VDA.pdb
     RDKit          3D

 21 20  0  0  1  0  0  0  0  0999 V2000
    8.2021  -12.1660   18.7282 C   0  0  0  0  0  0  0  0  0  0  0  0
    8.6550  -13.2453   19.6726 C   0  0  1  0  0  0  0  0  0  0  0  0
    7.7307  -13.3599   20.8494 C   0  0  0  0  0  0  0  0  0  0  0  0
    8.8955  -14.5604   18.9730 C   0  0  2  0  0  0  0  0  0  0  0  0
    7.6873  -14.9586   18.3175 N   0  0  0  0  0  0  0  0  0  0  0  0
    9.4833  -15.5828   19.8422 C   0  0  0  0  0  0  0  0  0  0  0  0
    8.7284  -16.4222   20.3759 O   0  0  0  0  0  0  0  0  0  0  0  0
   10.8689  -15.7052   20.1376 N   0  0  0  0  0  0  0  0  0  0  0  0
   11.4413  -16.6681   21.0030 C   0  0  1  0  0  0  0  0  0  0  0  0
   12.8134  -17.1348   20.6347 C   0  0  0  0  0  0  0  0  0  0  0  0
   12.9040  -17.7712   19.3188 C   0  0  0  0  0  0  0  0  0  0  0  0
   12.2438  -18.8169   19.1105 O   0  0  0  0  0  0  0  0  0  0  0  0
   11.3865  -16.1950   22.3943 C   0  0  0  0  0  0  0  0  0  0  0  0
   12.2865  -15.4290   22.8168 O   0  0  0  0  0  0  0  0  0  0  0  0
   13.6925  -17.2580   18.2993 O   0  0  0  0  0  0  0  0  0  0  0  0
    8.8686  -15.7295   25.0399 C   0  0  0  0  0  0  0  0  0  0  0  0
   10.3114  -16.0993   24.6792 C   0  0  2  0  0  0  0  0  0  0  0  0
   10.3629  -16.5524   23.3144 N   0  0  0  0  0  0  0  0  0  0  0  0
   10.7653  -17.1414   25.6330 C   0  0  0  0  0  0  0  0  0  0  0  0
   11.0507  -18.4360   25.2615 O   0  0  0  0  0  0  0  0  0  0  0  0
   10.8957  -16.8248   26.8420 O   0  0  0  0  0  0  0  0  0  0  0  0
  2  1  1  6
  2  4  1  0
  3  2  1  0
  4  5  1  1
  4  6  1  0
  6  8  1  0
  7  6  2  0
  8  9  1  0
  9 10  1  6
  9 13  1  0
 10 11  1  0
 11 15  1  0
 12 11  2  0
 13 18  1  0
 13 14  2  0
 17 16  1  1
 18 17  1  0
 19 17  1  0
 19 20  1  0
 21 19  2  0
M  END
$$$$
