VDA.pdb
     RDKit          3D

 21 20  0  0  1  0  0  0  0  0999 V2000
    8.0472  -11.8978   18.3481 C   0  0  0  0  0  0  0  0  0  0  0  0
    8.7475  -12.8876   19.2379 C   0  0  1  0  0  0  0  0  0  0  0  0
    7.9513  -13.1583   20.4810 C   0  0  0  0  0  0  0  0  0  0  0  0
    9.1484  -14.1422   18.5017 C   0  0  2  0  0  0  0  0  0  0  0  0
    7.9904  -14.6883   17.8622 N   0  0  0  0  0  0  0  0  0  0  0  0
    9.8912  -15.0926   19.3333 C   0  0  0  0  0  0  0  0  0  0  0  0
    9.2598  -15.9945   19.9227 O   0  0  0  0  0  0  0  0  0  0  0  0
   11.2991  -15.0769   19.5322 N   0  0  0  0  0  0  0  0  0  0  0  0
   12.0277  -16.0063   20.3127 C   0  0  1  0  0  0  0  0  0  0  0  0
   13.4750  -16.1497   19.9647 C   0  0  0  0  0  0  0  0  0  0  0  0
   14.2824  -14.9566   20.2280 C   0  0  0  0  0  0  0  0  0  0  0  0
   13.7446  -13.9831   20.8074 O   0  0  0  0  0  0  0  0  0  0  0  0
   11.8413  -15.7224   21.7436 C   0  0  0  0  0  0  0  0  0  0  0  0
   11.6621  -14.5369   22.1145 O   0  0  0  0  0  0  0  0  0  0  0  0
   15.6168  -14.8678   19.8592 O   0  0  0  0  0  0  0  0  0  0  0  0
   10.0588  -16.0071   24.2320 C   0  0  0  0  0  0  0  0  0  0  0  0
   11.5166  -16.4697   24.1356 C   0  0  2  0  0  0  0  0  0  0  0  0
   11.8501  -16.7187   22.7581 N   0  0  0  0  0  0  0  0  0  0  0  0
   11.6646  -17.6836   24.9760 C   0  0  0  0  0  0  0  0  0  0  0  0
   11.5590  -17.6723   26.3487 O   0  0  0  0  0  0  0  0  0  0  0  0
   11.8985  -18.7778   24.4044 O   0  0  0  0  0  0  0  0  0  0  0  0
  2  1  1  6
  2  4  1  0
  3  2  1  0
  4  5  1  1
  4  6  1  0
  6  8  1  0
  7  6  2  0
  8  9  1  0
  9 10  1  6
  9 13  1  0
 10 11  1  0
 11 15  1  0
 12 11  2  0
 13 18  1  0
 13 14  2  0
 17 16  1  6
 18 17  1  0
 19 17  1  0
 19 20  1  0
 21 19  2  0
M  END
$$$$
