VDA.pdb
     RDKit          3D

 21 20  0  0  1  0  0  0  0  0999 V2000
    7.9207  -12.3813   18.8102 C   0  0  0  0  0  0  0  0  0  0  0  0
    8.3961  -13.3786   19.8306 C   0  0  1  0  0  0  0  0  0  0  0  0
    7.4511  -13.4574   20.9939 C   0  0  0  0  0  0  0  0  0  0  0  0
    8.7055  -14.7241   19.2217 C   0  0  2  0  0  0  0  0  0  0  0  0
    7.5617  -15.1677   18.4848 N   0  0  0  0  0  0  0  0  0  0  0  0
    9.2223  -15.6955   20.1890 C   0  0  0  0  0  0  0  0  0  0  0  0
    8.4244  -16.4973   20.7181 O   0  0  0  0  0  0  0  0  0  0  0  0
   10.5830  -15.8071   20.5866 N   0  0  0  0  0  0  0  0  0  0  0  0
   11.0861  -16.7230   21.5415 C   0  0  1  0  0  0  0  0  0  0  0  0
   12.5097  -17.1395   21.3515 C   0  0  0  0  0  0  0  0  0  0  0  0
   12.9734  -18.1597   22.2942 C   0  0  0  0  0  0  0  0  0  0  0  0
   14.1354  -18.0667   22.7567 O   0  0  0  0  0  0  0  0  0  0  0  0
   10.8474  -16.2185   22.9021 C   0  0  0  0  0  0  0  0  0  0  0  0
   11.5338  -15.2581   23.3285 O   0  0  0  0  0  0  0  0  0  0  0  0
   12.1735  -19.2215   22.6909 O   0  0  0  0  0  0  0  0  0  0  0  0
    8.1114  -15.9664   25.2593 C   0  0  0  0  0  0  0  0  0  0  0  0
    9.6114  -16.2403   25.1061 C   0  0  2  0  0  0  0  0  0  0  0  0
    9.8724  -16.7543   23.7876 N   0  0  0  0  0  0  0  0  0  0  0  0
   10.0097  -17.1961   26.1689 C   0  0  0  0  0  0  0  0  0  0  0  0
   10.0052  -16.8833   27.5097 O   0  0  0  0  0  0  0  0  0  0  0  0
   10.3694  -18.3502   25.8265 O   0  0  0  0  0  0  0  0  0  0  0  0
  2  1  1  6
  2  4  1  0
  3  2  1  0
  4  5  1  1
  4  6  1  0
  6  8  1  0
  7  6  2  0
  8  9  1  0
  9 10  1  6
  9 13  1  0
 10 11  1  0
 11 15  1  0
 12 11  2  0
 13 18  1  0
 13 14  2  0
 17 16  1  6
 18 17  1  0
 19 17  1  0
 19 20  1  0
 21 19  2  0
M  END
$$$$
