VDA.pdb
     RDKit          3D

 21 20  0  0  1  0  0  0  0  0999 V2000
    7.8107  -12.2425   25.3613 C   0  0  0  0  0  0  0  0  0  0  0  0
    6.6749  -13.0199   25.9675 C   0  0  1  0  0  0  0  0  0  0  0  0
    5.4091  -12.2134   25.9769 C   0  0  0  0  0  0  0  0  0  0  0  0
    6.5090  -14.3824   25.3407 C   0  0  2  0  0  0  0  0  0  0  0  0
    5.3358  -14.9967   25.8830 N   0  0  0  0  0  0  0  0  0  0  0  0
    7.7180  -15.2069   25.4126 C   0  0  0  0  0  0  0  0  0  0  0  0
    7.8856  -15.9394   26.4099 O   0  0  0  0  0  0  0  0  0  0  0  0
    8.7394  -15.2464   24.4240 N   0  0  0  0  0  0  0  0  0  0  0  0
    9.9081  -16.0428   24.4834 C   0  0  1  0  0  0  0  0  0  0  0  0
   10.7208  -16.0940   23.2291 C   0  0  0  0  0  0  0  0  0  0  0  0
    9.9947  -16.5868   22.0566 C   0  0  0  0  0  0  0  0  0  0  0  0
    9.3774  -17.6748   22.1457 O   0  0  0  0  0  0  0  0  0  0  0  0
   10.7265  -15.6557   25.6423 C   0  0  0  0  0  0  0  0  0  0  0  0
   11.5232  -14.6919   25.5351 O   0  0  0  0  0  0  0  0  0  0  0  0
    9.9670  -15.8930   20.8556 O   0  0  0  0  0  0  0  0  0  0  0  0
   10.8767  -14.4562   28.4543 C   0  0  0  0  0  0  0  0  0  0  0  0
   11.3741  -15.8557   28.0767 C   0  0  2  0  0  0  0  0  0  0  0  0
   10.6772  -16.3114   26.9031 N   0  0  0  0  0  0  0  0  0  0  0  0
   11.1511  -16.7468   29.2421 C   0  0  0  0  0  0  0  0  0  0  0  0
   10.3290  -17.8505   29.2055 O   0  0  0  0  0  0  0  0  0  0  0  0
   11.7438  -16.4793   30.3173 O   0  0  0  0  0  0  0  0  0  0  0  0
  2  1  1  6
  2  4  1  0
  3  2  1  0
  4  5  1  1
  4  6  1  0
  6  8  1  0
  7  6  2  0
  8  9  1  0
  9 10  1  6
  9 13  1  0
 10 11  1  0
 11 15  1  0
 12 11  2  0
 13 18  1  0
 13 14  2  0
 17 16  1  1
 18 17  1  0
 19 17  1  0
 19 20  1  0
 21 19  2  0
M  END
$$$$
