VDA.pdb
     RDKit          3D

 21 20  0  0  1  0  0  0  0  0999 V2000
    8.8748  -12.8630   20.4809 C   0  0  0  0  0  0  0  0  0  0  0  0
    7.9871  -13.5216   19.4611 C   0  0  1  0  0  0  0  0  0  0  0  0
    7.4461  -12.5191   18.4839 C   0  0  0  0  0  0  0  0  0  0  0  0
    8.6495  -14.7038   18.7973 C   0  0  2  0  0  0  0  0  0  0  0  0
    7.7230  -15.2923   17.8789 N   0  0  0  0  0  0  0  0  0  0  0  0
    9.2477  -15.6448   19.7475 C   0  0  0  0  0  0  0  0  0  0  0  0
    8.4950  -16.3991   20.3986 O   0  0  0  0  0  0  0  0  0  0  0  0
   10.6411  -15.7769   19.9985 N   0  0  0  0  0  0  0  0  0  0  0  0
   11.2246  -16.6505   20.9473 C   0  0  1  0  0  0  0  0  0  0  0  0
   12.6135  -17.1091   20.6364 C   0  0  0  0  0  0  0  0  0  0  0  0
   12.7236  -17.9339   19.4313 C   0  0  0  0  0  0  0  0  0  0  0  0
   11.8889  -18.8530   19.2540 O   0  0  0  0  0  0  0  0  0  0  0  0
   11.1367  -16.0670   22.2944 C   0  0  0  0  0  0  0  0  0  0  0  0
   11.8254  -15.0544   22.5694 O   0  0  0  0  0  0  0  0  0  0  0  0
   13.7164  -17.7334   18.4833 O   0  0  0  0  0  0  0  0  0  0  0  0
    8.8030  -15.6912   25.0119 C   0  0  0  0  0  0  0  0  0  0  0  0
   10.2535  -16.0404   24.6619 C   0  0  2  0  0  0  0  0  0  0  0  0
   10.3081  -16.5809   23.3293 N   0  0  0  0  0  0  0  0  0  0  0  0
   10.7469  -17.0031   25.6775 C   0  0  0  0  0  0  0  0  0  0  0  0
   11.0496  -16.6489   26.9731 O   0  0  0  0  0  0  0  0  0  0  0  0
   10.8958  -18.2032   25.3366 O   0  0  0  0  0  0  0  0  0  0  0  0
  2  1  1  1
  2  4  1  0
  3  2  1  0
  4  5  1  1
  4  6  1  0
  6  8  1  0
  7  6  2  0
  8  9  1  0
  9 10  1  6
  9 13  1  0
 10 11  1  0
 11 15  1  0
 12 11  2  0
 13 18  1  0
 13 14  2  0
 17 16  1  1
 18 17  1  0
 19 17  1  0
 19 20  1  0
 21 19  2  0
M  END
$$$$
