VDA.pdb
     RDKit          3D

 21 20  0  0  1  0  0  0  0  0999 V2000
    7.8446  -12.0361   18.8092 C   0  0  0  0  0  0  0  0  0  0  0  0
    8.7670  -13.0097   19.4898 C   0  0  1  0  0  0  0  0  0  0  0  0
    8.1274  -13.5994   20.7127 C   0  0  0  0  0  0  0  0  0  0  0  0
    9.3103  -14.0495   18.5408 C   0  0  2  0  0  0  0  0  0  0  0  0
    8.2112  -14.7537   17.9543 N   0  0  0  0  0  0  0  0  0  0  0  0
   10.3337  -14.9081   19.1425 C   0  0  0  0  0  0  0  0  0  0  0  0
    9.9823  -15.9924   19.6525 O   0  0  0  0  0  0  0  0  0  0  0  0
   11.7225  -14.6076   19.1974 N   0  0  0  0  0  0  0  0  0  0  0  0
   12.7138  -15.4176   19.8016 C   0  0  1  0  0  0  0  0  0  0  0  0
   14.1216  -15.1396   19.3809 C   0  0  0  0  0  0  0  0  0  0  0  0
   14.4070  -15.4493   17.9783 C   0  0  0  0  0  0  0  0  0  0  0  0
   15.1178  -14.6530   17.3198 O   0  0  0  0  0  0  0  0  0  0  0  0
   12.5707  -15.3865   21.2649 C   0  0  0  0  0  0  0  0  0  0  0  0
   13.1255  -14.4676   21.9152 O   0  0  0  0  0  0  0  0  0  0  0  0
   13.9192  -16.5893   17.3562 O   0  0  0  0  0  0  0  0  0  0  0  0
   10.2686  -16.0780   23.8471 C   0  0  0  0  0  0  0  0  0  0  0  0
   11.7238  -16.3422   23.4455 C   0  0  2  0  0  0  0  0  0  0  0  0
   11.8317  -16.3456   22.0106 N   0  0  0  0  0  0  0  0  0  0  0  0
   12.1311  -17.6388   24.0411 C   0  0  0  0  0  0  0  0  0  0  0  0
   12.4022  -18.7635   23.2948 O   0  0  0  0  0  0  0  0  0  0  0  0
   12.2337  -17.7130   25.2912 O   0  0  0  0  0  0  0  0  0  0  0  0
  2  1  1  6
  2  4  1  0
  3  2  1  0
  4  5  1  1
  4  6  1  0
  6  8  1  0
  7  6  2  0
  8  9  1  0
  9 10  1  1
  9 13  1  0
 10 11  1  0
 11 15  1  0
 12 11  2  0
 13 18  1  0
 13 14  2  0
 17 16  1  6
 18 17  1  0
 19 17  1  0
 19 20  1  0
 21 19  2  0
M  END
$$$$
