EFN.pdb
     RDKit          3D

 29 29  0  0  1  0  0  0  0  0999 V2000
    1.5778  -25.8280   22.7837 N   0  0  0  0  0  0  0  0  0  0  0  0
    0.1456  -25.7025   22.8900 C   0  0  1  0  0  0  0  0  0  0  0  0
   -0.5411  -27.0320   22.9737 C   0  0  0  0  0  0  0  0  0  0  0  0
   -0.4612  -27.6804   24.3198 C   0  0  0  0  0  0  0  0  0  0  0  0
   -1.2559  -28.9249   24.2973 C   0  0  0  0  0  0  0  0  0  0  0  0
   -2.5237  -28.8752   24.2926 O   0  0  0  0  0  0  0  0  0  0  0  0
   -0.1769  -24.7751   23.9953 C   0  0  0  0  0  0  0  0  0  0  0  0
    0.6494  -24.5765   24.9205 O   0  0  0  0  0  0  0  0  0  0  0  0
   -0.6322  -30.1510   24.2809 O   0  0  0  0  0  0  0  0  0  0  0  0
   -1.4021  -24.0955   24.0403 N   0  0  0  0  0  0  0  0  0  0  0  0
   -1.8251  -23.1445   25.0434 C   0  0  1  0  0  0  0  0  0  0  0  0
   -2.3323  -21.9357   24.2863 C   0  0  0  0  0  0  0  0  0  0  0  0
   -1.2913  -21.1173   23.6695 C   0  0  0  0  0  0  0  0  0  0  0  0
   -0.4130  -20.3347   24.3817 C   0  0  0  0  0  0  0  0  0  0  0  0
    0.5306  -19.6100   23.7000 C   0  0  0  0  0  0  0  0  0  0  0  0
    0.6369  -19.6336   22.3241 C   0  0  0  0  0  0  0  0  0  0  0  0
   -0.2406  -20.4177   21.5863 C   0  0  0  0  0  0  0  0  0  0  0  0
   -1.1791  -21.1367   22.2795 C   0  0  0  0  0  0  0  0  0  0  0  0
   -3.0197  -23.7111   25.7299 C   0  0  0  0  0  0  0  0  0  0  0  0
   -3.9724  -24.2566   25.1459 O   0  0  0  0  0  0  0  0  0  0  0  0
   -5.3068  -26.1312   29.4074 N   0  0  0  0  0  0  0  0  0  0  0  0
   -3.9420  -26.0086   29.8510 C   0  0  0  0  0  0  0  0  0  0  0  0
   -3.6339  -26.6599   30.8792 O   0  0  0  0  0  0  0  0  0  0  0  0
   -3.0070  -25.1457   29.0844 C   0  0  0  0  0  0  0  0  0  0  0  0
   -3.8221  -24.5052   27.9895 C   0  0  2  0  0  0  0  0  0  0  0  0
   -3.0779  -23.6203   27.1563 N   0  0  0  0  0  0  0  0  0  0  0  0
   -4.8699  -23.7226   28.6820 C   0  0  0  0  0  0  0  0  0  0  0  0
   -5.2713  -24.0540   29.8113 O   0  0  0  0  0  0  0  0  0  0  0  0
   -5.4057  -22.6152   28.0687 O   0  0  0  0  0  0  0  0  0  0  0  0
  2  1  1  1
  2  7  1  0
  2  3  1  0
  3  4  1  0
  4  5  1  0
  5  6  2  0
  5  9  1  0
  7  8  2  0
  7 10  1  0
 10 11  1  0
 11 12  1  6
 12 13  1  0
 13 14  2  0
 13 18  1  0
 14 15  1  0
 15 16  2  0
 17 16  1  0
 18 17  2  0
 19 26  1  0
 19 11  1  0
 20 19  2  0
 21 22  1  0
 22 23  2  0
 22 24  1  0
 25 24  1  1
 25 26  1  0
 25 27  1  0
 27 29  1  0
 28 27  2  0
M  END
$$$$
