EFN.pdb
     RDKit          3D

 29 29  0  0  1  0  0  0  0  0999 V2000
    7.4910  -17.2348   19.7178 N   0  0  0  0  0  0  0  0  0  0  0  0
    8.9055  -16.9586   19.7511 C   0  0  1  0  0  0  0  0  0  0  0  0
    9.4204  -16.4483   18.4394 C   0  0  0  0  0  0  0  0  0  0  0  0
    8.4401  -16.5504   17.3136 C   0  0  0  0  0  0  0  0  0  0  0  0
    9.1007  -16.1178   16.0657 C   0  0  0  0  0  0  0  0  0  0  0  0
   10.3660  -16.1292   15.9737 O   0  0  0  0  0  0  0  0  0  0  0  0
    9.1997  -16.0852   20.9070 C   0  0  0  0  0  0  0  0  0  0  0  0
   10.3474  -15.5977   21.0601 O   0  0  0  0  0  0  0  0  0  0  0  0
    8.3532  -15.6983   14.9897 O   0  0  0  0  0  0  0  0  0  0  0  0
    8.2142  -15.7772   21.8552 N   0  0  0  0  0  0  0  0  0  0  0  0
    8.4126  -15.1027   23.1181 C   0  0  1  0  0  0  0  0  0  0  0  0
    7.0823  -14.4709   23.4685 C   0  0  0  0  0  0  0  0  0  0  0  0
    7.0740  -13.7111   24.7161 C   0  0  0  0  0  0  0  0  0  0  0  0
    6.4869  -14.1562   25.8773 C   0  0  0  0  0  0  0  0  0  0  0  0
    6.5436  -13.3627   26.9943 C   0  0  0  0  0  0  0  0  0  0  0  0
    7.1680  -12.1319   27.0023 C   0  0  0  0  0  0  0  0  0  0  0  0
    7.7671  -11.6641   25.8398 C   0  0  0  0  0  0  0  0  0  0  0  0
    7.7031  -12.4665   24.7305 C   0  0  0  0  0  0  0  0  0  0  0  0
    8.6413  -16.1452   24.1576 C   0  0  0  0  0  0  0  0  0  0  0  0
    7.9222  -17.1470   24.3176 O   0  0  0  0  0  0  0  0  0  0  0  0
   12.7326  -17.6265   23.5498 N   0  0  0  0  0  0  0  0  0  0  0  0
   12.0153  -18.1084   24.7020 C   0  0  0  0  0  0  0  0  0  0  0  0
   11.6551  -19.3107   24.6664 O   0  0  0  0  0  0  0  0  0  0  0  0
   11.7554  -17.1805   25.8324 C   0  0  0  0  0  0  0  0  0  0  0  0
   10.2599  -17.0004   25.8980 C   0  0  2  0  0  0  0  0  0  0  0  0
    9.7611  -15.9835   25.0329 N   0  0  0  0  0  0  0  0  0  0  0  0
    9.9692  -16.6076   27.2949 C   0  0  0  0  0  0  0  0  0  0  0  0
   10.1507  -17.4046   28.2320 O   0  0  0  0  0  0  0  0  0  0  0  0
    9.4927  -15.3457   27.5592 O   0  0  0  0  0  0  0  0  0  0  0  0
  2  1  1  6
  2  7  1  0
  2  3  1  0
  3  4  1  0
  4  5  1  0
  5  6  2  0
  5  9  1  0
  7  8  2  0
  7 10  1  0
 10 11  1  0
 11 12  1  1
 12 13  1  0
 13 14  2  0
 13 18  1  0
 14 15  1  0
 15 16  2  0
 17 16  1  0
 18 17  2  0
 19 26  1  0
 19 11  1  0
 20 19  2  0
 21 22  1  0
 22 23  2  0
 22 24  1  0
 25 24  1  1
 25 26  1  0
 25 27  1  0
 27 29  1  0
 28 27  2  0
M  END
$$$$
