EFN.pdb
     RDKit          3D

 29 29  0  0  1  0  0  0  0  0999 V2000
    8.3613  -18.0463   21.0208 N   0  0  0  0  0  0  0  0  0  0  0  0
    9.6031  -17.3411   20.8236 C   0  0  1  0  0  0  0  0  0  0  0  0
    9.7796  -16.8767   19.4096 C   0  0  0  0  0  0  0  0  0  0  0  0
    8.5142  -16.8437   18.6120 C   0  0  0  0  0  0  0  0  0  0  0  0
    8.7955  -16.2339   17.2967 C   0  0  0  0  0  0  0  0  0  0  0  0
    8.2901  -15.1113   16.9901 O   0  0  0  0  0  0  0  0  0  0  0  0
    9.7178  -16.2726   21.8388 C   0  0  0  0  0  0  0  0  0  0  0  0
   10.7209  -15.5164   21.8558 O   0  0  0  0  0  0  0  0  0  0  0  0
    9.6079  -16.8744   16.3900 O   0  0  0  0  0  0  0  0  0  0  0  0
    8.7182  -16.0734   22.8011 N   0  0  0  0  0  0  0  0  0  0  0  0
    8.7134  -15.0750   23.8465 C   0  0  1  0  0  0  0  0  0  0  0  0
    7.2815  -14.5978   23.9626 C   0  0  0  0  0  0  0  0  0  0  0  0
    7.0472  -13.6115   25.0143 C   0  0  0  0  0  0  0  0  0  0  0  0
    6.1653  -13.7977   26.0531 C   0  0  0  0  0  0  0  0  0  0  0  0
    6.0278  -12.8064   26.9905 C   0  0  0  0  0  0  0  0  0  0  0  0
    6.7403  -11.6256   26.9357 C   0  0  0  0  0  0  0  0  0  0  0  0
    7.6362  -11.4181   25.8947 C   0  0  0  0  0  0  0  0  0  0  0  0
    7.7640  -12.4162   24.9643 C   0  0  0  0  0  0  0  0  0  0  0  0
    9.0058  -15.7654   25.1339 C   0  0  0  0  0  0  0  0  0  0  0  0
    9.0197  -15.2051   26.2439 O   0  0  0  0  0  0  0  0  0  0  0  0
    7.6530  -19.0247   28.3332 N   0  0  0  0  0  0  0  0  0  0  0  0
    7.6044  -19.2777   26.9162 C   0  0  0  0  0  0  0  0  0  0  0  0
    6.4605  -19.4219   26.4190 O   0  0  0  0  0  0  0  0  0  0  0  0
    8.8749  -19.3473   26.1498 C   0  0  0  0  0  0  0  0  0  0  0  0
    9.5022  -17.9794   26.2438 C   0  0  2  0  0  0  0  0  0  0  0  0
    9.2923  -17.1663   25.0923 N   0  0  0  0  0  0  0  0  0  0  0  0
   10.9556  -18.2192   26.3861 C   0  0  0  0  0  0  0  0  0  0  0  0
   11.7602  -17.7728   25.5496 O   0  0  0  0  0  0  0  0  0  0  0  0
   11.4215  -18.9443   27.4569 O   0  0  0  0  0  0  0  0  0  0  0  0
  2  1  1  6
  2  7  1  0
  2  3  1  0
  3  4  1  0
  4  5  1  0
  5  6  2  0
  5  9  1  0
  7  8  2  0
  7 10  1  0
 10 11  1  0
 11 12  1  1
 12 13  1  0
 13 14  2  0
 13 18  1  0
 14 15  1  0
 15 16  2  0
 17 16  1  0
 18 17  2  0
 19 26  1  0
 19 11  1  0
 20 19  2  0
 21 22  1  0
 22 23  2  0
 22 24  1  0
 25 24  1  6
 25 26  1  0
 25 27  1  0
 27 29  1  0
 28 27  2  0
M  END
$$$$
