EFN.pdb
     RDKit          3D

 29 29  0  0  1  0  0  0  0  0999 V2000
    9.9113  -16.5839   19.3192 N   0  0  0  0  0  0  0  0  0  0  0  0
    8.6752  -16.1129   19.8922 C   0  0  1  0  0  0  0  0  0  0  0  0
    7.5415  -17.0683   19.6728 C   0  0  0  0  0  0  0  0  0  0  0  0
    7.7753  -18.4366   20.2314 C   0  0  0  0  0  0  0  0  0  0  0  0
    6.5583  -19.2483   20.0291 C   0  0  0  0  0  0  0  0  0  0  0  0
    6.4290  -20.3658   20.6157 O   0  0  0  0  0  0  0  0  0  0  0  0
    8.9063  -15.7499   21.3065 C   0  0  0  0  0  0  0  0  0  0  0  0
    9.8048  -16.3230   21.9716 O   0  0  0  0  0  0  0  0  0  0  0  0
    5.5517  -18.8031   19.2038 O   0  0  0  0  0  0  0  0  0  0  0  0
    8.1375  -14.7630   21.9390 N   0  0  0  0  0  0  0  0  0  0  0  0
    8.2385  -14.3425   23.3183 C   0  0  1  0  0  0  0  0  0  0  0  0
    7.1000  -13.3707   23.5439 C   0  0  0  0  0  0  0  0  0  0  0  0
    6.9758  -12.8789   24.9137 C   0  0  0  0  0  0  0  0  0  0  0  0
    5.7878  -12.8362   25.6051 C   0  0  0  0  0  0  0  0  0  0  0  0
    5.7868  -12.3601   26.8910 C   0  0  0  0  0  0  0  0  0  0  0  0
    6.9322  -11.9210   27.5234 C   0  0  0  0  0  0  0  0  0  0  0  0
    8.1425  -11.9560   26.8426 C   0  0  0  0  0  0  0  0  0  0  0  0
    8.1298  -12.4336   25.5581 C   0  0  0  0  0  0  0  0  0  0  0  0
    7.9282  -15.5210   24.1752 C   0  0  0  0  0  0  0  0  0  0  0  0
    6.9407  -16.2608   24.0212 O   0  0  0  0  0  0  0  0  0  0  0  0
   10.4039  -20.4174   25.5512 N   0  0  0  0  0  0  0  0  0  0  0  0
    9.3878  -19.4353   25.8293 C   0  0  0  0  0  0  0  0  0  0  0  0
    8.6271  -19.6851   26.7965 O   0  0  0  0  0  0  0  0  0  0  0  0
    9.3060  -18.2189   24.9808 C   0  0  0  0  0  0  0  0  0  0  0  0
    8.9074  -17.0892   25.8964 C   0  0  2  0  0  0  0  0  0  0  0  0
    8.8238  -15.8221   25.2494 N   0  0  0  0  0  0  0  0  0  0  0  0
    9.9700  -17.0184   26.9239 C   0  0  0  0  0  0  0  0  0  0  0  0
   10.1282  -17.9416   27.7419 O   0  0  0  0  0  0  0  0  0  0  0  0
   10.7924  -15.9182   26.9742 O   0  0  0  0  0  0  0  0  0  0  0  0
  2  1  1  1
  2  7  1  0
  2  3  1  0
  3  4  1  0
  4  5  1  0
  5  6  2  0
  5  9  1  0
  7  8  2  0
  7 10  1  0
 10 11  1  0
 11 12  1  6
 12 13  1  0
 13 14  2  0
 13 18  1  0
 14 15  1  0
 15 16  2  0
 17 16  1  0
 18 17  2  0
 19 26  1  0
 19 11  1  0
 20 19  2  0
 21 22  1  0
 22 23  2  0
 22 24  1  0
 25 24  1  6
 25 26  1  0
 25 27  1  0
 27 29  1  0
 28 27  2  0
M  END
$$$$
