FSR.pdb
     RDKit          3D

 29 29  0  0  1  0  0  0  0  0999 V2000
   21.2540  -27.0569  -13.2279 N   0  0  0  0  0  0  0  0  0  0  0  0
   20.2588  -26.1015  -12.7742 C   0  0  1  0  0  0  0  0  0  0  0  0
   19.4913  -25.6618  -13.9821 C   0  0  0  0  0  0  0  0  0  0  0  0
   20.3158  -24.8520  -14.9142 C   0  0  0  0  0  0  0  0  0  0  0  0
   20.5707  -23.5103  -14.6952 C   0  0  0  0  0  0  0  0  0  0  0  0
   21.3455  -22.7626  -15.5792 C   0  0  0  0  0  0  0  0  0  0  0  0
   21.8733  -23.3457  -16.6896 C   0  0  0  0  0  0  0  0  0  0  0  0
   21.6402  -24.6697  -16.9348 C   0  0  0  0  0  0  0  0  0  0  0  0
   20.8789  -25.3980  -16.0633 C   0  0  0  0  0  0  0  0  0  0  0  0
   19.4756  -26.7160  -11.7249 C   0  0  0  0  0  0  0  0  0  0  0  0
   19.0723  -27.9013  -11.8352 O   0  0  0  0  0  0  0  0  0  0  0  0
   18.6376  -24.3307   -8.5516 O   0  0  0  0  0  0  0  0  0  0  0  0
   18.2146  -25.6312   -8.2945 C   0  0  0  0  0  0  0  0  0  0  0  0
   18.2962  -26.5272   -9.5084 C   0  0  2  0  0  0  0  0  0  0  0  0
   19.1425  -25.9863  -10.5375 N   0  0  0  0  0  0  0  0  0  0  0  0
   16.8953  -26.7271  -10.0050 C   0  0  0  0  0  0  0  0  0  0  0  0
   16.4512  -25.9350  -10.8500 O   0  0  0  0  0  0  0  0  0  0  0  0
   10.7324  -32.1542   -7.3122 N   0  0  0  0  0  0  0  0  0  0  0  0
   10.4506  -32.0850   -8.6999 C   0  0  0  0  0  0  0  0  0  0  0  0
    9.2321  -32.3353   -9.0899 N   0  0  0  0  0  0  0  0  0  0  0  0
   11.4316  -31.7574   -9.6744 N   0  0  0  0  0  0  0  0  0  0  0  0
   12.7439  -31.3104   -9.2455 C   0  0  0  0  0  0  0  0  0  0  0  0
   13.0579  -29.9439   -9.8458 C   0  0  0  0  0  0  0  0  0  0  0  0
   14.4117  -29.4708   -9.4228 C   0  0  0  0  0  0  0  0  0  0  0  0
   14.8366  -28.1577   -9.9575 C   0  0  2  0  0  0  0  0  0  0  0  0
   16.1479  -27.8005   -9.4940 N   0  0  0  0  0  0  0  0  0  0  0  0
   13.8339  -27.0680   -9.8771 C   0  0  0  0  0  0  0  0  0  0  0  0
   12.9183  -26.9200  -10.9025 O   0  0  0  0  0  0  0  0  0  0  0  0
   13.7444  -26.2550   -8.9330 O   0  0  0  0  0  0  0  0  0  0  0  0
  2  1  1  6
  2 10  1  0
  3  2  1  0
  4  3  1  0
  4  9  2  0
  5  4  1  0
  6  5  2  0
  6  7  1  0
  7  8  2  0
  8  9  1  0
 10 11  2  0
 13 12  1  0
 14 13  1  1
 14 16  1  0
 15 14  1  0
 15 10  1  0
 16 26  1  0
 16 17  2  0
 18 19  1  0
 19 21  1  0
 19 20  2  0
 21 22  1  0
 22 23  1  0
 23 24  1  0
 25 24  1  1
 25 27  1  0
 26 25  1  0
 27 29  2  0
 27 28  1  0
M  END
$$$$
