FSR.pdb
     RDKit          3D

 29 29  0  0  1  0  0  0  0  0999 V2000
   25.5112  -14.7161  -17.5740 N   0  0  0  0  0  0  0  0  0  0  0  0
   25.4426  -16.0280  -16.9550 C   0  0  1  0  0  0  0  0  0  0  0  0
   26.5607  -16.1028  -15.9622 C   0  0  0  0  0  0  0  0  0  0  0  0
   27.8724  -16.3700  -16.6043 C   0  0  0  0  0  0  0  0  0  0  0  0
   28.1991  -17.6100  -17.1224 C   0  0  0  0  0  0  0  0  0  0  0  0
   29.4344  -17.8465  -17.7215 C   0  0  0  0  0  0  0  0  0  0  0  0
   30.3554  -16.8488  -17.8094 C   0  0  0  0  0  0  0  0  0  0  0  0
   30.0637  -15.6118  -17.3071 C   0  0  0  0  0  0  0  0  0  0  0  0
   28.8494  -15.3862  -16.7204 C   0  0  0  0  0  0  0  0  0  0  0  0
   24.1135  -16.2135  -16.4154 C   0  0  0  0  0  0  0  0  0  0  0  0
   23.5975  -15.3452  -15.6673 O   0  0  0  0  0  0  0  0  0  0  0  0
   21.2829  -18.9544  -17.9660 O   0  0  0  0  0  0  0  0  0  0  0  0
   20.9909  -17.9527  -17.0452 C   0  0  0  0  0  0  0  0  0  0  0  0
   22.1161  -17.7063  -16.0673 C   0  0  2  0  0  0  0  0  0  0  0  0
   23.3570  -17.3911  -16.7220 N   0  0  0  0  0  0  0  0  0  0  0  0
   22.2443  -18.9383  -15.2218 C   0  0  0  0  0  0  0  0  0  0  0  0
   22.7776  -19.9415  -15.7196 O   0  0  0  0  0  0  0  0  0  0  0  0
   26.1025  -22.1779  -11.4725 N   0  0  0  0  0  0  0  0  0  0  0  0
   25.7982  -21.0277  -10.7016 C   0  0  0  0  0  0  0  0  0  0  0  0
   26.7900  -20.2969  -10.2754 N   0  0  0  0  0  0  0  0  0  0  0  0
   24.4696  -20.6418  -10.3768 N   0  0  0  0  0  0  0  0  0  0  0  0
   23.3642  -21.5090  -10.7404 C   0  0  0  0  0  0  0  0  0  0  0  0
   22.0432  -20.7553  -10.6264 C   0  0  0  0  0  0  0  0  0  0  0  0
   21.9745  -19.6407  -11.6208 C   0  0  0  0  0  0  0  0  0  0  0  0
   21.7379  -20.0390  -13.0265 C   0  0  2  0  0  0  0  0  0  0  0  0
   21.7572  -18.9034  -13.9052 N   0  0  0  0  0  0  0  0  0  0  0  0
   20.6142  -20.9793  -13.2552 C   0  0  0  0  0  0  0  0  0  0  0  0
   20.8698  -22.3377  -13.2855 O   0  0  0  0  0  0  0  0  0  0  0  0
   19.4250  -20.6355  -13.4231 O   0  0  0  0  0  0  0  0  0  0  0  0
  2  1  1  1
  2 10  1  0
  3  2  1  0
  4  3  1  0
  4  9  2  0
  5  4  1  0
  6  5  2  0
  6  7  1  0
  7  8  2  0
  8  9  1  0
 10 11  2  0
 13 12  1  0
 14 13  1  6
 14 16  1  0
 15 14  1  0
 15 10  1  0
 16 26  1  0
 16 17  2  0
 18 19  1  0
 19 21  1  0
 19 20  2  0
 21 22  1  0
 22 23  1  0
 23 24  1  0
 25 24  1  1
 25 27  1  0
 26 25  1  0
 27 29  2  0
 27 28  1  0
M  END
$$$$
