FSR.pdb
     RDKit          3D

 29 29  0  0  1  0  0  0  0  0999 V2000
   28.7512  -22.6931  -12.3866 N   0  0  0  0  0  0  0  0  0  0  0  0
   28.0254  -21.9236  -11.3915 C   0  0  1  0  0  0  0  0  0  0  0  0
   28.8643  -20.7272  -11.0658 C   0  0  0  0  0  0  0  0  0  0  0  0
   30.0692  -21.0782  -10.2725 C   0  0  0  0  0  0  0  0  0  0  0  0
   31.3093  -21.2570  -10.8582 C   0  0  0  0  0  0  0  0  0  0  0  0
   32.4313  -21.5872  -10.1013 C   0  0  0  0  0  0  0  0  0  0  0  0
   32.3271  -21.7422   -8.7534 C   0  0  0  0  0  0  0  0  0  0  0  0
   31.1158  -21.5725   -8.1440 C   0  0  0  0  0  0  0  0  0  0  0  0
   30.0184  -21.2484   -8.8926 C   0  0  0  0  0  0  0  0  0  0  0  0
   26.7029  -21.6396  -11.9038 C   0  0  0  0  0  0  0  0  0  0  0  0
   26.4953  -21.5695  -13.1415 O   0  0  0  0  0  0  0  0  0  0  0  0
   23.4225  -20.0702   -9.6161 O   0  0  0  0  0  0  0  0  0  0  0  0
   23.2538  -21.2581  -10.3209 C   0  0  0  0  0  0  0  0  0  0  0  0
   24.2352  -21.4111  -11.4595 C   0  0  2  0  0  0  0  0  0  0  0  0
   25.6013  -21.4320  -11.0113 N   0  0  0  0  0  0  0  0  0  0  0  0
   23.9911  -20.2760  -12.4087 C   0  0  0  0  0  0  0  0  0  0  0  0
   24.6060  -19.2141  -12.2277 O   0  0  0  0  0  0  0  0  0  0  0  0
   26.2392  -15.5110  -17.8921 N   0  0  0  0  0  0  0  0  0  0  0  0
   24.9101  -15.5528  -18.3836 C   0  0  0  0  0  0  0  0  0  0  0  0
   24.5485  -14.6460  -19.2475 N   0  0  0  0  0  0  0  0  0  0  0  0
   23.9643  -16.5327  -17.9777 N   0  0  0  0  0  0  0  0  0  0  0  0
   24.3344  -17.5092  -16.9699 C   0  0  0  0  0  0  0  0  0  0  0  0
   23.1309  -18.3721  -16.6048 C   0  0  0  0  0  0  0  0  0  0  0  0
   23.4982  -19.3986  -15.5815 C   0  0  0  0  0  0  0  0  0  0  0  0
   22.6652  -19.4224  -14.3583 C   0  0  2  0  0  0  0  0  0  0  0  0
   23.0794  -20.4636  -13.4603 N   0  0  0  0  0  0  0  0  0  0  0  0
   21.1998  -19.3330  -14.5681 C   0  0  0  0  0  0  0  0  0  0  0  0
   20.6367  -18.1053  -14.8632 O   0  0  0  0  0  0  0  0  0  0  0  0
   20.4138  -20.3016  -14.5020 O   0  0  0  0  0  0  0  0  0  0  0  0
  2  1  1  6
  2 10  1  0
  3  2  1  0
  4  3  1  0
  4  9  2  0
  5  4  1  0
  6  5  2  0
  6  7  1  0
  7  8  2  0
  8  9  1  0
 10 11  2  0
 13 12  1  0
 14 13  1  1
 14 16  1  0
 15 14  1  0
 15 10  1  0
 16 26  1  0
 16 17  2  0
 18 19  1  0
 19 21  1  0
 19 20  2  0
 21 22  1  0
 22 23  1  0
 23 24  1  0
 25 24  1  6
 25 27  1  0
 26 25  1  0
 27 29  2  0
 27 28  1  0
M  END
$$$$
