FSR.pdb
     RDKit          3D

 29 29  0  0  1  0  0  0  0  0999 V2000
   27.4601  -22.0769   -9.8594 N   0  0  0  0  0  0  0  0  0  0  0  0
   26.4391  -21.0535   -9.7208 C   0  0  1  0  0  0  0  0  0  0  0  0
   27.1437  -19.7329   -9.6926 C   0  0  0  0  0  0  0  0  0  0  0  0
   27.6596  -19.3940   -8.3423 C   0  0  0  0  0  0  0  0  0  0  0  0
   26.9428  -18.6107   -7.4560 C   0  0  0  0  0  0  0  0  0  0  0  0
   27.4400  -18.3000   -6.1922 C   0  0  0  0  0  0  0  0  0  0  0  0
   28.6564  -18.7673   -5.8005 C   0  0  0  0  0  0  0  0  0  0  0  0
   29.3898  -19.5440   -6.6529 C   0  0  0  0  0  0  0  0  0  0  0  0
   28.8962  -19.8453   -7.8919 C   0  0  0  0  0  0  0  0  0  0  0  0
   25.4704  -21.2231  -10.7814 C   0  0  0  0  0  0  0  0  0  0  0  0
   25.8053  -21.7298  -11.8818 O   0  0  0  0  0  0  0  0  0  0  0  0
   21.7034  -19.6342  -10.2222 O   0  0  0  0  0  0  0  0  0  0  0  0
   21.7006  -20.7418  -11.0645 C   0  0  0  0  0  0  0  0  0  0  0  0
   23.0798  -21.1054  -11.5630 C   0  0  2  0  0  0  0  0  0  0  0  0
   24.1082  -20.8168  -10.6002 N   0  0  0  0  0  0  0  0  0  0  0  0
   23.3016  -20.3499  -12.8394 C   0  0  0  0  0  0  0  0  0  0  0  0
   23.6378  -19.1581  -12.7676 O   0  0  0  0  0  0  0  0  0  0  0  0
   26.5935  -25.0223  -15.8269 N   0  0  0  0  0  0  0  0  0  0  0  0
   25.6136  -25.1474  -16.8437 C   0  0  0  0  0  0  0  0  0  0  0  0
   25.7298  -26.1345  -17.6872 N   0  0  0  0  0  0  0  0  0  0  0  0
   24.5202  -24.2500  -16.9808 N   0  0  0  0  0  0  0  0  0  0  0  0
   23.9132  -23.6763  -15.7940 C   0  0  0  0  0  0  0  0  0  0  0  0
   22.7839  -22.7286  -16.1849 C   0  0  0  0  0  0  0  0  0  0  0  0
   23.3048  -21.3504  -16.4394 C   0  0  0  0  0  0  0  0  0  0  0  0
   23.1247  -20.3754  -15.3404 C   0  0  2  0  0  0  0  0  0  0  0  0
   23.1207  -21.0227  -14.0586 N   0  0  0  0  0  0  0  0  0  0  0  0
   22.0483  -19.3731  -15.5307 C   0  0  0  0  0  0  0  0  0  0  0  0
   20.7948  -19.6248  -15.0048 O   0  0  0  0  0  0  0  0  0  0  0  0
   22.1867  -18.2911  -16.1395 O   0  0  0  0  0  0  0  0  0  0  0  0
  2  1  1  6
  2 10  1  0
  3  2  1  0
  4  3  1  0
  4  9  2  0
  5  4  1  0
  6  5  2  0
  6  7  1  0
  7  8  2  0
  8  9  1  0
 10 11  2  0
 13 12  1  0
 14 13  1  1
 14 16  1  0
 15 14  1  0
 15 10  1  0
 16 26  1  0
 16 17  2  0
 18 19  1  0
 19 21  1  0
 19 20  2  0
 21 22  1  0
 22 23  1  0
 23 24  1  0
 25 24  1  6
 25 27  1  0
 26 25  1  0
 27 29  2  0
 27 28  1  0
M  END
$$$$
