FSR.pdb
     RDKit          3D

 29 29  0  0  1  0  0  0  0  0999 V2000
   26.9053  -18.5833   -7.8872 N   0  0  0  0  0  0  0  0  0  0  0  0
   27.2747  -19.8767   -8.4345 C   0  0  1  0  0  0  0  0  0  0  0  0
   27.1865  -20.8672   -7.3154 C   0  0  0  0  0  0  0  0  0  0  0  0
   28.1098  -20.5446   -6.1983 C   0  0  0  0  0  0  0  0  0  0  0  0
   29.4842  -20.5597   -6.3520 C   0  0  0  0  0  0  0  0  0  0  0  0
   30.3385  -20.2557   -5.2944 C   0  0  0  0  0  0  0  0  0  0  0  0
   29.8304  -19.9338   -4.0739 C   0  0  0  0  0  0  0  0  0  0  0  0
   28.4766  -19.9099   -3.8890 C   0  0  0  0  0  0  0  0  0  0  0  0
   27.6435  -20.2093   -4.9311 C   0  0  0  0  0  0  0  0  0  0  0  0
   26.4335  -20.1495   -9.5791 C   0  0  0  0  0  0  0  0  0  0  0  0
   25.1829  -20.0572   -9.4932 O   0  0  0  0  0  0  0  0  0  0  0  0
   28.2726  -21.0141  -13.4112 O   0  0  0  0  0  0  0  0  0  0  0  0
   27.4817  -19.8977  -13.1573 C   0  0  0  0  0  0  0  0  0  0  0  0
   26.4347  -20.1473  -12.0969 C   0  0  2  0  0  0  0  0  0  0  0  0
   27.0079  -20.5310  -10.8352 N   0  0  0  0  0  0  0  0  0  0  0  0
   25.5171  -21.2101  -12.6236 C   0  0  0  0  0  0  0  0  0  0  0  0
   25.8776  -22.3940  -12.5400 O   0  0  0  0  0  0  0  0  0  0  0  0
   17.7503  -19.1717  -12.0404 N   0  0  0  0  0  0  0  0  0  0  0  0
   18.5965  -19.1693  -13.1779 C   0  0  0  0  0  0  0  0  0  0  0  0
   18.4144  -18.2401  -14.0738 N   0  0  0  0  0  0  0  0  0  0  0  0
   19.6252  -20.1286  -13.3804 N   0  0  0  0  0  0  0  0  0  0  0  0
   19.7257  -21.2683  -12.4876 C   0  0  0  0  0  0  0  0  0  0  0  0
   21.1542  -21.8023  -12.4730 C   0  0  0  0  0  0  0  0  0  0  0  0
   21.9520  -21.2296  -13.6005 C   0  0  0  0  0  0  0  0  0  0  0  0
   23.3350  -21.7379  -13.7405 C   0  0  2  0  0  0  0  0  0  0  0  0
   24.2911  -20.8206  -13.1869 N   0  0  0  0  0  0  0  0  0  0  0  0
   23.6967  -22.2792  -15.0731 C   0  0  0  0  0  0  0  0  0  0  0  0
   23.1153  -23.4586  -15.5000 O   0  0  0  0  0  0  0  0  0  0  0  0
   24.5011  -21.7406  -15.8625 O   0  0  0  0  0  0  0  0  0  0  0  0
  2  1  1  1
  2 10  1  0
  3  2  1  0
  4  3  1  0
  4  9  2  0
  5  4  1  0
  6  5  2  0
  6  7  1  0
  7  8  2  0
  8  9  1  0
 10 11  2  0
 13 12  1  0
 14 13  1  6
 14 16  1  0
 15 14  1  0
 15 10  1  0
 16 26  1  0
 16 17  2  0
 18 19  1  0
 19 21  1  0
 19 20  2  0
 21 22  1  0
 22 23  1  0
 23 24  1  0
 25 24  1  6
 25 27  1  0
 26 25  1  0
 27 29  2  0
 27 28  1  0
M  END
$$$$
