FSR.pdb
     RDKit          3D

 29 29  0  0  1  0  0  0  0  0999 V2000
   23.1306  -18.2802  -16.4032 N   0  0  0  0  0  0  0  0  0  0  0  0
   23.3662  -18.9845  -15.1552 C   0  0  1  0  0  0  0  0  0  0  0  0
   24.4296  -18.2294  -14.4202 C   0  0  0  0  0  0  0  0  0  0  0  0
   25.7198  -18.2071  -15.1545 C   0  0  0  0  0  0  0  0  0  0  0  0
   26.3195  -17.0261  -15.5527 C   0  0  0  0  0  0  0  0  0  0  0  0
   27.5301  -17.0205  -16.2420 C   0  0  0  0  0  0  0  0  0  0  0  0
   28.1540  -18.1922  -16.5406 C   0  0  0  0  0  0  0  0  0  0  0  0
   27.5876  -19.3767  -16.1612 C   0  0  0  0  0  0  0  0  0  0  0  0
   26.3993  -19.3753  -15.4849 C   0  0  0  0  0  0  0  0  0  0  0  0
   22.1052  -19.1249  -14.4607 C   0  0  0  0  0  0  0  0  0  0  0  0
   21.3895  -18.1201  -14.2201 O   0  0  0  0  0  0  0  0  0  0  0  0
   17.9766  -20.6889  -13.7903 O   0  0  0  0  0  0  0  0  0  0  0  0
   19.2185  -20.4843  -14.3839 C   0  0  0  0  0  0  0  0  0  0  0  0
   20.3649  -20.6086  -13.4076 C   0  0  2  0  0  0  0  0  0  0  0  0
   21.6452  -20.4125  -14.0321 N   0  0  0  0  0  0  0  0  0  0  0  0
   20.2670  -21.9681  -12.7820 C   0  0  0  0  0  0  0  0  0  0  0  0
   20.6949  -22.9422  -13.4197 O   0  0  0  0  0  0  0  0  0  0  0  0
   16.7997  -26.2027   -7.3219 N   0  0  0  0  0  0  0  0  0  0  0  0
   17.8821  -26.2448   -6.4073 C   0  0  0  0  0  0  0  0  0  0  0  0
   18.0088  -27.3039   -5.6578 N   0  0  0  0  0  0  0  0  0  0  0  0
   18.8258  -25.1907   -6.2744 N   0  0  0  0  0  0  0  0  0  0  0  0
   18.7101  -24.0168   -7.1199 C   0  0  0  0  0  0  0  0  0  0  0  0
   19.1705  -24.3407   -8.5375 C   0  0  0  0  0  0  0  0  0  0  0  0
   19.1383  -23.1218   -9.4030 C   0  0  0  0  0  0  0  0  0  0  0  0
   19.4808  -23.3287  -10.8280 C   0  0  2  0  0  0  0  0  0  0  0  0
   19.6970  -22.0801  -11.5035 N   0  0  0  0  0  0  0  0  0  0  0  0
   18.6308  -24.2931  -11.5674 C   0  0  0  0  0  0  0  0  0  0  0  0
   18.9806  -25.6306  -11.5733 O   0  0  0  0  0  0  0  0  0  0  0  0
   17.5964  -23.9882  -12.1978 O   0  0  0  0  0  0  0  0  0  0  0  0
  2  1  1  6
  2 10  1  0
  3  2  1  0
  4  3  1  0
  4  9  2  0
  5  4  1  0
  6  5  2  0
  6  7  1  0
  7  8  2  0
  8  9  1  0
 10 11  2  0
 13 12  1  0
 14 13  1  6
 14 16  1  0
 15 14  1  0
 15 10  1  0
 16 26  1  0
 16 17  2  0
 18 19  1  0
 19 21  1  0
 19 20  2  0
 21 22  1  0
 22 23  1  0
 23 24  1  0
 25 24  1  1
 25 27  1  0
 26 25  1  0
 27 29  2  0
 27 28  1  0
M  END
$$$$
