FSR.pdb
     RDKit          3D

 29 29  0  0  1  0  0  0  0  0999 V2000
   27.7278  -18.3017  -16.4534 N   0  0  0  0  0  0  0  0  0  0  0  0
   27.0951  -18.0594  -15.1689 C   0  0  1  0  0  0  0  0  0  0  0  0
   26.1539  -16.9101  -15.3542 C   0  0  0  0  0  0  0  0  0  0  0  0
   26.8608  -15.6434  -15.6705 C   0  0  0  0  0  0  0  0  0  0  0  0
   27.6373  -14.9812  -14.7370 C   0  0  0  0  0  0  0  0  0  0  0  0
   28.2943  -13.7926  -15.0477 C   0  0  0  0  0  0  0  0  0  0  0  0
   28.1830  -13.2533  -16.2919 C   0  0  0  0  0  0  0  0  0  0  0  0
   27.4231  -13.8829  -17.2373 C   0  0  0  0  0  0  0  0  0  0  0  0
   26.7809  -15.0492  -16.9260 C   0  0  0  0  0  0  0  0  0  0  0  0
   26.4938  -19.2930  -14.7120 C   0  0  0  0  0  0  0  0  0  0  0  0
   26.0101  -20.1137  -15.5319 O   0  0  0  0  0  0  0  0  0  0  0  0
   25.8725  -19.9570  -10.5295 O   0  0  0  0  0  0  0  0  0  0  0  0
   26.0867  -21.0503  -11.3632 C   0  0  0  0  0  0  0  0  0  0  0  0
   25.7504  -20.7633  -12.8080 C   0  0  2  0  0  0  0  0  0  0  0  0
   26.4365  -19.6056  -13.3147 N   0  0  0  0  0  0  0  0  0  0  0  0
   24.2626  -20.5934  -12.8899 C   0  0  0  0  0  0  0  0  0  0  0  0
   23.8050  -19.4440  -12.9799 O   0  0  0  0  0  0  0  0  0  0  0  0
   17.9523  -25.5368  -11.1419 N   0  0  0  0  0  0  0  0  0  0  0  0
   17.3096  -24.9910  -12.2816 C   0  0  0  0  0  0  0  0  0  0  0  0
   16.0114  -24.8757  -12.2551 N   0  0  0  0  0  0  0  0  0  0  0  0
   18.0147  -24.5685  -13.4408 N   0  0  0  0  0  0  0  0  0  0  0  0
   19.4651  -24.5250  -13.4190 C   0  0  0  0  0  0  0  0  0  0  0  0
   19.9450  -23.1309  -13.0288 C   0  0  0  0  0  0  0  0  0  0  0  0
   21.4365  -23.0418  -13.0867 C   0  0  0  0  0  0  0  0  0  0  0  0
   22.0180  -21.7084  -12.8134 C   0  0  2  0  0  0  0  0  0  0  0  0
   23.4528  -21.7404  -12.8623 N   0  0  0  0  0  0  0  0  0  0  0  0
   21.4546  -20.9795  -11.6511 C   0  0  0  0  0  0  0  0  0  0  0  0
   20.2427  -20.3288  -11.7890 O   0  0  0  0  0  0  0  0  0  0  0  0
   21.9978  -20.9072  -10.5286 O   0  0  0  0  0  0  0  0  0  0  0  0
  2  1  1  6
  2 10  1  0
  3  2  1  0
  4  3  1  0
  4  9  2  0
  5  4  1  0
  6  5  2  0
  6  7  1  0
  7  8  2  0
  8  9  1  0
 10 11  2  0
 13 12  1  0
 14 13  1  1
 14 16  1  0
 15 14  1  0
 15 10  1  0
 16 26  1  0
 16 17  2  0
 18 19  1  0
 19 21  1  0
 19 20  2  0
 21 22  1  0
 22 23  1  0
 23 24  1  0
 25 24  1  1
 25 27  1  0
 26 25  1  0
 27 29  2  0
 27 28  1  0
M  END
$$$$
