FDE.pdb
     RDKit          3D

 29 29  0  0  1  0  0  0  0  0999 V2000
    6.0477  -16.7260   25.1521 N   0  0  0  0  0  0  0  0  0  0  0  0
    7.2084  -15.9281   24.9114 C   0  0  1  0  0  0  0  0  0  0  0  0
    7.6849  -15.2219   26.1595 C   0  0  0  0  0  0  0  0  0  0  0  0
    7.1309  -13.8418   26.1034 C   0  0  0  0  0  0  0  0  0  0  0  0
    7.8135  -12.8330   25.4304 C   0  0  0  0  0  0  0  0  0  0  0  0
    7.3251  -11.5487   25.3633 C   0  0  0  0  0  0  0  0  0  0  0  0
    6.1303  -11.2082   25.9652 C   0  0  0  0  0  0  0  0  0  0  0  0
    5.4448  -12.1936   26.6334 C   0  0  0  0  0  0  0  0  0  0  0  0
    5.9359  -13.4791   26.6994 C   0  0  0  0  0  0  0  0  0  0  0  0
    8.2596  -16.7207   24.2589 C   0  0  0  0  0  0  0  0  0  0  0  0
    8.4500  -17.8940   24.6730 O   0  0  0  0  0  0  0  0  0  0  0  0
    9.0658  -16.2338   23.1922 N   0  0  0  0  0  0  0  0  0  0  0  0
   10.1962  -16.9890   22.7598 C   0  0  1  0  0  0  0  0  0  0  0  0
   10.6861  -16.5567   21.3846 C   0  0  0  0  0  0  0  0  0  0  0  0
    9.7398  -16.9884   20.3591 C   0  0  0  0  0  0  0  0  0  0  0  0
    8.9641  -17.9675   20.4802 O   0  0  0  0  0  0  0  0  0  0  0  0
   11.2942  -17.0420   23.7390 C   0  0  0  0  0  0  0  0  0  0  0  0
   11.9521  -16.0054   23.9781 O   0  0  0  0  0  0  0  0  0  0  0  0
    9.6854  -16.2752   19.1651 O   0  0  0  0  0  0  0  0  0  0  0  0
   11.6018  -18.2436   24.3999 N   0  0  0  0  0  0  0  0  0  0  0  0
   12.7087  -18.3982   25.3365 C   0  0  1  0  0  0  0  0  0  0  0  0
   12.3519  -19.3082   26.4612 C   0  0  0  0  0  0  0  0  0  0  0  0
   11.2350  -18.8398   27.3472 C   0  0  0  0  0  0  0  0  0  0  0  0
   10.9037  -19.7481   28.4534 C   0  0  0  0  0  0  0  0  0  0  0  0
   10.6536  -20.9830   28.2440 O   0  0  0  0  0  0  0  0  0  0  0  0
   13.9559  -18.7682   24.6305 C   0  0  0  0  0  0  0  0  0  0  0  0
   15.1838  -18.6945   25.2148 O   0  0  0  0  0  0  0  0  0  0  0  0
   10.8337  -19.3618   29.7797 O   0  0  0  0  0  0  0  0  0  0  0  0
   13.8626  -19.1641   23.4419 O   0  0  0  0  0  0  0  0  0  0  0  0
  2  1  1  1
  2 10  1  0
  3  2  1  0
  3  4  1  0
  4  9  2  0
  5  6  2  0
  5  4  1  0
  6  7  1  0
  7  8  2  0
  9  8  1  0
 10 12  1  0
 10 11  2  0
 12 13  1  0
 13 17  1  0
 13 14  1  6
 14 15  1  0
 15 19  1  0
 16 15  2  0
 17 18  2  0
 20 21  1  0
 20 17  1  0
 22 23  1  0
 21 22  1  1
 23 24  1  0
 24 25  2  0
 24 28  1  0
 26 21  1  0
 27 26  1  0
 29 26  2  0
M  END
$$$$
