FDE.pdb
     RDKit          3D

 29 29  0  0  1  0  0  0  0  0999 V2000
    7.9985  -15.7280   17.4373 N   0  0  0  0  0  0  0  0  0  0  0  0
    8.9721  -14.7543   17.0555 C   0  0  1  0  0  0  0  0  0  0  0  0
    8.4987  -13.3423   17.3114 C   0  0  0  0  0  0  0  0  0  0  0  0
    8.3392  -13.2091   18.7850 C   0  0  0  0  0  0  0  0  0  0  0  0
    7.3272  -13.8939   19.4511 C   0  0  0  0  0  0  0  0  0  0  0  0
    7.1564  -13.7887   20.8121 C   0  0  0  0  0  0  0  0  0  0  0  0
    7.9881  -12.9941   21.5755 C   0  0  0  0  0  0  0  0  0  0  0  0
    8.9920  -12.3118   20.9319 C   0  0  0  0  0  0  0  0  0  0  0  0
    9.1611  -12.4187   19.5688 C   0  0  0  0  0  0  0  0  0  0  0  0
   10.2729  -15.0484   17.6724 C   0  0  0  0  0  0  0  0  0  0  0  0
   10.3025  -15.9014   18.5974 O   0  0  0  0  0  0  0  0  0  0  0  0
   11.4899  -14.4237   17.2804 N   0  0  0  0  0  0  0  0  0  0  0  0
   12.7270  -14.8882   17.8176 C   0  0  1  0  0  0  0  0  0  0  0  0
   13.9214  -14.4345   16.9895 C   0  0  0  0  0  0  0  0  0  0  0  0
   15.1207  -15.1571   17.4055 C   0  0  0  0  0  0  0  0  0  0  0  0
   15.1724  -16.3986   17.5821 O   0  0  0  0  0  0  0  0  0  0  0  0
   12.9103  -14.5924   19.2481 C   0  0  0  0  0  0  0  0  0  0  0  0
   12.9491  -13.4009   19.6269 O   0  0  0  0  0  0  0  0  0  0  0  0
   16.2889  -14.4325   17.6234 O   0  0  0  0  0  0  0  0  0  0  0  0
   13.0402  -15.6360   20.1803 N   0  0  0  0  0  0  0  0  0  0  0  0
   13.2304  -15.4312   21.6115 C   0  0  1  0  0  0  0  0  0  0  0  0
   12.3111  -16.2860   22.4144 C   0  0  0  0  0  0  0  0  0  0  0  0
   12.4476  -16.1667   23.9041 C   0  0  0  0  0  0  0  0  0  0  0  0
   11.6235  -17.1069   24.6756 C   0  0  0  0  0  0  0  0  0  0  0  0
   10.9743  -16.7258   25.7076 O   0  0  0  0  0  0  0  0  0  0  0  0
   14.6572  -15.5613   21.9830 C   0  0  0  0  0  0  0  0  0  0  0  0
   15.5513  -16.2702   21.2395 O   0  0  0  0  0  0  0  0  0  0  0  0
   11.4802  -18.4474   24.3661 O   0  0  0  0  0  0  0  0  0  0  0  0
   15.0456  -14.9892   23.0319 O   0  0  0  0  0  0  0  0  0  0  0  0
  2  1  1  1
  2 10  1  0
  3  2  1  0
  3  4  1  0
  4  9  2  0
  5  6  2  0
  5  4  1  0
  6  7  1  0
  7  8  2  0
  9  8  1  0
 10 12  1  0
 10 11  2  0
 12 13  1  0
 13 17  1  0
 13 14  1  6
 14 15  1  0
 15 19  1  0
 16 15  2  0
 17 18  2  0
 20 21  1  0
 20 17  1  0
 22 23  1  0
 21 22  1  1
 23 24  1  0
 24 25  2  0
 24 28  1  0
 26 21  1  0
 27 26  1  0
 29 26  2  0
M  END
$$$$
