FDE.pdb
     RDKit          3D

 29 29  0  0  1  0  0  0  0  0999 V2000
    6.0937  -16.2706   25.6596 N   0  0  0  0  0  0  0  0  0  0  0  0
    7.0736  -15.5615   24.8988 C   0  0  1  0  0  0  0  0  0  0  0  0
    8.0836  -14.8622   25.7786 C   0  0  0  0  0  0  0  0  0  0  0  0
    7.4815  -13.5556   26.1595 C   0  0  0  0  0  0  0  0  0  0  0  0
    7.3863  -12.5238   25.2307 C   0  0  0  0  0  0  0  0  0  0  0  0
    6.8352  -11.3059   25.5555 C   0  0  0  0  0  0  0  0  0  0  0  0
    6.3515  -11.0582   26.8246 C   0  0  0  0  0  0  0  0  0  0  0  0
    6.4385  -12.0675   27.7527 C   0  0  0  0  0  0  0  0  0  0  0  0
    6.9910  -13.2864   27.4250 C   0  0  0  0  0  0  0  0  0  0  0  0
    7.6910  -16.4404   23.8961 C   0  0  0  0  0  0  0  0  0  0  0  0
    7.7410  -17.6723   24.1490 O   0  0  0  0  0  0  0  0  0  0  0  0
    8.2302  -15.9737   22.6646 N   0  0  0  0  0  0  0  0  0  0  0  0
    8.8610  -16.8942   21.7760 C   0  0  1  0  0  0  0  0  0  0  0  0
    8.6058  -16.5513   20.3147 C   0  0  0  0  0  0  0  0  0  0  0  0
    9.2050  -17.5662   19.4518 C   0  0  0  0  0  0  0  0  0  0  0  0
    9.2063  -18.7959   19.7025 O   0  0  0  0  0  0  0  0  0  0  0  0
   10.2928  -17.1050   22.0455 C   0  0  0  0  0  0  0  0  0  0  0  0
   11.1401  -16.6489   21.2462 O   0  0  0  0  0  0  0  0  0  0  0  0
    9.8175  -17.1550   18.2716 O   0  0  0  0  0  0  0  0  0  0  0  0
   10.7062  -17.8108   23.1885 N   0  0  0  0  0  0  0  0  0  0  0  0
   12.0966  -17.9383   23.6089 C   0  0  1  0  0  0  0  0  0  0  0  0
   12.8944  -16.7364   23.2360 C   0  0  0  0  0  0  0  0  0  0  0  0
   14.3360  -16.9900   22.9053 C   0  0  0  0  0  0  0  0  0  0  0  0
   15.1133  -15.7877   22.5756 C   0  0  0  0  0  0  0  0  0  0  0  0
   15.5267  -14.9954   23.4882 O   0  0  0  0  0  0  0  0  0  0  0  0
   12.1886  -18.3061   25.0397 C   0  0  0  0  0  0  0  0  0  0  0  0
   11.1097  -18.3119   25.8706 O   0  0  0  0  0  0  0  0  0  0  0  0
   15.4570  -15.4150   21.2886 O   0  0  0  0  0  0  0  0  0  0  0  0
   13.3165  -18.6230   25.4932 O   0  0  0  0  0  0  0  0  0  0  0  0
  2  1  1  1
  2 10  1  0
  3  2  1  0
  3  4  1  0
  4  9  2  0
  5  6  2  0
  5  4  1  0
  6  7  1  0
  7  8  2  0
  9  8  1  0
 10 12  1  0
 10 11  2  0
 12 13  1  0
 13 17  1  0
 13 14  1  6
 14 15  1  0
 15 19  1  0
 16 15  2  0
 17 18  2  0
 20 21  1  0
 20 17  1  0
 22 23  1  0
 21 22  1  1
 23 24  1  0
 24 25  2  0
 24 28  1  0
 26 21  1  0
 27 26  1  0
 29 26  2  0
M  END
$$$$
