FDE.pdb
     RDKit          3D

 29 29  0  0  1  0  0  0  0  0999 V2000
    6.1740  -16.4221   24.8216 N   0  0  0  0  0  0  0  0  0  0  0  0
    6.8254  -15.8968   23.6633 C   0  0  1  0  0  0  0  0  0  0  0  0
    6.7253  -14.3910   23.5854 C   0  0  0  0  0  0  0  0  0  0  0  0
    7.0547  -13.8734   24.9412 C   0  0  0  0  0  0  0  0  0  0  0  0
    8.3500  -13.4671   25.2471 C   0  0  0  0  0  0  0  0  0  0  0  0
    8.6827  -12.9854   26.4920 C   0  0  0  0  0  0  0  0  0  0  0  0
    7.7376  -12.8855   27.4934 C   0  0  0  0  0  0  0  0  0  0  0  0
    6.4542  -13.2829   27.2064 C   0  0  0  0  0  0  0  0  0  0  0  0
    6.1235  -13.7650   25.9589 C   0  0  0  0  0  0  0  0  0  0  0  0
    8.2068  -16.3895   23.5737 C   0  0  0  0  0  0  0  0  0  0  0  0
    8.6169  -17.1510   24.4881 O   0  0  0  0  0  0  0  0  0  0  0  0
    9.0963  -16.0526   22.5153 N   0  0  0  0  0  0  0  0  0  0  0  0
   10.3993  -16.6319   22.4766 C   0  0  1  0  0  0  0  0  0  0  0  0
   11.0964  -16.3937   21.1441 C   0  0  0  0  0  0  0  0  0  0  0  0
   10.4792  -17.2132   20.1044 C   0  0  0  0  0  0  0  0  0  0  0  0
   10.4443  -18.4677   20.1207 O   0  0  0  0  0  0  0  0  0  0  0  0
   11.2560  -16.2616   23.6150 C   0  0  0  0  0  0  0  0  0  0  0  0
   11.7830  -15.1274   23.6414 O   0  0  0  0  0  0  0  0  0  0  0  0
    9.8879  -16.5726   19.0194 O   0  0  0  0  0  0  0  0  0  0  0  0
   11.4808  -17.1709   24.6628 N   0  0  0  0  0  0  0  0  0  0  0  0
   12.3086  -16.8830   25.8281 C   0  0  1  0  0  0  0  0  0  0  0  0
   11.6029  -17.2158   27.0975 C   0  0  0  0  0  0  0  0  0  0  0  0
   12.4160  -17.0716   28.3505 C   0  0  0  0  0  0  0  0  0  0  0  0
   11.7171  -17.4510   29.5858 C   0  0  0  0  0  0  0  0  0  0  0  0
   11.3791  -18.6622   29.8102 O   0  0  0  0  0  0  0  0  0  0  0  0
   13.6458  -17.5041   25.6980 C   0  0  0  0  0  0  0  0  0  0  0  0
   13.8284  -18.7713   25.2337 O   0  0  0  0  0  0  0  0  0  0  0  0
   11.3714  -16.5605   30.5862 O   0  0  0  0  0  0  0  0  0  0  0  0
   14.6456  -16.8221   26.0350 O   0  0  0  0  0  0  0  0  0  0  0  0
  2  1  1  1
  2 10  1  0
  3  2  1  0
  3  4  1  0
  4  9  2  0
  5  6  2  0
  5  4  1  0
  6  7  1  0
  7  8  2  0
  9  8  1  0
 10 12  1  0
 10 11  2  0
 12 13  1  0
 13 17  1  0
 13 14  1  6
 14 15  1  0
 15 19  1  0
 16 15  2  0
 17 18  2  0
 20 21  1  0
 20 17  1  0
 22 23  1  0
 21 22  1  1
 23 24  1  0
 24 25  2  0
 24 28  1  0
 26 21  1  0
 27 26  1  0
 29 26  2  0
M  END
$$$$
