FDE.pdb
     RDKit          3D

 29 29  0  0  1  0  0  0  0  0999 V2000
    5.3266  -17.7791   24.1239 N   0  0  0  0  0  0  0  0  0  0  0  0
    6.1118  -16.6058   24.3442 C   0  0  1  0  0  0  0  0  0  0  0  0
    6.0782  -16.1588   25.7873 C   0  0  0  0  0  0  0  0  0  0  0  0
    6.7031  -14.8088   25.8275 C   0  0  0  0  0  0  0  0  0  0  0  0
    8.0185  -14.6512   26.2538 C   0  0  0  0  0  0  0  0  0  0  0  0
    8.6209  -13.4154   26.3017 C   0  0  0  0  0  0  0  0  0  0  0  0
    7.9391  -12.2752   25.9259 C   0  0  0  0  0  0  0  0  0  0  0  0
    6.6396  -12.4148   25.5027 C   0  0  0  0  0  0  0  0  0  0  0  0
    6.0384  -13.6536   25.4556 C   0  0  0  0  0  0  0  0  0  0  0  0
    7.4752  -16.7863   23.8268 C   0  0  0  0  0  0  0  0  0  0  0  0
    8.0035  -17.9217   23.9533 O   0  0  0  0  0  0  0  0  0  0  0  0
    8.2215  -15.7523   23.1954 N   0  0  0  0  0  0  0  0  0  0  0  0
    9.5185  -16.0355   22.6733 C   0  0  1  0  0  0  0  0  0  0  0  0
    9.7909  -15.2922   21.3727 C   0  0  0  0  0  0  0  0  0  0  0  0
   11.0430  -15.7597   20.7834 C   0  0  0  0  0  0  0  0  0  0  0  0
   12.1768  -15.3164   21.0886 O   0  0  0  0  0  0  0  0  0  0  0  0
   10.6102  -15.8553   23.6443 C   0  0  0  0  0  0  0  0  0  0  0  0
   11.2842  -14.8019   23.6193 O   0  0  0  0  0  0  0  0  0  0  0  0
   10.9881  -16.7618   19.8192 O   0  0  0  0  0  0  0  0  0  0  0  0
   10.8939  -16.8548   24.5907 N   0  0  0  0  0  0  0  0  0  0  0  0
   12.0161  -16.8018   25.5203 C   0  0  1  0  0  0  0  0  0  0  0  0
   11.6280  -17.2833   26.8760 C   0  0  0  0  0  0  0  0  0  0  0  0
   11.0309  -18.6589   26.9310 C   0  0  0  0  0  0  0  0  0  0  0  0
   10.8106  -19.1813   28.2863 C   0  0  0  0  0  0  0  0  0  0  0  0
   10.3007  -20.3370   28.4758 O   0  0  0  0  0  0  0  0  0  0  0  0
   13.2070  -17.4759   24.9562 C   0  0  0  0  0  0  0  0  0  0  0  0
   13.2011  -18.7814   24.5684 O   0  0  0  0  0  0  0  0  0  0  0  0
   11.1240  -18.4919   29.4438 O   0  0  0  0  0  0  0  0  0  0  0  0
   14.2613  -16.8033   24.8371 O   0  0  0  0  0  0  0  0  0  0  0  0
  2  1  1  1
  2 10  1  0
  3  2  1  0
  3  4  1  0
  4  9  2  0
  5  6  2  0
  5  4  1  0
  6  7  1  0
  7  8  2  0
  9  8  1  0
 10 12  1  0
 10 11  2  0
 12 13  1  0
 13 17  1  0
 13 14  1  6
 14 15  1  0
 15 19  1  0
 16 15  2  0
 17 18  2  0
 20 21  1  0
 20 17  1  0
 22 23  1  0
 21 22  1  1
 23 24  1  0
 24 25  2  0
 24 28  1  0
 26 21  1  0
 27 26  1  0
 29 26  2  0
M  END
$$$$
