FDE.pdb
     RDKit          3D

 29 29  0  0  1  0  0  0  0  0999 V2000
    7.6484  -15.6624   25.7759 N   0  0  0  0  0  0  0  0  0  0  0  0
    6.9169  -15.6208   24.5492 C   0  0  1  0  0  0  0  0  0  0  0  0
    6.7188  -14.2084   24.0499 C   0  0  0  0  0  0  0  0  0  0  0  0
    6.5125  -13.3581   25.2537 C   0  0  0  0  0  0  0  0  0  0  0  0
    7.4829  -12.4410   25.6459 C   0  0  0  0  0  0  0  0  0  0  0  0
    7.3188  -11.6430   26.7544 C   0  0  0  0  0  0  0  0  0  0  0  0
    6.1769  -11.7215   27.5264 C   0  0  0  0  0  0  0  0  0  0  0  0
    5.2097  -12.6224   27.1517 C   0  0  0  0  0  0  0  0  0  0  0  0
    5.3764  -13.4206   26.0411 C   0  0  0  0  0  0  0  0  0  0  0  0
    7.5266  -16.5073   23.5485 C   0  0  0  0  0  0  0  0  0  0  0  0
    6.8333  -16.8231   22.5465 O   0  0  0  0  0  0  0  0  0  0  0  0
    8.8491  -17.0219   23.6534 N   0  0  0  0  0  0  0  0  0  0  0  0
    9.3405  -17.9151   22.6556 C   0  0  1  0  0  0  0  0  0  0  0  0
    9.3862  -17.2702   21.2771 C   0  0  0  0  0  0  0  0  0  0  0  0
    9.7799  -18.2586   20.2763 C   0  0  0  0  0  0  0  0  0  0  0  0
    9.5427  -19.4878   20.3653 O   0  0  0  0  0  0  0  0  0  0  0  0
   10.6193  -18.5575   23.0007 C   0  0  0  0  0  0  0  0  0  0  0  0
   11.4487  -18.7962   22.0952 O   0  0  0  0  0  0  0  0  0  0  0  0
   10.4634  -17.8210   19.1456 O   0  0  0  0  0  0  0  0  0  0  0  0
   10.9079  -18.8997   24.3329 N   0  0  0  0  0  0  0  0  0  0  0  0
   12.1463  -18.5441   25.0156 C   0  0  1  0  0  0  0  0  0  0  0  0
   12.8108  -17.3758   24.3724 C   0  0  0  0  0  0  0  0  0  0  0  0
   14.2942  -17.4962   24.1801 C   0  0  0  0  0  0  0  0  0  0  0  0
   14.9123  -16.3853   23.4437 C   0  0  0  0  0  0  0  0  0  0  0  0
   14.5687  -16.1137   22.2438 O   0  0  0  0  0  0  0  0  0  0  0  0
   11.9266  -18.3899   26.4712 C   0  0  0  0  0  0  0  0  0  0  0  0
   10.7004  -18.1433   27.0100 O   0  0  0  0  0  0  0  0  0  0  0  0
   15.8916  -15.5590   23.9647 O   0  0  0  0  0  0  0  0  0  0  0  0
   12.9228  -18.4923   27.2297 O   0  0  0  0  0  0  0  0  0  0  0  0
  2  1  1  1
  2 10  1  0
  3  2  1  0
  3  4  1  0
  4  9  2  0
  5  6  2  0
  5  4  1  0
  6  7  1  0
  7  8  2  0
  9  8  1  0
 10 12  1  0
 10 11  2  0
 12 13  1  0
 13 17  1  0
 13 14  1  6
 14 15  1  0
 15 19  1  0
 16 15  2  0
 17 18  2  0
 20 21  1  0
 20 17  1  0
 22 23  1  0
 21 22  1  6
 23 24  1  0
 24 25  2  0
 24 28  1  0
 26 21  1  0
 27 26  1  0
 29 26  2  0
M  END
$$$$
