FDE.pdb
     RDKit          3D

 29 29  0  0  1  0  0  0  0  0999 V2000
    9.3509  -14.4648   23.6936 N   0  0  0  0  0  0  0  0  0  0  0  0
    8.4435  -15.5165   24.0289 C   0  0  1  0  0  0  0  0  0  0  0  0
    7.0002  -15.0841   23.9134 C   0  0  0  0  0  0  0  0  0  0  0  0
    6.8290  -13.9280   24.8346 C   0  0  0  0  0  0  0  0  0  0  0  0
    6.9312  -12.6241   24.3590 C   0  0  0  0  0  0  0  0  0  0  0  0
    6.7781  -11.5371   25.1881 C   0  0  0  0  0  0  0  0  0  0  0  0
    6.5151  -11.6985   26.5337 C   0  0  0  0  0  0  0  0  0  0  0  0
    6.4113  -12.9799   27.0181 C   0  0  0  0  0  0  0  0  0  0  0  0
    6.5651  -14.0671   26.1858 C   0  0  0  0  0  0  0  0  0  0  0  0
    8.7462  -16.7311   23.2594 C   0  0  0  0  0  0  0  0  0  0  0  0
    8.0389  -17.7502   23.4722 O   0  0  0  0  0  0  0  0  0  0  0  0
    9.7887  -16.8129   22.2943 N   0  0  0  0  0  0  0  0  0  0  0  0
   10.5788  -17.9974   22.2070 C   0  0  1  0  0  0  0  0  0  0  0  0
   11.3457  -18.0831   20.8945 C   0  0  0  0  0  0  0  0  0  0  0  0
   10.4256  -17.9432   19.7687 C   0  0  0  0  0  0  0  0  0  0  0  0
    9.2869  -18.4683   19.7169 O   0  0  0  0  0  0  0  0  0  0  0  0
   11.4560  -18.2220   23.3678 C   0  0  0  0  0  0  0  0  0  0  0  0
   12.5846  -17.6833   23.3957 O   0  0  0  0  0  0  0  0  0  0  0  0
   10.8266  -17.1800   18.6760 O   0  0  0  0  0  0  0  0  0  0  0  0
   11.0321  -19.0325   24.4348 N   0  0  0  0  0  0  0  0  0  0  0  0
   11.8319  -19.2970   25.6250 C   0  0  1  0  0  0  0  0  0  0  0  0
   11.3036  -18.5695   26.8132 C   0  0  0  0  0  0  0  0  0  0  0  0
   11.9301  -18.9307   28.1281 C   0  0  0  0  0  0  0  0  0  0  0  0
   11.3335  -18.2705   29.2970 C   0  0  0  0  0  0  0  0  0  0  0  0
   11.7460  -18.5187   30.4802 O   0  0  0  0  0  0  0  0  0  0  0  0
   12.0093  -20.7514   25.8349 C   0  0  0  0  0  0  0  0  0  0  0  0
   11.0777  -21.6701   25.4573 O   0  0  0  0  0  0  0  0  0  0  0  0
   10.3034  -17.3500   29.2262 O   0  0  0  0  0  0  0  0  0  0  0  0
   13.0685  -21.1402   26.3873 O   0  0  0  0  0  0  0  0  0  0  0  0
  2  1  1  6
  2 10  1  0
  3  2  1  0
  3  4  1  0
  4  9  2  0
  5  6  2  0
  5  4  1  0
  6  7  1  0
  7  8  2  0
  9  8  1  0
 10 12  1  0
 10 11  2  0
 12 13  1  0
 13 17  1  0
 13 14  1  6
 14 15  1  0
 15 19  1  0
 16 15  2  0
 17 18  2  0
 20 21  1  0
 20 17  1  0
 22 23  1  0
 21 22  1  1
 23 24  1  0
 24 25  2  0
 24 28  1  0
 26 21  1  0
 27 26  1  0
 29 26  2  0
M  END
$$$$
