FDE.pdb
     RDKit          3D

 29 29  0  0  1  0  0  0  0  0999 V2000
    5.9844  -18.5586   19.4932 N   0  0  0  0  0  0  0  0  0  0  0  0
    6.6612  -17.3290   19.7614 C   0  0  1  0  0  0  0  0  0  0  0  0
    5.9440  -16.4967   20.7988 C   0  0  0  0  0  0  0  0  0  0  0  0
    6.6105  -15.1662   20.8098 C   0  0  0  0  0  0  0  0  0  0  0  0
    6.8956  -14.5086   19.6169 C   0  0  0  0  0  0  0  0  0  0  0  0
    7.5114  -13.2786   19.5976 C   0  0  0  0  0  0  0  0  0  0  0  0
    7.8731  -12.6442   20.7691 C   0  0  0  0  0  0  0  0  0  0  0  0
    7.5982  -13.2810   21.9550 C   0  0  0  0  0  0  0  0  0  0  0  0
    6.9814  -14.5129   21.9718 C   0  0  0  0  0  0  0  0  0  0  0  0
    8.0725  -17.5719   20.0902 C   0  0  0  0  0  0  0  0  0  0  0  0
    8.3286  -18.4403   20.9646 O   0  0  0  0  0  0  0  0  0  0  0  0
    9.1547  -16.8817   19.4758 N   0  0  0  0  0  0  0  0  0  0  0  0
   10.4965  -17.2418   19.7992 C   0  0  1  0  0  0  0  0  0  0  0  0
   11.4527  -17.0037   18.6386 C   0  0  0  0  0  0  0  0  0  0  0  0
   11.1159  -17.8869   17.5251 C   0  0  0  0  0  0  0  0  0  0  0  0
   11.0998  -19.1398   17.5964 O   0  0  0  0  0  0  0  0  0  0  0  0
   10.9949  -16.6442   21.0489 C   0  0  0  0  0  0  0  0  0  0  0  0
   11.9358  -15.8213   21.0015 O   0  0  0  0  0  0  0  0  0  0  0  0
   10.7899  -17.3134   16.2995 O   0  0  0  0  0  0  0  0  0  0  0  0
   10.4210  -16.9927   22.2836 N   0  0  0  0  0  0  0  0  0  0  0  0
   10.9538  -16.5777   23.5760 C   0  0  1  0  0  0  0  0  0  0  0  0
   10.0510  -16.9730   24.6935 C   0  0  0  0  0  0  0  0  0  0  0  0
    8.6256  -16.5207   24.5688 C   0  0  0  0  0  0  0  0  0  0  0  0
    7.7456  -16.9472   25.6652 C   0  0  0  0  0  0  0  0  0  0  0  0
    6.5225  -16.5819   25.7130 O   0  0  0  0  0  0  0  0  0  0  0  0
   12.3550  -17.0247   23.7425 C   0  0  0  0  0  0  0  0  0  0  0  0
   13.1827  -16.5167   24.6973 O   0  0  0  0  0  0  0  0  0  0  0  0
    8.1477  -17.7562   26.7126 O   0  0  0  0  0  0  0  0  0  0  0  0
   12.7859  -17.9099   22.9621 O   0  0  0  0  0  0  0  0  0  0  0  0
  2  1  1  1
  2 10  1  0
  3  2  1  0
  3  4  1  0
  4  9  2  0
  5  6  2  0
  5  4  1  0
  6  7  1  0
  7  8  2  0
  9  8  1  0
 10 12  1  0
 10 11  2  0
 12 13  1  0
 13 17  1  0
 13 14  1  6
 14 15  1  0
 15 19  1  0
 16 15  2  0
 17 18  2  0
 20 21  1  0
 20 17  1  0
 22 23  1  0
 21 22  1  1
 23 24  1  0
 24 25  2  0
 24 28  1  0
 26 21  1  0
 27 26  1  0
 29 26  2  0
M  END
$$$$
