GCN.pdb
     RDKit          3D

 19 18  0  0  1  0  0  0  0  0999 V2000
    9.8218  -15.3293   14.1296 N   0  0  0  0  0  0  0  0  0  0  0  0
    8.7130  -15.4218   15.0569 C   0  0  0  0  0  0  0  0  0  0  0  0
    9.1254  -14.7930   16.3325 C   0  0  0  0  0  0  0  0  0  0  0  0
   10.3358  -14.4970   16.4978 O   0  0  0  0  0  0  0  0  0  0  0  0
    8.2322  -14.5039   17.3860 N   0  0  0  0  0  0  0  0  0  0  0  0
    8.6910  -13.8955   18.6260 C   0  0  1  0  0  0  0  0  0  0  0  0
    7.5692  -13.3819   19.4819 C   0  0  0  0  0  0  0  0  0  0  0  0
    8.0832  -12.7052   21.0580 S   0  0  0  0  0  0  0  0  0  0  0  0
    9.6324  -14.7907   19.3269 C   0  0  0  0  0  0  0  0  0  0  0  0
    9.4049  -16.0414   19.3699 O   0  0  0  0  0  0  0  0  0  0  0  0
   13.2318  -15.5853   18.2571 N   0  0  0  0  0  0  0  0  0  0  0  0
   13.7523  -14.7075   19.2383 C   0  0  0  0  0  0  0  0  0  0  0  0
   14.8222  -14.1128   18.9834 O   0  0  0  0  0  0  0  0  0  0  0  0
   13.0801  -14.4866   20.5137 C   0  0  0  0  0  0  0  0  0  0  0  0
   11.7428  -15.1720   20.6586 C   0  0  2  0  0  0  0  0  0  0  0  0
   10.7869  -14.3025   19.9557 N   0  0  0  0  0  0  0  0  0  0  0  0
   11.3342  -15.3443   22.0725 C   0  0  0  0  0  0  0  0  0  0  0  0
   11.9739  -16.1131   22.8158 O   0  0  0  0  0  0  0  0  0  0  0  0
   10.2303  -14.6273   22.5274 O   0  0  0  0  0  0  0  0  0  0  0  0
  2  1  1  0
  3  2  1  0
  4  3  2  0
  5  3  1  0
  6  9  1  0
  6  5  1  0
  7  8  1  0
  6  7  1  1
  9 10  2  0
 11 12  1  0
 12 13  2  0
 14 12  1  0
 15 14  1  1
 16 15  1  0
 16  9  1  0
 17 19  1  0
 17 15  1  0
 18 17  2  0
M  END
$$$$
