GCN.pdb
     RDKit          3D

 19 18  0  0  1  0  0  0  0  0999 V2000
    6.2767  -18.1266   20.9696 N   0  0  0  0  0  0  0  0  0  0  0  0
    5.6157  -17.6171   22.1533 C   0  0  0  0  0  0  0  0  0  0  0  0
    6.6447  -17.0187   23.0342 C   0  0  0  0  0  0  0  0  0  0  0  0
    7.8384  -17.3926   22.9110 O   0  0  0  0  0  0  0  0  0  0  0  0
    6.3629  -16.0443   24.0153 N   0  0  0  0  0  0  0  0  0  0  0  0
    7.3228  -15.7172   25.0591 C   0  0  1  0  0  0  0  0  0  0  0  0
    7.0176  -14.4232   25.7572 C   0  0  0  0  0  0  0  0  0  0  0  0
    6.2892  -13.1653   24.7115 S   0  0  0  0  0  0  0  0  0  0  0  0
    7.5187  -16.8669   25.9639 C   0  0  0  0  0  0  0  0  0  0  0  0
    6.5524  -17.6596   26.1999 O   0  0  0  0  0  0  0  0  0  0  0  0
   10.0839  -21.1127   27.4233 N   0  0  0  0  0  0  0  0  0  0  0  0
    9.6295  -20.7026   26.1467 C   0  0  0  0  0  0  0  0  0  0  0  0
    9.6676  -21.5368   25.2160 O   0  0  0  0  0  0  0  0  0  0  0  0
    9.1278  -19.3556   25.8998 C   0  0  0  0  0  0  0  0  0  0  0  0
    9.1293  -18.4426   27.1021 C   0  0  2  0  0  0  0  0  0  0  0  0
    8.7524  -17.1197   26.5808 N   0  0  0  0  0  0  0  0  0  0  0  0
   10.4502  -18.3723   27.7702 C   0  0  0  0  0  0  0  0  0  0  0  0
   10.6309  -18.9586   28.8547 O   0  0  0  0  0  0  0  0  0  0  0  0
   11.4598  -17.6405   27.1500 O   0  0  0  0  0  0  0  0  0  0  0  0
  2  1  1  0
  3  2  1  0
  4  3  2  0
  5  3  1  0
  6  9  1  0
  6  5  1  0
  7  8  1  0
  6  7  1  1
  9 10  2  0
 11 12  1  0
 12 13  2  0
 14 12  1  0
 15 14  1  6
 16 15  1  0
 16  9  1  0
 17 19  1  0
 17 15  1  0
 18 17  2  0
M  END
$$$$
