GCN.pdb
     RDKit          3D

 19 18  0  0  1  0  0  0  0  0999 V2000
    8.9011  -17.1093   17.7369 N   0  0  0  0  0  0  0  0  0  0  0  0
    7.8064  -16.8364   18.6451 C   0  0  0  0  0  0  0  0  0  0  0  0
    8.3516  -16.1237   19.8231 C   0  0  0  0  0  0  0  0  0  0  0  0
    9.5956  -15.9680   19.9139 O   0  0  0  0  0  0  0  0  0  0  0  0
    7.5504  -15.6041   20.8620 N   0  0  0  0  0  0  0  0  0  0  0  0
    8.1404  -15.0309   22.0626 C   0  0  1  0  0  0  0  0  0  0  0  0
    7.1852  -14.1677   22.8355 C   0  0  0  0  0  0  0  0  0  0  0  0
    7.7457  -13.7188   24.4758 S   0  0  0  0  0  0  0  0  0  0  0  0
    8.8042  -16.0765   22.8656 C   0  0  0  0  0  0  0  0  0  0  0  0
    8.1842  -17.1518   23.1431 O   0  0  0  0  0  0  0  0  0  0  0  0
   12.7198  -18.7627   25.2400 N   0  0  0  0  0  0  0  0  0  0  0  0
   13.1904  -17.6062   24.5725 C   0  0  0  0  0  0  0  0  0  0  0  0
   14.4267  -17.4316   24.5049 O   0  0  0  0  0  0  0  0  0  0  0  0
   12.2820  -16.6348   23.9739 C   0  0  0  0  0  0  0  0  0  0  0  0
   10.8149  -16.9654   24.1064 C   0  0  2  0  0  0  0  0  0  0  0  0
   10.1152  -15.9233   23.3394 N   0  0  0  0  0  0  0  0  0  0  0  0
   10.3493  -16.9653   25.5132 C   0  0  0  0  0  0  0  0  0  0  0  0
   10.1657  -15.8857   26.1078 O   0  0  0  0  0  0  0  0  0  0  0  0
   10.1297  -18.1942   26.1306 O   0  0  0  0  0  0  0  0  0  0  0  0
  2  1  1  0
  3  2  1  0
  4  3  2  0
  5  3  1  0
  6  9  1  0
  6  5  1  0
  7  8  1  0
  6  7  1  1
  9 10  2  0
 11 12  1  0
 12 13  2  0
 14 12  1  0
 15 14  1  1
 16 15  1  0
 16  9  1  0
 17 19  1  0
 17 15  1  0
 18 17  2  0
M  END
$$$$
