GCN.pdb
     RDKit          3D

 19 18  0  0  1  0  0  0  0  0999 V2000
    8.5065  -12.9051   18.1945 N   0  0  0  0  0  0  0  0  0  0  0  0
    7.5649  -13.6743   18.9815 C   0  0  0  0  0  0  0  0  0  0  0  0
    8.1097  -13.8068   20.3520 C   0  0  0  0  0  0  0  0  0  0  0  0
    9.3562  -13.8584   20.5054 O   0  0  0  0  0  0  0  0  0  0  0  0
    7.3053  -13.8807   21.5091 N   0  0  0  0  0  0  0  0  0  0  0  0
    7.8897  -14.0450   22.8317 C   0  0  1  0  0  0  0  0  0  0  0  0
    7.0324  -13.4843   23.9298 C   0  0  0  0  0  0  0  0  0  0  0  0
    7.5997  -13.8622   25.5856 S   0  0  0  0  0  0  0  0  0  0  0  0
    8.3137  -15.4431   23.0425 C   0  0  0  0  0  0  0  0  0  0  0  0
    7.5082  -16.3946   22.7902 O   0  0  0  0  0  0  0  0  0  0  0  0
   11.4554  -19.2225   21.6026 N   0  0  0  0  0  0  0  0  0  0  0  0
   11.3714  -17.8333   21.8622 C   0  0  0  0  0  0  0  0  0  0  0  0
   11.2957  -17.0584   20.8838 O   0  0  0  0  0  0  0  0  0  0  0  0
   11.3708  -17.2984   23.2190 C   0  0  0  0  0  0  0  0  0  0  0  0
   10.0052  -17.1378   23.8422 C   0  0  2  0  0  0  0  0  0  0  0  0
    9.5936  -15.7633   23.5177 N   0  0  0  0  0  0  0  0  0  0  0  0
   10.0154  -17.3360   25.3107 C   0  0  0  0  0  0  0  0  0  0  0  0
   10.3001  -16.3858   26.0648 O   0  0  0  0  0  0  0  0  0  0  0  0
    9.7003  -18.5999   25.8034 O   0  0  0  0  0  0  0  0  0  0  0  0
  2  1  1  0
  3  2  1  0
  4  3  2  0
  5  3  1  0
  6  9  1  0
  6  5  1  0
  7  8  1  0
  6  7  1  1
  9 10  2  0
 11 12  1  0
 12 13  2  0
 14 12  1  0
 15 14  1  1
 16 15  1  0
 16  9  1  0
 17 19  1  0
 17 15  1  0
 18 17  2  0
M  END
$$$$
