GCN.pdb
     RDKit          3D

 19 18  0  0  1  0  0  0  0  0999 V2000
    8.4148  -13.7289   15.5052 N   0  0  0  0  0  0  0  0  0  0  0  0
    7.7476  -14.3744   16.6170 C   0  0  0  0  0  0  0  0  0  0  0  0
    8.6082  -14.2365   17.8141 C   0  0  0  0  0  0  0  0  0  0  0  0
    9.7940  -13.8469   17.6653 O   0  0  0  0  0  0  0  0  0  0  0  0
    8.1734  -14.5202   19.1262 N   0  0  0  0  0  0  0  0  0  0  0  0
    9.0480  -14.3320   20.2740 C   0  0  1  0  0  0  0  0  0  0  0  0
    8.3182  -14.3758   21.5857 C   0  0  0  0  0  0  0  0  0  0  0  0
    7.4586  -12.8639   22.0118 S   0  0  0  0  0  0  0  0  0  0  0  0
   10.2127  -15.2351   20.1936 C   0  0  0  0  0  0  0  0  0  0  0  0
   10.0512  -16.4486   19.8483 O   0  0  0  0  0  0  0  0  0  0  0  0
   13.6480  -15.5331   17.6753 N   0  0  0  0  0  0  0  0  0  0  0  0
   13.8895  -14.5459   18.6610 C   0  0  0  0  0  0  0  0  0  0  0  0
   14.1481  -13.3848   18.2755 O   0  0  0  0  0  0  0  0  0  0  0  0
   13.8434  -14.8486   20.0869 C   0  0  0  0  0  0  0  0  0  0  0  0
   12.6727  -15.6963   20.5229 C   0  0  2  0  0  0  0  0  0  0  0  0
   11.5110  -14.7945   20.4884 N   0  0  0  0  0  0  0  0  0  0  0  0
   12.8440  -16.2588   21.8831 C   0  0  0  0  0  0  0  0  0  0  0  0
   12.1494  -15.8314   22.8251 O   0  0  0  0  0  0  0  0  0  0  0  0
   13.7920  -17.2631   22.0620 O   0  0  0  0  0  0  0  0  0  0  0  0
  2  1  1  0
  3  2  1  0
  4  3  2  0
  5  3  1  0
  6  9  1  0
  6  5  1  0
  7  8  1  0
  6  7  1  1
  9 10  2  0
 11 12  1  0
 12 13  2  0
 14 12  1  0
 15 14  1  1
 16 15  1  0
 16  9  1  0
 17 19  1  0
 17 15  1  0
 18 17  2  0
M  END
$$$$
