GCN.pdb
     RDKit          3D

 19 18  0  0  1  0  0  0  0  0999 V2000
    4.6252  -18.7535   21.3983 N   0  0  0  0  0  0  0  0  0  0  0  0
    5.1562  -18.6327   22.7404 C   0  0  0  0  0  0  0  0  0  0  0  0
    6.2238  -17.6067   22.7229 C   0  0  0  0  0  0  0  0  0  0  0  0
    6.5639  -17.1058   21.6213 O   0  0  0  0  0  0  0  0  0  0  0  0
    6.8907  -17.1529   23.8808 N   0  0  0  0  0  0  0  0  0  0  0  0
    7.8960  -16.1026   23.8163 C   0  0  1  0  0  0  0  0  0  0  0  0
    7.7475  -15.0758   24.9019 C   0  0  0  0  0  0  0  0  0  0  0  0
    8.6967  -15.4130   26.3823 S   0  0  0  0  0  0  0  0  0  0  0  0
    9.2485  -16.6837   23.7073 C   0  0  0  0  0  0  0  0  0  0  0  0
    9.4853  -17.8343   24.1951 O   0  0  0  0  0  0  0  0  0  0  0  0
   11.2995  -14.7027   19.7789 N   0  0  0  0  0  0  0  0  0  0  0  0
   11.6831  -15.8470   20.5191 C   0  0  0  0  0  0  0  0  0  0  0  0
   11.4789  -16.9700   20.0085 O   0  0  0  0  0  0  0  0  0  0  0  0
   12.2993  -15.7452   21.8370 C   0  0  0  0  0  0  0  0  0  0  0  0
   11.6429  -16.5734   22.9152 C   0  0  2  0  0  0  0  0  0  0  0  0
   10.2972  -16.0011   23.0740 N   0  0  0  0  0  0  0  0  0  0  0  0
   12.3745  -16.5264   24.2030 C   0  0  0  0  0  0  0  0  0  0  0  0
   11.8507  -15.9873   25.1968 O   0  0  0  0  0  0  0  0  0  0  0  0
   13.6437  -17.0971   24.2567 O   0  0  0  0  0  0  0  0  0  0  0  0
  2  1  1  0
  3  2  1  0
  4  3  2  0
  5  3  1  0
  6  9  1  0
  6  5  1  0
  7  8  1  0
  6  7  1  1
  9 10  2  0
 11 12  1  0
 12 13  2  0
 14 12  1  0
 15 14  1  6
 16 15  1  0
 16  9  1  0
 17 19  1  0
 17 15  1  0
 18 17  2  0
M  END
$$$$
