GCN.pdb
     RDKit          3D

 19 18  0  0  1  0  0  0  0  0999 V2000
    7.5065  -13.9605   20.4476 N   0  0  0  0  0  0  0  0  0  0  0  0
    6.6060  -13.6934   21.5501 C   0  0  0  0  0  0  0  0  0  0  0  0
    7.3741  -13.8090   22.8108 C   0  0  0  0  0  0  0  0  0  0  0  0
    8.5354  -14.2883   22.7702 O   0  0  0  0  0  0  0  0  0  0  0  0
    6.8753  -13.4105   24.0693 N   0  0  0  0  0  0  0  0  0  0  0  0
    7.6432  -13.6107   25.2892 C   0  0  1  0  0  0  0  0  0  0  0  0
    7.1067  -12.8358   26.4583 C   0  0  0  0  0  0  0  0  0  0  0  0
    5.4905  -12.1116   26.1947 S   0  0  0  0  0  0  0  0  0  0  0  0
    7.8389  -15.0503   25.5498 C   0  0  0  0  0  0  0  0  0  0  0  0
    6.8841  -15.8663   25.3492 O   0  0  0  0  0  0  0  0  0  0  0  0
   11.3584  -18.9078   23.4117 N   0  0  0  0  0  0  0  0  0  0  0  0
   10.3950  -18.6279   24.4107 C   0  0  0  0  0  0  0  0  0  0  0  0
   10.0091  -19.5729   25.1329 O   0  0  0  0  0  0  0  0  0  0  0  0
    9.8551  -17.2880   24.6112 C   0  0  0  0  0  0  0  0  0  0  0  0
    9.3834  -16.9923   26.0145 C   0  0  2  0  0  0  0  0  0  0  0  0
    9.0601  -15.5573   26.0171 N   0  0  0  0  0  0  0  0  0  0  0  0
   10.4102  -17.2876   27.0414 C   0  0  0  0  0  0  0  0  0  0  0  0
   10.5026  -18.4358   27.5167 O   0  0  0  0  0  0  0  0  0  0  0  0
   11.2498  -16.2524   27.4448 O   0  0  0  0  0  0  0  0  0  0  0  0
  2  1  1  0
  3  2  1  0
  4  3  2  0
  5  3  1  0
  6  9  1  0
  6  5  1  0
  7  8  1  0
  6  7  1  1
  9 10  2  0
 11 12  1  0
 12 13  2  0
 14 12  1  0
 15 14  1  6
 16 15  1  0
 16  9  1  0
 17 19  1  0
 17 15  1  0
 18 17  2  0
M  END
$$$$
