GCN.pdb
     RDKit          3D

 19 18  0  0  1  0  0  0  0  0999 V2000
    8.1291  -16.2897   18.3180 N   0  0  0  0  0  0  0  0  0  0  0  0
    7.1327  -16.2260   19.3673 C   0  0  0  0  0  0  0  0  0  0  0  0
    7.7897  -15.7272   20.5971 C   0  0  0  0  0  0  0  0  0  0  0  0
    9.0449  -15.6697   20.6319 O   0  0  0  0  0  0  0  0  0  0  0  0
    7.0842  -15.3090   21.7454 N   0  0  0  0  0  0  0  0  0  0  0  0
    7.7777  -14.8088   22.9231 C   0  0  1  0  0  0  0  0  0  0  0  0
    6.8850  -14.0337   23.8490 C   0  0  0  0  0  0  0  0  0  0  0  0
    7.6749  -13.4818   25.3582 S   0  0  0  0  0  0  0  0  0  0  0  0
    8.5410  -15.8907   23.5755 C   0  0  0  0  0  0  0  0  0  0  0  0
    8.0013  -17.0285   23.7541 O   0  0  0  0  0  0  0  0  0  0  0  0
   13.4661  -16.6716   22.4522 N   0  0  0  0  0  0  0  0  0  0  0  0
   12.7800  -17.2197   23.5627 C   0  0  0  0  0  0  0  0  0  0  0  0
   12.7958  -18.4618   23.7059 O   0  0  0  0  0  0  0  0  0  0  0  0
   12.0703  -16.3831   24.5237 C   0  0  0  0  0  0  0  0  0  0  0  0
   10.6182  -16.7396   24.7318 C   0  0  2  0  0  0  0  0  0  0  0  0
    9.8610  -15.7048   24.0108 N   0  0  0  0  0  0  0  0  0  0  0  0
   10.2285  -16.7563   26.1615 C   0  0  0  0  0  0  0  0  0  0  0  0
   10.4659  -17.7610   26.8593 O   0  0  0  0  0  0  0  0  0  0  0  0
    9.6002  -15.6279   26.6824 O   0  0  0  0  0  0  0  0  0  0  0  0
  2  1  1  0
  3  2  1  0
  4  3  2  0
  5  3  1  0
  6  9  1  0
  6  5  1  0
  7  8  1  0
  6  7  1  1
  9 10  2  0
 11 12  1  0
 12 13  2  0
 14 12  1  0
 15 14  1  1
 16 15  1  0
 16  9  1  0
 17 19  1  0
 17 15  1  0
 18 17  2  0
M  END
$$$$
