GCN.pdb
     RDKit          3D

 19 18  0  0  1  0  0  0  0  0999 V2000
    8.8661  -15.0371   14.7685 N   0  0  0  0  0  0  0  0  0  0  0  0
    7.8210  -15.0117   15.7708 C   0  0  0  0  0  0  0  0  0  0  0  0
    8.4270  -14.6022   17.0583 C   0  0  0  0  0  0  0  0  0  0  0  0
    9.6468  -14.8342   17.2540 O   0  0  0  0  0  0  0  0  0  0  0  0
    7.7099  -13.9611   18.0908 N   0  0  0  0  0  0  0  0  0  0  0  0
    8.2753  -13.8000   19.4221 C   0  0  1  0  0  0  0  0  0  0  0  0
    7.4799  -12.8702   20.2928 C   0  0  0  0  0  0  0  0  0  0  0  0
    7.9733  -12.8553   22.0140 S   0  0  0  0  0  0  0  0  0  0  0  0
    8.5553  -15.1154   20.0306 C   0  0  0  0  0  0  0  0  0  0  0  0
    7.7305  -16.0719   19.8798 O   0  0  0  0  0  0  0  0  0  0  0  0
   12.4916  -19.1804   21.2124 N   0  0  0  0  0  0  0  0  0  0  0  0
   11.1394  -18.7626   21.1736 C   0  0  0  0  0  0  0  0  0  0  0  0
   10.2746  -19.5339   21.6434 O   0  0  0  0  0  0  0  0  0  0  0  0
   10.7425  -17.4776   20.6094 C   0  0  0  0  0  0  0  0  0  0  0  0
    9.9435  -16.5924   21.5352 C   0  0  2  0  0  0  0  0  0  0  0  0
    9.7172  -15.3507   20.7796 N   0  0  0  0  0  0  0  0  0  0  0  0
   10.6510  -16.2982   22.8036 C   0  0  0  0  0  0  0  0  0  0  0  0
   11.3587  -15.2771   22.8989 O   0  0  0  0  0  0  0  0  0  0  0  0
   10.4959  -17.1898   23.8622 O   0  0  0  0  0  0  0  0  0  0  0  0
  2  1  1  0
  3  2  1  0
  4  3  2  0
  5  3  1  0
  6  9  1  0
  6  5  1  0
  7  8  1  0
  6  7  1  1
  9 10  2  0
 11 12  1  0
 12 13  2  0
 14 12  1  0
 15 14  1  6
 16 15  1  0
 16  9  1  0
 17 19  1  0
 17 15  1  0
 18 17  2  0
M  END
$$$$
