FRV.pdb
     RDKit          3D

 30 30  0  0  1  0  0  0  0  0999 V2000
    5.8381  -16.4765   21.4154 N   0  0  0  0  0  0  0  0  0  0  0  0
    7.0737  -15.8733   21.8149 C   0  0  1  0  0  0  0  0  0  0  0  0
    6.9271  -14.3868   22.0677 C   0  0  0  0  0  0  0  0  0  0  0  0
    7.3872  -13.6631   20.8606 C   0  0  0  0  0  0  0  0  0  0  0  0
    8.7067  -13.3030   20.6817 C   0  0  0  0  0  0  0  0  0  0  0  0
    9.1518  -12.6298   19.5643 C   0  0  0  0  0  0  0  0  0  0  0  0
    8.2304  -12.3068   18.5885 C   0  0  0  0  0  0  0  0  0  0  0  0
    6.9144  -12.6646   18.7644 C   0  0  0  0  0  0  0  0  0  0  0  0
    6.4724  -13.3403   19.8877 C   0  0  0  0  0  0  0  0  0  0  0  0
    7.6178  -16.5719   22.9908 C   0  0  0  0  0  0  0  0  0  0  0  0
    6.8634  -17.0031   23.8973 O   0  0  0  0  0  0  0  0  0  0  0  0
   13.5438  -20.6918   27.2929 N   0  0  0  0  0  0  0  0  0  0  0  0
   13.0166  -21.5067   26.2692 C   0  0  0  0  0  0  0  0  0  0  0  0
   12.6611  -22.7554   26.4432 N   0  0  0  0  0  0  0  0  0  0  0  0
   12.8297  -21.0062   24.9400 N   0  0  0  0  0  0  0  0  0  0  0  0
   12.5652  -19.6442   24.6180 C   0  0  0  0  0  0  0  0  0  0  0  0
   11.1678  -19.1984   24.9232 C   0  0  0  0  0  0  0  0  0  0  0  0
   10.4982  -18.5330   23.7678 C   0  0  0  0  0  0  0  0  0  0  0  0
    9.5557  -17.4441   24.2614 C   0  0  2  0  0  0  0  0  0  0  0  0
    9.0131  -16.7670   23.1123 N   0  0  0  0  0  0  0  0  0  0  0  0
   10.2074  -16.5119   25.1849 C   0  0  0  0  0  0  0  0  0  0  0  0
   11.3421  -16.0307   24.9141 O   0  0  0  0  0  0  0  0  0  0  0  0
   12.8327  -23.2687   27.3135 C   0  0  0  0  0  0  0  0  0  0  0  0
    9.4832  -13.0805   26.5418 C   0  0  2  0  0  0  0  0  0  0  0  0
    9.5995  -14.0065   27.7279 C   0  0  0  0  0  0  0  0  0  0  0  0
    8.2036  -14.2906   28.2364 C   0  0  2  0  0  0  0  0  0  0  0  0
   10.3187  -15.2939   27.3860 N   0  0  0  0  0  0  0  0  0  0  0  0
    9.6291  -16.0889   26.4233 C   0  0  0  0  0  0  0  0  0  0  0  0
   10.7003  -16.0392   28.6083 O   0  0  0  0  0  0  0  0  0  0  0  0
   10.3224  -17.2060   28.8593 O   0  0  0  0  0  0  0  0  0  0  0  0
  2  1  1  1
  2 10  1  0
  3  2  1  0
  4  3  1  0
  4  9  2  0
  5  4  1  0
  6  5  2  0
  6  7  1  0
  7  8  2  0
  8  9  1  0
 10 11  2  0
 13 12  1  0
 13 15  1  0
 14 13  2  0
 15 16  1  0
 16 17  1  0
 17 18  1  0
 19 18  1  6
 19 21  1  0
 20 19  1  0
 20 10  1  0
 21 22  2  0
 24 23  1  1
 24 26  1  0
 25 24  1  0
 26 28  1  0
 27 21  1  0
 26 27  1  1
 28 29  2  0
 28 30  1  0
M  END
$$$$
