FRV.pdb
     RDKit          3D

 30 30  0  0  1  0  0  0  0  0999 V2000
    5.3284  -18.3790   25.9292 N   0  0  0  0  0  0  0  0  0  0  0  0
    5.9962  -17.1304   25.7163 C   0  0  1  0  0  0  0  0  0  0  0  0
    5.9251  -16.2309   26.9333 C   0  0  0  0  0  0  0  0  0  0  0  0
    6.2100  -14.8433   26.5020 C   0  0  0  0  0  0  0  0  0  0  0  0
    7.4981  -14.3761   26.3433 C   0  0  0  0  0  0  0  0  0  0  0  0
    7.7809  -13.0881   25.9423 C   0  0  0  0  0  0  0  0  0  0  0  0
    6.7233  -12.2371   25.6913 C   0  0  0  0  0  0  0  0  0  0  0  0
    5.4382  -12.7004   25.8488 C   0  0  0  0  0  0  0  0  0  0  0  0
    5.1594  -13.9941   26.2514 C   0  0  0  0  0  0  0  0  0  0  0  0
    7.3876  -17.3687   25.2991 C   0  0  0  0  0  0  0  0  0  0  0  0
    8.1394  -18.1347   25.9508 O   0  0  0  0  0  0  0  0  0  0  0  0
    7.5263  -13.8853   19.5046 N   0  0  0  0  0  0  0  0  0  0  0  0
    8.5167  -13.0408   20.0488 C   0  0  0  0  0  0  0  0  0  0  0  0
    8.3528  -11.7553   20.2389 N   0  0  0  0  0  0  0  0  0  0  0  0
    9.7973  -13.5498   20.4400 N   0  0  0  0  0  0  0  0  0  0  0  0
   10.0411  -14.8875   20.8643 C   0  0  0  0  0  0  0  0  0  0  0  0
    9.0031  -15.4387   21.7934 C   0  0  0  0  0  0  0  0  0  0  0  0
    9.2448  -16.8632   22.1653 C   0  0  0  0  0  0  0  0  0  0  0  0
    9.2279  -17.0222   23.6793 C   0  0  2  0  0  0  0  0  0  0  0  0
    7.8974  -16.7294   24.1454 N   0  0  0  0  0  0  0  0  0  0  0  0
   10.2331  -16.1888   24.3438 C   0  0  0  0  0  0  0  0  0  0  0  0
   11.0777  -15.5412   23.6658 O   0  0  0  0  0  0  0  0  0  0  0  0
    9.0940  -11.1447   20.5969 C   0  0  0  0  0  0  0  0  0  0  0  0
   10.3302  -13.1864   26.2721 C   0  0  2  0  0  0  0  0  0  0  0  0
   11.0740  -14.1609   27.1523 C   0  0  0  0  0  0  0  0  0  0  0  0
   10.2046  -14.4625   28.3528 C   0  0  2  0  0  0  0  0  0  0  0  0
   11.4402  -15.4349   26.4211 N   0  0  0  0  0  0  0  0  0  0  0  0
   10.3329  -16.0486   25.7642 C   0  0  0  0  0  0  0  0  0  0  0  0
   12.1990  -16.3592   27.2957 O   0  0  0  0  0  0  0  0  0  0  0  0
   11.8199  -17.5180   27.5801 O   0  0  0  0  0  0  0  0  0  0  0  0
  2  1  1  1
  2 10  1  0
  3  2  1  0
  4  3  1  0
  4  9  2  0
  5  4  1  0
  6  5  2  0
  6  7  1  0
  7  8  2  0
  8  9  1  0
 10 11  2  0
 13 12  1  0
 13 15  1  0
 14 13  2  0
 15 16  1  0
 16 17  1  0
 17 18  1  0
 19 18  1  6
 19 21  1  0
 20 19  1  0
 20 10  1  0
 21 22  2  0
 24 23  1  1
 24 26  1  0
 25 24  1  0
 26 28  1  0
 27 21  1  0
 26 27  1  1
 28 29  2  0
 28 30  1  0
M  END
$$$$
