FRV.pdb
     RDKit          3D

 30 30  0  0  1  0  0  0  0  0999 V2000
    5.4280  -17.5565   25.0470 N   0  0  0  0  0  0  0  0  0  0  0  0
    6.1543  -16.3229   25.0804 C   0  0  1  0  0  0  0  0  0  0  0  0
    6.7046  -16.0223   26.4595 C   0  0  0  0  0  0  0  0  0  0  0  0
    6.9458  -14.5645   26.5553 C   0  0  0  0  0  0  0  0  0  0  0  0
    8.2150  -14.0273   26.4972 C   0  0  0  0  0  0  0  0  0  0  0  0
    8.4571  -12.6732   26.5843 C   0  0  0  0  0  0  0  0  0  0  0  0
    7.3771  -11.8269   26.7359 C   0  0  0  0  0  0  0  0  0  0  0  0
    6.1109  -12.3599   26.7941 C   0  0  0  0  0  0  0  0  0  0  0  0
    5.8728  -13.7197   26.7062 C   0  0  0  0  0  0  0  0  0  0  0  0
    7.2186  -16.3379   24.0636 C   0  0  0  0  0  0  0  0  0  0  0  0
    7.9889  -17.3222   23.9435 O   0  0  0  0  0  0  0  0  0  0  0  0
    9.5062  -14.9651   17.7671 N   0  0  0  0  0  0  0  0  0  0  0  0
    8.5180  -14.2282   17.0812 C   0  0  0  0  0  0  0  0  0  0  0  0
    8.3999  -14.2073   15.7768 N   0  0  0  0  0  0  0  0  0  0  0  0
    7.5544  -13.4370   17.7867 N   0  0  0  0  0  0  0  0  0  0  0  0
    7.5848  -13.1845   19.1881 C   0  0  0  0  0  0  0  0  0  0  0  0
    8.2882  -14.2372   19.9892 C   0  0  0  0  0  0  0  0  0  0  0  0
    8.3593  -13.9177   21.4449 C   0  0  0  0  0  0  0  0  0  0  0  0
    8.4750  -15.1983   22.2599 C   0  0  2  0  0  0  0  0  0  0  0  0
    7.3858  -15.2298   23.2011 N   0  0  0  0  0  0  0  0  0  0  0  0
    9.7737  -15.3261   22.9258 C   0  0  0  0  0  0  0  0  0  0  0  0
   10.2331  -14.3780   23.6205 O   0  0  0  0  0  0  0  0  0  0  0  0
    7.6974  -13.6429   15.2886 C   0  0  0  0  0  0  0  0  0  0  0  0
   11.3756  -18.1966   25.1917 C   0  0  2  0  0  0  0  0  0  0  0  0
   12.2487  -17.8999   23.9969 C   0  0  0  0  0  0  0  0  0  0  0  0
   12.0750  -19.0252   23.0012 C   0  0  2  0  0  0  0  0  0  0  0  0
   11.9220  -16.5655   23.3612 N   0  0  0  0  0  0  0  0  0  0  0  0
   10.5947  -16.4950   22.8437 C   0  0  0  0  0  0  0  0  0  0  0  0
   12.9622  -16.1641   22.3855 O   0  0  0  0  0  0  0  0  0  0  0  0
   12.7473  -16.0102   21.1618 O   0  0  0  0  0  0  0  0  0  0  0  0
  2  1  1  1
  2 10  1  0
  3  2  1  0
  4  3  1  0
  4  9  2  0
  5  4  1  0
  6  5  2  0
  6  7  1  0
  7  8  2  0
  8  9  1  0
 10 11  2  0
 13 12  1  0
 13 15  1  0
 14 13  2  0
 15 16  1  0
 16 17  1  0
 17 18  1  0
 19 18  1  1
 19 21  1  0
 20 19  1  0
 20 10  1  0
 21 22  2  0
 24 23  1  1
 24 26  1  0
 25 24  1  0
 26 28  1  0
 27 21  1  0
 26 27  1  1
 28 29  2  0
 28 30  1  0
M  END
$$$$
