FRV.pdb
     RDKit          3D

 30 30  0  0  1  0  0  0  0  0999 V2000
    5.2863  -18.0156   24.4363 N   0  0  0  0  0  0  0  0  0  0  0  0
    5.8719  -16.7210   24.6134 C   0  0  1  0  0  0  0  0  0  0  0  0
    5.6854  -16.1988   26.0232 C   0  0  0  0  0  0  0  0  0  0  0  0
    6.0208  -14.7565   26.0320 C   0  0  0  0  0  0  0  0  0  0  0  0
    5.9627  -13.9847   24.8903 C   0  0  0  0  0  0  0  0  0  0  0  0
    6.2710  -12.6414   24.8809 C   0  0  0  0  0  0  0  0  0  0  0  0
    6.6529  -12.0525   26.0697 C   0  0  0  0  0  0  0  0  0  0  0  0
    6.7116  -12.8198   27.2093 C   0  0  0  0  0  0  0  0  0  0  0  0
    6.4012  -14.1678   27.2137 C   0  0  0  0  0  0  0  0  0  0  0  0
    7.2931  -16.7551   24.2316 C   0  0  0  0  0  0  0  0  0  0  0  0
    7.9975  -17.7737   24.4387 O   0  0  0  0  0  0  0  0  0  0  0  0
    8.0261  -12.5894   18.1791 N   0  0  0  0  0  0  0  0  0  0  0  0
    8.7642  -13.7656   18.4281 C   0  0  0  0  0  0  0  0  0  0  0  0
   10.0525  -13.8745   18.2183 N   0  0  0  0  0  0  0  0  0  0  0  0
    8.1350  -14.9457   18.9418 N   0  0  0  0  0  0  0  0  0  0  0  0
    8.2594  -15.4106   20.2823 C   0  0  0  0  0  0  0  0  0  0  0  0
    8.3442  -14.3215   21.3075 C   0  0  0  0  0  0  0  0  0  0  0  0
    9.4908  -14.4878   22.2476 C   0  0  0  0  0  0  0  0  0  0  0  0
    9.2513  -15.6794   23.1644 C   0  0  2  0  0  0  0  0  0  0  0  0
    7.8863  -15.6266   23.6197 N   0  0  0  0  0  0  0  0  0  0  0  0
   10.1966  -15.7279   24.2826 C   0  0  0  0  0  0  0  0  0  0  0  0
   11.4179  -15.4676   24.1003 O   0  0  0  0  0  0  0  0  0  0  0  0
   10.5718  -14.7445   18.3721 C   0  0  0  0  0  0  0  0  0  0  0  0
    8.9297  -14.6489   28.1008 C   0  0  1  0  0  0  0  0  0  0  0  0
   10.3305  -14.6124   27.5403 C   0  0  0  0  0  0  0  0  0  0  0  0
   11.2903  -14.4304   28.6951 C   0  0  1  0  0  0  0  0  0  0  0  0
   10.6691  -15.8598   26.7524 N   0  0  0  0  0  0  0  0  0  0  0  0
    9.8227  -16.0626   25.6224 C   0  0  0  0  0  0  0  0  0  0  0  0
   10.7736  -17.0441   27.6366 O   0  0  0  0  0  0  0  0  0  0  0  0
   10.0569  -18.0641   27.5224 O   0  0  0  0  0  0  0  0  0  0  0  0
  2  1  1  1
  2 10  1  0
  3  2  1  0
  4  3  1  0
  4  9  2  0
  5  4  1  0
  6  5  2  0
  6  7  1  0
  7  8  2  0
  8  9  1  0
 10 11  2  0
 13 12  1  0
 13 15  1  0
 14 13  2  0
 15 16  1  0
 16 17  1  0
 17 18  1  0
 19 18  1  1
 19 21  1  0
 20 19  1  0
 20 10  1  0
 21 22  2  0
 24 23  1  6
 24 26  1  0
 25 24  1  0
 26 28  1  0
 27 21  1  0
 26 27  1  6
 28 29  2  0
 28 30  1  0
M  END
$$$$
