FRV.pdb
     RDKit          3D

 30 30  0  0  1  0  0  0  0  0999 V2000
    4.9600  -17.2127   26.3450 N   0  0  0  0  0  0  0  0  0  0  0  0
    5.9479  -16.2848   25.8831 C   0  0  1  0  0  0  0  0  0  0  0  0
    6.4371  -15.3743   26.9906 C   0  0  0  0  0  0  0  0  0  0  0  0
    6.1379  -13.9755   26.6077 C   0  0  0  0  0  0  0  0  0  0  0  0
    4.9480  -13.3636   26.9431 C   0  0  0  0  0  0  0  0  0  0  0  0
    4.6536  -12.0628   26.5951 C   0  0  0  0  0  0  0  0  0  0  0  0
    5.5960  -11.3505   25.8808 C   0  0  0  0  0  0  0  0  0  0  0  0
    6.7829  -11.9583   25.5452 C   0  0  0  0  0  0  0  0  0  0  0  0
    7.0739  -13.2642   25.8967 C   0  0  0  0  0  0  0  0  0  0  0  0
    7.0597  -17.0091   25.2461 C   0  0  0  0  0  0  0  0  0  0  0  0
    7.5584  -18.0317   25.7773 O   0  0  0  0  0  0  0  0  0  0  0  0
    7.9565  -13.0985   18.7870 N   0  0  0  0  0  0  0  0  0  0  0  0
    9.2701  -13.1014   19.3012 C   0  0  0  0  0  0  0  0  0  0  0  0
    9.9544  -12.0139   19.5560 N   0  0  0  0  0  0  0  0  0  0  0  0
    9.9561  -14.3262   19.5868 N   0  0  0  0  0  0  0  0  0  0  0  0
    9.3271  -15.5160   20.0531 C   0  0  0  0  0  0  0  0  0  0  0  0
    9.3920  -15.7069   21.5377 C   0  0  0  0  0  0  0  0  0  0  0  0
    8.7945  -16.9967   21.9907 C   0  0  0  0  0  0  0  0  0  0  0  0
    8.8238  -17.0855   23.5102 C   0  0  2  0  0  0  0  0  0  0  0  0
    7.5836  -16.5546   24.0137 N   0  0  0  0  0  0  0  0  0  0  0  0
    9.9833  -16.4043   24.0914 C   0  0  0  0  0  0  0  0  0  0  0  0
   10.5171  -15.4280   23.4961 O   0  0  0  0  0  0  0  0  0  0  0  0
   10.8978  -12.0286   19.9560 C   0  0  0  0  0  0  0  0  0  0  0  0
   10.2515  -14.2647   26.9516 C   0  0  2  0  0  0  0  0  0  0  0  0
   11.2805  -15.3401   27.2013 C   0  0  0  0  0  0  0  0  0  0  0  0
   10.7142  -16.2988   28.2252 C   0  0  2  0  0  0  0  0  0  0  0  0
   11.6666  -16.0740   25.9348 N   0  0  0  0  0  0  0  0  0  0  0  0
   10.5810  -16.7793   25.3361 C   0  0  0  0  0  0  0  0  0  0  0  0
   12.8744  -16.9068   26.1413 O   0  0  0  0  0  0  0  0  0  0  0  0
   12.8889  -18.1535   26.0272 O   0  0  0  0  0  0  0  0  0  0  0  0
  2  1  1  1
  2 10  1  0
  3  2  1  0
  4  3  1  0
  4  9  2  0
  5  4  1  0
  6  5  2  0
  6  7  1  0
  7  8  2  0
  8  9  1  0
 10 11  2  0
 13 12  1  0
 13 15  1  0
 14 13  2  0
 15 16  1  0
 16 17  1  0
 17 18  1  0
 19 18  1  6
 19 21  1  0
 20 19  1  0
 20 10  1  0
 21 22  2  0
 24 23  1  1
 24 26  1  0
 25 24  1  0
 26 28  1  0
 27 21  1  0
 26 27  1  6
 28 29  2  0
 28 30  1  0
M  END
$$$$
