FRV.pdb
     RDKit          3D

 30 30  0  0  1  0  0  0  0  0999 V2000
    5.3679  -15.5606   25.6211 N   0  0  0  0  0  0  0  0  0  0  0  0
    6.5885  -15.0264   25.0966 C   0  0  1  0  0  0  0  0  0  0  0  0
    7.2781  -14.1056   26.0823 C   0  0  0  0  0  0  0  0  0  0  0  0
    6.4933  -12.8532   26.1746 C   0  0  0  0  0  0  0  0  0  0  0  0
    6.7911  -11.7450   25.4093 C   0  0  0  0  0  0  0  0  0  0  0  0
    6.0710  -10.5720   25.4824 C   0  0  0  0  0  0  0  0  0  0  0  0
    5.0085  -10.5138   26.3618 C   0  0  0  0  0  0  0  0  0  0  0  0
    4.7096  -11.6173   27.1258 C   0  0  0  0  0  0  0  0  0  0  0  0
    5.4353  -12.7925   27.0489 C   0  0  0  0  0  0  0  0  0  0  0  0
    7.4736  -16.1215   24.6675 C   0  0  0  0  0  0  0  0  0  0  0  0
    7.4526  -17.2375   25.2426 O   0  0  0  0  0  0  0  0  0  0  0  0
    7.3241  -14.2498   18.8547 N   0  0  0  0  0  0  0  0  0  0  0  0
    8.7255  -14.1499   18.9813 C   0  0  0  0  0  0  0  0  0  0  0  0
    9.3638  -13.0157   19.1296 N   0  0  0  0  0  0  0  0  0  0  0  0
    9.5610  -15.3133   18.9571 N   0  0  0  0  0  0  0  0  0  0  0  0
    9.2685  -16.5335   19.6312 C   0  0  0  0  0  0  0  0  0  0  0  0
    8.8946  -16.3677   21.0724 C   0  0  0  0  0  0  0  0  0  0  0  0
   10.0300  -16.6208   22.0066 C   0  0  0  0  0  0  0  0  0  0  0  0
    9.5148  -16.7800   23.4303 C   0  0  2  0  0  0  0  0  0  0  0  0
    8.3673  -15.9249   23.5893 N   0  0  0  0  0  0  0  0  0  0  0  0
   10.5440  -16.5024   24.4354 C   0  0  0  0  0  0  0  0  0  0  0  0
   11.6125  -15.9141   24.1121 O   0  0  0  0  0  0  0  0  0  0  0  0
    8.8894  -12.1078   19.1609 C   0  0  0  0  0  0  0  0  0  0  0  0
   10.3647  -14.3456   27.3003 C   0  0  2  0  0  0  0  0  0  0  0  0
   10.9322  -15.6216   27.8727 C   0  0  0  0  0  0  0  0  0  0  0  0
    9.8600  -16.2701   28.7200 C   0  0  2  0  0  0  0  0  0  0  0  0
   11.4143  -16.5717   26.7973 N   0  0  0  0  0  0  0  0  0  0  0  0
   10.4228  -16.8639   25.8144 C   0  0  0  0  0  0  0  0  0  0  0  0
   12.0415  -17.7782   27.3855 O   0  0  0  0  0  0  0  0  0  0  0  0
   11.6246  -18.9432   27.1953 O   0  0  0  0  0  0  0  0  0  0  0  0
  2  1  1  1
  2 10  1  0
  3  2  1  0
  4  3  1  0
  4  9  2  0
  5  4  1  0
  6  5  2  0
  6  7  1  0
  7  8  2  0
  8  9  1  0
 10 11  2  0
 13 12  1  0
 13 15  1  0
 14 13  2  0
 15 16  1  0
 16 17  1  0
 17 18  1  0
 19 18  1  6
 19 21  1  0
 20 19  1  0
 20 10  1  0
 21 22  2  0
 24 23  1  1
 24 26  1  0
 25 24  1  0
 26 28  1  0
 27 21  1  0
 26 27  1  1
 28 29  2  0
 28 30  1  0
M  END
$$$$
