PPW.pdb
     RDKit          3D

 29 32  0  0  1  0  0  0  0  0999 V2000
    7.5470  -14.6164   18.7659 N   0  0  0  0  0  0  0  0  0  0  0  0
    7.4502  -13.3170   18.1303 C   0  0  0  0  0  0  0  0  0  0  0  0
    7.8113  -12.2938   19.1641 C   0  0  0  0  0  0  0  0  0  0  0  0
    8.5814  -13.0540   20.2087 C   0  0  0  0  0  0  0  0  0  0  0  0
    8.5710  -14.5040   19.7751 C   0  0  1  0  0  0  0  0  0  0  0  0
    8.3443  -15.4381   20.9161 C   0  0  0  0  0  0  0  0  0  0  0  0
    7.1796  -15.4446   21.4020 O   0  0  0  0  0  0  0  0  0  0  0  0
    9.3511  -16.2679   21.4337 N   0  0  0  0  0  0  0  0  0  0  0  0
   10.7126  -16.3482   20.9931 C   0  0  0  0  0  0  0  0  0  0  0  0
   11.1534  -17.7656   21.3769 C   0  0  0  0  0  0  0  0  0  0  0  0
    9.8864  -18.4328   21.9262 C   0  0  0  0  0  0  0  0  0  0  0  0
    9.1893  -17.1978   22.5153 C   0  0  1  0  0  0  0  0  0  0  0  0
    9.9499  -16.7820   23.7240 C   0  0  0  0  0  0  0  0  0  0  0  0
   11.1329  -16.3375   23.6553 O   0  0  0  0  0  0  0  0  0  0  0  0
    9.3779  -16.8677   24.9933 N   0  0  0  0  0  0  0  0  0  0  0  0
   10.1649  -16.4933   26.2001 C   0  0  1  0  0  0  0  0  0  0  0  0
    9.6947  -15.1895   26.7167 C   0  0  0  0  0  0  0  0  0  0  0  0
    8.2822  -14.9385   26.5066 C   0  0  0  0  0  0  0  0  0  0  0  0
    7.2660  -15.8540   26.2456 C   0  0  0  0  0  0  0  0  0  0  0  0
    6.0996  -15.2298   26.0745 N   0  0  0  0  0  0  0  0  0  0  0  0
    6.2815  -13.9002   26.2115 C   0  0  0  0  0  0  0  0  0  0  0  0
    5.3867  -12.8424   26.1442 C   0  0  0  0  0  0  0  0  0  0  0  0
    5.7999  -11.5456   26.3434 C   0  0  0  0  0  0  0  0  0  0  0  0
    7.1358  -11.3633   26.6097 C   0  0  0  0  0  0  0  0  0  0  0  0
    8.0252  -12.3976   26.6774 C   0  0  0  0  0  0  0  0  0  0  0  0
    7.6344  -13.6993   26.4812 C   0  0  0  0  0  0  0  0  0  0  0  0
   10.0200  -17.5911   27.1429 C   0  0  0  0  0  0  0  0  0  0  0  0
   10.5845  -17.6341   28.2630 O   0  0  0  0  0  0  0  0  0  0  0  0
    9.2188  -18.7196   26.8733 O   0  0  0  0  0  0  0  0  0  0  0  0
  2  1  1  0
  3  2  1  0
  4  3  1  0
  4  5  1  0
  5  6  1  1
  5  1  1  0
  6  7  2  0
  8 12  1  0
  8  6  1  0
  9  8  1  0
 10 11  1  0
 10  9  1  0
 11 12  1  0
 12 13  1  1
 13 15  1  0
 13 14  2  0
 15 16  1  0
 16 27  1  0
 16 17  1  1
 18 17  1  0
 19 18  2  0
 20 21  1  0
 20 19  1  0
 21 26  2  0
 22 23  2  0
 22 21  1  0
 23 24  1  0
 24 25  2  0
 26 18  1  0
 26 25  1  0
 27 28  2  0
 27 29  1  0
M  END
$$$$
