PPW.pdb
     RDKit          3D

 29 32  0  0  1  0  0  0  0  0999 V2000
    6.6520  -18.9005   19.6002 N   0  0  0  0  0  0  0  0  0  0  0  0
    5.7307  -19.8623   20.1732 C   0  0  0  0  0  0  0  0  0  0  0  0
    5.6223  -19.5505   21.6350 C   0  0  0  0  0  0  0  0  0  0  0  0
    6.0889  -18.1264   21.7627 C   0  0  0  0  0  0  0  0  0  0  0  0
    6.5209  -17.6935   20.3784 C   0  0  1  0  0  0  0  0  0  0  0  0
    7.7811  -16.8951   20.3987 C   0  0  0  0  0  0  0  0  0  0  0  0
    8.7315  -17.3448   19.7006 O   0  0  0  0  0  0  0  0  0  0  0  0
    7.9229  -15.7130   21.1420 N   0  0  0  0  0  0  0  0  0  0  0  0
    6.9414  -15.1074   21.9929 C   0  0  0  0  0  0  0  0  0  0  0  0
    7.3131  -13.6200   22.0032 C   0  0  0  0  0  0  0  0  0  0  0  0
    8.4696  -13.5000   21.0030 C   0  0  0  0  0  0  0  0  0  0  0  0
    9.0983  -14.8897   21.1806 C   0  0  1  0  0  0  0  0  0  0  0  0
    9.7560  -14.9222   22.5143 C   0  0  0  0  0  0  0  0  0  0  0  0
   10.5233  -13.9966   22.9093 O   0  0  0  0  0  0  0  0  0  0  0  0
    9.5466  -15.9883   23.3889 N   0  0  0  0  0  0  0  0  0  0  0  0
   10.2421  -16.0302   24.7044 C   0  0  1  0  0  0  0  0  0  0  0  0
    9.8192  -14.8769   25.5285 C   0  0  0  0  0  0  0  0  0  0  0  0
    8.3828  -14.6973   25.6111 C   0  0  0  0  0  0  0  0  0  0  0  0
    7.3744  -15.6170   25.3354 C   0  0  0  0  0  0  0  0  0  0  0  0
    6.1718  -15.0618   25.4931 N   0  0  0  0  0  0  0  0  0  0  0  0
    6.3210  -13.7762   25.8734 C   0  0  0  0  0  0  0  0  0  0  0  0
    5.3863  -12.7973   26.1772 C   0  0  0  0  0  0  0  0  0  0  0  0
    5.7755  -11.5385   26.5724 C   0  0  0  0  0  0  0  0  0  0  0  0
    7.1289  -11.3119   26.6473 C   0  0  0  0  0  0  0  0  0  0  0  0
    8.0573  -12.2682   26.3497 C   0  0  0  0  0  0  0  0  0  0  0  0
    7.6911  -13.5307   25.9526 C   0  0  0  0  0  0  0  0  0  0  0  0
    9.9329  -17.3237   25.2926 C   0  0  0  0  0  0  0  0  0  0  0  0
   10.3879  -17.7221   26.3924 O   0  0  0  0  0  0  0  0  0  0  0  0
    9.0803  -18.2557   24.6661 O   0  0  0  0  0  0  0  0  0  0  0  0
  2  1  1  0
  3  2  1  0
  4  3  1  0
  4  5  1  0
  5  6  1  1
  5  1  1  0
  6  7  2  0
  8 12  1  0
  8  6  1  0
  9  8  1  0
 10 11  1  0
 10  9  1  0
 11 12  1  0
 12 13  1  1
 13 15  1  0
 13 14  2  0
 15 16  1  0
 16 27  1  0
 16 17  1  1
 18 17  1  0
 19 18  2  0
 20 21  1  0
 20 19  1  0
 21 26  2  0
 22 23  2  0
 22 21  1  0
 23 24  1  0
 24 25  2  0
 26 18  1  0
 26 25  1  0
 27 28  2  0
 27 29  1  0
M  END
$$$$
