PPW.pdb
     RDKit          3D

 29 32  0  0  1  0  0  0  0  0999 V2000
    8.2393  -17.9320   17.4897 N   0  0  0  0  0  0  0  0  0  0  0  0
    7.3848  -19.0884   17.3032 C   0  0  0  0  0  0  0  0  0  0  0  0
    6.6801  -19.3288   18.6038 C   0  0  0  0  0  0  0  0  0  0  0  0
    6.7690  -18.0202   19.3399 C   0  0  0  0  0  0  0  0  0  0  0  0
    7.5884  -17.0946   18.4668 C   0  0  1  0  0  0  0  0  0  0  0  0
    8.5623  -16.2831   19.2536 C   0  0  0  0  0  0  0  0  0  0  0  0
    9.7818  -16.4808   18.9958 O   0  0  0  0  0  0  0  0  0  0  0  0
    8.1680  -15.3512   20.2262 N   0  0  0  0  0  0  0  0  0  0  0  0
    6.8272  -14.9778   20.5682 C   0  0  0  0  0  0  0  0  0  0  0  0
    6.9599  -13.5580   21.1313 C   0  0  0  0  0  0  0  0  0  0  0  0
    8.4373  -13.1967   20.9341 C   0  0  0  0  0  0  0  0  0  0  0  0
    9.0560  -14.5961   21.0641 C   0  0  1  0  0  0  0  0  0  0  0  0
    8.9557  -15.0048   22.4907 C   0  0  0  0  0  0  0  0  0  0  0  0
    8.0241  -14.5970   23.2441 O   0  0  0  0  0  0  0  0  0  0  0  0
    9.8975  -15.8645   23.0561 N   0  0  0  0  0  0  0  0  0  0  0  0
   10.1395  -15.8544   24.5248 C   0  0  1  0  0  0  0  0  0  0  0  0
    9.7374  -14.5466   25.0870 C   0  0  0  0  0  0  0  0  0  0  0  0
    8.3337  -14.4542   25.4383 C   0  0  0  0  0  0  0  0  0  0  0  0
    7.3101  -15.3608   25.1747 C   0  0  0  0  0  0  0  0  0  0  0  0
    6.1426  -14.9004   25.6269 N   0  0  0  0  0  0  0  0  0  0  0  0
    6.3313  -13.6940   26.2003 C   0  0  0  0  0  0  0  0  0  0  0  0
    5.4450  -12.8291   26.8251 C   0  0  0  0  0  0  0  0  0  0  0  0
    5.8729  -11.6399   27.3682 C   0  0  0  0  0  0  0  0  0  0  0  0
    7.2146  -11.3638   27.2559 C   0  0  0  0  0  0  0  0  0  0  0  0
    8.0954  -12.2080   26.6421 C   0  0  0  0  0  0  0  0  0  0  0  0
    7.6897  -13.3993   26.0927 C   0  0  0  0  0  0  0  0  0  0  0  0
    9.4054  -16.9848   25.0708 C   0  0  0  0  0  0  0  0  0  0  0  0
    9.3779  -17.2818   26.2899 O   0  0  0  0  0  0  0  0  0  0  0  0
    8.6491  -17.8579   24.2622 O   0  0  0  0  0  0  0  0  0  0  0  0
  2  1  1  0
  3  2  1  0
  4  3  1  0
  4  5  1  0
  5  6  1  1
  5  1  1  0
  6  7  2  0
  8 12  1  0
  8  6  1  0
  9  8  1  0
 10 11  1  0
 10  9  1  0
 11 12  1  0
 12 13  1  1
 13 15  1  0
 13 14  2  0
 15 16  1  0
 16 27  1  0
 16 17  1  1
 18 17  1  0
 19 18  2  0
 20 21  1  0
 20 19  1  0
 21 26  2  0
 22 23  2  0
 22 21  1  0
 23 24  1  0
 24 25  2  0
 26 18  1  0
 26 25  1  0
 27 28  2  0
 27 29  1  0
M  END
$$$$
