PPW.pdb
     RDKit          3D

 29 32  0  0  1  0  0  0  0  0999 V2000
    8.9548  -14.2370   20.9646 N   0  0  0  0  0  0  0  0  0  0  0  0
    8.1578  -14.4764   19.7774 C   0  0  0  0  0  0  0  0  0  0  0  0
    6.7903  -14.8794   20.2397 C   0  0  0  0  0  0  0  0  0  0  0  0
    6.6976  -14.3802   21.6554 C   0  0  0  0  0  0  0  0  0  0  0  0
    8.0448  -13.7732   21.9827 C   0  0  1  0  0  0  0  0  0  0  0  0
    8.5087  -14.1233   23.3568 C   0  0  0  0  0  0  0  0  0  0  0  0
    9.7017  -14.5238   23.4520 O   0  0  0  0  0  0  0  0  0  0  0  0
    7.6851  -14.0212   24.4886 N   0  0  0  0  0  0  0  0  0  0  0  0
    6.2958  -13.6699   24.5144 C   0  0  0  0  0  0  0  0  0  0  0  0
    6.0802  -13.0739   25.9105 C   0  0  0  0  0  0  0  0  0  0  0  0
    7.4791  -13.0348   26.5381 C   0  0  0  0  0  0  0  0  0  0  0  0
    8.0986  -14.2560   25.8431 C   0  0  1  0  0  0  0  0  0  0  0  0
    7.4633  -15.4733   26.4150 C   0  0  0  0  0  0  0  0  0  0  0  0
    6.2069  -15.6177   26.4630 O   0  0  0  0  0  0  0  0  0  0  0  0
    8.2407  -16.5132   26.9247 N   0  0  0  0  0  0  0  0  0  0  0  0
    7.6298  -17.8412   27.2063 C   0  0  1  0  0  0  0  0  0  0  0  0
    7.2878  -18.5122   25.9332 C   0  0  0  0  0  0  0  0  0  0  0  0
    8.3787  -18.5753   24.9801 C   0  0  0  0  0  0  0  0  0  0  0  0
    9.7417  -18.7168   25.2271 C   0  0  0  0  0  0  0  0  0  0  0  0
   10.4337  -18.6947   24.0868 N   0  0  0  0  0  0  0  0  0  0  0  0
    9.5822  -18.5420   23.0518 C   0  0  0  0  0  0  0  0  0  0  0  0
    9.8058  -18.4801   21.6842 C   0  0  0  0  0  0  0  0  0  0  0  0
    8.7636  -18.3421   20.7971 C   0  0  0  0  0  0  0  0  0  0  0  0
    7.5033  -18.2702   21.3404 C   0  0  0  0  0  0  0  0  0  0  0  0
    7.2723  -18.3293   22.6852 C   0  0  0  0  0  0  0  0  0  0  0  0
    8.2976  -18.4661   23.5882 C   0  0  0  0  0  0  0  0  0  0  0  0
    8.5879  -18.5705   28.0217 C   0  0  0  0  0  0  0  0  0  0  0  0
    9.7618  -18.1842   28.2406 O   0  0  0  0  0  0  0  0  0  0  0  0
    8.2731  -19.7948   28.6463 O   0  0  0  0  0  0  0  0  0  0  0  0
  2  1  1  0
  3  2  1  0
  4  3  1  0
  4  5  1  0
  5  6  1  1
  5  1  1  0
  6  7  2  0
  8 12  1  0
  8  6  1  0
  9  8  1  0
 10 11  1  0
 10  9  1  0
 11 12  1  0
 12 13  1  1
 13 15  1  0
 13 14  2  0
 15 16  1  0
 16 27  1  0
 16 17  1  6
 18 17  1  0
 19 18  2  0
 20 21  1  0
 20 19  1  0
 21 26  2  0
 22 23  2  0
 22 21  1  0
 23 24  1  0
 24 25  2  0
 26 18  1  0
 26 25  1  0
 27 28  2  0
 27 29  1  0
M  END
$$$$
