PPW.pdb
     RDKit          3D

 29 32  0  0  1  0  0  0  0  0999 V2000
    6.8549  -18.8053   19.1640 N   0  0  0  0  0  0  0  0  0  0  0  0
    5.8898  -19.7911   19.6098 C   0  0  0  0  0  0  0  0  0  0  0  0
    5.6436  -19.5382   21.0662 C   0  0  0  0  0  0  0  0  0  0  0  0
    6.0880  -18.1193   21.2933 C   0  0  0  0  0  0  0  0  0  0  0  0
    6.6449  -17.6306   19.9736 C   0  0  1  0  0  0  0  0  0  0  0  0
    7.8930  -16.8310   20.1432 C   0  0  0  0  0  0  0  0  0  0  0  0
    8.9216  -17.2838   19.5689 O   0  0  0  0  0  0  0  0  0  0  0  0
    7.9428  -15.6449   20.8918 N   0  0  0  0  0  0  0  0  0  0  0  0
    6.9059  -15.1053   21.7213 C   0  0  0  0  0  0  0  0  0  0  0  0
    7.1823  -13.5974   21.7428 C   0  0  0  0  0  0  0  0  0  0  0  0
    8.3512  -13.4012   20.7695 C   0  0  0  0  0  0  0  0  0  0  0  0
    9.0625  -14.7489   20.9587 C   0  0  1  0  0  0  0  0  0  0  0  0
    9.6906  -14.7442   22.3070 C   0  0  0  0  0  0  0  0  0  0  0  0
   10.5756  -13.9008   22.6346 O   0  0  0  0  0  0  0  0  0  0  0  0
    9.3206  -15.6815   23.2714 N   0  0  0  0  0  0  0  0  0  0  0  0
    9.9889  -15.6965   24.6015 C   0  0  1  0  0  0  0  0  0  0  0  0
    9.0373  -16.1662   25.6319 C   0  0  0  0  0  0  0  0  0  0  0  0
    7.8302  -15.3699   25.7368 C   0  0  0  0  0  0  0  0  0  0  0  0
    6.5209  -15.7314   25.4303 C   0  0  0  0  0  0  0  0  0  0  0  0
    5.6895  -14.7066   25.6247 N   0  0  0  0  0  0  0  0  0  0  0  0
    6.3911  -13.6401   26.0607 C   0  0  0  0  0  0  0  0  0  0  0  0
    5.9865  -12.3621   26.4174 C   0  0  0  0  0  0  0  0  0  0  0  0
    6.8908  -11.4271   26.8646 C   0  0  0  0  0  0  0  0  0  0  0  0
    8.2028  -11.8301   26.9360 C   0  0  0  0  0  0  0  0  0  0  0  0
    8.6117  -13.0855   26.5866 C   0  0  0  0  0  0  0  0  0  0  0  0
    7.7263  -14.0339   26.1371 C   0  0  0  0  0  0  0  0  0  0  0  0
   11.1694  -16.5339   24.4596 C   0  0  0  0  0  0  0  0  0  0  0  0
   12.0770  -16.6205   25.3222 O   0  0  0  0  0  0  0  0  0  0  0  0
   11.3977  -17.3335   23.3209 O   0  0  0  0  0  0  0  0  0  0  0  0
  2  1  1  0
  3  2  1  0
  4  3  1  0
  4  5  1  0
  5  6  1  1
  5  1  1  0
  6  7  2  0
  8 12  1  0
  8  6  1  0
  9  8  1  0
 10 11  1  0
 10  9  1  0
 11 12  1  0
 12 13  1  1
 13 15  1  0
 13 14  2  0
 15 16  1  0
 16 27  1  0
 16 17  1  1
 18 17  1  0
 19 18  2  0
 20 21  1  0
 20 19  1  0
 21 26  2  0
 22 23  2  0
 22 21  1  0
 23 24  1  0
 24 25  2  0
 26 18  1  0
 26 25  1  0
 27 28  2  0
 27 29  1  0
M  END
$$$$
