PPW.pdb
     RDKit          3D

 29 32  0  0  1  0  0  0  0  0999 V2000
    7.2279  -14.5961   19.4882 N   0  0  0  0  0  0  0  0  0  0  0  0
    6.9485  -13.2540   19.0162 C   0  0  0  0  0  0  0  0  0  0  0  0
    7.2806  -12.3158   20.1367 C   0  0  0  0  0  0  0  0  0  0  0  0
    8.2034  -13.0947   21.0332 C   0  0  0  0  0  0  0  0  0  0  0  0
    8.3096  -14.4808   20.4349 C   0  0  1  0  0  0  0  0  0  0  0  0
    8.2695  -15.5532   21.4714 C   0  0  0  0  0  0  0  0  0  0  0  0
    7.1209  -15.9064   21.8570 O   0  0  0  0  0  0  0  0  0  0  0  0
    9.4266  -16.1467   21.9996 N   0  0  0  0  0  0  0  0  0  0  0  0
   10.7843  -15.8447   21.6540 C   0  0  0  0  0  0  0  0  0  0  0  0
   11.5520  -17.1347   21.9660 C   0  0  0  0  0  0  0  0  0  0  0  0
   10.4706  -18.1433   22.3729 C   0  0  0  0  0  0  0  0  0  0  0  0
    9.4518  -17.1787   22.9971 C   0  0  1  0  0  0  0  0  0  0  0  0
   10.0174  -16.6935   24.2844 C   0  0  0  0  0  0  0  0  0  0  0  0
   11.0758  -16.0016   24.3366 O   0  0  0  0  0  0  0  0  0  0  0  0
    9.3920  -16.9873   25.4960 N   0  0  0  0  0  0  0  0  0  0  0  0
   10.0617  -16.6656   26.7860 C   0  0  1  0  0  0  0  0  0  0  0  0
    9.1484  -15.8724   27.6373 C   0  0  0  0  0  0  0  0  0  0  0  0
    8.0300  -15.2843   26.9263 C   0  0  0  0  0  0  0  0  0  0  0  0
    7.0041  -15.9255   26.2369 C   0  0  0  0  0  0  0  0  0  0  0  0
    6.1798  -15.0360   25.6812 N   0  0  0  0  0  0  0  0  0  0  0  0
    6.6088  -13.7900   25.9695 C   0  0  0  0  0  0  0  0  0  0  0  0
    6.0910  -12.5454   25.6427 C   0  0  0  0  0  0  0  0  0  0  0  0
    6.6947  -11.3868   26.0736 C   0  0  0  0  0  0  0  0  0  0  0  0
    7.8273  -11.5349   26.8377 C   0  0  0  0  0  0  0  0  0  0  0  0
    8.3458  -12.7554   27.1644 C   0  0  0  0  0  0  0  0  0  0  0  0
    7.7599  -13.9241   26.7444 C   0  0  0  0  0  0  0  0  0  0  0  0
   10.4623  -17.9357   27.3699 C   0  0  0  0  0  0  0  0  0  0  0  0
   10.1046  -19.0552   26.9294 O   0  0  0  0  0  0  0  0  0  0  0  0
   11.3014  -18.0182   28.5000 O   0  0  0  0  0  0  0  0  0  0  0  0
  2  1  1  0
  3  2  1  0
  4  3  1  0
  4  5  1  0
  5  6  1  1
  5  1  1  0
  6  7  2  0
  8 12  1  0
  8  6  1  0
  9  8  1  0
 10 11  1  0
 10  9  1  0
 11 12  1  0
 12 13  1  1
 13 15  1  0
 13 14  2  0
 15 16  1  0
 16 27  1  0
 16 17  1  1
 18 17  1  0
 19 18  2  0
 20 21  1  0
 20 19  1  0
 21 26  2  0
 22 23  2  0
 22 21  1  0
 23 24  1  0
 24 25  2  0
 26 18  1  0
 26 25  1  0
 27 28  2  0
 27 29  1  0
M  END
$$$$
