AAW.pdb
     RDKit          3D

 25 26  0  0  1  0  0  0  0  0999 V2000
    7.8150  -19.1113   18.5933 C   0  0  0  0  0  0  0  0  0  0  0  0
    8.1820  -18.9185   20.0730 C   0  0  2  0  0  0  0  0  0  0  0  0
    7.0177  -19.2210   20.8681 N   0  0  0  0  0  0  0  0  0  0  0  0
    8.5393  -17.4847   20.3009 C   0  0  0  0  0  0  0  0  0  0  0  0
    9.6283  -16.9989   19.8462 O   0  0  0  0  0  0  0  0  0  0  0  0
    6.7619  -14.3256   21.2561 C   0  0  0  0  0  0  0  0  0  0  0  0
    8.0067  -15.1783   21.1827 C   0  0  2  0  0  0  0  0  0  0  0  0
    7.7162  -16.5774   21.0221 N   0  0  0  0  0  0  0  0  0  0  0  0
    8.8242  -14.8794   22.3624 C   0  0  0  0  0  0  0  0  0  0  0  0
    9.2498  -13.7235   22.5490 O   0  0  0  0  0  0  0  0  0  0  0  0
    9.1251  -15.8998   23.2795 N   0  0  0  0  0  0  0  0  0  0  0  0
   10.0098  -15.7190   24.4393 C   0  0  1  0  0  0  0  0  0  0  0  0
    9.1813  -16.0328   25.6249 C   0  0  0  0  0  0  0  0  0  0  0  0
    7.9242  -15.3260   25.8060 C   0  0  0  0  0  0  0  0  0  0  0  0
    6.6201  -15.7857   25.6594 C   0  0  0  0  0  0  0  0  0  0  0  0
    5.7718  -14.7762   25.8998 N   0  0  0  0  0  0  0  0  0  0  0  0
    6.4461  -13.6685   26.1995 C   0  0  0  0  0  0  0  0  0  0  0  0
    6.0933  -12.3700   26.5380 C   0  0  0  0  0  0  0  0  0  0  0  0
    7.0211  -11.3916   26.8236 C   0  0  0  0  0  0  0  0  0  0  0  0
    8.3555  -11.7101   26.7726 C   0  0  0  0  0  0  0  0  0  0  0  0
    8.7013  -12.9825   26.4403 C   0  0  0  0  0  0  0  0  0  0  0  0
    7.7869  -14.0000   26.1438 C   0  0  0  0  0  0  0  0  0  0  0  0
   11.2137  -16.5134   24.2115 C   0  0  0  0  0  0  0  0  0  0  0  0
   12.2754  -16.4295   25.0919 O   0  0  0  0  0  0  0  0  0  0  0  0
   11.3060  -17.2727   23.2249 O   0  0  0  0  0  0  0  0  0  0  0  0
  2  1  1  6
  2  3  1  0
  4  8  1  0
  4  2  1  0
  5  4  2  0
  7  9  1  0
  7  6  1  1
  7  8  1  0
  9 11  1  0
 10  9  2  0
 11 12  1  0
 12 13  1  1
 13 14  1  0
 14 15  2  0
 16 15  1  0
 17 16  1  0
 18 17  2  0
 19 18  1  0
 20 21  1  0
 20 19  2  0
 21 22  2  0
 22 14  1  0
 22 17  1  0
 23 24  1  0
 23 12  1  0
 25 23  2  0
M  END
$$$$
