AAW.pdb
     RDKit          3D

 25 26  0  0  1  0  0  0  0  0999 V2000
    7.2986  -19.9469   22.1730 C   0  0  0  0  0  0  0  0  0  0  0  0
    6.9429  -19.2002   20.8778 C   0  0  2  0  0  0  0  0  0  0  0  0
    7.4042  -19.9896   19.7627 N   0  0  0  0  0  0  0  0  0  0  0  0
    7.6716  -17.8951   20.8550 C   0  0  0  0  0  0  0  0  0  0  0  0
    8.8730  -17.8210   20.4306 O   0  0  0  0  0  0  0  0  0  0  0  0
    6.7698  -14.2389   21.1594 C   0  0  0  0  0  0  0  0  0  0  0  0
    7.7465  -15.3912   21.1807 C   0  0  2  0  0  0  0  0  0  0  0  0
    7.0985  -16.6700   21.2927 N   0  0  0  0  0  0  0  0  0  0  0  0
    8.7220  -15.1316   22.2438 C   0  0  0  0  0  0  0  0  0  0  0  0
    9.4632  -14.1323   22.1789 O   0  0  0  0  0  0  0  0  0  0  0  0
    8.8174  -16.0126   23.3336 N   0  0  0  0  0  0  0  0  0  0  0  0
    9.7924  -15.8595   24.4229 C   0  0  1  0  0  0  0  0  0  0  0  0
    9.0196  -16.0225   25.6746 C   0  0  0  0  0  0  0  0  0  0  0  0
    7.7858  -15.2715   25.8371 C   0  0  0  0  0  0  0  0  0  0  0  0
    6.4674  -15.7091   25.7750 C   0  0  0  0  0  0  0  0  0  0  0  0
    5.6508  -14.6619   25.9565 N   0  0  0  0  0  0  0  0  0  0  0  0
    6.3598  -13.5500   26.1369 C   0  0  0  0  0  0  0  0  0  0  0  0
    6.0482  -12.2190   26.3745 C   0  0  0  0  0  0  0  0  0  0  0  0
    7.0071  -11.2435   26.5433 C   0  0  0  0  0  0  0  0  0  0  0  0
    8.3314  -11.5985   26.4744 C   0  0  0  0  0  0  0  0  0  0  0  0
    8.6368  -12.9029   26.2411 C   0  0  0  0  0  0  0  0  0  0  0  0
    7.6901  -13.9185   26.0643 C   0  0  0  0  0  0  0  0  0  0  0  0
   10.8945  -16.7833   24.1696 C   0  0  0  0  0  0  0  0  0  0  0  0
   10.7991  -17.7121   23.1509 O   0  0  0  0  0  0  0  0  0  0  0  0
   11.9314  -16.7534   24.8642 O   0  0  0  0  0  0  0  0  0  0  0  0
  2  1  1  1
  2  3  1  0
  4  8  1  0
  4  2  1  0
  5  4  2  0
  7  9  1  0
  7  6  1  1
  7  8  1  0
  9 11  1  0
 10  9  2  0
 11 12  1  0
 12 13  1  1
 13 14  1  0
 14 15  2  0
 16 15  1  0
 17 16  1  0
 18 17  2  0
 19 18  1  0
 20 21  1  0
 20 19  2  0
 21 22  2  0
 22 14  1  0
 22 17  1  0
 23 24  1  0
 23 12  1  0
 25 23  2  0
M  END
$$$$
