AAW.pdb
     RDKit          3D

 25 26  0  0  1  0  0  0  0  0999 V2000
    8.2805  -19.7074   19.6641 C   0  0  0  0  0  0  0  0  0  0  0  0
    8.0608  -18.3710   18.9379 C   0  0  2  0  0  0  0  0  0  0  0  0
    8.8851  -18.3615   17.7547 N   0  0  0  0  0  0  0  0  0  0  0  0
    8.5125  -17.2567   19.8265 C   0  0  0  0  0  0  0  0  0  0  0  0
    9.7519  -17.0696   20.0670 O   0  0  0  0  0  0  0  0  0  0  0  0
    6.9164  -14.3244   21.6617 C   0  0  0  0  0  0  0  0  0  0  0  0
    8.0384  -15.2774   21.3227 C   0  0  2  0  0  0  0  0  0  0  0  0
    7.6208  -16.3452   20.4548 N   0  0  0  0  0  0  0  0  0  0  0  0
    8.6281  -15.7407   22.5825 C   0  0  0  0  0  0  0  0  0  0  0  0
    8.4300  -16.9076   22.9713 O   0  0  0  0  0  0  0  0  0  0  0  0
    9.4158  -14.8650   23.3477 N   0  0  0  0  0  0  0  0  0  0  0  0
   10.0342  -15.2334   24.6294 C   0  0  1  0  0  0  0  0  0  0  0  0
    8.9741  -15.9210   25.3999 C   0  0  0  0  0  0  0  0  0  0  0  0
    7.7504  -15.1979   25.7039 C   0  0  0  0  0  0  0  0  0  0  0  0
    6.4284  -15.6226   25.6290 C   0  0  0  0  0  0  0  0  0  0  0  0
    5.6238  -14.6088   25.9774 N   0  0  0  0  0  0  0  0  0  0  0  0
    6.3443  -13.5315   26.2808 C   0  0  0  0  0  0  0  0  0  0  0  0
    6.0478  -12.2443   26.7054 C   0  0  0  0  0  0  0  0  0  0  0  0
    7.0168  -11.3008   26.9705 C   0  0  0  0  0  0  0  0  0  0  0  0
    8.3361  -11.6440   26.8092 C   0  0  0  0  0  0  0  0  0  0  0  0
    8.6267  -12.9054   26.3926 C   0  0  0  0  0  0  0  0  0  0  0  0
    7.6694  -13.8877   26.1138 C   0  0  0  0  0  0  0  0  0  0  0  0
   11.2610  -15.9700   24.3385 C   0  0  0  0  0  0  0  0  0  0  0  0
   12.0687  -16.4052   25.3718 O   0  0  0  0  0  0  0  0  0  0  0  0
   11.6008  -16.2145   23.1624 O   0  0  0  0  0  0  0  0  0  0  0  0
  2  1  1  1
  2  3  1  0
  4  8  1  0
  4  2  1  0
  5  4  2  0
  7  9  1  0
  7  6  1  1
  7  8  1  0
  9 11  1  0
 10  9  2  0
 11 12  1  0
 12 13  1  1
 13 14  1  0
 14 15  2  0
 16 15  1  0
 17 16  1  0
 18 17  2  0
 19 18  1  0
 20 21  1  0
 20 19  2  0
 21 22  2  0
 22 14  1  0
 22 17  1  0
 23 24  1  0
 23 12  1  0
 25 23  2  0
M  END
$$$$
