AAW.pdb
     RDKit          3D

 25 26  0  0  1  0  0  0  0  0999 V2000
    7.1296  -19.3249   19.0357 C   0  0  0  0  0  0  0  0  0  0  0  0
    7.7132  -19.0910   20.4379 C   0  0  2  0  0  0  0  0  0  0  0  0
    6.6498  -19.2474   21.3992 N   0  0  0  0  0  0  0  0  0  0  0  0
    8.2147  -17.6853   20.5259 C   0  0  0  0  0  0  0  0  0  0  0  0
    9.2912  -17.3340   19.9371 O   0  0  0  0  0  0  0  0  0  0  0  0
    6.8128  -14.3188   21.3530 C   0  0  0  0  0  0  0  0  0  0  0  0
    7.9709  -15.2856   21.2762 C   0  0  2  0  0  0  0  0  0  0  0  0
    7.5497  -16.6603   21.2525 N   0  0  0  0  0  0  0  0  0  0  0  0
    8.8900  -14.9714   22.3743 C   0  0  0  0  0  0  0  0  0  0  0  0
    9.4382  -13.8540   22.4276 O   0  0  0  0  0  0  0  0  0  0  0  0
    9.1494  -15.9336   23.3640 N   0  0  0  0  0  0  0  0  0  0  0  0
   10.0400  -15.7044   24.5107 C   0  0  1  0  0  0  0  0  0  0  0  0
    9.2309  -16.0127   25.7111 C   0  0  0  0  0  0  0  0  0  0  0  0
    7.9160  -15.4073   25.8420 C   0  0  0  0  0  0  0  0  0  0  0  0
    6.6581  -15.9761   25.6757 C   0  0  0  0  0  0  0  0  0  0  0  0
    5.7242  -15.0341   25.8678 N   0  0  0  0  0  0  0  0  0  0  0  0
    6.2977  -13.8677   26.1542 C   0  0  0  0  0  0  0  0  0  0  0  0
    5.8313  -12.5946   26.4489 C   0  0  0  0  0  0  0  0  0  0  0  0
    6.6682  -11.5365   26.7310 C   0  0  0  0  0  0  0  0  0  0  0  0
    8.0249  -11.7454   26.7215 C   0  0  0  0  0  0  0  0  0  0  0  0
    8.4821  -12.9930   26.4322 C   0  0  0  0  0  0  0  0  0  0  0  0
    7.6621  -14.0891   26.1406 C   0  0  0  0  0  0  0  0  0  0  0  0
   11.2617  -16.4728   24.2886 C   0  0  0  0  0  0  0  0  0  0  0  0
   12.3556  -16.2873   25.1122 O   0  0  0  0  0  0  0  0  0  0  0  0
   11.3404  -17.3007   23.3575 O   0  0  0  0  0  0  0  0  0  0  0  0
  2  1  1  6
  2  3  1  0
  4  8  1  0
  4  2  1  0
  5  4  2  0
  7  9  1  0
  7  6  1  1
  7  8  1  0
  9 11  1  0
 10  9  2  0
 11 12  1  0
 12 13  1  1
 13 14  1  0
 14 15  2  0
 16 15  1  0
 17 16  1  0
 18 17  2  0
 19 18  1  0
 20 21  1  0
 20 19  2  0
 21 22  2  0
 22 14  1  0
 22 17  1  0
 23 24  1  0
 23 12  1  0
 25 23  2  0
M  END
$$$$
