AAW.pdb
     RDKit          3D

 25 26  0  0  1  0  0  0  0  0999 V2000
    6.8208  -19.0390   19.0630 C   0  0  0  0  0  0  0  0  0  0  0  0
    7.4256  -18.8849   20.4673 C   0  0  2  0  0  0  0  0  0  0  0  0
    6.3525  -18.9492   21.4284 N   0  0  0  0  0  0  0  0  0  0  0  0
    8.0641  -17.5373   20.5747 C   0  0  0  0  0  0  0  0  0  0  0  0
    9.1470  -17.2722   19.9534 O   0  0  0  0  0  0  0  0  0  0  0  0
    7.0064  -14.0890   21.6013 C   0  0  0  0  0  0  0  0  0  0  0  0
    8.0657  -15.1431   21.3802 C   0  0  2  0  0  0  0  0  0  0  0  0
    7.5292  -16.4771   21.3561 N   0  0  0  0  0  0  0  0  0  0  0  0
    9.1096  -14.9477   22.3908 C   0  0  0  0  0  0  0  0  0  0  0  0
    9.8191  -13.9240   22.3638 O   0  0  0  0  0  0  0  0  0  0  0  0
    9.3061  -15.9176   23.3875 N   0  0  0  0  0  0  0  0  0  0  0  0
   10.4190  -15.8867   24.3473 C   0  0  1  0  0  0  0  0  0  0  0  0
    9.8840  -15.2208   25.5559 C   0  0  0  0  0  0  0  0  0  0  0  0
    8.4445  -15.0761   25.6948 C   0  0  0  0  0  0  0  0  0  0  0  0
    7.4435  -16.0359   25.5924 C   0  0  0  0  0  0  0  0  0  0  0  0
    6.2529  -15.4452   25.7651 N   0  0  0  0  0  0  0  0  0  0  0  0
    6.4117  -14.1410   25.9779 C   0  0  0  0  0  0  0  0  0  0  0  0
    5.5539  -13.0784   26.2237 C   0  0  0  0  0  0  0  0  0  0  0  0
    5.9970  -11.7898   26.4299 C   0  0  0  0  0  0  0  0  0  0  0  0
    7.3464  -11.5401   26.3918 C   0  0  0  0  0  0  0  0  0  0  0  0
    8.1871  -12.5814   26.1505 C   0  0  0  0  0  0  0  0  0  0  0  0
    7.7723  -13.9008   25.9362 C   0  0  0  0  0  0  0  0  0  0  0  0
   10.9316  -17.2474   24.4814 C   0  0  0  0  0  0  0  0  0  0  0  0
   12.1338  -17.4741   25.1239 O   0  0  0  0  0  0  0  0  0  0  0  0
   10.3009  -18.2207   24.0195 O   0  0  0  0  0  0  0  0  0  0  0  0
  2  1  1  6
  2  3  1  0
  4  8  1  0
  4  2  1  0
  5  4  2  0
  7  9  1  0
  7  6  1  1
  7  8  1  0
  9 11  1  0
 10  9  2  0
 11 12  1  0
 12 13  1  1
 13 14  1  0
 14 15  2  0
 16 15  1  0
 17 16  1  0
 18 17  2  0
 19 18  1  0
 20 21  1  0
 20 19  2  0
 21 22  2  0
 22 14  1  0
 22 17  1  0
 23 24  1  0
 23 12  1  0
 25 23  2  0
M  END
$$$$
