AAW.pdb
     RDKit          3D

 25 26  0  0  1  0  0  0  0  0999 V2000
    7.9287  -19.8157   22.2464 C   0  0  0  0  0  0  0  0  0  0  0  0
    7.4216  -19.1264   20.9700 C   0  0  2  0  0  0  0  0  0  0  0  0
    7.9296  -19.8546   19.8337 N   0  0  0  0  0  0  0  0  0  0  0  0
    7.9748  -17.7385   20.9162 C   0  0  0  0  0  0  0  0  0  0  0  0
    9.1606  -17.5198   20.4979 O   0  0  0  0  0  0  0  0  0  0  0  0
    6.7041  -14.1922   21.2222 C   0  0  0  0  0  0  0  0  0  0  0  0
    7.7765  -15.2521   21.3156 C   0  0  2  0  0  0  0  0  0  0  0  0
    7.2429  -16.5874   21.3164 N   0  0  0  0  0  0  0  0  0  0  0  0
    8.6043  -14.9493   22.4870 C   0  0  0  0  0  0  0  0  0  0  0  0
    8.8406  -13.7652   22.7937 O   0  0  0  0  0  0  0  0  0  0  0  0
    9.1291  -15.9979   23.2603 N   0  0  0  0  0  0  0  0  0  0  0  0
    9.9065  -15.7935   24.4910 C   0  0  1  0  0  0  0  0  0  0  0  0
    9.0080  -16.1870   25.5994 C   0  0  0  0  0  0  0  0  0  0  0  0
    7.7953  -15.4176   25.8227 C   0  0  0  0  0  0  0  0  0  0  0  0
    6.4653  -15.8087   25.7146 C   0  0  0  0  0  0  0  0  0  0  0  0
    5.6779  -14.7585   25.9859 N   0  0  0  0  0  0  0  0  0  0  0  0
    6.4175  -13.6889   26.2697 C   0  0  0  0  0  0  0  0  0  0  0  0
    6.1427  -12.3761   26.6252 C   0  0  0  0  0  0  0  0  0  0  0  0
    7.1280  -11.4485   26.8864 C   0  0  0  0  0  0  0  0  0  0  0  0
    8.4420  -11.8348   26.7925 C   0  0  0  0  0  0  0  0  0  0  0  0
    8.7113  -13.1213   26.4437 C   0  0  0  0  0  0  0  0  0  0  0  0
    7.7370  -14.0885   26.1709 C   0  0  0  0  0  0  0  0  0  0  0  0
   11.1717  -16.5076   24.3444 C   0  0  0  0  0  0  0  0  0  0  0  0
   11.3899  -17.3100   23.2407 O   0  0  0  0  0  0  0  0  0  0  0  0
   12.0691  -16.4098   25.2067 O   0  0  0  0  0  0  0  0  0  0  0  0
  2  1  1  1
  2  3  1  0
  4  8  1  0
  4  2  1  0
  5  4  2  0
  7  9  1  0
  7  6  1  1
  7  8  1  0
  9 11  1  0
 10  9  2  0
 11 12  1  0
 12 13  1  1
 13 14  1  0
 14 15  2  0
 16 15  1  0
 17 16  1  0
 18 17  2  0
 19 18  1  0
 20 21  1  0
 20 19  2  0
 21 22  2  0
 22 14  1  0
 22 17  1  0
 23 24  1  0
 23 12  1  0
 25 23  2  0
M  END
$$$$
