AAW.pdb
     RDKit          3D

 25 26  0  0  1  0  0  0  0  0999 V2000
    6.5427  -19.4364   22.8995 C   0  0  0  0  0  0  0  0  0  0  0  0
    6.2438  -18.9206   21.4831 C   0  0  2  0  0  0  0  0  0  0  0  0
    6.4148  -20.0156   20.5605 N   0  0  0  0  0  0  0  0  0  0  0  0
    7.2381  -17.8603   21.1336 C   0  0  0  0  0  0  0  0  0  0  0  0
    8.4005  -18.1658   20.7042 O   0  0  0  0  0  0  0  0  0  0  0  0
    7.2894  -14.0895   20.7247 C   0  0  0  0  0  0  0  0  0  0  0  0
    7.9309  -15.4376   20.9547 C   0  0  2  0  0  0  0  0  0  0  0  0
    6.9727  -16.4686   21.2498 N   0  0  0  0  0  0  0  0  0  0  0  0
    8.9563  -15.2747   21.9898 C   0  0  0  0  0  0  0  0  0  0  0  0
    9.9105  -14.4955   21.8043 O   0  0  0  0  0  0  0  0  0  0  0  0
    8.8586  -15.9995   23.1889 N   0  0  0  0  0  0  0  0  0  0  0  0
    9.8617  -15.9399   24.2618 C   0  0  1  0  0  0  0  0  0  0  0  0
    9.5260  -14.7358   25.0542 C   0  0  0  0  0  0  0  0  0  0  0  0
    8.1645  -14.5737   25.5364 C   0  0  0  0  0  0  0  0  0  0  0  0
    7.1381  -15.5078   25.6233 C   0  0  0  0  0  0  0  0  0  0  0  0
    6.0402  -14.9068   26.1029 N   0  0  0  0  0  0  0  0  0  0  0  0
    6.2851  -13.6201   26.3398 C   0  0  0  0  0  0  0  0  0  0  0  0
    5.5424  -12.5584   26.8361 C   0  0  0  0  0  0  0  0  0  0  0  0
    6.0614  -11.2920   26.9987 C   0  0  0  0  0  0  0  0  0  0  0  0
    7.3712  -11.0648   26.6561 C   0  0  0  0  0  0  0  0  0  0  0  0
    8.0989  -12.1052   26.1693 C   0  0  0  0  0  0  0  0  0  0  0  0
    7.6046  -13.4024   25.9905 C   0  0  0  0  0  0  0  0  0  0  0  0
    9.8660  -17.2320   24.9420 C   0  0  0  0  0  0  0  0  0  0  0  0
   10.9140  -17.5718   25.7762 O   0  0  0  0  0  0  0  0  0  0  0  0
    8.9337  -18.0466   24.7812 O   0  0  0  0  0  0  0  0  0  0  0  0
  2  1  1  1
  2  3  1  0
  4  8  1  0
  4  2  1  0
  5  4  2  0
  7  9  1  0
  7  6  1  1
  7  8  1  0
  9 11  1  0
 10  9  2  0
 11 12  1  0
 12 13  1  1
 13 14  1  0
 14 15  2  0
 16 15  1  0
 17 16  1  0
 18 17  2  0
 19 18  1  0
 20 21  1  0
 20 19  2  0
 21 22  2  0
 22 14  1  0
 22 17  1  0
 23 24  1  0
 23 12  1  0
 25 23  2  0
M  END
$$$$
