KCN.pdb
     RDKit          3D

 24 23  0  0  1  0  0  0  0  0999 V2000
   17.3752  -12.8363  -14.3797 N   0  0  0  0  0  0  0  0  0  0  0  0
   17.3716  -11.7540  -15.3942 C   0  0  1  0  0  0  0  0  0  0  0  0
   15.9540  -11.7726  -15.9221 C   0  0  0  0  0  0  0  0  0  0  0  0
   15.5015  -13.0708  -16.4859 C   0  0  0  0  0  0  0  0  0  0  0  0
   16.1453  -13.3031  -17.8479 C   0  0  0  0  0  0  0  0  0  0  0  0
   15.6493  -14.5598  -18.5154 C   0  0  0  0  0  0  0  0  0  0  0  0
   16.3928  -14.6553  -19.7833 N   0  0  0  0  0  0  0  0  0  0  0  0
   17.7345  -10.5141  -14.6807 C   0  0  0  0  0  0  0  0  0  0  0  0
   17.1842  -10.2500  -13.5572 O   0  0  0  0  0  0  0  0  0  0  0  0
   18.6651   -9.5404  -15.1154 N   0  0  0  0  0  0  0  0  0  0  0  0
   18.8927   -8.2943  -14.4061 C   0  0  1  0  0  0  0  0  0  0  0  0
   20.3653   -8.3008  -14.0145 C   0  0  0  0  0  0  0  0  0  0  0  0
   21.3090   -9.4210  -15.0831 S   0  0  0  0  0  0  0  0  0  0  0  0
   18.6132   -7.1127  -15.2295 C   0  0  0  0  0  0  0  0  0  0  0  0
   18.8332   -7.1154  -16.4739 O   0  0  0  0  0  0  0  0  0  0  0  0
   15.0861   -2.1447  -15.7514 N   0  0  0  0  0  0  0  0  0  0  0  0
   16.3862   -2.6553  -15.5363 C   0  0  0  0  0  0  0  0  0  0  0  0
   17.3238   -1.9636  -16.0741 O   0  0  0  0  0  0  0  0  0  0  0  0
   16.7446   -3.8625  -14.7795 C   0  0  0  0  0  0  0  0  0  0  0  0
   17.7846   -4.7406  -15.4175 C   0  0  2  0  0  0  0  0  0  0  0  0
   18.0851   -5.9363  -14.6301 N   0  0  0  0  0  0  0  0  0  0  0  0
   19.0351   -3.9638  -15.5721 C   0  0  0  0  0  0  0  0  0  0  0  0
   19.8271   -3.8007  -14.5992 O   0  0  0  0  0  0  0  0  0  0  0  0
   19.3378   -3.4022  -16.8261 O   0  0  0  0  0  0  0  0  0  0  0  0
  2  1  1  1
  3  2  1  0
  4  3  1  0
  5  4  1  0
  6  5  1  0
  7  6  1  0
  8  2  1  0
  8  9  2  0
 10  8  1  0
 11 10  1  0
 11 12  1  6
 13 12  1  0
 14 11  1  0
 15 14  2  0
 16 17  1  0
 17 19  1  0
 17 18  2  0
 20 19  1  1
 20 22  1  0
 20 21  1  0
 21 14  1  0
 22 24  1  0
 23 22  2  0
M  END
$$$$
