KCN.pdb
     RDKit          3D

 24 23  0  0  1  0  0  0  0  0999 V2000
   23.7413  -13.6474  -18.6187 N   0  0  0  0  0  0  0  0  0  0  0  0
   22.2753  -13.4516  -18.7334 C   0  0  1  0  0  0  0  0  0  0  0  0
   21.7150  -14.8313  -18.4670 C   0  0  0  0  0  0  0  0  0  0  0  0
   22.3031  -15.9256  -19.2823 C   0  0  0  0  0  0  0  0  0  0  0  0
   21.7490  -17.2716  -18.8298 C   0  0  0  0  0  0  0  0  0  0  0  0
   22.3512  -18.4283  -19.5847 C   0  0  0  0  0  0  0  0  0  0  0  0
   21.6852  -19.6333  -19.0611 N   0  0  0  0  0  0  0  0  0  0  0  0
   21.9096  -12.4445  -17.7184 C   0  0  0  0  0  0  0  0  0  0  0  0
   20.6775  -12.1605  -17.5285 O   0  0  0  0  0  0  0  0  0  0  0  0
   22.8059  -11.7256  -16.8920 N   0  0  0  0  0  0  0  0  0  0  0  0
   22.3626  -10.8190  -15.8483 C   0  0  1  0  0  0  0  0  0  0  0  0
   23.4138  -10.9038  -14.7486 C   0  0  0  0  0  0  0  0  0  0  0  0
   22.9350  -12.1232  -13.4951 S   0  0  0  0  0  0  0  0  0  0  0  0
   22.2526   -9.4310  -16.3106 C   0  0  0  0  0  0  0  0  0  0  0  0
   23.1434   -8.9121  -17.0414 O   0  0  0  0  0  0  0  0  0  0  0  0
   19.4697   -4.9696  -18.5401 N   0  0  0  0  0  0  0  0  0  0  0  0
   19.3719   -5.5359  -17.2489 C   0  0  0  0  0  0  0  0  0  0  0  0
   19.0431   -4.7047  -16.3283 O   0  0  0  0  0  0  0  0  0  0  0  0
   19.6046   -6.9395  -16.8826 C   0  0  0  0  0  0  0  0  0  0  0  0
   20.9838   -7.2550  -16.3745 C   0  0  2  0  0  0  0  0  0  0  0  0
   21.1287   -8.6436  -15.9376 N   0  0  0  0  0  0  0  0  0  0  0  0
   21.2802   -6.3753  -15.2215 C   0  0  0  0  0  0  0  0  0  0  0  0
   21.1265   -6.7818  -14.0334 O   0  0  0  0  0  0  0  0  0  0  0  0
   21.7398   -5.0675  -15.4626 O   0  0  0  0  0  0  0  0  0  0  0  0
  2  1  1  1
  3  2  1  0
  4  3  1  0
  5  4  1  0
  6  5  1  0
  7  6  1  0
  8  2  1  0
  8  9  2  0
 10  8  1  0
 11 10  1  0
 11 12  1  1
 13 12  1  0
 14 11  1  0
 15 14  2  0
 16 17  1  0
 17 19  1  0
 17 18  2  0
 20 19  1  1
 20 22  1  0
 20 21  1  0
 21 14  1  0
 22 24  1  0
 23 22  2  0
M  END
$$$$
