KCN.pdb
     RDKit          3D

 24 23  0  0  1  0  0  0  0  0999 V2000
   28.1441  -22.0122  -16.2034 N   0  0  0  0  0  0  0  0  0  0  0  0
   28.0686  -20.9494  -15.1713 C   0  0  1  0  0  0  0  0  0  0  0  0
   27.8165  -19.6944  -15.9776 C   0  0  0  0  0  0  0  0  0  0  0  0
   27.8406  -19.8699  -17.4529 C   0  0  0  0  0  0  0  0  0  0  0  0
   26.4643  -19.5749  -18.0378 C   0  0  0  0  0  0  0  0  0  0  0  0
   26.4587  -19.5997  -19.5445 C   0  0  0  0  0  0  0  0  0  0  0  0
   25.0666  -19.3261  -19.9405 N   0  0  0  0  0  0  0  0  0  0  0  0
   26.9601  -21.3220  -14.2710 C   0  0  0  0  0  0  0  0  0  0  0  0
   25.9727  -21.9913  -14.7315 O   0  0  0  0  0  0  0  0  0  0  0  0
   26.8602  -21.0117  -12.8938 N   0  0  0  0  0  0  0  0  0  0  0  0
   25.6832  -21.3151  -12.0998 C   0  0  1  0  0  0  0  0  0  0  0  0
   26.0343  -20.9263  -10.6689 C   0  0  0  0  0  0  0  0  0  0  0  0
   24.6235  -21.2017   -9.5640 S   0  0  0  0  0  0  0  0  0  0  0  0
   24.4983  -20.5653  -12.5312 C   0  0  0  0  0  0  0  0  0  0  0  0
   24.4664  -19.3033  -12.4754 O   0  0  0  0  0  0  0  0  0  0  0  0
   23.2996  -21.2982  -16.8392 N   0  0  0  0  0  0  0  0  0  0  0  0
   22.7262  -20.4517  -15.8634 C   0  0  0  0  0  0  0  0  0  0  0  0
   23.1371  -19.2369  -15.9071 O   0  0  0  0  0  0  0  0  0  0  0  0
   21.7383  -20.8266  -14.8426 C   0  0  0  0  0  0  0  0  0  0  0  0
   22.1410  -20.5504  -13.4209 C   0  0  2  0  0  0  0  0  0  0  0  0
   23.3580  -21.2580  -13.0232 N   0  0  0  0  0  0  0  0  0  0  0  0
   21.0446  -20.9778  -12.5229 C   0  0  0  0  0  0  0  0  0  0  0  0
   21.2203  -21.8929  -11.6674 O   0  0  0  0  0  0  0  0  0  0  0  0
   19.7906  -20.3489  -12.6315 O   0  0  0  0  0  0  0  0  0  0  0  0
  2  1  1  6
  3  2  1  0
  4  3  1  0
  5  4  1  0
  6  5  1  0
  7  6  1  0
  8  2  1  0
  8  9  2  0
 10  8  1  0
 11 10  1  0
 11 12  1  1
 13 12  1  0
 14 11  1  0
 15 14  2  0
 16 17  1  0
 17 19  1  0
 17 18  2  0
 20 19  1  6
 20 22  1  0
 20 21  1  0
 21 14  1  0
 22 24  1  0
 23 22  2  0
M  END
$$$$
