KCN.pdb
     RDKit          3D

 24 23  0  0  1  0  0  0  0  0999 V2000
   21.9512  -20.6188   -9.3692 N   0  0  0  0  0  0  0  0  0  0  0  0
   21.9606  -20.6995  -10.8504 C   0  0  1  0  0  0  0  0  0  0  0  0
   20.9227  -19.6796  -11.2641 C   0  0  0  0  0  0  0  0  0  0  0  0
   20.0786  -20.0649  -12.4246 C   0  0  0  0  0  0  0  0  0  0  0  0
   19.6039  -21.5053  -12.2717 C   0  0  0  0  0  0  0  0  0  0  0  0
   18.7105  -21.9432  -13.4033 C   0  0  0  0  0  0  0  0  0  0  0  0
   18.3721  -23.3485  -13.1205 N   0  0  0  0  0  0  0  0  0  0  0  0
   23.3348  -20.3702  -11.2761 C   0  0  0  0  0  0  0  0  0  0  0  0
   23.9285  -19.3612  -10.7620 O   0  0  0  0  0  0  0  0  0  0  0  0
   24.1071  -21.0754  -12.2297 N   0  0  0  0  0  0  0  0  0  0  0  0
   25.4462  -20.6694  -12.6166 C   0  0  1  0  0  0  0  0  0  0  0  0
   26.2438  -21.9584  -12.7719 C   0  0  0  0  0  0  0  0  0  0  0  0
   26.8892  -22.5112  -11.1703 S   0  0  0  0  0  0  0  0  0  0  0  0
   25.4713  -19.9260  -13.8812 C   0  0  0  0  0  0  0  0  0  0  0  0
   24.5928  -20.1160  -14.7694 O   0  0  0  0  0  0  0  0  0  0  0  0
   27.8810  -15.0427  -16.7609 N   0  0  0  0  0  0  0  0  0  0  0  0
   27.8175  -16.4501  -16.6494 C   0  0  0  0  0  0  0  0  0  0  0  0
   27.8754  -17.0744  -17.7690 O   0  0  0  0  0  0  0  0  0  0  0  0
   27.6960  -17.2311  -15.4109 C   0  0  0  0  0  0  0  0  0  0  0  0
   26.5722  -18.2292  -15.3837 C   0  0  2  0  0  0  0  0  0  0  0  0
   26.4966  -18.9714  -14.1253 N   0  0  0  0  0  0  0  0  0  0  0  0
   26.7714  -19.2019  -16.4816 C   0  0  0  0  0  0  0  0  0  0  0  0
   27.6972  -20.0625  -16.4316 O   0  0  0  0  0  0  0  0  0  0  0  0
   25.9110  -19.1593  -17.5941 O   0  0  0  0  0  0  0  0  0  0  0  0
  2  1  1  1
  3  2  1  0
  4  3  1  0
  5  4  1  0
  6  5  1  0
  7  6  1  0
  8  2  1  0
  8  9  2  0
 10  8  1  0
 11 10  1  0
 11 12  1  6
 13 12  1  0
 14 11  1  0
 15 14  2  0
 16 17  1  0
 17 19  1  0
 17 18  2  0
 20 19  1  1
 20 22  1  0
 20 21  1  0
 21 14  1  0
 22 24  1  0
 23 22  2  0
M  END
$$$$
