YHC.pdb
     RDKit          3D

 29 30  0  0  1  0  0  0  0  0999 V2000
    4.6558  -24.4191   17.6036 O   0  0  0  0  0  0  0  0  0  0  0  0
    5.5321  -23.4091   18.0307 C   0  0  0  0  0  0  0  0  0  0  0  0
    6.8377  -23.7062   18.3284 C   0  0  0  0  0  0  0  0  0  0  0  0
    7.6937  -22.7190   18.7457 C   0  0  0  0  0  0  0  0  0  0  0  0
    7.3033  -21.3990   18.8879 C   0  0  0  0  0  0  0  0  0  0  0  0
    8.2623  -20.3559   19.3436 C   0  0  0  0  0  0  0  0  0  0  0  0
    8.3392  -19.3233   18.2532 C   0  0  2  0  0  0  0  0  0  0  0  0
    8.9608  -19.9363   17.1086 N   0  0  0  0  0  0  0  0  0  0  0  0
    9.0430  -18.1041   18.6217 C   0  0  0  0  0  0  0  0  0  0  0  0
   10.2985  -18.1121   18.6161 O   0  0  0  0  0  0  0  0  0  0  0  0
    5.9874  -21.1126   18.5854 C   0  0  0  0  0  0  0  0  0  0  0  0
    5.1088  -22.1035   18.1613 C   0  0  0  0  0  0  0  0  0  0  0  0
    8.4212  -16.8818   18.9945 N   0  0  0  0  0  0  0  0  0  0  0  0
    9.0926  -15.7040   19.4224 C   0  0  1  0  0  0  0  0  0  0  0  0
    8.3804  -14.4230   19.1088 C   0  0  0  0  0  0  0  0  0  0  0  0
    8.3084  -14.1380   17.6599 C   0  0  0  0  0  0  0  0  0  0  0  0
    9.0100  -14.8637   16.7193 C   0  0  0  0  0  0  0  0  0  0  0  0
    8.7534  -14.3869   15.5114 N   0  0  0  0  0  0  0  0  0  0  0  0
    7.8918  -13.3598   15.6696 C   0  0  0  0  0  0  0  0  0  0  0  0
    7.6210  -13.2093   16.9841 N   0  0  0  0  0  0  0  0  0  0  0  0
    9.4768  -15.7742   20.8562 C   0  0  0  0  0  0  0  0  0  0  0  0
    8.5547  -15.7280   21.7098 O   0  0  0  0  0  0  0  0  0  0  0  0
   10.8038  -15.8883   21.3027 N   0  0  0  0  0  0  0  0  0  0  0  0
   11.1869  -16.0681   22.6868 C   0  0  1  0  0  0  0  0  0  0  0  0
   10.4761  -17.2928   23.2454 C   0  0  0  0  0  0  0  0  0  0  0  0
   11.0674  -18.7512   22.3816 S   0  0  0  0  0  0  0  0  0  0  0  0
   12.6645  -16.1896   22.8267 C   0  0  0  0  0  0  0  0  0  0  0  0
   13.4189  -16.2466   21.8271 O   0  0  0  0  0  0  0  0  0  0  0  0
   13.2701  -16.2450   24.0788 O   0  0  0  0  0  0  0  0  0  0  0  0
  2  1  1  0
  3  2  2  0
  4  3  1  0
  5 11  1  0
  5  4  2  0
  6  5  1  0
  7  9  1  0
  7  6  1  0
  7  8  1  6
  9 10  2  0
 11 12  2  0
 12  2  1  0
 13 14  1  0
 13  9  1  0
 14 15  1  1
 16 15  1  0
 17 16  2  0
 18 19  1  0
 18 17  1  0
 19 20  2  0
 20 16  1  0
 21 22  2  0
 21 14  1  0
 23 21  1  0
 24 23  1  0
 24 27  1  0
 24 25  1  6
 26 25  1  0
 27 29  1  0
 28 27  2  0
M  END
$$$$
