YHC.pdb
     RDKit          3D

 29 30  0  0  1  0  0  0  0  0999 V2000
    6.0662  -10.5713   27.6308 O   0  0  0  0  0  0  0  0  0  0  0  0
    6.4433  -11.8285   27.1330 C   0  0  0  0  0  0  0  0  0  0  0  0
    7.5682  -11.9570   26.3588 C   0  0  0  0  0  0  0  0  0  0  0  0
    7.9364  -13.1857   25.8726 C   0  0  0  0  0  0  0  0  0  0  0  0
    7.2152  -14.3391   26.1263 C   0  0  0  0  0  0  0  0  0  0  0  0
    7.6472  -15.6547   25.5805 C   0  0  0  0  0  0  0  0  0  0  0  0
    7.1521  -15.7260   24.1624 C   0  0  2  0  0  0  0  0  0  0  0  0
    5.9881  -16.5727   24.1439 N   0  0  0  0  0  0  0  0  0  0  0  0
    8.1372  -16.1951   23.1996 C   0  0  0  0  0  0  0  0  0  0  0  0
    8.3408  -17.4304   23.1041 O   0  0  0  0  0  0  0  0  0  0  0  0
    6.0854  -14.1969   26.9064 C   0  0  0  0  0  0  0  0  0  0  0  0
    5.7005  -12.9575   27.4059 C   0  0  0  0  0  0  0  0  0  0  0  0
    8.9038  -15.3609   22.3415 N   0  0  0  0  0  0  0  0  0  0  0  0
    9.9497  -15.7914   21.4801 C   0  0  1  0  0  0  0  0  0  0  0  0
   10.2910  -14.8363   20.3766 C   0  0  0  0  0  0  0  0  0  0  0  0
    9.1560  -14.5689   19.4678 C   0  0  0  0  0  0  0  0  0  0  0  0
    7.9869  -15.3012   19.4961 C   0  0  0  0  0  0  0  0  0  0  0  0
    7.1542  -14.8404   18.5760 N   0  0  0  0  0  0  0  0  0  0  0  0
    7.7803  -13.8172   17.9570 C   0  0  0  0  0  0  0  0  0  0  0  0
    9.0042  -13.6529   18.5038 N   0  0  0  0  0  0  0  0  0  0  0  0
   11.1607  -16.1992   22.2387 C   0  0  0  0  0  0  0  0  0  0  0  0
   11.7214  -15.3297   22.9532 O   0  0  0  0  0  0  0  0  0  0  0  0
   11.7061  -17.4932   22.1989 N   0  0  0  0  0  0  0  0  0  0  0  0
   12.2507  -18.1852   23.3475 C   0  0  1  0  0  0  0  0  0  0  0  0
   11.1885  -18.2579   24.4353 C   0  0  0  0  0  0  0  0  0  0  0  0
   11.9923  -18.1695   26.0381 S   0  0  0  0  0  0  0  0  0  0  0  0
   12.7404  -19.5422   22.9782 C   0  0  0  0  0  0  0  0  0  0  0  0
   12.0502  -20.3260   22.2847 O   0  0  0  0  0  0  0  0  0  0  0  0
   13.9898  -19.9969   23.3900 O   0  0  0  0  0  0  0  0  0  0  0  0
  2  1  1  0
  3  2  2  0
  4  3  1  0
  5 11  1  0
  5  4  2  0
  6  5  1  0
  7  9  1  0
  7  6  1  0
  7  8  1  1
  9 10  2  0
 11 12  2  0
 12  2  1  0
 13 14  1  0
 13  9  1  0
 14 15  1  6
 16 15  1  0
 17 16  2  0
 18 19  1  0
 18 17  1  0
 19 20  2  0
 20 16  1  0
 21 22  2  0
 21 14  1  0
 23 21  1  0
 24 23  1  0
 24 27  1  0
 24 25  1  1
 26 25  1  0
 27 29  1  0
 28 27  2  0
M  END
$$$$
