YHC.pdb
     RDKit          3D

 29 30  0  0  1  0  0  0  0  0999 V2000
    7.8167  -11.2541   27.0531 O   0  0  0  0  0  0  0  0  0  0  0  0
    7.4351  -12.5590   26.7033 C   0  0  0  0  0  0  0  0  0  0  0  0
    6.1819  -12.8022   26.2014 C   0  0  0  0  0  0  0  0  0  0  0  0
    5.8094  -14.0773   25.8597 C   0  0  0  0  0  0  0  0  0  0  0  0
    6.6518  -15.1666   25.9967 C   0  0  0  0  0  0  0  0  0  0  0  0
    6.2106  -16.5358   25.6146 C   0  0  0  0  0  0  0  0  0  0  0  0
    6.2112  -16.5943   24.1121 C   0  0  2  0  0  0  0  0  0  0  0  0
    5.6323  -17.8525   23.7197 N   0  0  0  0  0  0  0  0  0  0  0  0
    7.5201  -16.4239   23.4996 C   0  0  0  0  0  0  0  0  0  0  0  0
    8.2914  -17.4134   23.4492 O   0  0  0  0  0  0  0  0  0  0  0  0
    7.9099  -14.9091   26.5028 C   0  0  0  0  0  0  0  0  0  0  0  0
    8.3008  -13.6214   26.8532 C   0  0  0  0  0  0  0  0  0  0  0  0
    8.0110  -15.2120   22.9428 N   0  0  0  0  0  0  0  0  0  0  0  0
    9.2718  -15.0387   22.3091 C   0  0  1  0  0  0  0  0  0  0  0  0
    9.3639  -13.8479   21.4034 C   0  0  0  0  0  0  0  0  0  0  0  0
    8.6288  -14.0260   20.1331 C   0  0  0  0  0  0  0  0  0  0  0  0
    8.0260  -15.2154   19.7783 C   0  0  0  0  0  0  0  0  0  0  0  0
    7.4463  -15.0817   18.5959 N   0  0  0  0  0  0  0  0  0  0  0  0
    7.6725  -13.8148   18.1886 C   0  0  0  0  0  0  0  0  0  0  0  0
    8.3957  -13.1710   19.1300 N   0  0  0  0  0  0  0  0  0  0  0  0
   10.3919  -15.0657   23.2853 C   0  0  0  0  0  0  0  0  0  0  0  0
   10.2803  -14.3608   24.3204 O   0  0  0  0  0  0  0  0  0  0  0  0
   11.5574  -15.8307   23.1129 N   0  0  0  0  0  0  0  0  0  0  0  0
   12.3642  -16.3454   24.1987 C   0  0  1  0  0  0  0  0  0  0  0  0
   11.4775  -17.1455   25.1424 C   0  0  0  0  0  0  0  0  0  0  0  0
   12.4432  -17.6282   26.5766 S   0  0  0  0  0  0  0  0  0  0  0  0
   13.4939  -17.1705   23.6881 C   0  0  0  0  0  0  0  0  0  0  0  0
   13.3250  -18.0465   22.8075 O   0  0  0  0  0  0  0  0  0  0  0  0
   14.7885  -17.0013   24.1704 O   0  0  0  0  0  0  0  0  0  0  0  0
  2  1  1  0
  3  2  2  0
  4  3  1  0
  5 11  1  0
  5  4  2  0
  6  5  1  0
  7  9  1  0
  7  6  1  0
  7  8  1  1
  9 10  2  0
 11 12  2  0
 12  2  1  0
 13 14  1  0
 13  9  1  0
 14 15  1  1
 16 15  1  0
 17 16  2  0
 18 19  1  0
 18 17  1  0
 19 20  2  0
 20 16  1  0
 21 22  2  0
 21 14  1  0
 23 21  1  0
 24 23  1  0
 24 27  1  0
 24 25  1  1
 26 25  1  0
 27 29  1  0
 28 27  2  0
M  END
$$$$
