YHC.pdb
     RDKit          3D

 29 30  0  0  1  0  0  0  0  0999 V2000
    7.7621  -12.5090   28.1087 O   0  0  0  0  0  0  0  0  0  0  0  0
    7.6627  -12.8524   26.7512 C   0  0  0  0  0  0  0  0  0  0  0  0
    6.5137  -13.4213   26.2638 C   0  0  0  0  0  0  0  0  0  0  0  0
    6.4170  -13.7568   24.9373 C   0  0  0  0  0  0  0  0  0  0  0  0
    7.4445  -13.5476   24.0343 C   0  0  0  0  0  0  0  0  0  0  0  0
    7.3013  -13.9254   22.6018 C   0  0  0  0  0  0  0  0  0  0  0  0
    7.3391  -15.4273   22.5376 C   0  0  2  0  0  0  0  0  0  0  0  0
    6.1297  -15.9249   23.1393 N   0  0  0  0  0  0  0  0  0  0  0  0
    8.5048  -16.0314   23.1651 C   0  0  0  0  0  0  0  0  0  0  0  0
    8.3367  -16.7296   24.1950 O   0  0  0  0  0  0  0  0  0  0  0  0
    8.5953  -12.9746   24.5367 C   0  0  0  0  0  0  0  0  0  0  0  0
    8.7070  -12.6296   25.8791 C   0  0  0  0  0  0  0  0  0  0  0  0
    9.8428  -15.8974   22.7049 N   0  0  0  0  0  0  0  0  0  0  0  0
   10.9738  -16.5837   23.2254 C   0  0  1  0  0  0  0  0  0  0  0  0
   12.1356  -16.6889   22.2843 C   0  0  0  0  0  0  0  0  0  0  0  0
   11.9316  -17.6942   21.2196 C   0  0  0  0  0  0  0  0  0  0  0  0
   10.8394  -18.5367   21.1860 C   0  0  0  0  0  0  0  0  0  0  0  0
   10.9215  -19.3248   20.1257 N   0  0  0  0  0  0  0  0  0  0  0  0
   12.0587  -18.9943   19.4778 C   0  0  0  0  0  0  0  0  0  0  0  0
   12.6748  -17.9970   20.1484 N   0  0  0  0  0  0  0  0  0  0  0  0
   11.3919  -16.0434   24.5451 C   0  0  0  0  0  0  0  0  0  0  0  0
   11.5068  -14.7961   24.6545 O   0  0  0  0  0  0  0  0  0  0  0  0
   11.6626  -16.8463   25.6656 N   0  0  0  0  0  0  0  0  0  0  0  0
   11.6910  -16.3621   27.0292 C   0  0  1  0  0  0  0  0  0  0  0  0
   10.3989  -15.6113   27.3184 C   0  0  0  0  0  0  0  0  0  0  0  0
   10.4962  -14.9013   28.9644 S   0  0  0  0  0  0  0  0  0  0  0  0
   11.8960  -17.4776   27.9942 C   0  0  0  0  0  0  0  0  0  0  0  0
   11.3488  -18.5944   27.8367 O   0  0  0  0  0  0  0  0  0  0  0  0
   12.7072  -17.3243   29.1149 O   0  0  0  0  0  0  0  0  0  0  0  0
  2  1  1  0
  3  2  2  0
  4  3  1  0
  5 11  1  0
  5  4  2  0
  6  5  1  0
  7  9  1  0
  7  6  1  0
  7  8  1  1
  9 10  2  0
 11 12  2  0
 12  2  1  0
 13 14  1  0
 13  9  1  0
 14 15  1  6
 16 15  1  0
 17 16  2  0
 18 19  1  0
 18 17  1  0
 19 20  2  0
 20 16  1  0
 21 22  2  0
 21 14  1  0
 23 21  1  0
 24 23  1  0
 24 27  1  0
 24 25  1  1
 26 25  1  0
 27 29  1  0
 28 27  2  0
M  END
$$$$
