YHC.pdb
     RDKit          3D

 29 30  0  0  1  0  0  0  0  0999 V2000
    7.3189  -12.4935   16.7557 O   0  0  0  0  0  0  0  0  0  0  0  0
    7.6145  -13.0371   18.0158 C   0  0  0  0  0  0  0  0  0  0  0  0
    6.6023  -13.3959   18.8691 C   0  0  0  0  0  0  0  0  0  0  0  0
    6.8915  -13.9270   20.1003 C   0  0  0  0  0  0  0  0  0  0  0  0
    8.1865  -14.1279   20.5447 C   0  0  0  0  0  0  0  0  0  0  0  0
    8.4598  -14.7072   21.8882 C   0  0  0  0  0  0  0  0  0  0  0  0
    9.0660  -16.0653   21.6660 C   0  0  2  0  0  0  0  0  0  0  0  0
    8.0585  -16.9063   21.0746 N   0  0  0  0  0  0  0  0  0  0  0  0
    9.6103  -16.6891   22.8628 C   0  0  0  0  0  0  0  0  0  0  0  0
    8.8113  -17.1555   23.7116 O   0  0  0  0  0  0  0  0  0  0  0  0
    9.1961  -13.7630   19.6771 C   0  0  0  0  0  0  0  0  0  0  0  0
    8.9174  -13.2235   18.4262 C   0  0  0  0  0  0  0  0  0  0  0  0
   10.9939  -16.8187   23.1603 N   0  0  0  0  0  0  0  0  0  0  0  0
   11.5403  -17.3126   24.3763 C   0  0  1  0  0  0  0  0  0  0  0  0
   12.8618  -18.0062   24.2380 C   0  0  0  0  0  0  0  0  0  0  0  0
   12.7999  -19.2085   23.3798 C   0  0  0  0  0  0  0  0  0  0  0  0
   12.2145  -20.3894   23.7881 C   0  0  0  0  0  0  0  0  0  0  0  0
   12.3062  -21.2864   22.8190 N   0  0  0  0  0  0  0  0  0  0  0  0
   12.9462  -20.6900   21.7910 C   0  0  0  0  0  0  0  0  0  0  0  0
   13.2472  -19.4194   22.1360 N   0  0  0  0  0  0  0  0  0  0  0  0
   11.5847  -16.2659   25.4302 C   0  0  0  0  0  0  0  0  0  0  0  0
   12.0014  -15.1258   25.1024 O   0  0  0  0  0  0  0  0  0  0  0  0
   11.1889  -16.4823   26.7606 N   0  0  0  0  0  0  0  0  0  0  0  0
   10.9038  -15.4273   27.7095 C   0  0  1  0  0  0  0  0  0  0  0  0
    9.7887  -14.5497   27.1586 C   0  0  0  0  0  0  0  0  0  0  0  0
    9.4113  -13.2694   28.3591 S   0  0  0  0  0  0  0  0  0  0  0  0
   10.5456  -15.9833   29.0437 C   0  0  0  0  0  0  0  0  0  0  0  0
   10.3980  -15.2463   30.0469 O   0  0  0  0  0  0  0  0  0  0  0  0
   10.3594  -17.3499   29.2312 O   0  0  0  0  0  0  0  0  0  0  0  0
  2  1  1  0
  3  2  2  0
  4  3  1  0
  5 11  1  0
  5  4  2  0
  6  5  1  0
  7  9  1  0
  7  6  1  0
  7  8  1  1
  9 10  2  0
 11 12  2  0
 12  2  1  0
 13 14  1  0
 13  9  1  0
 14 15  1  6
 16 15  1  0
 17 16  2  0
 18 19  1  0
 18 17  1  0
 19 20  2  0
 20 16  1  0
 21 22  2  0
 21 14  1  0
 23 21  1  0
 24 23  1  0
 24 27  1  0
 24 25  1  6
 26 25  1  0
 27 29  1  0
 28 27  2  0
M  END
$$$$
