YHC.pdb
     RDKit          3D

 29 30  0  0  1  0  0  0  0  0999 V2000
    7.6759  -12.5850   17.0372 O   0  0  0  0  0  0  0  0  0  0  0  0
    7.9248  -13.1218   18.3102 C   0  0  0  0  0  0  0  0  0  0  0  0
    9.1899  -13.5233   18.6565 C   0  0  0  0  0  0  0  0  0  0  0  0
    9.4326  -14.0478   19.9004 C   0  0  0  0  0  0  0  0  0  0  0  0
    8.4434  -14.2000   20.8560 C   0  0  0  0  0  0  0  0  0  0  0  0
    8.7465  -14.7737   22.1955 C   0  0  0  0  0  0  0  0  0  0  0  0
    9.2846  -16.1594   21.9684 C   0  0  2  0  0  0  0  0  0  0  0  0
    8.2464  -16.9390   21.3467 N   0  0  0  0  0  0  0  0  0  0  0  0
    9.7707  -16.8247   23.1679 C   0  0  0  0  0  0  0  0  0  0  0  0
    8.9316  -17.3143   23.9633 O   0  0  0  0  0  0  0  0  0  0  0  0
    7.1748  -13.7925   20.4957 C   0  0  0  0  0  0  0  0  0  0  0  0
    6.9145  -13.2590   19.2382 C   0  0  0  0  0  0  0  0  0  0  0  0
   11.1386  -16.9716   23.5242 N   0  0  0  0  0  0  0  0  0  0  0  0
   11.6265  -17.5197   24.7418 C   0  0  1  0  0  0  0  0  0  0  0  0
   12.9505  -18.2141   24.6349 C   0  0  0  0  0  0  0  0  0  0  0  0
   12.9182  -19.3922   23.7422 C   0  0  0  0  0  0  0  0  0  0  0  0
   11.8770  -20.2975   23.7362 C   0  0  0  0  0  0  0  0  0  0  0  0
   12.1181  -21.2426   22.8413 N   0  0  0  0  0  0  0  0  0  0  0  0
   13.3070  -20.9507   22.2725 C   0  0  0  0  0  0  0  0  0  0  0  0
   13.7945  -19.8188   22.8248 N   0  0  0  0  0  0  0  0  0  0  0  0
   11.6259  -16.5190   25.8404 C   0  0  0  0  0  0  0  0  0  0  0  0
   11.8355  -15.3175   25.5347 O   0  0  0  0  0  0  0  0  0  0  0  0
   11.4054  -16.8429   27.1894 N   0  0  0  0  0  0  0  0  0  0  0  0
   11.1842  -15.8692   28.2372 C   0  0  1  0  0  0  0  0  0  0  0  0
    9.9442  -15.0517   27.9039 C   0  0  0  0  0  0  0  0  0  0  0  0
    9.5934  -13.9451   29.2732 S   0  0  0  0  0  0  0  0  0  0  0  0
   11.0571  -16.5267   29.5673 C   0  0  0  0  0  0  0  0  0  0  0  0
   11.3623  -15.9326   30.6281 O   0  0  0  0  0  0  0  0  0  0  0  0
   10.5923  -17.8333   29.6865 O   0  0  0  0  0  0  0  0  0  0  0  0
  2  1  1  0
  3  2  2  0
  4  3  1  0
  5 11  1  0
  5  4  2  0
  6  5  1  0
  7  9  1  0
  7  6  1  0
  7  8  1  1
  9 10  2  0
 11 12  2  0
 12  2  1  0
 13 14  1  0
 13  9  1  0
 14 15  1  6
 16 15  1  0
 17 16  2  0
 18 19  1  0
 18 17  1  0
 19 20  2  0
 20 16  1  0
 21 22  2  0
 21 14  1  0
 23 21  1  0
 24 23  1  0
 24 27  1  0
 24 25  1  6
 26 25  1  0
 27 29  1  0
 28 27  2  0
M  END
$$$$
