YHC.pdb
     RDKit          3D

 29 30  0  0  1  0  0  0  0  0999 V2000
   11.4304  -26.2571   23.6717 O   0  0  0  0  0  0  0  0  0  0  0  0
   11.2832  -24.8691   23.8216 C   0  0  0  0  0  0  0  0  0  0  0  0
   10.1513  -24.2405   23.3685 C   0  0  0  0  0  0  0  0  0  0  0  0
   10.0078  -22.8843   23.5152 C   0  0  0  0  0  0  0  0  0  0  0  0
   10.9697  -22.0889   24.1128 C   0  0  0  0  0  0  0  0  0  0  0  0
   10.7772  -20.6198   24.2535 C   0  0  0  0  0  0  0  0  0  0  0  0
   11.0038  -20.0149   22.8956 C   0  0  2  0  0  0  0  0  0  0  0  0
   12.3897  -20.2034   22.5548 N   0  0  0  0  0  0  0  0  0  0  0  0
   10.6411  -18.6096   22.7900 C   0  0  0  0  0  0  0  0  0  0  0  0
   11.4987  -17.7448   23.0950 O   0  0  0  0  0  0  0  0  0  0  0  0
   12.1039  -22.7330   24.5646 C   0  0  0  0  0  0  0  0  0  0  0  0
   12.2625  -24.1071   24.4225 C   0  0  0  0  0  0  0  0  0  0  0  0
    9.3763  -18.1213   22.3637 N   0  0  0  0  0  0  0  0  0  0  0  0
    9.0097  -16.7527   22.2468 C   0  0  1  0  0  0  0  0  0  0  0  0
    8.0318  -16.4533   21.1511 C   0  0  0  0  0  0  0  0  0  0  0  0
    7.6424  -15.0282   21.0933 C   0  0  0  0  0  0  0  0  0  0  0  0
    6.4806  -14.5469   21.6610 C   0  0  0  0  0  0  0  0  0  0  0  0
    6.3948  -13.2423   21.4539 N   0  0  0  0  0  0  0  0  0  0  0  0
    7.4935  -12.8823   20.7571 C   0  0  0  0  0  0  0  0  0  0  0  0
    8.2550  -13.9758   20.5377 N   0  0  0  0  0  0  0  0  0  0  0  0
    8.5604  -16.1858   23.5449 C   0  0  0  0  0  0  0  0  0  0  0  0
    8.0841  -16.9808   24.3946 O   0  0  0  0  0  0  0  0  0  0  0  0
    8.6395  -14.8211   23.8683 N   0  0  0  0  0  0  0  0  0  0  0  0
    8.3448  -14.2734   25.1752 C   0  0  1  0  0  0  0  0  0  0  0  0
    9.2728  -14.9072   26.2019 C   0  0  0  0  0  0  0  0  0  0  0  0
    9.0763  -14.0517   27.7679 S   0  0  0  0  0  0  0  0  0  0  0  0
    8.4670  -12.7893   25.1789 C   0  0  0  0  0  0  0  0  0  0  0  0
    9.2678  -12.1920   24.4216 O   0  0  0  0  0  0  0  0  0  0  0  0
    7.6936  -12.0022   26.0273 O   0  0  0  0  0  0  0  0  0  0  0  0
  2  1  1  0
  3  2  2  0
  4  3  1  0
  5 11  1  0
  5  4  2  0
  6  5  1  0
  7  9  1  0
  7  6  1  0
  7  8  1  1
  9 10  2  0
 11 12  2  0
 12  2  1  0
 13 14  1  0
 13  9  1  0
 14 15  1  6
 16 15  1  0
 17 16  2  0
 18 19  1  0
 18 17  1  0
 19 20  2  0
 20 16  1  0
 21 22  2  0
 21 14  1  0
 23 21  1  0
 24 23  1  0
 24 27  1  0
 24 25  1  1
 26 25  1  0
 27 29  1  0
 28 27  2  0
M  END
$$$$
