HGQ.pdb
     RDKit          3D

 24 24  0  0  1  0  0  0  0  0999 V2000
    6.0874  -16.6676   19.6693 N   0  0  0  0  0  0  0  0  0  0  0  0
    6.6369  -16.1585   20.8880 C   0  0  1  0  0  0  0  0  0  0  0  0
    6.3978  -14.6722   21.0079 C   0  0  0  0  0  0  0  0  0  0  0  0
    7.1990  -13.9207   20.0252 C   0  0  0  0  0  0  0  0  0  0  0  0
    8.0953  -14.4019   19.1035 C   0  0  0  0  0  0  0  0  0  0  0  0
    8.6120  -13.3576   18.3945 N   0  0  0  0  0  0  0  0  0  0  0  0
    8.0417  -12.2373   18.8716 C   0  0  0  0  0  0  0  0  0  0  0  0
    7.1804  -12.5922   19.8671 N   0  0  0  0  0  0  0  0  0  0  0  0
    6.0693  -16.9130   22.0285 C   0  0  0  0  0  0  0  0  0  0  0  0
    4.8330  -17.0198   22.1498 O   0  0  0  0  0  0  0  0  0  0  0  0
    6.8917  -17.5202   22.9909 N   0  0  0  0  0  0  0  0  0  0  0  0
    6.3788  -18.0169   24.2761 C   0  0  0  0  0  0  0  0  0  0  0  0
    7.0687  -17.3229   25.3890 C   0  0  0  0  0  0  0  0  0  0  0  0
    7.0820  -16.0723   25.4415 O   0  0  0  0  0  0  0  0  0  0  0  0
    8.2225  -20.9443   29.4978 N   0  0  0  0  0  0  0  0  0  0  0  0
    9.1531  -20.9064   28.4391 C   0  0  0  0  0  0  0  0  0  0  0  0
    9.6137  -22.0161   28.0433 O   0  0  0  0  0  0  0  0  0  0  0  0
    9.6025  -19.6661   27.7904 C   0  0  0  0  0  0  0  0  0  0  0  0
    8.9726  -18.4459   28.3503 C   0  0  0  0  0  0  0  0  0  0  0  0
    8.5547  -17.4064   27.3621 C   0  0  2  0  0  0  0  0  0  0  0  0
    7.7076  -18.0967   26.3840 N   0  0  0  0  0  0  0  0  0  0  0  0
    9.7372  -16.8764   26.5973 C   0  0  0  0  0  0  0  0  0  0  0  0
    9.9359  -17.2776   25.4256 O   0  0  0  0  0  0  0  0  0  0  0  0
   10.6132  -15.9571   27.1514 O   0  0  0  0  0  0  0  0  0  0  0  0
  2  1  1  6
  3  2  1  0
  4  3  1  0
  5  4  2  0
  6  5  1  0
  7  8  2  0
  7  6  1  0
  8  4  1  0
  9 11  1  0
  9  2  1  0
 10  9  2  0
 12 13  1  0
 12 11  1  0
 13 21  1  0
 14 13  2  0
 16 17  2  0
 16 15  1  0
 18 16  1  0
 19 18  1  0
 20 19  1  1
 21 20  1  0
 22 24  1  0
 22 20  1  0
 23 22  2  0
M  END
$$$$
