HGQ.pdb
     RDKit          3D

 24 24  0  0  1  0  0  0  0  0999 V2000
    8.6982  -15.2586   22.6898 N   0  0  0  0  0  0  0  0  0  0  0  0
    9.1364  -16.3459   21.8699 C   0  0  1  0  0  0  0  0  0  0  0  0
    9.5019  -15.8645   20.4859 C   0  0  0  0  0  0  0  0  0  0  0  0
    8.6186  -14.7679   20.0505 C   0  0  0  0  0  0  0  0  0  0  0  0
    7.2482  -14.7024   20.0969 C   0  0  0  0  0  0  0  0  0  0  0  0
    6.8402  -13.5035   19.5903 N   0  0  0  0  0  0  0  0  0  0  0  0
    7.9476  -12.8300   19.2324 C   0  0  0  0  0  0  0  0  0  0  0  0
    9.0281  -13.6109   19.5176 N   0  0  0  0  0  0  0  0  0  0  0  0
   10.2616  -17.0362   22.5403 C   0  0  0  0  0  0  0  0  0  0  0  0
   10.9859  -17.8178   21.8929 O   0  0  0  0  0  0  0  0  0  0  0  0
   10.5420  -16.8350   23.9012 N   0  0  0  0  0  0  0  0  0  0  0  0
   11.5678  -17.6014   24.6237 C   0  0  0  0  0  0  0  0  0  0  0  0
   11.5900  -17.1857   26.0460 C   0  0  0  0  0  0  0  0  0  0  0  0
   12.4290  -17.6772   26.8342 O   0  0  0  0  0  0  0  0  0  0  0  0
    7.5464  -12.8278   28.1378 N   0  0  0  0  0  0  0  0  0  0  0  0
    8.2644  -12.9352   26.9290 C   0  0  0  0  0  0  0  0  0  0  0  0
    7.8632  -12.2262   25.9613 O   0  0  0  0  0  0  0  0  0  0  0  0
    9.4295  -13.8128   26.7460 C   0  0  0  0  0  0  0  0  0  0  0  0
    9.7759  -14.5938   27.9581 C   0  0  0  0  0  0  0  0  0  0  0  0
   10.8636  -15.6059   27.8023 C   0  0  2  0  0  0  0  0  0  0  0  0
   10.6505  -16.2289   26.4919 N   0  0  0  0  0  0  0  0  0  0  0  0
   10.7320  -16.7066   28.8197 C   0  0  0  0  0  0  0  0  0  0  0  0
   10.1991  -17.7904   28.4811 O   0  0  0  0  0  0  0  0  0  0  0  0
   11.1834  -16.5565   30.1210 O   0  0  0  0  0  0  0  0  0  0  0  0
  2  1  1  1
  3  2  1  0
  4  3  1  0
  5  4  2  0
  6  5  1  0
  7  8  2  0
  7  6  1  0
  8  4  1  0
  9 11  1  0
  9  2  1  0
 10  9  2  0
 12 13  1  0
 12 11  1  0
 13 21  1  0
 14 13  2  0
 16 17  2  0
 16 15  1  0
 18 16  1  0
 19 18  1  0
 20 19  1  1
 21 20  1  0
 22 24  1  0
 22 20  1  0
 23 22  2  0
M  END
$$$$
