HGQ.pdb
     RDKit          3D

 24 24  0  0  1  0  0  0  0  0999 V2000
    8.2339  -16.2695   20.3531 N   0  0  0  0  0  0  0  0  0  0  0  0
    9.5823  -15.7983   20.2765 C   0  0  1  0  0  0  0  0  0  0  0  0
    9.6200  -14.3041   20.0602 C   0  0  0  0  0  0  0  0  0  0  0  0
    8.8785  -13.9208   18.8455 C   0  0  0  0  0  0  0  0  0  0  0  0
    7.6399  -13.3372   18.7467 C   0  0  0  0  0  0  0  0  0  0  0  0
    7.3347  -13.1554   17.4298 N   0  0  0  0  0  0  0  0  0  0  0  0
    8.3748  -13.6220   16.7167 C   0  0  0  0  0  0  0  0  0  0  0  0
    9.3121  -14.0871   17.5907 N   0  0  0  0  0  0  0  0  0  0  0  0
   10.3095  -16.2077   21.4995 C   0  0  0  0  0  0  0  0  0  0  0  0
   11.5257  -15.9570   21.6130 O   0  0  0  0  0  0  0  0  0  0  0  0
    9.6630  -16.8786   22.5497 N   0  0  0  0  0  0  0  0  0  0  0  0
   10.3695  -17.3383   23.7543 C   0  0  0  0  0  0  0  0  0  0  0  0
   10.4276  -16.2395   24.7470 C   0  0  0  0  0  0  0  0  0  0  0  0
   11.4240  -15.4833   24.7941 O   0  0  0  0  0  0  0  0  0  0  0  0
    5.5451  -13.0503   26.5951 N   0  0  0  0  0  0  0  0  0  0  0  0
    6.7199  -12.2892   26.7653 C   0  0  0  0  0  0  0  0  0  0  0  0
    6.5771  -11.0387   26.8920 O   0  0  0  0  0  0  0  0  0  0  0  0
    8.0706  -12.8684   26.8006 C   0  0  0  0  0  0  0  0  0  0  0  0
    8.0834  -14.3445   26.6585 C   0  0  0  0  0  0  0  0  0  0  0  0
    9.4288  -14.9932   26.6331 C   0  0  2  0  0  0  0  0  0  0  0  0
    9.3420  -16.0636   25.6343 N   0  0  0  0  0  0  0  0  0  0  0  0
    9.7342  -15.6636   27.9451 C   0  0  0  0  0  0  0  0  0  0  0  0
    9.4358  -16.8724   28.0971 O   0  0  0  0  0  0  0  0  0  0  0  0
   10.3362  -14.9825   28.9908 O   0  0  0  0  0  0  0  0  0  0  0  0
  2  1  1  1
  3  2  1  0
  4  3  1  0
  5  4  2  0
  6  5  1  0
  7  8  2  0
  7  6  1  0
  8  4  1  0
  9 11  1  0
  9  2  1  0
 10  9  2  0
 12 13  1  0
 12 11  1  0
 13 21  1  0
 14 13  2  0
 16 17  2  0
 16 15  1  0
 18 16  1  0
 19 18  1  0
 20 19  1  1
 21 20  1  0
 22 24  1  0
 22 20  1  0
 23 22  2  0
M  END
$$$$
