HGQ.pdb
     RDKit          3D

 24 24  0  0  1  0  0  0  0  0999 V2000
    9.9267  -17.3800   19.1092 N   0  0  0  0  0  0  0  0  0  0  0  0
    9.2492  -16.5074   20.0181 C   0  0  1  0  0  0  0  0  0  0  0  0
    7.9473  -16.0197   19.4282 C   0  0  0  0  0  0  0  0  0  0  0  0
    7.9697  -14.5614   19.2156 C   0  0  0  0  0  0  0  0  0  0  0  0
    8.9940  -13.6777   19.4483 C   0  0  0  0  0  0  0  0  0  0  0  0
    8.5855  -12.4205   19.1119 N   0  0  0  0  0  0  0  0  0  0  0  0
    7.3183  -12.5225   18.6740 C   0  0  0  0  0  0  0  0  0  0  0  0
    6.9517  -13.8339   18.7413 N   0  0  0  0  0  0  0  0  0  0  0  0
    9.0544  -17.2072   21.3083 C   0  0  0  0  0  0  0  0  0  0  0  0
    9.1217  -18.4513   21.3572 O   0  0  0  0  0  0  0  0  0  0  0  0
    8.7928  -16.5033   22.4946 N   0  0  0  0  0  0  0  0  0  0  0  0
    8.5932  -17.1720   23.7886 C   0  0  0  0  0  0  0  0  0  0  0  0
    9.8209  -17.0452   24.6090 C   0  0  0  0  0  0  0  0  0  0  0  0
   10.6849  -16.1857   24.3235 O   0  0  0  0  0  0  0  0  0  0  0  0
    8.9043  -14.0148   28.5955 N   0  0  0  0  0  0  0  0  0  0  0  0
   10.1154  -14.5017   29.1287 C   0  0  0  0  0  0  0  0  0  0  0  0
   10.5864  -13.8882   30.1297 O   0  0  0  0  0  0  0  0  0  0  0  0
   10.8389  -15.6611   28.5871 C   0  0  0  0  0  0  0  0  0  0  0  0
   10.1782  -16.2703   27.4074 C   0  0  0  0  0  0  0  0  0  0  0  0
   10.8555  -17.4624   26.8144 C   0  0  2  0  0  0  0  0  0  0  0  0
    9.9956  -17.9091   25.7135 N   0  0  0  0  0  0  0  0  0  0  0  0
   10.9105  -18.6012   27.7962 C   0  0  0  0  0  0  0  0  0  0  0  0
    9.9726  -19.4338   27.8186 O   0  0  0  0  0  0  0  0  0  0  0  0
   11.9687  -18.7560   28.6770 O   0  0  0  0  0  0  0  0  0  0  0  0
  2  1  1  6
  3  2  1  0
  4  3  1  0
  5  4  2  0
  6  5  1  0
  7  8  2  0
  7  6  1  0
  8  4  1  0
  9 11  1  0
  9  2  1  0
 10  9  2  0
 12 13  1  0
 12 11  1  0
 13 21  1  0
 14 13  2  0
 16 17  2  0
 16 15  1  0
 18 16  1  0
 19 18  1  0
 20 19  1  1
 21 20  1  0
 22 24  1  0
 22 20  1  0
 23 22  2  0
M  END
$$$$
