HGQ.pdb
     RDKit          3D

 24 24  0  0  1  0  0  0  0  0999 V2000
    9.0641  -18.1307   17.6730 N   0  0  0  0  0  0  0  0  0  0  0  0
    8.2903  -16.9969   18.0757 C   0  0  1  0  0  0  0  0  0  0  0  0
    7.2330  -16.6728   17.0472 C   0  0  0  0  0  0  0  0  0  0  0  0
    7.8391  -16.2991   15.7568 C   0  0  0  0  0  0  0  0  0  0  0  0
    7.7158  -16.9228   14.5401 C   0  0  0  0  0  0  0  0  0  0  0  0
    8.4460  -16.2407   13.6117 N   0  0  0  0  0  0  0  0  0  0  0  0
    9.0178  -15.2022   14.2460 C   0  0  0  0  0  0  0  0  0  0  0  0
    8.6409  -15.2469   15.5555 N   0  0  0  0  0  0  0  0  0  0  0  0
    7.7121  -17.2549   19.4142 C   0  0  0  0  0  0  0  0  0  0  0  0
    6.7654  -18.0568   19.5385 O   0  0  0  0  0  0  0  0  0  0  0  0
    8.2037  -16.6155   20.5634 N   0  0  0  0  0  0  0  0  0  0  0  0
    7.6278  -16.8276   21.8994 C   0  0  0  0  0  0  0  0  0  0  0  0
    8.3396  -15.9836   22.8879 C   0  0  0  0  0  0  0  0  0  0  0  0
    9.3296  -15.3016   22.5391 O   0  0  0  0  0  0  0  0  0  0  0  0
    7.0184  -11.8930   27.2022 N   0  0  0  0  0  0  0  0  0  0  0  0
    6.4168  -12.1704   25.9574 C   0  0  0  0  0  0  0  0  0  0  0  0
    5.7104  -11.2533   25.4473 O   0  0  0  0  0  0  0  0  0  0  0  0
    6.5684  -13.4461   25.2429 C   0  0  0  0  0  0  0  0  0  0  0  0
    7.4209  -14.4257   25.9592 C   0  0  0  0  0  0  0  0  0  0  0  0
    8.5259  -15.0430   25.1658 C   0  0  2  0  0  0  0  0  0  0  0  0
    7.8810  -15.9643   24.2244 N   0  0  0  0  0  0  0  0  0  0  0  0
    9.4167  -15.8855   26.0380 C   0  0  0  0  0  0  0  0  0  0  0  0
   10.2279  -15.3196   26.8093 O   0  0  0  0  0  0  0  0  0  0  0  0
    9.3659  -17.2699   26.0129 O   0  0  0  0  0  0  0  0  0  0  0  0
  2  1  1  6
  3  2  1  0
  4  3  1  0
  5  4  2  0
  6  5  1  0
  7  8  2  0
  7  6  1  0
  8  4  1  0
  9 11  1  0
  9  2  1  0
 10  9  2  0
 12 13  1  0
 12 11  1  0
 13 21  1  0
 14 13  2  0
 16 17  2  0
 16 15  1  0
 18 16  1  0
 19 18  1  0
 20 19  1  1
 21 20  1  0
 22 24  1  0
 22 20  1  0
 23 22  2  0
M  END
$$$$
