SLM.pdb
     RDKit          3D

 23 22  0  0  1  0  0  0  0  0999 V2000
    9.6228  -18.6680   21.1678 O   0  0  0  0  0  0  0  0  0  0  0  0
    8.4027  -18.2907   20.6093 C   0  0  0  0  0  0  0  0  0  0  0  0
    8.4375  -16.8069   20.3166 C   0  0  2  0  0  0  0  0  0  0  0  0
    9.4030  -16.5960   19.2557 N   0  0  0  0  0  0  0  0  0  0  0  0
    8.8344  -16.0654   21.5494 C   0  0  0  0  0  0  0  0  0  0  0  0
   10.0231  -15.6786   21.6727 O   0  0  0  0  0  0  0  0  0  0  0  0
    5.9891  -13.4582   26.4883 C   0  0  0  0  0  0  0  0  0  0  0  0
    7.1731  -13.6625   25.6122 C   0  0  2  0  0  0  0  0  0  0  0  0
    7.7329  -12.3118   25.1961 C   0  0  0  0  0  0  0  0  0  0  0  0
    6.9995  -14.5794   24.4565 C   0  0  0  0  0  0  0  0  0  0  0  0
    8.2347  -15.0134   23.7473 C   0  0  2  0  0  0  0  0  0  0  0  0
    7.9040  -15.7919   22.5743 N   0  0  0  0  0  0  0  0  0  0  0  0
    8.9722  -15.9191   24.6842 C   0  0  0  0  0  0  0  0  0  0  0  0
    8.6301  -17.1247   24.8347 O   0  0  0  0  0  0  0  0  0  0  0  0
   11.1346  -12.7482   28.3076 C   0  0  0  0  0  0  0  0  0  0  0  0
   10.4028  -14.0975   29.2560 S   0  0  0  0  0  0  0  0  0  0  0  0
   10.9449  -15.7218   28.6606 C   0  0  0  0  0  0  0  0  0  0  0  0
   11.5850  -15.5290   27.3201 C   0  0  0  0  0  0  0  0  0  0  0  0
   10.8975  -16.3043   26.2669 C   0  0  2  0  0  0  0  0  0  0  0  0
   10.0644  -15.4479   25.4194 N   0  0  0  0  0  0  0  0  0  0  0  0
   10.0379  -17.3788   26.7723 C   0  0  0  0  0  0  0  0  0  0  0  0
   10.3357  -18.7113   26.4848 O   0  0  0  0  0  0  0  0  0  0  0  0
    9.0379  -17.1440   27.4580 O   0  0  0  0  0  0  0  0  0  0  0  0
  2  1  1  0
  3  5  1  0
  3  2  1  0
  3  4  1  6
  5  6  2  0
  8  7  1  6
  8  9  1  0
  8 10  1  0
 11 10  1  1
 11 13  1  0
 12 11  1  0
 12  5  1  0
 13 20  1  0
 13 14  2  0
 15 16  1  0
 16 17  1  0
 17 18  1  0
 19 18  1  1
 19 21  1  0
 20 19  1  0
 21 22  1  0
 23 21  2  0
M  END
$$$$
