SLM.pdb
     RDKit          3D

 23 22  0  0  1  0  0  0  0  0999 V2000
    7.5597  -19.4250   23.0310 O   0  0  0  0  0  0  0  0  0  0  0  0
    6.4657  -18.8213   22.4133 C   0  0  0  0  0  0  0  0  0  0  0  0
    6.8557  -18.4268   21.0058 C   0  0  2  0  0  0  0  0  0  0  0  0
    7.2626  -19.6340   20.3134 N   0  0  0  0  0  0  0  0  0  0  0  0
    7.9760  -17.4421   21.0571 C   0  0  0  0  0  0  0  0  0  0  0  0
    9.1462  -17.8367   20.8275 O   0  0  0  0  0  0  0  0  0  0  0  0
    8.3898  -13.6730   18.6525 C   0  0  0  0  0  0  0  0  0  0  0  0
    7.5812  -13.4917   19.8872 C   0  0  2  0  0  0  0  0  0  0  0  0
    6.8928  -12.1370   19.8460 C   0  0  0  0  0  0  0  0  0  0  0  0
    8.2719  -13.7324   21.1801 C   0  0  0  0  0  0  0  0  0  0  0  0
    8.8075  -15.1017   21.4149 C   0  0  2  0  0  0  0  0  0  0  0  0
    7.7465  -16.0826   21.3571 N   0  0  0  0  0  0  0  0  0  0  0  0
    9.3477  -15.1181   22.8113 C   0  0  0  0  0  0  0  0  0  0  0  0
   10.3827  -14.4651   23.1208 O   0  0  0  0  0  0  0  0  0  0  0  0
    6.7758  -11.6784   26.7498 C   0  0  0  0  0  0  0  0  0  0  0  0
    8.0821  -12.7375   27.4037 S   0  0  0  0  0  0  0  0  0  0  0  0
    7.7098  -14.4974   27.1784 C   0  0  0  0  0  0  0  0  0  0  0  0
    7.6443  -14.7678   25.7066 C   0  0  0  0  0  0  0  0  0  0  0  0
    8.8115  -15.5433   25.2385 C   0  0  2  0  0  0  0  0  0  0  0  0
    8.7147  -15.8617   23.8120 N   0  0  0  0  0  0  0  0  0  0  0  0
    9.0207  -16.8079   25.9499 C   0  0  0  0  0  0  0  0  0  0  0  0
    9.5263  -16.8076   27.2504 O   0  0  0  0  0  0  0  0  0  0  0  0
    8.7606  -17.8975   25.4302 O   0  0  0  0  0  0  0  0  0  0  0  0
  2  1  1  0
  3  5  1  0
  3  2  1  0
  3  4  1  6
  5  6  2  0
  8  7  1  6
  8  9  1  0
  8 10  1  0
 11 10  1  1
 11 13  1  0
 12 11  1  0
 12  5  1  0
 13 20  1  0
 13 14  2  0
 15 16  1  0
 16 17  1  0
 17 18  1  0
 19 18  1  1
 19 21  1  0
 20 19  1  0
 21 22  1  0
 23 21  2  0
M  END
$$$$
