SLM.pdb
     RDKit          3D

 23 22  0  0  1  0  0  0  0  0999 V2000
    8.8565  -18.5515   21.8214 O   0  0  0  0  0  0  0  0  0  0  0  0
    7.4875  -18.3088   21.9208 C   0  0  0  0  0  0  0  0  0  0  0  0
    7.1837  -16.9629   21.3004 C   0  0  2  0  0  0  0  0  0  0  0  0
    7.6958  -16.9843   19.9441 N   0  0  0  0  0  0  0  0  0  0  0  0
    7.8417  -15.8869   22.0983 C   0  0  0  0  0  0  0  0  0  0  0  0
    8.9369  -15.4166   21.7021 O   0  0  0  0  0  0  0  0  0  0  0  0
    5.9026  -12.4941   26.7501 C   0  0  0  0  0  0  0  0  0  0  0  0
    7.0854  -12.8498   25.9221 C   0  0  2  0  0  0  0  0  0  0  0  0
    7.2596  -11.8173   24.8200 C   0  0  0  0  0  0  0  0  0  0  0  0
    7.1452  -14.2407   25.4041 C   0  0  0  0  0  0  0  0  0  0  0  0
    7.9386  -14.4662   24.1645 C   0  0  2  0  0  0  0  0  0  0  0  0
    7.2594  -15.3904   23.2837 N   0  0  0  0  0  0  0  0  0  0  0  0
    9.2186  -15.1186   24.5863 C   0  0  0  0  0  0  0  0  0  0  0  0
   10.3319  -14.7270   24.1384 O   0  0  0  0  0  0  0  0  0  0  0  0
   11.6735  -14.1776   30.0475 C   0  0  0  0  0  0  0  0  0  0  0  0
   10.1841  -13.8276   29.0910 S   0  0  0  0  0  0  0  0  0  0  0  0
    9.6551  -15.2549   28.1063 C   0  0  0  0  0  0  0  0  0  0  0  0
   10.8128  -15.6805   27.2563 C   0  0  0  0  0  0  0  0  0  0  0  0
   10.4026  -16.6409   26.2113 C   0  0  2  0  0  0  0  0  0  0  0  0
    9.2111  -16.1839   25.4920 N   0  0  0  0  0  0  0  0  0  0  0  0
   10.1152  -17.9892   26.7098 C   0  0  0  0  0  0  0  0  0  0  0  0
   11.1285  -18.7568   27.2850 O   0  0  0  0  0  0  0  0  0  0  0  0
    8.9851  -18.4822   26.6383 O   0  0  0  0  0  0  0  0  0  0  0  0
  2  1  1  0
  3  5  1  0
  3  2  1  0
  3  4  1  6
  5  6  2  0
  8  7  1  6
  8  9  1  0
  8 10  1  0
 11 10  1  1
 11 13  1  0
 12 11  1  0
 12  5  1  0
 13 20  1  0
 13 14  2  0
 15 16  1  0
 16 17  1  0
 17 18  1  0
 19 18  1  1
 19 21  1  0
 20 19  1  0
 21 22  1  0
 23 21  2  0
M  END
$$$$
