SLM.pdb
     RDKit          3D

 23 22  0  0  1  0  0  0  0  0999 V2000
   10.3332  -18.6724   21.5107 O   0  0  0  0  0  0  0  0  0  0  0  0
    9.3225  -18.1092   20.7334 C   0  0  0  0  0  0  0  0  0  0  0  0
    9.5857  -16.6265   20.5893 C   0  0  2  0  0  0  0  0  0  0  0  0
   10.8532  -16.4752   19.9017 N   0  0  0  0  0  0  0  0  0  0  0  0
    9.6377  -15.9964   21.9412 C   0  0  0  0  0  0  0  0  0  0  0  0
   10.7547  -15.7030   22.4351 O   0  0  0  0  0  0  0  0  0  0  0  0
    5.6232  -13.5620   26.0949 C   0  0  0  0  0  0  0  0  0  0  0  0
    6.9899  -13.7847   25.5529 C   0  0  2  0  0  0  0  0  0  0  0  0
    7.6687  -12.4434   25.3270 C   0  0  0  0  0  0  0  0  0  0  0  0
    7.1034  -14.6784   24.3719 C   0  0  0  0  0  0  0  0  0  0  0  0
    8.4739  -15.1077   23.9791 C   0  0  2  0  0  0  0  0  0  0  0  0
    8.4613  -15.7251   22.6715 N   0  0  0  0  0  0  0  0  0  0  0  0
    8.8922  -16.1594   24.9594 C   0  0  0  0  0  0  0  0  0  0  0  0
    8.4958  -17.3527   24.8487 O   0  0  0  0  0  0  0  0  0  0  0  0
    9.8230  -12.5911   28.6368 C   0  0  0  0  0  0  0  0  0  0  0  0
   10.8799  -13.8453   29.3887 S   0  0  0  0  0  0  0  0  0  0  0  0
   11.4632  -15.0612   28.1771 C   0  0  0  0  0  0  0  0  0  0  0  0
   10.5785  -16.2661   28.2736 C   0  0  0  0  0  0  0  0  0  0  0  0
   10.2897  -16.8428   26.9444 C   0  0  2  0  0  0  0  0  0  0  0  0
    9.7372  -15.8428   26.0276 N   0  0  0  0  0  0  0  0  0  0  0  0
    9.3546  -17.9715   26.9663 C   0  0  0  0  0  0  0  0  0  0  0  0
    9.8033  -19.2497   27.3010 O   0  0  0  0  0  0  0  0  0  0  0  0
    8.1584  -17.8309   26.6937 O   0  0  0  0  0  0  0  0  0  0  0  0
  2  1  1  0
  3  5  1  0
  3  2  1  0
  3  4  1  1
  5  6  2  0
  8  7  1  6
  8  9  1  0
  8 10  1  0
 11 10  1  1
 11 13  1  0
 12 11  1  0
 12  5  1  0
 13 20  1  0
 13 14  2  0
 15 16  1  0
 16 17  1  0
 17 18  1  0
 19 18  1  1
 19 21  1  0
 20 19  1  0
 21 22  1  0
 23 21  2  0
M  END
$$$$
