SLM.pdb
     RDKit          3D

 23 22  0  0  1  0  0  0  0  0999 V2000
    9.2080  -18.0926   22.3257 O   0  0  0  0  0  0  0  0  0  0  0  0
    8.1165  -17.5694   21.6345 C   0  0  0  0  0  0  0  0  0  0  0  0
    8.4299  -16.1450   21.2328 C   0  0  2  0  0  0  0  0  0  0  0  0
    9.5327  -16.1914   20.2926 N   0  0  0  0  0  0  0  0  0  0  0  0
    8.7993  -15.3558   22.4444 C   0  0  0  0  0  0  0  0  0  0  0  0
   10.0133  -15.1446   22.6883 O   0  0  0  0  0  0  0  0  0  0  0  0
    5.8664  -12.2628   27.0503 C   0  0  0  0  0  0  0  0  0  0  0  0
    7.1033  -12.7713   26.4003 C   0  0  2  0  0  0  0  0  0  0  0  0
    8.1215  -11.6468   26.3022 C   0  0  0  0  0  0  0  0  0  0  0  0
    6.9343  -13.4909   25.1119 C   0  0  0  0  0  0  0  0  0  0  0  0
    8.1380  -14.1654   24.5521 C   0  0  2  0  0  0  0  0  0  0  0  0
    7.8153  -14.8448   23.3170 N   0  0  0  0  0  0  0  0  0  0  0  0
    8.5409  -15.2152   25.5407 C   0  0  0  0  0  0  0  0  0  0  0  0
    7.8430  -16.2523   25.7158 O   0  0  0  0  0  0  0  0  0  0  0  0
   13.3372  -19.0749   25.0571 C   0  0  0  0  0  0  0  0  0  0  0  0
   13.6512  -18.3022   26.6571 S   0  0  0  0  0  0  0  0  0  0  0  0
   12.1248  -17.7249   27.4469 C   0  0  0  0  0  0  0  0  0  0  0  0
   11.5364  -16.6541   26.5804 C   0  0  0  0  0  0  0  0  0  0  0  0
   10.2665  -16.1381   27.1316 C   0  0  2  0  0  0  0  0  0  0  0  0
    9.7073  -15.0709   26.2984 N   0  0  0  0  0  0  0  0  0  0  0  0
   10.3703  -15.6113   28.4956 C   0  0  0  0  0  0  0  0  0  0  0  0
   10.6091  -16.4739   29.5661 O   0  0  0  0  0  0  0  0  0  0  0  0
   10.2517  -14.4063   28.7385 O   0  0  0  0  0  0  0  0  0  0  0  0
  2  1  1  0
  3  5  1  0
  3  2  1  0
  3  4  1  6
  5  6  2  0
  8  7  1  6
  8  9  1  0
  8 10  1  0
 11 10  1  1
 11 13  1  0
 12 11  1  0
 12  5  1  0
 13 20  1  0
 13 14  2  0
 15 16  1  0
 16 17  1  0
 17 18  1  0
 19 18  1  6
 19 21  1  0
 20 19  1  0
 21 22  1  0
 23 21  2  0
M  END
$$$$
