SLM.pdb
     RDKit          3D

 23 22  0  0  1  0  0  0  0  0999 V2000
    7.8038  -17.8422   19.4612 O   0  0  0  0  0  0  0  0  0  0  0  0
    8.2297  -17.3912   20.7094 C   0  0  0  0  0  0  0  0  0  0  0  0
    8.2568  -15.8787   20.6991 C   0  0  2  0  0  0  0  0  0  0  0  0
    9.1244  -15.4672   19.6127 N   0  0  0  0  0  0  0  0  0  0  0  0
    8.7739  -15.3811   22.0076 C   0  0  0  0  0  0  0  0  0  0  0  0
    9.9962  -15.1138   22.1189 O   0  0  0  0  0  0  0  0  0  0  0  0
    7.7474  -11.8787   25.0551 C   0  0  0  0  0  0  0  0  0  0  0  0
    6.7588  -12.9889   25.0231 C   0  0  2  0  0  0  0  0  0  0  0  0
    5.5797  -12.6416   25.9175 C   0  0  0  0  0  0  0  0  0  0  0  0
    7.2792  -14.3555   25.2843 C   0  0  0  0  0  0  0  0  0  0  0  0
    8.4015  -14.8261   24.4264 C   0  0  2  0  0  0  0  0  0  0  0  0
    7.9197  -15.2059   23.1169 N   0  0  0  0  0  0  0  0  0  0  0  0
    8.9463  -16.0625   25.0717 C   0  0  0  0  0  0  0  0  0  0  0  0
    8.6180  -17.2119   24.6661 O   0  0  0  0  0  0  0  0  0  0  0  0
   10.3529  -12.8062   29.1421 C   0  0  0  0  0  0  0  0  0  0  0  0
   10.3038  -14.6069   29.0387 S   0  0  0  0  0  0  0  0  0  0  0  0
   11.5932  -15.2626   27.9458 C   0  0  0  0  0  0  0  0  0  0  0  0
   11.4005  -16.7447   27.8463 C   0  0  0  0  0  0  0  0  0  0  0  0
   10.5921  -17.1151   26.6664 C   0  0  2  0  0  0  0  0  0  0  0  0
    9.8373  -15.9729   26.1457 N   0  0  0  0  0  0  0  0  0  0  0  0
    9.6299  -18.1942   26.9086 C   0  0  0  0  0  0  0  0  0  0  0  0
   10.0284  -19.5275   26.8066 O   0  0  0  0  0  0  0  0  0  0  0  0
    8.4538  -17.9627   27.2059 O   0  0  0  0  0  0  0  0  0  0  0  0
  2  1  1  0
  3  5  1  0
  3  2  1  0
  3  4  1  6
  5  6  2  0
  8  7  1  1
  8  9  1  0
  8 10  1  0
 11 10  1  1
 11 13  1  0
 12 11  1  0
 12  5  1  0
 13 20  1  0
 13 14  2  0
 15 16  1  0
 16 17  1  0
 17 18  1  0
 19 18  1  1
 19 21  1  0
 20 19  1  0
 21 22  1  0
 23 21  2  0
M  END
$$$$
