SLM.pdb
     RDKit          3D

 23 22  0  0  1  0  0  0  0  0999 V2000
    6.4758  -19.7674   23.3430 O   0  0  0  0  0  0  0  0  0  0  0  0
    6.3727  -18.5598   24.0315 C   0  0  0  0  0  0  0  0  0  0  0  0
    5.8416  -17.5033   23.0879 C   0  0  2  0  0  0  0  0  0  0  0  0
    5.5192  -18.1610   21.8366 N   0  0  0  0  0  0  0  0  0  0  0  0
    6.8807  -16.4521   22.8816 C   0  0  0  0  0  0  0  0  0  0  0  0
    6.7100  -15.5940   21.9804 O   0  0  0  0  0  0  0  0  0  0  0  0
    7.5300  -12.4251   24.1972 C   0  0  0  0  0  0  0  0  0  0  0  0
    6.7829  -13.4580   24.9630 C   0  0  2  0  0  0  0  0  0  0  0  0
    6.1398  -12.8166   26.1820 C   0  0  0  0  0  0  0  0  0  0  0  0
    7.5210  -14.7008   25.3051 C   0  0  0  0  0  0  0  0  0  0  0  0
    8.5141  -15.1920   24.3104 C   0  0  2  0  0  0  0  0  0  0  0  0
    8.0458  -16.4043   23.6761 N   0  0  0  0  0  0  0  0  0  0  0  0
    9.7512  -15.5446   25.0765 C   0  0  0  0  0  0  0  0  0  0  0  0
   10.8432  -14.9467   24.8683 O   0  0  0  0  0  0  0  0  0  0  0  0
    9.7030  -13.8527   29.2362 C   0  0  0  0  0  0  0  0  0  0  0  0
   11.3152  -14.0186   28.4433 S   0  0  0  0  0  0  0  0  0  0  0  0
   11.9673  -15.7054   28.5703 C   0  0  0  0  0  0  0  0  0  0  0  0
   10.8682  -16.6517   28.1959 C   0  0  0  0  0  0  0  0  0  0  0  0
   10.9179  -17.0116   26.7638 C   0  0  2  0  0  0  0  0  0  0  0  0
    9.7263  -16.5510   26.0471 N   0  0  0  0  0  0  0  0  0  0  0  0
   11.0476  -18.4489   26.5067 C   0  0  0  0  0  0  0  0  0  0  0  0
   10.0669  -19.1243   25.7793 O   0  0  0  0  0  0  0  0  0  0  0  0
   12.0134  -19.0991   26.9188 O   0  0  0  0  0  0  0  0  0  0  0  0
  2  1  1  0
  3  5  1  0
  3  2  1  0
  3  4  1  6
  5  6  2  0
  8  7  1  1
  8  9  1  0
  8 10  1  0
 11 10  1  1
 11 13  1  0
 12 11  1  0
 12  5  1  0
 13 20  1  0
 13 14  2  0
 15 16  1  0
 16 17  1  0
 17 18  1  0
 19 18  1  1
 19 21  1  0
 20 19  1  0
 21 22  1  0
 23 21  2  0
M  END
$$$$
