DCA.pdb
     RDKit          3D

 20 19  0  0  1  0  0  0  0  0999 V2000
    9.2351  -15.8348   20.1922 N   0  0  0  0  0  0  0  0  0  0  0  0
    9.6892  -16.5789   21.4116 C   0  0  1  0  0  0  0  0  0  0  0  0
   11.1519  -16.8018   21.1759 C   0  0  0  0  0  0  0  0  0  0  0  0
   11.4749  -17.8915   20.2765 C   0  0  0  0  0  0  0  0  0  0  0  0
   11.5711  -17.7634   19.0592 O   0  0  0  0  0  0  0  0  0  0  0  0
    9.4126  -15.6670   22.5594 C   0  0  0  0  0  0  0  0  0  0  0  0
    9.9577  -14.5135   22.5760 O   0  0  0  0  0  0  0  0  0  0  0  0
   11.6970  -19.1870   20.8045 O   0  0  0  0  0  0  0  0  0  0  0  0
    8.5780  -15.9677   23.6561 N   0  0  0  0  0  0  0  0  0  0  0  0
    8.3532  -15.0020   24.7046 C   0  0  1  0  0  0  0  0  0  0  0  0
    6.8969  -14.9581   25.1261 C   0  0  0  0  0  0  0  0  0  0  0  0
    6.6401  -13.7286   26.4284 S   0  0  0  0  0  0  0  0  0  0  0  0
    9.2151  -15.2589   25.8864 C   0  0  0  0  0  0  0  0  0  0  0  0
    9.6763  -16.4164   26.1530 O   0  0  0  0  0  0  0  0  0  0  0  0
   10.4303  -13.2740   28.8898 C   0  0  0  0  0  0  0  0  0  0  0  0
   10.4335  -14.4549   27.9422 C   0  0  2  0  0  0  0  0  0  0  0  0
    9.5806  -14.2297   26.7956 N   0  0  0  0  0  0  0  0  0  0  0  0
    9.9024  -15.6223   28.6847 C   0  0  0  0  0  0  0  0  0  0  0  0
    8.7063  -16.0004   28.4929 O   0  0  0  0  0  0  0  0  0  0  0  0
   10.6771  -16.3063   29.5781 O   0  0  0  0  0  0  0  0  0  0  0  0
  2  1  1  6
  3  2  1  0
  3  4  1  0
  4  5  2  0
  6  2  1  0
  6  7  2  0
  8  4  1  0
  9  6  1  0
 10  9  1  0
 10 11  1  1
 12 11  1  0
 13 10  1  0
 14 13  2  0
 16 15  1  1
 16 17  1  0
 16 18  1  0
 17 13  1  0
 18 20  1  0
 19 18  2  0
M  END
$$$$
