DCA.pdb
     RDKit          3D

 20 19  0  0  1  0  0  0  0  0999 V2000
    7.5333  -17.5371   19.1666 N   0  0  0  0  0  0  0  0  0  0  0  0
    8.9851  -17.8293   19.3982 C   0  0  1  0  0  0  0  0  0  0  0  0
    9.6080  -17.6635   18.0457 C   0  0  0  0  0  0  0  0  0  0  0  0
   10.9839  -18.1066   17.9392 C   0  0  0  0  0  0  0  0  0  0  0  0
   11.8932  -17.4049   17.5052 O   0  0  0  0  0  0  0  0  0  0  0  0
    9.4436  -16.8079   20.3840 C   0  0  0  0  0  0  0  0  0  0  0  0
   10.6117  -16.3101   20.2585 O   0  0  0  0  0  0  0  0  0  0  0  0
   11.3265  -19.4177   18.3518 O   0  0  0  0  0  0  0  0  0  0  0  0
    8.6834  -16.3244   21.4695 N   0  0  0  0  0  0  0  0  0  0  0  0
    9.3231  -15.7187   22.6124 C   0  0  1  0  0  0  0  0  0  0  0  0
    8.5885  -14.4748   23.0745 C   0  0  0  0  0  0  0  0  0  0  0  0
    6.8246  -14.8129   23.2940 S   0  0  0  0  0  0  0  0  0  0  0  0
    9.4594  -16.6750   23.7405 C   0  0  0  0  0  0  0  0  0  0  0  0
    8.5416  -17.5058   24.0423 O   0  0  0  0  0  0  0  0  0  0  0  0
   12.2389  -18.0702   25.8192 C   0  0  0  0  0  0  0  0  0  0  0  0
   10.7899  -17.6712   25.6364 C   0  0  2  0  0  0  0  0  0  0  0  0
   10.6226  -16.7245   24.5553 N   0  0  0  0  0  0  0  0  0  0  0  0
   10.3473  -17.0165   26.8900 C   0  0  0  0  0  0  0  0  0  0  0  0
   10.1107  -15.7698   26.9005 O   0  0  0  0  0  0  0  0  0  0  0  0
   10.1870  -17.7300   28.0439 O   0  0  0  0  0  0  0  0  0  0  0  0
  2  1  1  6
  3  2  1  0
  3  4  1  0
  4  5  2  0
  6  2  1  0
  6  7  2  0
  8  4  1  0
  9  6  1  0
 10  9  1  0
 10 11  1  1
 12 11  1  0
 13 10  1  0
 14 13  2  0
 16 15  1  1
 16 17  1  0
 16 18  1  0
 17 13  1  0
 18 20  1  0
 19 18  2  0
M  END
$$$$
