DCA.pdb
     RDKit          3D

 20 19  0  0  1  0  0  0  0  0999 V2000
    8.7127  -14.7369   20.4919 N   0  0  0  0  0  0  0  0  0  0  0  0
    8.2271  -15.6444   21.5817 C   0  0  1  0  0  0  0  0  0  0  0  0
    9.0395  -16.8906   21.4038 C   0  0  0  0  0  0  0  0  0  0  0  0
    8.6857  -17.7017   20.2559 C   0  0  0  0  0  0  0  0  0  0  0  0
    8.6045  -18.9264   20.2870 O   0  0  0  0  0  0  0  0  0  0  0  0
    8.5233  -14.9284   22.8564 C   0  0  0  0  0  0  0  0  0  0  0  0
    9.7377  -14.6716   23.1518 O   0  0  0  0  0  0  0  0  0  0  0  0
    8.4133  -17.0722   19.0164 O   0  0  0  0  0  0  0  0  0  0  0  0
    7.5590  -14.4928   23.7893 N   0  0  0  0  0  0  0  0  0  0  0  0
    7.9544  -13.8770   25.0330 C   0  0  1  0  0  0  0  0  0  0  0  0
    6.7901  -13.1804   25.7109 C   0  0  0  0  0  0  0  0  0  0  0  0
    7.3096  -12.4304   27.2733 S   0  0  0  0  0  0  0  0  0  0  0  0
    8.5698  -14.8572   25.9637 C   0  0  0  0  0  0  0  0  0  0  0  0
    8.0033  -15.9585   26.2634 O   0  0  0  0  0  0  0  0  0  0  0  0
   11.9602  -15.3570   27.5562 C   0  0  0  0  0  0  0  0  0  0  0  0
   10.4676  -15.5900   27.4530 C   0  0  2  0  0  0  0  0  0  0  0  0
    9.8301  -14.6292   26.5793 N   0  0  0  0  0  0  0  0  0  0  0  0
    9.8967  -15.4229   28.8103 C   0  0  0  0  0  0  0  0  0  0  0  0
   10.2191  -16.2313   29.7338 O   0  0  0  0  0  0  0  0  0  0  0  0
    9.0242  -14.4102   29.0926 O   0  0  0  0  0  0  0  0  0  0  0  0
  2  1  1  6
  3  2  1  0
  3  4  1  0
  4  5  2  0
  6  2  1  0
  6  7  2  0
  8  4  1  0
  9  6  1  0
 10  9  1  0
 10 11  1  1
 12 11  1  0
 13 10  1  0
 14 13  2  0
 16 15  1  1
 16 17  1  0
 16 18  1  0
 17 13  1  0
 18 20  1  0
 19 18  2  0
M  END
$$$$
