DCA.pdb
     RDKit          3D

 20 19  0  0  1  0  0  0  0  0999 V2000
    8.0829  -13.0022   17.2755 N   0  0  0  0  0  0  0  0  0  0  0  0
    7.9766  -14.4056   17.7912 C   0  0  1  0  0  0  0  0  0  0  0  0
    8.8780  -15.1920   16.8889 C   0  0  0  0  0  0  0  0  0  0  0  0
    8.3727  -15.4126   15.5485 C   0  0  0  0  0  0  0  0  0  0  0  0
    9.0578  -15.3003   14.5359 O   0  0  0  0  0  0  0  0  0  0  0  0
    8.4624  -14.3489   19.2005 C   0  0  0  0  0  0  0  0  0  0  0  0
    9.6919  -14.0872   19.4191 O   0  0  0  0  0  0  0  0  0  0  0  0
    7.0163  -15.7791   15.3677 O   0  0  0  0  0  0  0  0  0  0  0  0
    7.6661  -14.5589   20.3458 N   0  0  0  0  0  0  0  0  0  0  0  0
    8.2340  -14.4773   21.6699 C   0  0  1  0  0  0  0  0  0  0  0  0
    7.1924  -14.1021   22.7065 C   0  0  0  0  0  0  0  0  0  0  0  0
    7.8965  -14.1474   24.3726 S   0  0  0  0  0  0  0  0  0  0  0  0
    8.9059  -15.7425   22.0618 C   0  0  0  0  0  0  0  0  0  0  0  0
    8.3503  -16.8802   21.9183 O   0  0  0  0  0  0  0  0  0  0  0  0
   12.3720  -16.9153   22.7970 C   0  0  0  0  0  0  0  0  0  0  0  0
   10.8769  -16.9842   23.0262 C   0  0  2  0  0  0  0  0  0  0  0  0
   10.2117  -15.7648   22.6219 N   0  0  0  0  0  0  0  0  0  0  0  0
   10.6579  -17.1637   24.4809 C   0  0  0  0  0  0  0  0  0  0  0  0
   10.0514  -16.2666   25.1425 O   0  0  0  0  0  0  0  0  0  0  0  0
   11.0975  -18.2818   25.1312 O   0  0  0  0  0  0  0  0  0  0  0  0
  2  1  1  6
  3  2  1  0
  3  4  1  0
  4  5  2  0
  6  2  1  0
  6  7  2  0
  8  4  1  0
  9  6  1  0
 10  9  1  0
 10 11  1  1
 12 11  1  0
 13 10  1  0
 14 13  2  0
 16 15  1  1
 16 17  1  0
 16 18  1  0
 17 13  1  0
 18 20  1  0
 19 18  2  0
M  END
$$$$
