DCA.pdb
     RDKit          3D

 20 19  0  0  1  0  0  0  0  0999 V2000
   11.2072  -17.3155   16.7176 N   0  0  0  0  0  0  0  0  0  0  0  0
   11.5832  -18.3334   17.7518 C   0  0  1  0  0  0  0  0  0  0  0  0
   13.0058  -18.6720   17.4258 C   0  0  0  0  0  0  0  0  0  0  0  0
   13.2155  -19.2791   16.1265 C   0  0  0  0  0  0  0  0  0  0  0  0
   12.5998  -20.2638   15.7280 O   0  0  0  0  0  0  0  0  0  0  0  0
   11.4313  -17.6409   19.0644 C   0  0  0  0  0  0  0  0  0  0  0  0
   12.3660  -16.8718   19.4678 O   0  0  0  0  0  0  0  0  0  0  0  0
   14.1786  -18.7258   15.2472 O   0  0  0  0  0  0  0  0  0  0  0  0
   10.3179  -17.7569   19.9227 N   0  0  0  0  0  0  0  0  0  0  0  0
   10.2340  -16.9838   21.1383 C   0  0  1  0  0  0  0  0  0  0  0  0
    8.8244  -16.4843   21.3910 C   0  0  0  0  0  0  0  0  0  0  0  0
    8.2380  -15.4820   20.0035 S   0  0  0  0  0  0  0  0  0  0  0  0
   10.7185  -17.7498   22.3148 C   0  0  0  0  0  0  0  0  0  0  0  0
   10.3003  -18.9236   22.5812 O   0  0  0  0  0  0  0  0  0  0  0  0
   13.3448  -17.2726   25.0205 C   0  0  0  0  0  0  0  0  0  0  0  0
   12.1411  -17.9386   24.3879 C   0  0  2  0  0  0  0  0  0  0  0  0
   11.6800  -17.2223   23.2185 N   0  0  0  0  0  0  0  0  0  0  0  0
   11.0495  -17.9284   25.3901 C   0  0  0  0  0  0  0  0  0  0  0  0
   10.0173  -17.2177   25.1908 O   0  0  0  0  0  0  0  0  0  0  0  0
   11.1296  -18.6727   26.5329 O   0  0  0  0  0  0  0  0  0  0  0  0
  2  1  1  6
  3  2  1  0
  3  4  1  0
  4  5  2  0
  6  2  1  0
  6  7  2  0
  8  4  1  0
  9  6  1  0
 10  9  1  0
 10 11  1  1
 12 11  1  0
 13 10  1  0
 14 13  2  0
 16 15  1  1
 16 17  1  0
 16 18  1  0
 17 13  1  0
 18 20  1  0
 19 18  2  0
M  END
$$$$
