DCA.pdb
     RDKit          3D

 20 19  0  0  1  0  0  0  0  0999 V2000
    7.7649  -12.9142   18.7010 N   0  0  0  0  0  0  0  0  0  0  0  0
    7.7943  -14.2789   19.3204 C   0  0  1  0  0  0  0  0  0  0  0  0
    8.5635  -15.1064   18.3364 C   0  0  0  0  0  0  0  0  0  0  0  0
    7.8574  -15.4277   17.1120 C   0  0  0  0  0  0  0  0  0  0  0  0
    6.6337  -15.4249   17.0114 O   0  0  0  0  0  0  0  0  0  0  0  0
    8.5014  -14.1090   20.6229 C   0  0  0  0  0  0  0  0  0  0  0  0
    9.5408  -13.3704   20.6687 O   0  0  0  0  0  0  0  0  0  0  0  0
    8.5955  -15.7674   15.9517 O   0  0  0  0  0  0  0  0  0  0  0  0
    8.1147  -14.7015   21.8432 N   0  0  0  0  0  0  0  0  0  0  0  0
    8.9397  -14.5811   23.0211 C   0  0  1  0  0  0  0  0  0  0  0  0
    8.2325  -13.8228   24.1280 C   0  0  0  0  0  0  0  0  0  0  0  0
    6.5799  -14.4999   24.4184 S   0  0  0  0  0  0  0  0  0  0  0  0
    9.3865  -15.9065   23.5205 C   0  0  0  0  0  0  0  0  0  0  0  0
    8.6228  -16.9265   23.5188 O   0  0  0  0  0  0  0  0  0  0  0  0
   12.6656  -17.5766   24.1725 C   0  0  0  0  0  0  0  0  0  0  0  0
   11.1819  -17.4236   24.4327 C   0  0  2  0  0  0  0  0  0  0  0  0
   10.6947  -16.1216   24.0321 N   0  0  0  0  0  0  0  0  0  0  0  0
   10.9700  -17.5614   25.8930 C   0  0  0  0  0  0  0  0  0  0  0  0
   10.4976  -16.5881   26.5561 O   0  0  0  0  0  0  0  0  0  0  0  0
   11.2740  -18.7218   26.5468 O   0  0  0  0  0  0  0  0  0  0  0  0
  2  1  1  6
  3  2  1  0
  3  4  1  0
  4  5  2  0
  6  2  1  0
  6  7  2  0
  8  4  1  0
  9  6  1  0
 10  9  1  0
 10 11  1  1
 12 11  1  0
 13 10  1  0
 14 13  2  0
 16 15  1  1
 16 17  1  0
 16 18  1  0
 17 13  1  0
 18 20  1  0
 19 18  2  0
M  END
$$$$
