FQM.pdb
     RDKit          3D

 29 29  0  0  1  0  0  0  0  0999 V2000
   27.8042  -19.8575  -15.6158 N   0  0  0  0  0  0  0  0  0  0  0  0
   28.1815  -20.3554  -14.3232 C   0  0  1  0  0  0  0  0  0  0  0  0
   29.4961  -19.7211  -13.8991 C   0  0  0  0  0  0  0  0  0  0  0  0
   29.9265  -20.3570  -12.6328 C   0  0  0  0  0  0  0  0  0  0  0  0
   30.8732  -21.3840  -12.6693 C   0  0  0  0  0  0  0  0  0  0  0  0
   31.3206  -22.0171  -11.5320 C   0  0  0  0  0  0  0  0  0  0  0  0
   30.7861  -21.5891  -10.3260 C   0  0  0  0  0  0  0  0  0  0  0  0
   29.8485  -20.5790  -10.2352 C   0  0  0  0  0  0  0  0  0  0  0  0
   29.4267  -19.9705  -11.3995 C   0  0  0  0  0  0  0  0  0  0  0  0
   27.1176  -19.9489  -13.3514 C   0  0  0  0  0  0  0  0  0  0  0  0
   26.7605  -18.7449  -13.2352 O   0  0  0  0  0  0  0  0  0  0  0  0
   22.3240  -19.5117  -11.6327 N   0  0  0  0  0  0  0  0  0  0  0  0
   22.6393  -19.6579  -13.0026 C   0  0  0  0  0  0  0  0  0  0  0  0
   22.1409  -18.9339  -13.8832 O   0  0  0  0  0  0  0  0  0  0  0  0
   23.6173  -20.7291  -13.4317 C   0  0  0  0  0  0  0  0  0  0  0  0
   24.1729  -21.3808  -12.2066 C   0  0  0  0  0  0  0  0  0  0  0  0
   25.4024  -20.7235  -11.6718 C   0  0  2  0  0  0  0  0  0  0  0  0
   26.5312  -20.9697  -12.5704 N   0  0  0  0  0  0  0  0  0  0  0  0
   25.8160  -21.0840  -10.3249 C   0  0  0  0  0  0  0  0  0  0  0  0
   26.3295  -22.2481  -10.1450 O   0  0  0  0  0  0  0  0  0  0  0  0
   29.1242  -18.4972   -5.2803 C   0  0  0  0  0  0  0  0  0  0  0  0
   27.5211  -18.9356   -4.5566 S   0  0  0  0  0  0  0  0  0  0  0  0
   26.7567  -20.2076   -5.6243 C   0  0  0  0  0  0  0  0  0  0  0  0
   26.6441  -19.7206   -7.0383 C   0  0  0  0  0  0  0  0  0  0  0  0
   25.9658  -20.7832   -7.8791 C   0  0  2  0  0  0  0  0  0  0  0  0
   25.6858  -20.2183   -9.2145 N   0  0  0  0  0  0  0  0  0  0  0  0
   24.6643  -21.1383   -7.3124 C   0  0  0  0  0  0  0  0  0  0  0  0
   24.4558  -21.9124   -6.1702 O   0  0  0  0  0  0  0  0  0  0  0  0
   23.5861  -20.7438   -7.8590 O   0  0  0  0  0  0  0  0  0  0  0  0
  2  1  1  6
  2 10  1  0
  2  3  1  0
  3  4  1  0
  4  5  2  0
  4  9  1  0
  5  6  1  0
  6  7  2  0
  8  7  1  0
  9  8  2  0
 10 18  1  0
 11 10  2  0
 13 15  1  0
 13 12  1  0
 14 13  2  0
 17 16  1  6
 16 15  1  0
 18 17  1  0
 19 17  1  0
 19 20  2  0
 21 22  1  0
 22 23  1  0
 23 24  1  0
 25 24  1  1
 25 26  1  0
 25 27  1  0
 26 19  1  0
 27 28  1  0
 29 27  2  0
M  END
$$$$
