FQM.pdb
     RDKit          3D

 29 29  0  0  1  0  0  0  0  0999 V2000
   23.6959  -20.3260  -17.9093 N   0  0  0  0  0  0  0  0  0  0  0  0
   23.7198  -19.9022  -16.5378 C   0  0  1  0  0  0  0  0  0  0  0  0
   22.2972  -19.8086  -16.0108 C   0  0  0  0  0  0  0  0  0  0  0  0
   21.5924  -18.7529  -16.7735 C   0  0  0  0  0  0  0  0  0  0  0  0
   21.7828  -17.4133  -16.4250 C   0  0  0  0  0  0  0  0  0  0  0  0
   21.1626  -16.3812  -17.0919 C   0  0  0  0  0  0  0  0  0  0  0  0
   20.3260  -16.7278  -18.1422 C   0  0  0  0  0  0  0  0  0  0  0  0
   20.1039  -18.0356  -18.5267 C   0  0  0  0  0  0  0  0  0  0  0  0
   20.7451  -19.0403  -17.8318 C   0  0  0  0  0  0  0  0  0  0  0  0
   24.4542  -20.9445  -15.7529 C   0  0  0  0  0  0  0  0  0  0  0  0
   24.7456  -22.0625  -16.2587 O   0  0  0  0  0  0  0  0  0  0  0  0
   29.5380  -20.9864  -13.0411 N   0  0  0  0  0  0  0  0  0  0  0  0
   28.9487  -19.8439  -13.6286 C   0  0  0  0  0  0  0  0  0  0  0  0
   29.5244  -18.7416  -13.6681 O   0  0  0  0  0  0  0  0  0  0  0  0
   27.5676  -19.9473  -14.2367 C   0  0  0  0  0  0  0  0  0  0  0  0
   27.0898  -21.3560  -14.0890 C   0  0  0  0  0  0  0  0  0  0  0  0
   25.6796  -21.4737  -13.6126 C   0  0  2  0  0  0  0  0  0  0  0  0
   24.8062  -20.6236  -14.4229 N   0  0  0  0  0  0  0  0  0  0  0  0
   25.4239  -21.1722  -12.2129 C   0  0  0  0  0  0  0  0  0  0  0  0
   25.1696  -19.9528  -11.8973 O   0  0  0  0  0  0  0  0  0  0  0  0
   27.7328  -18.1308   -7.3047 C   0  0  0  0  0  0  0  0  0  0  0  0
   27.1486  -19.8177   -6.9900 S   0  0  0  0  0  0  0  0  0  0  0  0
   25.6939  -20.1120   -8.0574 C   0  0  0  0  0  0  0  0  0  0  0  0
   26.1097  -20.6769   -9.3830 C   0  0  0  0  0  0  0  0  0  0  0  0
   25.0927  -21.7093   -9.8261 C   0  0  2  0  0  0  0  0  0  0  0  0
   25.4363  -22.1512  -11.1927 N   0  0  0  0  0  0  0  0  0  0  0  0
   23.7592  -21.1144   -9.9199 C   0  0  0  0  0  0  0  0  0  0  0  0
   22.9082  -21.1896  -11.0234 O   0  0  0  0  0  0  0  0  0  0  0  0
   23.2705  -20.4542   -8.9493 O   0  0  0  0  0  0  0  0  0  0  0  0
  2  1  1  6
  2 10  1  0
  2  3  1  0
  3  4  1  0
  4  5  2  0
  4  9  1  0
  5  6  1  0
  6  7  2  0
  8  7  1  0
  9  8  2  0
 10 18  1  0
 11 10  2  0
 13 15  1  0
 13 12  1  0
 14 13  2  0
 17 16  1  6
 16 15  1  0
 18 17  1  0
 19 17  1  0
 19 20  2  0
 21 22  1  0
 22 23  1  0
 23 24  1  0
 25 24  1  6
 25 26  1  0
 25 27  1  0
 26 19  1  0
 27 28  1  0
 29 27  2  0
M  END
$$$$
