FQM.pdb
     RDKit          3D

 29 29  0  0  1  0  0  0  0  0999 V2000
   26.0783  -18.6660   -8.1240 N   0  0  0  0  0  0  0  0  0  0  0  0
   26.4832  -19.9505   -8.6214 C   0  0  1  0  0  0  0  0  0  0  0  0
   26.4871  -20.9573   -7.4826 C   0  0  0  0  0  0  0  0  0  0  0  0
   27.5144  -20.5385   -6.5016 C   0  0  0  0  0  0  0  0  0  0  0  0
   27.1181  -20.1436   -5.2213 C   0  0  0  0  0  0  0  0  0  0  0  0
   28.0183  -19.7453   -4.2593 C   0  0  0  0  0  0  0  0  0  0  0  0
   29.3586  -19.7511   -4.6157 C   0  0  0  0  0  0  0  0  0  0  0  0
   29.8025  -20.1322   -5.8667 C   0  0  0  0  0  0  0  0  0  0  0  0
   28.8671  -20.5245   -6.8021 C   0  0  0  0  0  0  0  0  0  0  0  0
   25.4740  -20.3823   -9.6395 C   0  0  0  0  0  0  0  0  0  0  0  0
   24.2363  -20.2620   -9.4285 O   0  0  0  0  0  0  0  0  0  0  0  0
   29.2112  -20.2208  -14.6024 N   0  0  0  0  0  0  0  0  0  0  0  0
   28.2396  -19.2091  -14.7758 C   0  0  0  0  0  0  0  0  0  0  0  0
   28.4711  -18.1628  -15.4081 O   0  0  0  0  0  0  0  0  0  0  0  0
   26.8622  -19.3886  -14.1772 C   0  0  0  0  0  0  0  0  0  0  0  0
   27.0113  -20.0020  -12.8222 C   0  0  0  0  0  0  0  0  0  0  0  0
   25.7155  -20.3146  -12.1495 C   0  0  2  0  0  0  0  0  0  0  0  0
   25.9657  -20.9300  -10.8453 N   0  0  0  0  0  0  0  0  0  0  0  0
   24.7795  -21.1617  -12.8716 C   0  0  0  0  0  0  0  0  0  0  0  0
   24.8617  -22.4323  -12.6985 O   0  0  0  0  0  0  0  0  0  0  0  0
   23.2399  -25.8042  -13.9336 C   0  0  0  0  0  0  0  0  0  0  0  0
   21.5996  -25.1008  -14.2505 S   0  0  0  0  0  0  0  0  0  0  0  0
   21.4579  -23.5577  -13.2803 C   0  0  0  0  0  0  0  0  0  0  0  0
   22.7556  -22.8059  -13.2803 C   0  0  0  0  0  0  0  0  0  0  0  0
   22.5303  -21.4223  -13.8556 C   0  0  2  0  0  0  0  0  0  0  0  0
   23.7878  -20.6561  -13.7436 N   0  0  0  0  0  0  0  0  0  0  0  0
   21.5413  -20.6885  -13.0654 C   0  0  0  0  0  0  0  0  0  0  0  0
   20.1554  -20.7992  -13.1867 O   0  0  0  0  0  0  0  0  0  0  0  0
   21.9055  -19.8577  -12.1743 O   0  0  0  0  0  0  0  0  0  0  0  0
  2  1  1  1
  2 10  1  0
  2  3  1  0
  3  4  1  0
  4  5  2  0
  4  9  1  0
  5  6  1  0
  6  7  2  0
  8  7  1  0
  9  8  2  0
 10 18  1  0
 11 10  2  0
 13 15  1  0
 13 12  1  0
 14 13  2  0
 17 16  1  6
 16 15  1  0
 18 17  1  0
 19 17  1  0
 19 20  2  0
 21 22  1  0
 22 23  1  0
 23 24  1  0
 25 24  1  1
 25 26  1  0
 25 27  1  0
 26 19  1  0
 27 28  1  0
 29 27  2  0
M  END
$$$$
