FQM.pdb
     RDKit          3D

 29 29  0  0  1  0  0  0  0  0999 V2000
   30.6891  -27.6350  -19.7052 N   0  0  0  0  0  0  0  0  0  0  0  0
   29.6833  -28.2907  -18.9181 C   0  0  1  0  0  0  0  0  0  0  0  0
   30.1576  -28.4006  -17.4781 C   0  0  0  0  0  0  0  0  0  0  0  0
   31.1932  -29.4572  -17.4141 C   0  0  0  0  0  0  0  0  0  0  0  0
   32.5413  -29.1013  -17.5050 C   0  0  0  0  0  0  0  0  0  0  0  0
   33.5558  -30.0299  -17.4501 C   0  0  0  0  0  0  0  0  0  0  0  0
   33.1823  -31.3567  -17.2981 C   0  0  0  0  0  0  0  0  0  0  0  0
   31.8650  -31.7611  -17.2034 C   0  0  0  0  0  0  0  0  0  0  0  0
   30.8786  -30.7982  -17.2631 C   0  0  0  0  0  0  0  0  0  0  0  0
   28.4520  -27.4398  -18.9536 C   0  0  0  0  0  0  0  0  0  0  0  0
   28.5250  -26.1808  -18.9765 O   0  0  0  0  0  0  0  0  0  0  0  0
   23.3633  -25.5664  -20.6034 N   0  0  0  0  0  0  0  0  0  0  0  0
   24.5195  -24.7609  -20.7123 C   0  0  0  0  0  0  0  0  0  0  0  0
   24.4631  -23.5408  -20.9498 O   0  0  0  0  0  0  0  0  0  0  0  0
   25.8842  -25.3890  -20.5363 C   0  0  0  0  0  0  0  0  0  0  0  0
   25.7114  -26.8682  -20.4085 C   0  0  0  0  0  0  0  0  0  0  0  0
   25.9311  -27.3897  -19.0268 C   0  0  2  0  0  0  0  0  0  0  0  0
   27.2060  -28.1055  -18.9600 N   0  0  0  0  0  0  0  0  0  0  0  0
   24.9025  -28.2555  -18.4721 C   0  0  0  0  0  0  0  0  0  0  0  0
   23.7154  -27.7784  -18.3525 O   0  0  0  0  0  0  0  0  0  0  0  0
   21.1370  -27.5811  -15.2575 C   0  0  0  0  0  0  0  0  0  0  0  0
   21.2608  -29.2908  -14.6680 S   0  0  0  0  0  0  0  0  0  0  0  0
   22.1184  -30.2639  -15.9565 C   0  0  0  0  0  0  0  0  0  0  0  0
   23.2389  -29.4742  -16.5648 C   0  0  0  0  0  0  0  0  0  0  0  0
   23.9983  -30.3539  -17.5373 C   0  0  2  0  0  0  0  0  0  0  0  0
   25.1447  -29.5884  -18.0671 N   0  0  0  0  0  0  0  0  0  0  0  0
   23.1660  -30.6833  -18.6948 C   0  0  0  0  0  0  0  0  0  0  0  0
   23.6186  -31.2336  -19.8947 O   0  0  0  0  0  0  0  0  0  0  0  0
   21.9121  -30.4729  -18.6769 O   0  0  0  0  0  0  0  0  0  0  0  0
  2  1  1  6
  2 10  1  0
  2  3  1  0
  3  4  1  0
  4  5  2  0
  4  9  1  0
  5  6  1  0
  6  7  2  0
  8  7  1  0
  9  8  2  0
 10 18  1  0
 11 10  2  0
 13 15  1  0
 13 12  1  0
 14 13  2  0
 17 16  1  6
 16 15  1  0
 18 17  1  0
 19 17  1  0
 19 20  2  0
 21 22  1  0
 22 23  1  0
 23 24  1  0
 25 24  1  1
 25 26  1  0
 25 27  1  0
 26 19  1  0
 27 28  1  0
 29 27  2  0
M  END
$$$$
