FQM.pdb
     RDKit          3D

 29 29  0  0  1  0  0  0  0  0999 V2000
   27.0083  -20.0065  -15.4607 N   0  0  0  0  0  0  0  0  0  0  0  0
   27.5649  -18.9744  -14.6323 C   0  0  1  0  0  0  0  0  0  0  0  0
   27.3752  -17.6253  -15.3064 C   0  0  0  0  0  0  0  0  0  0  0  0
   28.0894  -17.6545  -16.6034 C   0  0  0  0  0  0  0  0  0  0  0  0
   27.3542  -17.6193  -17.7910 C   0  0  0  0  0  0  0  0  0  0  0  0
   27.9518  -17.6405  -19.0307 C   0  0  0  0  0  0  0  0  0  0  0  0
   29.3371  -17.6992  -19.0568 C   0  0  0  0  0  0  0  0  0  0  0  0
   30.1100  -17.7359  -17.9127 C   0  0  0  0  0  0  0  0  0  0  0  0
   29.4712  -17.7129  -16.6900 C   0  0  0  0  0  0  0  0  0  0  0  0
   26.8112  -18.9741  -13.3387 C   0  0  0  0  0  0  0  0  0  0  0  0
   26.9965  -18.0771  -12.4717 O   0  0  0  0  0  0  0  0  0  0  0  0
   21.4752  -22.0583  -13.1818 N   0  0  0  0  0  0  0  0  0  0  0  0
   21.4980  -21.6448  -11.8305 C   0  0  0  0  0  0  0  0  0  0  0  0
   20.5783  -21.9103  -11.0356 O   0  0  0  0  0  0  0  0  0  0  0  0
   22.6765  -20.8493  -11.3147 C   0  0  0  0  0  0  0  0  0  0  0  0
   23.6839  -20.7301  -12.4125 C   0  0  0  0  0  0  0  0  0  0  0  0
   24.9366  -20.0213  -12.0150 C   0  0  2  0  0  0  0  0  0  0  0  0
   25.8848  -20.0200  -13.1300 N   0  0  0  0  0  0  0  0  0  0  0  0
   25.6326  -20.5129  -10.8365 C   0  0  0  0  0  0  0  0  0  0  0  0
   26.1600  -21.6833  -10.8942 O   0  0  0  0  0  0  0  0  0  0  0  0
   29.5011  -19.7692   -4.1391 C   0  0  0  0  0  0  0  0  0  0  0  0
   28.9310  -18.9419   -5.6479 S   0  0  0  0  0  0  0  0  0  0  0  0
   27.8067  -20.0887   -6.5215 C   0  0  0  0  0  0  0  0  0  0  0  0
   27.3436  -19.4972   -7.8196 C   0  0  0  0  0  0  0  0  0  0  0  0
   26.3655  -20.4478   -8.4799 C   0  0  2  0  0  0  0  0  0  0  0  0
   25.7598  -19.7670   -9.6420 N   0  0  0  0  0  0  0  0  0  0  0  0
   25.2583  -20.7609   -7.5759 C   0  0  0  0  0  0  0  0  0  0  0  0
   23.9139  -20.4593   -7.7978 O   0  0  0  0  0  0  0  0  0  0  0  0
   25.4669  -21.3560   -6.4717 O   0  0  0  0  0  0  0  0  0  0  0  0
  2  1  1  6
  2 10  1  0
  2  3  1  0
  3  4  1  0
  4  5  2  0
  4  9  1  0
  5  6  1  0
  6  7  2  0
  8  7  1  0
  9  8  2  0
 10 18  1  0
 11 10  2  0
 13 15  1  0
 13 12  1  0
 14 13  2  0
 17 16  1  6
 16 15  1  0
 18 17  1  0
 19 17  1  0
 19 20  2  0
 21 22  1  0
 22 23  1  0
 23 24  1  0
 25 24  1  1
 25 26  1  0
 25 27  1  0
 26 19  1  0
 27 28  1  0
 29 27  2  0
M  END
$$$$
