FQM.pdb
     RDKit          3D

 29 29  0  0  1  0  0  0  0  0999 V2000
   16.2299  -22.0203  -21.9820 N   0  0  0  0  0  0  0  0  0  0  0  0
   15.2266  -21.5327  -21.0782 C   0  0  1  0  0  0  0  0  0  0  0  0
   14.0103  -22.4428  -21.1313 C   0  0  0  0  0  0  0  0  0  0  0  0
   13.3066  -22.1963  -22.4108 C   0  0  0  0  0  0  0  0  0  0  0  0
   13.5746  -23.0174  -23.5090 C   0  0  0  0  0  0  0  0  0  0  0  0
   12.9557  -22.8477  -24.7267 C   0  0  0  0  0  0  0  0  0  0  0  0
   12.0390  -21.8116  -24.8239 C   0  0  0  0  0  0  0  0  0  0  0  0
   11.7383  -20.9720  -23.7693 C   0  0  0  0  0  0  0  0  0  0  0  0
   12.3813  -21.1765  -22.5657 C   0  0  0  0  0  0  0  0  0  0  0  0
   15.7995  -21.5783  -19.6957 C   0  0  0  0  0  0  0  0  0  0  0  0
   16.7508  -22.3537  -19.4050 O   0  0  0  0  0  0  0  0  0  0  0  0
   19.3064  -19.4841  -16.6285 N   0  0  0  0  0  0  0  0  0  0  0  0
   18.3701  -19.9476  -15.6766 C   0  0  0  0  0  0  0  0  0  0  0  0
   18.6487  -20.8235  -14.8380 O   0  0  0  0  0  0  0  0  0  0  0  0
   16.9730  -19.3681  -15.6626 C   0  0  0  0  0  0  0  0  0  0  0  0
   16.4155  -19.4436  -17.0474 C   0  0  0  0  0  0  0  0  0  0  0  0
   15.6655  -20.7026  -17.3339 C   0  0  2  0  0  0  0  0  0  0  0  0
   15.2301  -20.7174  -18.7312 N   0  0  0  0  0  0  0  0  0  0  0  0
   14.5081  -20.9905  -16.5017 C   0  0  0  0  0  0  0  0  0  0  0  0
   13.3763  -20.4939  -16.8533 O   0  0  0  0  0  0  0  0  0  0  0  0
   13.2198  -25.1097  -11.0796 C   0  0  0  0  0  0  0  0  0  0  0  0
   12.1261  -25.3625  -12.5029 S   0  0  0  0  0  0  0  0  0  0  0  0
   12.0416  -23.7876  -13.4275 C   0  0  0  0  0  0  0  0  0  0  0  0
   13.3922  -23.4053  -13.9557 C   0  0  0  0  0  0  0  0  0  0  0  0
   13.2995  -22.0505  -14.6280 C   0  0  2  0  0  0  0  0  0  0  0  0
   14.5687  -21.7893  -15.3365 N   0  0  0  0  0  0  0  0  0  0  0  0
   13.1695  -20.9867  -13.6318 C   0  0  0  0  0  0  0  0  0  0  0  0
   14.1091  -20.6692  -12.6501 O   0  0  0  0  0  0  0  0  0  0  0  0
   12.1339  -20.2496  -13.5970 O   0  0  0  0  0  0  0  0  0  0  0  0
  2  1  1  6
  2 10  1  0
  2  3  1  0
  3  4  1  0
  4  5  2  0
  4  9  1  0
  5  6  1  0
  6  7  2  0
  8  7  1  0
  9  8  2  0
 10 18  1  0
 11 10  2  0
 13 15  1  0
 13 12  1  0
 14 13  2  0
 17 16  1  1
 16 15  1  0
 18 17  1  0
 19 17  1  0
 19 20  2  0
 21 22  1  0
 22 23  1  0
 23 24  1  0
 25 24  1  1
 25 26  1  0
 25 27  1  0
 26 19  1  0
 27 28  1  0
 29 27  2  0
M  END
$$$$
