FQM.pdb
     RDKit          3D

 29 29  0  0  1  0  0  0  0  0999 V2000
   19.3844  -23.6054  -13.0844 N   0  0  0  0  0  0  0  0  0  0  0  0
   19.2845  -23.2968  -11.6859 C   0  0  1  0  0  0  0  0  0  0  0  0
   18.4696  -22.0267  -11.5035 C   0  0  0  0  0  0  0  0  0  0  0  0
   17.1854  -22.1970  -12.2213 C   0  0  0  0  0  0  0  0  0  0  0  0
   16.0420  -22.5566  -11.5033 C   0  0  0  0  0  0  0  0  0  0  0  0
   14.8159  -22.7290  -12.1047 C   0  0  0  0  0  0  0  0  0  0  0  0
   14.7575  -22.5285  -13.4757 C   0  0  0  0  0  0  0  0  0  0  0  0
   15.8575  -22.1724  -14.2312 C   0  0  0  0  0  0  0  0  0  0  0  0
   17.0680  -22.0097  -13.5892 C   0  0  0  0  0  0  0  0  0  0  0  0
   18.5639  -24.4283  -11.0211 C   0  0  0  0  0  0  0  0  0  0  0  0
   17.8802  -25.2524  -11.6875 O   0  0  0  0  0  0  0  0  0  0  0  0
   21.2802  -28.5880  -10.2128 N   0  0  0  0  0  0  0  0  0  0  0  0
   19.9386  -29.0307  -10.2514 C   0  0  0  0  0  0  0  0  0  0  0  0
   19.6236  -30.1744  -10.6267 O   0  0  0  0  0  0  0  0  0  0  0  0
   18.8319  -28.0923   -9.8240 C   0  0  0  0  0  0  0  0  0  0  0  0
   19.4498  -26.8150   -9.3539 C   0  0  0  0  0  0  0  0  0  0  0  0
   18.4617  -25.7912   -8.9010 C   0  0  2  0  0  0  0  0  0  0  0  0
   18.6815  -24.5339   -9.6173 N   0  0  0  0  0  0  0  0  0  0  0  0
   18.4183  -25.4937   -7.4781 C   0  0  0  0  0  0  0  0  0  0  0  0
   19.3742  -24.7935   -6.9809 O   0  0  0  0  0  0  0  0  0  0  0  0
   14.8374  -25.4182   -0.4929 C   0  0  0  0  0  0  0  0  0  0  0  0
   14.6189  -25.8009   -2.2512 S   0  0  0  0  0  0  0  0  0  0  0  0
   16.2411  -25.6020   -3.0706 C   0  0  0  0  0  0  0  0  0  0  0  0
   16.1171  -25.7903   -4.5533 C   0  0  0  0  0  0  0  0  0  0  0  0
   17.4647  -25.5454   -5.2015 C   0  0  2  0  0  0  0  0  0  0  0  0
   17.3789  -25.9304   -6.6246 N   0  0  0  0  0  0  0  0  0  0  0  0
   18.4869  -26.4108   -4.6123 C   0  0  0  0  0  0  0  0  0  0  0  0
   19.3648  -26.0553   -3.5874 O   0  0  0  0  0  0  0  0  0  0  0  0
   18.6475  -27.6031   -5.0240 O   0  0  0  0  0  0  0  0  0  0  0  0
  2  1  1  6
  2 10  1  0
  2  3  1  0
  3  4  1  0
  4  5  2  0
  4  9  1  0
  5  6  1  0
  6  7  2  0
  8  7  1  0
  9  8  2  0
 10 18  1  0
 11 10  2  0
 13 15  1  0
 13 12  1  0
 14 13  2  0
 17 16  1  1
 16 15  1  0
 18 17  1  0
 19 17  1  0
 19 20  2  0
 21 22  1  0
 22 23  1  0
 23 24  1  0
 25 24  1  1
 25 26  1  0
 25 27  1  0
 26 19  1  0
 27 28  1  0
 29 27  2  0
M  END
$$$$
