FQM.pdb
     RDKit          3D

 29 29  0  0  1  0  0  0  0  0999 V2000
   23.5549  -19.0712  -16.9833 N   0  0  0  0  0  0  0  0  0  0  0  0
   23.8917  -19.9771  -15.9216 C   0  0  1  0  0  0  0  0  0  0  0  0
   24.2913  -19.1857  -14.6870 C   0  0  0  0  0  0  0  0  0  0  0  0
   25.5616  -18.4837  -14.9815 C   0  0  0  0  0  0  0  0  0  0  0  0
   26.7372  -19.2255  -15.1226 C   0  0  0  0  0  0  0  0  0  0  0  0
   27.9517  -18.6397  -15.3991 C   0  0  0  0  0  0  0  0  0  0  0  0
   27.9643  -17.2596  -15.5349 C   0  0  0  0  0  0  0  0  0  0  0  0
   26.8312  -16.4806  -15.4052 C   0  0  0  0  0  0  0  0  0  0  0  0
   25.6339  -17.1076  -15.1277 C   0  0  0  0  0  0  0  0  0  0  0  0
   22.6677  -20.7780  -15.6023 C   0  0  0  0  0  0  0  0  0  0  0  0
   21.5175  -20.2620  -15.6410 O   0  0  0  0  0  0  0  0  0  0  0  0
   22.9130  -26.9092  -16.1452 N   0  0  0  0  0  0  0  0  0  0  0  0
   21.6132  -26.8171  -15.5979 C   0  0  0  0  0  0  0  0  0  0  0  0
   20.8744  -27.8090  -15.4619 O   0  0  0  0  0  0  0  0  0  0  0  0
   21.0847  -25.4706  -15.1559 C   0  0  0  0  0  0  0  0  0  0  0  0
   22.1320  -24.4390  -15.4269 C   0  0  0  0  0  0  0  0  0  0  0  0
   21.7367  -23.0531  -15.0366 C   0  0  2  0  0  0  0  0  0  0  0  0
   22.8551  -22.1346  -15.2556 N   0  0  0  0  0  0  0  0  0  0  0  0
   21.2564  -22.8570  -13.6779 C   0  0  0  0  0  0  0  0  0  0  0  0
   22.1174  -22.5526  -12.7739 O   0  0  0  0  0  0  0  0  0  0  0  0
   20.9199  -18.3000  -12.0221 C   0  0  0  0  0  0  0  0  0  0  0  0
   19.1950  -18.6819  -11.6161 S   0  0  0  0  0  0  0  0  0  0  0  0
   18.8761  -20.4128  -12.1105 C   0  0  0  0  0  0  0  0  0  0  0  0
   19.9026  -21.3342  -11.5217 C   0  0  0  0  0  0  0  0  0  0  0  0
   19.5583  -22.7636  -11.8883 C   0  0  2  0  0  0  0  0  0  0  0  0
   19.8966  -22.9791  -13.3095 N   0  0  0  0  0  0  0  0  0  0  0  0
   18.1172  -22.9926  -11.7794 C   0  0  0  0  0  0  0  0  0  0  0  0
   17.3988  -23.1181  -10.5896 O   0  0  0  0  0  0  0  0  0  0  0  0
   17.3941  -23.1005  -12.8198 O   0  0  0  0  0  0  0  0  0  0  0  0
  2  1  1  6
  2 10  1  0
  2  3  1  0
  3  4  1  0
  4  5  2  0
  4  9  1  0
  5  6  1  0
  6  7  2  0
  8  7  1  0
  9  8  2  0
 10 18  1  0
 11 10  2  0
 13 15  1  0
 13 12  1  0
 14 13  2  0
 17 16  1  1
 16 15  1  0
 18 17  1  0
 19 17  1  0
 19 20  2  0
 21 22  1  0
 22 23  1  0
 23 24  1  0
 25 24  1  6
 25 26  1  0
 25 27  1  0
 26 19  1  0
 27 28  1  0
 29 27  2  0
M  END
$$$$
