FQM.pdb
     RDKit          3D

 29 29  0  0  1  0  0  0  0  0999 V2000
   28.0793  -21.1229   -9.1154 N   0  0  0  0  0  0  0  0  0  0  0  0
   26.7294  -20.6769   -8.9156 C   0  0  1  0  0  0  0  0  0  0  0  0
   26.7373  -19.3603   -8.1559 C   0  0  0  0  0  0  0  0  0  0  0  0
   27.3399  -19.6008   -6.8247 C   0  0  0  0  0  0  0  0  0  0  0  0
   28.4922  -18.9009   -6.4580 C   0  0  0  0  0  0  0  0  0  0  0  0
   29.1034  -19.0723   -5.2367 C   0  0  0  0  0  0  0  0  0  0  0  0
   28.5211  -19.9828   -4.3677 C   0  0  0  0  0  0  0  0  0  0  0  0
   27.3829  -20.6997   -4.6813 C   0  0  0  0  0  0  0  0  0  0  0  0
   26.8016  -20.4981   -5.9162 C   0  0  0  0  0  0  0  0  0  0  0  0
   26.1221  -20.4481  -10.2648 C   0  0  0  0  0  0  0  0  0  0  0  0
   26.4873  -19.4861  -10.9941 O   0  0  0  0  0  0  0  0  0  0  0  0
   27.7532  -21.1023  -14.1963 N   0  0  0  0  0  0  0  0  0  0  0  0
   26.5073  -21.7681  -14.2412 C   0  0  0  0  0  0  0  0  0  0  0  0
   25.6795  -21.5747  -15.1498 O   0  0  0  0  0  0  0  0  0  0  0  0
   26.1508  -22.7557  -13.1524 C   0  0  0  0  0  0  0  0  0  0  0  0
   24.7248  -22.5353  -12.7620 C   0  0  0  0  0  0  0  0  0  0  0  0
   24.4898  -21.2711  -12.0031 C   0  0  2  0  0  0  0  0  0  0  0  0
   25.1235  -21.3541  -10.6863 N   0  0  0  0  0  0  0  0  0  0  0  0
   23.1084  -20.8594  -11.8095 C   0  0  0  0  0  0  0  0  0  0  0  0
   22.6652  -20.7890  -10.6055 O   0  0  0  0  0  0  0  0  0  0  0  0
   21.8272  -16.5653  -16.5777 C   0  0  0  0  0  0  0  0  0  0  0  0
   21.1096  -16.6732  -14.9165 S   0  0  0  0  0  0  0  0  0  0  0  0
   21.2475  -18.4096  -14.3615 C   0  0  0  0  0  0  0  0  0  0  0  0
   20.8401  -18.5449  -12.9246 C   0  0  0  0  0  0  0  0  0  0  0  0
   20.9050  -20.0047  -12.5232 C   0  0  2  0  0  0  0  0  0  0  0  0
   22.2394  -20.5302  -12.8754 N   0  0  0  0  0  0  0  0  0  0  0  0
   19.9456  -20.7961  -13.2941 C   0  0  0  0  0  0  0  0  0  0  0  0
   18.5591  -20.7767  -13.1367 O   0  0  0  0  0  0  0  0  0  0  0  0
   20.3398  -21.5954  -14.2011 O   0  0  0  0  0  0  0  0  0  0  0  0
  2  1  1  6
  2 10  1  0
  2  3  1  0
  3  4  1  0
  4  5  2  0
  4  9  1  0
  5  6  1  0
  6  7  2  0
  8  7  1  0
  9  8  2  0
 10 18  1  0
 11 10  2  0
 13 15  1  0
 13 12  1  0
 14 13  2  0
 17 16  1  1
 16 15  1  0
 18 17  1  0
 19 17  1  0
 19 20  2  0
 21 22  1  0
 22 23  1  0
 23 24  1  0
 25 24  1  6
 25 26  1  0
 25 27  1  0
 26 19  1  0
 27 28  1  0
 29 27  2  0
M  END
$$$$
