CPN.pdb
     RDKit          3D

 22 22  0  0  1  0  0  0  0  0999 V2000
    5.5460  -14.1203   26.4907 N   0  0  0  0  0  0  0  0  0  0  0  0
    6.5004  -13.5528   25.5992 C   0  0  1  0  0  0  0  0  0  0  0  0
    7.4915  -12.7318   26.4142 C   0  0  0  0  0  0  0  0  0  0  0  0
    6.6319  -11.2515   27.0261 S   0  0  0  0  0  0  0  0  0  0  0  0
    7.1744  -14.5678   24.7813 C   0  0  0  0  0  0  0  0  0  0  0  0
    7.4277  -15.6966   25.3383 O   0  0  0  0  0  0  0  0  0  0  0  0
    7.5716  -14.4142   23.4292 N   0  0  0  0  0  0  0  0  0  0  0  0
    7.2655  -13.2501   22.6326 C   0  0  0  0  0  0  0  0  0  0  0  0
    7.8312  -13.4336   21.2703 C   0  0  0  0  0  0  0  0  0  0  0  0
    8.3223  -14.8405   21.2345 C   0  0  0  0  0  0  0  0  0  0  0  0
    8.3195  -15.3638   22.6494 C   0  0  1  0  0  0  0  0  0  0  0  0
    9.7109  -15.5187   23.1220 C   0  0  0  0  0  0  0  0  0  0  0  0
   10.1662  -14.7412   23.9831 O   0  0  0  0  0  0  0  0  0  0  0  0
   11.6661  -19.7209   26.0083 N   0  0  0  0  0  0  0  0  0  0  0  0
   11.8453  -18.3649   25.5875 C   0  0  0  0  0  0  0  0  0  0  0  0
   12.8719  -17.8012   26.0409 O   0  0  0  0  0  0  0  0  0  0  0  0
   10.8819  -17.7162   24.6935 C   0  0  0  0  0  0  0  0  0  0  0  0
   11.5233  -17.1779   23.4496 C   0  0  2  0  0  0  0  0  0  0  0  0
   10.5216  -16.5382   22.6047 N   0  0  0  0  0  0  0  0  0  0  0  0
   12.2977  -18.1761   22.7333 C   0  0  0  0  0  0  0  0  0  0  0  0
   11.6453  -19.0472   22.0560 O   0  0  0  0  0  0  0  0  0  0  0  0
   13.6559  -18.3105   22.6860 O   0  0  0  0  0  0  0  0  0  0  0  0
  2  1  1  1
  2  5  1  0
  3  2  1  0
  4  3  1  0
  5  7  1  0
  6  5  2  0
  7  8  1  0
  7 11  1  0
  9  8  1  0
 10  9  1  0
 10 11  1  0
 11 12  1  1
 12 19  1  0
 12 13  2  0
 15 14  1  0
 15 17  1  0
 16 15  2  0
 18 20  1  0
 18 17  1  1
 19 18  1  0
 20 22  1  0
 21 20  2  0
M  END
$$$$
