CPN.pdb
     RDKit          3D

 22 22  0  0  1  0  0  0  0  0999 V2000
   10.3931  -16.8939   18.7578 N   0  0  0  0  0  0  0  0  0  0  0  0
    9.2142  -16.8438   19.5549 C   0  0  1  0  0  0  0  0  0  0  0  0
    8.5290  -18.2026   19.4866 C   0  0  0  0  0  0  0  0  0  0  0  0
    7.0469  -18.1424   20.5375 S   0  0  0  0  0  0  0  0  0  0  0  0
    9.4912  -16.4409   20.9385 C   0  0  0  0  0  0  0  0  0  0  0  0
   10.5197  -16.9594   21.5058 O   0  0  0  0  0  0  0  0  0  0  0  0
    8.7244  -15.5289   21.7065 N   0  0  0  0  0  0  0  0  0  0  0  0
    7.5551  -14.8466   21.2058 C   0  0  0  0  0  0  0  0  0  0  0  0
    7.0102  -13.9711   22.2764 C   0  0  0  0  0  0  0  0  0  0  0  0
    8.0181  -14.0176   23.3736 C   0  0  0  0  0  0  0  0  0  0  0  0
    8.9772  -15.1413   23.0685 C   0  0  1  0  0  0  0  0  0  0  0  0
    8.7628  -16.2475   24.0246 C   0  0  0  0  0  0  0  0  0  0  0  0
    7.9186  -17.1302   23.7764 O   0  0  0  0  0  0  0  0  0  0  0  0
   12.1876  -20.2357   25.5870 N   0  0  0  0  0  0  0  0  0  0  0  0
   10.8319  -19.7961   25.4578 C   0  0  0  0  0  0  0  0  0  0  0  0
    9.9699  -20.6084   25.8752 O   0  0  0  0  0  0  0  0  0  0  0  0
   10.5123  -18.4889   24.8770 C   0  0  0  0  0  0  0  0  0  0  0  0
    9.7852  -17.5951   25.8366 C   0  0  2  0  0  0  0  0  0  0  0  0
    9.5064  -16.3078   25.2110 N   0  0  0  0  0  0  0  0  0  0  0  0
   10.4679  -17.4564   27.1109 C   0  0  0  0  0  0  0  0  0  0  0  0
   11.4716  -16.6602   27.1531 O   0  0  0  0  0  0  0  0  0  0  0  0
   10.1748  -18.0751   28.2926 O   0  0  0  0  0  0  0  0  0  0  0  0
  2  1  1  6
  2  5  1  0
  3  2  1  0
  4  3  1  0
  5  7  1  0
  6  5  2  0
  7  8  1  0
  7 11  1  0
  9  8  1  0
 10  9  1  0
 10 11  1  0
 11 12  1  1
 12 19  1  0
 12 13  2  0
 15 14  1  0
 15 17  1  0
 16 15  2  0
 18 20  1  0
 18 17  1  6
 19 18  1  0
 20 22  1  0
 21 20  2  0
M  END
$$$$
