CPN.pdb
     RDKit          3D

 22 22  0  0  1  0  0  0  0  0999 V2000
    9.0837  -15.3488   14.8424 N   0  0  0  0  0  0  0  0  0  0  0  0
    8.3329  -15.4744   16.0459 C   0  0  1  0  0  0  0  0  0  0  0  0
    7.7371  -16.8755   16.0974 C   0  0  0  0  0  0  0  0  0  0  0  0
    7.0413  -17.1338   17.7568 S   0  0  0  0  0  0  0  0  0  0  0  0
    9.1345  -15.1777   17.2387 C   0  0  0  0  0  0  0  0  0  0  0  0
   10.3024  -15.7067   17.3072 O   0  0  0  0  0  0  0  0  0  0  0  0
    8.7350  -14.3580   18.3241 N   0  0  0  0  0  0  0  0  0  0  0  0
    7.4274  -13.7564   18.4336 C   0  0  0  0  0  0  0  0  0  0  0  0
    7.3625  -12.9653   19.6904 C   0  0  0  0  0  0  0  0  0  0  0  0
    8.7526  -12.9671   20.2286 C   0  0  0  0  0  0  0  0  0  0  0  0
    9.5411  -13.9980   19.4597 C   0  0  1  0  0  0  0  0  0  0  0  0
    9.8362  -15.1500   20.3369 C   0  0  0  0  0  0  0  0  0  0  0  0
    8.9939  -16.0579   20.4767 O   0  0  0  0  0  0  0  0  0  0  0  0
   12.6251  -17.8337   19.0402 N   0  0  0  0  0  0  0  0  0  0  0  0
   12.4584  -18.0764   20.4406 C   0  0  0  0  0  0  0  0  0  0  0  0
   12.1383  -19.2535   20.7394 O   0  0  0  0  0  0  0  0  0  0  0  0
   12.6552  -17.0066   21.4229 C   0  0  0  0  0  0  0  0  0  0  0  0
   11.3645  -16.3771   21.8545 C   0  0  2  0  0  0  0  0  0  0  0  0
   11.0614  -15.2255   21.0130 N   0  0  0  0  0  0  0  0  0  0  0  0
   11.3372  -16.0527   23.2698 C   0  0  0  0  0  0  0  0  0  0  0  0
   11.5380  -14.8287   23.5933 O   0  0  0  0  0  0  0  0  0  0  0  0
   11.1214  -16.8972   24.3212 O   0  0  0  0  0  0  0  0  0  0  0  0
  2  1  1  6
  2  5  1  0
  3  2  1  0
  4  3  1  0
  5  7  1  0
  6  5  2  0
  7  8  1  0
  7 11  1  0
  9  8  1  0
 10  9  1  0
 10 11  1  0
 11 12  1  1
 12 19  1  0
 12 13  2  0
 15 14  1  0
 15 17  1  0
 16 15  2  0
 18 20  1  0
 18 17  1  6
 19 18  1  0
 20 22  1  0
 21 20  2  0
M  END
$$$$
