CPN.pdb
     RDKit          3D

 22 22  0  0  1  0  0  0  0  0999 V2000
    6.5188  -17.9816   17.8897 N   0  0  0  0  0  0  0  0  0  0  0  0
    6.2598  -16.7353   18.5279 C   0  0  1  0  0  0  0  0  0  0  0  0
    4.9921  -16.8754   19.3608 C   0  0  0  0  0  0  0  0  0  0  0  0
    5.4228  -17.7272   20.9079 S   0  0  0  0  0  0  0  0  0  0  0  0
    7.3952  -16.2736   19.3349 C   0  0  0  0  0  0  0  0  0  0  0  0
    8.2532  -17.1564   19.6996 O   0  0  0  0  0  0  0  0  0  0  0  0
    7.6306  -14.9383   19.7486 N   0  0  0  0  0  0  0  0  0  0  0  0
    6.7081  -13.8533   19.5135 C   0  0  0  0  0  0  0  0  0  0  0  0
    7.2794  -12.6018   20.0766 C   0  0  0  0  0  0  0  0  0  0  0  0
    8.6683  -12.9537   20.4879 C   0  0  0  0  0  0  0  0  0  0  0  0
    8.7923  -14.4566   20.4468 C   0  0  1  0  0  0  0  0  0  0  0  0
    8.8878  -14.9827   21.8243 C   0  0  0  0  0  0  0  0  0  0  0  0
    7.8588  -15.3532   22.4220 O   0  0  0  0  0  0  0  0  0  0  0  0
   11.0696  -18.4969   24.7752 N   0  0  0  0  0  0  0  0  0  0  0  0
   10.6618  -18.6410   23.4111 C   0  0  0  0  0  0  0  0  0  0  0  0
   10.7173  -19.8129   22.9629 O   0  0  0  0  0  0  0  0  0  0  0  0
   10.2186  -17.4845   22.6274 C   0  0  0  0  0  0  0  0  0  0  0  0
   10.4285  -16.1864   23.3481 C   0  0  2  0  0  0  0  0  0  0  0  0
   10.1329  -15.0667   22.4621 N   0  0  0  0  0  0  0  0  0  0  0  0
   11.7435  -16.0812   23.9554 C   0  0  0  0  0  0  0  0  0  0  0  0
   11.8039  -16.1445   25.2343 O   0  0  0  0  0  0  0  0  0  0  0  0
   12.9471  -15.9206   23.3303 O   0  0  0  0  0  0  0  0  0  0  0  0
  2  1  1  1
  2  5  1  0
  3  2  1  0
  4  3  1  0
  5  7  1  0
  6  5  2  0
  7  8  1  0
  7 11  1  0
  9  8  1  0
 10  9  1  0
 10 11  1  0
 11 12  1  1
 12 19  1  0
 12 13  2  0
 15 14  1  0
 15 17  1  0
 16 15  2  0
 18 20  1  0
 18 17  1  6
 19 18  1  0
 20 22  1  0
 21 20  2  0
M  END
$$$$
