CPN.pdb
     RDKit          3D

 22 22  0  0  1  0  0  0  0  0999 V2000
    5.5596  -13.8625   26.3481 N   0  0  0  0  0  0  0  0  0  0  0  0
    6.5381  -13.3647   25.4412 C   0  0  1  0  0  0  0  0  0  0  0  0
    7.6520  -12.7091   26.2474 C   0  0  0  0  0  0  0  0  0  0  0  0
    6.9996  -11.1735   26.9693 S   0  0  0  0  0  0  0  0  0  0  0  0
    7.0528  -14.4074   24.5461 C   0  0  0  0  0  0  0  0  0  0  0  0
    7.1783  -15.5889   25.0327 O   0  0  0  0  0  0  0  0  0  0  0  0
    7.4245  -14.2274   23.1900 N   0  0  0  0  0  0  0  0  0  0  0  0
    7.2229  -12.9978   22.4614 C   0  0  0  0  0  0  0  0  0  0  0  0
    7.7254  -13.1700   21.0730 C   0  0  0  0  0  0  0  0  0  0  0  0
    8.0600  -14.6176   20.9525 C   0  0  0  0  0  0  0  0  0  0  0  0
    8.0420  -15.2098   22.3398 C   0  0  1  0  0  0  0  0  0  0  0  0
    9.4218  -15.5364   22.7559 C   0  0  0  0  0  0  0  0  0  0  0  0
   10.0056  -14.8210   23.5929 O   0  0  0  0  0  0  0  0  0  0  0  0
   12.6109  -17.8799   25.8772 N   0  0  0  0  0  0  0  0  0  0  0  0
   11.6597  -18.5297   25.0281 C   0  0  0  0  0  0  0  0  0  0  0  0
   11.7627  -19.7803   24.9776 O   0  0  0  0  0  0  0  0  0  0  0  0
   10.6552  -17.7600   24.2887 C   0  0  0  0  0  0  0  0  0  0  0  0
   11.1527  -17.3001   22.9510 C   0  0  2  0  0  0  0  0  0  0  0  0
   10.0773  -16.6493   22.2119 N   0  0  0  0  0  0  0  0  0  0  0  0
   11.7885  -18.3595   22.1876 C   0  0  0  0  0  0  0  0  0  0  0  0
   12.9998  -18.6515   22.4889 O   0  0  0  0  0  0  0  0  0  0  0  0
   11.2545  -19.0994   21.1715 O   0  0  0  0  0  0  0  0  0  0  0  0
  2  1  1  1
  2  5  1  0
  3  2  1  0
  4  3  1  0
  5  7  1  0
  6  5  2  0
  7  8  1  0
  7 11  1  0
  9  8  1  0
 10  9  1  0
 10 11  1  0
 11 12  1  1
 12 19  1  0
 12 13  2  0
 15 14  1  0
 15 17  1  0
 16 15  2  0
 18 20  1  0
 18 17  1  1
 19 18  1  0
 20 22  1  0
 21 20  2  0
M  END
$$$$
