CPN.pdb
     RDKit          3D

 22 22  0  0  1  0  0  0  0  0999 V2000
    8.0713  -14.3274   21.2165 N   0  0  0  0  0  0  0  0  0  0  0  0
    7.3810  -14.3759   22.4611 C   0  0  1  0  0  0  0  0  0  0  0  0
    6.7765  -15.7648   22.6224 C   0  0  0  0  0  0  0  0  0  0  0  0
    5.5990  -16.0307   21.2631 S   0  0  0  0  0  0  0  0  0  0  0  0
    8.2442  -14.0211   23.5936 C   0  0  0  0  0  0  0  0  0  0  0  0
    9.4995  -14.2623   23.4726 O   0  0  0  0  0  0  0  0  0  0  0  0
    7.8163  -13.4349   24.8113 N   0  0  0  0  0  0  0  0  0  0  0  0
    6.4568  -13.0221   25.0664 C   0  0  0  0  0  0  0  0  0  0  0  0
    6.3739  -12.4496   26.4357 C   0  0  0  0  0  0  0  0  0  0  0  0
    7.7836  -12.3649   26.9127 C   0  0  0  0  0  0  0  0  0  0  0  0
    8.6397  -13.1597   25.9582 C   0  0  1  0  0  0  0  0  0  0  0  0
    9.1147  -14.3890   26.6265 C   0  0  0  0  0  0  0  0  0  0  0  0
    8.3705  -15.3862   26.6978 O   0  0  0  0  0  0  0  0  0  0  0  0
   11.6488  -17.3837   30.2743 N   0  0  0  0  0  0  0  0  0  0  0  0
   10.3521  -17.2032   29.6967 C   0  0  0  0  0  0  0  0  0  0  0  0
    9.5808  -18.1879   29.8088 O   0  0  0  0  0  0  0  0  0  0  0  0
    9.9875  -15.9487   29.0322 C   0  0  0  0  0  0  0  0  0  0  0  0
   10.8637  -15.6460   27.8536 C   0  0  2  0  0  0  0  0  0  0  0  0
   10.4009  -14.4378   27.1810 N   0  0  0  0  0  0  0  0  0  0  0  0
   10.9991  -16.7701   26.9441 C   0  0  0  0  0  0  0  0  0  0  0  0
   11.4548  -17.8648   27.4309 O   0  0  0  0  0  0  0  0  0  0  0  0
   10.6985  -16.8142   25.6126 O   0  0  0  0  0  0  0  0  0  0  0  0
  2  1  1  6
  2  5  1  0
  3  2  1  0
  4  3  1  0
  5  7  1  0
  6  5  2  0
  7  8  1  0
  7 11  1  0
  9  8  1  0
 10  9  1  0
 10 11  1  0
 11 12  1  1
 12 19  1  0
 12 13  2  0
 15 14  1  0
 15 17  1  0
 16 15  2  0
 18 20  1  0
 18 17  1  1
 19 18  1  0
 20 22  1  0
 21 20  2  0
M  END
$$$$
