CPN.pdb
     RDKit          3D

 22 22  0  0  1  0  0  0  0  0999 V2000
    9.9659  -15.3963   14.8634 N   0  0  0  0  0  0  0  0  0  0  0  0
    8.9465  -15.2228   15.8424 C   0  0  1  0  0  0  0  0  0  0  0  0
    8.0797  -16.4753   15.8618 C   0  0  0  0  0  0  0  0  0  0  0  0
    7.2804  -16.6355   14.2369 S   0  0  0  0  0  0  0  0  0  0  0  0
    9.4921  -14.9157   17.1696 C   0  0  0  0  0  0  0  0  0  0  0  0
   10.6653  -15.3623   17.4393 O   0  0  0  0  0  0  0  0  0  0  0  0
    8.8395  -14.1690   18.1826 N   0  0  0  0  0  0  0  0  0  0  0  0
    7.5234  -13.5958   18.0319 C   0  0  0  0  0  0  0  0  0  0  0  0
    7.1600  -12.8826   19.2845 C   0  0  0  0  0  0  0  0  0  0  0  0
    8.3964  -12.8948   20.1170 C   0  0  0  0  0  0  0  0  0  0  0  0
    9.3644  -13.8651   19.4869 C   0  0  1  0  0  0  0  0  0  0  0  0
    9.4914  -15.0629   20.3430 C   0  0  0  0  0  0  0  0  0  0  0  0
    8.7106  -16.0223   20.1911 O   0  0  0  0  0  0  0  0  0  0  0  0
   11.3895  -19.7195   20.7996 N   0  0  0  0  0  0  0  0  0  0  0  0
   12.0820  -18.4972   21.0717 C   0  0  0  0  0  0  0  0  0  0  0  0
   13.1696  -18.6302   21.6854 O   0  0  0  0  0  0  0  0  0  0  0  0
   11.5321  -17.2057   20.6501 C   0  0  0  0  0  0  0  0  0  0  0  0
   10.9757  -16.4153   21.7965 C   0  0  2  0  0  0  0  0  0  0  0  0
   10.4881  -15.1240   21.3263 N   0  0  0  0  0  0  0  0  0  0  0  0
   11.9083  -16.2870   22.9024 C   0  0  0  0  0  0  0  0  0  0  0  0
   11.8721  -17.1952   23.8063 O   0  0  0  0  0  0  0  0  0  0  0  0
   12.8364  -15.3068   23.1092 O   0  0  0  0  0  0  0  0  0  0  0  0
  2  1  1  6
  2  5  1  0
  3  2  1  0
  4  3  1  0
  5  7  1  0
  6  5  2  0
  7  8  1  0
  7 11  1  0
  9  8  1  0
 10  9  1  0
 10 11  1  0
 11 12  1  1
 12 19  1  0
 12 13  2  0
 15 14  1  0
 15 17  1  0
 16 15  2  0
 18 20  1  0
 18 17  1  6
 19 18  1  0
 20 22  1  0
 21 20  2  0
M  END
$$$$
