DLD.pdb
     RDKit          3D

 25 24  0  0  1  0  0  0  0  0999 V2000
   22.7541  -11.5664  -19.3816 N   0  0  0  0  0  0  0  0  0  0  0  0
   21.3842  -11.6751  -18.7978 C   0  0  1  0  0  0  0  0  0  0  0  0
   21.1378  -13.1425  -18.7325 C   0  0  0  0  0  0  0  0  0  0  0  0
   21.0832  -13.8675  -19.9890 C   0  0  0  0  0  0  0  0  0  0  0  0
   21.1170  -13.2394  -21.0758 O   0  0  0  0  0  0  0  0  0  0  0  0
   21.3247  -10.9359  -17.5395 C   0  0  0  0  0  0  0  0  0  0  0  0
   20.3481  -10.9743  -16.7607 O   0  0  0  0  0  0  0  0  0  0  0  0
   20.9949  -15.2531  -20.0966 O   0  0  0  0  0  0  0  0  0  0  0  0
   26.0764  -10.2303  -14.9913 C   0  0  0  0  0  0  0  0  0  0  0  0
   24.9138   -9.6124  -15.7141 C   0  0  2  0  0  0  0  0  0  0  0  0
   25.2077   -8.0918  -15.7441 C   0  0  0  0  0  0  0  0  0  0  0  0
   23.5946   -9.7722  -15.1124 C   0  0  0  0  0  0  0  0  0  0  0  0
   22.3428   -9.3863  -15.7977 C   0  0  2  0  0  0  0  0  0  0  0  0
   22.4026  -10.1132  -17.1272 N   0  0  0  0  0  0  0  0  0  0  0  0
   22.1521   -7.9898  -16.1691 C   0  0  0  0  0  0  0  0  0  0  0  0
   22.6058   -7.6241  -17.3237 O   0  0  0  0  0  0  0  0  0  0  0  0
   21.5224   -6.9951  -15.4237 N   0  0  0  0  0  0  0  0  0  0  0  0
   21.3610   -5.6571  -15.9484 C   0  0  1  0  0  0  0  0  0  0  0  0
   19.9333   -5.4294  -16.4349 C   0  0  0  0  0  0  0  0  0  0  0  0
   19.7087   -4.0907  -16.9900 C   0  0  0  0  0  0  0  0  0  0  0  0
   20.6634   -3.3037  -17.1413 O   0  0  0  0  0  0  0  0  0  0  0  0
   21.6953   -4.6487  -14.9629 C   0  0  0  0  0  0  0  0  0  0  0  0
   22.6274   -3.6597  -15.1638 O   0  0  0  0  0  0  0  0  0  0  0  0
   18.4408   -3.6917  -17.3515 O   0  0  0  0  0  0  0  0  0  0  0  0
   21.1078   -4.6666  -13.8552 O   0  0  0  0  0  0  0  0  0  0  0  0
  2  1  1  1
  2  6  1  0
  2  3  1  0
  3  4  1  0
  4  5  2  0
  4  8  1  0
  6  7  2  0
 10  9  1  1
 10 12  1  0
 11 10  1  0
 13 12  1  6
 14 13  1  0
 14  6  1  0
 15 13  1  0
 16 15  2  0
 17 15  1  0
 18 17  1  0
 18 19  1  1
 19 20  1  0
 20 21  2  0
 22 18  1  0
 23 22  1  0
 24 20  1  0
 25 22  2  0
M  END
$$$$
