DLD.pdb
     RDKit          3D

 25 24  0  0  1  0  0  0  0  0999 V2000
   20.2426  -12.4477  -16.2789 N   0  0  0  0  0  0  0  0  0  0  0  0
   20.5234  -11.1827  -17.0205 C   0  0  1  0  0  0  0  0  0  0  0  0
   19.1745  -10.5938  -17.2484 C   0  0  0  0  0  0  0  0  0  0  0  0
   18.2562  -11.3346  -18.0943 C   0  0  0  0  0  0  0  0  0  0  0  0
   18.7036  -12.1062  -18.9781 O   0  0  0  0  0  0  0  0  0  0  0  0
   21.4819  -10.3745  -16.2711 C   0  0  0  0  0  0  0  0  0  0  0  0
   21.3669  -10.1178  -15.0535 O   0  0  0  0  0  0  0  0  0  0  0  0
   16.8684  -11.2613  -18.0050 O   0  0  0  0  0  0  0  0  0  0  0  0
   26.0859  -10.6287  -14.8524 C   0  0  0  0  0  0  0  0  0  0  0  0
   25.6600  -10.5195  -16.2886 C   0  0  2  0  0  0  0  0  0  0  0  0
   26.9737  -10.5183  -17.1094 C   0  0  0  0  0  0  0  0  0  0  0  0
   24.9233   -9.3214  -16.6753 C   0  0  0  0  0  0  0  0  0  0  0  0
   23.5993   -8.9728  -16.1175 C   0  0  2  0  0  0  0  0  0  0  0  0
   22.6231   -9.8241  -16.9062 N   0  0  0  0  0  0  0  0  0  0  0  0
   23.1030   -7.6139  -16.2944 C   0  0  0  0  0  0  0  0  0  0  0  0
   22.7182   -7.2815  -17.4836 O   0  0  0  0  0  0  0  0  0  0  0  0
   22.9826   -6.6243  -15.3208 N   0  0  0  0  0  0  0  0  0  0  0  0
   22.4312   -5.3257  -15.6392 C   0  0  1  0  0  0  0  0  0  0  0  0
   21.8906   -4.6400  -14.3884 C   0  0  0  0  0  0  0  0  0  0  0  0
   21.2388   -3.3545  -14.6589 C   0  0  0  0  0  0  0  0  0  0  0  0
   21.8918   -2.4053  -15.1348 O   0  0  0  0  0  0  0  0  0  0  0  0
   23.4118   -4.4645  -16.2689 C   0  0  0  0  0  0  0  0  0  0  0  0
   23.1382   -3.6432  -17.3356 O   0  0  0  0  0  0  0  0  0  0  0  0
   19.8981   -3.1850  -14.3919 O   0  0  0  0  0  0  0  0  0  0  0  0
   24.5847   -4.4574  -15.8256 O   0  0  0  0  0  0  0  0  0  0  0  0
  2  1  1  1
  2  6  1  0
  2  3  1  0
  3  4  1  0
  4  5  2  0
  4  8  1  0
  6  7  2  0
 10  9  1  1
 10 12  1  0
 11 10  1  0
 13 12  1  6
 14 13  1  0
 14  6  1  0
 15 13  1  0
 16 15  2  0
 17 15  1  0
 18 17  1  0
 18 19  1  1
 19 20  1  0
 20 21  2  0
 22 18  1  0
 23 22  1  0
 24 20  1  0
 25 22  2  0
M  END
$$$$
