DLD.pdb
     RDKit          3D

 25 24  0  0  1  0  0  0  0  0999 V2000
   20.9612  -12.0144  -17.8479 N   0  0  0  0  0  0  0  0  0  0  0  0
   20.3508  -11.8347  -16.4972 C   0  0  1  0  0  0  0  0  0  0  0  0
   20.2569  -13.2203  -15.9591 C   0  0  0  0  0  0  0  0  0  0  0  0
   19.3963  -14.1536  -16.6632 C   0  0  0  0  0  0  0  0  0  0  0  0
   18.2968  -13.7631  -17.1272 O   0  0  0  0  0  0  0  0  0  0  0  0
   21.1363  -10.8753  -15.7252 C   0  0  0  0  0  0  0  0  0  0  0  0
   20.8951  -10.5838  -14.5341 O   0  0  0  0  0  0  0  0  0  0  0  0
   19.6980  -15.4961  -16.8780 O   0  0  0  0  0  0  0  0  0  0  0  0
   25.5121  -11.0053  -14.2484 C   0  0  0  0  0  0  0  0  0  0  0  0
   25.1973  -10.6829  -15.6812 C   0  0  2  0  0  0  0  0  0  0  0  0
   26.5707  -10.5292  -16.3807 C   0  0  0  0  0  0  0  0  0  0  0  0
   24.4556   -9.4537  -15.9397 C   0  0  0  0  0  0  0  0  0  0  0  0
   23.0672   -9.2371  -15.4806 C   0  0  2  0  0  0  0  0  0  0  0  0
   22.2429  -10.2065  -16.3055 N   0  0  0  0  0  0  0  0  0  0  0  0
   22.4428   -7.9440  -15.7305 C   0  0  0  0  0  0  0  0  0  0  0  0
   22.9399   -6.9243  -15.1094 O   0  0  0  0  0  0  0  0  0  0  0  0
   21.3697   -7.6728  -16.5770 N   0  0  0  0  0  0  0  0  0  0  0  0
   20.8319   -6.3356  -16.6970 C   0  0  1  0  0  0  0  0  0  0  0  0
   20.3579   -6.0631  -18.1211 C   0  0  0  0  0  0  0  0  0  0  0  0
   19.7683   -4.7322  -18.2990 C   0  0  0  0  0  0  0  0  0  0  0  0
   18.8208   -4.5642  -19.0914 O   0  0  0  0  0  0  0  0  0  0  0  0
   19.7337   -6.1129  -15.7783 C   0  0  0  0  0  0  0  0  0  0  0  0
   19.3884   -4.8798  -15.2809 O   0  0  0  0  0  0  0  0  0  0  0  0
   20.2546   -3.6559  -17.5901 O   0  0  0  0  0  0  0  0  0  0  0  0
   19.0482   -7.0943  -15.4050 O   0  0  0  0  0  0  0  0  0  0  0  0
  2  1  1  6
  2  6  1  0
  2  3  1  0
  3  4  1  0
  4  5  2  0
  4  8  1  0
  6  7  2  0
 10  9  1  1
 10 12  1  0
 11 10  1  0
 13 12  1  6
 14 13  1  0
 14  6  1  0
 15 13  1  0
 16 15  2  0
 17 15  1  0
 18 17  1  0
 18 19  1  6
 19 20  1  0
 20 21  2  0
 22 18  1  0
 23 22  1  0
 24 20  1  0
 25 22  2  0
M  END
$$$$
