DLD.pdb
     RDKit          3D

 25 24  0  0  1  0  0  0  0  0999 V2000
   25.4889  -18.9171  -15.8933 N   0  0  0  0  0  0  0  0  0  0  0  0
   25.6607  -20.3402  -16.3110 C   0  0  1  0  0  0  0  0  0  0  0  0
   27.1148  -20.4523  -16.6125 C   0  0  0  0  0  0  0  0  0  0  0  0
   27.6615  -19.5520  -17.6115 C   0  0  0  0  0  0  0  0  0  0  0  0
   27.0846  -19.4219  -18.7192 O   0  0  0  0  0  0  0  0  0  0  0  0
   25.1273  -21.2247  -15.2782 C   0  0  0  0  0  0  0  0  0  0  0  0
   25.2515  -22.4680  -15.3012 O   0  0  0  0  0  0  0  0  0  0  0  0
   28.8141  -18.7896  -17.4395 O   0  0  0  0  0  0  0  0  0  0  0  0
   26.2525  -22.4426  -11.1327 C   0  0  0  0  0  0  0  0  0  0  0  0
   25.6202  -21.1086  -11.4092 C   0  0  2  0  0  0  0  0  0  0  0  0
   25.6657  -20.3436  -10.0631 C   0  0  0  0  0  0  0  0  0  0  0  0
   24.2277  -21.1090  -11.8439 C   0  0  0  0  0  0  0  0  0  0  0  0
   23.7911  -21.6385  -13.1533 C   0  0  2  0  0  0  0  0  0  0  0  0
   24.4208  -20.7020  -14.1663 N   0  0  0  0  0  0  0  0  0  0  0  0
   22.3713  -21.6070  -13.4809 C   0  0  0  0  0  0  0  0  0  0  0  0
   21.5566  -22.0911  -12.6006 O   0  0  0  0  0  0  0  0  0  0  0  0
   21.7815  -21.1015  -14.6377 N   0  0  0  0  0  0  0  0  0  0  0  0
   20.3433  -21.0393  -14.7776 C   0  0  1  0  0  0  0  0  0  0  0  0
   19.7345  -20.0930  -13.7478 C   0  0  0  0  0  0  0  0  0  0  0  0
   18.2729  -20.0019  -13.8260 C   0  0  0  0  0  0  0  0  0  0  0  0
   17.6495  -20.6258  -14.7068 O   0  0  0  0  0  0  0  0  0  0  0  0
   19.9498  -20.6150  -16.1061 C   0  0  0  0  0  0  0  0  0  0  0  0
   20.8309  -20.1668  -17.0601 O   0  0  0  0  0  0  0  0  0  0  0  0
   17.5754  -19.2279  -12.9250 O   0  0  0  0  0  0  0  0  0  0  0  0
   18.7361  -20.6528  -16.4190 O   0  0  0  0  0  0  0  0  0  0  0  0
  2  1  1  1
  2  6  1  0
  2  3  1  0
  3  4  1  0
  4  5  2  0
  4  8  1  0
  6  7  2  0
 10  9  1  1
 10 12  1  0
 11 10  1  0
 13 12  1  1
 14 13  1  0
 14  6  1  0
 15 13  1  0
 16 15  2  0
 17 15  1  0
 18 17  1  0
 18 19  1  1
 19 20  1  0
 20 21  2  0
 22 18  1  0
 23 22  1  0
 24 20  1  0
 25 22  2  0
M  END
$$$$
