YRK.pdb
     RDKit          3D

 33 33  0  0  1  0  0  0  0  0999 V2000
    6.0248  -10.2752   26.2106 O   0  0  0  0  0  0  0  0  0  0  0  0
    6.2894  -11.6199   26.3468 C   0  0  0  0  0  0  0  0  0  0  0  0
    5.3157  -12.5231   26.7177 C   0  0  0  0  0  0  0  0  0  0  0  0
    5.6051  -13.8625   26.8471 C   0  0  0  0  0  0  0  0  0  0  0  0
    6.8775  -14.2868   26.6015 C   0  0  0  0  0  0  0  0  0  0  0  0
    7.2436  -15.7198   26.7253 C   0  0  0  0  0  0  0  0  0  0  0  0
    6.5826  -16.5497   25.6306 C   0  0  2  0  0  0  0  0  0  0  0  0
    6.2246  -17.8227   26.2085 N   0  0  0  0  0  0  0  0  0  0  0  0
    7.5509  -16.6663   24.5312 C   0  0  0  0  0  0  0  0  0  0  0  0
    8.3293  -17.6338   24.4925 O   0  0  0  0  0  0  0  0  0  0  0  0
    7.8668  -13.4013   26.2295 C   0  0  0  0  0  0  0  0  0  0  0  0
    7.5563  -12.0760   26.1074 C   0  0  0  0  0  0  0  0  0  0  0  0
    6.8189  -14.0145   17.5581 N   0  0  0  0  0  0  0  0  0  0  0  0
    8.2357  -13.8924   17.3820 C   0  0  0  0  0  0  0  0  0  0  0  0
    8.6654  -12.9411   16.6397 N   0  0  0  0  0  0  0  0  0  0  0  0
    9.1521  -14.7974   18.0091 N   0  0  0  0  0  0  0  0  0  0  0  0
    8.8421  -15.3608   19.3268 C   0  0  0  0  0  0  0  0  0  0  0  0
    9.0723  -14.3031   20.3914 C   0  0  0  0  0  0  0  0  0  0  0  0
    8.1562  -14.4720   21.5679 C   0  0  0  0  0  0  0  0  0  0  0  0
    8.4172  -15.7613   22.3348 C   0  0  2  0  0  0  0  0  0  0  0  0
    7.5962  -15.6863   23.5272 N   0  0  0  0  0  0  0  0  0  0  0  0
    9.8652  -15.6992   22.7488 C   0  0  0  0  0  0  0  0  0  0  0  0
   10.4302  -14.5933   22.9632 O   0  0  0  0  0  0  0  0  0  0  0  0
    9.6606  -12.7896   16.4194 N   0  0  0  0  0  0  0  0  0  0  0  0
   10.6431  -16.8690   22.9127 C   0  0  2  0  0  0  0  0  0  0  0  0
   12.0783  -16.9259   22.5715 C   0  0  0  0  0  0  0  0  0  0  0  0
   12.3718  -18.1488   21.7740 C   0  0  0  0  0  0  0  0  0  0  0  0
   13.6880  -18.7742   22.1355 C   0  0  0  0  0  0  0  0  0  0  0  0
   13.4745  -19.8572   23.1649 C   0  0  0  0  0  0  0  0  0  0  0  0
   14.7754  -20.5972   23.3591 N   0  0  0  0  0  0  0  0  0  0  0  0
   14.5591  -21.5718   24.4270 C   0  0  0  0  0  0  0  0  0  0  0  0
   12.4990  -15.6879   21.9049 O   0  0  0  0  0  0  0  0  0  0  0  0
   11.8166  -15.3202   20.8817 O   0  0  0  0  0  0  0  0  0  0  0  0
  2  1  1  0
  3  2  2  0
  4  3  1  0
  5 11  1  0
  5  4  2  0
  6  5  1  0
  7  9  1  0
  7  6  1  0
  7  8  1  1
  9 10  2  0
  9 21  1  0
 11 12  2  0
 12  2  1  0
 13 14  1  0
 14 16  1  0
 14 15  2  0
 16 17  1  0
 17 18  1  0
 19 18  1  0
 20 19  1  6
 21 20  1  0
 22 24  1  0
 22 20  1  0
 23 22  2  0
 25 31  1  0
 25 24  1  0
 25 26  1  6
 26 27  1  0
 27 28  1  0
 28 29  1  0
 30 29  1  0
 31 33  1  0
 32 31  2  0
M  END
$$$$
