YRK.pdb
     RDKit          3D

 33 33  0  0  1  0  0  0  0  0999 V2000
   10.3846  -15.0830   30.9569 O   0  0  0  0  0  0  0  0  0  0  0  0
    9.8287  -14.9993   29.6997 C   0  0  0  0  0  0  0  0  0  0  0  0
    8.8764  -14.0538   29.3824 C   0  0  0  0  0  0  0  0  0  0  0  0
    8.3357  -13.9903   28.1183 C   0  0  0  0  0  0  0  0  0  0  0  0
    8.7580  -14.8821   27.1772 C   0  0  0  0  0  0  0  0  0  0  0  0
    8.2087  -14.8576   25.7986 C   0  0  0  0  0  0  0  0  0  0  0  0
    7.3460  -16.0859   25.5317 C   0  0  2  0  0  0  0  0  0  0  0  0
    7.9029  -17.1797   26.2907 N   0  0  0  0  0  0  0  0  0  0  0  0
    7.3643  -16.3209   24.0811 C   0  0  0  0  0  0  0  0  0  0  0  0
    6.6973  -17.2504   23.5967 O   0  0  0  0  0  0  0  0  0  0  0  0
    9.7090  -15.8359   27.4723 C   0  0  0  0  0  0  0  0  0  0  0  0
   10.2319  -15.8800   28.7342 C   0  0  0  0  0  0  0  0  0  0  0  0
    9.6474  -13.9523   17.4525 N   0  0  0  0  0  0  0  0  0  0  0  0
    8.4418  -13.3589   16.9550 C   0  0  0  0  0  0  0  0  0  0  0  0
    8.2451  -13.3773   15.6894 N   0  0  0  0  0  0  0  0  0  0  0  0
    7.4801  -12.7613   17.8326 N   0  0  0  0  0  0  0  0  0  0  0  0
    7.7397  -12.7005   19.2744 C   0  0  0  0  0  0  0  0  0  0  0  0
    8.0489  -14.0955   19.7878 C   0  0  0  0  0  0  0  0  0  0  0  0
    7.8528  -14.2118   21.2710 C   0  0  0  0  0  0  0  0  0  0  0  0
    8.1832  -15.6009   21.7998 C   0  0  2  0  0  0  0  0  0  0  0  0
    8.1338  -15.4971   23.2448 N   0  0  0  0  0  0  0  0  0  0  0  0
    9.6101  -15.8607   21.3893 C   0  0  0  0  0  0  0  0  0  0  0  0
   10.5619  -15.2290   21.9218 O   0  0  0  0  0  0  0  0  0  0  0  0
    7.4290  -12.9486   15.2290 N   0  0  0  0  0  0  0  0  0  0  0  0
    9.9374  -16.8157   20.3988 C   0  0  2  0  0  0  0  0  0  0  0  0
   11.3163  -17.2947   20.1785 C   0  0  0  0  0  0  0  0  0  0  0  0
   11.3090  -18.7359   19.8034 C   0  0  0  0  0  0  0  0  0  0  0  0
   12.6907  -19.2937   19.6192 C   0  0  0  0  0  0  0  0  0  0  0  0
   12.6094  -20.7653   19.2936 C   0  0  0  0  0  0  0  0  0  0  0  0
   14.0118  -21.2986   19.1308 N   0  0  0  0  0  0  0  0  0  0  0  0
   13.8949  -22.7140   18.7848 C   0  0  0  0  0  0  0  0  0  0  0  0
   12.0060  -16.4473   19.1987 O   0  0  0  0  0  0  0  0  0  0  0  0
   13.2840  -16.3732   19.2947 O   0  0  0  0  0  0  0  0  0  0  0  0
  2  1  1  0
  3  2  2  0
  4  3  1  0
  5 11  1  0
  5  4  2  0
  6  5  1  0
  7  9  1  0
  7  6  1  0
  7  8  1  1
  9 10  2  0
  9 21  1  0
 11 12  2  0
 12  2  1  0
 13 14  1  0
 14 16  1  0
 14 15  2  0
 16 17  1  0
 17 18  1  0
 19 18  1  0
 20 19  1  6
 21 20  1  0
 22 24  1  0
 22 20  1  0
 23 22  2  0
 25 31  1  0
 25 24  1  0
 25 26  1  6
 26 27  1  0
 27 28  1  0
 28 29  1  0
 30 29  1  0
 31 33  1  0
 32 31  2  0
M  END
$$$$
