YRK.pdb
     RDKit          3D

 33 33  0  0  1  0  0  0  0  0999 V2000
    5.7926  -10.2330   27.1872 O   0  0  0  0  0  0  0  0  0  0  0  0
    6.1840  -11.5293   26.9362 C   0  0  0  0  0  0  0  0  0  0  0  0
    5.3329  -12.4534   26.3677 C   0  0  0  0  0  0  0  0  0  0  0  0
    5.7477  -13.7434   26.1266 C   0  0  0  0  0  0  0  0  0  0  0  0
    7.0216  -14.0974   26.4601 C   0  0  0  0  0  0  0  0  0  0  0  0
    7.5207  -15.4746   26.2211 C   0  0  0  0  0  0  0  0  0  0  0  0
    6.6189  -16.2214   25.2447 C   0  0  2  0  0  0  0  0  0  0  0  0
    6.1390  -17.4049   25.9165 N   0  0  0  0  0  0  0  0  0  0  0  0
    7.4250  -16.5204   24.0528 C   0  0  0  0  0  0  0  0  0  0  0  0
    8.1020  -17.5612   24.0092 O   0  0  0  0  0  0  0  0  0  0  0  0
    7.8897  -13.1900   27.0295 C   0  0  0  0  0  0  0  0  0  0  0  0
    7.4558  -11.9147   27.2597 C   0  0  0  0  0  0  0  0  0  0  0  0
    7.4510  -13.2642   15.7991 N   0  0  0  0  0  0  0  0  0  0  0  0
    8.3949  -14.3135   16.0469 C   0  0  0  0  0  0  0  0  0  0  0  0
    8.7738  -15.0234   15.0504 N   0  0  0  0  0  0  0  0  0  0  0  0
    8.9054  -14.5709   17.3603 N   0  0  0  0  0  0  0  0  0  0  0  0
    8.2120  -14.0352   18.5359 C   0  0  0  0  0  0  0  0  0  0  0  0
    8.9765  -14.4226   19.7892 C   0  0  0  0  0  0  0  0  0  0  0  0
    8.0911  -14.4823   20.9993 C   0  0  0  0  0  0  0  0  0  0  0  0
    8.2533  -15.7783   21.7819 C   0  0  2  0  0  0  0  0  0  0  0  0
    7.4302  -15.6318   22.9662 N   0  0  0  0  0  0  0  0  0  0  0  0
    9.6987  -15.8150   22.2080 C   0  0  0  0  0  0  0  0  0  0  0  0
   10.2098  -14.8559   22.8462 O   0  0  0  0  0  0  0  0  0  0  0  0
    9.4586  -15.7904   15.1193 N   0  0  0  0  0  0  0  0  0  0  0  0
   10.5340  -16.9173   21.9123 C   0  0  2  0  0  0  0  0  0  0  0  0
   11.9507  -16.9763   22.3228 C   0  0  0  0  0  0  0  0  0  0  0  0
   12.3179  -18.3654   22.7142 C   0  0  0  0  0  0  0  0  0  0  0  0
   11.9782  -18.6737   24.1438 C   0  0  0  0  0  0  0  0  0  0  0  0
   12.3960  -20.0855   24.4762 C   0  0  0  0  0  0  0  0  0  0  0  0
   12.1449  -20.3267   25.9446 N   0  0  0  0  0  0  0  0  0  0  0  0
   12.4367  -21.7354   26.2040 C   0  0  0  0  0  0  0  0  0  0  0  0
   12.8151  -16.4254   21.2725 O   0  0  0  0  0  0  0  0  0  0  0  0
   13.6960  -15.5665   21.6386 O   0  0  0  0  0  0  0  0  0  0  0  0
  2  1  1  0
  3  2  2  0
  4  3  1  0
  5 11  1  0
  5  4  2  0
  6  5  1  0
  7  9  1  0
  7  6  1  0
  7  8  1  1
  9 10  2  0
  9 21  1  0
 11 12  2  0
 12  2  1  0
 13 14  1  0
 14 16  1  0
 14 15  2  0
 16 17  1  0
 17 18  1  0
 19 18  1  0
 20 19  1  6
 21 20  1  0
 22 24  1  0
 22 20  1  0
 23 22  2  0
 25 31  1  0
 25 24  1  0
 25 26  1  1
 26 27  1  0
 27 28  1  0
 28 29  1  0
 30 29  1  0
 31 33  1  0
 32 31  2  0
M  END
$$$$
