YRK.pdb
     RDKit          3D

 33 33  0  0  1  0  0  0  0  0999 V2000
    8.6979  -11.6821   18.5429 O   0  0  0  0  0  0  0  0  0  0  0  0
    8.1058  -12.5614   19.4220 C   0  0  0  0  0  0  0  0  0  0  0  0
    7.8987  -12.2427   20.7475 C   0  0  0  0  0  0  0  0  0  0  0  0
    7.3047  -13.1389   21.6066 C   0  0  0  0  0  0  0  0  0  0  0  0
    6.9209  -14.3555   21.1251 C   0  0  0  0  0  0  0  0  0  0  0  0
    6.2752  -15.3590   22.0077 C   0  0  0  0  0  0  0  0  0  0  0  0
    7.2968  -16.0136   22.9307 C   0  0  2  0  0  0  0  0  0  0  0  0
    7.7312  -15.0128   23.8753 N   0  0  0  0  0  0  0  0  0  0  0  0
    8.3855  -16.5186   22.0825 C   0  0  0  0  0  0  0  0  0  0  0  0
    8.1632  -17.4300   21.2681 O   0  0  0  0  0  0  0  0  0  0  0  0
    7.1181  -14.6956   19.8034 C   0  0  0  0  0  0  0  0  0  0  0  0
    7.7099  -13.7896   18.9688 C   0  0  0  0  0  0  0  0  0  0  0  0
   15.6392  -14.0610   19.4086 N   0  0  0  0  0  0  0  0  0  0  0  0
   15.2632  -14.7522   18.2111 C   0  0  0  0  0  0  0  0  0  0  0  0
   16.1997  -15.1711   17.4442 N   0  0  0  0  0  0  0  0  0  0  0  0
   13.8895  -14.9740   17.8707 N   0  0  0  0  0  0  0  0  0  0  0  0
   12.8266  -14.5135   18.7695 C   0  0  0  0  0  0  0  0  0  0  0  0
   12.4626  -15.6314   19.7302 C   0  0  0  0  0  0  0  0  0  0  0  0
   11.2217  -15.3239   20.5162 C   0  0  0  0  0  0  0  0  0  0  0  0
   10.8378  -16.4468   21.4702 C   0  0  2  0  0  0  0  0  0  0  0  0
    9.6740  -15.9725   22.1927 N   0  0  0  0  0  0  0  0  0  0  0  0
   11.9857  -16.5633   22.4401 C   0  0  0  0  0  0  0  0  0  0  0  0
   12.3337  -15.5830   23.1518 O   0  0  0  0  0  0  0  0  0  0  0  0
   16.0357  -15.6566   16.5502 N   0  0  0  0  0  0  0  0  0  0  0  0
   12.7134  -17.7667   22.5909 C   0  0  2  0  0  0  0  0  0  0  0  0
   13.8488  -17.8996   23.5249 C   0  0  0  0  0  0  0  0  0  0  0  0
   14.2596  -19.3264   23.6392 C   0  0  0  0  0  0  0  0  0  0  0  0
   15.3424  -19.5379   24.6575 C   0  0  0  0  0  0  0  0  0  0  0  0
   15.6176  -21.0138   24.8132 C   0  0  0  0  0  0  0  0  0  0  0  0
   16.7484  -21.1896   25.7969 N   0  0  0  0  0  0  0  0  0  0  0  0
   17.0795  -22.6132   25.8199 C   0  0  0  0  0  0  0  0  0  0  0  0
   14.9488  -17.0127   23.1286 O   0  0  0  0  0  0  0  0  0  0  0  0
   15.2015  -16.9287   21.8728 O   0  0  0  0  0  0  0  0  0  0  0  0
  2  1  1  0
  3  2  2  0
  4  3  1  0
  5 11  1  0
  5  4  2  0
  6  5  1  0
  7  9  1  0
  7  6  1  0
  7  8  1  1
  9 10  2  0
  9 21  1  0
 11 12  2  0
 12  2  1  0
 13 14  1  0
 14 16  1  0
 14 15  2  0
 16 17  1  0
 17 18  1  0
 19 18  1  0
 20 19  1  6
 21 20  1  0
 22 24  1  0
 22 20  1  0
 23 22  2  0
 25 31  1  0
 25 24  1  0
 25 26  1  6
 26 27  1  0
 27 28  1  0
 28 29  1  0
 30 29  1  0
 31 33  1  0
 32 31  2  0
M  END
$$$$
