YRK.pdb
     RDKit          3D

 33 33  0  0  1  0  0  0  0  0999 V2000
    7.3709  -11.5988   16.6187 O   0  0  0  0  0  0  0  0  0  0  0  0
    7.5429  -12.4197   17.7110 C   0  0  0  0  0  0  0  0  0  0  0  0
    6.6281  -12.4672   18.7417 C   0  0  0  0  0  0  0  0  0  0  0  0
    6.8225  -13.2961   19.8231 C   0  0  0  0  0  0  0  0  0  0  0  0
    7.9407  -14.0757   19.8611 C   0  0  0  0  0  0  0  0  0  0  0  0
    8.1991  -14.9880   21.0029 C   0  0  0  0  0  0  0  0  0  0  0  0
    8.1271  -16.4465   20.5647 C   0  0  2  0  0  0  0  0  0  0  0  0
    6.7707  -16.7068   20.1465 N   0  0  0  0  0  0  0  0  0  0  0  0
    8.5449  -17.2644   21.7120 C   0  0  0  0  0  0  0  0  0  0  0  0
    7.8123  -17.3476   22.7118 O   0  0  0  0  0  0  0  0  0  0  0  0
    8.8686  -14.0444   18.8417 C   0  0  0  0  0  0  0  0  0  0  0  0
    8.6546  -13.2135   17.7780 C   0  0  0  0  0  0  0  0  0  0  0  0
   10.0677  -24.0181   18.8207 N   0  0  0  0  0  0  0  0  0  0  0  0
   10.5483  -23.0323   19.7429 C   0  0  0  0  0  0  0  0  0  0  0  0
    9.9446  -22.9217   20.8672 N   0  0  0  0  0  0  0  0  0  0  0  0
   11.6654  -22.1918   19.4306 N   0  0  0  0  0  0  0  0  0  0  0  0
   12.1695  -21.2404   20.4259 C   0  0  0  0  0  0  0  0  0  0  0  0
   10.9972  -20.5373   21.0866 C   0  0  0  0  0  0  0  0  0  0  0  0
   11.4382  -19.5696   22.1454 C   0  0  0  0  0  0  0  0  0  0  0  0
   10.2779  -18.7878   22.7462 C   0  0  2  0  0  0  0  0  0  0  0  0
    9.7693  -17.9500   21.6781 N   0  0  0  0  0  0  0  0  0  0  0  0
   10.8910  -17.8990   23.7980 C   0  0  0  0  0  0  0  0  0  0  0  0
   11.7388  -17.0195   23.4881 O   0  0  0  0  0  0  0  0  0  0  0  0
   10.2285  -22.2653   21.6091 N   0  0  0  0  0  0  0  0  0  0  0  0
   10.5432  -18.0137   25.1641 C   0  0  2  0  0  0  0  0  0  0  0  0
   11.1266  -17.1507   26.2101 C   0  0  0  0  0  0  0  0  0  0  0  0
   10.0768  -16.2780   26.8048 C   0  0  0  0  0  0  0  0  0  0  0  0
   10.6123  -15.3788   27.8814 C   0  0  0  0  0  0  0  0  0  0  0  0
    9.4854  -14.5772   28.4862 C   0  0  0  0  0  0  0  0  0  0  0  0
   10.0650  -13.6320   29.5101 N   0  0  0  0  0  0  0  0  0  0  0  0
    8.9622  -12.8142   30.0116 C   0  0  0  0  0  0  0  0  0  0  0  0
   11.8381  -17.9587   27.2074 O   0  0  0  0  0  0  0  0  0  0  0  0
   11.4950  -19.1918   27.3054 O   0  0  0  0  0  0  0  0  0  0  0  0
  2  1  1  0
  3  2  2  0
  4  3  1  0
  5 11  1  0
  5  4  2  0
  6  5  1  0
  7  9  1  0
  7  6  1  0
  7  8  1  1
  9 10  2  0
  9 21  1  0
 11 12  2  0
 12  2  1  0
 13 14  1  0
 14 16  1  0
 14 15  2  0
 16 17  1  0
 17 18  1  0
 19 18  1  0
 20 19  1  6
 21 20  1  0
 22 24  1  0
 22 20  1  0
 23 22  2  0
 25 31  1  0
 25 24  1  0
 25 26  1  6
 26 27  1  0
 27 28  1  0
 28 29  1  0
 30 29  1  0
 31 33  1  0
 32 31  2  0
M  END
$$$$
