YRK.pdb
     RDKit          3D

 33 33  0  0  1  0  0  0  0  0999 V2000
    5.5729  -24.1957   30.3728 O   0  0  0  0  0  0  0  0  0  0  0  0
    6.0395  -23.2106   29.5311 C   0  0  0  0  0  0  0  0  0  0  0  0
    7.3279  -23.2181   29.0397 C   0  0  0  0  0  0  0  0  0  0  0  0
    7.7709  -22.2219   28.1996 C   0  0  0  0  0  0  0  0  0  0  0  0
    6.9114  -21.2201   27.8575 C   0  0  0  0  0  0  0  0  0  0  0  0
    7.3368  -20.1218   26.9545 C   0  0  0  0  0  0  0  0  0  0  0  0
    6.4241  -20.0302   25.7368 C   0  0  2  0  0  0  0  0  0  0  0  0
    6.2011  -21.3741   25.2604 N   0  0  0  0  0  0  0  0  0  0  0  0
    7.0996  -19.1731   24.7527 C   0  0  0  0  0  0  0  0  0  0  0  0
    7.7778  -19.6866   23.8473 O   0  0  0  0  0  0  0  0  0  0  0  0
    5.6189  -21.1925   28.3370 C   0  0  0  0  0  0  0  0  0  0  0  0
    5.2011  -22.1923   29.1698 C   0  0  0  0  0  0  0  0  0  0  0  0
    7.9750  -14.6374   19.0230 N   0  0  0  0  0  0  0  0  0  0  0  0
    7.9594  -13.4345   19.8014 C   0  0  0  0  0  0  0  0  0  0  0  0
    7.8916  -12.3190   19.1756 N   0  0  0  0  0  0  0  0  0  0  0  0
    8.0175  -13.4641   21.2324 N   0  0  0  0  0  0  0  0  0  0  0  0
    7.4274  -14.5866   21.9683 C   0  0  0  0  0  0  0  0  0  0  0  0
    7.6141  -14.3632   23.4585 C   0  0  0  0  0  0  0  0  0  0  0  0
    7.0214  -15.4718   24.2781 C   0  0  0  0  0  0  0  0  0  0  0  0
    7.5850  -16.8382   23.9122 C   0  0  2  0  0  0  0  0  0  0  0  0
    6.9790  -17.7770   24.8357 N   0  0  0  0  0  0  0  0  0  0  0  0
    9.0602  -16.7603   24.2118 C   0  0  0  0  0  0  0  0  0  0  0  0
    9.4727  -16.5670   25.3869 O   0  0  0  0  0  0  0  0  0  0  0  0
    7.8534  -11.4006   19.6416 N   0  0  0  0  0  0  0  0  0  0  0  0
   10.0342  -16.8998   23.1959 C   0  0  2  0  0  0  0  0  0  0  0  0
   11.4808  -16.9668   23.4826 C   0  0  0  0  0  0  0  0  0  0  0  0
   12.2655  -16.6182   22.2659 C   0  0  0  0  0  0  0  0  0  0  0  0
   13.5662  -17.3635   22.1821 C   0  0  0  0  0  0  0  0  0  0  0  0
   14.2213  -17.1012   20.8478 C   0  0  0  0  0  0  0  0  0  0  0  0
   15.5849  -17.7478   20.8478 N   0  0  0  0  0  0  0  0  0  0  0  0
   16.1626  -17.5304   19.5228 C   0  0  0  0  0  0  0  0  0  0  0  0
   11.8154  -16.1332   24.6432 O   0  0  0  0  0  0  0  0  0  0  0  0
   12.8143  -16.5081   25.3569 O   0  0  0  0  0  0  0  0  0  0  0  0
  2  1  1  0
  3  2  2  0
  4  3  1  0
  5 11  1  0
  5  4  2  0
  6  5  1  0
  7  9  1  0
  7  6  1  0
  7  8  1  6
  9 10  2  0
  9 21  1  0
 11 12  2  0
 12  2  1  0
 13 14  1  0
 14 16  1  0
 14 15  2  0
 16 17  1  0
 17 18  1  0
 19 18  1  0
 20 19  1  1
 21 20  1  0
 22 24  1  0
 22 20  1  0
 23 22  2  0
 25 31  1  0
 25 24  1  0
 25 26  1  6
 26 27  1  0
 27 28  1  0
 28 29  1  0
 30 29  1  0
 31 33  1  0
 32 31  2  0
M  END
$$$$
