YRK.pdb
     RDKit          3D

 33 33  0  0  1  0  0  0  0  0999 V2000
    4.3609   -9.9935   25.9967 O   0  0  0  0  0  0  0  0  0  0  0  0
    5.0790  -11.1684   26.0183 C   0  0  0  0  0  0  0  0  0  0  0  0
    6.1783  -11.3688   25.2103 C   0  0  0  0  0  0  0  0  0  0  0  0
    6.8798  -12.5523   25.2502 C   0  0  0  0  0  0  0  0  0  0  0  0
    6.4695  -13.5310   26.1064 C   0  0  0  0  0  0  0  0  0  0  0  0
    7.1900  -14.8259   26.1903 C   0  0  0  0  0  0  0  0  0  0  0  0
    6.5213  -15.8815   25.3170 C   0  0  2  0  0  0  0  0  0  0  0  0
    6.1588  -16.9856   26.1726 N   0  0  0  0  0  0  0  0  0  0  0  0
    7.4854  -16.2529   24.2718 C   0  0  0  0  0  0  0  0  0  0  0  0
    8.2147  -17.2464   24.4279 O   0  0  0  0  0  0  0  0  0  0  0  0
    5.3731  -13.3524   26.9234 C   0  0  0  0  0  0  0  0  0  0  0  0
    4.6920  -12.1690   26.8665 C   0  0  0  0  0  0  0  0  0  0  0  0
    7.7101  -12.7253   16.1422 N   0  0  0  0  0  0  0  0  0  0  0  0
    7.9674  -14.1328   16.2197 C   0  0  0  0  0  0  0  0  0  0  0  0
    7.7831  -14.8327   15.1629 N   0  0  0  0  0  0  0  0  0  0  0  0
    8.4159  -14.7495   17.4324 N   0  0  0  0  0  0  0  0  0  0  0  0
    8.6786  -13.9300   18.6195 C   0  0  0  0  0  0  0  0  0  0  0  0
    9.1211  -14.8280   19.7611 C   0  0  0  0  0  0  0  0  0  0  0  0
    8.2549  -14.6708   20.9764 C   0  0  0  0  0  0  0  0  0  0  0  0
    8.3877  -15.8367   21.9467 C   0  0  2  0  0  0  0  0  0  0  0  0
    7.5822  -15.4864   23.0999 N   0  0  0  0  0  0  0  0  0  0  0  0
    9.8360  -15.8520   22.3642 C   0  0  0  0  0  0  0  0  0  0  0  0
   10.4147  -14.7946   22.7319 O   0  0  0  0  0  0  0  0  0  0  0  0
    8.0442  -15.8261   15.0794 N   0  0  0  0  0  0  0  0  0  0  0  0
   10.5988  -17.0430   22.3611 C   0  0  2  0  0  0  0  0  0  0  0  0
   12.0110  -17.0859   22.7890 C   0  0  0  0  0  0  0  0  0  0  0  0
   12.3374  -18.4217   23.3606 C   0  0  0  0  0  0  0  0  0  0  0  0
   11.7997  -18.6043   24.7505 C   0  0  0  0  0  0  0  0  0  0  0  0
   12.1374  -19.9872   25.2524 C   0  0  0  0  0  0  0  0  0  0  0  0
   11.6705  -20.1054   26.6826 N   0  0  0  0  0  0  0  0  0  0  0  0
   12.0431  -21.4406   27.1464 C   0  0  0  0  0  0  0  0  0  0  0  0
   12.8963  -16.6994   21.6841 O   0  0  0  0  0  0  0  0  0  0  0  0
   12.5426  -17.0618   20.5045 O   0  0  0  0  0  0  0  0  0  0  0  0
  2  1  1  0
  3  2  2  0
  4  3  1  0
  5 11  1  0
  5  4  2  0
  6  5  1  0
  7  9  1  0
  7  6  1  0
  7  8  1  1
  9 10  2  0
  9 21  1  0
 11 12  2  0
 12  2  1  0
 13 14  1  0
 14 16  1  0
 14 15  2  0
 16 17  1  0
 17 18  1  0
 19 18  1  0
 20 19  1  6
 21 20  1  0
 22 24  1  0
 22 20  1  0
 23 22  2  0
 25 31  1  0
 25 24  1  0
 25 26  1  1
 26 27  1  0
 27 28  1  0
 28 29  1  0
 30 29  1  0
 31 33  1  0
 32 31  2  0
M  END
$$$$
