YRK.pdb
     RDKit          3D

 33 33  0  0  1  0  0  0  0  0999 V2000
    5.6909  -10.5022   28.2563 O   0  0  0  0  0  0  0  0  0  0  0  0
    6.2350  -11.6329   27.6887 C   0  0  0  0  0  0  0  0  0  0  0  0
    7.2995  -12.2982   28.2594 C   0  0  0  0  0  0  0  0  0  0  0  0
    7.8257  -13.4265   27.6727 C   0  0  0  0  0  0  0  0  0  0  0  0
    7.2755  -13.8807   26.5107 C   0  0  0  0  0  0  0  0  0  0  0  0
    7.8035  -15.0930   25.8365 C   0  0  0  0  0  0  0  0  0  0  0  0
    6.6818  -15.8784   25.1663 C   0  0  2  0  0  0  0  0  0  0  0  0
    6.3426  -16.9780   26.0372 N   0  0  0  0  0  0  0  0  0  0  0  0
    7.1815  -16.3133   23.8545 C   0  0  0  0  0  0  0  0  0  0  0  0
    7.6076  -17.4710   23.7077 O   0  0  0  0  0  0  0  0  0  0  0  0
    6.2108  -13.2315   25.9224 C   0  0  0  0  0  0  0  0  0  0  0  0
    5.7048  -12.1129   26.5229 C   0  0  0  0  0  0  0  0  0  0  0  0
    9.7109  -15.0708   16.9973 N   0  0  0  0  0  0  0  0  0  0  0  0
    8.6382  -14.2380   16.5404 C   0  0  0  0  0  0  0  0  0  0  0  0
    8.2587  -14.3669   15.3238 N   0  0  0  0  0  0  0  0  0  0  0  0
    8.0028  -13.2885   17.4045 N   0  0  0  0  0  0  0  0  0  0  0  0
    8.5425  -13.0392   18.7448 C   0  0  0  0  0  0  0  0  0  0  0  0
    8.6240  -14.3511   19.5049 C   0  0  0  0  0  0  0  0  0  0  0  0
    7.7794  -14.3427   20.7453 C   0  0  0  0  0  0  0  0  0  0  0  0
    7.8277  -15.6658   21.4972 C   0  0  2  0  0  0  0  0  0  0  0  0
    7.1775  -15.4224   22.7698 N   0  0  0  0  0  0  0  0  0  0  0  0
    9.2891  -15.9327   21.7523 C   0  0  0  0  0  0  0  0  0  0  0  0
   10.0137  -15.0741   22.3234 O   0  0  0  0  0  0  0  0  0  0  0  0
    7.5216  -13.7932   14.8885 N   0  0  0  0  0  0  0  0  0  0  0  0
    9.9025  -17.1468   21.3651 C   0  0  2  0  0  0  0  0  0  0  0  0
   11.3170  -17.4532   21.6559 C   0  0  0  0  0  0  0  0  0  0  0  0
   11.4629  -18.8759   22.0707 C   0  0  0  0  0  0  0  0  0  0  0  0
   12.3705  -19.0441   23.2549 C   0  0  0  0  0  0  0  0  0  0  0  0
   12.4448  -20.5017   23.6399 C   0  0  0  0  0  0  0  0  0  0  0  0
   13.2806  -20.6253   24.8904 N   0  0  0  0  0  0  0  0  0  0  0  0
   14.6814  -20.6142   24.4728 C   0  0  0  0  0  0  0  0  0  0  0  0
   12.1671  -17.0951   20.5145 O   0  0  0  0  0  0  0  0  0  0  0  0
   13.3902  -16.8026   20.7724 O   0  0  0  0  0  0  0  0  0  0  0  0
  2  1  1  0
  3  2  2  0
  4  3  1  0
  5 11  1  0
  5  4  2  0
  6  5  1  0
  7  9  1  0
  7  6  1  0
  7  8  1  1
  9 10  2  0
  9 21  1  0
 11 12  2  0
 12  2  1  0
 13 14  1  0
 14 16  1  0
 14 15  2  0
 16 17  1  0
 17 18  1  0
 19 18  1  0
 20 19  1  6
 21 20  1  0
 22 24  1  0
 22 20  1  0
 23 22  2  0
 25 31  1  0
 25 24  1  0
 25 26  1  6
 26 27  1  0
 27 28  1  0
 28 29  1  0
 30 29  1  0
 31 33  1  0
 32 31  2  0
M  END
$$$$
