YYD.pdb
     RDKit          3D

 33 34  0  0  1  0  0  0  0  0999 V2000
    6.0677  -20.1942   14.8791 O   0  0  0  0  0  0  0  0  0  0  0  0
    6.6585  -19.6853   16.0360 C   0  0  0  0  0  0  0  0  0  0  0  0
    7.0233  -18.3536   16.1267 C   0  0  0  0  0  0  0  0  0  0  0  0
    7.6128  -17.8840   17.3045 C   0  0  0  0  0  0  0  0  0  0  0  0
    7.8378  -18.7028   18.3660 C   0  0  0  0  0  0  0  0  0  0  0  0
    8.4652  -18.1638   19.5956 C   0  0  0  0  0  0  0  0  0  0  0  0
    8.7022  -16.6850   19.3960 C   0  0  2  0  0  0  0  0  0  0  0  0
    9.7207  -16.4898   18.3958 N   0  0  0  0  0  0  0  0  0  0  0  0
    9.1126  -16.0120   20.6445 C   0  0  0  0  0  0  0  0  0  0  0  0
   10.3268  -15.9334   20.9994 O   0  0  0  0  0  0  0  0  0  0  0  0
    7.4823  -20.0284   18.2948 C   0  0  0  0  0  0  0  0  0  0  0  0
    6.8948  -20.4963   17.1210 C   0  0  0  0  0  0  0  0  0  0  0  0
    7.1045  -11.4863   28.2300 O   0  0  0  0  0  0  0  0  0  0  0  0
    7.1557  -12.1043   26.9779 C   0  0  0  0  0  0  0  0  0  0  0  0
    7.8999  -11.5719   25.9461 C   0  0  0  0  0  0  0  0  0  0  0  0
    7.9326  -12.1999   24.7258 C   0  0  0  0  0  0  0  0  0  0  0  0
    7.2428  -13.3729   24.4555 C   0  0  0  0  0  0  0  0  0  0  0  0
    7.3525  -13.9429   23.1335 C   0  0  0  0  0  0  0  0  0  0  0  0
    8.5239  -14.7453   22.7621 C   0  0  2  0  0  0  0  0  0  0  0  0
    8.1473  -15.4254   21.4952 N   0  0  0  0  0  0  0  0  0  0  0  0
    8.9305  -15.8116   23.6972 C   0  0  0  0  0  0  0  0  0  0  0  0
    8.2919  -16.9256   23.7222 O   0  0  0  0  0  0  0  0  0  0  0  0
    6.4990  -13.9025   25.4913 C   0  0  0  0  0  0  0  0  0  0  0  0
    6.4686  -13.2700   26.7140 C   0  0  0  0  0  0  0  0  0  0  0  0
   10.0090  -15.7391   24.6185 N   0  0  0  0  0  0  0  0  0  0  0  0
   10.4117  -16.8834   25.3861 C   0  0  1  0  0  0  0  0  0  0  0  0
   11.8198  -17.3310   25.0739 C   0  0  0  0  0  0  0  0  0  0  0  0
   12.2584  -18.4533   25.9209 C   0  0  0  0  0  0  0  0  0  0  0  0
   13.0211  -18.3499   26.9153 O   0  0  0  0  0  0  0  0  0  0  0  0
   10.3656  -16.6051   26.8371 C   0  0  0  0  0  0  0  0  0  0  0  0
   10.2179  -15.4778   27.3585 O   0  0  0  0  0  0  0  0  0  0  0  0
   11.7978  -19.7230   25.6013 O   0  0  0  0  0  0  0  0  0  0  0  0
   10.4961  -17.6777   27.7361 O   0  0  0  0  0  0  0  0  0  0  0  0
  2  3  2  0
  2  1  1  0
  4  3  1  0
  5  4  2  0
  6  7  1  0
  6  5  1  0
  7  9  1  0
  7  8  1  6
  9 10  2  0
 11  5  1  0
 11 12  2  0
 12  2  1  0
 13 14  1  0
 14 24  2  0
 15 14  1  0
 15 16  2  0
 16 17  1  0
 17 23  2  0
 17 18  1  0
 19 18  1  1
 20 19  1  0
 20  9  1  0
 21 19  1  0
 22 21  2  0
 24 23  1  0
 25 21  1  0
 26 25  1  0
 26 27  1  6
 28 32  1  0
 28 27  1  0
 29 28  2  0
 30 26  1  0
 30 33  1  0
 31 30  2  0
M  END
$$$$
