YYD.pdb
     RDKit          3D

 33 34  0  0  1  0  0  0  0  0999 V2000
   11.4376  -15.2788   29.9618 O   0  0  0  0  0  0  0  0  0  0  0  0
   10.5168  -15.0222   28.9456 C   0  0  0  0  0  0  0  0  0  0  0  0
   10.2948  -15.9386   27.9329 C   0  0  0  0  0  0  0  0  0  0  0  0
    9.3630  -15.6420   26.9334 C   0  0  0  0  0  0  0  0  0  0  0  0
    8.6671  -14.4743   26.9298 C   0  0  0  0  0  0  0  0  0  0  0  0
    7.6886  -14.2002   25.8511 C   0  0  0  0  0  0  0  0  0  0  0  0
    6.9737  -15.4900   25.5225 C   0  0  2  0  0  0  0  0  0  0  0  0
    6.9192  -16.3245   26.6958 N   0  0  0  0  0  0  0  0  0  0  0  0
    7.6342  -16.2316   24.4297 C   0  0  0  0  0  0  0  0  0  0  0  0
    8.1519  -17.3746   24.6084 O   0  0  0  0  0  0  0  0  0  0  0  0
    8.8738  -13.5518   27.9271 C   0  0  0  0  0  0  0  0  0  0  0  0
    9.8024  -13.8473   28.9231 C   0  0  0  0  0  0  0  0  0  0  0  0
    2.5524  -18.9094   19.9397 O   0  0  0  0  0  0  0  0  0  0  0  0
    3.7566  -18.2360   20.1599 C   0  0  0  0  0  0  0  0  0  0  0  0
    3.7780  -16.9021   20.5093 C   0  0  0  0  0  0  0  0  0  0  0  0
    4.9756  -16.2649   20.7199 C   0  0  0  0  0  0  0  0  0  0  0  0
    6.2047  -16.8971   20.5998 C   0  0  0  0  0  0  0  0  0  0  0  0
    7.3993  -16.1243   20.8456 C   0  0  0  0  0  0  0  0  0  0  0  0
    8.2711  -16.4403   21.9830 C   0  0  2  0  0  0  0  0  0  0  0  0
    7.7100  -15.6795   23.1302 N   0  0  0  0  0  0  0  0  0  0  0  0
    9.6867  -16.0388   21.8753 C   0  0  0  0  0  0  0  0  0  0  0  0
   10.1102  -14.9958   22.4934 O   0  0  0  0  0  0  0  0  0  0  0  0
    6.1787  -18.2325   20.2497 C   0  0  0  0  0  0  0  0  0  0  0  0
    4.9757  -18.8684   20.0394 C   0  0  0  0  0  0  0  0  0  0  0  0
   10.6856  -16.7164   21.1266 N   0  0  0  0  0  0  0  0  0  0  0  0
   12.0806  -16.4431   21.3268 C   0  0  1  0  0  0  0  0  0  0  0  0
   12.5276  -16.6933   22.7475 C   0  0  0  0  0  0  0  0  0  0  0  0
   13.9558  -16.3973   22.9525 C   0  0  0  0  0  0  0  0  0  0  0  0
   14.7529  -16.0350   22.0499 O   0  0  0  0  0  0  0  0  0  0  0  0
   12.9275  -17.2887   20.4592 C   0  0  0  0  0  0  0  0  0  0  0  0
   12.5413  -18.2897   19.8162 O   0  0  0  0  0  0  0  0  0  0  0  0
   14.4649  -16.5266   24.2372 O   0  0  0  0  0  0  0  0  0  0  0  0
   14.2892  -16.9678   20.3231 O   0  0  0  0  0  0  0  0  0  0  0  0
  2  3  2  0
  2  1  1  0
  4  3  1  0
  5  4  2  0
  6  7  1  0
  6  5  1  0
  7  9  1  0
  7  8  1  1
  9 10  2  0
 11  5  1  0
 11 12  2  0
 12  2  1  0
 13 14  1  0
 14 24  2  0
 15 14  1  0
 15 16  2  0
 16 17  1  0
 17 23  2  0
 17 18  1  0
 19 18  1  6
 20 19  1  0
 20  9  1  0
 21 19  1  0
 22 21  2  0
 24 23  1  0
 25 21  1  0
 26 25  1  0
 26 27  1  1
 28 32  1  0
 28 27  1  0
 29 28  2  0
 30 26  1  0
 30 33  1  0
 31 30  2  0
M  END
$$$$
