YYD.pdb
     RDKit          3D

 33 34  0  0  1  0  0  0  0  0999 V2000
   10.7961  -14.1742   31.2416 O   0  0  0  0  0  0  0  0  0  0  0  0
   10.5418  -14.7711   30.0065 C   0  0  0  0  0  0  0  0  0  0  0  0
   10.7992  -16.1140   29.7943 C   0  0  0  0  0  0  0  0  0  0  0  0
   10.5299  -16.6730   28.5412 C   0  0  0  0  0  0  0  0  0  0  0  0
   10.0205  -15.9306   27.5228 C   0  0  0  0  0  0  0  0  0  0  0  0
    9.7498  -16.5631   26.2103 C   0  0  0  0  0  0  0  0  0  0  0  0
    8.2539  -16.7052   26.0537 C   0  0  2  0  0  0  0  0  0  0  0  0
    7.8225  -17.9480   26.6414 N   0  0  0  0  0  0  0  0  0  0  0  0
    7.8346  -16.6663   24.6384 C   0  0  0  0  0  0  0  0  0  0  0  0
    7.4944  -17.7119   24.0079 O   0  0  0  0  0  0  0  0  0  0  0  0
    9.7583  -14.5953   27.7144 C   0  0  0  0  0  0  0  0  0  0  0  0
   10.0267  -14.0383   28.9632 C   0  0  0  0  0  0  0  0  0  0  0  0
    7.0605  -12.4825   16.6850 O   0  0  0  0  0  0  0  0  0  0  0  0
    7.1756  -12.8350   18.0321 C   0  0  0  0  0  0  0  0  0  0  0  0
    6.5667  -13.9675   18.5308 C   0  0  0  0  0  0  0  0  0  0  0  0
    6.6961  -14.2903   19.8588 C   0  0  0  0  0  0  0  0  0  0  0  0
    7.4232  -13.5259   20.7599 C   0  0  0  0  0  0  0  0  0  0  0  0
    7.4888  -13.9649   22.1338 C   0  0  0  0  0  0  0  0  0  0  0  0
    7.6473  -15.3880   22.4553 C   0  0  2  0  0  0  0  0  0  0  0  0
    7.7996  -15.4414   23.9329 N   0  0  0  0  0  0  0  0  0  0  0  0
    8.8262  -16.0754   21.8945 C   0  0  0  0  0  0  0  0  0  0  0  0
    8.7193  -16.7618   20.8143 O   0  0  0  0  0  0  0  0  0  0  0  0
    8.0311  -12.3930   20.2563 C   0  0  0  0  0  0  0  0  0  0  0  0
    7.8992  -12.0723   18.9238 C   0  0  0  0  0  0  0  0  0  0  0  0
   10.1354  -16.0578   22.4448 N   0  0  0  0  0  0  0  0  0  0  0  0
   11.2741  -16.4665   21.6722 C   0  0  1  0  0  0  0  0  0  0  0  0
   11.8673  -15.3379   20.8628 C   0  0  0  0  0  0  0  0  0  0  0  0
   13.0723  -15.7456   20.1204 C   0  0  0  0  0  0  0  0  0  0  0  0
   13.2818  -16.8988   19.6649 O   0  0  0  0  0  0  0  0  0  0  0  0
   12.3561  -16.9850   22.5358 C   0  0  0  0  0  0  0  0  0  0  0  0
   12.3881  -16.9162   23.7842 O   0  0  0  0  0  0  0  0  0  0  0  0
   14.0537  -14.7880   19.9047 O   0  0  0  0  0  0  0  0  0  0  0  0
   13.4587  -17.6154   21.9337 O   0  0  0  0  0  0  0  0  0  0  0  0
  2  3  2  0
  2  1  1  0
  4  3  1  0
  5  4  2  0
  6  7  1  0
  6  5  1  0
  7  9  1  0
  7  8  1  6
  9 10  2  0
 11  5  1  0
 11 12  2  0
 12  2  1  0
 13 14  1  0
 14 24  2  0
 15 14  1  0
 15 16  2  0
 16 17  1  0
 17 23  2  0
 17 18  1  0
 19 18  1  6
 20 19  1  0
 20  9  1  0
 21 19  1  0
 22 21  2  0
 24 23  1  0
 25 21  1  0
 26 25  1  0
 26 27  1  1
 28 32  1  0
 28 27  1  0
 29 28  2  0
 30 26  1  0
 30 33  1  0
 31 30  2  0
M  END
$$$$
