YYD.pdb
     RDKit          3D

 33 34  0  0  1  0  0  0  0  0999 V2000
    6.5518  -13.3245   15.8239 O   0  0  0  0  0  0  0  0  0  0  0  0
    7.1375  -13.8346   16.9829 C   0  0  0  0  0  0  0  0  0  0  0  0
    7.1872  -13.0888   18.1473 C   0  0  0  0  0  0  0  0  0  0  0  0
    7.7833  -13.6376   19.2869 C   0  0  0  0  0  0  0  0  0  0  0  0
    8.3169  -14.8879   19.2817 C   0  0  0  0  0  0  0  0  0  0  0  0
    8.9393  -15.4311   20.5120 C   0  0  0  0  0  0  0  0  0  0  0  0
    9.9398  -14.4202   21.0215 C   0  0  2  0  0  0  0  0  0  0  0  0
   10.9596  -14.2061   20.0264 N   0  0  0  0  0  0  0  0  0  0  0  0
   10.5753  -14.8507   22.2828 C   0  0  0  0  0  0  0  0  0  0  0  0
   11.7864  -15.2207   22.3347 O   0  0  0  0  0  0  0  0  0  0  0  0
    8.2770  -15.6438   18.1348 C   0  0  0  0  0  0  0  0  0  0  0  0
    7.6830  -15.0967   16.9992 C   0  0  0  0  0  0  0  0  0  0  0  0
   10.5549  -15.6675   31.2982 O   0  0  0  0  0  0  0  0  0  0  0  0
   10.3142  -15.4074   29.9467 C   0  0  0  0  0  0  0  0  0  0  0  0
    9.7497  -16.3590   29.1234 C   0  0  0  0  0  0  0  0  0  0  0  0
    9.5240  -16.0768   27.7990 C   0  0  0  0  0  0  0  0  0  0  0  0
    9.8375  -14.8568   27.2174 C   0  0  0  0  0  0  0  0  0  0  0  0
    9.5543  -14.6746   25.8134 C   0  0  0  0  0  0  0  0  0  0  0  0
   10.4710  -15.1977   24.7937 C   0  0  2  0  0  0  0  0  0  0  0  0
    9.8395  -14.8632   23.4902 N   0  0  0  0  0  0  0  0  0  0  0  0
   10.6977  -16.6555   24.7796 C   0  0  0  0  0  0  0  0  0  0  0  0
   11.2276  -17.2357   25.7955 O   0  0  0  0  0  0  0  0  0  0  0  0
   10.4025  -13.9070   28.0452 C   0  0  0  0  0  0  0  0  0  0  0  0
   10.6273  -14.1935   29.3730 C   0  0  0  0  0  0  0  0  0  0  0  0
   10.3744  -17.5343   23.7116 N   0  0  0  0  0  0  0  0  0  0  0  0
   10.5632  -18.9523   23.8302 C   0  0  1  0  0  0  0  0  0  0  0  0
   10.1798  -19.7004   22.5756 C   0  0  0  0  0  0  0  0  0  0  0  0
   10.8495  -19.1729   21.3745 C   0  0  0  0  0  0  0  0  0  0  0  0
   12.0950  -19.1132   21.2120 O   0  0  0  0  0  0  0  0  0  0  0  0
   11.9750  -19.2886   24.1113 C   0  0  0  0  0  0  0  0  0  0  0  0
   12.9211  -18.4724   24.1675 O   0  0  0  0  0  0  0  0  0  0  0  0
   10.0496  -18.7051   20.3411 O   0  0  0  0  0  0  0  0  0  0  0  0
   12.3177  -20.6325   24.3398 O   0  0  0  0  0  0  0  0  0  0  0  0
  2  3  2  0
  2  1  1  0
  4  3  1  0
  5  4  2  0
  6  7  1  0
  6  5  1  0
  7  9  1  0
  7  8  1  6
  9 10  2  0
 11  5  1  0
 11 12  2  0
 12  2  1  0
 13 14  1  0
 14 24  2  0
 15 14  1  0
 15 16  2  0
 16 17  1  0
 17 23  2  0
 17 18  1  0
 19 18  1  1
 20 19  1  0
 20  9  1  0
 21 19  1  0
 22 21  2  0
 24 23  1  0
 25 21  1  0
 26 25  1  0
 26 27  1  6
 28 32  1  0
 28 27  1  0
 29 28  2  0
 30 26  1  0
 30 33  1  0
 31 30  2  0
M  END
$$$$
