YYD.pdb
     RDKit          3D

 33 34  0  0  1  0  0  0  0  0999 V2000
   11.2743  -16.9494   30.6540 O   0  0  0  0  0  0  0  0  0  0  0  0
   10.6076  -17.4241   29.5241 C   0  0  0  0  0  0  0  0  0  0  0  0
    9.4878  -18.2286   29.6394 C   0  0  0  0  0  0  0  0  0  0  0  0
    8.8491  -18.6830   28.4814 C   0  0  0  0  0  0  0  0  0  0  0  0
    9.3001  -18.3548   27.2417 C   0  0  0  0  0  0  0  0  0  0  0  0
    8.5930  -18.8582   26.0406 C   0  0  0  0  0  0  0  0  0  0  0  0
    7.4221  -17.9444   25.7638 C   0  0  2  0  0  0  0  0  0  0  0  0
    6.2057  -18.7157   25.7269 N   0  0  0  0  0  0  0  0  0  0  0  0
    7.5728  -17.2145   24.4892 C   0  0  0  0  0  0  0  0  0  0  0  0
    7.1116  -17.6636   23.3974 O   0  0  0  0  0  0  0  0  0  0  0  0
   10.4108  -17.5569   27.1070 C   0  0  0  0  0  0  0  0  0  0  0  0
   11.0471  -17.1040   28.2610 C   0  0  0  0  0  0  0  0  0  0  0  0
    5.4043  -11.9181   28.0428 O   0  0  0  0  0  0  0  0  0  0  0  0
    6.1268  -12.3859   26.9422 C   0  0  0  0  0  0  0  0  0  0  0  0
    7.4698  -12.1082   26.7964 C   0  0  0  0  0  0  0  0  0  0  0  0
    8.1556  -12.5805   25.7049 C   0  0  0  0  0  0  0  0  0  0  0  0
    7.5654  -13.3435   24.7078 C   0  0  0  0  0  0  0  0  0  0  0  0
    8.3876  -13.7849   23.6060 C   0  0  0  0  0  0  0  0  0  0  0  0
    8.3844  -15.1923   23.1902 C   0  0  2  0  0  0  0  0  0  0  0  0
    8.2471  -15.9723   24.4481 N   0  0  0  0  0  0  0  0  0  0  0  0
    9.5994  -15.6974   22.5227 C   0  0  0  0  0  0  0  0  0  0  0  0
    9.8876  -15.3139   21.3314 O   0  0  0  0  0  0  0  0  0  0  0  0
    6.2207  -13.6191   24.8578 C   0  0  0  0  0  0  0  0  0  0  0  0
    5.5360  -13.1438   25.9537 C   0  0  0  0  0  0  0  0  0  0  0  0
   10.5359  -16.6062   23.0832 N   0  0  0  0  0  0  0  0  0  0  0  0
   11.6908  -17.0352   22.3464 C   0  0  1  0  0  0  0  0  0  0  0  0
   12.9564  -16.9993   23.1697 C   0  0  0  0  0  0  0  0  0  0  0  0
   13.7726  -15.8029   22.9021 C   0  0  0  0  0  0  0  0  0  0  0  0
   13.7733  -15.1583   21.8224 O   0  0  0  0  0  0  0  0  0  0  0  0
   11.5383  -18.4231   21.8612 C   0  0  0  0  0  0  0  0  0  0  0  0
   12.3456  -19.0299   21.1233 O   0  0  0  0  0  0  0  0  0  0  0  0
   14.6056  -15.3487   23.9152 O   0  0  0  0  0  0  0  0  0  0  0  0
   10.3989  -19.1520   22.2435 O   0  0  0  0  0  0  0  0  0  0  0  0
  2  3  2  0
  2  1  1  0
  4  3  1  0
  5  4  2  0
  6  7  1  0
  6  5  1  0
  7  9  1  0
  7  8  1  6
  9 10  2  0
 11  5  1  0
 11 12  2  0
 12  2  1  0
 13 14  1  0
 14 24  2  0
 15 14  1  0
 15 16  2  0
 16 17  1  0
 17 23  2  0
 17 18  1  0
 19 18  1  1
 20 19  1  0
 20  9  1  0
 21 19  1  0
 22 21  2  0
 24 23  1  0
 25 21  1  0
 26 25  1  0
 26 27  1  1
 28 32  1  0
 28 27  1  0
 29 28  2  0
 30 26  1  0
 30 33  1  0
 31 30  2  0
M  END
$$$$
