YYD.pdb
     RDKit          3D

 33 34  0  0  1  0  0  0  0  0999 V2000
   10.6553  -13.8928   30.8546 O   0  0  0  0  0  0  0  0  0  0  0  0
   10.3798  -14.3865   29.5792 C   0  0  0  0  0  0  0  0  0  0  0  0
   10.9215  -15.5826   29.1426 C   0  0  0  0  0  0  0  0  0  0  0  0
   10.6199  -16.0418   27.8567 C   0  0  0  0  0  0  0  0  0  0  0  0
    9.8065  -15.3428   27.0215 C   0  0  0  0  0  0  0  0  0  0  0  0
    9.5129  -15.8659   25.6664 C   0  0  0  0  0  0  0  0  0  0  0  0
    8.1113  -16.4300   25.6710 C   0  0  2  0  0  0  0  0  0  0  0  0
    8.0303  -17.5149   26.6156 N   0  0  0  0  0  0  0  0  0  0  0  0
    7.7005  -16.9152   24.3383 C   0  0  0  0  0  0  0  0  0  0  0  0
    7.5472  -18.1482   24.0884 O   0  0  0  0  0  0  0  0  0  0  0  0
    9.2591  -14.1528   27.4373 C   0  0  0  0  0  0  0  0  0  0  0  0
    9.5597  -13.6953   28.7186 C   0  0  0  0  0  0  0  0  0  0  0  0
    9.0573  -11.1605   18.6775 O   0  0  0  0  0  0  0  0  0  0  0  0
    8.3776  -12.1959   19.3241 C   0  0  0  0  0  0  0  0  0  0  0  0
    8.1071  -12.1412   20.6753 C   0  0  0  0  0  0  0  0  0  0  0  0
    7.4375  -13.1727   21.2854 C   0  0  0  0  0  0  0  0  0  0  0  0
    7.0018  -14.3025   20.6082 C   0  0  0  0  0  0  0  0  0  0  0  0
    6.3071  -15.3238   21.3558 C   0  0  0  0  0  0  0  0  0  0  0  0
    7.0418  -16.4562   21.9318 C   0  0  2  0  0  0  0  0  0  0  0  0
    7.4622  -16.0036   23.2839 N   0  0  0  0  0  0  0  0  0  0  0  0
    8.2730  -16.8799   21.2379 C   0  0  0  0  0  0  0  0  0  0  0  0
    8.2177  -17.3023   20.0264 O   0  0  0  0  0  0  0  0  0  0  0  0
    7.2747  -14.3531   19.2556 C   0  0  0  0  0  0  0  0  0  0  0  0
    7.9465  -13.3167   18.6470 C   0  0  0  0  0  0  0  0  0  0  0  0
    9.5815  -16.8683   21.7903 N   0  0  0  0  0  0  0  0  0  0  0  0
   10.7405  -17.0583   20.9649 C   0  0  1  0  0  0  0  0  0  0  0  0
   11.1104  -15.8210   20.1822 C   0  0  0  0  0  0  0  0  0  0  0  0
   12.3251  -16.0063   19.3700 C   0  0  0  0  0  0  0  0  0  0  0  0
   12.6062  -17.0466   18.7219 O   0  0  0  0  0  0  0  0  0  0  0  0
   11.9251  -17.4217   21.7710 C   0  0  0  0  0  0  0  0  0  0  0  0
   13.0723  -17.6400   21.3230 O   0  0  0  0  0  0  0  0  0  0  0  0
   13.2309  -14.9563   19.3127 O   0  0  0  0  0  0  0  0  0  0  0  0
   11.7845  -17.5405   23.1645 O   0  0  0  0  0  0  0  0  0  0  0  0
  2  3  2  0
  2  1  1  0
  4  3  1  0
  5  4  2  0
  6  7  1  0
  6  5  1  0
  7  9  1  0
  7  8  1  1
  9 10  2  0
 11  5  1  0
 11 12  2  0
 12  2  1  0
 13 14  1  0
 14 24  2  0
 15 14  1  0
 15 16  2  0
 16 17  1  0
 17 23  2  0
 17 18  1  0
 19 18  1  6
 20 19  1  0
 20  9  1  0
 21 19  1  0
 22 21  2  0
 24 23  1  0
 25 21  1  0
 26 25  1  0
 26 27  1  1
 28 32  1  0
 28 27  1  0
 29 28  2  0
 30 26  1  0
 30 33  1  0
 31 30  2  0
M  END
$$$$
