YYD.pdb
     RDKit          3D

 33 34  0  0  1  0  0  0  0  0999 V2000
   -0.1401  -20.5340   20.1409 O   0  0  0  0  0  0  0  0  0  0  0  0
    1.0057  -20.0904   20.8018 C   0  0  0  0  0  0  0  0  0  0  0  0
    1.6514  -18.9297   20.4137 C   0  0  0  0  0  0  0  0  0  0  0  0
    2.7970  -18.5204   21.1030 C   0  0  0  0  0  0  0  0  0  0  0  0
    3.2951  -19.2341   22.1473 C   0  0  0  0  0  0  0  0  0  0  0  0
    4.5121  -18.7642   22.8503 C   0  0  0  0  0  0  0  0  0  0  0  0
    5.5999  -18.5540   21.8230 C   0  0  2  0  0  0  0  0  0  0  0  0
    5.9089  -19.8074   21.1833 N   0  0  0  0  0  0  0  0  0  0  0  0
    6.8306  -17.9970   22.4192 C   0  0  0  0  0  0  0  0  0  0  0  0
    7.8507  -18.7128   22.6500 O   0  0  0  0  0  0  0  0  0  0  0  0
    2.6677  -20.3894   22.5473 C   0  0  0  0  0  0  0  0  0  0  0  0
    1.5261  -20.7973   21.8603 C   0  0  0  0  0  0  0  0  0  0  0  0
    8.2445  -12.5121   17.7974 O   0  0  0  0  0  0  0  0  0  0  0  0
    8.1725  -13.0040   19.1031 C   0  0  0  0  0  0  0  0  0  0  0  0
    8.6824  -14.2428   19.4311 C   0  0  0  0  0  0  0  0  0  0  0  0
    8.5982  -14.7018   20.7221 C   0  0  0  0  0  0  0  0  0  0  0  0
    8.0145  -13.9763   21.7506 C   0  0  0  0  0  0  0  0  0  0  0  0
    7.9835  -14.5618   23.0700 C   0  0  0  0  0  0  0  0  0  0  0  0
    8.1670  -16.0069   23.2491 C   0  0  2  0  0  0  0  0  0  0  0  0
    6.9088  -16.6258   22.7558 N   0  0  0  0  0  0  0  0  0  0  0  0
    8.3521  -16.4937   24.6295 C   0  0  0  0  0  0  0  0  0  0  0  0
    7.3427  -16.6019   25.4161 O   0  0  0  0  0  0  0  0  0  0  0  0
    7.5053  -12.7367   21.4178 C   0  0  0  0  0  0  0  0  0  0  0  0
    7.5915  -12.2795   20.1219 C   0  0  0  0  0  0  0  0  0  0  0  0
    9.5881  -16.8792   25.2136 N   0  0  0  0  0  0  0  0  0  0  0  0
    9.6386  -17.8141   26.3017 C   0  0  1  0  0  0  0  0  0  0  0  0
    8.9801  -19.1324   25.9713 C   0  0  0  0  0  0  0  0  0  0  0  0
    9.0925  -20.1118   27.0655 C   0  0  0  0  0  0  0  0  0  0  0  0
    8.6779  -19.9314   28.2389 O   0  0  0  0  0  0  0  0  0  0  0  0
   11.0323  -18.1198   26.6882 C   0  0  0  0  0  0  0  0  0  0  0  0
   12.0449  -17.9202   25.9816 O   0  0  0  0  0  0  0  0  0  0  0  0
    9.7013  -21.3273   26.7853 O   0  0  0  0  0  0  0  0  0  0  0  0
   11.2754  -18.6843   27.9523 O   0  0  0  0  0  0  0  0  0  0  0  0
  2  3  2  0
  2  1  1  0
  4  3  1  0
  5  4  2  0
  6  7  1  0
  6  5  1  0
  7  9  1  0
  7  8  1  1
  9 10  2  0
 11  5  1  0
 11 12  2  0
 12  2  1  0
 13 14  1  0
 14 24  2  0
 15 14  1  0
 15 16  2  0
 16 17  1  0
 17 23  2  0
 17 18  1  0
 19 18  1  1
 20 19  1  0
 20  9  1  0
 21 19  1  0
 22 21  2  0
 24 23  1  0
 25 21  1  0
 26 25  1  0
 26 27  1  6
 28 32  1  0
 28 27  1  0
 29 28  2  0
 30 26  1  0
 30 33  1  0
 31 30  2  0
M  END
$$$$
