YYD.pdb
     RDKit          3D

 33 34  0  0  1  0  0  0  0  0999 V2000
    8.2780  -11.6836   29.2938 O   0  0  0  0  0  0  0  0  0  0  0  0
    8.3222  -12.8426   28.5184 C   0  0  0  0  0  0  0  0  0  0  0  0
    7.9810  -12.8200   27.1777 C   0  0  0  0  0  0  0  0  0  0  0  0
    8.0389  -14.0042   26.4364 C   0  0  0  0  0  0  0  0  0  0  0  0
    8.4226  -15.1807   26.9991 C   0  0  0  0  0  0  0  0  0  0  0  0
    8.4701  -16.4126   26.1768 C   0  0  0  0  0  0  0  0  0  0  0  0
    7.6018  -16.2016   24.9586 C   0  0  2  0  0  0  0  0  0  0  0  0
    6.3543  -16.9025   25.1273 N   0  0  0  0  0  0  0  0  0  0  0  0
    8.2561  -16.6666   23.7193 C   0  0  0  0  0  0  0  0  0  0  0  0
    7.8804  -17.7135   23.1115 O   0  0  0  0  0  0  0  0  0  0  0  0
    8.7653  -15.2230   28.3292 C   0  0  0  0  0  0  0  0  0  0  0  0
    8.7075  -14.0429   29.0678 C   0  0  0  0  0  0  0  0  0  0  0  0
    5.8053  -12.8297   18.2656 O   0  0  0  0  0  0  0  0  0  0  0  0
    6.8720  -13.3728   18.9863 C   0  0  0  0  0  0  0  0  0  0  0  0
    7.6196  -14.4163   18.4821 C   0  0  0  0  0  0  0  0  0  0  0  0
    8.6626  -14.9310   19.2115 C   0  0  0  0  0  0  0  0  0  0  0  0
    9.0239  -14.4535   20.4630 C   0  0  0  0  0  0  0  0  0  0  0  0
   10.1398  -15.0743   21.1368 C   0  0  0  0  0  0  0  0  0  0  0  0
    9.9614  -16.3323   21.8713 C   0  0  2  0  0  0  0  0  0  0  0  0
    9.3389  -15.9461   23.1647 N   0  0  0  0  0  0  0  0  0  0  0  0
   11.1812  -17.0897   22.2109 C   0  0  0  0  0  0  0  0  0  0  0  0
   11.5263  -18.1063   21.5062 O   0  0  0  0  0  0  0  0  0  0  0  0
    8.2728  -13.4088   20.9639 C   0  0  0  0  0  0  0  0  0  0  0  0
    7.2275  -12.8950   20.2296 C   0  0  0  0  0  0  0  0  0  0  0  0
   12.0635  -16.8010   23.2859 N   0  0  0  0  0  0  0  0  0  0  0  0
   13.2440  -17.5858   23.5123 C   0  0  1  0  0  0  0  0  0  0  0  0
   14.4604  -16.7409   23.8073 C   0  0  0  0  0  0  0  0  0  0  0  0
   14.9705  -16.0456   22.6133 C   0  0  0  0  0  0  0  0  0  0  0  0
   15.9066  -15.2059   22.6137 O   0  0  0  0  0  0  0  0  0  0  0  0
   13.0732  -18.5011   24.6604 C   0  0  0  0  0  0  0  0  0  0  0  0
   12.0391  -18.6137   25.3550 O   0  0  0  0  0  0  0  0  0  0  0  0
   14.3762  -16.3357   21.3930 O   0  0  0  0  0  0  0  0  0  0  0  0
   14.1463  -19.3303   25.0300 O   0  0  0  0  0  0  0  0  0  0  0  0
  2  3  2  0
  2  1  1  0
  4  3  1  0
  5  4  2  0
  6  7  1  0
  6  5  1  0
  7  9  1  0
  7  8  1  1
  9 10  2  0
 11  5  1  0
 11 12  2  0
 12  2  1  0
 13 14  1  0
 14 24  2  0
 15 14  1  0
 15 16  2  0
 16 17  1  0
 17 23  2  0
 17 18  1  0
 19 18  1  1
 20 19  1  0
 20  9  1  0
 21 19  1  0
 22 21  2  0
 24 23  1  0
 25 21  1  0
 26 25  1  0
 26 27  1  1
 28 32  1  0
 28 27  1  0
 29 28  2  0
 30 26  1  0
 30 33  1  0
 31 30  2  0
M  END
$$$$
