YYD.pdb
     RDKit          3D

 33 34  0  0  1  0  0  0  0  0999 V2000
    7.9161  -20.7398   14.3487 O   0  0  0  0  0  0  0  0  0  0  0  0
    8.2547  -20.1070   15.5451 C   0  0  0  0  0  0  0  0  0  0  0  0
    8.9161  -20.7873   16.5521 C   0  0  0  0  0  0  0  0  0  0  0  0
    9.2370  -20.1156   17.7358 C   0  0  0  0  0  0  0  0  0  0  0  0
    8.9156  -18.8083   17.9245 C   0  0  0  0  0  0  0  0  0  0  0  0
    9.2746  -18.1347   19.1947 C   0  0  0  0  0  0  0  0  0  0  0  0
    9.0366  -16.6522   19.0272 C   0  0  2  0  0  0  0  0  0  0  0  0
    9.8334  -16.1555   17.9344 N   0  0  0  0  0  0  0  0  0  0  0  0
    9.3632  -15.8926   20.2505 C   0  0  0  0  0  0  0  0  0  0  0  0
   10.5563  -15.6022   20.5644 O   0  0  0  0  0  0  0  0  0  0  0  0
    8.2586  -18.1159   16.9359 C   0  0  0  0  0  0  0  0  0  0  0  0
    7.9389  -18.7854   15.7563 C   0  0  0  0  0  0  0  0  0  0  0  0
    6.6871  -12.2031   28.0982 O   0  0  0  0  0  0  0  0  0  0  0  0
    6.8663  -12.6722   26.7944 C   0  0  0  0  0  0  0  0  0  0  0  0
    6.4115  -13.9167   26.4120 C   0  0  0  0  0  0  0  0  0  0  0  0
    6.6010  -14.3530   25.1242 C   0  0  0  0  0  0  0  0  0  0  0  0
    7.2411  -13.5980   24.1521 C   0  0  0  0  0  0  0  0  0  0  0  0
    7.3827  -14.1614   22.8302 C   0  0  0  0  0  0  0  0  0  0  0  0
    8.6351  -14.8114   22.4268 C   0  0  2  0  0  0  0  0  0  0  0  0
    8.3378  -15.4595   21.1226 N   0  0  0  0  0  0  0  0  0  0  0  0
    9.1524  -15.8761   23.3075 C   0  0  0  0  0  0  0  0  0  0  0  0
    8.6312  -17.0494   23.2758 O   0  0  0  0  0  0  0  0  0  0  0  0
    7.6949  -12.3526   24.5392 C   0  0  0  0  0  0  0  0  0  0  0  0
    7.5030  -11.9184   25.8317 C   0  0  0  0  0  0  0  0  0  0  0  0
   10.2215  -15.7398   24.2326 N   0  0  0  0  0  0  0  0  0  0  0  0
   10.6562  -16.8462   25.0374 C   0  0  1  0  0  0  0  0  0  0  0  0
   12.1579  -16.9079   25.1848 C   0  0  0  0  0  0  0  0  0  0  0  0
   12.8447  -17.1286   23.9007 C   0  0  0  0  0  0  0  0  0  0  0  0
   12.3948  -17.8226   22.9534 O   0  0  0  0  0  0  0  0  0  0  0  0
   10.0973  -16.7738   26.4040 C   0  0  0  0  0  0  0  0  0  0  0  0
    9.4541  -17.6806   26.9771 O   0  0  0  0  0  0  0  0  0  0  0  0
   14.0822  -16.5274   23.7176 O   0  0  0  0  0  0  0  0  0  0  0  0
   10.2872  -15.5984   27.1511 O   0  0  0  0  0  0  0  0  0  0  0  0
  2  3  2  0
  2  1  1  0
  4  3  1  0
  5  4  2  0
  6  7  1  0
  6  5  1  0
  7  9  1  0
  7  8  1  6
  9 10  2  0
 11  5  1  0
 11 12  2  0
 12  2  1  0
 13 14  1  0
 14 24  2  0
 15 14  1  0
 15 16  2  0
 16 17  1  0
 17 23  2  0
 17 18  1  0
 19 18  1  1
 20 19  1  0
 20  9  1  0
 21 19  1  0
 22 21  2  0
 24 23  1  0
 25 21  1  0
 26 25  1  0
 26 27  1  1
 28 32  1  0
 28 27  1  0
 29 28  2  0
 30 26  1  0
 30 33  1  0
 31 30  2  0
M  END
$$$$
