YYD.pdb
     RDKit          3D

 33 34  0  0  1  0  0  0  0  0999 V2000
    9.6646  -25.1018   25.0470 O   0  0  0  0  0  0  0  0  0  0  0  0
    9.9231  -23.7632   24.7506 C   0  0  0  0  0  0  0  0  0  0  0  0
    9.1906  -23.0888   23.7898 C   0  0  0  0  0  0  0  0  0  0  0  0
    9.4821  -21.7474   23.5232 C   0  0  0  0  0  0  0  0  0  0  0  0
   10.4687  -21.0861   24.1844 C   0  0  0  0  0  0  0  0  0  0  0  0
   10.7445  -19.6643   23.8707 C   0  0  0  0  0  0  0  0  0  0  0  0
   10.4756  -18.8457   25.1118 C   0  0  2  0  0  0  0  0  0  0  0  0
    9.0699  -18.8902   25.4246 N   0  0  0  0  0  0  0  0  0  0  0  0
   10.8932  -17.4383   24.9535 C   0  0  0  0  0  0  0  0  0  0  0  0
   10.1093  -16.5498   24.5037 O   0  0  0  0  0  0  0  0  0  0  0  0
   11.2070  -21.7391   25.1420 C   0  0  0  0  0  0  0  0  0  0  0  0
   10.9164  -23.0758   25.4076 C   0  0  0  0  0  0  0  0  0  0  0  0
    9.6200  -15.8692   30.8615 O   0  0  0  0  0  0  0  0  0  0  0  0
   10.4653  -15.6801   29.7652 C   0  0  0  0  0  0  0  0  0  0  0  0
   11.3521  -16.6584   29.3672 C   0  0  0  0  0  0  0  0  0  0  0  0
   12.1714  -16.4462   28.2862 C   0  0  0  0  0  0  0  0  0  0  0  0
   12.1640  -15.2734   27.5451 C   0  0  0  0  0  0  0  0  0  0  0  0
   13.0717  -15.1636   26.4276 C   0  0  0  0  0  0  0  0  0  0  0  0
   12.6773  -15.6405   25.0969 C   0  0  2  0  0  0  0  0  0  0  0  0
   12.2017  -17.0334   25.3048 N   0  0  0  0  0  0  0  0  0  0  0  0
   13.7344  -15.7149   24.0704 C   0  0  0  0  0  0  0  0  0  0  0  0
   14.3984  -14.6631   23.7509 O   0  0  0  0  0  0  0  0  0  0  0  0
   11.2747  -14.2966   27.9471 C   0  0  0  0  0  0  0  0  0  0  0  0
   10.4545  -14.5129   29.0317 C   0  0  0  0  0  0  0  0  0  0  0  0
   14.1207  -16.8837   23.3618 N   0  0  0  0  0  0  0  0  0  0  0  0
   15.1380  -16.8396   22.3500 C   0  0  1  0  0  0  0  0  0  0  0  0
   16.1413  -17.9609   22.4800 C   0  0  0  0  0  0  0  0  0  0  0  0
   16.9359  -17.8696   23.7168 C   0  0  0  0  0  0  0  0  0  0  0  0
   17.2560  -16.7968   24.2896 O   0  0  0  0  0  0  0  0  0  0  0  0
   14.5577  -16.9431   20.9944 C   0  0  0  0  0  0  0  0  0  0  0  0
   13.3384  -17.0259   20.7281 O   0  0  0  0  0  0  0  0  0  0  0  0
   17.3663  -19.0544   24.2977 O   0  0  0  0  0  0  0  0  0  0  0  0
   15.4232  -16.9520   19.8869 O   0  0  0  0  0  0  0  0  0  0  0  0
  2  3  2  0
  2  1  1  0
  4  3  1  0
  5  4  2  0
  6  7  1  0
  6  5  1  0
  7  9  1  0
  7  8  1  6
  9 10  2  0
 11  5  1  0
 11 12  2  0
 12  2  1  0
 13 14  1  0
 14 24  2  0
 15 14  1  0
 15 16  2  0
 16 17  1  0
 17 23  2  0
 17 18  1  0
 19 18  1  1
 20 19  1  0
 20  9  1  0
 21 19  1  0
 22 21  2  0
 24 23  1  0
 25 21  1  0
 26 25  1  0
 26 27  1  1
 28 32  1  0
 28 27  1  0
 29 28  2  0
 30 26  1  0
 30 33  1  0
 31 30  2  0
M  END
$$$$
