YYD.pdb
     RDKit          3D

 33 34  0  0  1  0  0  0  0  0999 V2000
   10.3651  -13.1764   29.9537 O   0  0  0  0  0  0  0  0  0  0  0  0
   10.0748  -14.3398   29.2406 C   0  0  0  0  0  0  0  0  0  0  0  0
   10.9643  -15.3992   29.2071 C   0  0  0  0  0  0  0  0  0  0  0  0
   10.6345  -16.5474   28.4802 C   0  0  0  0  0  0  0  0  0  0  0  0
    9.4601  -16.6511   27.8036 C   0  0  0  0  0  0  0  0  0  0  0  0
    9.1502  -17.8863   27.0456 C   0  0  0  0  0  0  0  0  0  0  0  0
    7.7942  -17.7176   26.4011 C   0  0  2  0  0  0  0  0  0  0  0  0
    6.9522  -18.8341   26.7481 N   0  0  0  0  0  0  0  0  0  0  0  0
    7.8838  -17.6159   24.9307 C   0  0  0  0  0  0  0  0  0  0  0  0
    7.6383  -18.6005   24.1714 O   0  0  0  0  0  0  0  0  0  0  0  0
    8.5640  -15.6095   27.8250 C   0  0  0  0  0  0  0  0  0  0  0  0
    8.8927  -14.4654   28.5494 C   0  0  0  0  0  0  0  0  0  0  0  0
    7.3763  -12.5235   17.4675 O   0  0  0  0  0  0  0  0  0  0  0  0
    7.5260  -13.0958   18.7333 C   0  0  0  0  0  0  0  0  0  0  0  0
    6.7628  -12.6779   19.8032 C   0  0  0  0  0  0  0  0  0  0  0  0
    6.9305  -13.2576   21.0364 C   0  0  0  0  0  0  0  0  0  0  0  0
    7.8478  -14.2689   21.2827 C   0  0  0  0  0  0  0  0  0  0  0  0
    7.9356  -14.8027   22.6214 C   0  0  0  0  0  0  0  0  0  0  0  0
    8.2348  -16.2227   22.8400 C   0  0  2  0  0  0  0  0  0  0  0  0
    8.2522  -16.3969   24.3161 N   0  0  0  0  0  0  0  0  0  0  0  0
    9.5362  -16.7171   22.3514 C   0  0  0  0  0  0  0  0  0  0  0  0
    9.7877  -16.7354   21.0921 O   0  0  0  0  0  0  0  0  0  0  0  0
    8.6098  -14.6843   20.2087 C   0  0  0  0  0  0  0  0  0  0  0  0
    8.4388  -14.1006   18.9734 C   0  0  0  0  0  0  0  0  0  0  0  0
   10.5982  -17.1970   23.1632 N   0  0  0  0  0  0  0  0  0  0  0  0
   11.9502  -17.2251   22.6816 C   0  0  1  0  0  0  0  0  0  0  0  0
   12.4698  -15.8549   22.3165 C   0  0  0  0  0  0  0  0  0  0  0  0
   13.8564  -15.8882   21.8211 C   0  0  0  0  0  0  0  0  0  0  0  0
   14.8817  -15.8742   22.5491 O   0  0  0  0  0  0  0  0  0  0  0  0
   12.8747  -17.7741   23.6961 C   0  0  0  0  0  0  0  0  0  0  0  0
   12.5776  -18.0494   24.8795 O   0  0  0  0  0  0  0  0  0  0  0  0
   14.0513  -15.9390   20.4479 O   0  0  0  0  0  0  0  0  0  0  0  0
   14.2100  -18.0196   23.3322 O   0  0  0  0  0  0  0  0  0  0  0  0
  2  3  2  0
  2  1  1  0
  4  3  1  0
  5  4  2  0
  6  7  1  0
  6  5  1  0
  7  9  1  0
  7  8  1  6
  9 10  2  0
 11  5  1  0
 11 12  2  0
 12  2  1  0
 13 14  1  0
 14 24  2  0
 15 14  1  0
 15 16  2  0
 16 17  1  0
 17 23  2  0
 17 18  1  0
 19 18  1  1
 20 19  1  0
 20  9  1  0
 21 19  1  0
 22 21  2  0
 24 23  1  0
 25 21  1  0
 26 25  1  0
 26 27  1  1
 28 32  1  0
 28 27  1  0
 29 28  2  0
 30 26  1  0
 30 33  1  0
 31 30  2  0
M  END
$$$$
