TGH.pdb
     RDKit          3D

 22 22  0  0  1  0  0  0  0  0999 V2000
   26.1422  -12.1516  -15.9931 C   0  0  0  0  0  0  0  0  0  0  0  0
   25.5499  -10.9165  -15.3944 C   0  0  1  0  0  0  0  0  0  0  0  0
   25.9455   -9.8197  -16.1609 O   0  0  0  0  0  0  0  0  0  0  0  0
   24.0354  -10.9345  -15.3880 C   0  0  2  0  0  0  0  0  0  0  0  0
   23.5861  -11.0229  -16.7411 N   0  0  0  0  0  0  0  0  0  0  0  0
   23.4569   -9.7652  -14.7312 C   0  0  0  0  0  0  0  0  0  0  0  0
   23.5526   -9.5751  -13.4942 O   0  0  0  0  0  0  0  0  0  0  0  0
   22.7569   -8.7969  -15.5043 N   0  0  0  0  0  0  0  0  0  0  0  0
   22.1808   -7.6105  -14.9161 C   0  0  0  0  0  0  0  0  0  0  0  0
   20.8924   -7.3277  -15.5958 C   0  0  0  0  0  0  0  0  0  0  0  0
   20.6704   -7.7151  -16.7717 O   0  0  0  0  0  0  0  0  0  0  0  0
   19.8603   -6.6084  -14.9443 N   0  0  0  0  0  0  0  0  0  0  0  0
   18.6557   -6.2816  -15.6476 C   0  0  1  0  0  0  0  0  0  0  0  0
   17.4460   -6.9689  -15.0709 C   0  0  0  0  0  0  0  0  0  0  0  0
   16.2051   -6.6224  -15.7983 C   0  0  0  0  0  0  0  0  0  0  0  0
   16.0338   -5.7924  -16.9005 C   0  0  0  0  0  0  0  0  0  0  0  0
   14.7278   -5.7639  -17.2147 N   0  0  0  0  0  0  0  0  0  0  0  0
   14.0580   -6.5357  -16.3659 C   0  0  0  0  0  0  0  0  0  0  0  0
   14.9389   -7.0478  -15.5210 N   0  0  0  0  0  0  0  0  0  0  0  0
   18.4825   -4.8000  -15.7728 C   0  0  0  0  0  0  0  0  0  0  0  0
   17.5331   -4.2526  -16.3783 O   0  0  0  0  0  0  0  0  0  0  0  0
   19.4126   -3.9214  -15.1947 O   0  0  0  0  0  0  0  0  0  0  0  0
  2  4  1  0
  2  1  1  6
  2  3  1  0
  4  5  1  6
  6  4  1  0
  6  8  1  0
  7  6  2  0
  9  8  1  0
  9 10  1  0
 10 12  1  0
 10 11  2  0
 12 13  1  0
 13 14  1  1
 14 15  1  0
 15 16  2  0
 16 17  1  0
 18 17  1  0
 19 15  1  0
 19 18  2  0
 20 13  1  0
 20 22  1  0
 21 20  2  0
M  END
$$$$
