TGH.pdb
     RDKit          3D

 22 22  0  0  1  0  0  0  0  0999 V2000
   20.6331   -8.6084  -21.4413 C   0  0  0  0  0  0  0  0  0  0  0  0
   19.7680   -8.4457  -20.2331 C   0  0  1  0  0  0  0  0  0  0  0  0
   20.5499   -8.6583  -19.0971 O   0  0  0  0  0  0  0  0  0  0  0  0
   19.1776   -7.0558  -20.1158 C   0  0  2  0  0  0  0  0  0  0  0  0
   20.2475   -6.1114  -20.1805 N   0  0  0  0  0  0  0  0  0  0  0  0
   18.4031   -6.8699  -18.8914 C   0  0  0  0  0  0  0  0  0  0  0  0
   17.4126   -7.5873  -18.6091 O   0  0  0  0  0  0  0  0  0  0  0  0
   18.7693   -5.8448  -17.9747 N   0  0  0  0  0  0  0  0  0  0  0  0
   18.0800   -5.6494  -16.7208 C   0  0  0  0  0  0  0  0  0  0  0  0
   19.0928   -5.4827  -15.6493 C   0  0  0  0  0  0  0  0  0  0  0  0
   18.7585   -5.2567  -14.4579 O   0  0  0  0  0  0  0  0  0  0  0  0
   20.4789   -5.5719  -15.9280 N   0  0  0  0  0  0  0  0  0  0  0  0
   21.4391   -5.2937  -14.9019 C   0  0  1  0  0  0  0  0  0  0  0  0
   22.4978   -6.3598  -14.7975 C   0  0  0  0  0  0  0  0  0  0  0  0
   21.9191   -7.7058  -14.5919 C   0  0  0  0  0  0  0  0  0  0  0  0
   20.5948   -8.0706  -14.3764 C   0  0  0  0  0  0  0  0  0  0  0  0
   20.5380   -9.4050  -14.2304 N   0  0  0  0  0  0  0  0  0  0  0  0
   21.7621   -9.9086  -14.3423 C   0  0  0  0  0  0  0  0  0  0  0  0
   22.5860   -8.8953  -14.5579 N   0  0  0  0  0  0  0  0  0  0  0  0
   22.0079   -3.9166  -15.0466 C   0  0  0  0  0  0  0  0  0  0  0  0
   21.7172   -3.1310  -15.9772 O   0  0  0  0  0  0  0  0  0  0  0  0
   22.9294   -3.4229  -14.1094 O   0  0  0  0  0  0  0  0  0  0  0  0
  2  4  1  0
  2  1  1  6
  2  3  1  0
  4  5  1  1
  6  4  1  0
  6  8  1  0
  7  6  2  0
  9  8  1  0
  9 10  1  0
 10 12  1  0
 10 11  2  0
 12 13  1  0
 13 14  1  6
 14 15  1  0
 15 16  2  0
 16 17  1  0
 18 17  1  0
 19 15  1  0
 19 18  2  0
 20 13  1  0
 20 22  1  0
 21 20  2  0
M  END
$$$$
