TGH.pdb
     RDKit          3D

 22 22  0  0  1  0  0  0  0  0999 V2000
   34.9259  -25.7352  -16.4136 C   0  0  0  0  0  0  0  0  0  0  0  0
   33.7163  -26.5281  -16.7916 C   0  0  1  0  0  0  0  0  0  0  0  0
   33.6641  -27.6666  -15.9865 O   0  0  0  0  0  0  0  0  0  0  0  0
   32.4241  -25.7681  -16.5754 C   0  0  2  0  0  0  0  0  0  0  0  0
   32.3030  -25.4848  -15.1804 N   0  0  0  0  0  0  0  0  0  0  0  0
   31.2513  -26.4952  -17.0544 C   0  0  0  0  0  0  0  0  0  0  0  0
   31.1183  -26.8368  -18.2549 O   0  0  0  0  0  0  0  0  0  0  0  0
   30.2131  -26.8369  -16.1431 N   0  0  0  0  0  0  0  0  0  0  0  0
   29.0467  -27.5856  -16.5485 C   0  0  0  0  0  0  0  0  0  0  0  0
   28.0047  -26.6272  -16.9930 C   0  0  0  0  0  0  0  0  0  0  0  0
   28.2104  -25.8245  -17.9393 O   0  0  0  0  0  0  0  0  0  0  0  0
   26.7348  -26.5797  -16.3668 N   0  0  0  0  0  0  0  0  0  0  0  0
   25.7159  -25.7076  -16.8703 C   0  0  1  0  0  0  0  0  0  0  0  0
   26.2486  -24.7128  -17.8678 C   0  0  0  0  0  0  0  0  0  0  0  0
   27.0063  -23.6201  -17.2192 C   0  0  0  0  0  0  0  0  0  0  0  0
   27.2923  -23.4266  -15.8723 C   0  0  0  0  0  0  0  0  0  0  0  0
   27.9979  -22.2903  -15.7446 N   0  0  0  0  0  0  0  0  0  0  0  0
   28.1756  -21.7501  -16.9452 C   0  0  0  0  0  0  0  0  0  0  0  0
   27.5844  -22.5430  -17.8247 N   0  0  0  0  0  0  0  0  0  0  0  0
   24.5421  -26.4809  -17.3852 C   0  0  0  0  0  0  0  0  0  0  0  0
   24.5169  -27.7277  -17.4967 O   0  0  0  0  0  0  0  0  0  0  0  0
   23.3696  -25.8184  -17.7823 O   0  0  0  0  0  0  0  0  0  0  0  0
  2  4  1  0
  2  1  1  1
  2  3  1  0
  4  5  1  1
  6  4  1  0
  6  8  1  0
  7  6  2  0
  9  8  1  0
  9 10  1  0
 10 12  1  0
 10 11  2  0
 12 13  1  0
 13 14  1  6
 14 15  1  0
 15 16  2  0
 16 17  1  0
 18 17  1  0
 19 15  1  0
 19 18  2  0
 20 13  1  0
 20 22  1  0
 21 20  2  0
M  END
$$$$
