TGH.pdb
     RDKit          3D

 22 22  0  0  1  0  0  0  0  0999 V2000
   36.7180  -27.1564  -14.6686 C   0  0  0  0  0  0  0  0  0  0  0  0
   36.5352  -26.1633  -15.7709 C   0  0  1  0  0  0  0  0  0  0  0  0
   37.6559  -26.2122  -16.6009 O   0  0  0  0  0  0  0  0  0  0  0  0
   35.3264  -26.4592  -16.6342 C   0  0  2  0  0  0  0  0  0  0  0  0
   35.2850  -25.4945  -17.6870 N   0  0  0  0  0  0  0  0  0  0  0  0
   34.0751  -26.4496  -15.8807 C   0  0  0  0  0  0  0  0  0  0  0  0
   33.9318  -27.0897  -14.8106 O   0  0  0  0  0  0  0  0  0  0  0  0
   32.9689  -25.6939  -16.3609 N   0  0  0  0  0  0  0  0  0  0  0  0
   31.6998  -25.6622  -15.6728 C   0  0  0  0  0  0  0  0  0  0  0  0
   30.7549  -24.8395  -16.4680 C   0  0  0  0  0  0  0  0  0  0  0  0
   29.5634  -24.6691  -16.1029 O   0  0  0  0  0  0  0  0  0  0  0  0
   31.1601  -24.2130  -17.6723 N   0  0  0  0  0  0  0  0  0  0  0  0
   30.2330  -23.4114  -18.4142 C   0  0  1  0  0  0  0  0  0  0  0  0
   30.1292  -22.0065  -17.8814 C   0  0  0  0  0  0  0  0  0  0  0  0
   28.9666  -21.8326  -16.9832 C   0  0  0  0  0  0  0  0  0  0  0  0
   27.9779  -22.7467  -16.6367 C   0  0  0  0  0  0  0  0  0  0  0  0
   27.1147  -22.1456  -15.8007 N   0  0  0  0  0  0  0  0  0  0  0  0
   27.5054  -20.8923  -15.5974 C   0  0  0  0  0  0  0  0  0  0  0  0
   28.6099  -20.7054  -16.3026 N   0  0  0  0  0  0  0  0  0  0  0  0
   30.5231  -23.4604  -19.8820 C   0  0  0  0  0  0  0  0  0  0  0  0
   31.6461  -23.7265  -20.3674 O   0  0  0  0  0  0  0  0  0  0  0  0
   29.5101  -23.2001  -20.8187 O   0  0  0  0  0  0  0  0  0  0  0  0
  2  4  1  0
  2  1  1  1
  2  3  1  0
  4  5  1  6
  6  4  1  0
  6  8  1  0
  7  6  2  0
  9  8  1  0
  9 10  1  0
 10 12  1  0
 10 11  2  0
 12 13  1  0
 13 14  1  1
 14 15  1  0
 15 16  2  0
 16 17  1  0
 18 17  1  0
 19 15  1  0
 19 18  2  0
 20 13  1  0
 20 22  1  0
 21 20  2  0
M  END
$$$$
