TGH.pdb
     RDKit          3D

 22 22  0  0  1  0  0  0  0  0999 V2000
   24.4820  -12.1121  -15.2009 C   0  0  0  0  0  0  0  0  0  0  0  0
   23.7957  -11.1284  -16.0931 C   0  0  1  0  0  0  0  0  0  0  0  0
   24.3545  -11.2227  -17.3682 O   0  0  0  0  0  0  0  0  0  0  0  0
   22.3120  -11.3983  -16.2342 C   0  0  2  0  0  0  0  0  0  0  0  0
   22.1465  -12.7360  -16.7075 N   0  0  0  0  0  0  0  0  0  0  0  0
   21.6457  -10.4529  -17.1263 C   0  0  0  0  0  0  0  0  0  0  0  0
   21.2024  -10.7904  -18.2510 O   0  0  0  0  0  0  0  0  0  0  0  0
   21.4843   -9.0975  -16.7233 N   0  0  0  0  0  0  0  0  0  0  0  0
   20.7623   -8.1360  -17.5230 C   0  0  0  0  0  0  0  0  0  0  0  0
   20.8333   -6.8163  -16.8484 C   0  0  0  0  0  0  0  0  0  0  0  0
   20.4011   -5.7718  -17.3999 O   0  0  0  0  0  0  0  0  0  0  0  0
   21.3924   -6.6822  -15.5535 N   0  0  0  0  0  0  0  0  0  0  0  0
   21.0884   -5.5333  -14.7535 C   0  0  1  0  0  0  0  0  0  0  0  0
   20.0037   -5.8034  -13.7441 C   0  0  0  0  0  0  0  0  0  0  0  0
   18.6832   -6.0033  -14.3807 C   0  0  0  0  0  0  0  0  0  0  0  0
   18.3410   -5.9646  -15.7278 C   0  0  0  0  0  0  0  0  0  0  0  0
   17.0215   -6.1917  -15.8398 N   0  0  0  0  0  0  0  0  0  0  0  0
   16.5058   -6.3733  -14.6290 C   0  0  0  0  0  0  0  0  0  0  0  0
   17.4968   -6.2610  -13.7587 N   0  0  0  0  0  0  0  0  0  0  0  0
   22.3250   -4.9524  -14.1419 C   0  0  0  0  0  0  0  0  0  0  0  0
   23.4854   -5.3522  -14.3896 O   0  0  0  0  0  0  0  0  0  0  0  0
   22.2379   -3.8912  -13.2268 O   0  0  0  0  0  0  0  0  0  0  0  0
  2  4  1  0
  2  1  1  1
  2  3  1  0
  4  5  1  6
  6  4  1  0
  6  8  1  0
  7  6  2  0
  9  8  1  0
  9 10  1  0
 10 12  1  0
 10 11  2  0
 12 13  1  0
 13 14  1  1
 14 15  1  0
 15 16  2  0
 16 17  1  0
 18 17  1  0
 19 15  1  0
 19 18  2  0
 20 13  1  0
 20 22  1  0
 21 20  2  0
M  END
$$$$
