TGH.pdb
     RDKit          3D

 22 22  0  0  1  0  0  0  0  0999 V2000
   12.6674   -8.1331   -9.8592 C   0  0  0  0  0  0  0  0  0  0  0  0
   13.5394   -7.0908   -9.2362 C   0  0  1  0  0  0  0  0  0  0  0  0
   12.9723   -6.7089   -8.0198 O   0  0  0  0  0  0  0  0  0  0  0  0
   14.9368   -7.5941   -8.9396 C   0  0  2  0  0  0  0  0  0  0  0  0
   15.6760   -6.5275   -8.3424 N   0  0  0  0  0  0  0  0  0  0  0  0
   15.6247   -8.0919  -10.1280 C   0  0  0  0  0  0  0  0  0  0  0  0
   15.2243   -9.0983  -10.7624 O   0  0  0  0  0  0  0  0  0  0  0  0
   16.7911   -7.4258  -10.5982 N   0  0  0  0  0  0  0  0  0  0  0  0
   17.4196   -7.7648  -11.8534 C   0  0  0  0  0  0  0  0  0  0  0  0
   18.4508   -6.7409  -12.1537 C   0  0  0  0  0  0  0  0  0  0  0  0
   18.6766   -5.7849  -11.3681 O   0  0  0  0  0  0  0  0  0  0  0  0
   19.2224   -6.8013  -13.3403 N   0  0  0  0  0  0  0  0  0  0  0  0
   20.2617   -5.8430  -13.5729 C   0  0  1  0  0  0  0  0  0  0  0  0
   21.3554   -6.3809  -14.4577 C   0  0  0  0  0  0  0  0  0  0  0  0
   21.7513   -7.7569  -14.0853 C   0  0  0  0  0  0  0  0  0  0  0  0
   22.1388   -8.2563  -12.8469 C   0  0  0  0  0  0  0  0  0  0  0  0
   22.4201   -9.5631  -12.9825 N   0  0  0  0  0  0  0  0  0  0  0  0
   22.2306   -9.9210  -14.2477 C   0  0  0  0  0  0  0  0  0  0  0  0
   21.8318   -8.8439  -14.9056 N   0  0  0  0  0  0  0  0  0  0  0  0
   19.7041   -4.5412  -14.0578 C   0  0  0  0  0  0  0  0  0  0  0  0
   18.5617   -4.4073  -14.5526 O   0  0  0  0  0  0  0  0  0  0  0  0
   20.4656   -3.3644  -13.9773 O   0  0  0  0  0  0  0  0  0  0  0  0
  2  4  1  0
  2  1  1  1
  2  3  1  0
  4  5  1  6
  6  4  1  0
  6  8  1  0
  7  6  2  0
  9  8  1  0
  9 10  1  0
 10 12  1  0
 10 11  2  0
 12 13  1  0
 13 14  1  6
 14 15  1  0
 15 16  2  0
 16 17  1  0
 18 17  1  0
 19 15  1  0
 19 18  2  0
 20 13  1  0
 20 22  1  0
 21 20  2  0
M  END
$$$$
