TGH.pdb
     RDKit          3D

 22 22  0  0  1  0  0  0  0  0999 V2000
   30.5069  -33.6265   -5.6620 C   0  0  0  0  0  0  0  0  0  0  0  0
   31.5396  -34.1997   -4.7457 C   0  0  1  0  0  0  0  0  0  0  0  0
   31.0601  -35.4084   -4.2395 O   0  0  0  0  0  0  0  0  0  0  0  0
   32.8484  -34.4968   -5.4478 C   0  0  2  0  0  0  0  0  0  0  0  0
   32.5852  -35.4177   -6.5078 N   0  0  0  0  0  0  0  0  0  0  0  0
   33.8672  -35.0298   -4.5469 C   0  0  0  0  0  0  0  0  0  0  0  0
   34.6826  -35.9143   -4.9051 O   0  0  0  0  0  0  0  0  0  0  0  0
   33.9536  -34.5415   -3.2130 N   0  0  0  0  0  0  0  0  0  0  0  0
   34.9999  -34.9540   -2.3071 C   0  0  0  0  0  0  0  0  0  0  0  0
   34.8192  -34.2342   -1.0222 C   0  0  0  0  0  0  0  0  0  0  0  0
   33.9876  -33.2979   -0.9043 O   0  0  0  0  0  0  0  0  0  0  0  0
   35.5787  -34.5751    0.1241 N   0  0  0  0  0  0  0  0  0  0  0  0
   35.4808  -33.7836    1.3142 C   0  0  1  0  0  0  0  0  0  0  0  0
   34.3853  -34.2563    2.2334 C   0  0  0  0  0  0  0  0  0  0  0  0
   33.2459  -34.8409    1.4925 C   0  0  0  0  0  0  0  0  0  0  0  0
   33.1055  -35.0640    0.1273 C   0  0  0  0  0  0  0  0  0  0  0  0
   31.8954  -35.6040   -0.0949 N   0  0  0  0  0  0  0  0  0  0  0  0
   31.2574  -35.7359    1.0628 C   0  0  0  0  0  0  0  0  0  0  0  0
   32.0626  -35.2808    2.0097 N   0  0  0  0  0  0  0  0  0  0  0  0
   36.8066  -33.6621    1.9986 C   0  0  0  0  0  0  0  0  0  0  0  0
   37.8603  -34.2003    1.5889 O   0  0  0  0  0  0  0  0  0  0  0  0
   36.9352  -32.9100    3.1771 O   0  0  0  0  0  0  0  0  0  0  0  0
  2  4  1  0
  2  1  1  6
  2  3  1  0
  4  5  1  6
  6  4  1  0
  6  8  1  0
  7  6  2  0
  9  8  1  0
  9 10  1  0
 10 12  1  0
 10 11  2  0
 12 13  1  0
 13 14  1  1
 14 15  1  0
 15 16  2  0
 16 17  1  0
 18 17  1  0
 19 15  1  0
 19 18  2  0
 20 13  1  0
 20 22  1  0
 21 20  2  0
M  END
$$$$
