TGH.pdb
     RDKit          3D

 22 22  0  0  1  0  0  0  0  0999 V2000
   43.1229  -11.9237   -8.8972 C   0  0  0  0  0  0  0  0  0  0  0  0
   44.1556  -12.1421   -7.8387 C   0  0  1  0  0  0  0  0  0  0  0  0
   45.1067  -13.0388   -8.3269 O   0  0  0  0  0  0  0  0  0  0  0  0
   44.8901  -10.8718   -7.4632 C   0  0  2  0  0  0  0  0  0  0  0  0
   45.9022  -11.2080   -6.5126 N   0  0  0  0  0  0  0  0  0  0  0  0
   44.0044   -9.8419   -6.9263 C   0  0  0  0  0  0  0  0  0  0  0  0
   43.7739   -9.7296   -5.6976 O   0  0  0  0  0  0  0  0  0  0  0  0
   43.3718   -8.9248   -7.8118 N   0  0  0  0  0  0  0  0  0  0  0  0
   42.4424   -7.9216   -7.3480 C   0  0  0  0  0  0  0  0  0  0  0  0
   41.2961   -7.8726   -8.2890 C   0  0  0  0  0  0  0  0  0  0  0  0
   41.3452   -8.4316   -9.4147 O   0  0  0  0  0  0  0  0  0  0  0  0
   40.0993   -7.1923   -7.9544 N   0  0  0  0  0  0  0  0  0  0  0  0
   38.9883   -7.2027   -8.8588 C   0  0  1  0  0  0  0  0  0  0  0  0
   37.7140   -7.6652   -8.2025 C   0  0  0  0  0  0  0  0  0  0  0  0
   37.9089   -8.8973   -7.4070 C   0  0  0  0  0  0  0  0  0  0  0  0
   39.0897   -9.5493   -7.0696 C   0  0  0  0  0  0  0  0  0  0  0  0
   38.7839  -10.6384   -6.3446 N   0  0  0  0  0  0  0  0  0  0  0  0
   37.4651  -10.7122   -6.2034 C   0  0  0  0  0  0  0  0  0  0  0  0
   36.9430   -9.6740   -6.8370 N   0  0  0  0  0  0  0  0  0  0  0  0
   38.8421   -5.8870   -9.5577 C   0  0  0  0  0  0  0  0  0  0  0  0
   39.4742   -4.8521   -9.2458 O   0  0  0  0  0  0  0  0  0  0  0  0
   37.9551   -5.7468  -10.6369 O   0  0  0  0  0  0  0  0  0  0  0  0
  2  4  1  0
  2  1  1  6
  2  3  1  0
  4  5  1  1
  6  4  1  0
  6  8  1  0
  7  6  2  0
  9  8  1  0
  9 10  1  0
 10 12  1  0
 10 11  2  0
 12 13  1  0
 13 14  1  1
 14 15  1  0
 15 16  2  0
 16 17  1  0
 18 17  1  0
 19 15  1  0
 19 18  2  0
 20 13  1  0
 20 22  1  0
 21 20  2  0
M  END
$$$$
