TGH.pdb
     RDKit          3D

 22 22  0  0  1  0  0  0  0  0999 V2000
   18.1680  -12.8882  -17.6810 C   0  0  0  0  0  0  0  0  0  0  0  0
   18.9727  -13.3708  -18.8447 C   0  0  1  0  0  0  0  0  0  0  0  0
   18.3365  -14.4864  -19.3903 O   0  0  0  0  0  0  0  0  0  0  0  0
   19.0891  -12.3389  -19.9472 C   0  0  2  0  0  0  0  0  0  0  0  0
   19.6672  -12.9723  -21.0898 N   0  0  0  0  0  0  0  0  0  0  0  0
   19.8775  -11.1742  -19.5532 C   0  0  0  0  0  0  0  0  0  0  0  0
   21.1321  -11.1697  -19.5910 O   0  0  0  0  0  0  0  0  0  0  0  0
   19.2178   -9.9943  -19.1082 N   0  0  0  0  0  0  0  0  0  0  0  0
   19.9422   -8.8292  -18.6575 C   0  0  0  0  0  0  0  0  0  0  0  0
   19.6618   -8.6315  -17.2138 C   0  0  0  0  0  0  0  0  0  0  0  0
   18.8009   -9.3222  -16.6105 O   0  0  0  0  0  0  0  0  0  0  0  0
   20.3552   -7.6544  -16.4577 N   0  0  0  0  0  0  0  0  0  0  0  0
   19.9964   -7.4127  -15.0920 C   0  0  1  0  0  0  0  0  0  0  0  0
   21.1658   -7.5560  -14.1538 C   0  0  0  0  0  0  0  0  0  0  0  0
   21.8813   -8.8372  -14.3421 C   0  0  0  0  0  0  0  0  0  0  0  0
   21.6739   -9.8292  -15.2941 C   0  0  0  0  0  0  0  0  0  0  0  0
   22.5528  -10.8215  -15.0751 N   0  0  0  0  0  0  0  0  0  0  0  0
   23.3107  -10.5102  -14.0294 C   0  0  0  0  0  0  0  0  0  0  0  0
   22.9103   -9.3268  -13.5920 N   0  0  0  0  0  0  0  0  0  0  0  0
   19.2808   -6.1067  -14.9394 C   0  0  0  0  0  0  0  0  0  0  0  0
   18.7082   -5.7382  -13.8887 O   0  0  0  0  0  0  0  0  0  0  0  0
   19.2158   -5.1993  -16.0088 O   0  0  0  0  0  0  0  0  0  0  0  0
  2  4  1  0
  2  1  1  1
  2  3  1  0
  4  5  1  6
  6  4  1  0
  6  8  1  0
  7  6  2  0
  9  8  1  0
  9 10  1  0
 10 12  1  0
 10 11  2  0
 12 13  1  0
 13 14  1  1
 14 15  1  0
 15 16  2  0
 16 17  1  0
 18 17  1  0
 19 15  1  0
 19 18  2  0
 20 13  1  0
 20 22  1  0
 21 20  2  0
M  END
$$$$
