TGH.pdb
     RDKit          3D

 22 22  0  0  1  0  0  0  0  0999 V2000
   24.0007   -3.2569  -21.9383 C   0  0  0  0  0  0  0  0  0  0  0  0
   24.0696   -4.4584  -21.0516 C   0  0  1  0  0  0  0  0  0  0  0  0
   24.2937   -5.5829  -21.8468 O   0  0  0  0  0  0  0  0  0  0  0  0
   25.2037   -4.3857  -20.0503 C   0  0  2  0  0  0  0  0  0  0  0  0
   26.4139   -4.1350  -20.7667 N   0  0  0  0  0  0  0  0  0  0  0  0
   25.3270   -5.5973  -19.2439 C   0  0  0  0  0  0  0  0  0  0  0  0
   26.4194   -6.1982  -19.0991 O   0  0  0  0  0  0  0  0  0  0  0  0
   24.1795   -6.1299  -18.5920 N   0  0  0  0  0  0  0  0  0  0  0  0
   24.2476   -7.2934  -17.7393 C   0  0  0  0  0  0  0  0  0  0  0  0
   22.8946   -7.5503  -17.1867 C   0  0  0  0  0  0  0  0  0  0  0  0
   21.9307   -6.7771  -17.4215 O   0  0  0  0  0  0  0  0  0  0  0  0
   22.6363   -8.6796  -16.3711 N   0  0  0  0  0  0  0  0  0  0  0  0
   21.2983   -8.9746  -15.9527 C   0  0  1  0  0  0  0  0  0  0  0  0
   21.0758  -10.4468  -15.7256 C   0  0  0  0  0  0  0  0  0  0  0  0
   19.6718  -10.7535  -15.3740 C   0  0  0  0  0  0  0  0  0  0  0  0
   18.5504   -9.9336  -15.4342 C   0  0  0  0  0  0  0  0  0  0  0  0
   17.4866  -10.6330  -15.0047 N   0  0  0  0  0  0  0  0  0  0  0  0
   17.8757  -11.8593  -14.6735 C   0  0  0  0  0  0  0  0  0  0  0  0
   19.1789  -11.9314  -14.8937 N   0  0  0  0  0  0  0  0  0  0  0  0
   20.8959   -8.1346  -14.7808 C   0  0  0  0  0  0  0  0  0  0  0  0
   21.5829   -8.0028  -13.7424 O   0  0  0  0  0  0  0  0  0  0  0  0
   19.6826   -7.4283  -14.7921 O   0  0  0  0  0  0  0  0  0  0  0  0
  2  4  1  0
  2  1  1  6
  2  3  1  0
  4  5  1  6
  6  4  1  0
  6  8  1  0
  7  6  2  0
  9  8  1  0
  9 10  1  0
 10 12  1  0
 10 11  2  0
 12 13  1  0
 13 14  1  1
 14 15  1  0
 15 16  2  0
 16 17  1  0
 18 17  1  0
 19 15  1  0
 19 18  2  0
 20 13  1  0
 20 22  1  0
 21 20  2  0
M  END
$$$$
