TGH.pdb
     RDKit          3D

 22 22  0  0  1  0  0  0  0  0999 V2000
   20.0461  -15.8486  -19.3261 C   0  0  0  0  0  0  0  0  0  0  0  0
   18.8192  -15.5716  -18.5183 C   0  0  1  0  0  0  0  0  0  0  0  0
   18.1953  -16.7861  -18.2306 O   0  0  0  0  0  0  0  0  0  0  0  0
   19.1255  -14.9018  -17.1948 C   0  0  2  0  0  0  0  0  0  0  0  0
   17.9019  -14.7702  -16.4694 N   0  0  0  0  0  0  0  0  0  0  0  0
   19.7700  -13.6006  -17.3532 C   0  0  0  0  0  0  0  0  0  0  0  0
   20.9552  -13.4831  -17.7494 O   0  0  0  0  0  0  0  0  0  0  0  0
   19.0447  -12.4136  -17.0528 N   0  0  0  0  0  0  0  0  0  0  0  0
   19.5753  -11.0973  -17.3197 C   0  0  0  0  0  0  0  0  0  0  0  0
   20.0515  -10.5148  -16.0408 C   0  0  0  0  0  0  0  0  0  0  0  0
   19.7485  -11.0261  -14.9322 O   0  0  0  0  0  0  0  0  0  0  0  0
   20.8681   -9.3573  -16.0196 N   0  0  0  0  0  0  0  0  0  0  0  0
   21.3379   -8.8304  -14.7730 C   0  0  1  0  0  0  0  0  0  0  0  0
   22.2187   -9.8010  -14.0311 C   0  0  0  0  0  0  0  0  0  0  0  0
   23.4838  -10.0710  -14.7492 C   0  0  0  0  0  0  0  0  0  0  0  0
   23.9461   -9.5389  -15.9477 C   0  0  0  0  0  0  0  0  0  0  0  0
   25.1430  -10.0836  -16.2232 N   0  0  0  0  0  0  0  0  0  0  0  0
   25.4661  -10.9375  -15.2582 C   0  0  0  0  0  0  0  0  0  0  0  0
   24.4767  -10.9302  -14.3790 N   0  0  0  0  0  0  0  0  0  0  0  0
   21.9713   -7.4861  -14.9536 C   0  0  0  0  0  0  0  0  0  0  0  0
   22.2792   -6.9985  -16.0649 O   0  0  0  0  0  0  0  0  0  0  0  0
   22.2606   -6.6784  -13.8422 O   0  0  0  0  0  0  0  0  0  0  0  0
  2  4  1  0
  2  1  1  1
  2  3  1  0
  4  5  1  6
  6  4  1  0
  6  8  1  0
  7  6  2  0
  9  8  1  0
  9 10  1  0
 10 12  1  0
 10 11  2  0
 12 13  1  0
 13 14  1  6
 14 15  1  0
 15 16  2  0
 16 17  1  0
 18 17  1  0
 19 15  1  0
 19 18  2  0
 20 13  1  0
 20 22  1  0
 21 20  2  0
M  END
$$$$
