TGH.pdb
     RDKit          3D

 22 22  0  0  1  0  0  0  0  0999 V2000
   24.1160  -21.7322  -10.7064 C   0  0  0  0  0  0  0  0  0  0  0  0
   24.6233  -20.9963  -11.9046 C   0  0  1  0  0  0  0  0  0  0  0  0
   24.6349  -19.6316  -11.6136 O   0  0  0  0  0  0  0  0  0  0  0  0
   26.0386  -21.3858  -12.2780 C   0  0  2  0  0  0  0  0  0  0  0  0
   26.8955  -21.0477  -11.1861 N   0  0  0  0  0  0  0  0  0  0  0  0
   26.4978  -20.7448  -13.5075 C   0  0  0  0  0  0  0  0  0  0  0  0
   26.0964  -21.1039  -14.6413 O   0  0  0  0  0  0  0  0  0  0  0  0
   27.4327  -19.6742  -13.4375 N   0  0  0  0  0  0  0  0  0  0  0  0
   27.9122  -18.9907  -14.6158 C   0  0  0  0  0  0  0  0  0  0  0  0
   26.8592  -18.0514  -15.0748 C   0  0  0  0  0  0  0  0  0  0  0  0
   26.2576  -17.2941  -14.2706 O   0  0  0  0  0  0  0  0  0  0  0  0
   26.4903  -17.9715  -16.4403 N   0  0  0  0  0  0  0  0  0  0  0  0
   25.5085  -17.0190  -16.8664 C   0  0  1  0  0  0  0  0  0  0  0  0
   26.0178  -16.1136  -17.9569 C   0  0  0  0  0  0  0  0  0  0  0  0
   24.9805  -15.1724  -18.4335 C   0  0  0  0  0  0  0  0  0  0  0  0
   23.6884  -14.9736  -17.9600 C   0  0  0  0  0  0  0  0  0  0  0  0
   23.1014  -14.0236  -18.7071 N   0  0  0  0  0  0  0  0  0  0  0  0
   23.9569  -13.6072  -19.6342 C   0  0  0  0  0  0  0  0  0  0  0  0
   25.0777  -14.2922  -19.4712 N   0  0  0  0  0  0  0  0  0  0  0  0
   24.2164  -17.6882  -17.2175 C   0  0  0  0  0  0  0  0  0  0  0  0
   23.0962  -17.3146  -16.8012 O   0  0  0  0  0  0  0  0  0  0  0  0
   24.1998  -18.8092  -18.0627 O   0  0  0  0  0  0  0  0  0  0  0  0
  2  4  1  0
  2  1  1  1
  2  3  1  0
  4  5  1  1
  6  4  1  0
  6  8  1  0
  7  6  2  0
  9  8  1  0
  9 10  1  0
 10 12  1  0
 10 11  2  0
 12 13  1  0
 13 14  1  6
 14 15  1  0
 15 16  2  0
 16 17  1  0
 18 17  1  0
 19 15  1  0
 19 18  2  0
 20 13  1  0
 20 22  1  0
 21 20  2  0
M  END
$$$$
