VFY.pdb
     RDKit          3D

 31 32  0  0  1  0  0  0  0  0999 V2000
   30.7372  -24.3197  -22.2904 C   0  0  0  0  0  0  0  0  0  0  0  0
   30.4946  -25.7059  -21.7890 C   0  0  1  0  0  0  0  0  0  0  0  0
   30.0938  -26.5652  -22.9732 C   0  0  0  0  0  0  0  0  0  0  0  0
   31.6932  -26.3442  -21.1516 C   0  0  2  0  0  0  0  0  0  0  0  0
   32.7374  -26.4392  -22.1379 N   0  0  0  0  0  0  0  0  0  0  0  0
   31.4335  -27.6652  -20.5825 C   0  0  0  0  0  0  0  0  0  0  0  0
   31.6479  -28.7543  -21.1940 O   0  0  0  0  0  0  0  0  0  0  0  0
   30.9093  -27.7898  -19.2681 N   0  0  0  0  0  0  0  0  0  0  0  0
   30.5629  -29.0921  -18.7337 C   0  0  1  0  0  0  0  0  0  0  0  0
   31.2712  -29.2386  -17.4020 C   0  0  0  0  0  0  0  0  0  0  0  0
   30.9617  -30.4935  -16.7179 C   0  0  0  0  0  0  0  0  0  0  0  0
   31.6855  -31.6297  -16.9875 C   0  0  0  0  0  0  0  0  0  0  0  0
   31.4294  -32.8403  -16.3651 C   0  0  0  0  0  0  0  0  0  0  0  0
   30.4164  -32.9234  -15.4410 C   0  0  0  0  0  0  0  0  0  0  0  0
   29.6762  -31.8044  -15.1513 C   0  0  0  0  0  0  0  0  0  0  0  0
   29.9481  -30.5900  -15.7888 C   0  0  0  0  0  0  0  0  0  0  0  0
   29.0982  -29.0615  -18.4410 C   0  0  0  0  0  0  0  0  0  0  0  0
   28.5431  -28.0645  -17.8999 O   0  0  0  0  0  0  0  0  0  0  0  0
   20.5408  -28.8901  -18.8652 O   0  0  0  0  0  0  0  0  0  0  0  0
   21.9305  -28.9699  -18.9942 C   0  0  0  0  0  0  0  0  0  0  0  0
   22.7219  -28.0723  -18.3148 C   0  0  0  0  0  0  0  0  0  0  0  0
   24.1040  -28.1538  -18.4450 C   0  0  0  0  0  0  0  0  0  0  0  0
   24.7095  -29.0974  -19.2271 C   0  0  0  0  0  0  0  0  0  0  0  0
   26.1774  -29.1558  -19.3498 C   0  0  0  0  0  0  0  0  0  0  0  0
   26.8422  -30.1191  -18.4116 C   0  0  2  0  0  0  0  0  0  0  0  0
   28.2528  -30.1664  -18.7620 N   0  0  0  0  0  0  0  0  0  0  0  0
   26.2890  -31.4896  -18.5252 C   0  0  0  0  0  0  0  0  0  0  0  0
   26.6932  -32.2880  -19.4388 O   0  0  0  0  0  0  0  0  0  0  0  0
   23.9155  -29.9915  -19.9035 C   0  0  0  0  0  0  0  0  0  0  0  0
   22.5261  -29.9238  -19.7839 C   0  0  0  0  0  0  0  0  0  0  0  0
   25.3215  -32.0091  -17.6830 O   0  0  0  0  0  0  0  0  0  0  0  0
  2  1  1  6
  2  3  1  0
  4  2  1  0
  4  5  1  6
  6  4  1  0
  6  7  2  0
  8  6  1  0
  9  8  1  0
  9 10  1  1
 10 11  1  0
 11 12  2  0
 12 13  1  0
 14 13  2  0
 15 14  1  0
 16 11  1  0
 16 15  2  0
 17  9  1  0
 18 17  2  0
 20 19  1  0
 20 30  2  0
 21 20  1  0
 22 21  2  0
 22 23  1  0
 23 29  2  0
 24 23  1  0
 25 26  1  0
 25 24  1  6
 26 17  1  0
 27 25  1  0
 28 27  2  0
 29 30  1  0
 31 27  1  0
M  END
$$$$
