VFY.pdb
     RDKit          3D

 31 32  0  0  1  0  0  0  0  0999 V2000
   28.2794  -33.4619  -15.4021 C   0  0  0  0  0  0  0  0  0  0  0  0
   28.7994  -32.4543  -16.3749 C   0  0  1  0  0  0  0  0  0  0  0  0
   29.9302  -33.0998  -17.1533 C   0  0  0  0  0  0  0  0  0  0  0  0
   27.7796  -31.9797  -17.3676 C   0  0  2  0  0  0  0  0  0  0  0  0
   28.3742  -30.9445  -18.1719 N   0  0  0  0  0  0  0  0  0  0  0  0
   26.5448  -31.4837  -16.7632 C   0  0  0  0  0  0  0  0  0  0  0  0
   26.3010  -30.2576  -16.5549 O   0  0  0  0  0  0  0  0  0  0  0  0
   25.5250  -32.3902  -16.3679 N   0  0  0  0  0  0  0  0  0  0  0  0
   24.2605  -31.8989  -15.8565 C   0  0  1  0  0  0  0  0  0  0  0  0
   23.1815  -32.3218  -16.8330 C   0  0  0  0  0  0  0  0  0  0  0  0
   21.8452  -31.8685  -16.4494 C   0  0  0  0  0  0  0  0  0  0  0  0
   21.4666  -30.5642  -16.6570 C   0  0  0  0  0  0  0  0  0  0  0  0
   20.2126  -30.0892  -16.3104 C   0  0  0  0  0  0  0  0  0  0  0  0
   19.3021  -30.9428  -15.7364 C   0  0  0  0  0  0  0  0  0  0  0  0
   19.6522  -32.2517  -15.5169 C   0  0  0  0  0  0  0  0  0  0  0  0
   20.9226  -32.7149  -15.8729 C   0  0  0  0  0  0  0  0  0  0  0  0
   23.9980  -32.6316  -14.5813 C   0  0  0  0  0  0  0  0  0  0  0  0
   24.0029  -33.8930  -14.5195 O   0  0  0  0  0  0  0  0  0  0  0  0
   23.3452  -34.3909   -5.9495 O   0  0  0  0  0  0  0  0  0  0  0  0
   23.5365  -33.7979   -7.2009 C   0  0  0  0  0  0  0  0  0  0  0  0
   24.5724  -34.2283   -7.9980 C   0  0  0  0  0  0  0  0  0  0  0  0
   24.7605  -33.6368   -9.2424 C   0  0  0  0  0  0  0  0  0  0  0  0
   23.9506  -32.6381   -9.7062 C   0  0  0  0  0  0  0  0  0  0  0  0
   24.1780  -32.0263  -11.0280 C   0  0  0  0  0  0  0  0  0  0  0  0
   23.4373  -32.6846  -12.1540 C   0  0  2  0  0  0  0  0  0  0  0  0
   23.7277  -31.9340  -13.3652 N   0  0  0  0  0  0  0  0  0  0  0  0
   21.9700  -32.6783  -11.9438 C   0  0  0  0  0  0  0  0  0  0  0  0
   21.2739  -31.6364  -12.1998 O   0  0  0  0  0  0  0  0  0  0  0  0
   22.9176  -32.2116   -8.9071 C   0  0  0  0  0  0  0  0  0  0  0  0
   22.7145  -32.7948   -7.6548 C   0  0  0  0  0  0  0  0  0  0  0  0
   21.2485  -33.7598  -11.4699 O   0  0  0  0  0  0  0  0  0  0  0  0
  2  1  1  1
  2  3  1  0
  4  2  1  0
  4  5  1  1
  6  4  1  0
  6  7  2  0
  8  6  1  0
  9  8  1  0
  9 10  1  6
 10 11  1  0
 11 12  2  0
 12 13  1  0
 14 13  2  0
 15 14  1  0
 16 11  1  0
 16 15  2  0
 17  9  1  0
 18 17  2  0
 20 19  1  0
 20 30  2  0
 21 20  1  0
 22 21  2  0
 22 23  1  0
 23 29  2  0
 24 23  1  0
 25 26  1  0
 25 24  1  1
 26 17  1  0
 27 25  1  0
 28 27  2  0
 29 30  1  0
 31 27  1  0
M  END
$$$$
