VFY.pdb
     RDKit          3D

 31 32  0  0  1  0  0  0  0  0999 V2000
   19.0223  -10.8157  -21.9493 C   0  0  0  0  0  0  0  0  0  0  0  0
   19.0001  -10.0063  -20.6939 C   0  0  1  0  0  0  0  0  0  0  0  0
   17.5753   -9.5368  -20.4684 C   0  0  0  0  0  0  0  0  0  0  0  0
   19.4263  -10.7629  -19.4707 C   0  0  2  0  0  0  0  0  0  0  0  0
   18.6041  -11.9386  -19.3527 N   0  0  0  0  0  0  0  0  0  0  0  0
   19.3541   -9.9871  -18.2341 C   0  0  0  0  0  0  0  0  0  0  0  0
   18.3544   -9.9874  -17.4553 O   0  0  0  0  0  0  0  0  0  0  0  0
   20.4441   -9.1674  -17.8367 N   0  0  0  0  0  0  0  0  0  0  0  0
   20.3671   -8.3763  -16.6243 C   0  0  1  0  0  0  0  0  0  0  0  0
   21.7004   -8.5027  -15.9150 C   0  0  0  0  0  0  0  0  0  0  0  0
   21.7801   -7.7099  -14.6889 C   0  0  0  0  0  0  0  0  0  0  0  0
   21.3864   -8.2462  -13.4868 C   0  0  0  0  0  0  0  0  0  0  0  0
   21.4436   -7.5344  -12.3000 C   0  0  0  0  0  0  0  0  0  0  0  0
   21.9093   -6.2421  -12.3095 C   0  0  0  0  0  0  0  0  0  0  0  0
   22.3097   -5.6798  -13.4959 C   0  0  0  0  0  0  0  0  0  0  0  0
   22.2454   -6.4125  -14.6850 C   0  0  0  0  0  0  0  0  0  0  0  0
   20.2389   -6.9497  -17.0486 C   0  0  0  0  0  0  0  0  0  0  0  0
   20.9511   -6.4567  -17.9677 O   0  0  0  0  0  0  0  0  0  0  0  0
   16.6610    0.9581  -18.5996 O   0  0  0  0  0  0  0  0  0  0  0  0
   16.9713   -0.3724  -18.3031 C   0  0  0  0  0  0  0  0  0  0  0  0
   16.6258   -1.3592  -19.1978 C   0  0  0  0  0  0  0  0  0  0  0  0
   16.9357   -2.6819  -18.9005 C   0  0  0  0  0  0  0  0  0  0  0  0
   17.5741   -3.0407  -17.7463 C   0  0  0  0  0  0  0  0  0  0  0  0
   17.8848   -4.4522  -17.4560 C   0  0  0  0  0  0  0  0  0  0  0  0
   19.2346   -4.6786  -16.8421 C   0  0  2  0  0  0  0  0  0  0  0  0
   19.2983   -6.0716  -16.4297 N   0  0  0  0  0  0  0  0  0  0  0  0
   19.4606   -3.8297  -15.6482 C   0  0  0  0  0  0  0  0  0  0  0  0
   19.0017   -4.1693  -14.5038 O   0  0  0  0  0  0  0  0  0  0  0  0
   17.9173   -2.0522  -16.8560 C   0  0  0  0  0  0  0  0  0  0  0  0
   17.6137   -0.7190  -17.1389 C   0  0  0  0  0  0  0  0  0  0  0  0
   20.1634   -2.6377  -15.6643 O   0  0  0  0  0  0  0  0  0  0  0  0
  2  1  1  6
  2  3  1  0
  4  2  1  0
  4  5  1  1
  6  4  1  0
  6  7  2  0
  8  6  1  0
  9  8  1  0
  9 10  1  1
 10 11  1  0
 11 12  2  0
 12 13  1  0
 14 13  2  0
 15 14  1  0
 16 11  1  0
 16 15  2  0
 17  9  1  0
 18 17  2  0
 20 19  1  0
 20 30  2  0
 21 20  1  0
 22 21  2  0
 22 23  1  0
 23 29  2  0
 24 23  1  0
 25 26  1  0
 25 24  1  1
 26 17  1  0
 27 25  1  0
 28 27  2  0
 29 30  1  0
 31 27  1  0
M  END
$$$$
