VFY.pdb
     RDKit          3D

 31 32  0  0  1  0  0  0  0  0999 V2000
   28.8065  -22.2715  -18.6968 C   0  0  0  0  0  0  0  0  0  0  0  0
   28.0072  -22.6029  -17.4789 C   0  0  1  0  0  0  0  0  0  0  0  0
   28.9458  -22.5839  -16.2873 C   0  0  0  0  0  0  0  0  0  0  0  0
   26.8957  -21.6362  -17.1951 C   0  0  2  0  0  0  0  0  0  0  0  0
   27.4268  -20.2998  -17.2589 N   0  0  0  0  0  0  0  0  0  0  0  0
   26.2402  -21.8430  -15.9052 C   0  0  0  0  0  0  0  0  0  0  0  0
   25.5612  -22.8724  -15.6128 O   0  0  0  0  0  0  0  0  0  0  0  0
   26.3400  -20.8606  -14.8840 N   0  0  0  0  0  0  0  0  0  0  0  0
   25.6382  -21.0309  -13.6270 C   0  0  1  0  0  0  0  0  0  0  0  0
   26.4998  -20.4199  -12.5403 C   0  0  0  0  0  0  0  0  0  0  0  0
   25.8748  -20.4556  -11.2188 C   0  0  0  0  0  0  0  0  0  0  0  0
   25.9696  -21.5795  -10.4343 C   0  0  0  0  0  0  0  0  0  0  0  0
   25.3945  -21.6601   -9.1769 C   0  0  0  0  0  0  0  0  0  0  0  0
   24.6998  -20.5834   -8.6819 C   0  0  0  0  0  0  0  0  0  0  0  0
   24.5884  -19.4467   -9.4432 C   0  0  0  0  0  0  0  0  0  0  0  0
   25.1751  -19.3821  -10.7107 C   0  0  0  0  0  0  0  0  0  0  0  0
   24.3984  -20.2015  -13.7104 C   0  0  0  0  0  0  0  0  0  0  0  0
   24.4032  -19.0352  -14.1950 O   0  0  0  0  0  0  0  0  0  0  0  0
   18.1835  -22.4043  -18.2301 O   0  0  0  0  0  0  0  0  0  0  0  0
   19.1312  -21.7401  -17.4458 C   0  0  0  0  0  0  0  0  0  0  0  0
   18.8051  -20.5301  -16.8773 C   0  0  0  0  0  0  0  0  0  0  0  0
   19.7497  -19.8716  -16.0976 C   0  0  0  0  0  0  0  0  0  0  0  0
   20.9971  -20.3838  -15.8735 C   0  0  0  0  0  0  0  0  0  0  0  0
   21.9795  -19.6598  -15.0465 C   0  0  0  0  0  0  0  0  0  0  0  0
   21.9195  -19.9834  -13.5830 C   0  0  2  0  0  0  0  0  0  0  0  0
   23.1422  -20.6931  -13.2426 N   0  0  0  0  0  0  0  0  0  0  0  0
   20.7678  -20.8530  -13.2445 C   0  0  0  0  0  0  0  0  0  0  0  0
   19.5981  -20.3615  -13.0835 O   0  0  0  0  0  0  0  0  0  0  0  0
   21.3183  -21.5921  -16.4430 C   0  0  0  0  0  0  0  0  0  0  0  0
   20.3817  -22.2667  -17.2286 C   0  0  0  0  0  0  0  0  0  0  0  0
   20.8520  -22.2244  -13.0793 O   0  0  0  0  0  0  0  0  0  0  0  0
  2  1  1  6
  2  3  1  0
  4  2  1  0
  4  5  1  1
  6  4  1  0
  6  7  2  0
  8  6  1  0
  9  8  1  0
  9 10  1  1
 10 11  1  0
 11 12  2  0
 12 13  1  0
 14 13  2  0
 15 14  1  0
 16 11  1  0
 16 15  2  0
 17  9  1  0
 18 17  2  0
 20 19  1  0
 20 30  2  0
 21 20  1  0
 22 21  2  0
 22 23  1  0
 23 29  2  0
 24 23  1  0
 25 26  1  0
 25 24  1  6
 26 17  1  0
 27 25  1  0
 28 27  2  0
 29 30  1  0
 31 27  1  0
M  END
$$$$
