VFY.pdb
     RDKit          3D

 31 32  0  0  1  0  0  0  0  0999 V2000
   27.2581  -20.0197  -19.1566 C   0  0  0  0  0  0  0  0  0  0  0  0
   26.8868  -20.4513  -17.7754 C   0  0  1  0  0  0  0  0  0  0  0  0
   25.7986  -21.5017  -17.8931 C   0  0  0  0  0  0  0  0  0  0  0  0
   28.0186  -21.0570  -16.9990 C   0  0  2  0  0  0  0  0  0  0  0  0
   28.5135  -22.1953  -17.7282 N   0  0  0  0  0  0  0  0  0  0  0  0
   27.6608  -21.4617  -15.6408 C   0  0  0  0  0  0  0  0  0  0  0  0
   27.1927  -22.6007  -15.3413 O   0  0  0  0  0  0  0  0  0  0  0  0
   27.8291  -20.5603  -14.5558 N   0  0  0  0  0  0  0  0  0  0  0  0
   27.4850  -20.9606  -13.2056 C   0  0  1  0  0  0  0  0  0  0  0  0
   28.2294  -20.0425  -12.2570 C   0  0  0  0  0  0  0  0  0  0  0  0
   27.9167  -20.2889  -10.8500 C   0  0  0  0  0  0  0  0  0  0  0  0
   26.8939  -19.6081  -10.2350 C   0  0  0  0  0  0  0  0  0  0  0  0
   26.5610  -19.8076   -8.9054 C   0  0  0  0  0  0  0  0  0  0  0  0
   27.2713  -20.7173   -8.1606 C   0  0  0  0  0  0  0  0  0  0  0  0
   28.2987  -21.4124   -8.7483 C   0  0  0  0  0  0  0  0  0  0  0  0
   28.6217  -21.1989  -10.0919 C   0  0  0  0  0  0  0  0  0  0  0  0
   26.0297  -20.6733  -13.0291 C   0  0  0  0  0  0  0  0  0  0  0  0
   25.4986  -19.6115  -13.4599 O   0  0  0  0  0  0  0  0  0  0  0  0
   17.3841  -22.1535  -11.9830 O   0  0  0  0  0  0  0  0  0  0  0  0
   18.7630  -22.1767  -12.2120 C   0  0  0  0  0  0  0  0  0  0  0  0
   19.3602  -23.3529  -12.6039 C   0  0  0  0  0  0  0  0  0  0  0  0
   20.7320  -23.3733  -12.8310 C   0  0  0  0  0  0  0  0  0  0  0  0
   21.5141  -22.2626  -12.6785 C   0  0  0  0  0  0  0  0  0  0  0  0
   22.9671  -22.3162  -12.9213 C   0  0  0  0  0  0  0  0  0  0  0  0
   23.7582  -21.2686  -12.1955 C   0  0  2  0  0  0  0  0  0  0  0  0
   25.1662  -21.5928  -12.3602 N   0  0  0  0  0  0  0  0  0  0  0  0
   23.4551  -21.2374  -10.7449 C   0  0  0  0  0  0  0  0  0  0  0  0
   22.5233  -20.4925  -10.2840 O   0  0  0  0  0  0  0  0  0  0  0  0
   20.9137  -21.0905  -12.2871 C   0  0  0  0  0  0  0  0  0  0  0  0
   19.5374  -21.0525  -12.0550 C   0  0  0  0  0  0  0  0  0  0  0  0
   24.1283  -21.9847   -9.7944 O   0  0  0  0  0  0  0  0  0  0  0  0
  2  1  1  6
  2  3  1  0
  4  2  1  0
  4  5  1  6
  6  4  1  0
  6  7  2  0
  8  6  1  0
  9  8  1  0
  9 10  1  1
 10 11  1  0
 11 12  2  0
 12 13  1  0
 14 13  2  0
 15 14  1  0
 16 11  1  0
 16 15  2  0
 17  9  1  0
 18 17  2  0
 20 19  1  0
 20 30  2  0
 21 20  1  0
 22 21  2  0
 22 23  1  0
 23 29  2  0
 24 23  1  0
 25 26  1  0
 25 24  1  6
 26 17  1  0
 27 25  1  0
 28 27  2  0
 29 30  1  0
 31 27  1  0
M  END
$$$$
