VFY.pdb
     RDKit          3D

 31 32  0  0  1  0  0  0  0  0999 V2000
   16.2654  -13.7238  -18.0455 C   0  0  0  0  0  0  0  0  0  0  0  0
   16.8154  -12.9629  -16.8834 C   0  0  1  0  0  0  0  0  0  0  0  0
   16.7901  -13.8785  -15.6741 C   0  0  0  0  0  0  0  0  0  0  0  0
   18.2297  -12.4989  -17.0704 C   0  0  2  0  0  0  0  0  0  0  0  0
   19.0493  -13.6442  -17.3682 N   0  0  0  0  0  0  0  0  0  0  0  0
   18.7808  -11.7866  -15.9192 C   0  0  0  0  0  0  0  0  0  0  0  0
   19.7023  -12.2433  -15.1786 O   0  0  0  0  0  0  0  0  0  0  0  0
   18.2878  -10.5017  -15.5672 N   0  0  0  0  0  0  0  0  0  0  0  0
   18.8785   -9.7614  -14.4696 C   0  0  1  0  0  0  0  0  0  0  0  0
   19.7337   -8.6643  -15.0709 C   0  0  0  0  0  0  0  0  0  0  0  0
   20.3083   -7.7657  -14.0706 C   0  0  0  0  0  0  0  0  0  0  0  0
   20.0874   -6.4117  -14.1428 C   0  0  0  0  0  0  0  0  0  0  0  0
   20.6104   -5.5219  -13.2191 C   0  0  0  0  0  0  0  0  0  0  0  0
   21.3813   -5.9966  -12.1860 C   0  0  0  0  0  0  0  0  0  0  0  0
   21.6191   -7.3450  -12.0881 C   0  0  0  0  0  0  0  0  0  0  0  0
   21.0834   -8.2294  -13.0293 C   0  0  0  0  0  0  0  0  0  0  0  0
   17.7554   -9.0869  -13.7517 C   0  0  0  0  0  0  0  0  0  0  0  0
   16.7871   -8.5587  -14.3670 O   0  0  0  0  0  0  0  0  0  0  0  0
   12.4969   -6.3678   -7.1481 O   0  0  0  0  0  0  0  0  0  0  0  0
   13.5373   -6.9211   -7.9003 C   0  0  0  0  0  0  0  0  0  0  0  0
   13.2615   -7.9412   -8.7818 C   0  0  0  0  0  0  0  0  0  0  0  0
   14.2983   -8.4897   -9.5288 C   0  0  0  0  0  0  0  0  0  0  0  0
   15.5884   -8.0515   -9.4195 C   0  0  0  0  0  0  0  0  0  0  0  0
   16.6678   -8.6564  -10.2210 C   0  0  0  0  0  0  0  0  0  0  0  0
   16.6616   -8.2651  -11.6690 C   0  0  2  0  0  0  0  0  0  0  0  0
   17.7251   -9.0078  -12.3264 N   0  0  0  0  0  0  0  0  0  0  0  0
   16.9169   -6.8179  -11.8631 C   0  0  0  0  0  0  0  0  0  0  0  0
   15.9780   -6.0272  -12.2219 O   0  0  0  0  0  0  0  0  0  0  0  0
   15.8592   -7.0329   -8.5383 C   0  0  0  0  0  0  0  0  0  0  0  0
   14.8300   -6.4707   -7.7805 C   0  0  0  0  0  0  0  0  0  0  0  0
   18.1489   -6.2149  -11.6794 O   0  0  0  0  0  0  0  0  0  0  0  0
  2  1  1  6
  2  3  1  0
  4  2  1  0
  4  5  1  1
  6  4  1  0
  6  7  2  0
  8  6  1  0
  9  8  1  0
  9 10  1  6
 10 11  1  0
 11 12  2  0
 12 13  1  0
 14 13  2  0
 15 14  1  0
 16 11  1  0
 16 15  2  0
 17  9  1  0
 18 17  2  0
 20 19  1  0
 20 30  2  0
 21 20  1  0
 22 21  2  0
 22 23  1  0
 23 29  2  0
 24 23  1  0
 25 26  1  0
 25 24  1  1
 26 17  1  0
 27 25  1  0
 28 27  2  0
 29 30  1  0
 31 27  1  0
M  END
$$$$
