VFY.pdb
     RDKit          3D

 31 32  0  0  1  0  0  0  0  0999 V2000
   28.1369  -20.7652  -19.3899 C   0  0  0  0  0  0  0  0  0  0  0  0
   27.4764  -21.1512  -18.1067 C   0  0  1  0  0  0  0  0  0  0  0  0
   26.5704  -22.3350  -18.3877 C   0  0  0  0  0  0  0  0  0  0  0  0
   28.4327  -21.5596  -17.0254 C   0  0  2  0  0  0  0  0  0  0  0  0
   29.1491  -22.7272  -17.4679 N   0  0  0  0  0  0  0  0  0  0  0  0
   27.7963  -21.8325  -15.7382 C   0  0  0  0  0  0  0  0  0  0  0  0
   27.4615  -22.9898  -15.3449 O   0  0  0  0  0  0  0  0  0  0  0  0
   27.5148  -20.7706  -14.8375 N   0  0  0  0  0  0  0  0  0  0  0  0
   26.8540  -21.0321  -13.5740 C   0  0  1  0  0  0  0  0  0  0  0  0
   27.2276  -19.9102  -12.6262 C   0  0  0  0  0  0  0  0  0  0  0  0
   26.9104  -20.2041  -11.2293 C   0  0  0  0  0  0  0  0  0  0  0  0
   27.7564  -20.9771  -10.4714 C   0  0  0  0  0  0  0  0  0  0  0  0
   27.4982  -21.2821   -9.1452 C   0  0  0  0  0  0  0  0  0  0  0  0
   26.3569  -20.8006   -8.5515 C   0  0  0  0  0  0  0  0  0  0  0  0
   25.4928  -20.0256   -9.2841 C   0  0  0  0  0  0  0  0  0  0  0  0
   25.7686  -19.7272  -10.6220 C   0  0  0  0  0  0  0  0  0  0  0  0
   25.3858  -20.9136  -13.8235 C   0  0  0  0  0  0  0  0  0  0  0  0
   24.8995  -19.9951  -14.5411 O   0  0  0  0  0  0  0  0  0  0  0  0
   16.6818  -22.6589  -13.2355 O   0  0  0  0  0  0  0  0  0  0  0  0
   18.0771  -22.7128  -13.1685 C   0  0  0  0  0  0  0  0  0  0  0  0
   18.7943  -23.0093  -14.3049 C   0  0  0  0  0  0  0  0  0  0  0  0
   20.1822  -23.0624  -14.2354 C   0  0  0  0  0  0  0  0  0  0  0  0
   20.8647  -22.8299  -13.0741 C   0  0  0  0  0  0  0  0  0  0  0  0
   22.3366  -22.8985  -13.0300 C   0  0  0  0  0  0  0  0  0  0  0  0
   23.0310  -21.6356  -13.4458 C   0  0  2  0  0  0  0  0  0  0  0  0
   24.4584  -21.8402  -13.2578 N   0  0  0  0  0  0  0  0  0  0  0  0
   22.6172  -20.4696  -12.6294 C   0  0  0  0  0  0  0  0  0  0  0  0
   23.1443  -20.2479  -11.4855 O   0  0  0  0  0  0  0  0  0  0  0  0
   20.1446  -22.5342  -11.9420 C   0  0  0  0  0  0  0  0  0  0  0  0
   18.7505  -22.4768  -11.9942 C   0  0  0  0  0  0  0  0  0  0  0  0
   21.6591  -19.5498  -13.0182 O   0  0  0  0  0  0  0  0  0  0  0  0
  2  1  1  6
  2  3  1  0
  4  2  1  0
  4  5  1  6
  6  4  1  0
  6  7  2  0
  8  6  1  0
  9  8  1  0
  9 10  1  1
 10 11  1  0
 11 12  2  0
 12 13  1  0
 14 13  2  0
 15 14  1  0
 16 11  1  0
 16 15  2  0
 17  9  1  0
 18 17  2  0
 20 19  1  0
 20 30  2  0
 21 20  1  0
 22 21  2  0
 22 23  1  0
 23 29  2  0
 24 23  1  0
 25 26  1  0
 25 24  1  1
 26 17  1  0
 27 25  1  0
 28 27  2  0
 29 30  1  0
 31 27  1  0
M  END
$$$$
