VFY.pdb
     RDKit          3D

 31 32  0  0  1  0  0  0  0  0999 V2000
   23.3779  -12.9695  -17.4908 C   0  0  0  0  0  0  0  0  0  0  0  0
   23.8981  -14.3214  -17.1251 C   0  0  1  0  0  0  0  0  0  0  0  0
   23.6359  -15.2524  -18.2937 C   0  0  0  0  0  0  0  0  0  0  0  0
   25.3710  -14.3538  -16.8421 C   0  0  2  0  0  0  0  0  0  0  0  0
   26.0689  -13.8679  -18.0035 N   0  0  0  0  0  0  0  0  0  0  0  0
   25.8799  -15.6754  -16.4806 C   0  0  0  0  0  0  0  0  0  0  0  0
   26.3797  -16.4930  -17.3100 O   0  0  0  0  0  0  0  0  0  0  0  0
   25.8342  -16.1175  -15.1313 N   0  0  0  0  0  0  0  0  0  0  0  0
   26.2408  -17.4648  -14.7835 C   0  0  1  0  0  0  0  0  0  0  0  0
   26.4921  -17.4910  -13.2892 C   0  0  0  0  0  0  0  0  0  0  0  0
   26.7414  -18.8346  -12.7686 C   0  0  0  0  0  0  0  0  0  0  0  0
   27.7923  -19.5811  -13.2442 C   0  0  0  0  0  0  0  0  0  0  0  0
   28.0677  -20.8574  -12.7820 C   0  0  0  0  0  0  0  0  0  0  0  0
   27.2686  -21.4111  -11.8115 C   0  0  0  0  0  0  0  0  0  0  0  0
   26.2112  -20.6888  -11.3174 C   0  0  0  0  0  0  0  0  0  0  0  0
   25.9472  -19.4015  -11.7951 C   0  0  0  0  0  0  0  0  0  0  0  0
   25.0636  -18.3488  -15.0374 C   0  0  0  0  0  0  0  0  0  0  0  0
   23.9617  -18.1857  -14.4422 O   0  0  0  0  0  0  0  0  0  0  0  0
   18.1023  -19.6931  -13.7602 O   0  0  0  0  0  0  0  0  0  0  0  0
   19.2928  -19.7692  -14.4890 C   0  0  0  0  0  0  0  0  0  0  0  0
   19.9341  -18.6074  -14.8534 C   0  0  0  0  0  0  0  0  0  0  0  0
   21.1181  -18.6860  -15.5783 C   0  0  0  0  0  0  0  0  0  0  0  0
   21.6722  -19.8806  -15.9449 C   0  0  0  0  0  0  0  0  0  0  0  0
   22.9262  -19.9322  -16.7182 C   0  0  0  0  0  0  0  0  0  0  0  0
   24.1061  -20.4580  -15.9558 C   0  0  2  0  0  0  0  0  0  0  0  0
   25.1309  -19.4264  -15.9717 N   0  0  0  0  0  0  0  0  0  0  0  0
   24.6716  -21.6843  -16.5672 C   0  0  0  0  0  0  0  0  0  0  0  0
   23.9607  -22.7386  -16.7035 O   0  0  0  0  0  0  0  0  0  0  0  0
   21.0287  -21.0380  -15.5789 C   0  0  0  0  0  0  0  0  0  0  0  0
   19.8389  -20.9772  -14.8508 C   0  0  0  0  0  0  0  0  0  0  0  0
   25.9716  -21.7937  -17.0289 O   0  0  0  0  0  0  0  0  0  0  0  0
  2  1  1  6
  2  3  1  0
  4  2  1  0
  4  5  1  6
  6  4  1  0
  6  7  2  0
  8  6  1  0
  9  8  1  0
  9 10  1  1
 10 11  1  0
 11 12  2  0
 12 13  1  0
 14 13  2  0
 15 14  1  0
 16 11  1  0
 16 15  2  0
 17  9  1  0
 18 17  2  0
 20 19  1  0
 20 30  2  0
 21 20  1  0
 22 21  2  0
 22 23  1  0
 23 29  2  0
 24 23  1  0
 25 26  1  0
 25 24  1  6
 26 17  1  0
 27 25  1  0
 28 27  2  0
 29 30  1  0
 31 27  1  0
M  END
$$$$
