RVW.pdb
     RDKit          3D

 33 34  0  0  1  0  0  0  0  0999 V2000
   28.1587  -27.3288  -18.6624 N   0  0  0  0  0  0  0  0  0  0  0  0
   27.3820  -27.6661  -17.5066 C   0  0  0  0  0  0  0  0  0  0  0  0
   27.3466  -28.9110  -17.1610 N   0  0  0  0  0  0  0  0  0  0  0  0
   26.6805  -26.6744  -16.7715 N   0  0  0  0  0  0  0  0  0  0  0  0
   26.9545  -25.2947  -17.0228 C   0  0  0  0  0  0  0  0  0  0  0  0
   28.4507  -25.0092  -17.1835 C   0  0  0  0  0  0  0  0  0  0  0  0
   28.7898  -23.9364  -16.1837 C   0  0  0  0  0  0  0  0  0  0  0  0
   28.0618  -22.6555  -16.3746 C   0  0  2  0  0  0  0  0  0  0  0  0
   28.4988  -21.8403  -17.4542 N   0  0  0  0  0  0  0  0  0  0  0  0
   28.1903  -21.8813  -15.0938 C   0  0  0  0  0  0  0  0  0  0  0  0
   29.2201  -21.9888  -14.3699 O   0  0  0  0  0  0  0  0  0  0  0  0
   26.8258  -29.2898  -16.3553 C   0  0  0  0  0  0  0  0  0  0  0  0
   28.1801  -18.1811  -14.3997 C   0  0  2  0  0  0  0  0  0  0  0  0
   27.1988  -18.8111  -13.4539 C   0  0  0  0  0  0  0  0  0  0  0  0
   25.8241  -18.4230  -13.9725 C   0  0  2  0  0  0  0  0  0  0  0  0
   27.2772  -20.2886  -13.3806 N   0  0  0  0  0  0  0  0  0  0  0  0
   27.2052  -20.9980  -14.6057 C   0  0  0  0  0  0  0  0  0  0  0  0
   26.3163  -20.8117  -12.3574 O   0  0  0  0  0  0  0  0  0  0  0  0
   25.1335  -21.1175  -12.6543 N   0  0  0  0  0  0  0  0  0  0  0  0
   26.7072  -20.9839  -10.9996 C   0  0  2  0  0  0  0  0  0  0  0  0
   25.8205  -21.5821  -10.0380 C   0  0  0  0  0  0  0  0  0  0  0  0
   26.4890  -21.8920   -8.7356 C   0  0  0  0  0  0  0  0  0  0  0  0
   26.6567  -20.6752   -7.9026 C   0  0  0  0  0  0  0  0  0  0  0  0
   26.1420  -19.4050   -8.1555 N   0  0  0  0  0  0  0  0  0  0  0  0
   26.5207  -18.5820   -7.1633 C   0  0  0  0  0  0  0  0  0  0  0  0
   27.2648  -19.2325   -6.2539 C   0  0  0  0  0  0  0  0  0  0  0  0
   27.8863  -18.8621   -5.0748 C   0  0  0  0  0  0  0  0  0  0  0  0
   28.6099  -19.7740   -4.3180 C   0  0  0  0  0  0  0  0  0  0  0  0
   28.6953  -21.0693   -4.7737 C   0  0  0  0  0  0  0  0  0  0  0  0
   28.0639  -21.4268   -5.9630 C   0  0  0  0  0  0  0  0  0  0  0  0
   27.3519  -20.5360   -6.7106 C   0  0  0  0  0  0  0  0  0  0  0  0
   24.7007  -20.6499   -9.7857 O   0  0  0  0  0  0  0  0  0  0  0  0
   23.5026  -21.0628   -9.2179 O   0  0  0  0  0  0  0  0  0  0  0  0
  1  2  1  0
  2  3  2  0
  4  2  1  0
  4  5  1  0
  5  6  1  0
  6  7  1  0
  7  8  1  0
  8 10  1  0
  8  9  1  6
 10 11  2  0
 10 16  1  0
 13 12  1  1
 13 15  1  0
 14 13  1  0
 15 17  1  0
 15 16  1  1
 17 18  2  0
 17 19  1  0
 19 20  1  0
 20 21  1  6
 21 22  1  0
 22 30  1  0
 22 23  2  0
 23 24  1  0
 24 25  1  0
 25 26  2  0
 27 26  1  0
 28 27  2  0
 29 30  2  0
 29 28  1  0
 30 25  1  0
 31 20  1  0
 31 32  1  0
 33 31  2  0
M  END
$$$$
