RVW.pdb
     RDKit          3D

 33 34  0  0  1  0  0  0  0  0999 V2000
   14.0671   -6.3698  -82.6922 N   0  0  0  0  0  0  0  0  0  0  0  0
   13.0183   -7.1094  -82.0553 C   0  0  0  0  0  0  0  0  0  0  0  0
   11.8174   -6.9346  -82.5002 N   0  0  0  0  0  0  0  0  0  0  0  0
   13.2866   -7.9973  -80.9803 N   0  0  0  0  0  0  0  0  0  0  0  0
   12.4121   -8.0097  -79.8501 C   0  0  0  0  0  0  0  0  0  0  0  0
   11.1606   -8.8620  -80.0808 C   0  0  0  0  0  0  0  0  0  0  0  0
   11.1843   -9.9452  -79.0360 C   0  0  0  0  0  0  0  0  0  0  0  0
   11.0279   -9.4656  -77.6387 C   0  0  2  0  0  0  0  0  0  0  0  0
   11.9199   -8.4392  -77.2242 N   0  0  0  0  0  0  0  0  0  0  0  0
   11.2033  -10.6578  -76.7420 C   0  0  0  0  0  0  0  0  0  0  0  0
   11.5971  -10.5216  -75.5493 O   0  0  0  0  0  0  0  0  0  0  0  0
   11.2558   -7.6467  -82.9915 C   0  0  0  0  0  0  0  0  0  0  0  0
   11.5135  -15.3316  -78.1102 C   0  0  2  0  0  0  0  0  0  0  0  0
   11.6125  -14.3626  -76.9677 C   0  0  0  0  0  0  0  0  0  0  0  0
   12.7254  -14.8914  -76.0782 C   0  0  1  0  0  0  0  0  0  0  0  0
   11.9440  -12.9746  -77.3658 N   0  0  0  0  0  0  0  0  0  0  0  0
   10.9524  -11.9869  -77.1412 C   0  0  0  0  0  0  0  0  0  0  0  0
   12.4749  -12.9466  -78.7663 O   0  0  0  0  0  0  0  0  0  0  0  0
   11.7658  -13.2765  -79.7505 N   0  0  0  0  0  0  0  0  0  0  0  0
   13.8122  -12.5427  -79.0393 C   0  0  2  0  0  0  0  0  0  0  0  0
   14.6234  -13.2460  -79.9965 C   0  0  0  0  0  0  0  0  0  0  0  0
   14.4440  -14.7305  -79.9406 C   0  0  0  0  0  0  0  0  0  0  0  0
   14.0316  -15.2824  -81.2551 C   0  0  0  0  0  0  0  0  0  0  0  0
   12.8680  -14.9883  -81.9634 N   0  0  0  0  0  0  0  0  0  0  0  0
   12.8692  -15.6958  -83.1056 C   0  0  0  0  0  0  0  0  0  0  0  0
   13.9745  -16.4524  -83.2038 C   0  0  0  0  0  0  0  0  0  0  0  0
   14.4535  -17.3396  -84.1508 C   0  0  0  0  0  0  0  0  0  0  0  0
   15.6646  -17.9974  -83.9825 C   0  0  0  0  0  0  0  0  0  0  0  0
   16.3852  -17.7431  -82.8384 C   0  0  0  0  0  0  0  0  0  0  0  0
   15.8894  -16.8469  -81.8940 C   0  0  0  0  0  0  0  0  0  0  0  0
   14.7008  -16.1979  -82.0536 C   0  0  0  0  0  0  0  0  0  0  0  0
   14.2661  -12.7763  -81.3524 O   0  0  0  0  0  0  0  0  0  0  0  0
   14.7722  -13.3682  -82.5021 O   0  0  0  0  0  0  0  0  0  0  0  0
  1  2  1  0
  2  3  2  0
  4  2  1  0
  4  5  1  0
  5  6  1  0
  6  7  1  0
  7  8  1  0
  8 10  1  0
  8  9  1  1
 10 11  2  0
 10 16  1  0
 13 12  1  1
 13 15  1  0
 14 13  1  0
 15 17  1  0
 15 16  1  1
 17 18  2  0
 17 19  1  0
 19 20  1  0
 20 21  1  1
 21 22  1  0
 22 30  1  0
 22 23  2  0
 23 24  1  0
 24 25  1  0
 25 26  2  0
 27 26  1  0
 28 27  2  0
 29 30  2  0
 29 28  1  0
 30 25  1  0
 31 20  1  0
 31 32  1  0
 33 31  2  0
M  END
$$$$
