RVW.pdb
     RDKit          3D

 33 34  0  0  1  0  0  0  0  0999 V2000
   28.8391  -20.8920   -8.8694 N   0  0  0  0  0  0  0  0  0  0  0  0
   27.4244  -21.1187   -8.8825 C   0  0  0  0  0  0  0  0  0  0  0  0
   26.7817  -20.9070   -7.7813 N   0  0  0  0  0  0  0  0  0  0  0  0
   26.7563  -21.5576  -10.0559 N   0  0  0  0  0  0  0  0  0  0  0  0
   27.4534  -21.5428  -11.3032 C   0  0  0  0  0  0  0  0  0  0  0  0
   27.7788  -20.1246  -11.7814 C   0  0  0  0  0  0  0  0  0  0  0  0
   27.0853  -19.9518  -13.1061 C   0  0  0  0  0  0  0  0  0  0  0  0
   27.0525  -21.1706  -13.9548 C   0  0  2  0  0  0  0  0  0  0  0  0
   28.0887  -21.2908  -14.9207 N   0  0  0  0  0  0  0  0  0  0  0  0
   25.7250  -21.1818  -14.6576 C   0  0  0  0  0  0  0  0  0  0  0  0
   25.5197  -20.4552  -15.6705 O   0  0  0  0  0  0  0  0  0  0  0  0
   25.7725  -21.0680   -7.6415 C   0  0  0  0  0  0  0  0  0  0  0  0
   23.7578  -24.1875  -16.1234 C   0  0  2  0  0  0  0  0  0  0  0  0
   22.8456  -23.3636  -15.2612 C   0  0  0  0  0  0  0  0  0  0  0  0
   22.6624  -24.1611  -13.9807 C   0  0  2  0  0  0  0  0  0  0  0  0
   23.3732  -22.0238  -14.9129 N   0  0  0  0  0  0  0  0  0  0  0  0
   24.6305  -21.9773  -14.2602 C   0  0  0  0  0  0  0  0  0  0  0  0
   22.3276  -21.2204  -14.2020 O   0  0  0  0  0  0  0  0  0  0  0  0
   22.0729  -21.3947  -12.9832 N   0  0  0  0  0  0  0  0  0  0  0  0
   21.5763  -20.2216  -14.8830 C   0  0  2  0  0  0  0  0  0  0  0  0
   20.5836  -19.4378  -14.1981 C   0  0  0  0  0  0  0  0  0  0  0  0
   20.3997  -18.0757  -14.7895 C   0  0  0  0  0  0  0  0  0  0  0  0
   19.3723  -17.2944  -14.0569 C   0  0  0  0  0  0  0  0  0  0  0  0
   19.4573  -16.8056  -12.7545 N   0  0  0  0  0  0  0  0  0  0  0  0
   18.3190  -16.1535  -12.4647 C   0  0  0  0  0  0  0  0  0  0  0  0
   17.4703  -16.1775  -13.5053 C   0  0  0  0  0  0  0  0  0  0  0  0
   16.2020  -15.6712  -13.7258 C   0  0  0  0  0  0  0  0  0  0  0  0
   15.5473  -15.8548  -14.9364 C   0  0  0  0  0  0  0  0  0  0  0  0
   16.1972  -16.5604  -15.9226 C   0  0  0  0  0  0  0  0  0  0  0  0
   17.4743  -17.0639  -15.6853 C   0  0  0  0  0  0  0  0  0  0  0  0
   18.1224  -16.8869  -14.4987 C   0  0  0  0  0  0  0  0  0  0  0  0
   19.2931  -20.1574  -14.2555 O   0  0  0  0  0  0  0  0  0  0  0  0
   18.3900  -20.1505  -13.2007 O   0  0  0  0  0  0  0  0  0  0  0  0
  1  2  1  0
  2  3  2  0
  4  2  1  0
  4  5  1  0
  5  6  1  0
  6  7  1  0
  7  8  1  0
  8 10  1  0
  8  9  1  6
 10 11  2  0
 10 16  1  0
 13 12  1  6
 13 15  1  0
 14 13  1  0
 15 17  1  0
 15 16  1  6
 17 18  2  0
 17 19  1  0
 19 20  1  0
 20 21  1  6
 21 22  1  0
 22 30  1  0
 22 23  2  0
 23 24  1  0
 24 25  1  0
 25 26  2  0
 27 26  1  0
 28 27  2  0
 29 30  2  0
 29 28  1  0
 30 25  1  0
 31 20  1  0
 31 32  1  0
 33 31  2  0
M  END
$$$$
