RVW.pdb
     RDKit          3D

 33 34  0  0  1  0  0  0  0  0999 V2000
   20.0955  -18.7977  -18.0759 N   0  0  0  0  0  0  0  0  0  0  0  0
   20.1804  -17.3766  -17.9145 C   0  0  0  0  0  0  0  0  0  0  0  0
   19.2457  -16.6638  -18.4519 N   0  0  0  0  0  0  0  0  0  0  0  0
   21.2467  -16.7762  -17.1945 N   0  0  0  0  0  0  0  0  0  0  0  0
   21.8302  -17.4791  -16.0957 C   0  0  0  0  0  0  0  0  0  0  0  0
   21.1213  -17.1936  -14.7682 C   0  0  0  0  0  0  0  0  0  0  0  0
   21.6960  -18.1550  -13.7628 C   0  0  0  0  0  0  0  0  0  0  0  0
   21.5582  -19.5894  -14.1241 C   0  0  2  0  0  0  0  0  0  0  0  0
   20.3004  -20.1892  -13.8427 N   0  0  0  0  0  0  0  0  0  0  0  0
   22.6320  -20.3347  -13.3841 C   0  0  0  0  0  0  0  0  0  0  0  0
   22.4271  -20.7859  -12.2220 O   0  0  0  0  0  0  0  0  0  0  0  0
   19.2093  -15.6330  -18.4514 C   0  0  0  0  0  0  0  0  0  0  0  0
   26.8750  -20.7986  -14.7684 C   0  0  2  0  0  0  0  0  0  0  0  0
   26.0452  -21.8346  -14.0666 C   0  0  0  0  0  0  0  0  0  0  0  0
   27.0092  -22.5899  -13.1669 C   0  0  1  0  0  0  0  0  0  0  0  0
   24.9516  -21.2844  -13.2323 N   0  0  0  0  0  0  0  0  0  0  0  0
   23.9180  -20.5860  -13.9055 C   0  0  0  0  0  0  0  0  0  0  0  0
   25.5140  -20.5074  -12.0816 O   0  0  0  0  0  0  0  0  0  0  0  0
   25.5486  -19.2507  -12.0843 N   0  0  0  0  0  0  0  0  0  0  0  0
   26.0349  -21.1660  -10.9323 C   0  0  1  0  0  0  0  0  0  0  0  0
   26.7117  -20.4341   -9.8955 C   0  0  0  0  0  0  0  0  0  0  0  0
   26.1489  -20.6893   -8.5327 C   0  0  0  0  0  0  0  0  0  0  0  0
   26.8047  -19.8462   -7.5023 C   0  0  0  0  0  0  0  0  0  0  0  0
   26.6894  -18.4661   -7.3463 N   0  0  0  0  0  0  0  0  0  0  0  0
   27.4401  -18.0875   -6.2984 C   0  0  0  0  0  0  0  0  0  0  0  0
   28.0561  -19.1420   -5.7395 C   0  0  0  0  0  0  0  0  0  0  0  0
   28.9168  -19.2982   -4.6679 C   0  0  0  0  0  0  0  0  0  0  0  0
   29.4101  -20.5453   -4.3086 C   0  0  0  0  0  0  0  0  0  0  0  0
   29.0182  -21.6345   -5.0521 C   0  0  0  0  0  0  0  0  0  0  0  0
   28.1509  -21.4611   -6.1284 C   0  0  0  0  0  0  0  0  0  0  0  0
   27.6631  -20.2389   -6.4862 C   0  0  0  0  0  0  0  0  0  0  0  0
   28.1386  -20.8224   -9.8991 O   0  0  0  0  0  0  0  0  0  0  0  0
   29.1561  -19.9192   -9.6214 O   0  0  0  0  0  0  0  0  0  0  0  0
  1  2  1  0
  2  3  2  0
  4  2  1  0
  4  5  1  0
  5  6  1  0
  6  7  1  0
  7  8  1  0
  8 10  1  0
  8  9  1  1
 10 11  2  0
 10 16  1  0
 13 12  1  6
 13 15  1  0
 14 13  1  0
 15 17  1  0
 15 16  1  6
 17 18  2  0
 17 19  1  0
 19 20  1  0
 20 21  1  6
 21 22  1  0
 22 30  1  0
 22 23  2  0
 23 24  1  0
 24 25  1  0
 25 26  2  0
 27 26  1  0
 28 27  2  0
 29 30  2  0
 29 28  1  0
 30 25  1  0
 31 20  1  0
 31 32  1  0
 33 31  2  0
M  END
$$$$
