RVW.pdb
     RDKit          3D

 33 34  0  0  1  0  0  0  0  0999 V2000
   31.4464  -19.6811  -19.1257 N   0  0  0  0  0  0  0  0  0  0  0  0
   30.1518  -20.2936  -19.1686 C   0  0  0  0  0  0  0  0  0  0  0  0
   29.6305  -20.4928  -20.3344 N   0  0  0  0  0  0  0  0  0  0  0  0
   29.4699  -20.6661  -17.9803 N   0  0  0  0  0  0  0  0  0  0  0  0
   30.0709  -20.3881  -16.7141 C   0  0  0  0  0  0  0  0  0  0  0  0
   29.7985  -18.9602  -16.2315 C   0  0  0  0  0  0  0  0  0  0  0  0
   29.0121  -19.0847  -14.9542 C   0  0  0  0  0  0  0  0  0  0  0  0
   27.6928  -19.7521  -15.0983 C   0  0  2  0  0  0  0  0  0  0  0  0
   26.8572  -19.2714  -16.1431 N   0  0  0  0  0  0  0  0  0  0  0  0
   26.9756  -19.5969  -13.7877 C   0  0  0  0  0  0  0  0  0  0  0  0
   26.8594  -18.4641  -13.2406 O   0  0  0  0  0  0  0  0  0  0  0  0
   28.7172  -20.9391  -20.5090 C   0  0  0  0  0  0  0  0  0  0  0  0
   24.0740  -22.6507  -12.6965 C   0  0  1  0  0  0  0  0  0  0  0  0
   24.0322  -21.1595  -12.5262 C   0  0  0  0  0  0  0  0  0  0  0  0
   23.0312  -20.9031  -11.4120 C   0  0  1  0  0  0  0  0  0  0  0  0
   25.3274  -20.5473  -12.1489 N   0  0  0  0  0  0  0  0  0  0  0  0
   26.3904  -20.6665  -13.0790 C   0  0  0  0  0  0  0  0  0  0  0  0
   25.7228  -20.9729  -10.7681 O   0  0  0  0  0  0  0  0  0  0  0  0
   26.3916  -22.0174  -10.5626 N   0  0  0  0  0  0  0  0  0  0  0  0
   25.3540  -20.2064   -9.6269 C   0  0  1  0  0  0  0  0  0  0  0  0
   25.6843  -20.6424   -8.2966 C   0  0  0  0  0  0  0  0  0  0  0  0
   26.0971  -19.5208   -7.3962 C   0  0  0  0  0  0  0  0  0  0  0  0
   27.5641  -19.5099   -7.1717 C   0  0  0  0  0  0  0  0  0  0  0  0
   28.5584  -19.2703   -8.1184 N   0  0  0  0  0  0  0  0  0  0  0  0
   29.7559  -19.3517   -7.5147 C   0  0  0  0  0  0  0  0  0  0  0  0
   29.6200  -19.6341   -6.2087 C   0  0  0  0  0  0  0  0  0  0  0  0
   30.5095  -19.8205   -5.1658 C   0  0  0  0  0  0  0  0  0  0  0  0
   30.0711  -20.1099   -3.8805 C   0  0  0  0  0  0  0  0  0  0  0  0
   28.7156  -20.2082   -3.6664 C   0  0  0  0  0  0  0  0  0  0  0  0
   27.8325  -20.0179   -4.7269 C   0  0  0  0  0  0  0  0  0  0  0  0
   28.2569  -19.7334   -5.9912 C   0  0  0  0  0  0  0  0  0  0  0  0
   24.5009  -21.3085   -7.7115 O   0  0  0  0  0  0  0  0  0  0  0  0
   24.5973  -22.1997   -6.6510 O   0  0  0  0  0  0  0  0  0  0  0  0
  1  2  1  0
  2  3  2  0
  4  2  1  0
  4  5  1  0
  5  6  1  0
  6  7  1  0
  7  8  1  0
  8 10  1  0
  8  9  1  6
 10 11  2  0
 10 16  1  0
 13 12  1  6
 13 15  1  0
 14 13  1  0
 15 17  1  0
 15 16  1  6
 17 18  2  0
 17 19  1  0
 19 20  1  0
 20 21  1  1
 21 22  1  0
 22 30  1  0
 22 23  2  0
 23 24  1  0
 24 25  1  0
 25 26  2  0
 27 26  1  0
 28 27  2  0
 29 30  2  0
 29 28  1  0
 30 25  1  0
 31 20  1  0
 31 32  1  0
 33 31  2  0
M  END
$$$$
