RVW.pdb
     RDKit          3D

 33 34  0  0  1  0  0  0  0  0999 V2000
   26.2961  -17.5793  -20.4513 N   0  0  0  0  0  0  0  0  0  0  0  0
   27.5752  -16.9832  -20.2031 C   0  0  0  0  0  0  0  0  0  0  0  0
   27.9333  -16.0100  -20.9745 N   0  0  0  0  0  0  0  0  0  0  0  0
   28.4143  -17.4422  -19.1539 N   0  0  0  0  0  0  0  0  0  0  0  0
   27.9603  -18.5021  -18.3097 C   0  0  0  0  0  0  0  0  0  0  0  0
   27.7841  -19.8236  -19.0636 C   0  0  0  0  0  0  0  0  0  0  0  0
   27.1638  -20.7899  -18.0905 C   0  0  0  0  0  0  0  0  0  0  0  0
   28.0190  -21.1355  -16.9260 C   0  0  2  0  0  0  0  0  0  0  0  0
   28.9607  -22.1813  -17.1275 N   0  0  0  0  0  0  0  0  0  0  0  0
   27.0987  -21.5158  -15.8015 C   0  0  0  0  0  0  0  0  0  0  0  0
   26.3935  -22.5622  -15.8644 O   0  0  0  0  0  0  0  0  0  0  0  0
   28.8039  -15.4651  -20.8792 C   0  0  0  0  0  0  0  0  0  0  0  0
   27.9198  -21.4238  -11.9020 C   0  0  2  0  0  0  0  0  0  0  0  0
   26.5613  -20.8473  -12.1789 C   0  0  0  0  0  0  0  0  0  0  0  0
   26.6993  -19.3504  -11.9567 C   0  0  2  0  0  0  0  0  0  0  0  0
   26.0647  -21.0776  -13.5556 N   0  0  0  0  0  0  0  0  0  0  0  0
   26.9475  -20.7625  -14.6189 C   0  0  0  0  0  0  0  0  0  0  0  0
   24.7112  -20.4604  -13.7316 O   0  0  0  0  0  0  0  0  0  0  0  0
   24.5651  -19.2260  -13.9202 N   0  0  0  0  0  0  0  0  0  0  0  0
   23.5293  -21.2526  -13.6918 C   0  0  1  0  0  0  0  0  0  0  0  0
   22.2286  -20.6611  -13.8567 C   0  0  0  0  0  0  0  0  0  0  0  0
   21.6916  -20.8008  -15.2463 C   0  0  0  0  0  0  0  0  0  0  0  0
   20.3879  -20.1089  -15.4021 C   0  0  0  0  0  0  0  0  0  0  0  0
   20.1667  -18.7341  -15.4600 N   0  0  0  0  0  0  0  0  0  0  0  0
   18.8488  -18.5161  -15.6040 C   0  0  0  0  0  0  0  0  0  0  0  0
   18.1696  -19.6740  -15.6461 C   0  0  0  0  0  0  0  0  0  0  0  0
   16.8323  -20.0020  -15.7786 C   0  0  0  0  0  0  0  0  0  0  0  0
   16.4066  -21.3236  -15.7903 C   0  0  0  0  0  0  0  0  0  0  0  0
   17.3572  -22.3104  -15.6654 C   0  0  0  0  0  0  0  0  0  0  0  0
   18.7001  -21.9640  -15.5329 C   0  0  0  0  0  0  0  0  0  0  0  0
   19.1243  -20.6680  -15.5207 C   0  0  0  0  0  0  0  0  0  0  0  0
   21.2912  -21.3152  -12.9185 O   0  0  0  0  0  0  0  0  0  0  0  0
   20.2283  -20.6378  -12.3358 O   0  0  0  0  0  0  0  0  0  0  0  0
  1  2  1  0
  2  3  2  0
  4  2  1  0
  4  5  1  0
  5  6  1  0
  6  7  1  0
  7  8  1  0
  8 10  1  0
  8  9  1  6
 10 11  2  0
 10 16  1  0
 13 12  1  1
 13 15  1  0
 14 13  1  0
 15 17  1  0
 15 16  1  1
 17 18  2  0
 17 19  1  0
 19 20  1  0
 20 21  1  1
 21 22  1  0
 22 30  1  0
 22 23  2  0
 23 24  1  0
 24 25  1  0
 25 26  2  0
 27 26  1  0
 28 27  2  0
 29 30  2  0
 29 28  1  0
 30 25  1  0
 31 20  1  0
 31 32  1  0
 33 31  2  0
M  END
$$$$
