RVW.pdb
     RDKit          3D

 33 34  0  0  1  0  0  0  0  0999 V2000
   30.0493  -21.5803  -19.2098 N   0  0  0  0  0  0  0  0  0  0  0  0
   30.0499  -22.8328  -18.5141 C   0  0  0  0  0  0  0  0  0  0  0  0
   30.9280  -23.7095  -18.8759 N   0  0  0  0  0  0  0  0  0  0  0  0
   29.1248  -23.1000  -17.4708 N   0  0  0  0  0  0  0  0  0  0  0  0
   27.8716  -22.4134  -17.4560 C   0  0  0  0  0  0  0  0  0  0  0  0
   28.0322  -20.8926  -17.3696 C   0  0  0  0  0  0  0  0  0  0  0  0
   27.4218  -20.4734  -16.0592 C   0  0  0  0  0  0  0  0  0  0  0  0
   25.9368  -20.5001  -16.0277 C   0  0  2  0  0  0  0  0  0  0  0  0
   25.2741  -19.6893  -16.9893 N   0  0  0  0  0  0  0  0  0  0  0  0
   25.5180  -20.0680  -14.6515 C   0  0  0  0  0  0  0  0  0  0  0  0
   25.9645  -19.0021  -14.1409 O   0  0  0  0  0  0  0  0  0  0  0  0
   31.0435  -24.6441  -18.4551 C   0  0  0  0  0  0  0  0  0  0  0  0
   21.7951  -20.0941  -13.1480 C   0  0  2  0  0  0  0  0  0  0  0  0
   22.7923  -20.6626  -12.1802 C   0  0  0  0  0  0  0  0  0  0  0  0
   22.5518  -22.1631  -12.1794 C   0  0  2  0  0  0  0  0  0  0  0  0
   24.2079  -20.4103  -12.5368 N   0  0  0  0  0  0  0  0  0  0  0  0
   24.6209  -20.7910  -13.8382 C   0  0  0  0  0  0  0  0  0  0  0  0
   25.1166  -20.9380  -11.4692 O   0  0  0  0  0  0  0  0  0  0  0  0
   25.5331  -22.1242  -11.4801 N   0  0  0  0  0  0  0  0  0  0  0  0
   25.5467  -20.1117  -10.3931 C   0  0  1  0  0  0  0  0  0  0  0  0
   26.4241  -20.6148   -9.3704 C   0  0  0  0  0  0  0  0  0  0  0  0
   27.4019  -19.5936   -8.8804 C   0  0  0  0  0  0  0  0  0  0  0  0
   28.3212  -20.1595   -7.8620 C   0  0  0  0  0  0  0  0  0  0  0  0
   29.2580  -21.1749   -8.0457 N   0  0  0  0  0  0  0  0  0  0  0  0
   29.8873  -21.3958   -6.8794 C   0  0  0  0  0  0  0  0  0  0  0  0
   29.4226  -20.5810   -5.9181 C   0  0  0  0  0  0  0  0  0  0  0  0
   29.7202  -20.4035   -4.5789 C   0  0  0  0  0  0  0  0  0  0  0  0
   29.0591  -19.4571   -3.8075 C   0  0  0  0  0  0  0  0  0  0  0  0
   28.0900  -18.6913   -4.4135 C   0  0  0  0  0  0  0  0  0  0  0  0
   27.8017  -18.8820   -5.7631 C   0  0  0  0  0  0  0  0  0  0  0  0
   28.4474  -19.8097   -6.5259 C   0  0  0  0  0  0  0  0  0  0  0  0
   25.6034  -21.0712   -8.2281 O   0  0  0  0  0  0  0  0  0  0  0  0
   26.0357  -22.0535   -7.3470 O   0  0  0  0  0  0  0  0  0  0  0  0
  1  2  1  0
  2  3  2  0
  4  2  1  0
  4  5  1  0
  5  6  1  0
  6  7  1  0
  7  8  1  0
  8 10  1  0
  8  9  1  6
 10 11  2  0
 10 16  1  0
 13 12  1  1
 13 15  1  0
 14 13  1  0
 15 17  1  0
 15 16  1  1
 17 18  2  0
 17 19  1  0
 19 20  1  0
 20 21  1  1
 21 22  1  0
 22 30  1  0
 22 23  2  0
 23 24  1  0
 24 25  1  0
 25 26  2  0
 27 26  1  0
 28 27  2  0
 29 30  2  0
 29 28  1  0
 30 25  1  0
 31 20  1  0
 31 32  1  0
 33 31  2  0
M  END
$$$$
