QWW.pdb
     RDKit          3D

 38 41  0  0  1  0  0  0  0  0999 V2000
   12.6276  -17.6489   16.9447 N   0  0  0  0  0  0  0  0  0  0  0  0
   12.2415  -18.9925   17.2315 C   0  0  0  0  0  0  0  0  0  0  0  0
   12.6594  -19.8751   16.4570 O   0  0  0  0  0  0  0  0  0  0  0  0
   11.3926  -19.2415   18.4026 C   0  0  0  0  0  0  0  0  0  0  0  0
   11.0349  -18.0082   19.1916 C   0  0  0  0  0  0  0  0  0  0  0  0
   10.8859  -18.3375   20.6534 C   0  0  2  0  0  0  0  0  0  0  0  0
    9.7695  -19.2461   20.8455 N   0  0  0  0  0  0  0  0  0  0  0  0
   10.7976  -17.1409   21.5043 C   0  0  0  0  0  0  0  0  0  0  0  0
   11.7706  -16.3470   21.5645 O   0  0  0  0  0  0  0  0  0  0  0  0
    9.6620  -16.7986   22.2943 N   0  0  0  0  0  0  0  0  0  0  0  0
    9.4757  -15.5231   22.9486 C   0  0  1  0  0  0  0  0  0  0  0  0
    8.0219  -15.0365   22.8708 C   0  0  0  0  0  0  0  0  0  0  0  0
    7.4913  -14.9492   21.5218 C   0  0  0  0  0  0  0  0  0  0  0  0
    6.5980  -15.8047   20.9053 C   0  0  0  0  0  0  0  0  0  0  0  0
    6.3674  -15.3988   19.6407 N   0  0  0  0  0  0  0  0  0  0  0  0
    7.0863  -14.2981   19.4100 C   0  0  0  0  0  0  0  0  0  0  0  0
    7.1794  -13.5224   18.2829 C   0  0  0  0  0  0  0  0  0  0  0  0
    8.0004  -12.4126   18.3036 C   0  0  0  0  0  0  0  0  0  0  0  0
    8.7087  -12.0864   19.4159 C   0  0  0  0  0  0  0  0  0  0  0  0
    8.6000  -12.8792   20.5334 C   0  0  0  0  0  0  0  0  0  0  0  0
    7.7937  -14.0013   20.5696 C   0  0  0  0  0  0  0  0  0  0  0  0
    9.8420  -15.6157   24.3855 C   0  0  0  0  0  0  0  0  0  0  0  0
    9.9074  -14.5314   25.0828 O   0  0  0  0  0  0  0  0  0  0  0  0
   10.1318  -16.8020   25.0889 N   0  0  0  0  0  0  0  0  0  0  0  0
   10.4069  -16.7617   26.5402 C   0  0  1  0  0  0  0  0  0  0  0  0
    9.0553  -17.0523   27.1866 C   0  0  0  0  0  0  0  0  0  0  0  0
    7.9993  -16.1272   26.7742 C   0  0  0  0  0  0  0  0  0  0  0  0
    6.8471  -16.3211   26.0763 C   0  0  0  0  0  0  0  0  0  0  0  0
    6.2081  -15.1334   25.9653 N   0  0  0  0  0  0  0  0  0  0  0  0
    6.9131  -14.1611   26.5745 C   0  0  0  0  0  0  0  0  0  0  0  0
    6.6682  -12.8052   26.7305 C   0  0  0  0  0  0  0  0  0  0  0  0
    7.5907  -12.0634   27.4205 C   0  0  0  0  0  0  0  0  0  0  0  0
    8.7187  -12.6533   27.9369 C   0  0  0  0  0  0  0  0  0  0  0  0
    8.9624  -14.0006   27.7820 C   0  0  0  0  0  0  0  0  0  0  0  0
    8.0390  -14.7697   27.0860 C   0  0  0  0  0  0  0  0  0  0  0  0
   11.2976  -17.8981   26.8432 C   0  0  0  0  0  0  0  0  0  0  0  0
   11.6935  -18.7396   25.9842 O   0  0  0  0  0  0  0  0  0  0  0  0
   11.7803  -18.1287   28.1394 O   0  0  0  0  0  0  0  0  0  0  0  0
  2  1  1  0
  2  4  1  0
  3  2  2  0
  5  4  1  0
  6  7  1  6
  6  5  1  0
  8  6  1  0
  9  8  2  0
 10  8  1  0
 11 10  1  0
 11 22  1  0
 11 12  1  1
 13 21  1  0
 13 12  1  0
 14 13  2  0
 15 14  1  0
 15 16  1  0
 16 21  2  0
 17 16  1  0
 17 18  2  0
 18 19  1  0
 19 20  2  0
 21 20  1  0
 22 24  1  0
 23 22  2  0
 24 25  1  0
 25 26  1  1
 25 36  1  0
 27 35  1  0
 27 26  1  0
 28 27  2  0
 29 28  1  0
 29 30  1  0
 30 35  2  0
 31 30  1  0
 31 32  2  0
 32 33  1  0
 33 34  2  0
 35 34  1  0
 36 38  1  0
 37 36  2  0
M  END
$$$$
