QWW.pdb
     RDKit          3D

 38 41  0  0  1  0  0  0  0  0999 V2000
   12.7328  -14.7151   17.4620 N   0  0  0  0  0  0  0  0  0  0  0  0
   12.1636  -15.8630   16.8335 C   0  0  0  0  0  0  0  0  0  0  0  0
   12.3792  -16.0011   15.6137 O   0  0  0  0  0  0  0  0  0  0  0  0
   11.3761  -16.7911   17.6537 C   0  0  0  0  0  0  0  0  0  0  0  0
   11.2887  -16.4202   19.1118 C   0  0  0  0  0  0  0  0  0  0  0  0
   10.7951  -17.5857   19.9276 C   0  0  2  0  0  0  0  0  0  0  0  0
    9.6473  -18.1942   19.2787 N   0  0  0  0  0  0  0  0  0  0  0  0
   10.5333  -17.2327   21.3314 C   0  0  0  0  0  0  0  0  0  0  0  0
   11.4494  -16.7241   22.0264 O   0  0  0  0  0  0  0  0  0  0  0  0
    9.2851  -17.4294   21.9902 N   0  0  0  0  0  0  0  0  0  0  0  0
    9.0032  -17.0187   23.3472 C   0  0  1  0  0  0  0  0  0  0  0  0
    7.5105  -16.7407   23.5725 C   0  0  0  0  0  0  0  0  0  0  0  0
    7.1128  -15.3668   23.3210 C   0  0  0  0  0  0  0  0  0  0  0  0
    6.8878  -14.7595   22.1001 C   0  0  0  0  0  0  0  0  0  0  0  0
    6.5567  -13.4655   22.2820 N   0  0  0  0  0  0  0  0  0  0  0  0
    6.5582  -13.2065   23.5915 C   0  0  0  0  0  0  0  0  0  0  0  0
    6.2812  -12.0436   24.2635 C   0  0  0  0  0  0  0  0  0  0  0  0
    6.3454  -12.0395   25.6427 C   0  0  0  0  0  0  0  0  0  0  0  0
    6.6771  -13.1623   26.3315 C   0  0  0  0  0  0  0  0  0  0  0  0
    6.9513  -14.3159   25.6363 C   0  0  0  0  0  0  0  0  0  0  0  0
    6.9023  -14.3782   24.2563 C   0  0  0  0  0  0  0  0  0  0  0  0
    9.4132  -18.0756   24.3077 C   0  0  0  0  0  0  0  0  0  0  0  0
    9.2650  -19.3133   23.9724 O   0  0  0  0  0  0  0  0  0  0  0  0
    9.9670  -17.8603   25.5855 N   0  0  0  0  0  0  0  0  0  0  0  0
   10.7027  -18.9421   26.2728 C   0  0  1  0  0  0  0  0  0  0  0  0
   11.8553  -18.2267   26.9719 C   0  0  0  0  0  0  0  0  0  0  0  0
   11.4334  -17.4179   28.1158 C   0  0  0  0  0  0  0  0  0  0  0  0
   11.2760  -17.7239   29.4326 C   0  0  0  0  0  0  0  0  0  0  0  0
   10.8703  -16.6105   30.0860 N   0  0  0  0  0  0  0  0  0  0  0  0
   10.7571  -15.5774   29.2296 C   0  0  0  0  0  0  0  0  0  0  0  0
   10.3858  -14.2557   29.4244 C   0  0  0  0  0  0  0  0  0  0  0  0
   10.3729  -13.4270   28.3333 C   0  0  0  0  0  0  0  0  0  0  0  0
   10.7182  -13.9000   27.0907 C   0  0  0  0  0  0  0  0  0  0  0  0
   11.0870  -15.2134   26.8968 C   0  0  0  0  0  0  0  0  0  0  0  0
   11.1067  -16.0691   27.9904 C   0  0  0  0  0  0  0  0  0  0  0  0
    9.8101  -19.4745   27.3197 C   0  0  0  0  0  0  0  0  0  0  0  0
    8.6720  -18.9934   27.5957 O   0  0  0  0  0  0  0  0  0  0  0  0
   10.1715  -20.5814   28.1012 O   0  0  0  0  0  0  0  0  0  0  0  0
  2  1  1  0
  2  4  1  0
  3  2  2  0
  5  4  1  0
  6  7  1  6
  6  5  1  0
  8  6  1  0
  9  8  2  0
 10  8  1  0
 11 10  1  0
 11 22  1  0
 11 12  1  6
 13 21  1  0
 13 12  1  0
 14 13  2  0
 15 14  1  0
 15 16  1  0
 16 21  2  0
 17 16  1  0
 17 18  2  0
 18 19  1  0
 19 20  2  0
 21 20  1  0
 22 24  1  0
 23 22  2  0
 24 25  1  0
 25 26  1  1
 25 36  1  0
 27 35  1  0
 27 26  1  0
 28 27  2  0
 29 28  1  0
 29 30  1  0
 30 35  2  0
 31 30  1  0
 31 32  2  0
 32 33  1  0
 33 34  2  0
 35 34  1  0
 36 38  1  0
 37 36  2  0
M  END
$$$$
