QWW.pdb
     RDKit          3D

 38 41  0  0  1  0  0  0  0  0999 V2000
   11.9779  -15.2269   16.4145 N   0  0  0  0  0  0  0  0  0  0  0  0
   12.0649  -16.6466   16.2980 C   0  0  0  0  0  0  0  0  0  0  0  0
   12.4146  -17.0994   15.1907 O   0  0  0  0  0  0  0  0  0  0  0  0
   11.7437  -17.4658   17.4726 C   0  0  0  0  0  0  0  0  0  0  0  0
   11.3484  -16.6798   18.6963 C   0  0  0  0  0  0  0  0  0  0  0  0
   11.5982  -17.4816   19.9462 C   0  0  2  0  0  0  0  0  0  0  0  0
   11.0079  -18.8019   19.8144 N   0  0  0  0  0  0  0  0  0  0  0  0
   11.1679  -16.7862   21.1688 C   0  0  0  0  0  0  0  0  0  0  0  0
   11.7284  -15.7117   21.5036 O   0  0  0  0  0  0  0  0  0  0  0  0
   10.1348  -17.2484   22.0349 N   0  0  0  0  0  0  0  0  0  0  0  0
    9.6805  -16.5452   23.2135 C   0  0  1  0  0  0  0  0  0  0  0  0
    8.1626  -16.6608   23.4107 C   0  0  0  0  0  0  0  0  0  0  0  0
    7.3747  -15.9301   22.4338 C   0  0  0  0  0  0  0  0  0  0  0  0
    6.3703  -16.4176   21.6193 C   0  0  0  0  0  0  0  0  0  0  0  0
    5.8955  -15.4322   20.8313 N   0  0  0  0  0  0  0  0  0  0  0  0
    6.5623  -14.3091   21.1071 C   0  0  0  0  0  0  0  0  0  0  0  0
    6.4348  -13.0515   20.5755 C   0  0  0  0  0  0  0  0  0  0  0  0
    7.2517  -12.0429   21.0464 C   0  0  0  0  0  0  0  0  0  0  0  0
    8.1696  -12.2820   22.0187 C   0  0  0  0  0  0  0  0  0  0  0  0
    8.2798  -13.5507   22.5360 C   0  0  0  0  0  0  0  0  0  0  0  0
    7.4885  -14.5981   22.1030 C   0  0  0  0  0  0  0  0  0  0  0  0
   10.3345  -17.0912   24.4308 C   0  0  0  0  0  0  0  0  0  0  0  0
   10.7615  -18.3093   24.4153 O   0  0  0  0  0  0  0  0  0  0  0  0
   10.5462  -16.3945   25.6373 N   0  0  0  0  0  0  0  0  0  0  0  0
   11.3559  -16.9979   26.7162 C   0  0  1  0  0  0  0  0  0  0  0  0
   11.3384  -15.9526   27.8280 C   0  0  0  0  0  0  0  0  0  0  0  0
    9.9904  -15.5619   28.2417 C   0  0  0  0  0  0  0  0  0  0  0  0
    9.1001  -16.1423   29.0918 C   0  0  0  0  0  0  0  0  0  0  0  0
    7.9871  -15.3740   29.1371 N   0  0  0  0  0  0  0  0  0  0  0  0
    8.1239  -14.3001   28.3361 C   0  0  0  0  0  0  0  0  0  0  0  0
    7.2707  -13.2427   28.0591 C   0  0  0  0  0  0  0  0  0  0  0  0
    7.7068  -12.2797   27.1875 C   0  0  0  0  0  0  0  0  0  0  0  0
    8.9509  -12.3682   26.6116 C   0  0  0  0  0  0  0  0  0  0  0  0
    9.7989  -13.4189   26.8866 C   0  0  0  0  0  0  0  0  0  0  0  0
    9.3752  -14.4049   27.7680 C   0  0  0  0  0  0  0  0  0  0  0  0
   10.6162  -18.1774   27.2038 C   0  0  0  0  0  0  0  0  0  0  0  0
    9.4156  -18.4395   26.8992 O   0  0  0  0  0  0  0  0  0  0  0  0
   11.2099  -19.1151   28.0610 O   0  0  0  0  0  0  0  0  0  0  0  0
  2  1  1  0
  2  4  1  0
  3  2  2  0
  5  4  1  0
  6  7  1  6
  6  5  1  0
  8  6  1  0
  9  8  2  0
 10  8  1  0
 11 10  1  0
 11 22  1  0
 11 12  1  1
 13 21  1  0
 13 12  1  0
 14 13  2  0
 15 14  1  0
 15 16  1  0
 16 21  2  0
 17 16  1  0
 17 18  2  0
 18 19  1  0
 19 20  2  0
 21 20  1  0
 22 24  1  0
 23 22  2  0
 24 25  1  0
 25 26  1  1
 25 36  1  0
 27 35  1  0
 27 26  1  0
 28 27  2  0
 29 28  1  0
 29 30  1  0
 30 35  2  0
 31 30  1  0
 31 32  2  0
 32 33  1  0
 33 34  2  0
 35 34  1  0
 36 38  1  0
 37 36  2  0
M  END
$$$$
