QWW.pdb
     RDKit          3D

 38 41  0  0  1  0  0  0  0  0999 V2000
   10.6987  -16.4814   15.6059 N   0  0  0  0  0  0  0  0  0  0  0  0
    9.4874  -16.7036   16.3270 C   0  0  0  0  0  0  0  0  0  0  0  0
    8.4221  -16.4997   15.7131 O   0  0  0  0  0  0  0  0  0  0  0  0
    9.5760  -17.1527   17.7215 C   0  0  0  0  0  0  0  0  0  0  0  0
   10.9680  -17.5039   18.1801 C   0  0  0  0  0  0  0  0  0  0  0  0
   10.9528  -17.9762   19.6099 C   0  0  2  0  0  0  0  0  0  0  0  0
   10.2342  -19.2343   19.7087 N   0  0  0  0  0  0  0  0  0  0  0  0
   10.4481  -16.9585   20.5443 C   0  0  0  0  0  0  0  0  0  0  0  0
   10.9428  -15.8027   20.5324 O   0  0  0  0  0  0  0  0  0  0  0  0
    9.4112  -17.1846   21.4955 N   0  0  0  0  0  0  0  0  0  0  0  0
    8.9103  -16.1851   22.4119 C   0  0  1  0  0  0  0  0  0  0  0  0
    7.4776  -16.4855   22.8738 C   0  0  0  0  0  0  0  0  0  0  0  0
    7.0058  -15.6353   23.9524 C   0  0  0  0  0  0  0  0  0  0  0  0
    6.4283  -16.0230   25.1467 C   0  0  0  0  0  0  0  0  0  0  0  0
    6.1037  -14.9373   25.8767 N   0  0  0  0  0  0  0  0  0  0  0  0
    6.4530  -13.8455   25.1929 C   0  0  0  0  0  0  0  0  0  0  0  0
    6.3318  -12.5195   25.5214 C   0  0  0  0  0  0  0  0  0  0  0  0
    6.7858  -11.5680   24.6299 C   0  0  0  0  0  0  0  0  0  0  0  0
    7.3436  -11.9284   23.4449 C   0  0  0  0  0  0  0  0  0  0  0  0
    7.4538  -13.2634   23.1371 C   0  0  0  0  0  0  0  0  0  0  0  0
    7.0169  -14.2587   23.9910 C   0  0  0  0  0  0  0  0  0  0  0  0
    9.7671  -16.1128   23.6237 C   0  0  0  0  0  0  0  0  0  0  0  0
    9.8794  -14.9845   24.2407 O   0  0  0  0  0  0  0  0  0  0  0  0
   10.4901  -17.1824   24.1887 N   0  0  0  0  0  0  0  0  0  0  0  0
   11.6477  -16.9192   25.0687 C   0  0  1  0  0  0  0  0  0  0  0  0
   11.3275  -17.6852   26.3492 C   0  0  0  0  0  0  0  0  0  0  0  0
   10.1618  -17.1657   27.0649 C   0  0  0  0  0  0  0  0  0  0  0  0
    8.8872  -17.6296   27.1773 C   0  0  0  0  0  0  0  0  0  0  0  0
    8.1895  -16.7795   27.9657 N   0  0  0  0  0  0  0  0  0  0  0  0
    8.9756  -15.7658   28.3758 C   0  0  0  0  0  0  0  0  0  0  0  0
    8.7190  -14.6712   29.1874 C   0  0  0  0  0  0  0  0  0  0  0  0
    9.7478  -13.7996   29.4307 C   0  0  0  0  0  0  0  0  0  0  0  0
   10.9897  -14.0120   28.8832 C   0  0  0  0  0  0  0  0  0  0  0  0
   11.2449  -15.0995   28.0765 C   0  0  0  0  0  0  0  0  0  0  0  0
   10.2151  -15.9948   27.8184 C   0  0  0  0  0  0  0  0  0  0  0  0
   12.8194  -17.5644   24.4464 C   0  0  0  0  0  0  0  0  0  0  0  0
   14.0029  -17.4629   24.8843 O   0  0  0  0  0  0  0  0  0  0  0  0
   12.6977  -18.3569   23.2959 O   0  0  0  0  0  0  0  0  0  0  0  0
  2  1  1  0
  2  4  1  0
  3  2  2  0
  5  4  1  0
  6  7  1  6
  6  5  1  0
  8  6  1  0
  9  8  2  0
 10  8  1  0
 11 10  1  0
 11 22  1  0
 11 12  1  1
 13 21  1  0
 13 12  1  0
 14 13  2  0
 15 14  1  0
 15 16  1  0
 16 21  2  0
 17 16  1  0
 17 18  2  0
 18 19  1  0
 19 20  2  0
 21 20  1  0
 22 24  1  0
 23 22  2  0
 24 25  1  0
 25 26  1  1
 25 36  1  0
 27 35  1  0
 27 26  1  0
 28 27  2  0
 29 28  1  0
 29 30  1  0
 30 35  2  0
 31 30  1  0
 31 32  2  0
 32 33  1  0
 33 34  2  0
 35 34  1  0
 36 38  1  0
 37 36  2  0
M  END
$$$$
