QWW.pdb
     RDKit          3D

 38 41  0  0  1  0  0  0  0  0999 V2000
    7.9024  -15.8161   15.8984 N   0  0  0  0  0  0  0  0  0  0  0  0
    7.2868  -17.0535   16.2540 C   0  0  0  0  0  0  0  0  0  0  0  0
    6.6181  -17.6233   15.3699 O   0  0  0  0  0  0  0  0  0  0  0  0
    7.4811  -17.5655   17.6156 C   0  0  0  0  0  0  0  0  0  0  0  0
    8.3128  -16.6788   18.5064 C   0  0  0  0  0  0  0  0  0  0  0  0
    8.7377  -17.4202   19.7463 C   0  0  2  0  0  0  0  0  0  0  0  0
    7.5683  -17.8830   20.4724 N   0  0  0  0  0  0  0  0  0  0  0  0
    9.6603  -16.6449   20.5897 C   0  0  0  0  0  0  0  0  0  0  0  0
   10.7362  -16.2141   20.1022 O   0  0  0  0  0  0  0  0  0  0  0  0
    9.4271  -16.3345   21.9609 N   0  0  0  0  0  0  0  0  0  0  0  0
   10.3422  -15.5918   22.7981 C   0  0  1  0  0  0  0  0  0  0  0  0
    9.6772  -14.3683   23.4438 C   0  0  0  0  0  0  0  0  0  0  0  0
    8.4445  -14.6617   24.1531 C   0  0  0  0  0  0  0  0  0  0  0  0
    7.7392  -15.8501   24.1712 C   0  0  0  0  0  0  0  0  0  0  0  0
    6.6317  -15.7185   24.9284 N   0  0  0  0  0  0  0  0  0  0  0  0
    6.5908  -14.4738   25.4086 C   0  0  0  0  0  0  0  0  0  0  0  0
    5.6696  -13.8710   26.2263 C   0  0  0  0  0  0  0  0  0  0  0  0
    5.8640  -12.5539   26.5920 C   0  0  0  0  0  0  0  0  0  0  0  0
    6.9453  -11.8580   26.1543 C   0  0  0  0  0  0  0  0  0  0  0  0
    7.8549  -12.4830   25.3349 C   0  0  0  0  0  0  0  0  0  0  0  0
    7.7114  -13.7990   24.9372 C   0  0  0  0  0  0  0  0  0  0  0  0
   10.8612  -16.4512   23.8934 C   0  0  0  0  0  0  0  0  0  0  0  0
   10.1951  -17.5056   24.2267 O   0  0  0  0  0  0  0  0  0  0  0  0
   12.0437  -16.2294   24.6272 N   0  0  0  0  0  0  0  0  0  0  0  0
   12.7146  -17.3496   25.3192 C   0  0  1  0  0  0  0  0  0  0  0  0
   12.3812  -17.1340   26.7928 C   0  0  0  0  0  0  0  0  0  0  0  0
   10.9479  -16.9986   27.0539 C   0  0  0  0  0  0  0  0  0  0  0  0
    9.8942  -17.8103   26.7658 C   0  0  0  0  0  0  0  0  0  0  0  0
    8.7647  -17.2281   27.2311 N   0  0  0  0  0  0  0  0  0  0  0  0
    9.0503  -16.0510   27.8197 C   0  0  0  0  0  0  0  0  0  0  0  0
    8.2413  -15.1102   28.4386 C   0  0  0  0  0  0  0  0  0  0  0  0
    8.8408  -13.9930   28.9579 C   0  0  0  0  0  0  0  0  0  0  0  0
   10.2003  -13.8197   28.8632 C   0  0  0  0  0  0  0  0  0  0  0  0
   11.0044  -14.7544   28.2482 C   0  0  0  0  0  0  0  0  0  0  0  0
   10.4156  -15.8940   27.7158 C   0  0  0  0  0  0  0  0  0  0  0  0
   12.0413  -18.5894   24.8883 C   0  0  0  0  0  0  0  0  0  0  0  0
   12.2838  -19.7346   25.3705 O   0  0  0  0  0  0  0  0  0  0  0  0
   11.0586  -18.5829   23.8879 O   0  0  0  0  0  0  0  0  0  0  0  0
  2  1  1  0
  2  4  1  0
  3  2  2  0
  5  4  1  0
  6  7  1  1
  6  5  1  0
  8  6  1  0
  9  8  2  0
 10  8  1  0
 11 10  1  0
 11 22  1  0
 11 12  1  1
 13 21  1  0
 13 12  1  0
 14 13  2  0
 15 14  1  0
 15 16  1  0
 16 21  2  0
 17 16  1  0
 17 18  2  0
 18 19  1  0
 19 20  2  0
 21 20  1  0
 22 24  1  0
 23 22  2  0
 24 25  1  0
 25 26  1  1
 25 36  1  0
 27 35  1  0
 27 26  1  0
 28 27  2  0
 29 28  1  0
 29 30  1  0
 30 35  2  0
 31 30  1  0
 31 32  2  0
 32 33  1  0
 33 34  2  0
 35 34  1  0
 36 38  1  0
 37 36  2  0
M  END
$$$$
