QWW.pdb
     RDKit          3D

 38 41  0  0  1  0  0  0  0  0999 V2000
   13.3290  -21.9523   18.3362 N   0  0  0  0  0  0  0  0  0  0  0  0
   12.4483  -21.8508   17.2179 C   0  0  0  0  0  0  0  0  0  0  0  0
   12.5878  -22.6972   16.3137 O   0  0  0  0  0  0  0  0  0  0  0  0
   11.4510  -20.7741   17.2087 C   0  0  0  0  0  0  0  0  0  0  0  0
   11.4714  -19.8896   18.4288 C   0  0  0  0  0  0  0  0  0  0  0  0
   10.1209  -19.2625   18.6530 C   0  0  2  0  0  0  0  0  0  0  0  0
    9.5219  -18.9068   17.3787 N   0  0  0  0  0  0  0  0  0  0  0  0
   10.1622  -18.1345   19.5961 C   0  0  0  0  0  0  0  0  0  0  0  0
   11.1073  -17.3076   19.5362 O   0  0  0  0  0  0  0  0  0  0  0  0
    9.1868  -17.8966   20.6076 N   0  0  0  0  0  0  0  0  0  0  0  0
    9.2326  -16.7970   21.5449 C   0  0  1  0  0  0  0  0  0  0  0  0
    7.8346  -16.3856   22.0273 C   0  0  0  0  0  0  0  0  0  0  0  0
    7.7803  -15.0800   22.6609 C   0  0  0  0  0  0  0  0  0  0  0  0
    8.2767  -13.8832   22.1801 C   0  0  0  0  0  0  0  0  0  0  0  0
    8.0504  -12.8978   23.0717 N   0  0  0  0  0  0  0  0  0  0  0  0
    7.4176  -13.4162   24.1265 C   0  0  0  0  0  0  0  0  0  0  0  0
    6.9739  -12.8138   25.2758 C   0  0  0  0  0  0  0  0  0  0  0  0
    6.3301  -13.5822   26.2251 C   0  0  0  0  0  0  0  0  0  0  0  0
    6.1352  -14.9129   26.0341 C   0  0  0  0  0  0  0  0  0  0  0  0
    6.5893  -15.4948   24.8746 C   0  0  0  0  0  0  0  0  0  0  0  0
    7.2399  -14.7748   23.8903 C   0  0  0  0  0  0  0  0  0  0  0  0
   10.0306  -17.1659   22.7427 C   0  0  0  0  0  0  0  0  0  0  0  0
    9.8163  -18.3071   23.3066 O   0  0  0  0  0  0  0  0  0  0  0  0
   11.0304  -16.3756   23.3441 N   0  0  0  0  0  0  0  0  0  0  0  0
   11.7780  -16.8802   24.5147 C   0  0  1  0  0  0  0  0  0  0  0  0
   11.9743  -15.6484   25.3941 C   0  0  0  0  0  0  0  0  0  0  0  0
   11.4746  -15.8190   26.7587 C   0  0  0  0  0  0  0  0  0  0  0  0
   11.6786  -16.7977   27.6822 C   0  0  0  0  0  0  0  0  0  0  0  0
   10.9905  -16.4797   28.8031 N   0  0  0  0  0  0  0  0  0  0  0  0
   10.3377  -15.3132   28.6393 C   0  0  0  0  0  0  0  0  0  0  0  0
    9.5203  -14.5873   29.4923 C   0  0  0  0  0  0  0  0  0  0  0  0
    8.9975  -13.4087   29.0288 C   0  0  0  0  0  0  0  0  0  0  0  0
    9.2799  -12.9692   27.7582 C   0  0  0  0  0  0  0  0  0  0  0  0
   10.0919  -13.6904   26.9103 C   0  0  0  0  0  0  0  0  0  0  0  0
   10.6319  -14.8876   27.3619 C   0  0  0  0  0  0  0  0  0  0  0  0
   10.8807  -17.8025   25.2360 C   0  0  0  0  0  0  0  0  0  0  0  0
   11.2797  -18.7545   25.9689 O   0  0  0  0  0  0  0  0  0  0  0  0
    9.4856  -17.6830   25.1572 O   0  0  0  0  0  0  0  0  0  0  0  0
  2  1  1  0
  2  4  1  0
  3  2  2  0
  5  4  1  0
  6  7  1  6
  6  5  1  0
  8  6  1  0
  9  8  2  0
 10  8  1  0
 11 10  1  0
 11 22  1  0
 11 12  1  1
 13 21  1  0
 13 12  1  0
 14 13  2  0
 15 14  1  0
 15 16  1  0
 16 21  2  0
 17 16  1  0
 17 18  2  0
 18 19  1  0
 19 20  2  0
 21 20  1  0
 22 24  1  0
 23 22  2  0
 24 25  1  0
 25 26  1  1
 25 36  1  0
 27 35  1  0
 27 26  1  0
 28 27  2  0
 29 28  1  0
 29 30  1  0
 30 35  2  0
 31 30  1  0
 31 32  2  0
 32 33  1  0
 33 34  2  0
 35 34  1  0
 36 38  1  0
 37 36  2  0
M  END
$$$$
