QWW.pdb
     RDKit          3D

 38 41  0  0  1  0  0  0  0  0999 V2000
   11.6419  -16.5260   16.0822 N   0  0  0  0  0  0  0  0  0  0  0  0
   11.5592  -17.9280   16.3352 C   0  0  0  0  0  0  0  0  0  0  0  0
   11.5762  -18.6805   15.3418 O   0  0  0  0  0  0  0  0  0  0  0  0
   11.4633  -18.3831   17.7273 C   0  0  0  0  0  0  0  0  0  0  0  0
   11.4444  -17.2756   18.7493 C   0  0  0  0  0  0  0  0  0  0  0  0
   11.3673  -17.8404   20.1431 C   0  0  2  0  0  0  0  0  0  0  0  0
   10.6081  -19.0783   20.1350 N   0  0  0  0  0  0  0  0  0  0  0  0
   10.8626  -16.8707   21.1273 C   0  0  0  0  0  0  0  0  0  0  0  0
   11.4211  -15.7498   21.2394 O   0  0  0  0  0  0  0  0  0  0  0  0
    9.7570  -17.1074   21.9947 N   0  0  0  0  0  0  0  0  0  0  0  0
    9.2802  -16.1696   22.9862 C   0  0  1  0  0  0  0  0  0  0  0  0
    7.7537  -16.0121   22.9510 C   0  0  0  0  0  0  0  0  0  0  0  0
    7.2412  -15.4188   21.7287 C   0  0  0  0  0  0  0  0  0  0  0  0
    6.3926  -15.9908   20.7998 C   0  0  0  0  0  0  0  0  0  0  0  0
    6.1658  -15.1286   19.7888 N   0  0  0  0  0  0  0  0  0  0  0  0
    6.8435  -14.0040   20.0292 C   0  0  0  0  0  0  0  0  0  0  0  0
    6.9230  -12.8458   19.2992 C   0  0  0  0  0  0  0  0  0  0  0  0
    7.6984  -11.8085   19.7776 C   0  0  0  0  0  0  0  0  0  0  0  0
    8.3756  -11.9232   20.9495 C   0  0  0  0  0  0  0  0  0  0  0  0
    8.2814  -13.0939   21.6636 C   0  0  0  0  0  0  0  0  0  0  0  0
    7.5202  -14.1645   21.2332 C   0  0  0  0  0  0  0  0  0  0  0  0
    9.6540  -16.6198   24.3519 C   0  0  0  0  0  0  0  0  0  0  0  0
    9.1927  -17.7451   24.7848 O   0  0  0  0  0  0  0  0  0  0  0  0
   10.4883  -15.9256   25.2507 N   0  0  0  0  0  0  0  0  0  0  0  0
   10.4655  -16.2485   26.6926 C   0  0  1  0  0  0  0  0  0  0  0  0
    9.0406  -16.7327   26.9462 C   0  0  0  0  0  0  0  0  0  0  0  0
    8.0194  -15.7315   26.6370 C   0  0  0  0  0  0  0  0  0  0  0  0
    6.8148  -15.8298   26.0112 C   0  0  0  0  0  0  0  0  0  0  0  0
    6.2445  -14.6029   25.9838 N   0  0  0  0  0  0  0  0  0  0  0  0
    7.0460  -13.6982   26.5777 C   0  0  0  0  0  0  0  0  0  0  0  0
    6.8958  -12.3371   26.7960 C   0  0  0  0  0  0  0  0  0  0  0  0
    7.9048  -11.6783   27.4481 C   0  0  0  0  0  0  0  0  0  0  0  0
    9.0252  -12.3534   27.8677 C   0  0  0  0  0  0  0  0  0  0  0  0
    9.1748  -13.7059   27.6508 C   0  0  0  0  0  0  0  0  0  0  0  0
    8.1627  -14.3917   26.9919 C   0  0  0  0  0  0  0  0  0  0  0  0
   11.3676  -17.3986   26.8923 C   0  0  0  0  0  0  0  0  0  0  0  0
   11.6030  -17.9305   28.0168 O   0  0  0  0  0  0  0  0  0  0  0  0
   12.0435  -17.9980   25.8197 O   0  0  0  0  0  0  0  0  0  0  0  0
  2  1  1  0
  2  4  1  0
  3  2  2  0
  5  4  1  0
  6  7  1  6
  6  5  1  0
  8  6  1  0
  9  8  2  0
 10  8  1  0
 11 10  1  0
 11 22  1  0
 11 12  1  1
 13 21  1  0
 13 12  1  0
 14 13  2  0
 15 14  1  0
 15 16  1  0
 16 21  2  0
 17 16  1  0
 17 18  2  0
 18 19  1  0
 19 20  2  0
 21 20  1  0
 22 24  1  0
 23 22  2  0
 24 25  1  0
 25 26  1  6
 25 36  1  0
 27 35  1  0
 27 26  1  0
 28 27  2  0
 29 28  1  0
 29 30  1  0
 30 35  2  0
 31 30  1  0
 31 32  2  0
 32 33  1  0
 33 34  2  0
 35 34  1  0
 36 38  1  0
 37 36  2  0
M  END
$$$$
