QWW.pdb
     RDKit          3D

 38 41  0  0  1  0  0  0  0  0999 V2000
    8.3562  -13.2242   15.4157 N   0  0  0  0  0  0  0  0  0  0  0  0
    7.4179  -14.2973   15.3474 C   0  0  0  0  0  0  0  0  0  0  0  0
    6.5787  -14.2526   14.4270 O   0  0  0  0  0  0  0  0  0  0  0  0
    7.5040  -15.3664   16.3492 C   0  0  0  0  0  0  0  0  0  0  0  0
    8.5318  -15.1349   17.4269 C   0  0  0  0  0  0  0  0  0  0  0  0
    8.4999  -16.2489   18.4395 C   0  0  2  0  0  0  0  0  0  0  0  0
    7.1259  -16.5549   18.7966 N   0  0  0  0  0  0  0  0  0  0  0  0
    9.3459  -15.9815   19.6127 C   0  0  0  0  0  0  0  0  0  0  0  0
   10.5462  -15.6443   19.4505 O   0  0  0  0  0  0  0  0  0  0  0  0
    8.9014  -16.0795   20.9632 N   0  0  0  0  0  0  0  0  0  0  0  0
    9.7496  -15.8923   22.1187 C   0  0  1  0  0  0  0  0  0  0  0  0
    9.2961  -14.7110   22.9877 C   0  0  0  0  0  0  0  0  0  0  0  0
    8.1839  -15.0109   23.8721 C   0  0  0  0  0  0  0  0  0  0  0  0
    7.6248  -16.2456   24.1421 C   0  0  0  0  0  0  0  0  0  0  0  0
    6.5927  -16.1079   24.9983 N   0  0  0  0  0  0  0  0  0  0  0  0
    6.4590  -14.8141   25.2982 C   0  0  0  0  0  0  0  0  0  0  0  0
    5.5633  -14.1855   26.1248 C   0  0  0  0  0  0  0  0  0  0  0  0
    5.6422  -12.8152   26.2740 C   0  0  0  0  0  0  0  0  0  0  0  0
    6.5865  -12.0927   25.6172 C   0  0  0  0  0  0  0  0  0  0  0  0
    7.4731  -12.7444   24.7934 C   0  0  0  0  0  0  0  0  0  0  0  0
    7.4410  -14.1136   24.6066 C   0  0  0  0  0  0  0  0  0  0  0  0
    9.7421  -17.1076   22.9734 C   0  0  0  0  0  0  0  0  0  0  0  0
    8.6100  -17.5762   23.3799 O   0  0  0  0  0  0  0  0  0  0  0  0
   10.8780  -17.8261   23.3971 N   0  0  0  0  0  0  0  0  0  0  0  0
   11.3341  -17.7426   24.8003 C   0  0  1  0  0  0  0  0  0  0  0  0
   10.5167  -16.5983   25.3931 C   0  0  0  0  0  0  0  0  0  0  0  0
   10.5402  -16.5597   26.8556 C   0  0  0  0  0  0  0  0  0  0  0  0
   10.4092  -17.5408   27.7897 C   0  0  0  0  0  0  0  0  0  0  0  0
   10.5135  -16.9809   29.0172 N   0  0  0  0  0  0  0  0  0  0  0  0
   10.7106  -15.6527   28.9132 C   0  0  0  0  0  0  0  0  0  0  0  0
   10.8796  -14.6683   29.8750 C   0  0  0  0  0  0  0  0  0  0  0  0
   11.0703  -13.3809   29.4466 C   0  0  0  0  0  0  0  0  0  0  0  0
   11.0915  -13.0852   28.1052 C   0  0  0  0  0  0  0  0  0  0  0  0
   10.9235  -14.0632   27.1493 C   0  0  0  0  0  0  0  0  0  0  0  0
   10.7293  -15.3745   27.5634 C   0  0  0  0  0  0  0  0  0  0  0  0
   10.9068  -18.9864   25.4685 C   0  0  0  0  0  0  0  0  0  0  0  0
    9.8174  -19.5847   25.2276 O   0  0  0  0  0  0  0  0  0  0  0  0
   11.7014  -19.6084   26.4423 O   0  0  0  0  0  0  0  0  0  0  0  0
  2  1  1  0
  2  4  1  0
  3  2  2  0
  5  4  1  0
  6  7  1  1
  6  5  1  0
  8  6  1  0
  9  8  2  0
 10  8  1  0
 11 10  1  0
 11 22  1  0
 11 12  1  1
 13 21  1  0
 13 12  1  0
 14 13  2  0
 15 14  1  0
 15 16  1  0
 16 21  2  0
 17 16  1  0
 17 18  2  0
 18 19  1  0
 19 20  2  0
 21 20  1  0
 22 24  1  0
 23 22  2  0
 24 25  1  0
 25 26  1  1
 25 36  1  0
 27 35  1  0
 27 26  1  0
 28 27  2  0
 29 28  1  0
 29 30  1  0
 30 35  2  0
 31 30  1  0
 31 32  2  0
 32 33  1  0
 33 34  2  0
 35 34  1  0
 36 38  1  0
 37 36  2  0
M  END
$$$$
