WQE.pdb
     RDKit          3D

 33 34  0  0  1  0  0  0  0  0999 V2000
    6.7042  -17.8567   24.4056 N   0  0  0  0  0  0  0  0  0  0  0  0
    7.0817  -16.5707   23.8561 C   0  0  1  0  0  0  0  0  0  0  0  0
    7.9789  -15.7985   24.7937 C   0  0  0  0  0  0  0  0  0  0  0  0
    7.2186  -14.9931   25.7726 C   0  0  0  0  0  0  0  0  0  0  0  0
    6.5634  -15.4647   26.8854 C   0  0  0  0  0  0  0  0  0  0  0  0
    5.9948  -14.4069   27.5115 N   0  0  0  0  0  0  0  0  0  0  0  0
    6.2462  -13.2680   26.8625 C   0  0  0  0  0  0  0  0  0  0  0  0
    5.9059  -11.9551   27.0801 C   0  0  0  0  0  0  0  0  0  0  0  0
    6.3182  -10.9507   26.2163 C   0  0  0  0  0  0  0  0  0  0  0  0
    7.0815  -11.3179   25.1321 C   0  0  0  0  0  0  0  0  0  0  0  0
    7.4230  -12.6419   24.9155 C   0  0  0  0  0  0  0  0  0  0  0  0
    7.0225  -13.6331   25.7581 C   0  0  0  0  0  0  0  0  0  0  0  0
    7.9026  -16.8565   22.6327 C   0  0  0  0  0  0  0  0  0  0  0  0
    8.0754  -18.0421   22.2298 O   0  0  0  0  0  0  0  0  0  0  0  0
    6.6472  -13.9314   17.9710 N   0  0  0  0  0  0  0  0  0  0  0  0
    7.8091  -13.2877   18.5415 C   0  0  0  0  0  0  0  0  0  0  0  0
    8.1559  -12.2416   17.9888 O   0  0  0  0  0  0  0  0  0  0  0  0
    8.4330  -13.9437   19.6949 C   0  0  0  0  0  0  0  0  0  0  0  0
    8.9498  -15.3119   19.5242 C   0  0  0  0  0  0  0  0  0  0  0  0
    9.3795  -16.0650   20.7296 C   0  0  2  0  0  0  0  0  0  0  0  0
    8.5211  -15.8314   21.8709 N   0  0  0  0  0  0  0  0  0  0  0  0
   10.8173  -16.0886   21.0313 C   0  0  0  0  0  0  0  0  0  0  0  0
   11.6067  -16.1375   20.0384 O   0  0  0  0  0  0  0  0  0  0  0  0
   11.3732  -16.0618   22.3147 N   0  0  0  0  0  0  0  0  0  0  0  0
   12.8133  -16.1572   22.5918 C   0  0  1  0  0  0  0  0  0  0  0  0
   13.0698  -16.2559   24.0474 C   0  0  0  0  0  0  0  0  0  0  0  0
   12.6960  -17.5979   24.5935 C   0  0  0  0  0  0  0  0  0  0  0  0
   12.9490  -17.7776   26.0325 C   0  0  0  0  0  0  0  0  0  0  0  0
   13.4805  -16.9389   26.7941 O   0  0  0  0  0  0  0  0  0  0  0  0
   13.2851  -17.3741   21.8984 C   0  0  0  0  0  0  0  0  0  0  0  0
   14.5324  -17.5231   21.6985 O   0  0  0  0  0  0  0  0  0  0  0  0
   12.5729  -18.9900   26.6442 O   0  0  0  0  0  0  0  0  0  0  0  0
   12.4104  -18.3525   21.4653 O   0  0  0  0  0  0  0  0  0  0  0  0
  2  1  1  1
  3  2  1  0
  4  3  1  0
  4  5  2  0
  6  5  1  0
  7 12  2  0
  7  6  1  0
  8  7  1  0
  9 10  1  0
  9  8  2  0
 10 11  2  0
 11 12  1  0
 12  4  1  0
 13 14  2  0
 13  2  1  0
 15 16  1  0
 16 17  2  0
 18 19  1  0
 18 16  1  0
 20 19  1  6
 20 21  1  0
 21 13  1  0
 22 20  1  0
 23 22  2  0
 24 22  1  0
 25 26  1  1
 25 24  1  0
 26 27  1  0
 27 28  1  0
 28 29  2  0
 28 32  1  0
 30 25  1  0
 31 30  2  0
 33 30  1  0
M  END
$$$$
