WQE.pdb
     RDKit          3D

 33 34  0  0  1  0  0  0  0  0999 V2000
    6.8363  -17.0105   25.0732 N   0  0  0  0  0  0  0  0  0  0  0  0
    7.3366  -15.8086   24.4379 C   0  0  1  0  0  0  0  0  0  0  0  0
    8.6122  -15.3198   25.0814 C   0  0  0  0  0  0  0  0  0  0  0  0
    8.3616  -14.4491   26.2493 C   0  0  0  0  0  0  0  0  0  0  0  0
    8.7202  -14.7054   27.5515 C   0  0  0  0  0  0  0  0  0  0  0  0
    8.3077  -13.6610   28.3087 N   0  0  0  0  0  0  0  0  0  0  0  0
    7.6975  -12.7354   27.5654 C   0  0  0  0  0  0  0  0  0  0  0  0
    7.1155  -11.5233   27.8461 C   0  0  0  0  0  0  0  0  0  0  0  0
    6.5410  -10.7508   26.8469 C   0  0  0  0  0  0  0  0  0  0  0  0
    6.5754  -11.2437   25.5629 C   0  0  0  0  0  0  0  0  0  0  0  0
    7.1627  -12.4657   25.2831 C   0  0  0  0  0  0  0  0  0  0  0  0
    7.7284  -13.2295   26.2575 C   0  0  0  0  0  0  0  0  0  0  0  0
    7.6973  -16.1905   23.0321 C   0  0  0  0  0  0  0  0  0  0  0  0
    7.8692  -17.4014   22.7126 O   0  0  0  0  0  0  0  0  0  0  0  0
    7.4632  -12.3943   17.8521 N   0  0  0  0  0  0  0  0  0  0  0  0
    8.1074  -13.5770   17.3267 C   0  0  0  0  0  0  0  0  0  0  0  0
    8.3659  -13.5442   16.1215 O   0  0  0  0  0  0  0  0  0  0  0  0
    8.3748  -14.6642   18.2734 C   0  0  0  0  0  0  0  0  0  0  0  0
    7.9783  -14.4786   19.6793 C   0  0  0  0  0  0  0  0  0  0  0  0
    8.3116  -15.5438   20.6585 C   0  0  2  0  0  0  0  0  0  0  0  0
    7.8631  -15.2323   21.9986 N   0  0  0  0  0  0  0  0  0  0  0  0
    9.6537  -16.1364   20.5773 C   0  0  0  0  0  0  0  0  0  0  0  0
    9.9227  -16.7947   19.5258 O   0  0  0  0  0  0  0  0  0  0  0  0
   10.6436  -16.0305   21.5600 N   0  0  0  0  0  0  0  0  0  0  0  0
   12.0173  -16.5288   21.4039 C   0  0  1  0  0  0  0  0  0  0  0  0
   12.9699  -15.4112   21.2093 C   0  0  0  0  0  0  0  0  0  0  0  0
   13.2246  -15.1365   19.7607 C   0  0  0  0  0  0  0  0  0  0  0  0
   14.2719  -14.1378   19.4906 C   0  0  0  0  0  0  0  0  0  0  0  0
   15.5061  -14.3408   19.5279 O   0  0  0  0  0  0  0  0  0  0  0  0
   12.3301  -17.2666   22.6456 C   0  0  0  0  0  0  0  0  0  0  0  0
   11.5692  -17.1222   23.6547 O   0  0  0  0  0  0  0  0  0  0  0  0
   13.8900  -12.8233   19.1564 O   0  0  0  0  0  0  0  0  0  0  0  0
   13.4222  -18.1084   22.7386 O   0  0  0  0  0  0  0  0  0  0  0  0
  2  1  1  1
  3  2  1  0
  4  3  1  0
  4  5  2  0
  6  5  1  0
  7 12  2  0
  7  6  1  0
  8  7  1  0
  9 10  1  0
  9  8  2  0
 10 11  2  0
 11 12  1  0
 12  4  1  0
 13 14  2  0
 13  2  1  0
 15 16  1  0
 16 17  2  0
 18 19  1  0
 18 16  1  0
 20 19  1  6
 20 21  1  0
 21 13  1  0
 22 20  1  0
 23 22  2  0
 24 22  1  0
 25 26  1  1
 25 24  1  0
 26 27  1  0
 27 28  1  0
 28 29  2  0
 28 32  1  0
 30 25  1  0
 31 30  2  0
 33 30  1  0
M  END
$$$$
