WQE.pdb
     RDKit          3D

 33 34  0  0  1  0  0  0  0  0999 V2000
    6.6446  -17.9287   24.3823 N   0  0  0  0  0  0  0  0  0  0  0  0
    7.5148  -16.9153   23.8217 C   0  0  1  0  0  0  0  0  0  0  0  0
    8.1375  -16.0518   24.8926 C   0  0  0  0  0  0  0  0  0  0  0  0
    7.1692  -15.1155   25.5016 C   0  0  0  0  0  0  0  0  0  0  0  0
    5.9731  -15.4471   26.0927 C   0  0  0  0  0  0  0  0  0  0  0  0
    5.3907  -14.3021   26.5215 N   0  0  0  0  0  0  0  0  0  0  0  0
    6.1474  -13.2392   26.2396 C   0  0  0  0  0  0  0  0  0  0  0  0
    6.0097  -11.8900   26.4575 C   0  0  0  0  0  0  0  0  0  0  0  0
    6.9821  -10.9902   26.0452 C   0  0  0  0  0  0  0  0  0  0  0  0
    8.0909  -11.4991   25.4092 C   0  0  0  0  0  0  0  0  0  0  0  0
    8.2267  -12.8595   25.1911 C   0  0  0  0  0  0  0  0  0  0  0  0
    7.2775  -13.7487   25.5924 C   0  0  0  0  0  0  0  0  0  0  0  0
    8.6478  -17.6462   23.1627 C   0  0  0  0  0  0  0  0  0  0  0  0
    8.8379  -18.8772   23.3778 O   0  0  0  0  0  0  0  0  0  0  0  0
   11.0505  -17.0192   17.6278 N   0  0  0  0  0  0  0  0  0  0  0  0
   12.2484  -17.5462   18.2418 C   0  0  0  0  0  0  0  0  0  0  0  0
   13.1006  -17.9678   17.4568 O   0  0  0  0  0  0  0  0  0  0  0  0
   12.3112  -17.5198   19.7065 C   0  0  0  0  0  0  0  0  0  0  0  0
   11.1675  -16.9574   20.4440 C   0  0  0  0  0  0  0  0  0  0  0  0
   10.6909  -17.6616   21.6612 C   0  0  2  0  0  0  0  0  0  0  0  0
    9.5548  -17.0098   22.2761 N   0  0  0  0  0  0  0  0  0  0  0  0
   11.7110  -18.1447   22.6019 C   0  0  0  0  0  0  0  0  0  0  0  0
   12.0846  -19.3503   22.4670 O   0  0  0  0  0  0  0  0  0  0  0  0
   12.2930  -17.3845   23.6218 N   0  0  0  0  0  0  0  0  0  0  0  0
   13.2946  -17.9000   24.5657 C   0  0  1  0  0  0  0  0  0  0  0  0
   14.4966  -17.0346   24.5914 C   0  0  0  0  0  0  0  0  0  0  0  0
   15.3669  -17.2470   23.3929 C   0  0  0  0  0  0  0  0  0  0  0  0
   16.2251  -16.1054   23.0358 C   0  0  0  0  0  0  0  0  0  0  0  0
   17.2150  -15.7006   23.6855 O   0  0  0  0  0  0  0  0  0  0  0  0
   12.6397  -17.9174   25.8905 C   0  0  0  0  0  0  0  0  0  0  0  0
   11.4547  -17.4674   25.9964 O   0  0  0  0  0  0  0  0  0  0  0  0
   15.9381  -15.3776   21.8638 O   0  0  0  0  0  0  0  0  0  0  0  0
   13.2775  -18.4103   27.0131 O   0  0  0  0  0  0  0  0  0  0  0  0
  2  1  1  1
  3  2  1  0
  4  3  1  0
  4  5  2  0
  6  5  1  0
  7 12  2  0
  7  6  1  0
  8  7  1  0
  9 10  1  0
  9  8  2  0
 10 11  2  0
 11 12  1  0
 12  4  1  0
 13 14  2  0
 13  2  1  0
 15 16  1  0
 16 17  2  0
 18 19  1  0
 18 16  1  0
 20 19  1  6
 20 21  1  0
 21 13  1  0
 22 20  1  0
 23 22  2  0
 24 22  1  0
 25 26  1  1
 25 24  1  0
 26 27  1  0
 27 28  1  0
 28 29  2  0
 28 32  1  0
 30 25  1  0
 31 30  2  0
 33 30  1  0
M  END
$$$$
