WQE.pdb
     RDKit          3D

 33 34  0  0  1  0  0  0  0  0999 V2000
    5.8526  -17.3386   24.0024 N   0  0  0  0  0  0  0  0  0  0  0  0
    6.7405  -16.2744   23.5812 C   0  0  1  0  0  0  0  0  0  0  0  0
    7.6775  -15.8511   24.6871 C   0  0  0  0  0  0  0  0  0  0  0  0
    7.0193  -14.9867   25.6894 C   0  0  0  0  0  0  0  0  0  0  0  0
    6.1456  -15.3922   26.6703 C   0  0  0  0  0  0  0  0  0  0  0  0
    5.7733  -14.2961   27.3732 N   0  0  0  0  0  0  0  0  0  0  0  0
    6.3606  -13.1949   26.8998 C   0  0  0  0  0  0  0  0  0  0  0  0
    6.3165  -11.8680   27.2521 C   0  0  0  0  0  0  0  0  0  0  0  0
    7.0525  -10.9144   26.5636 C   0  0  0  0  0  0  0  0  0  0  0  0
    7.8293  -11.3467   25.5135 C   0  0  0  0  0  0  0  0  0  0  0  0
    7.8717  -12.6848   25.1609 C   0  0  0  0  0  0  0  0  0  0  0  0
    7.1528  -13.6264   25.8311 C   0  0  0  0  0  0  0  0  0  0  0  0
    7.6053  -16.8476   22.4969 C   0  0  0  0  0  0  0  0  0  0  0  0
    7.1921  -17.7964   21.7710 O   0  0  0  0  0  0  0  0  0  0  0  0
    7.1290  -14.3171   17.5222 N   0  0  0  0  0  0  0  0  0  0  0  0
    8.3700  -13.8977   18.1337 C   0  0  0  0  0  0  0  0  0  0  0  0
    9.1404  -13.2831   17.3928 O   0  0  0  0  0  0  0  0  0  0  0  0
    8.5674  -14.2470   19.5440 C   0  0  0  0  0  0  0  0  0  0  0  0
    8.4794  -15.6652   19.9305 C   0  0  0  0  0  0  0  0  0  0  0  0
    9.4669  -16.1998   20.9019 C   0  0  2  0  0  0  0  0  0  0  0  0
    8.9132  -16.3668   22.2283 N   0  0  0  0  0  0  0  0  0  0  0  0
   10.8223  -15.6338   20.8639 C   0  0  0  0  0  0  0  0  0  0  0  0
   11.1293  -14.9599   19.8329 O   0  0  0  0  0  0  0  0  0  0  0  0
   11.7867  -15.7809   21.8665 N   0  0  0  0  0  0  0  0  0  0  0  0
   12.9883  -16.6173   21.7385 C   0  0  1  0  0  0  0  0  0  0  0  0
   12.7599  -17.9671   22.3045 C   0  0  0  0  0  0  0  0  0  0  0  0
   12.1290  -17.9080   23.6600 C   0  0  0  0  0  0  0  0  0  0  0  0
   12.6071  -18.9215   24.6146 C   0  0  0  0  0  0  0  0  0  0  0  0
   13.7609  -19.4042   24.6554 O   0  0  0  0  0  0  0  0  0  0  0  0
   13.2764  -16.7037   20.2916 C   0  0  0  0  0  0  0  0  0  0  0  0
   12.5577  -17.4619   19.5659 O   0  0  0  0  0  0  0  0  0  0  0  0
   11.7145  -19.4177   25.5855 O   0  0  0  0  0  0  0  0  0  0  0  0
   14.3007  -15.9831   19.7073 O   0  0  0  0  0  0  0  0  0  0  0  0
  2  1  1  1
  3  2  1  0
  4  3  1  0
  4  5  2  0
  6  5  1  0
  7 12  2  0
  7  6  1  0
  8  7  1  0
  9 10  1  0
  9  8  2  0
 10 11  2  0
 11 12  1  0
 12  4  1  0
 13 14  2  0
 13  2  1  0
 15 16  1  0
 16 17  2  0
 18 19  1  0
 18 16  1  0
 20 19  1  6
 20 21  1  0
 21 13  1  0
 22 20  1  0
 23 22  2  0
 24 22  1  0
 25 26  1  6
 25 24  1  0
 26 27  1  0
 27 28  1  0
 28 29  2  0
 28 32  1  0
 30 25  1  0
 31 30  2  0
 33 30  1  0
M  END
$$$$
