WQE.pdb
     RDKit          3D

 33 34  0  0  1  0  0  0  0  0999 V2000
    6.6566  -17.4900   23.5649 N   0  0  0  0  0  0  0  0  0  0  0  0
    7.8485  -16.6669   23.5537 C   0  0  1  0  0  0  0  0  0  0  0  0
    8.2597  -16.2510   24.9459 C   0  0  0  0  0  0  0  0  0  0  0  0
    7.2568  -15.3833   25.5989 C   0  0  0  0  0  0  0  0  0  0  0  0
    6.0740  -15.7886   26.1705 C   0  0  0  0  0  0  0  0  0  0  0  0
    5.4490  -14.6890   26.6546 N   0  0  0  0  0  0  0  0  0  0  0  0
    6.1651  -13.5857   26.4273 C   0  0  0  0  0  0  0  0  0  0  0  0
    5.9768  -12.2552   26.7117 C   0  0  0  0  0  0  0  0  0  0  0  0
    6.9146  -11.3001   26.3465 C   0  0  0  0  0  0  0  0  0  0  0  0
    8.0417  -11.7347   25.6880 C   0  0  0  0  0  0  0  0  0  0  0  0
    8.2287  -13.0765   25.4028 C   0  0  0  0  0  0  0  0  0  0  0  0
    7.3136  -14.0196   25.7577 C   0  0  0  0  0  0  0  0  0  0  0  0
    8.9573  -17.5329   23.0315 C   0  0  0  0  0  0  0  0  0  0  0  0
    9.5273  -18.3779   23.7790 O   0  0  0  0  0  0  0  0  0  0  0  0
    8.8361  -15.8556   17.9498 N   0  0  0  0  0  0  0  0  0  0  0  0
    7.9105  -15.5093   19.0049 C   0  0  0  0  0  0  0  0  0  0  0  0
    6.7249  -15.4604   18.6699 O   0  0  0  0  0  0  0  0  0  0  0  0
    8.4798  -15.2589   20.3327 C   0  0  0  0  0  0  0  0  0  0  0  0
    9.9368  -15.3867   20.5027 C   0  0  0  0  0  0  0  0  0  0  0  0
   10.4662  -16.5619   21.2399 C   0  0  2  0  0  0  0  0  0  0  0  0
    9.4218  -17.4552   21.6928 N   0  0  0  0  0  0  0  0  0  0  0  0
   11.5376  -16.3176   22.2152 C   0  0  0  0  0  0  0  0  0  0  0  0
   12.3820  -15.4170   21.9198 O   0  0  0  0  0  0  0  0  0  0  0  0
   11.6941  -16.9954   23.4289 N   0  0  0  0  0  0  0  0  0  0  0  0
   12.8717  -16.8677   24.2988 C   0  0  1  0  0  0  0  0  0  0  0  0
   12.5678  -17.3217   25.6757 C   0  0  0  0  0  0  0  0  0  0  0  0
   12.0048  -16.2208   26.5183 C   0  0  0  0  0  0  0  0  0  0  0  0
   11.7350  -16.5839   27.9192 C   0  0  0  0  0  0  0  0  0  0  0  0
   12.0902  -17.6425   28.4840 O   0  0  0  0  0  0  0  0  0  0  0  0
   13.9225  -17.7130   23.6943 C   0  0  0  0  0  0  0  0  0  0  0  0
   13.6069  -18.5048   22.7501 O   0  0  0  0  0  0  0  0  0  0  0  0
   11.0145  -15.6841   28.7297 O   0  0  0  0  0  0  0  0  0  0  0  0
   15.2350  -17.6644   24.1242 O   0  0  0  0  0  0  0  0  0  0  0  0
  2  1  1  1
  3  2  1  0
  4  3  1  0
  4  5  2  0
  6  5  1  0
  7 12  2  0
  7  6  1  0
  8  7  1  0
  9 10  1  0
  9  8  2  0
 10 11  2  0
 11 12  1  0
 12  4  1  0
 13 14  2  0
 13  2  1  0
 15 16  1  0
 16 17  2  0
 18 19  1  0
 18 16  1  0
 20 19  1  1
 20 21  1  0
 21 13  1  0
 22 20  1  0
 23 22  2  0
 24 22  1  0
 25 26  1  1
 25 24  1  0
 26 27  1  0
 27 28  1  0
 28 29  2  0
 28 32  1  0
 30 25  1  0
 31 30  2  0
 33 30  1  0
M  END
$$$$
