WQE.pdb
     RDKit          3D

 33 34  0  0  1  0  0  0  0  0999 V2000
    6.8105  -18.0442   24.9298 N   0  0  0  0  0  0  0  0  0  0  0  0
    6.9435  -16.7254   24.3454 C   0  0  1  0  0  0  0  0  0  0  0  0
    7.8129  -15.8212   25.1863 C   0  0  0  0  0  0  0  0  0  0  0  0
    7.0262  -14.8484   25.9735 C   0  0  0  0  0  0  0  0  0  0  0  0
    6.1380  -15.1408   26.9812 C   0  0  0  0  0  0  0  0  0  0  0  0
    5.6320  -13.9714   27.4404 N   0  0  0  0  0  0  0  0  0  0  0  0
    6.1459  -12.9300   26.7824 C   0  0  0  0  0  0  0  0  0  0  0  0
    5.9657  -11.5708   26.8651 C   0  0  0  0  0  0  0  0  0  0  0  0
    6.6525  -10.7004   26.0309 C   0  0  0  0  0  0  0  0  0  0  0  0
    7.5218  -11.2490   25.1165 C   0  0  0  0  0  0  0  0  0  0  0  0
    7.7013  -12.6193   25.0355 C   0  0  0  0  0  0  0  0  0  0  0  0
    7.0315  -13.4798   25.8501 C   0  0  0  0  0  0  0  0  0  0  0  0
    7.6675  -16.9091   23.0437 C   0  0  0  0  0  0  0  0  0  0  0  0
    8.5639  -17.7916   22.9189 O   0  0  0  0  0  0  0  0  0  0  0  0
    6.9959  -12.8621   18.0609 N   0  0  0  0  0  0  0  0  0  0  0  0
    8.1801  -13.6046   17.6917 C   0  0  0  0  0  0  0  0  0  0  0  0
    8.6624  -13.3148   16.5946 O   0  0  0  0  0  0  0  0  0  0  0  0
    8.6642  -14.6030   18.6502 C   0  0  0  0  0  0  0  0  0  0  0  0
    7.8228  -14.9149   19.8177 C   0  0  0  0  0  0  0  0  0  0  0  0
    8.3310  -15.8837   20.8217 C   0  0  2  0  0  0  0  0  0  0  0  0
    7.3929  -16.1177   21.8983 N   0  0  0  0  0  0  0  0  0  0  0  0
    9.7323  -15.7453   21.2411 C   0  0  0  0  0  0  0  0  0  0  0  0
   10.0533  -14.6532   21.8029 O   0  0  0  0  0  0  0  0  0  0  0  0
   10.7258  -16.7149   21.0691 N   0  0  0  0  0  0  0  0  0  0  0  0
   12.1219  -16.5504   21.4978 C   0  0  1  0  0  0  0  0  0  0  0  0
   12.4559  -17.4884   22.5945 C   0  0  0  0  0  0  0  0  0  0  0  0
   12.3246  -18.9173   22.1706 C   0  0  0  0  0  0  0  0  0  0  0  0
   12.7289  -19.9072   23.1824 C   0  0  0  0  0  0  0  0  0  0  0  0
   13.2506  -19.6519   24.2908 O   0  0  0  0  0  0  0  0  0  0  0  0
   12.9525  -16.8278   20.3072 C   0  0  0  0  0  0  0  0  0  0  0  0
   14.1930  -16.5491   20.3447 O   0  0  0  0  0  0  0  0  0  0  0  0
   12.5266  -21.2759   22.9155 O   0  0  0  0  0  0  0  0  0  0  0  0
   12.4196  -17.3826   19.1591 O   0  0  0  0  0  0  0  0  0  0  0  0
  2  1  1  1
  3  2  1  0
  4  3  1  0
  4  5  2  0
  6  5  1  0
  7 12  2  0
  7  6  1  0
  8  7  1  0
  9 10  1  0
  9  8  2  0
 10 11  2  0
 11 12  1  0
 12  4  1  0
 13 14  2  0
 13  2  1  0
 15 16  1  0
 16 17  2  0
 18 19  1  0
 18 16  1  0
 20 19  1  1
 20 21  1  0
 21 13  1  0
 22 20  1  0
 23 22  2  0
 24 22  1  0
 25 26  1  1
 25 24  1  0
 26 27  1  0
 27 28  1  0
 28 29  2  0
 28 32  1  0
 30 25  1  0
 31 30  2  0
 33 30  1  0
M  END
$$$$
