WQE.pdb
     RDKit          3D

 33 34  0  0  1  0  0  0  0  0999 V2000
    6.2239  -18.0273   23.6224 N   0  0  0  0  0  0  0  0  0  0  0  0
    6.7535  -16.6836   23.5115 C   0  0  1  0  0  0  0  0  0  0  0  0
    7.5796  -16.3019   24.7165 C   0  0  0  0  0  0  0  0  0  0  0  0
    6.9248  -15.2724   25.5510 C   0  0  0  0  0  0  0  0  0  0  0  0
    5.8832  -15.4710   26.4260 C   0  0  0  0  0  0  0  0  0  0  0  0
    5.5803  -14.2767   26.9883 N   0  0  0  0  0  0  0  0  0  0  0  0
    6.3726  -13.3081   26.5238 C   0  0  0  0  0  0  0  0  0  0  0  0
    6.4697  -11.9601   26.7693 C   0  0  0  0  0  0  0  0  0  0  0  0
    7.4150  -11.1760   26.1239 C   0  0  0  0  0  0  0  0  0  0  0  0
    8.2529  -11.7985   25.2277 C   0  0  0  0  0  0  0  0  0  0  0  0
    8.1527  -13.1573   24.9823 C   0  0  0  0  0  0  0  0  0  0  0  0
    7.2281  -13.9335   25.6112 C   0  0  0  0  0  0  0  0  0  0  0  0
    7.6968  -16.6943   22.3443 C   0  0  0  0  0  0  0  0  0  0  0  0
    8.2349  -17.7698   21.9550 O   0  0  0  0  0  0  0  0  0  0  0  0
    8.2707  -12.2661   17.7788 N   0  0  0  0  0  0  0  0  0  0  0  0
    7.9815  -13.6078   17.3247 C   0  0  0  0  0  0  0  0  0  0  0  0
    7.5029  -13.6882   16.1913 O   0  0  0  0  0  0  0  0  0  0  0  0
    8.2855  -14.7030   18.2511 C   0  0  0  0  0  0  0  0  0  0  0  0
    8.7641  -14.3622   19.6013 C   0  0  0  0  0  0  0  0  0  0  0  0
    9.0182  -15.4635   20.5643 C   0  0  2  0  0  0  0  0  0  0  0  0
    8.0333  -15.5195   21.6230 N   0  0  0  0  0  0  0  0  0  0  0  0
   10.4064  -15.6703   20.9990 C   0  0  0  0  0  0  0  0  0  0  0  0
   11.3133  -15.4183   20.1473 O   0  0  0  0  0  0  0  0  0  0  0  0
   10.7974  -16.1186   22.2651 N   0  0  0  0  0  0  0  0  0  0  0  0
   12.1929  -16.1882   22.7206 C   0  0  1  0  0  0  0  0  0  0  0  0
   12.2653  -16.3454   24.1918 C   0  0  0  0  0  0  0  0  0  0  0  0
   11.8737  -17.7217   24.6293 C   0  0  0  0  0  0  0  0  0  0  0  0
   11.9775  -17.9687   26.0768 C   0  0  0  0  0  0  0  0  0  0  0  0
   11.9344  -19.0878   26.6349 O   0  0  0  0  0  0  0  0  0  0  0  0
   12.7877  -17.3599   22.0442 C   0  0  0  0  0  0  0  0  0  0  0  0
   12.0185  -18.1930   21.4678 O   0  0  0  0  0  0  0  0  0  0  0  0
   12.1410  -16.8711   26.9453 O   0  0  0  0  0  0  0  0  0  0  0  0
   14.1531  -17.5724   22.0189 O   0  0  0  0  0  0  0  0  0  0  0  0
  2  1  1  1
  3  2  1  0
  4  3  1  0
  4  5  2  0
  6  5  1  0
  7 12  2  0
  7  6  1  0
  8  7  1  0
  9 10  1  0
  9  8  2  0
 10 11  2  0
 11 12  1  0
 12  4  1  0
 13 14  2  0
 13  2  1  0
 15 16  1  0
 16 17  2  0
 18 19  1  0
 18 16  1  0
 20 19  1  1
 20 21  1  0
 21 13  1  0
 22 20  1  0
 23 22  2  0
 24 22  1  0
 25 26  1  1
 25 24  1  0
 26 27  1  0
 27 28  1  0
 28 29  2  0
 28 32  1  0
 30 25  1  0
 31 30  2  0
 33 30  1  0
M  END
$$$$
