WQE.pdb
     RDKit          3D

 33 34  0  0  1  0  0  0  0  0999 V2000
    6.2922  -16.0492   22.9152 N   0  0  0  0  0  0  0  0  0  0  0  0
    7.6753  -15.6297   23.0124 C   0  0  1  0  0  0  0  0  0  0  0  0
    8.2451  -15.8807   24.3881 C   0  0  0  0  0  0  0  0  0  0  0  0
    7.5672  -15.0894   25.4366 C   0  0  0  0  0  0  0  0  0  0  0  0
    6.6814  -15.5646   26.3743 C   0  0  0  0  0  0  0  0  0  0  0  0
    6.2924  -14.5205   27.1442 N   0  0  0  0  0  0  0  0  0  0  0  0
    6.8805  -13.3870   26.7556 C   0  0  0  0  0  0  0  0  0  0  0  0
    6.8236  -12.0873   27.1964 C   0  0  0  0  0  0  0  0  0  0  0  0
    7.5643  -11.0857   26.5853 C   0  0  0  0  0  0  0  0  0  0  0  0
    8.3590  -11.4422   25.5203 C   0  0  0  0  0  0  0  0  0  0  0  0
    8.4142  -12.7530   25.0784 C   0  0  0  0  0  0  0  0  0  0  0  0
    7.6908  -13.7413   25.6723 C   0  0  0  0  0  0  0  0  0  0  0  0
    8.4512  -16.5052   22.0724 C   0  0  0  0  0  0  0  0  0  0  0  0
    8.6767  -17.7173   22.3517 O   0  0  0  0  0  0  0  0  0  0  0  0
    7.2293  -15.0698   17.2204 N   0  0  0  0  0  0  0  0  0  0  0  0
    8.5535  -14.4923   17.2730 C   0  0  0  0  0  0  0  0  0  0  0  0
    8.6476  -13.3493   16.8203 O   0  0  0  0  0  0  0  0  0  0  0  0
    9.6173  -15.3204   17.8496 C   0  0  0  0  0  0  0  0  0  0  0  0
    9.2433  -16.5980   18.4792 C   0  0  0  0  0  0  0  0  0  0  0  0
    9.6721  -16.8537   19.8775 C   0  0  2  0  0  0  0  0  0  0  0  0
    8.9674  -16.0322   20.8380 N   0  0  0  0  0  0  0  0  0  0  0  0
   11.1137  -16.9953   20.1240 C   0  0  0  0  0  0  0  0  0  0  0  0
   11.7480  -17.7823   19.3562 O   0  0  0  0  0  0  0  0  0  0  0  0
   11.8292  -16.3361   21.1292 N   0  0  0  0  0  0  0  0  0  0  0  0
   13.2633  -16.5315   21.3841 C   0  0  1  0  0  0  0  0  0  0  0  0
   14.0612  -15.4207   20.8150 C   0  0  0  0  0  0  0  0  0  0  0  0
   14.1523  -15.5017   19.3237 C   0  0  0  0  0  0  0  0  0  0  0  0
   15.1221  -14.5814   18.7077 C   0  0  0  0  0  0  0  0  0  0  0  0
   15.4586  -13.4626   19.1560 O   0  0  0  0  0  0  0  0  0  0  0  0
   13.4163  -16.5801   22.8533 C   0  0  0  0  0  0  0  0  0  0  0  0
   12.4089  -16.3205   23.5852 O   0  0  0  0  0  0  0  0  0  0  0  0
   15.7496  -14.9586   17.5037 O   0  0  0  0  0  0  0  0  0  0  0  0
   14.6201  -16.9015   23.4512 O   0  0  0  0  0  0  0  0  0  0  0  0
  2  1  1  1
  3  2  1  0
  4  3  1  0
  4  5  2  0
  6  5  1  0
  7 12  2  0
  7  6  1  0
  8  7  1  0
  9 10  1  0
  9  8  2  0
 10 11  2  0
 11 12  1  0
 12  4  1  0
 13 14  2  0
 13  2  1  0
 15 16  1  0
 16 17  2  0
 18 19  1  0
 18 16  1  0
 20 19  1  6
 20 21  1  0
 21 13  1  0
 22 20  1  0
 23 22  2  0
 24 22  1  0
 25 26  1  1
 25 24  1  0
 26 27  1  0
 27 28  1  0
 28 29  2  0
 28 32  1  0
 30 25  1  0
 31 30  2  0
 33 30  1  0
M  END
$$$$
