WQE.pdb
     RDKit          3D

 33 34  0  0  1  0  0  0  0  0999 V2000
    6.8378  -17.9782   24.6067 N   0  0  0  0  0  0  0  0  0  0  0  0
    6.9708  -16.6140   24.1381 C   0  0  1  0  0  0  0  0  0  0  0  0
    8.1038  -15.8898   24.8253 C   0  0  0  0  0  0  0  0  0  0  0  0
    7.6371  -15.0182   25.9242 C   0  0  0  0  0  0  0  0  0  0  0  0
    7.2438  -15.4234   27.1776 C   0  0  0  0  0  0  0  0  0  0  0  0
    6.8911  -14.3197   27.8787 N   0  0  0  0  0  0  0  0  0  0  0  0
    7.0345  -13.2138   27.1451 C   0  0  0  0  0  0  0  0  0  0  0  0
    6.8181  -11.8790   27.3859 C   0  0  0  0  0  0  0  0  0  0  0  0
    7.0601  -10.9219   26.4109 C   0  0  0  0  0  0  0  0  0  0  0  0
    7.5254  -11.3592   25.1922 C   0  0  0  0  0  0  0  0  0  0  0  0
    7.7425  -12.7053   24.9525 C   0  0  0  0  0  0  0  0  0  0  0  0
    7.5076  -13.6503   25.9036 C   0  0  0  0  0  0  0  0  0  0  0  0
    7.3472  -16.6983   22.6878 C   0  0  0  0  0  0  0  0  0  0  0  0
    7.8684  -17.7474   22.2128 O   0  0  0  0  0  0  0  0  0  0  0  0
    9.4924  -13.8969   17.1926 N   0  0  0  0  0  0  0  0  0  0  0  0
    8.2321  -13.4013   17.6982 C   0  0  0  0  0  0  0  0  0  0  0  0
    8.0971  -12.1761   17.6657 O   0  0  0  0  0  0  0  0  0  0  0  0
    7.2733  -14.3979   18.1854 C   0  0  0  0  0  0  0  0  0  0  0  0
    7.0187  -14.4716   19.6338 C   0  0  0  0  0  0  0  0  0  0  0  0
    7.5143  -15.6536   20.3834 C   0  0  2  0  0  0  0  0  0  0  0  0
    7.1436  -15.6252   21.7819 N   0  0  0  0  0  0  0  0  0  0  0  0
    8.8918  -16.0901   20.1172 C   0  0  0  0  0  0  0  0  0  0  0  0
    9.0493  -16.9460   19.1931 O   0  0  0  0  0  0  0  0  0  0  0  0
   10.0274  -15.6384   20.7979 N   0  0  0  0  0  0  0  0  0  0  0  0
   11.3976  -16.0766   20.4975 C   0  0  1  0  0  0  0  0  0  0  0  0
   12.2483  -14.9302   20.1021 C   0  0  0  0  0  0  0  0  0  0  0  0
   13.6913  -15.3118   19.9973 C   0  0  0  0  0  0  0  0  0  0  0  0
   14.5753  -14.2649   19.4590 C   0  0  0  0  0  0  0  0  0  0  0  0
   15.8122  -14.1889   19.6323 O   0  0  0  0  0  0  0  0  0  0  0  0
   11.9102  -16.6998   21.7357 C   0  0  0  0  0  0  0  0  0  0  0  0
   12.4585  -17.8454   21.6658 O   0  0  0  0  0  0  0  0  0  0  0  0
   14.0153  -13.2382   18.6729 O   0  0  0  0  0  0  0  0  0  0  0  0
   11.8123  -16.0720   22.9630 O   0  0  0  0  0  0  0  0  0  0  0  0
  2  1  1  1
  3  2  1  0
  4  3  1  0
  4  5  2  0
  6  5  1  0
  7 12  2  0
  7  6  1  0
  8  7  1  0
  9 10  1  0
  9  8  2  0
 10 11  2  0
 11 12  1  0
 12  4  1  0
 13 14  2  0
 13  2  1  0
 15 16  1  0
 16 17  2  0
 18 19  1  0
 18 16  1  0
 20 19  1  1
 20 21  1  0
 21 13  1  0
 22 20  1  0
 23 22  2  0
 24 22  1  0
 25 26  1  1
 25 24  1  0
 26 27  1  0
 27 28  1  0
 28 29  2  0
 28 32  1  0
 30 25  1  0
 31 30  2  0
 33 30  1  0
M  END
$$$$
