SQG.pdb
     RDKit          3D

 20 19  0  0  1  0  0  0  0  0999 V2000
    8.9109  -21.1028   20.3110 O   0  0  0  0  0  0  0  0  0  0  0  0
    7.9783  -20.5511   19.4276 C   0  0  0  0  0  0  0  0  0  0  0  0
    8.7153  -19.5502   18.5770 C   0  0  2  0  0  0  0  0  0  0  0  0
    9.7058  -20.2131   17.7968 N   0  0  0  0  0  0  0  0  0  0  0  0
    9.3218  -18.4577   19.3770 C   0  0  0  0  0  0  0  0  0  0  0  0
   10.5329  -18.4633   19.7053 O   0  0  0  0  0  0  0  0  0  0  0  0
    6.5428  -12.7387   19.7210 N   0  0  0  0  0  0  0  0  0  0  0  0
    7.7230  -12.5726   20.4952 C   0  0  0  0  0  0  0  0  0  0  0  0
    8.0508  -11.4391   20.8954 O   0  0  0  0  0  0  0  0  0  0  0  0
    8.5766  -13.7333   20.8369 C   0  0  0  0  0  0  0  0  0  0  0  0
    8.0193  -14.9824   20.1968 C   0  0  0  0  0  0  0  0  0  0  0  0
    8.8359  -16.2235   20.5178 C   0  0  2  0  0  0  0  0  0  0  0  0
    8.4886  -17.3885   19.7694 N   0  0  0  0  0  0  0  0  0  0  0  0
    9.0977  -16.4300   21.9362 C   0  0  0  0  0  0  0  0  0  0  0  0
    8.1132  -16.5422   22.7179 O   0  0  0  0  0  0  0  0  0  0  0  0
   10.4172  -16.5055   22.4366 N   0  0  0  0  0  0  0  0  0  0  0  0
   10.6194  -16.3781   23.8718 C   0  0  0  0  0  0  0  0  0  0  0  0
   12.0428  -16.5059   24.2186 C   0  0  0  0  0  0  0  0  0  0  0  0
   12.3594  -17.1436   25.2543 O   0  0  0  0  0  0  0  0  0  0  0  0
   13.0514  -15.9564   23.4572 O   0  0  0  0  0  0  0  0  0  0  0  0
  2  1  1  0
  3  2  1  0
  3  4  1  1
  5  6  2  0
  5  3  1  0
  7  8  1  0
  8  9  2  0
 10  8  1  0
 10 11  1  0
 12 11  1  1
 12 13  1  0
 13  5  1  0
 14 12  1  0
 14 16  1  0
 15 14  2  0
 17 16  1  0
 18 17  1  0
 19 18  2  0
 20 18  1  0
M  END
$$$$
