SQG.pdb
     RDKit          3D

 20 19  0  0  1  0  0  0  0  0999 V2000
    5.2769  -19.9299   19.4887 O   0  0  0  0  0  0  0  0  0  0  0  0
    5.0260  -18.7439   20.1851 C   0  0  0  0  0  0  0  0  0  0  0  0
    4.5659  -19.1323   21.5657 C   0  0  2  0  0  0  0  0  0  0  0  0
    3.1444  -19.0745   21.6372 N   0  0  0  0  0  0  0  0  0  0  0  0
    5.1792  -18.2974   22.6279 C   0  0  0  0  0  0  0  0  0  0  0  0
    4.6697  -17.2141   23.0036 O   0  0  0  0  0  0  0  0  0  0  0  0
    7.5448  -19.9427   27.9727 N   0  0  0  0  0  0  0  0  0  0  0  0
    8.1527  -18.6674   27.8180 C   0  0  0  0  0  0  0  0  0  0  0  0
    8.7206  -18.1268   28.7864 O   0  0  0  0  0  0  0  0  0  0  0  0
    8.1223  -17.9648   26.5150 C   0  0  0  0  0  0  0  0  0  0  0  0
    7.3332  -18.7767   25.5158 C   0  0  0  0  0  0  0  0  0  0  0  0
    7.2097  -18.0906   24.1652 C   0  0  2  0  0  0  0  0  0  0  0  0
    6.3746  -18.7585   23.2195 N   0  0  0  0  0  0  0  0  0  0  0  0
    8.4559  -17.5448   23.6435 C   0  0  0  0  0  0  0  0  0  0  0  0
    9.1643  -18.2748   22.8964 O   0  0  0  0  0  0  0  0  0  0  0  0
    8.8717  -16.2313   23.9583 N   0  0  0  0  0  0  0  0  0  0  0  0
   10.0117  -15.6782   23.2431 C   0  0  0  0  0  0  0  0  0  0  0  0
   11.2769  -16.2019   23.7793 C   0  0  0  0  0  0  0  0  0  0  0  0
   11.2373  -17.0909   24.6668 O   0  0  0  0  0  0  0  0  0  0  0  0
   12.5108  -15.7614   23.3521 O   0  0  0  0  0  0  0  0  0  0  0  0
  2  1  1  0
  3  2  1  0
  3  4  1  6
  5  6  2  0
  5  3  1  0
  7  8  1  0
  8  9  2  0
 10  8  1  0
 10 11  1  0
 12 11  1  1
 12 13  1  0
 13  5  1  0
 14 12  1  0
 14 16  1  0
 15 14  2  0
 17 16  1  0
 18 17  1  0
 19 18  2  0
 20 18  1  0
M  END
$$$$
