SQG.pdb
     RDKit          3D

 20 19  0  0  1  0  0  0  0  0999 V2000
   10.9266  -19.4115   19.8862 O   0  0  0  0  0  0  0  0  0  0  0  0
   10.1614  -18.8823   18.8426 C   0  0  0  0  0  0  0  0  0  0  0  0
   10.7732  -17.5555   18.4764 C   0  0  2  0  0  0  0  0  0  0  0  0
   12.0111  -17.7620   17.8024 N   0  0  0  0  0  0  0  0  0  0  0  0
   10.9567  -16.6678   19.6508 C   0  0  0  0  0  0  0  0  0  0  0  0
   12.0904  -16.2838   20.0273 O   0  0  0  0  0  0  0  0  0  0  0  0
    6.6143  -12.2176   19.1737 N   0  0  0  0  0  0  0  0  0  0  0  0
    7.0985  -13.4253   19.7453 C   0  0  0  0  0  0  0  0  0  0  0  0
    6.3632  -14.4302   19.7933 O   0  0  0  0  0  0  0  0  0  0  0  0
    8.4731  -13.5104   20.2893 C   0  0  0  0  0  0  0  0  0  0  0  0
    8.4980  -14.4546   21.4675 C   0  0  0  0  0  0  0  0  0  0  0  0
    9.7131  -15.3676   21.4653 C   0  0  2  0  0  0  0  0  0  0  0  0
    9.8029  -16.2553   20.3509 N   0  0  0  0  0  0  0  0  0  0  0  0
   10.0493  -15.9367   22.7639 C   0  0  0  0  0  0  0  0  0  0  0  0
   10.1410  -15.1594   23.7540 O   0  0  0  0  0  0  0  0  0  0  0  0
   10.2687  -17.3236   22.9239 N   0  0  0  0  0  0  0  0  0  0  0  0
   10.4675  -17.8402   24.2695 C   0  0  0  0  0  0  0  0  0  0  0  0
   11.8729  -17.7117   24.6829 C   0  0  0  0  0  0  0  0  0  0  0  0
   12.7558  -18.3184   24.0257 O   0  0  0  0  0  0  0  0  0  0  0  0
   12.2695  -16.9532   25.7628 O   0  0  0  0  0  0  0  0  0  0  0  0
  2  1  1  0
  3  2  1  0
  3  4  1  1
  5  6  2  0
  5  3  1  0
  7  8  1  0
  8  9  2  0
 10  8  1  0
 10 11  1  0
 12 11  1  1
 12 13  1  0
 13  5  1  0
 14 12  1  0
 14 16  1  0
 15 14  2  0
 17 16  1  0
 18 17  1  0
 19 18  2  0
 20 18  1  0
M  END
$$$$
