SQG.pdb
     RDKit          3D

 20 19  0  0  1  0  0  0  0  0999 V2000
    7.6080  -15.2759   19.1717 O   0  0  0  0  0  0  0  0  0  0  0  0
    6.6544  -14.3523   19.6102 C   0  0  0  0  0  0  0  0  0  0  0  0
    7.4064  -13.1950   20.2133 C   0  0  2  0  0  0  0  0  0  0  0  0
    8.1792  -12.5432   19.2096 N   0  0  0  0  0  0  0  0  0  0  0  0
    8.2638  -13.6031   21.3533 C   0  0  0  0  0  0  0  0  0  0  0  0
    9.5121  -13.6835   21.2551 O   0  0  0  0  0  0  0  0  0  0  0  0
    6.2853  -11.2271   27.1413 N   0  0  0  0  0  0  0  0  0  0  0  0
    6.1922  -12.4401   26.4066 C   0  0  0  0  0  0  0  0  0  0  0  0
    5.4533  -13.3581   26.8114 O   0  0  0  0  0  0  0  0  0  0  0  0
    6.9647  -12.6330   25.1582 C   0  0  0  0  0  0  0  0  0  0  0  0
    7.4098  -14.0719   25.0508 C   0  0  0  0  0  0  0  0  0  0  0  0
    8.2270  -14.3440   23.7985 C   0  0  2  0  0  0  0  0  0  0  0  0
    7.6308  -13.9056   22.5777 N   0  0  0  0  0  0  0  0  0  0  0  0
    8.8685  -15.6519   23.7624 C   0  0  0  0  0  0  0  0  0  0  0  0
    8.1374  -16.6763   23.6666 O   0  0  0  0  0  0  0  0  0  0  0  0
   10.2739  -15.7832   23.8312 N   0  0  0  0  0  0  0  0  0  0  0  0
   10.8427  -17.1225   23.8328 C   0  0  0  0  0  0  0  0  0  0  0  0
   12.3020  -17.0768   24.0086 C   0  0  0  0  0  0  0  0  0  0  0  0
   12.8647  -15.9583   24.1172 O   0  0  0  0  0  0  0  0  0  0  0  0
   13.0859  -18.2090   24.0602 O   0  0  0  0  0  0  0  0  0  0  0  0
  2  1  1  0
  3  2  1  0
  3  4  1  6
  5  6  2  0
  5  3  1  0
  7  8  1  0
  8  9  2  0
 10  8  1  0
 10 11  1  0
 12 11  1  1
 12 13  1  0
 13  5  1  0
 14 12  1  0
 14 16  1  0
 15 14  2  0
 17 16  1  0
 18 17  1  0
 19 18  2  0
 20 18  1  0
M  END
$$$$
