SQG.pdb
     RDKit          3D

 20 19  0  0  1  0  0  0  0  0999 V2000
    6.8495  -20.7299   22.7362 O   0  0  0  0  0  0  0  0  0  0  0  0
    5.8274  -20.4471   23.6473 C   0  0  0  0  0  0  0  0  0  0  0  0
    5.1781  -19.1647   23.1972 C   0  0  2  0  0  0  0  0  0  0  0  0
    4.4828  -19.3773   21.9723 N   0  0  0  0  0  0  0  0  0  0  0  0
    6.1480  -18.0500   23.0636 C   0  0  0  0  0  0  0  0  0  0  0  0
    6.5387  -17.6348   21.9458 O   0  0  0  0  0  0  0  0  0  0  0  0
    7.1519  -13.8294   27.7023 N   0  0  0  0  0  0  0  0  0  0  0  0
    8.2745  -13.6057   26.8600 C   0  0  0  0  0  0  0  0  0  0  0  0
    9.0426  -12.6510   27.0865 O   0  0  0  0  0  0  0  0  0  0  0  0
    8.5491  -14.4953   25.7086 C   0  0  0  0  0  0  0  0  0  0  0  0
    7.4809  -15.5588   25.6194 C   0  0  0  0  0  0  0  0  0  0  0  0
    7.6216  -16.4332   24.3842 C   0  0  2  0  0  0  0  0  0  0  0  0
    6.6325  -17.4535   24.2472 N   0  0  0  0  0  0  0  0  0  0  0  0
    8.9893  -16.8229   24.0668 C   0  0  0  0  0  0  0  0  0  0  0  0
    9.4364  -17.8965   24.5569 O   0  0  0  0  0  0  0  0  0  0  0  0
    9.8049  -16.0270   23.2310 N   0  0  0  0  0  0  0  0  0  0  0  0
   10.9608  -16.6472   22.6014 C   0  0  0  0  0  0  0  0  0  0  0  0
   12.1887  -16.3715   23.3622 C   0  0  0  0  0  0  0  0  0  0  0  0
   12.1471  -16.4177   24.6174 O   0  0  0  0  0  0  0  0  0  0  0  0
   13.3893  -16.0631   22.7603 O   0  0  0  0  0  0  0  0  0  0  0  0
  2  1  1  0
  3  2  1  0
  3  4  1  6
  5  6  2  0
  5  3  1  0
  7  8  1  0
  8  9  2  0
 10  8  1  0
 10 11  1  0
 12 11  1  1
 12 13  1  0
 13  5  1  0
 14 12  1  0
 14 16  1  0
 15 14  2  0
 17 16  1  0
 18 17  1  0
 19 18  2  0
 20 18  1  0
M  END
$$$$
