SQG.pdb
     RDKit          3D

 20 19  0  0  1  0  0  0  0  0999 V2000
    9.0259  -15.6430   18.6391 O   0  0  0  0  0  0  0  0  0  0  0  0
    7.6892  -15.2348   18.6774 C   0  0  0  0  0  0  0  0  0  0  0  0
    7.6768  -13.8120   19.1713 C   0  0  2  0  0  0  0  0  0  0  0  0
    8.2491  -12.9530   18.1895 N   0  0  0  0  0  0  0  0  0  0  0  0
    8.3684  -13.6539   20.4743 C   0  0  0  0  0  0  0  0  0  0  0  0
    9.4880  -13.0960   20.5730 O   0  0  0  0  0  0  0  0  0  0  0  0
    5.9354  -12.5846   26.9459 N   0  0  0  0  0  0  0  0  0  0  0  0
    6.4190  -13.7904   26.3696 C   0  0  0  0  0  0  0  0  0  0  0  0
    5.8886  -14.8784   26.6655 O   0  0  0  0  0  0  0  0  0  0  0  0
    7.5514  -13.7754   25.4159 C   0  0  0  0  0  0  0  0  0  0  0  0
    7.0406  -14.0054   24.0136 C   0  0  0  0  0  0  0  0  0  0  0  0
    8.1568  -14.0808   22.9847 C   0  0  2  0  0  0  0  0  0  0  0  0
    7.7255  -14.1557   21.6259 N   0  0  0  0  0  0  0  0  0  0  0  0
    9.2653  -14.9523   23.3519 C   0  0  0  0  0  0  0  0  0  0  0  0
    9.7897  -14.8085   24.4909 O   0  0  0  0  0  0  0  0  0  0  0  0
    9.7500  -15.9388   22.4636 N   0  0  0  0  0  0  0  0  0  0  0  0
   10.7902  -16.8405   22.9345 C   0  0  0  0  0  0  0  0  0  0  0  0
   11.2215  -17.7541   21.8659 C   0  0  0  0  0  0  0  0  0  0  0  0
   10.7193  -17.6274   20.7208 O   0  0  0  0  0  0  0  0  0  0  0  0
   12.1554  -18.7482   22.0621 O   0  0  0  0  0  0  0  0  0  0  0  0
  2  1  1  0
  3  2  1  0
  3  4  1  6
  5  6  2  0
  5  3  1  0
  7  8  1  0
  8  9  2  0
 10  8  1  0
 10 11  1  0
 12 11  1  1
 12 13  1  0
 13  5  1  0
 14 12  1  0
 14 16  1  0
 15 14  2  0
 17 16  1  0
 18 17  1  0
 19 18  2  0
 20 18  1  0
M  END
$$$$
