SQG.pdb
     RDKit          3D

 20 19  0  0  1  0  0  0  0  0999 V2000
    9.9482  -20.0271   16.8354 O   0  0  0  0  0  0  0  0  0  0  0  0
    8.8407  -19.2514   16.4796 C   0  0  0  0  0  0  0  0  0  0  0  0
    9.3507  -17.8663   16.1798 C   0  0  2  0  0  0  0  0  0  0  0  0
   10.3335  -17.9240   15.1502 N   0  0  0  0  0  0  0  0  0  0  0  0
    9.8893  -17.1836   17.3818 C   0  0  0  0  0  0  0  0  0  0  0  0
   11.1114  -16.9330   17.5165 O   0  0  0  0  0  0  0  0  0  0  0  0
    7.1366  -12.4887   20.1261 N   0  0  0  0  0  0  0  0  0  0  0  0
    6.9215  -13.1973   18.9131 C   0  0  0  0  0  0  0  0  0  0  0  0
    6.1305  -12.7482   18.0615 O   0  0  0  0  0  0  0  0  0  0  0  0
    7.6272  -14.4705   18.6422 C   0  0  0  0  0  0  0  0  0  0  0  0
    8.4684  -14.8519   19.8368 C   0  0  0  0  0  0  0  0  0  0  0  0
    9.2437  -16.1418   19.6240 C   0  0  2  0  0  0  0  0  0  0  0  0
    8.9770  -16.8138   18.3930 N   0  0  0  0  0  0  0  0  0  0  0  0
    9.3509  -16.9894   20.8043 C   0  0  0  0  0  0  0  0  0  0  0  0
    8.5107  -16.8337   21.7331 O   0  0  0  0  0  0  0  0  0  0  0  0
   10.3658  -17.9663   20.9177 N   0  0  0  0  0  0  0  0  0  0  0  0
   11.6810  -17.5452   21.3761 C   0  0  0  0  0  0  0  0  0  0  0  0
   11.7285  -17.4649   22.8437 C   0  0  0  0  0  0  0  0  0  0  0  0
   11.1648  -16.4985   23.4164 O   0  0  0  0  0  0  0  0  0  0  0  0
   12.3655  -18.4045   23.6250 O   0  0  0  0  0  0  0  0  0  0  0  0
  2  1  1  0
  3  2  1  0
  3  4  1  6
  5  6  2  0
  5  3  1  0
  7  8  1  0
  8  9  2  0
 10  8  1  0
 10 11  1  0
 12 11  1  1
 12 13  1  0
 13  5  1  0
 14 12  1  0
 14 16  1  0
 15 14  2  0
 17 16  1  0
 18 17  1  0
 19 18  2  0
 20 18  1  0
M  END
$$$$
