SQG.pdb
     RDKit          3D

 20 19  0  0  1  0  0  0  0  0999 V2000
    7.7882  -15.3535   19.2893 O   0  0  0  0  0  0  0  0  0  0  0  0
    6.6446  -14.6175   19.6138 C   0  0  0  0  0  0  0  0  0  0  0  0
    7.1111  -13.2745   20.1109 C   0  0  2  0  0  0  0  0  0  0  0  0
    7.6538  -12.5198   19.0314 N   0  0  0  0  0  0  0  0  0  0  0  0
    8.0914  -13.3848   21.2191 C   0  0  0  0  0  0  0  0  0  0  0  0
    9.3225  -13.2205   21.0408 O   0  0  0  0  0  0  0  0  0  0  0  0
    7.0987  -11.6489   27.0806 N   0  0  0  0  0  0  0  0  0  0  0  0
    6.1196  -12.4700   26.4585 C   0  0  0  0  0  0  0  0  0  0  0  0
    4.9657  -12.5257   26.9255 O   0  0  0  0  0  0  0  0  0  0  0  0
    6.4503  -13.2669   25.2551 C   0  0  0  0  0  0  0  0  0  0  0  0
    7.9050  -13.0737   24.8992 C   0  0  0  0  0  0  0  0  0  0  0  0
    8.3364  -13.9124   23.7072 C   0  0  2  0  0  0  0  0  0  0  0  0
    7.5981  -13.6853   22.5067 N   0  0  0  0  0  0  0  0  0  0  0  0
    8.6371  -15.3037   24.0187 C   0  0  0  0  0  0  0  0  0  0  0  0
    7.6880  -16.0592   24.3668 O   0  0  0  0  0  0  0  0  0  0  0  0
    9.9551  -15.8069   23.9358 N   0  0  0  0  0  0  0  0  0  0  0  0
   10.3653  -16.8278   24.8880 C   0  0  0  0  0  0  0  0  0  0  0  0
   11.7627  -17.2279   24.6650 C   0  0  0  0  0  0  0  0  0  0  0  0
   12.6569  -16.3450   24.6882 O   0  0  0  0  0  0  0  0  0  0  0  0
   12.1400  -18.5323   24.4306 O   0  0  0  0  0  0  0  0  0  0  0  0
  2  1  1  0
  3  2  1  0
  3  4  1  6
  5  6  2  0
  5  3  1  0
  7  8  1  0
  8  9  2  0
 10  8  1  0
 10 11  1  0
 12 11  1  1
 12 13  1  0
 13  5  1  0
 14 12  1  0
 14 16  1  0
 15 14  2  0
 17 16  1  0
 18 17  1  0
 19 18  2  0
 20 18  1  0
M  END
$$$$
