RTV.pdb
     RDKit          3D

 26 25  0  0  1  0  0  0  0  0999 V2000
   27.2784  -25.9225  -16.1225 N   0  0  0  0  0  0  0  0  0  0  0  0
   28.1569  -26.2806  -17.1755 C   0  0  0  0  0  0  0  0  0  0  0  0
   28.0414  -27.4850  -17.6610 N   0  0  0  0  0  0  0  0  0  0  0  0
   29.1127  -25.3742  -17.6764 N   0  0  0  0  0  0  0  0  0  0  0  0
   29.0157  -23.9815  -17.3233 C   0  0  0  0  0  0  0  0  0  0  0  0
   27.6612  -23.4211  -17.5867 C   0  0  0  0  0  0  0  0  0  0  0  0
   27.0970  -22.4990  -16.5558 C   0  0  0  0  0  0  0  0  0  0  0  0
   27.1137  -21.0790  -17.0288 C   0  0  2  0  0  0  0  0  0  0  0  0
   28.3235  -20.4018  -16.5850 N   0  0  0  0  0  0  0  0  0  0  0  0
   25.9617  -20.3049  -16.4828 C   0  0  0  0  0  0  0  0  0  0  0  0
   26.1755  -19.3810  -15.6478 O   0  0  0  0  0  0  0  0  0  0  0  0
   28.6586  -27.8486  -18.3937 C   0  0  0  0  0  0  0  0  0  0  0  0
   24.2928  -17.8279  -17.9460 C   0  0  2  0  0  0  0  0  0  0  0  0
   23.1474  -18.7119  -17.5324 O   0  0  0  0  0  0  0  0  0  0  0  0
   22.7679  -19.4950  -18.6123 C   0  0  2  0  0  0  0  0  0  0  0  0
   23.5357  -19.6482  -16.3924 N   0  0  0  0  0  0  0  0  0  0  0  0
   24.6056  -20.5496  -16.8548 C   0  0  0  0  0  0  0  0  0  0  0  0
   22.3952  -20.4249  -15.8727 O   0  0  0  0  0  0  0  0  0  0  0  0
   22.1572  -21.6145  -16.2542 C   0  0  0  0  0  0  0  0  0  0  0  0
   20.3296  -18.9805  -12.4740 C   0  0  1  0  0  0  0  0  0  0  0  0
   20.3552  -20.4417  -12.8563 C   0  0  0  0  0  0  0  0  0  0  0  0
   21.6561  -21.0342  -12.3571 C   0  0  1  0  0  0  0  0  0  0  0  0
   20.3694  -20.5352  -14.3746 N   0  0  0  0  0  0  0  0  0  0  0  0
   21.5299  -19.8594  -14.9243 C   0  0  0  0  0  0  0  0  0  0  0  0
   19.1141  -20.0758  -14.9881 O   0  0  0  0  0  0  0  0  0  0  0  0
   19.1447  -18.9491  -15.8387 O   0  0  0  0  0  0  0  0  0  0  0  0
  1  2  1  0
  2  3  2  0
  4  5  1  0
  4  2  1  0
  6  7  1  0
  6  5  1  0
  8  9  1  1
  8  7  1  0
 10  8  1  0
 11 10  2  0
 13 12  1  6
 13 15  1  0
 14 13  1  0
 15 16  1  1
 16 10  1  0
 17 15  1  0
 17 18  2  0
 20 19  1  1
 20 21  1  0
 20 22  1  0
 22 23  1  1
 23 17  1  0
 24 22  1  0
 25 24  1  0
 26 24  2  0
M  END
$$$$
