RTV.pdb
     RDKit          3D

 26 25  0  0  1  0  0  0  0  0999 V2000
   10.8686  -11.0422  -17.1440 N   0  0  0  0  0  0  0  0  0  0  0  0
   10.5290   -9.7982  -16.5560 C   0  0  0  0  0  0  0  0  0  0  0  0
    9.3673   -9.7163  -15.9700 N   0  0  0  0  0  0  0  0  0  0  0  0
   11.4088   -8.6982  -16.6020 N   0  0  0  0  0  0  0  0  0  0  0  0
   12.8263   -8.9247  -16.4873 C   0  0  0  0  0  0  0  0  0  0  0  0
   13.6156   -8.0706  -17.4178 C   0  0  0  0  0  0  0  0  0  0  0  0
   15.0971   -8.2617  -17.4214 C   0  0  0  0  0  0  0  0  0  0  0  0
   15.7781   -7.2180  -18.2505 C   0  0  2  0  0  0  0  0  0  0  0  0
   15.5372   -7.4470  -19.6677 N   0  0  0  0  0  0  0  0  0  0  0  0
   17.2566   -7.2406  -18.0556 C   0  0  0  0  0  0  0  0  0  0  0  0
   18.0018   -7.6108  -19.0065 O   0  0  0  0  0  0  0  0  0  0  0  0
    9.0166   -8.8479  -15.5541 C   0  0  0  0  0  0  0  0  0  0  0  0
   19.2530   -5.8919  -19.1262 C   0  0  2  0  0  0  0  0  0  0  0  0
   19.8206   -5.6734  -17.7498 O   0  0  0  0  0  0  0  0  0  0  0  0
   19.3844   -4.4474  -17.2703 C   0  0  2  0  0  0  0  0  0  0  0  0
   19.3603   -6.7471  -16.7688 N   0  0  0  0  0  0  0  0  0  0  0  0
   17.8928   -6.8610  -16.8356 C   0  0  0  0  0  0  0  0  0  0  0  0
   19.7951   -6.4853  -15.3844 O   0  0  0  0  0  0  0  0  0  0  0  0
   19.0877   -5.8128  -14.5691 C   0  0  0  0  0  0  0  0  0  0  0  0
   23.1854   -8.5997  -13.9593 C   0  0  1  0  0  0  0  0  0  0  0  0
   22.0372   -8.2058  -13.0603 C   0  0  0  0  0  0  0  0  0  0  0  0
   20.9406   -9.2374  -13.2210 C   0  0  1  0  0  0  0  0  0  0  0  0
   21.4832   -6.8772  -13.5521 N   0  0  0  0  0  0  0  0  0  0  0  0
   21.0229   -6.9840  -14.9241 C   0  0  0  0  0  0  0  0  0  0  0  0
   22.4221   -5.7608  -13.3644 O   0  0  0  0  0  0  0  0  0  0  0  0
   22.6908   -5.3106  -12.0533 O   0  0  0  0  0  0  0  0  0  0  0  0
  1  2  1  0
  2  3  2  0
  4  5  1  0
  4  2  1  0
  6  7  1  0
  6  5  1  0
  8  9  1  6
  8  7  1  0
 10  8  1  0
 11 10  2  0
 13 12  1  6
 13 15  1  0
 14 13  1  0
 15 16  1  1
 16 10  1  0
 17 15  1  0
 17 18  2  0
 20 19  1  1
 20 21  1  0
 20 22  1  0
 22 23  1  6
 23 17  1  0
 24 22  1  0
 25 24  1  0
 26 24  2  0
M  END
$$$$
