RTV.pdb
     RDKit          3D

 26 25  0  0  1  0  0  0  0  0999 V2000
   13.9979  -14.8236  -16.7775 N   0  0  0  0  0  0  0  0  0  0  0  0
   14.4557  -14.5576  -18.0922 C   0  0  0  0  0  0  0  0  0  0  0  0
   13.8312  -15.1528  -19.0697 N   0  0  0  0  0  0  0  0  0  0  0  0
   15.5378  -13.6874  -18.3324 N   0  0  0  0  0  0  0  0  0  0  0  0
   16.2462  -13.1190  -17.2149 C   0  0  0  0  0  0  0  0  0  0  0  0
   17.3633  -12.2313  -17.6417 C   0  0  0  0  0  0  0  0  0  0  0  0
   18.1158  -11.5226  -16.5635 C   0  0  0  0  0  0  0  0  0  0  0  0
   19.5798  -11.8269  -16.6317 C   0  0  2  0  0  0  0  0  0  0  0  0
   19.8441  -13.1900  -16.1946 N   0  0  0  0  0  0  0  0  0  0  0  0
   20.3695  -10.9281  -15.7412 C   0  0  0  0  0  0  0  0  0  0  0  0
   20.1768  -10.9664  -14.4931 O   0  0  0  0  0  0  0  0  0  0  0  0
   14.1029  -15.0393  -20.0513 C   0  0  0  0  0  0  0  0  0  0  0  0
   23.6791  -11.0598  -14.8318 C   0  0  2  0  0  0  0  0  0  0  0  0
   23.5541   -9.6195  -15.2490 O   0  0  0  0  0  0  0  0  0  0  0  0
   24.0716   -9.4726  -16.5273 C   0  0  2  0  0  0  0  0  0  0  0  0
   22.0993   -9.1616  -15.2805 N   0  0  0  0  0  0  0  0  0  0  0  0
   21.3495  -10.0095  -16.2239 C   0  0  0  0  0  0  0  0  0  0  0  0
   21.9522   -7.7384  -15.6368 O   0  0  0  0  0  0  0  0  0  0  0  0
   21.5326   -7.3669  -16.7785 C   0  0  0  0  0  0  0  0  0  0  0  0
   20.3489   -3.5857  -15.3560 C   0  0  2  0  0  0  0  0  0  0  0  0
   20.5459   -5.0721  -15.1730 C   0  0  0  0  0  0  0  0  0  0  0  0
   19.7843   -5.4972  -13.9354 C   0  0  2  0  0  0  0  0  0  0  0  0
   22.0216   -5.3260  -14.9047 N   0  0  0  0  0  0  0  0  0  0  0  0
   22.2758   -6.7406  -14.7052 C   0  0  0  0  0  0  0  0  0  0  0  0
   22.5536   -4.5038  -13.8074 O   0  0  0  0  0  0  0  0  0  0  0  0
   22.9788   -3.1869  -14.0880 O   0  0  0  0  0  0  0  0  0  0  0  0
  1  2  1  0
  2  3  2  0
  4  5  1  0
  4  2  1  0
  6  7  1  0
  6  5  1  0
  8  9  1  1
  8  7  1  0
 10  8  1  0
 11 10  2  0
 13 12  1  1
 13 15  1  0
 14 13  1  0
 15 16  1  1
 16 10  1  0
 17 15  1  0
 17 18  2  0
 20 19  1  6
 20 21  1  0
 20 22  1  0
 22 23  1  1
 23 17  1  0
 24 22  1  0
 25 24  1  0
 26 24  2  0
M  END
$$$$
