RTV.pdb
     RDKit          3D

 26 25  0  0  1  0  0  0  0  0999 V2000
   20.6131  -22.8199   -8.1825 N   0  0  0  0  0  0  0  0  0  0  0  0
   19.8711  -23.2833   -9.2975 C   0  0  0  0  0  0  0  0  0  0  0  0
   19.1749  -24.3735   -9.1354 N   0  0  0  0  0  0  0  0  0  0  0  0
   19.8847  -22.5954  -10.5274 N   0  0  0  0  0  0  0  0  0  0  0  0
   21.0709  -21.8805  -10.9217 C   0  0  0  0  0  0  0  0  0  0  0  0
   21.4781  -20.8576   -9.9187 C   0  0  0  0  0  0  0  0  0  0  0  0
   22.7045  -20.0609  -10.2227 C   0  0  0  0  0  0  0  0  0  0  0  0
   23.8912  -20.9484  -10.4336 C   0  0  2  0  0  0  0  0  0  0  0  0
   24.5463  -21.2431   -9.1675 N   0  0  0  0  0  0  0  0  0  0  0  0
   24.9126  -20.3011  -11.3068 C   0  0  0  0  0  0  0  0  0  0  0  0
   25.7864  -19.5506  -10.7874 O   0  0  0  0  0  0  0  0  0  0  0  0
   18.6259  -24.7977   -9.8896 C   0  0  0  0  0  0  0  0  0  0  0  0
   27.6428  -21.5798  -13.3116 C   0  0  2  0  0  0  0  0  0  0  0  0
   26.8386  -20.7377  -14.2648 O   0  0  0  0  0  0  0  0  0  0  0  0
   26.0173  -21.5649  -15.0163 C   0  0  2  0  0  0  0  0  0  0  0  0
   25.9477  -19.7414  -13.5294 N   0  0  0  0  0  0  0  0  0  0  0  0
   24.9634  -20.4827  -12.7215 C   0  0  0  0  0  0  0  0  0  0  0  0
   25.2664  -18.8004  -14.4373 O   0  0  0  0  0  0  0  0  0  0  0  0
   24.0284  -18.9007  -14.7105 C   0  0  0  0  0  0  0  0  0  0  0  0
   25.3574  -14.4181  -16.6421 C   0  0  1  0  0  0  0  0  0  0  0  0
   25.9450  -15.3766  -15.6332 C   0  0  0  0  0  0  0  0  0  0  0  0
   27.4418  -15.4309  -15.8545 C   0  0  2  0  0  0  0  0  0  0  0  0
   25.3951  -16.7654  -15.9214 N   0  0  0  0  0  0  0  0  0  0  0  0
   25.9816  -17.7497  -15.0311 C   0  0  0  0  0  0  0  0  0  0  0  0
   25.5201  -17.1483  -17.3359 O   0  0  0  0  0  0  0  0  0  0  0  0
   24.4840  -16.7998  -18.2296 O   0  0  0  0  0  0  0  0  0  0  0  0
  1  2  1  0
  2  3  2  0
  4  5  1  0
  4  2  1  0
  6  7  1  0
  6  5  1  0
  8  9  1  1
  8  7  1  0
 10  8  1  0
 11 10  2  0
 13 12  1  6
 13 15  1  0
 14 13  1  0
 15 16  1  6
 16 10  1  0
 17 15  1  0
 17 18  2  0
 20 19  1  1
 20 21  1  0
 20 22  1  0
 22 23  1  6
 23 17  1  0
 24 22  1  0
 25 24  1  0
 26 24  2  0
M  END
$$$$
