RTV.pdb
     RDKit          3D

 26 25  0  0  1  0  0  0  0  0999 V2000
   11.2647  -18.9919   -0.2024 N   0  0  0  0  0  0  0  0  0  0  0  0
   10.8539  -17.8747    0.5669 C   0  0  0  0  0  0  0  0  0  0  0  0
   10.2008  -16.9336   -0.0554 N   0  0  0  0  0  0  0  0  0  0  0  0
   11.1383  -17.7855    1.9443 N   0  0  0  0  0  0  0  0  0  0  0  0
   12.4487  -18.1488    2.4181 C   0  0  0  0  0  0  0  0  0  0  0  0
   13.4474  -17.0623    2.2176 C   0  0  0  0  0  0  0  0  0  0  0  0
   14.8236  -17.3003    2.7473 C   0  0  0  0  0  0  0  0  0  0  0  0
   14.8498  -17.2342    4.2425 C   0  0  2  0  0  0  0  0  0  0  0  0
   15.0582  -15.8663    4.6946 N   0  0  0  0  0  0  0  0  0  0  0  0
   15.9631  -18.0495    4.8086 C   0  0  0  0  0  0  0  0  0  0  0  0
   17.1420  -17.8611    4.3950 O   0  0  0  0  0  0  0  0  0  0  0  0
    9.8720  -16.0840    0.4139 C   0  0  0  0  0  0  0  0  0  0  0  0
   17.1650  -18.0835    8.2262 C   0  0  2  0  0  0  0  0  0  0  0  0
   16.9677  -19.5352    7.8829 O   0  0  0  0  0  0  0  0  0  0  0  0
   15.7556  -19.9624    8.4042 C   0  0  2  0  0  0  0  0  0  0  0  0
   16.9315  -19.7623    6.3748 N   0  0  0  0  0  0  0  0  0  0  0  0
   15.7728  -19.0489    5.8097 C   0  0  0  0  0  0  0  0  0  0  0  0
   16.8869  -21.1901    6.0094 O   0  0  0  0  0  0  0  0  0  0  0  0
   15.8274  -21.7445    5.5764 C   0  0  0  0  0  0  0  0  0  0  0  0
   20.0535  -23.1410    4.4571 C   0  0  1  0  0  0  0  0  0  0  0  0
   18.6542  -23.7081    4.5041 C   0  0  0  0  0  0  0  0  0  0  0  0
   17.8128  -22.9654    3.4879 C   0  0  1  0  0  0  0  0  0  0  0  0
   18.0686  -23.4141    5.8770 N   0  0  0  0  0  0  0  0  0  0  0  0
   18.0358  -21.9859    6.1310 C   0  0  0  0  0  0  0  0  0  0  0  0
   18.7375  -24.1571    6.9557 O   0  0  0  0  0  0  0  0  0  0  0  0
   19.4605  -23.4367    7.9316 O   0  0  0  0  0  0  0  0  0  0  0  0
  1  2  1  0
  2  3  2  0
  4  5  1  0
  4  2  1  0
  6  7  1  0
  6  5  1  0
  8  9  1  6
  8  7  1  0
 10  8  1  0
 11 10  2  0
 13 12  1  1
 13 15  1  0
 14 13  1  0
 15 16  1  6
 16 10  1  0
 17 15  1  0
 17 18  2  0
 20 19  1  6
 20 21  1  0
 20 22  1  0
 22 23  1  6
 23 17  1  0
 24 22  1  0
 25 24  1  0
 26 24  2  0
M  END
$$$$
