RTV.pdb
     RDKit          3D

 26 25  0  0  1  0  0  0  0  0999 V2000
   25.5899  -21.7578  -10.3519 N   0  0  0  0  0  0  0  0  0  0  0  0
   26.5614  -22.4020  -11.1581 C   0  0  0  0  0  0  0  0  0  0  0  0
   26.5717  -23.7056  -11.1472 N   0  0  0  0  0  0  0  0  0  0  0  0
   27.4756  -21.6657  -11.9379 N   0  0  0  0  0  0  0  0  0  0  0  0
   27.1783  -20.2953  -12.2656 C   0  0  0  0  0  0  0  0  0  0  0  0
   25.7543  -20.1000  -12.6557 C   0  0  0  0  0  0  0  0  0  0  0  0
   25.4839  -19.7549  -14.0837 C   0  0  0  0  0  0  0  0  0  0  0  0
   24.0494  -19.3808  -14.2906 C   0  0  2  0  0  0  0  0  0  0  0  0
   23.1980  -20.5609  -14.2525 N   0  0  0  0  0  0  0  0  0  0  0  0
   23.8358  -18.7381  -15.6194 C   0  0  0  0  0  0  0  0  0  0  0  0
   23.4259  -19.4382  -16.5880 O   0  0  0  0  0  0  0  0  0  0  0  0
   27.2497  -24.2588  -11.6806 C   0  0  0  0  0  0  0  0  0  0  0  0
   21.4646  -16.3578  -16.5583 C   0  0  1  0  0  0  0  0  0  0  0  0
   22.3806  -16.9647  -17.5864 O   0  0  0  0  0  0  0  0  0  0  0  0
   22.1772  -16.3312  -18.8033 C   0  0  1  0  0  0  0  0  0  0  0  0
   23.8491  -16.7913  -17.2114 N   0  0  0  0  0  0  0  0  0  0  0  0
   24.0707  -17.3522  -15.8671 C   0  0  0  0  0  0  0  0  0  0  0  0
   24.2939  -15.3865  -17.2643 O   0  0  0  0  0  0  0  0  0  0  0  0
   24.1787  -14.6028  -16.2693 C   0  0  0  0  0  0  0  0  0  0  0  0
   27.2437  -12.1305  -19.3718 C   0  0  1  0  0  0  0  0  0  0  0  0
   26.8398  -13.5438  -19.0238 C   0  0  0  0  0  0  0  0  0  0  0  0
   26.8987  -14.3733  -20.2891 C   0  0  2  0  0  0  0  0  0  0  0  0
   25.3899  -13.5237  -18.5640 N   0  0  0  0  0  0  0  0  0  0  0  0
   24.8684  -14.8718  -18.4361 C   0  0  0  0  0  0  0  0  0  0  0  0
   24.5345  -12.6725  -19.4047 O   0  0  0  0  0  0  0  0  0  0  0  0
   24.4815  -11.2867  -19.1385 O   0  0  0  0  0  0  0  0  0  0  0  0
  1  2  1  0
  2  3  2  0
  4  5  1  0
  4  2  1  0
  6  7  1  0
  6  5  1  0
  8  9  1  6
  8  7  1  0
 10  8  1  0
 11 10  2  0
 13 12  1  6
 13 15  1  0
 14 13  1  0
 15 16  1  6
 16 10  1  0
 17 15  1  0
 17 18  2  0
 20 19  1  1
 20 21  1  0
 20 22  1  0
 22 23  1  6
 23 17  1  0
 24 22  1  0
 25 24  1  0
 26 24  2  0
M  END
$$$$
