RTV.pdb
     RDKit          3D

 26 25  0  0  1  0  0  0  0  0999 V2000
   29.9874  -24.0497  -16.3606 N   0  0  0  0  0  0  0  0  0  0  0  0
   29.0175  -23.6049  -17.2934 C   0  0  0  0  0  0  0  0  0  0  0  0
   28.8627  -24.3177  -18.3739 N   0  0  0  0  0  0  0  0  0  0  0  0
   28.2534  -22.4435  -17.0627 N   0  0  0  0  0  0  0  0  0  0  0  0
   28.4571  -21.6957  -15.8490 C   0  0  0  0  0  0  0  0  0  0  0  0
   27.4653  -22.0434  -14.7937 C   0  0  0  0  0  0  0  0  0  0  0  0
   26.0417  -21.6730  -15.0531 C   0  0  0  0  0  0  0  0  0  0  0  0
   25.1698  -22.0125  -13.8847 C   0  0  2  0  0  0  0  0  0  0  0  0
   25.2618  -23.4301  -13.5673 N   0  0  0  0  0  0  0  0  0  0  0  0
   23.7339  -21.7271  -14.1699 C   0  0  0  0  0  0  0  0  0  0  0  0
   23.0585  -22.5569  -14.8421 O   0  0  0  0  0  0  0  0  0  0  0  0
   28.1842  -24.0778  -19.1035 C   0  0  0  0  0  0  0  0  0  0  0  0
   20.9682  -21.9142  -12.1451 C   0  0  2  0  0  0  0  0  0  0  0  0
   20.8429  -20.5231  -12.7048 O   0  0  0  0  0  0  0  0  0  0  0  0
   21.3508  -19.6181  -11.7847 C   0  0  2  0  0  0  0  0  0  0  0  0
   21.6301  -20.3596  -14.0013 N   0  0  0  0  0  0  0  0  0  0  0  0
   23.0637  -20.5501  -13.7197 C   0  0  0  0  0  0  0  0  0  0  0  0
   21.4008  -19.0568  -14.6527 O   0  0  0  0  0  0  0  0  0  0  0  0
   22.2314  -18.0984  -14.5590 C   0  0  0  0  0  0  0  0  0  0  0  0
   19.9636  -16.2608  -18.1212 C   0  0  1  0  0  0  0  0  0  0  0  0
   20.3397  -17.5906  -17.5113 C   0  0  0  0  0  0  0  0  0  0  0  0
   19.5412  -18.6700  -18.2110 C   0  0  2  0  0  0  0  0  0  0  0  0
   19.9079  -17.5831  -16.0526 N   0  0  0  0  0  0  0  0  0  0  0  0
   20.2386  -18.8404  -15.4082 C   0  0  0  0  0  0  0  0  0  0  0  0
   18.4932  -17.2214  -15.8763 O   0  0  0  0  0  0  0  0  0  0  0  0
   18.1235  -15.8610  -15.9560 O   0  0  0  0  0  0  0  0  0  0  0  0
  1  2  1  0
  2  3  2  0
  4  5  1  0
  4  2  1  0
  6  7  1  0
  6  5  1  0
  8  9  1  6
  8  7  1  0
 10  8  1  0
 11 10  2  0
 13 12  1  1
 13 15  1  0
 14 13  1  0
 15 16  1  6
 16 10  1  0
 17 15  1  0
 17 18  2  0
 20 19  1  6
 20 21  1  0
 20 22  1  0
 22 23  1  1
 23 17  1  0
 24 22  1  0
 25 24  1  0
 26 24  2  0
M  END
$$$$
