GLV.pdb
     RDKit          3D

 20 19  0  0  1  0  0  0  0  0999 V2000
    5.6433  -16.0838   20.4412 N   0  0  0  0  0  0  0  0  0  0  0  0
    5.4937  -16.1385   21.8805 C   0  0  0  0  0  0  0  0  0  0  0  0
    6.6734  -15.5840   22.5781 C   0  0  0  0  0  0  0  0  0  0  0  0
    7.7859  -15.3923   22.0134 O   0  0  0  0  0  0  0  0  0  0  0  0
    7.5919  -11.7077   25.2095 C   0  0  0  0  0  0  0  0  0  0  0  0
    6.7019  -12.7227   25.8330 C   0  0  2  0  0  0  0  0  0  0  0  0
    6.1487  -12.1790   27.1406 C   0  0  0  0  0  0  0  0  0  0  0  0
    7.2474  -14.0965   25.9762 C   0  0  0  0  0  0  0  0  0  0  0  0
    7.6846  -14.7874   24.7382 C   0  0  2  0  0  0  0  0  0  0  0  0
    6.5442  -15.2490   23.9629 N   0  0  0  0  0  0  0  0  0  0  0  0
    8.5370  -15.9821   25.1226 C   0  0  0  0  0  0  0  0  0  0  0  0
    7.9972  -16.9457   25.6948 O   0  0  0  0  0  0  0  0  0  0  0  0
   12.7060  -16.2872   23.6334 C   0  0  0  0  0  0  0  0  0  0  0  0
   11.6220  -17.3522   23.7422 C   0  0  2  0  0  0  0  0  0  0  0  0
   10.9049  -17.4089   22.4337 C   0  0  0  0  0  0  0  0  0  0  0  0
   10.7351  -17.1039   24.9108 C   0  0  2  0  0  0  0  0  0  0  0  0
    9.9120  -15.9271   24.8028 N   0  0  0  0  0  0  0  0  0  0  0  0
   11.3919  -17.2750   26.2341 C   0  0  0  0  0  0  0  0  0  0  0  0
   12.0321  -18.4116   26.6750 O   0  0  0  0  0  0  0  0  0  0  0  0
   11.3905  -16.3067   27.0692 O   0  0  0  0  0  0  0  0  0  0  0  0
  2  1  1  0
  3  2  1  0
  3 10  1  0
  4  3  2  0
  6  8  1  0
  6  5  1  1
  7  6  1  0
  9 11  1  0
  9 10  1  0
  9  8  1  1
 11 17  1  0
 12 11  2  0
 14 13  1  6
 14 15  1  0
 16 14  1  0
 16 17  1  6
 18 19  1  0
 18 16  1  0
 20 18  2  0
M  END
$$$$
