GLV.pdb
     RDKit          3D

 20 19  0  0  1  0  0  0  0  0999 V2000
    4.9406  -18.3517   22.0919 N   0  0  0  0  0  0  0  0  0  0  0  0
    4.9335  -17.7343   23.4017 C   0  0  0  0  0  0  0  0  0  0  0  0
    6.1083  -16.8600   23.6048 C   0  0  0  0  0  0  0  0  0  0  0  0
    7.0586  -16.7730   22.7786 O   0  0  0  0  0  0  0  0  0  0  0  0
    7.4294  -12.2476   24.8732 C   0  0  0  0  0  0  0  0  0  0  0  0
    6.5972  -13.0061   25.8443 C   0  0  2  0  0  0  0  0  0  0  0  0
    6.2891  -12.1266   27.0455 C   0  0  0  0  0  0  0  0  0  0  0  0
    7.0845  -14.3526   26.2380 C   0  0  0  0  0  0  0  0  0  0  0  0
    7.3615  -15.3211   25.1489 C   0  0  2  0  0  0  0  0  0  0  0  0
    6.1679  -16.0745   24.7989 N   0  0  0  0  0  0  0  0  0  0  0  0
    8.4352  -16.2856   25.6167 C   0  0  0  0  0  0  0  0  0  0  0  0
    8.1551  -17.1120   26.5032 O   0  0  0  0  0  0  0  0  0  0  0  0
   12.5893  -16.2245   23.9328 C   0  0  0  0  0  0  0  0  0  0  0  0
   11.6453  -17.4085   24.1007 C   0  0  2  0  0  0  0  0  0  0  0  0
   10.9720  -17.6450   22.7891 C   0  0  0  0  0  0  0  0  0  0  0  0
   10.7071  -17.1956   25.2357 C   0  0  2  0  0  0  0  0  0  0  0  0
    9.7063  -16.1853   25.0083 N   0  0  0  0  0  0  0  0  0  0  0  0
   11.3568  -17.1271   26.5717 C   0  0  0  0  0  0  0  0  0  0  0  0
   11.2543  -16.0844   27.4652 O   0  0  0  0  0  0  0  0  0  0  0  0
   12.0823  -18.1013   26.9712 O   0  0  0  0  0  0  0  0  0  0  0  0
  2  1  1  0
  3  2  1  0
  3 10  1  0
  4  3  2  0
  6  8  1  0
  6  5  1  6
  7  6  1  0
  9 11  1  0
  9 10  1  0
  9  8  1  1
 11 17  1  0
 12 11  2  0
 14 13  1  6
 14 15  1  0
 16 14  1  0
 16 17  1  6
 18 19  1  0
 18 16  1  0
 20 18  2  0
M  END
$$$$
