GLV.pdb
     RDKit          3D

 20 19  0  0  1  0  0  0  0  0999 V2000
    6.7386  -19.4623   22.5834 N   0  0  0  0  0  0  0  0  0  0  0  0
    6.3664  -18.7476   23.7865 C   0  0  0  0  0  0  0  0  0  0  0  0
    7.0865  -17.4622   23.9083 C   0  0  0  0  0  0  0  0  0  0  0  0
    8.1251  -17.1841   23.2471 O   0  0  0  0  0  0  0  0  0  0  0  0
    6.0822  -11.7408   26.1583 C   0  0  0  0  0  0  0  0  0  0  0  0
    6.9819  -12.8054   25.6404 C   0  0  2  0  0  0  0  0  0  0  0  0
    7.7014  -12.3034   24.3989 C   0  0  0  0  0  0  0  0  0  0  0  0
    6.3857  -14.1514   25.4445 C   0  0  0  0  0  0  0  0  0  0  0  0
    7.3092  -15.2616   25.1045 C   0  0  2  0  0  0  0  0  0  0  0  0
    6.5779  -16.4865   24.8225 N   0  0  0  0  0  0  0  0  0  0  0  0
    8.2376  -15.4999   26.2805 C   0  0  0  0  0  0  0  0  0  0  0  0
    7.7819  -16.0355   27.3064 O   0  0  0  0  0  0  0  0  0  0  0  0
    9.4366  -14.8861   29.3402 C   0  0  0  0  0  0  0  0  0  0  0  0
   10.4975  -14.4538   28.3358 C   0  0  2  0  0  0  0  0  0  0  0  0
   10.2315  -13.0293   27.9757 C   0  0  0  0  0  0  0  0  0  0  0  0
   10.5462  -15.3764   27.1696 C   0  0  2  0  0  0  0  0  0  0  0  0
    9.5830  -15.0932   26.1371 N   0  0  0  0  0  0  0  0  0  0  0  0
   10.6622  -16.8162   27.5234 C   0  0  0  0  0  0  0  0  0  0  0  0
    9.9195  -17.8415   26.9819 O   0  0  0  0  0  0  0  0  0  0  0  0
   11.5162  -17.1834   28.4013 O   0  0  0  0  0  0  0  0  0  0  0  0
  2  1  1  0
  3  2  1  0
  3 10  1  0
  4  3  2  0
  6  8  1  0
  6  5  1  6
  7  6  1  0
  9 11  1  0
  9 10  1  0
  9  8  1  1
 11 17  1  0
 12 11  2  0
 14 13  1  1
 14 15  1  0
 16 14  1  0
 16 17  1  1
 18 19  1  0
 18 16  1  0
 20 18  2  0
M  END
$$$$
