GLV.pdb
     RDKit          3D

 20 19  0  0  1  0  0  0  0  0999 V2000
    4.4504  -18.8486   22.3171 N   0  0  0  0  0  0  0  0  0  0  0  0
    5.0575  -18.6570   23.6177 C   0  0  0  0  0  0  0  0  0  0  0  0
    6.0231  -17.5375   23.6151 C   0  0  0  0  0  0  0  0  0  0  0  0
    6.8913  -17.3731   22.7138 O   0  0  0  0  0  0  0  0  0  0  0  0
    7.1782  -12.5092   27.2033 C   0  0  0  0  0  0  0  0  0  0  0  0
    7.4772  -13.3861   26.0402 C   0  0  2  0  0  0  0  0  0  0  0  0
    7.6954  -12.5314   24.8021 C   0  0  0  0  0  0  0  0  0  0  0  0
    6.5436  -14.5142   25.7926 C   0  0  0  0  0  0  0  0  0  0  0  0
    6.9866  -15.5691   24.8481 C   0  0  2  0  0  0  0  0  0  0  0  0
    5.9680  -16.5948   24.6898 N   0  0  0  0  0  0  0  0  0  0  0  0
    8.2512  -16.2081   25.3906 C   0  0  0  0  0  0  0  0  0  0  0  0
    8.1717  -16.9406   26.3928 O   0  0  0  0  0  0  0  0  0  0  0  0
   12.1802  -15.6501   23.3270 C   0  0  0  0  0  0  0  0  0  0  0  0
   11.4423  -16.9421   23.6551 C   0  0  2  0  0  0  0  0  0  0  0  0
   10.6820  -17.3551   22.4381 C   0  0  0  0  0  0  0  0  0  0  0  0
   10.6025  -16.7908   24.8739 C   0  0  2  0  0  0  0  0  0  0  0  0
    9.4600  -15.9286   24.7148 N   0  0  0  0  0  0  0  0  0  0  0  0
   11.3679  -16.5711   26.1300 C   0  0  0  0  0  0  0  0  0  0  0  0
   12.2900  -17.4371   26.6737 O   0  0  0  0  0  0  0  0  0  0  0  0
   11.1898  -15.4950   26.7974 O   0  0  0  0  0  0  0  0  0  0  0  0
  2  1  1  0
  3  2  1  0
  3 10  1  0
  4  3  2  0
  6  8  1  0
  6  5  1  1
  7  6  1  0
  9 11  1  0
  9 10  1  0
  9  8  1  1
 11 17  1  0
 12 11  2  0
 14 13  1  6
 14 15  1  0
 16 14  1  0
 16 17  1  6
 18 19  1  0
 18 16  1  0
 20 18  2  0
M  END
$$$$
