GLV.pdb
     RDKit          3D

 20 19  0  0  1  0  0  0  0  0999 V2000
    7.4944  -15.2682   19.4320 N   0  0  0  0  0  0  0  0  0  0  0  0
    6.6669  -15.1367   20.6130 C   0  0  0  0  0  0  0  0  0  0  0  0
    7.4700  -14.8367   21.8175 C   0  0  0  0  0  0  0  0  0  0  0  0
    8.7287  -14.9262   21.8514 O   0  0  0  0  0  0  0  0  0  0  0  0
    6.3610  -12.2262   27.4224 C   0  0  0  0  0  0  0  0  0  0  0  0
    7.2691  -12.8222   26.4068 C   0  0  2  0  0  0  0  0  0  0  0  0
    8.4270  -11.8736   26.1412 C   0  0  0  0  0  0  0  0  0  0  0  0
    6.6430  -13.3167   25.1543 C   0  0  0  0  0  0  0  0  0  0  0  0
    7.5087  -14.0659   24.2107 C   0  0  2  0  0  0  0  0  0  0  0  0
    6.7830  -14.4245   23.0027 N   0  0  0  0  0  0  0  0  0  0  0  0
    7.9897  -15.3328   24.8928 C   0  0  0  0  0  0  0  0  0  0  0  0
    7.1471  -16.1429   25.3180 O   0  0  0  0  0  0  0  0  0  0  0  0
   12.3050  -16.4606   24.8153 C   0  0  0  0  0  0  0  0  0  0  0  0
   11.0477  -17.3006   24.6288 C   0  0  2  0  0  0  0  0  0  0  0  0
   10.7559  -17.3668   23.1659 C   0  0  0  0  0  0  0  0  0  0  0  0
    9.9219  -16.7789   25.4499 C   0  0  2  0  0  0  0  0  0  0  0  0
    9.3858  -15.5185   25.0052 N   0  0  0  0  0  0  0  0  0  0  0  0
   10.1313  -16.8735   26.9193 C   0  0  0  0  0  0  0  0  0  0  0  0
   10.2059  -15.8116   27.7926 O   0  0  0  0  0  0  0  0  0  0  0  0
   10.2555  -18.0226   27.4662 O   0  0  0  0  0  0  0  0  0  0  0  0
  2  1  1  0
  3  2  1  0
  3 10  1  0
  4  3  2  0
  6  8  1  0
  6  5  1  1
  7  6  1  0
  9 11  1  0
  9 10  1  0
  9  8  1  1
 11 17  1  0
 12 11  2  0
 14 13  1  6
 14 15  1  0
 16 14  1  0
 16 17  1  6
 18 19  1  0
 18 16  1  0
 20 18  2  0
M  END
$$$$
