KPW.pdb
     RDKit          3D

 31 33  0  0  1  0  0  0  0  0999 V2000
    9.4828  -17.7779   17.8783 N   0  0  0  0  0  0  0  0  0  0  0  0
    8.5714  -17.3480   18.8842 C   0  0  1  0  0  0  0  0  0  0  0  0
    7.8844  -18.5220   19.5234 C   0  0  0  0  0  0  0  0  0  0  0  0
    8.8275  -19.5454   20.0556 C   0  0  0  0  0  0  0  0  0  0  0  0
    8.1548  -20.6645   20.8102 C   0  0  0  0  0  0  0  0  0  0  0  0
    9.1001  -21.7103   21.2961 C   0  0  0  0  0  0  0  0  0  0  0  0
    8.4486  -22.7569   22.0626 N   0  0  0  0  0  0  0  0  0  0  0  0
    9.2416  -16.5089   19.9279 C   0  0  0  0  0  0  0  0  0  0  0  0
   10.5100  -16.4220   19.9196 O   0  0  0  0  0  0  0  0  0  0  0  0
    8.5155  -15.8080   20.9254 N   0  0  0  0  0  0  0  0  0  0  0  0
    7.0882  -15.7304   21.1403 C   0  0  0  0  0  0  0  0  0  0  0  0
    6.8624  -14.5509   22.0954 C   0  0  0  0  0  0  0  0  0  0  0  0
    8.1994  -13.7938   21.9994 C   0  0  0  0  0  0  0  0  0  0  0  0
    9.1347  -15.0112   21.9595 C   0  0  1  0  0  0  0  0  0  0  0  0
    8.9982  -15.6422   23.3065 C   0  0  0  0  0  0  0  0  0  0  0  0
    7.9679  -16.2628   23.6712 O   0  0  0  0  0  0  0  0  0  0  0  0
   10.0499  -15.5523   24.2208 N   0  0  0  0  0  0  0  0  0  0  0  0
   10.1646  -16.2164   25.4871 C   0  0  1  0  0  0  0  0  0  0  0  0
    9.5318  -15.5561   26.6297 C   0  0  0  0  0  0  0  0  0  0  0  0
    8.1922  -14.9936   26.3547 C   0  0  0  0  0  0  0  0  0  0  0  0
    7.0863  -15.7820   25.9981 C   0  0  0  0  0  0  0  0  0  0  0  0
    6.0045  -15.0177   25.8451 N   0  0  0  0  0  0  0  0  0  0  0  0
    6.3115  -13.7424   26.0783 C   0  0  0  0  0  0  0  0  0  0  0  0
    5.5868  -12.5648   26.0533 C   0  0  0  0  0  0  0  0  0  0  0  0
    6.1851  -11.3682   26.3350 C   0  0  0  0  0  0  0  0  0  0  0  0
    7.5178  -11.3419   26.6446 C   0  0  0  0  0  0  0  0  0  0  0  0
    8.2351  -12.5106   26.6693 C   0  0  0  0  0  0  0  0  0  0  0  0
    7.6733  -13.7290   26.3946 C   0  0  0  0  0  0  0  0  0  0  0  0
    9.8648  -17.6417   25.3908 C   0  0  0  0  0  0  0  0  0  0  0  0
    9.2369  -18.1138   24.4080 O   0  0  0  0  0  0  0  0  0  0  0  0
   10.2491  -18.5639   26.3683 O   0  0  0  0  0  0  0  0  0  0  0  0
  2  1  1  6
  3  2  1  0
  4  3  1  0
  5  4  1  0
  5  6  1  0
  6  7  1  0
  8  2  1  0
  9  8  2  0
 10  8  1  0
 10 11  1  0
 12 11  1  0
 13 12  1  0
 14 13  1  0
 14 10  1  0
 14 15  1  1
 15 16  2  0
 17 15  1  0
 18 29  1  0
 18 17  1  0
 18 19  1  1
 20 19  1  0
 20 21  2  0
 22 21  1  0
 23 22  1  0
 24 23  2  0
 25 24  1  0
 26 25  2  0
 26 27  1  0
 27 28  2  0
 28 23  1  0
 28 20  1  0
 29 31  1  0
 30 29  2  0
M  END
$$$$
