KPW.pdb
     RDKit          3D

 31 33  0  0  1  0  0  0  0  0999 V2000
    8.5622  -17.9387   17.5677 N   0  0  0  0  0  0  0  0  0  0  0  0
    7.8132  -17.0615   18.4022 C   0  0  1  0  0  0  0  0  0  0  0  0
    6.7478  -17.8122   19.1508 C   0  0  0  0  0  0  0  0  0  0  0  0
    7.2829  -18.6751   20.2412 C   0  0  0  0  0  0  0  0  0  0  0  0
    6.2272  -19.4722   20.9653 C   0  0  0  0  0  0  0  0  0  0  0  0
    6.4196  -20.9476   20.8661 C   0  0  0  0  0  0  0  0  0  0  0  0
    5.4434  -21.7031   21.6301 N   0  0  0  0  0  0  0  0  0  0  0  0
    8.6884  -16.3128   19.3592 C   0  0  0  0  0  0  0  0  0  0  0  0
    9.8839  -16.7097   19.5318 O   0  0  0  0  0  0  0  0  0  0  0  0
    8.2346  -15.1782   20.0806 N   0  0  0  0  0  0  0  0  0  0  0  0
    6.9507  -14.5155   20.0397 C   0  0  0  0  0  0  0  0  0  0  0  0
    7.1505  -13.1528   20.7163 C   0  0  0  0  0  0  0  0  0  0  0  0
    8.6830  -13.0064   20.7072 C   0  0  0  0  0  0  0  0  0  0  0  0
    9.0410  -14.4617   21.0420 C   0  0  1  0  0  0  0  0  0  0  0  0
    8.5533  -14.6635   22.4393 C   0  0  0  0  0  0  0  0  0  0  0  0
    7.8838  -13.8015   23.0625 O   0  0  0  0  0  0  0  0  0  0  0  0
    8.8415  -15.8564   23.1057 N   0  0  0  0  0  0  0  0  0  0  0  0
    9.7796  -16.0554   24.1725 C   0  0  1  0  0  0  0  0  0  0  0  0
    9.7019  -15.1171   25.2930 C   0  0  0  0  0  0  0  0  0  0  0  0
    8.3413  -14.6203   25.5903 C   0  0  0  0  0  0  0  0  0  0  0  0
    7.1859  -15.4022   25.4306 C   0  0  0  0  0  0  0  0  0  0  0  0
    6.1071  -14.7139   25.8049 N   0  0  0  0  0  0  0  0  0  0  0  0
    6.4629  -13.4969   26.2138 C   0  0  0  0  0  0  0  0  0  0  0  0
    5.7600  -12.4042   26.6877 C   0  0  0  0  0  0  0  0  0  0  0  0
    6.4077  -11.2504   27.0314 C   0  0  0  0  0  0  0  0  0  0  0  0
    7.7682  -11.1818   26.9026 C   0  0  0  0  0  0  0  0  0  0  0  0
    8.4641  -12.2663   26.4328 C   0  0  0  0  0  0  0  0  0  0  0  0
    7.8533  -13.4400   26.0790 C   0  0  0  0  0  0  0  0  0  0  0  0
    9.8609  -17.4544   24.5809 C   0  0  0  0  0  0  0  0  0  0  0  0
    9.0338  -18.3067   24.1658 O   0  0  0  0  0  0  0  0  0  0  0  0
   10.8476  -17.9342   25.4468 O   0  0  0  0  0  0  0  0  0  0  0  0
  2  1  1  1
  3  2  1  0
  4  3  1  0
  5  4  1  0
  5  6  1  0
  6  7  1  0
  8  2  1  0
  9  8  2  0
 10  8  1  0
 10 11  1  0
 12 11  1  0
 13 12  1  0
 14 13  1  0
 14 10  1  0
 14 15  1  1
 15 16  2  0
 17 15  1  0
 18 29  1  0
 18 17  1  0
 18 19  1  1
 20 19  1  0
 20 21  2  0
 22 21  1  0
 23 22  1  0
 24 23  2  0
 25 24  1  0
 26 25  2  0
 26 27  1  0
 27 28  2  0
 28 23  1  0
 28 20  1  0
 29 31  1  0
 30 29  2  0
M  END
$$$$
