KPW.pdb
     RDKit          3D

 31 33  0  0  1  0  0  0  0  0999 V2000
    6.0150  -16.8224   20.5523 N   0  0  0  0  0  0  0  0  0  0  0  0
    7.1958  -16.1620   20.9955 C   0  0  1  0  0  0  0  0  0  0  0  0
    6.9016  -14.7405   21.3853 C   0  0  0  0  0  0  0  0  0  0  0  0
    7.8374  -13.7519   20.7795 C   0  0  0  0  0  0  0  0  0  0  0  0
    7.5268  -13.4154   19.3427 C   0  0  0  0  0  0  0  0  0  0  0  0
    8.5980  -12.6267   18.6688 C   0  0  0  0  0  0  0  0  0  0  0  0
    8.2821  -12.2958   17.2911 N   0  0  0  0  0  0  0  0  0  0  0  0
    7.8515  -16.8851   22.1311 C   0  0  0  0  0  0  0  0  0  0  0  0
    7.1454  -17.6600   22.8505 O   0  0  0  0  0  0  0  0  0  0  0  0
    9.2298  -16.7383   22.4351 N   0  0  0  0  0  0  0  0  0  0  0  0
   10.2133  -15.8590   21.8445 C   0  0  0  0  0  0  0  0  0  0  0  0
   11.5833  -16.3925   22.2836 C   0  0  0  0  0  0  0  0  0  0  0  0
   11.2408  -17.8153   22.7612 C   0  0  0  0  0  0  0  0  0  0  0  0
    9.9117  -17.4943   23.4604 C   0  0  1  0  0  0  0  0  0  0  0  0
   10.2895  -16.6393   24.6254 C   0  0  0  0  0  0  0  0  0  0  0  0
   11.0274  -15.6271   24.5217 O   0  0  0  0  0  0  0  0  0  0  0  0
    9.8138  -16.9583   25.8990 N   0  0  0  0  0  0  0  0  0  0  0  0
   10.2536  -16.4217   27.1545 C   0  0  1  0  0  0  0  0  0  0  0  0
    9.3376  -15.4992   27.8265 C   0  0  0  0  0  0  0  0  0  0  0  0
    8.2204  -15.0160   26.9869 C   0  0  0  0  0  0  0  0  0  0  0  0
    7.2385  -15.8652   26.4516 C   0  0  0  0  0  0  0  0  0  0  0  0
    6.3386  -15.1575   25.7682 N   0  0  0  0  0  0  0  0  0  0  0  0
    6.6530  -13.8634   25.8063 C   0  0  0  0  0  0  0  0  0  0  0  0
    6.0789  -12.7242   25.2724 C   0  0  0  0  0  0  0  0  0  0  0  0
    6.6436  -11.4954   25.4732 C   0  0  0  0  0  0  0  0  0  0  0  0
    7.7911  -11.3981   26.2122 C   0  0  0  0  0  0  0  0  0  0  0  0
    8.3592  -12.5287   26.7413 C   0  0  0  0  0  0  0  0  0  0  0  0
    7.8245  -13.7771   26.5645 C   0  0  0  0  0  0  0  0  0  0  0  0
   10.8008  -17.4515   28.0324 C   0  0  0  0  0  0  0  0  0  0  0  0
   10.6651  -18.6747   27.7708 O   0  0  0  0  0  0  0  0  0  0  0  0
   11.5017  -17.1532   29.2043 O   0  0  0  0  0  0  0  0  0  0  0  0
  2  1  1  1
  3  2  1  0
  4  3  1  0
  5  4  1  0
  5  6  1  0
  6  7  1  0
  8  2  1  0
  9  8  2  0
 10  8  1  0
 10 11  1  0
 12 11  1  0
 13 12  1  0
 14 13  1  0
 14 10  1  0
 14 15  1  1
 15 16  2  0
 17 15  1  0
 18 29  1  0
 18 17  1  0
 18 19  1  1
 20 19  1  0
 20 21  2  0
 22 21  1  0
 23 22  1  0
 24 23  2  0
 25 24  1  0
 26 25  2  0
 26 27  1  0
 27 28  2  0
 28 23  1  0
 28 20  1  0
 29 31  1  0
 30 29  2  0
M  END
$$$$
