KPW.pdb
     RDKit          3D

 31 33  0  0  1  0  0  0  0  0999 V2000
    9.1216  -17.8344   17.6008 N   0  0  0  0  0  0  0  0  0  0  0  0
    8.2568  -17.1679   18.5145 C   0  0  1  0  0  0  0  0  0  0  0  0
    7.2731  -18.1290   19.1209 C   0  0  0  0  0  0  0  0  0  0  0  0
    7.3502  -19.5011   18.5454 C   0  0  0  0  0  0  0  0  0  0  0  0
    7.2447  -20.6020   19.5706 C   0  0  0  0  0  0  0  0  0  0  0  0
    7.3486  -21.9714   18.9897 C   0  0  0  0  0  0  0  0  0  0  0  0
    7.3456  -23.0193   19.9943 N   0  0  0  0  0  0  0  0  0  0  0  0
    9.0172  -16.4571   19.5911 C   0  0  0  0  0  0  0  0  0  0  0  0
   10.2848  -16.5529   19.6083 O   0  0  0  0  0  0  0  0  0  0  0  0
    8.3773  -15.6816   20.5925 N   0  0  0  0  0  0  0  0  0  0  0  0
    6.9689  -15.4362   20.8056 C   0  0  0  0  0  0  0  0  0  0  0  0
    6.8828  -14.2448   21.7688 C   0  0  0  0  0  0  0  0  0  0  0  0
    8.3006  -13.6517   21.6804 C   0  0  0  0  0  0  0  0  0  0  0  0
    9.0844  -14.9714   21.6333 C   0  0  1  0  0  0  0  0  0  0  0  0
    8.8704  -15.5910   22.9755 C   0  0  0  0  0  0  0  0  0  0  0  0
    7.7295  -15.8044   23.4576 O   0  0  0  0  0  0  0  0  0  0  0  0
    9.9728  -15.9590   23.7497 N   0  0  0  0  0  0  0  0  0  0  0  0
   10.0156  -16.1537   25.1702 C   0  0  1  0  0  0  0  0  0  0  0  0
    9.7323  -14.9807   25.9983 C   0  0  0  0  0  0  0  0  0  0  0  0
    8.3345  -14.5025   25.9354 C   0  0  0  0  0  0  0  0  0  0  0  0
    7.2574  -15.3237   25.5651 C   0  0  0  0  0  0  0  0  0  0  0  0
    6.1134  -14.6419   25.6294 N   0  0  0  0  0  0  0  0  0  0  0  0
    6.3501  -13.3919   26.0252 C   0  0  0  0  0  0  0  0  0  0  0  0
    5.5438  -12.2903   26.2459 C   0  0  0  0  0  0  0  0  0  0  0  0
    6.0802  -11.0997   26.6509 C   0  0  0  0  0  0  0  0  0  0  0  0
    7.4322  -11.0032   26.8382 C   0  0  0  0  0  0  0  0  0  0  0  0
    8.2306  -12.0966   26.6193 C   0  0  0  0  0  0  0  0  0  0  0  0
    7.7327  -13.3066   26.2145 C   0  0  0  0  0  0  0  0  0  0  0  0
    9.2952  -17.3540   25.5838 C   0  0  0  0  0  0  0  0  0  0  0  0
    9.2771  -17.7251   26.7859 O   0  0  0  0  0  0  0  0  0  0  0  0
    8.5877  -18.1592   24.6868 O   0  0  0  0  0  0  0  0  0  0  0  0
  2  1  1  6
  3  2  1  0
  4  3  1  0
  5  4  1  0
  5  6  1  0
  6  7  1  0
  8  2  1  0
  9  8  2  0
 10  8  1  0
 10 11  1  0
 12 11  1  0
 13 12  1  0
 14 13  1  0
 14 10  1  0
 14 15  1  1
 15 16  2  0
 17 15  1  0
 18 29  1  0
 18 17  1  0
 18 19  1  1
 20 19  1  0
 20 21  2  0
 22 21  1  0
 23 22  1  0
 24 23  2  0
 25 24  1  0
 26 25  2  0
 26 27  1  0
 27 28  2  0
 28 23  1  0
 28 20  1  0
 29 31  1  0
 30 29  2  0
M  END
$$$$
