KPW.pdb
     RDKit          3D

 31 33  0  0  1  0  0  0  0  0999 V2000
    7.8854  -18.4051   18.3118 N   0  0  0  0  0  0  0  0  0  0  0  0
    7.5730  -18.0431   19.6529 C   0  0  1  0  0  0  0  0  0  0  0  0
    7.4136  -19.2638   20.5151 C   0  0  0  0  0  0  0  0  0  0  0  0
    7.1189  -18.9501   21.9416 C   0  0  0  0  0  0  0  0  0  0  0  0
    7.0799  -20.1610   22.8395 C   0  0  0  0  0  0  0  0  0  0  0  0
    6.6184  -19.8624   24.2257 C   0  0  0  0  0  0  0  0  0  0  0  0
    6.7131  -21.0041   25.1171 N   0  0  0  0  0  0  0  0  0  0  0  0
    8.5993  -17.1245   20.2405 C   0  0  0  0  0  0  0  0  0  0  0  0
    9.8298  -17.3960   20.0716 O   0  0  0  0  0  0  0  0  0  0  0  0
    8.2511  -15.9636   20.9784 N   0  0  0  0  0  0  0  0  0  0  0  0
    6.9834  -15.5928   21.5656 C   0  0  0  0  0  0  0  0  0  0  0  0
    7.0848  -14.0975   21.8946 C   0  0  0  0  0  0  0  0  0  0  0  0
    8.2985  -13.6609   21.0542 C   0  0  0  0  0  0  0  0  0  0  0  0
    9.1779  -14.8984   21.2855 C   0  0  1  0  0  0  0  0  0  0  0  0
    9.5194  -14.8583   22.7391 C   0  0  0  0  0  0  0  0  0  0  0  0
    9.9399  -13.8237   23.3158 O   0  0  0  0  0  0  0  0  0  0  0  0
    9.3734  -16.0103   23.5147 N   0  0  0  0  0  0  0  0  0  0  0  0
    9.9783  -16.2895   24.7850 C   0  0  1  0  0  0  0  0  0  0  0  0
    9.6879  -15.3479   25.8670 C   0  0  0  0  0  0  0  0  0  0  0  0
    8.3015  -14.8341   25.8839 C   0  0  0  0  0  0  0  0  0  0  0  0
    7.1745  -15.6591   25.7393 C   0  0  0  0  0  0  0  0  0  0  0  0
    6.0580  -14.9357   25.8284 N   0  0  0  0  0  0  0  0  0  0  0  0
    6.3610  -13.6536   26.0267 C   0  0  0  0  0  0  0  0  0  0  0  0
    5.6055  -12.5053   26.1790 C   0  0  0  0  0  0  0  0  0  0  0  0
    6.2062  -11.2912   26.3636 C   0  0  0  0  0  0  0  0  0  0  0  0
    7.5722  -11.2176   26.3969 C   0  0  0  0  0  0  0  0  0  0  0  0
    8.3202  -12.3572   26.2460 C   0  0  0  0  0  0  0  0  0  0  0  0
    7.7574  -13.5919   26.0603 C   0  0  0  0  0  0  0  0  0  0  0  0
    9.8323  -17.6903   25.1688 C   0  0  0  0  0  0  0  0  0  0  0  0
   10.4508  -18.1667   26.1554 O   0  0  0  0  0  0  0  0  0  0  0  0
    9.0082  -18.5828   24.4775 O   0  0  0  0  0  0  0  0  0  0  0  0
  2  1  1  6
  3  2  1  0
  4  3  1  0
  5  4  1  0
  5  6  1  0
  6  7  1  0
  8  2  1  0
  9  8  2  0
 10  8  1  0
 10 11  1  0
 12 11  1  0
 13 12  1  0
 14 13  1  0
 14 10  1  0
 14 15  1  1
 15 16  2  0
 17 15  1  0
 18 29  1  0
 18 17  1  0
 18 19  1  1
 20 19  1  0
 20 21  2  0
 22 21  1  0
 23 22  1  0
 24 23  2  0
 25 24  1  0
 26 25  2  0
 26 27  1  0
 27 28  2  0
 28 23  1  0
 28 20  1  0
 29 31  1  0
 30 29  2  0
M  END
$$$$
