KPW.pdb
     RDKit          3D

 31 33  0  0  1  0  0  0  0  0999 V2000
   10.4349  -17.0726   17.0259 N   0  0  0  0  0  0  0  0  0  0  0  0
    9.7072  -17.4780   18.1805 C   0  0  1  0  0  0  0  0  0  0  0  0
   10.0712  -18.8807   18.5793 C   0  0  0  0  0  0  0  0  0  0  0  0
    8.9106  -19.8149   18.5943 C   0  0  0  0  0  0  0  0  0  0  0  0
    9.2627  -21.2223   19.0059 C   0  0  0  0  0  0  0  0  0  0  0  0
    8.0927  -22.1463   19.0363 C   0  0  0  0  0  0  0  0  0  0  0  0
    8.4375  -23.4899   19.4644 N   0  0  0  0  0  0  0  0  0  0  0  0
    9.9130  -16.5425   19.3315 C   0  0  0  0  0  0  0  0  0  0  0  0
   11.0680  -16.0431   19.5134 O   0  0  0  0  0  0  0  0  0  0  0  0
    8.8691  -16.1928   20.2268 N   0  0  0  0  0  0  0  0  0  0  0  0
    7.4893  -16.6231   20.2436 C   0  0  0  0  0  0  0  0  0  0  0  0
    6.7487  -15.6504   21.1709 C   0  0  0  0  0  0  0  0  0  0  0  0
    7.7389  -14.4757   21.2682 C   0  0  0  0  0  0  0  0  0  0  0  0
    9.0368  -15.2930   21.3448 C   0  0  1  0  0  0  0  0  0  0  0  0
    8.9606  -16.0093   22.6533 C   0  0  0  0  0  0  0  0  0  0  0  0
    8.7013  -17.2354   22.7492 O   0  0  0  0  0  0  0  0  0  0  0  0
    9.1839  -15.3064   23.8392 N   0  0  0  0  0  0  0  0  0  0  0  0
    9.7406  -15.8110   25.0611 C   0  0  1  0  0  0  0  0  0  0  0  0
    9.5259  -14.9995   26.2599 C   0  0  0  0  0  0  0  0  0  0  0  0
    8.1525  -14.4734   26.4126 C   0  0  0  0  0  0  0  0  0  0  0  0
    7.0096  -15.2886   26.3813 C   0  0  0  0  0  0  0  0  0  0  0  0
    5.9137  -14.5552   26.5788 N   0  0  0  0  0  0  0  0  0  0  0  0
    6.2460  -13.2756   26.7440 C   0  0  0  0  0  0  0  0  0  0  0  0
    5.5192  -12.1206   26.9680 C   0  0  0  0  0  0  0  0  0  0  0  0
    6.1458  -10.9116   27.0903 C   0  0  0  0  0  0  0  0  0  0  0  0
    7.5090  -10.8502   26.9885 C   0  0  0  0  0  0  0  0  0  0  0  0
    8.2285  -11.9965   26.7666 C   0  0  0  0  0  0  0  0  0  0  0  0
    7.6393  -13.2263   26.6396 C   0  0  0  0  0  0  0  0  0  0  0  0
    9.4554  -17.2298   25.2519 C   0  0  0  0  0  0  0  0  0  0  0  0
    8.4632  -17.7774   24.7055 O   0  0  0  0  0  0  0  0  0  0  0  0
   10.2529  -18.0628   26.0418 O   0  0  0  0  0  0  0  0  0  0  0  0
  2  1  1  6
  3  2  1  0
  4  3  1  0
  5  4  1  0
  5  6  1  0
  6  7  1  0
  8  2  1  0
  9  8  2  0
 10  8  1  0
 10 11  1  0
 12 11  1  0
 13 12  1  0
 14 13  1  0
 14 10  1  0
 14 15  1  1
 15 16  2  0
 17 15  1  0
 18 29  1  0
 18 17  1  0
 18 19  1  1
 20 19  1  0
 20 21  2  0
 22 21  1  0
 23 22  1  0
 24 23  2  0
 25 24  1  0
 26 25  2  0
 26 27  1  0
 27 28  2  0
 28 23  1  0
 28 20  1  0
 29 31  1  0
 30 29  2  0
M  END
$$$$
