KPW.pdb
     RDKit          3D

 31 33  0  0  1  0  0  0  0  0999 V2000
   10.2120  -17.3455   17.2796 N   0  0  0  0  0  0  0  0  0  0  0  0
    9.1594  -17.1812   18.2241 C   0  0  1  0  0  0  0  0  0  0  0  0
    8.6115  -18.5131   18.6542 C   0  0  0  0  0  0  0  0  0  0  0  0
    9.5764  -19.3249   19.4480 C   0  0  0  0  0  0  0  0  0  0  0  0
    9.0816  -20.7095   19.7827 C   0  0  0  0  0  0  0  0  0  0  0  0
    9.9971  -21.4702   20.6810 C   0  0  0  0  0  0  0  0  0  0  0  0
    9.5195  -22.8074   20.9828 N   0  0  0  0  0  0  0  0  0  0  0  0
    9.5950  -16.3903   19.4187 C   0  0  0  0  0  0  0  0  0  0  0  0
   10.8356  -16.1670   19.5840 O   0  0  0  0  0  0  0  0  0  0  0  0
    8.6765  -15.8811   20.3730 N   0  0  0  0  0  0  0  0  0  0  0  0
    7.2463  -16.0697   20.4647 C   0  0  0  0  0  0  0  0  0  0  0  0
    6.7347  -14.9991   21.4376 C   0  0  0  0  0  0  0  0  0  0  0  0
    7.9153  -14.0124   21.4860 C   0  0  0  0  0  0  0  0  0  0  0  0
    9.0562  -15.0403   21.4850 C   0  0  1  0  0  0  0  0  0  0  0  0
    8.9295  -15.7530   22.7916 C   0  0  0  0  0  0  0  0  0  0  0  0
    8.4588  -16.9137   22.8962 O   0  0  0  0  0  0  0  0  0  0  0  0
    9.3461  -15.1218   23.9656 N   0  0  0  0  0  0  0  0  0  0  0  0
    9.9429  -15.7306   25.1192 C   0  0  1  0  0  0  0  0  0  0  0  0
    9.5587  -15.1802   26.4197 C   0  0  0  0  0  0  0  0  0  0  0  0
    8.1745  -14.6647   26.4883 C   0  0  0  0  0  0  0  0  0  0  0  0
    7.0421  -15.4816   26.3393 C   0  0  0  0  0  0  0  0  0  0  0  0
    5.9301  -14.7599   26.4816 N   0  0  0  0  0  0  0  0  0  0  0  0
    6.2413  -13.4867   26.7207 C   0  0  0  0  0  0  0  0  0  0  0  0
    5.4927  -12.3435   26.9337 C   0  0  0  0  0  0  0  0  0  0  0  0
    6.1010  -11.1383   27.1496 C   0  0  0  0  0  0  0  0  0  0  0  0
    7.4676  -11.0687   27.1537 C   0  0  0  0  0  0  0  0  0  0  0  0
    8.2087  -12.2032   26.9426 C   0  0  0  0  0  0  0  0  0  0  0  0
    7.6382  -13.4290   26.7239 C   0  0  0  0  0  0  0  0  0  0  0  0
    9.8952  -17.1883   25.0597 C   0  0  0  0  0  0  0  0  0  0  0  0
   10.5948  -17.8981   25.8276 O   0  0  0  0  0  0  0  0  0  0  0  0
    9.0819  -17.8831   24.1601 O   0  0  0  0  0  0  0  0  0  0  0  0
  2  1  1  6
  3  2  1  0
  4  3  1  0
  5  4  1  0
  5  6  1  0
  6  7  1  0
  8  2  1  0
  9  8  2  0
 10  8  1  0
 10 11  1  0
 12 11  1  0
 13 12  1  0
 14 13  1  0
 14 10  1  0
 14 15  1  1
 15 16  2  0
 17 15  1  0
 18 29  1  0
 18 17  1  0
 18 19  1  1
 20 19  1  0
 20 21  2  0
 22 21  1  0
 23 22  1  0
 24 23  2  0
 25 24  1  0
 26 25  2  0
 26 27  1  0
 27 28  2  0
 28 23  1  0
 28 20  1  0
 29 31  1  0
 30 29  2  0
M  END
$$$$
