KPW.pdb
     RDKit          3D

 31 33  0  0  1  0  0  0  0  0999 V2000
    8.7405  -18.4714   18.6154 N   0  0  0  0  0  0  0  0  0  0  0  0
    8.0228  -17.7069   19.5785 C   0  0  1  0  0  0  0  0  0  0  0  0
    7.4052  -18.5981   20.6193 C   0  0  0  0  0  0  0  0  0  0  0  0
    8.4056  -19.3518   21.4264 C   0  0  0  0  0  0  0  0  0  0  0  0
    7.8003  -20.3886   22.3389 C   0  0  0  0  0  0  0  0  0  0  0  0
    8.8068  -21.1290   23.1528 C   0  0  0  0  0  0  0  0  0  0  0  0
    8.2131  -22.1222   24.0293 N   0  0  0  0  0  0  0  0  0  0  0  0
    8.8860  -16.6710   20.2299 C   0  0  0  0  0  0  0  0  0  0  0  0
   10.1478  -16.7589   20.1014 O   0  0  0  0  0  0  0  0  0  0  0  0
    8.3497  -15.5960   20.9852 N   0  0  0  0  0  0  0  0  0  0  0  0
    6.9785  -15.3245   21.3530 C   0  0  0  0  0  0  0  0  0  0  0  0
    6.9419  -13.8636   21.8210 C   0  0  0  0  0  0  0  0  0  0  0  0
    8.2659  -13.3101   21.2637 C   0  0  0  0  0  0  0  0  0  0  0  0
    9.1491  -14.5332   21.5502 C   0  0  1  0  0  0  0  0  0  0  0  0
    9.2147  -14.6166   23.0401 C   0  0  0  0  0  0  0  0  0  0  0  0
    9.2029  -13.6038   23.7842 O   0  0  0  0  0  0  0  0  0  0  0  0
    9.2934  -15.8661   23.6589 N   0  0  0  0  0  0  0  0  0  0  0  0
    9.9294  -16.1844   24.9046 C   0  0  1  0  0  0  0  0  0  0  0  0
    9.0692  -16.2106   26.0883 C   0  0  0  0  0  0  0  0  0  0  0  0
    7.8868  -15.3260   26.0130 C   0  0  0  0  0  0  0  0  0  0  0  0
    6.6122  -15.7776   25.6347 C   0  0  0  0  0  0  0  0  0  0  0  0
    5.7328  -14.7768   25.6885 N   0  0  0  0  0  0  0  0  0  0  0  0
    6.3394  -13.6587   26.0848 C   0  0  0  0  0  0  0  0  0  0  0  0
    5.9093  -12.3617   26.2974 C   0  0  0  0  0  0  0  0  0  0  0  0
    6.7828  -11.3923   26.7054 C   0  0  0  0  0  0  0  0  0  0  0  0
    8.0975  -11.7155   26.9040 C   0  0  0  0  0  0  0  0  0  0  0  0
    8.5226  -13.0022   26.6931 C   0  0  0  0  0  0  0  0  0  0  0  0
    7.6798  -14.0020   26.2856 C   0  0  0  0  0  0  0  0  0  0  0  0
   10.8120  -17.3417   24.7927 C   0  0  0  0  0  0  0  0  0  0  0  0
   10.8336  -18.0505   23.7534 O   0  0  0  0  0  0  0  0  0  0  0  0
   11.6792  -17.7343   25.8161 O   0  0  0  0  0  0  0  0  0  0  0  0
  2  1  1  6
  3  2  1  0
  4  3  1  0
  5  4  1  0
  5  6  1  0
  6  7  1  0
  8  2  1  0
  9  8  2  0
 10  8  1  0
 10 11  1  0
 12 11  1  0
 13 12  1  0
 14 13  1  0
 14 10  1  0
 14 15  1  1
 15 16  2  0
 17 15  1  0
 18 29  1  0
 18 17  1  0
 18 19  1  1
 20 19  1  0
 20 21  2  0
 22 21  1  0
 23 22  1  0
 24 23  2  0
 25 24  1  0
 26 25  2  0
 26 27  1  0
 27 28  2  0
 28 23  1  0
 28 20  1  0
 29 31  1  0
 30 29  2  0
M  END
$$$$
