RHG.pdb
     RDKit          3D

 26 26  0  0  1  0  0  0  0  0999 V2000
   21.2317   -5.8467  -22.2111 N   0  0  0  0  0  0  0  0  0  0  0  0
   21.8232   -6.4304  -21.0231 C   0  0  0  0  0  0  0  0  0  0  0  0
   23.1003   -6.4815  -20.9029 N   0  0  0  0  0  0  0  0  0  0  0  0
   21.0180   -6.9488  -19.9881 N   0  0  0  0  0  0  0  0  0  0  0  0
   19.5748   -6.8839  -20.0159 C   0  0  0  0  0  0  0  0  0  0  0  0
   19.0657   -7.4792  -18.7172 C   0  0  0  0  0  0  0  0  0  0  0  0
   19.0409   -8.9768  -18.9250 C   0  0  0  0  0  0  0  0  0  0  0  0
   18.5914   -9.7423  -17.7068 C   0  0  2  0  0  0  0  0  0  0  0  0
   19.4644   -9.5783  -16.5847 N   0  0  0  0  0  0  0  0  0  0  0  0
   18.4652  -11.1657  -18.1153 C   0  0  0  0  0  0  0  0  0  0  0  0
   17.7727  -11.4127  -19.1319 O   0  0  0  0  0  0  0  0  0  0  0  0
   23.5472   -6.8756  -20.0565 N   0  0  0  0  0  0  0  0  0  0  0  0
   19.0825  -12.2037  -17.4127 C   0  0  1  0  0  0  0  0  0  0  0  0
   18.8896  -13.6189  -17.7326 C   0  0  0  0  0  0  0  0  0  0  0  0
   20.2190  -14.2051  -18.0840 C   0  0  0  0  0  0  0  0  0  0  0  0
   20.5985  -13.9550  -19.4962 C   0  0  0  0  0  0  0  0  0  0  0  0
   19.8407  -13.3201  -20.4561 N   0  0  0  0  0  0  0  0  0  0  0  0
   20.5442  -13.3022  -21.5956 C   0  0  0  0  0  0  0  0  0  0  0  0
   21.7255  -13.9047  -21.3941 N   0  0  0  0  0  0  0  0  0  0  0  0
   21.7402  -14.2969  -20.1055 C   0  0  0  0  0  0  0  0  0  0  0  0
   18.2216  -14.2631  -16.5796 O   0  0  0  0  0  0  0  0  0  0  0  0
   18.6314  -13.9890  -15.4243 N   0  0  0  0  0  0  0  0  0  0  0  0
   17.1432  -15.1741  -16.7070 C   0  0  0  0  0  0  0  0  0  0  0  0
   16.5231  -15.8570  -15.5968 C   0  0  0  0  0  0  0  0  0  0  0  0
   15.4902  -14.9880  -15.0069 O   0  0  0  0  0  0  0  0  0  0  0  0
   15.3398  -13.8179  -15.4287 O   0  0  0  0  0  0  0  0  0  0  0  0
  2  3  2  0
  2  1  1  0
  4  2  1  0
  5  4  1  0
  6  5  1  0
  7  8  1  0
  7  6  1  0
  8 10  1  0
  8  9  1  1
 10 11  2  0
 12 10  1  0
 12 13  1  0
 13 20  1  0
 13 14  1  6
 15 14  1  0
 16 15  2  0
 17 18  1  0
 17 16  1  0
 18 19  2  0
 19 15  1  0
 20 21  2  0
 22 23  1  0
 22 20  1  0
 24 23  1  0
 25 24  2  0
 26 24  1  0
M  END
$$$$
