RHG.pdb
     RDKit          3D

 26 26  0  0  1  0  0  0  0  0999 V2000
   22.5053   -5.1462  -16.0093 N   0  0  0  0  0  0  0  0  0  0  0  0
   22.0828   -5.5267  -14.6757 C   0  0  0  0  0  0  0  0  0  0  0  0
   21.6056   -4.6410  -13.8782 N   0  0  0  0  0  0  0  0  0  0  0  0
   22.1868   -6.8611  -14.2317 N   0  0  0  0  0  0  0  0  0  0  0  0
   22.6774   -7.9273  -15.0745 C   0  0  0  0  0  0  0  0  0  0  0  0
   22.5703   -9.2186  -14.2862 C   0  0  0  0  0  0  0  0  0  0  0  0
   23.0980  -10.3073  -15.1933 C   0  0  0  0  0  0  0  0  0  0  0  0
   22.0201  -10.9966  -15.9902 C   0  0  2  0  0  0  0  0  0  0  0  0
   21.0040  -11.5851  -15.1721 N   0  0  0  0  0  0  0  0  0  0  0  0
   22.6972  -12.0005  -16.8518 C   0  0  0  0  0  0  0  0  0  0  0  0
   22.9286  -13.1266  -16.3494 O   0  0  0  0  0  0  0  0  0  0  0  0
   21.2574   -4.8941  -12.9369 N   0  0  0  0  0  0  0  0  0  0  0  0
   23.0706  -11.7257  -18.1699 C   0  0  2  0  0  0  0  0  0  0  0  0
   23.6036  -12.7373  -19.0835 C   0  0  0  0  0  0  0  0  0  0  0  0
   22.5120  -13.1439  -20.0204 C   0  0  0  0  0  0  0  0  0  0  0  0
   21.4985  -14.0134  -19.3741 C   0  0  0  0  0  0  0  0  0  0  0  0
   21.5273  -14.4995  -18.0851 N   0  0  0  0  0  0  0  0  0  0  0  0
   20.4295  -15.2433  -17.8974 C   0  0  0  0  0  0  0  0  0  0  0  0
   19.7017  -15.2476  -19.0240 N   0  0  0  0  0  0  0  0  0  0  0  0
   20.3711  -14.4907  -19.9148 C   0  0  0  0  0  0  0  0  0  0  0  0
   24.8006  -12.1725  -19.7459 O   0  0  0  0  0  0  0  0  0  0  0  0
   24.7816  -10.9613  -20.0784 N   0  0  0  0  0  0  0  0  0  0  0  0
   25.9692  -12.9238  -20.0266 C   0  0  0  0  0  0  0  0  0  0  0  0
   27.1536  -12.3799  -20.6469 C   0  0  0  0  0  0  0  0  0  0  0  0
   28.1017  -11.9603  -19.6004 O   0  0  0  0  0  0  0  0  0  0  0  0
   27.7011  -11.2789  -18.6284 O   0  0  0  0  0  0  0  0  0  0  0  0
  2  3  2  0
  2  1  1  0
  4  2  1  0
  5  4  1  0
  6  5  1  0
  7  8  1  0
  7  6  1  0
  8 10  1  0
  8  9  1  1
 10 11  2  0
 12 10  1  0
 12 13  1  0
 13 20  1  0
 13 14  1  1
 15 14  1  0
 16 15  2  0
 17 18  1  0
 17 16  1  0
 18 19  2  0
 19 15  1  0
 20 21  2  0
 22 23  1  0
 22 20  1  0
 24 23  1  0
 25 24  2  0
 26 24  1  0
M  END
$$$$
