RHG.pdb
     RDKit          3D

 26 26  0  0  1  0  0  0  0  0999 V2000
   20.0958  -11.7059    5.3615 N   0  0  0  0  0  0  0  0  0  0  0  0
   19.0883  -12.1878    6.2860 C   0  0  0  0  0  0  0  0  0  0  0  0
   18.8262  -11.5215    7.3515 N   0  0  0  0  0  0  0  0  0  0  0  0
   18.3846  -13.3842    6.0376 N   0  0  0  0  0  0  0  0  0  0  0  0
   18.6420  -14.2152    4.8838 C   0  0  0  0  0  0  0  0  0  0  0  0
   17.6759  -15.3832    4.9375 C   0  0  0  0  0  0  0  0  0  0  0  0
   18.0165  -16.2623    3.7553 C   0  0  0  0  0  0  0  0  0  0  0  0
   17.1567  -17.4967    3.6605 C   0  0  2  0  0  0  0  0  0  0  0  0
   15.7549  -17.2113    3.7005 N   0  0  0  0  0  0  0  0  0  0  0  0
   17.5766  -18.3994    4.7640 C   0  0  0  0  0  0  0  0  0  0  0  0
   16.7622  -18.5789    5.7013 O   0  0  0  0  0  0  0  0  0  0  0  0
   18.1152  -11.8466    8.0300 N   0  0  0  0  0  0  0  0  0  0  0  0
   18.8215  -19.0336    4.7798 C   0  0  1  0  0  0  0  0  0  0  0  0
   19.2584  -19.9235    5.8566 C   0  0  0  0  0  0  0  0  0  0  0  0
   19.8562  -21.1468    5.2397 C   0  0  0  0  0  0  0  0  0  0  0  0
   18.8306  -22.1241    4.7992 C   0  0  0  0  0  0  0  0  0  0  0  0
   17.4632  -21.9942    4.9097 N   0  0  0  0  0  0  0  0  0  0  0  0
   16.8988  -23.0944    4.3953 C   0  0  0  0  0  0  0  0  0  0  0  0
   17.8610  -23.9216    3.9606 N   0  0  0  0  0  0  0  0  0  0  0  0
   19.0344  -23.3114    4.2160 C   0  0  0  0  0  0  0  0  0  0  0  0
   20.1804  -19.1660    6.7323 O   0  0  0  0  0  0  0  0  0  0  0  0
   21.0880  -18.4845    6.1940 N   0  0  0  0  0  0  0  0  0  0  0  0
   20.0962  -19.1671    8.1471 C   0  0  0  0  0  0  0  0  0  0  0  0
   21.0679  -18.5501    9.0179 C   0  0  0  0  0  0  0  0  0  0  0  0
   20.9487  -17.0851    8.9191 O   0  0  0  0  0  0  0  0  0  0  0  0
   20.0988  -16.5757    8.1523 O   0  0  0  0  0  0  0  0  0  0  0  0
  2  3  2  0
  2  1  1  0
  4  2  1  0
  5  4  1  0
  6  5  1  0
  7  8  1  0
  7  6  1  0
  8 10  1  0
  8  9  1  1
 10 11  2  0
 12 10  1  0
 12 13  1  0
 13 20  1  0
 13 14  1  1
 15 14  1  0
 16 15  2  0
 17 18  1  0
 17 16  1  0
 18 19  2  0
 19 15  1  0
 20 21  2  0
 22 23  1  0
 22 20  1  0
 24 23  1  0
 25 24  2  0
 26 24  1  0
M  END
$$$$
