RHG.pdb
     RDKit          3D

 26 26  0  0  1  0  0  0  0  0999 V2000
   23.3770  -24.6557  -14.5019 N   0  0  0  0  0  0  0  0  0  0  0  0
   24.1804  -23.6386  -13.8524 C   0  0  0  0  0  0  0  0  0  0  0  0
   25.3096  -23.9526  -13.3285 N   0  0  0  0  0  0  0  0  0  0  0  0
   23.7431  -22.2998  -13.7825 N   0  0  0  0  0  0  0  0  0  0  0  0
   23.2345  -21.5846  -14.9303 C   0  0  0  0  0  0  0  0  0  0  0  0
   24.1659  -20.4161  -15.1899 C   0  0  0  0  0  0  0  0  0  0  0  0
   23.2908  -19.2846  -15.6799 C   0  0  0  0  0  0  0  0  0  0  0  0
   22.6159  -18.5251  -14.5664 C   0  0  2  0  0  0  0  0  0  0  0  0
   22.2326  -19.3584  -13.4679 N   0  0  0  0  0  0  0  0  0  0  0  0
   21.4535  -17.8213  -15.1683 C   0  0  0  0  0  0  0  0  0  0  0  0
   20.3265  -18.3566  -15.0371 O   0  0  0  0  0  0  0  0  0  0  0  0
   25.9413  -23.2324  -12.9364 N   0  0  0  0  0  0  0  0  0  0  0  0
   21.5848  -16.6125  -15.8567 C   0  0  1  0  0  0  0  0  0  0  0  0
   20.4520  -15.8881  -16.4350 C   0  0  0  0  0  0  0  0  0  0  0  0
   19.9006  -14.9709  -15.3914 C   0  0  0  0  0  0  0  0  0  0  0  0
   18.9099  -15.6374  -14.5108 C   0  0  0  0  0  0  0  0  0  0  0  0
   18.5267  -16.9603  -14.5501 N   0  0  0  0  0  0  0  0  0  0  0  0
   17.6126  -17.1564  -13.5911 C   0  0  0  0  0  0  0  0  0  0  0  0
   17.4002  -16.0022  -12.9417 N   0  0  0  0  0  0  0  0  0  0  0  0
   18.2018  -15.0858  -13.5179 C   0  0  0  0  0  0  0  0  0  0  0  0
   20.9212  -15.2073  -17.6627 O   0  0  0  0  0  0  0  0  0  0  0  0
   21.9428  -14.4802  -17.5872 N   0  0  0  0  0  0  0  0  0  0  0  0
   20.2805  -15.3302  -18.9209 C   0  0  0  0  0  0  0  0  0  0  0  0
   20.6398  -14.5668  -20.0921 C   0  0  0  0  0  0  0  0  0  0  0  0
   19.8070  -14.9980  -21.2281 O   0  0  0  0  0  0  0  0  0  0  0  0
   18.9598  -15.9081  -21.0743 O   0  0  0  0  0  0  0  0  0  0  0  0
  2  3  2  0
  2  1  1  0
  4  2  1  0
  5  4  1  0
  6  5  1  0
  7  8  1  0
  7  6  1  0
  8 10  1  0
  8  9  1  1
 10 11  2  0
 12 10  1  0
 12 13  1  0
 13 20  1  0
 13 14  1  6
 15 14  1  0
 16 15  2  0
 17 18  1  0
 17 16  1  0
 18 19  2  0
 19 15  1  0
 20 21  2  0
 22 23  1  0
 22 20  1  0
 24 23  1  0
 25 24  2  0
 26 24  1  0
M  END
$$$$
