RHG.pdb
     RDKit          3D

 26 26  0  0  1  0  0  0  0  0999 V2000
   21.6379  -15.7270  -20.3925 N   0  0  0  0  0  0  0  0  0  0  0  0
   21.6985  -15.6508  -18.9460 C   0  0  0  0  0  0  0  0  0  0  0  0
   20.8258  -14.9620  -18.3040 N   0  0  0  0  0  0  0  0  0  0  0  0
   22.7056  -16.3226  -18.2229 N   0  0  0  0  0  0  0  0  0  0  0  0
   23.6925  -17.1648  -18.8590 C   0  0  0  0  0  0  0  0  0  0  0  0
   23.4190  -18.5934  -18.4292 C   0  0  0  0  0  0  0  0  0  0  0  0
   23.3591  -18.5715  -16.9185 C   0  0  0  0  0  0  0  0  0  0  0  0
   24.2895  -19.5634  -16.2685 C   0  0  2  0  0  0  0  0  0  0  0  0
   24.9761  -20.3930  -17.2110 N   0  0  0  0  0  0  0  0  0  0  0  0
   23.4732  -20.3572  -15.3134 C   0  0  0  0  0  0  0  0  0  0  0  0
   23.4196  -21.5974  -15.4954 O   0  0  0  0  0  0  0  0  0  0  0  0
   20.8786  -14.8469  -17.2767 N   0  0  0  0  0  0  0  0  0  0  0  0
   22.7846  -19.7699  -14.2489 C   0  0  2  0  0  0  0  0  0  0  0  0
   21.9393  -20.5244  -13.3223 C   0  0  0  0  0  0  0  0  0  0  0  0
   22.3807  -20.2153  -11.9280 C   0  0  0  0  0  0  0  0  0  0  0  0
   23.6536  -20.8874  -11.5693 C   0  0  0  0  0  0  0  0  0  0  0  0
   24.4203  -21.6941  -12.3818 N   0  0  0  0  0  0  0  0  0  0  0  0
   25.4847  -22.1006  -11.6779 C   0  0  0  0  0  0  0  0  0  0  0  0
   25.4221  -21.5799  -10.4434 N   0  0  0  0  0  0  0  0  0  0  0  0
   24.2963  -20.8417  -10.3961 C   0  0  0  0  0  0  0  0  0  0  0  0
   20.5276  -20.1836  -13.6078 O   0  0  0  0  0  0  0  0  0  0  0  0
   20.1510  -18.9998  -13.4209 N   0  0  0  0  0  0  0  0  0  0  0  0
   19.5751  -21.1205  -14.0808 C   0  0  0  0  0  0  0  0  0  0  0  0
   18.1858  -20.8127  -14.3231 C   0  0  0  0  0  0  0  0  0  0  0  0
   18.0792  -19.9491  -15.5118 O   0  0  0  0  0  0  0  0  0  0  0  0
   18.3399  -18.7268  -15.4239 O   0  0  0  0  0  0  0  0  0  0  0  0
  2  3  2  0
  2  1  1  0
  4  2  1  0
  5  4  1  0
  6  5  1  0
  7  8  1  0
  7  6  1  0
  8 10  1  0
  8  9  1  6
 10 11  2  0
 12 10  1  0
 12 13  1  0
 13 20  1  0
 13 14  1  6
 15 14  1  0
 16 15  2  0
 17 18  1  0
 17 16  1  0
 18 19  2  0
 19 15  1  0
 20 21  2  0
 22 23  1  0
 22 20  1  0
 24 23  1  0
 25 24  2  0
 26 24  1  0
M  END
$$$$
