RHG.pdb
     RDKit          3D

 26 26  0  0  1  0  0  0  0  0999 V2000
   27.6011  -20.1539  -12.1769 N   0  0  0  0  0  0  0  0  0  0  0  0
   26.5678  -20.9214  -11.5096 C   0  0  0  0  0  0  0  0  0  0  0  0
   26.3462  -20.7438  -10.2577 N   0  0  0  0  0  0  0  0  0  0  0  0
   25.7950  -21.8682  -12.2130 N   0  0  0  0  0  0  0  0  0  0  0  0
   25.8892  -22.0432  -13.6442 C   0  0  0  0  0  0  0  0  0  0  0  0
   24.4760  -22.0838  -14.1934 C   0  0  0  0  0  0  0  0  0  0  0  0
   23.9702  -20.6593  -14.1521 C   0  0  0  0  0  0  0  0  0  0  0  0
   22.5515  -20.5425  -13.6565 C   0  0  2  0  0  0  0  0  0  0  0  0
   21.8416  -21.7849  -13.6826 N   0  0  0  0  0  0  0  0  0  0  0  0
   21.8902  -19.5016  -14.4860 C   0  0  0  0  0  0  0  0  0  0  0  0
   22.5859  -18.5183  -14.8366 O   0  0  0  0  0  0  0  0  0  0  0  0
   25.6092  -21.2734   -9.7598 N   0  0  0  0  0  0  0  0  0  0  0  0
   20.5504  -19.5917  -14.8722 C   0  0  1  0  0  0  0  0  0  0  0  0
   19.8958  -18.6141  -15.7429 C   0  0  0  0  0  0  0  0  0  0  0  0
   20.6411  -18.5672  -17.0378 C   0  0  0  0  0  0  0  0  0  0  0  0
   21.6936  -17.5218  -17.0539 C   0  0  0  0  0  0  0  0  0  0  0  0
   21.9260  -16.5675  -16.0875 N   0  0  0  0  0  0  0  0  0  0  0  0
   22.9631  -15.8187  -16.4843 C   0  0  0  0  0  0  0  0  0  0  0  0
   23.3996  -16.2639  -17.6719 N   0  0  0  0  0  0  0  0  0  0  0  0
   22.6115  -17.3048  -18.0036 C   0  0  0  0  0  0  0  0  0  0  0  0
   18.4709  -18.9938  -15.8695 O   0  0  0  0  0  0  0  0  0  0  0  0
   18.1927  -20.1996  -16.0856 N   0  0  0  0  0  0  0  0  0  0  0  0
   17.4009  -18.0708  -15.7606 C   0  0  0  0  0  0  0  0  0  0  0  0
   16.0235  -18.3876  -16.0538 C   0  0  0  0  0  0  0  0  0  0  0  0
   15.4146  -19.0403  -14.8819 O   0  0  0  0  0  0  0  0  0  0  0  0
   16.1053  -19.2678  -13.8617 O   0  0  0  0  0  0  0  0  0  0  0  0
  2  3  2  0
  2  1  1  0
  4  2  1  0
  5  4  1  0
  6  5  1  0
  7  8  1  0
  7  6  1  0
  8 10  1  0
  8  9  1  6
 10 11  2  0
 12 10  1  0
 12 13  1  0
 13 20  1  0
 13 14  1  1
 15 14  1  0
 16 15  2  0
 17 18  1  0
 17 16  1  0
 18 19  2  0
 19 15  1  0
 20 21  2  0
 22 23  1  0
 22 20  1  0
 24 23  1  0
 25 24  2  0
 26 24  1  0
M  END
$$$$
