RHG.pdb
     RDKit          3D

 26 26  0  0  1  0  0  0  0  0999 V2000
   30.6459  -21.5591   -8.9325 N   0  0  0  0  0  0  0  0  0  0  0  0
   31.0718  -21.6326  -10.3164 C   0  0  0  0  0  0  0  0  0  0  0  0
   32.1605  -22.2416  -10.6196 N   0  0  0  0  0  0  0  0  0  0  0  0
   30.3090  -21.0429  -11.3454 N   0  0  0  0  0  0  0  0  0  0  0  0
   28.9782  -20.5232  -11.1297 C   0  0  0  0  0  0  0  0  0  0  0  0
   28.0687  -21.7021  -10.8411 C   0  0  0  0  0  0  0  0  0  0  0  0
   27.0358  -21.7137  -11.9454 C   0  0  0  0  0  0  0  0  0  0  0  0
   25.7343  -21.0619  -11.5540 C   0  0  2  0  0  0  0  0  0  0  0  0
   24.9865  -21.8246  -10.6015 N   0  0  0  0  0  0  0  0  0  0  0  0
   24.9733  -20.8321  -12.8097 C   0  0  0  0  0  0  0  0  0  0  0  0
   25.5473  -20.1873  -13.7199 O   0  0  0  0  0  0  0  0  0  0  0  0
   32.5133  -22.2638  -11.5925 N   0  0  0  0  0  0  0  0  0  0  0  0
   23.6711  -21.3045  -12.9930 C   0  0  1  0  0  0  0  0  0  0  0  0
   22.9254  -21.1461  -14.2424 C   0  0  0  0  0  0  0  0  0  0  0  0
   22.4094  -22.4875  -14.6532 C   0  0  0  0  0  0  0  0  0  0  0  0
   23.4462  -23.3227  -15.3078 C   0  0  0  0  0  0  0  0  0  0  0  0
   24.7524  -22.9678  -15.5657 N   0  0  0  0  0  0  0  0  0  0  0  0
   25.3523  -24.0023  -16.1687 C   0  0  0  0  0  0  0  0  0  0  0  0
   24.4718  -25.0050  -16.3039 N   0  0  0  0  0  0  0  0  0  0  0  0
   23.3129  -24.5709  -15.7721 C   0  0  0  0  0  0  0  0  0  0  0  0
   21.8752  -20.1264  -14.0239 O   0  0  0  0  0  0  0  0  0  0  0  0
   21.3922  -20.0064  -12.8705 N   0  0  0  0  0  0  0  0  0  0  0  0
   21.3830  -19.2763  -15.0457 C   0  0  0  0  0  0  0  0  0  0  0  0
   20.4240  -18.2194  -14.8295 C   0  0  0  0  0  0  0  0  0  0  0  0
   19.0738  -18.8004  -14.7319 O   0  0  0  0  0  0  0  0  0  0  0  0
   18.9090  -20.0327  -14.8863 O   0  0  0  0  0  0  0  0  0  0  0  0
  2  3  2  0
  2  1  1  0
  4  2  1  0
  5  4  1  0
  6  5  1  0
  7  8  1  0
  7  6  1  0
  8 10  1  0
  8  9  1  1
 10 11  2  0
 12 10  1  0
 12 13  1  0
 13 20  1  0
 13 14  1  6
 15 14  1  0
 16 15  2  0
 17 18  1  0
 17 16  1  0
 18 19  2  0
 19 15  1  0
 20 21  2  0
 22 23  1  0
 22 20  1  0
 24 23  1  0
 25 24  2  0
 26 24  1  0
M  END
$$$$
