VKS.pdb
     RDKit          3D

 23 22  0  0  1  0  0  0  0  0999 V2000
   17.4482  -14.2004  -15.3812 C   0  0  0  0  0  0  0  0  0  0  0  0
   18.1768  -14.1214  -16.7059 C   0  0  2  0  0  0  0  0  0  0  0  0
   19.3279  -15.1078  -16.6338 C   0  0  0  0  0  0  0  0  0  0  0  0
   18.7644  -12.7327  -16.8164 C   0  0  2  0  0  0  0  0  0  0  0  0
   19.7134  -12.5202  -15.7498 N   0  0  0  0  0  0  0  0  0  0  0  0
   17.7324  -11.6805  -16.7373 C   0  0  0  0  0  0  0  0  0  0  0  0
   16.9072  -11.5222  -17.7018 O   0  0  0  0  0  0  0  0  0  0  0  0
   17.6079  -10.8232  -15.6286 N   0  0  0  0  0  0  0  0  0  0  0  0
   16.5921   -9.7506  -15.5663 C   0  0  1  0  0  0  0  0  0  0  0  0
   15.5695  -10.1366  -14.5212 C   0  0  0  0  0  0  0  0  0  0  0  0
   14.4261   -9.2094  -14.4122 C   0  0  0  0  0  0  0  0  0  0  0  0
   13.3448   -9.7533  -13.5089 C   0  0  0  0  0  0  0  0  0  0  0  0
   12.1814   -8.7579  -13.4758 C   0  0  0  0  0  0  0  0  0  0  0  0
   11.1574   -9.3675  -12.6422 N   0  0  0  0  0  0  0  0  0  0  0  0
   17.3283   -8.5641  -15.0755 C   0  0  0  0  0  0  0  0  0  0  0  0
   18.0331   -8.6618  -14.0074 O   0  0  0  0  0  0  0  0  0  0  0  0
   18.8269   -5.5205  -17.2468 O   0  0  0  0  0  0  0  0  0  0  0  0
   19.2749   -5.7566  -15.9316 C   0  0  0  0  0  0  0  0  0  0  0  0
   18.0861   -6.1708  -15.1385 C   0  0  2  0  0  0  0  0  0  0  0  0
   17.3477   -7.2847  -15.6759 N   0  0  0  0  0  0  0  0  0  0  0  0
   17.2271   -4.9560  -14.9175 C   0  0  0  0  0  0  0  0  0  0  0  0
   17.7257   -3.9236  -14.1748 O   0  0  0  0  0  0  0  0  0  0  0  0
   16.0868   -4.9088  -15.4090 O   0  0  0  0  0  0  0  0  0  0  0  0
  2  1  1  1
  3  2  1  0
  4  5  1  1
  4  2  1  0
  6  4  1  0
  6  7  2  0
  8  9  1  0
  8  6  1  0
  9 15  1  0
  9 10  1  1
 11 10  1  0
 12 11  1  0
 12 13  1  0
 14 13  1  0
 15 16  2  0
 17 18  1  0
 19 18  1  6
 19 21  1  0
 20 15  1  0
 20 19  1  0
 21 23  2  0
 21 22  1  0
M  END
$$$$
