VKS.pdb
     RDKit          3D

 23 22  0  0  1  0  0  0  0  0999 V2000
   23.2646  -12.6639  -17.7433 C   0  0  0  0  0  0  0  0  0  0  0  0
   24.5803  -11.9487  -17.5215 C   0  0  2  0  0  0  0  0  0  0  0  0
   25.5753  -12.9943  -17.0524 C   0  0  0  0  0  0  0  0  0  0  0  0
   24.3754  -10.9657  -16.3912 C   0  0  2  0  0  0  0  0  0  0  0  0
   24.0539  -11.6794  -15.1785 N   0  0  0  0  0  0  0  0  0  0  0  0
   23.2861  -10.0100  -16.6713 C   0  0  0  0  0  0  0  0  0  0  0  0
   23.3903   -9.1922  -17.6495 O   0  0  0  0  0  0  0  0  0  0  0  0
   22.1117   -9.9522  -15.8985 N   0  0  0  0  0  0  0  0  0  0  0  0
   21.0332   -8.9773  -16.1678 C   0  0  1  0  0  0  0  0  0  0  0  0
   19.7090   -9.6879  -15.9986 C   0  0  0  0  0  0  0  0  0  0  0  0
   18.5243   -8.8314  -16.2034 C   0  0  0  0  0  0  0  0  0  0  0  0
   17.2378   -9.6144  -16.0914 C   0  0  0  0  0  0  0  0  0  0  0  0
   16.0626   -8.6800  -16.3938 C   0  0  0  0  0  0  0  0  0  0  0  0
   16.0964   -8.4469  -17.8289 N   0  0  0  0  0  0  0  0  0  0  0  0
   21.1581   -7.9714  -15.0892 C   0  0  0  0  0  0  0  0  0  0  0  0
   21.1495   -8.3601  -13.8661 O   0  0  0  0  0  0  0  0  0  0  0  0
   23.0528   -4.4302  -15.3317 O   0  0  0  0  0  0  0  0  0  0  0  0
   22.7935   -5.0065  -14.0721 C   0  0  0  0  0  0  0  0  0  0  0  0
   21.4583   -5.6572  -14.1619 C   0  0  2  0  0  0  0  0  0  0  0  0
   21.2956   -6.5751  -15.2599 N   0  0  0  0  0  0  0  0  0  0  0  0
   20.4117   -4.5769  -14.1471 C   0  0  0  0  0  0  0  0  0  0  0  0
   19.6012   -4.4308  -15.2370 O   0  0  0  0  0  0  0  0  0  0  0  0
   20.2998   -3.8395  -13.1532 O   0  0  0  0  0  0  0  0  0  0  0  0
  2  1  1  1
  3  2  1  0
  4  5  1  1
  4  2  1  0
  6  4  1  0
  6  7  2  0
  8  9  1  0
  8  6  1  0
  9 15  1  0
  9 10  1  1
 11 10  1  0
 12 11  1  0
 12 13  1  0
 14 13  1  0
 15 16  2  0
 17 18  1  0
 19 18  1  6
 19 21  1  0
 20 15  1  0
 20 19  1  0
 21 23  2  0
 21 22  1  0
M  END
$$$$
