VKS.pdb
     RDKit          3D

 23 22  0  0  1  0  0  0  0  0999 V2000
   23.2397  -13.2884  -16.7346 C   0  0  0  0  0  0  0  0  0  0  0  0
   24.4475  -12.6841  -17.4186 C   0  0  2  0  0  0  0  0  0  0  0  0
   25.6336  -13.5673  -17.0771 C   0  0  0  0  0  0  0  0  0  0  0  0
   24.6873  -11.3272  -16.7965 C   0  0  2  0  0  0  0  0  0  0  0  0
   24.9903  -11.4822  -15.3938 N   0  0  0  0  0  0  0  0  0  0  0  0
   23.5160  -10.4383  -16.9240 C   0  0  0  0  0  0  0  0  0  0  0  0
   23.1110  -10.0784  -18.0828 O   0  0  0  0  0  0  0  0  0  0  0  0
   22.8062   -9.9558  -15.8090 N   0  0  0  0  0  0  0  0  0  0  0  0
   21.6788   -9.0078  -15.9369 C   0  0  1  0  0  0  0  0  0  0  0  0
   20.4581   -9.6478  -15.3146 C   0  0  0  0  0  0  0  0  0  0  0  0
   19.2486   -8.8016  -15.3297 C   0  0  0  0  0  0  0  0  0  0  0  0
   18.0657   -9.4998  -14.7020 C   0  0  0  0  0  0  0  0  0  0  0  0
   16.9032   -8.5080  -14.6007 C   0  0  0  0  0  0  0  0  0  0  0  0
   15.7708   -9.2695  -14.0976 N   0  0  0  0  0  0  0  0  0  0  0  0
   22.0671   -7.8477  -15.1036 C   0  0  0  0  0  0  0  0  0  0  0  0
   22.4932   -8.0486  -13.9098 O   0  0  0  0  0  0  0  0  0  0  0  0
   22.1411   -3.9055  -16.3865 O   0  0  0  0  0  0  0  0  0  0  0  0
   23.0439   -4.2401  -15.3574 C   0  0  0  0  0  0  0  0  0  0  0  0
   22.4693   -5.4122  -14.6433 C   0  0  2  0  0  0  0  0  0  0  0  0
   22.0241   -6.4889  -15.4901 N   0  0  0  0  0  0  0  0  0  0  0  0
   21.3905   -4.9131  -13.7215 C   0  0  0  0  0  0  0  0  0  0  0  0
   21.7292   -4.0501  -12.7183 O   0  0  0  0  0  0  0  0  0  0  0  0
   20.2173   -5.2893  -13.8838 O   0  0  0  0  0  0  0  0  0  0  0  0
  2  1  1  1
  3  2  1  0
  4  5  1  1
  4  2  1  0
  6  4  1  0
  6  7  2  0
  8  9  1  0
  8  6  1  0
  9 15  1  0
  9 10  1  1
 11 10  1  0
 12 11  1  0
 12 13  1  0
 14 13  1  0
 15 16  2  0
 17 18  1  0
 19 18  1  6
 19 21  1  0
 20 15  1  0
 20 19  1  0
 21 23  2  0
 21 22  1  0
M  END
$$$$
