VKS.pdb
     RDKit          3D

 23 22  0  0  1  0  0  0  0  0999 V2000
   33.3231   -3.2785  -15.4079 C   0  0  0  0  0  0  0  0  0  0  0  0
   33.5197   -4.2767  -14.2869 C   0  0  2  0  0  0  0  0  0  0  0  0
   34.0499   -3.5007  -13.0953 C   0  0  0  0  0  0  0  0  0  0  0  0
   34.5967   -5.2428  -14.7257 C   0  0  2  0  0  0  0  0  0  0  0  0
   35.8169   -4.5206  -14.9956 N   0  0  0  0  0  0  0  0  0  0  0  0
   34.2182   -5.9879  -15.9423 C   0  0  0  0  0  0  0  0  0  0  0  0
   34.6635   -5.6165  -17.0826 O   0  0  0  0  0  0  0  0  0  0  0  0
   33.3727   -7.1120  -15.9099 N   0  0  0  0  0  0  0  0  0  0  0  0
   33.0112   -7.8671  -17.1287 C   0  0  1  0  0  0  0  0  0  0  0  0
   33.0001   -9.3386  -16.7799 C   0  0  0  0  0  0  0  0  0  0  0  0
   32.6367  -10.2300  -17.8989 C   0  0  0  0  0  0  0  0  0  0  0  0
   32.7600  -11.6868  -17.5206 C   0  0  0  0  0  0  0  0  0  0  0  0
   32.5192  -12.5433  -18.7672 C   0  0  0  0  0  0  0  0  0  0  0  0
   32.6347  -13.9258  -18.3307 N   0  0  0  0  0  0  0  0  0  0  0  0
   31.6220   -7.4535  -17.4285 C   0  0  0  0  0  0  0  0  0  0  0  0
   30.7693   -7.3824  -16.4720 O   0  0  0  0  0  0  0  0  0  0  0  0
   30.3774   -4.6654  -19.8821 O   0  0  0  0  0  0  0  0  0  0  0  0
   29.5412   -5.7828  -20.0776 C   0  0  0  0  0  0  0  0  0  0  0  0
   29.7479   -6.6856  -18.9131 C   0  0  2  0  0  0  0  0  0  0  0  0
   31.1077   -7.1099  -18.6994 N   0  0  0  0  0  0  0  0  0  0  0  0
   28.7922   -7.8399  -19.0430 C   0  0  0  0  0  0  0  0  0  0  0  0
   27.4497   -7.5883  -19.0223 O   0  0  0  0  0  0  0  0  0  0  0  0
   29.2329   -8.9952  -19.1660 O   0  0  0  0  0  0  0  0  0  0  0  0
  2  1  1  6
  3  2  1  0
  4  5  1  6
  4  2  1  0
  6  4  1  0
  6  7  2  0
  8  9  1  0
  8  6  1  0
  9 15  1  0
  9 10  1  1
 11 10  1  0
 12 11  1  0
 12 13  1  0
 14 13  1  0
 15 16  2  0
 17 18  1  0
 19 18  1  6
 19 21  1  0
 20 15  1  0
 20 19  1  0
 21 23  2  0
 21 22  1  0
M  END
$$$$
