VKS.pdb
     RDKit          3D

 23 22  0  0  1  0  0  0  0  0999 V2000
   15.0761  -13.7853  -15.2873 C   0  0  0  0  0  0  0  0  0  0  0  0
   16.2111  -13.6137  -16.2743 C   0  0  2  0  0  0  0  0  0  0  0  0
   17.0929  -14.8425  -16.1479 C   0  0  0  0  0  0  0  0  0  0  0  0
   17.0200  -12.4165  -15.8292 C   0  0  2  0  0  0  0  0  0  0  0  0
   17.5539  -12.6541  -14.5094 N   0  0  0  0  0  0  0  0  0  0  0  0
   16.2145  -11.1804  -15.7896 C   0  0  0  0  0  0  0  0  0  0  0  0
   15.6831  -10.7302  -16.8626 O   0  0  0  0  0  0  0  0  0  0  0  0
   15.9969  -10.4557  -14.6033 N   0  0  0  0  0  0  0  0  0  0  0  0
   15.1770   -9.2258  -14.5652 C   0  0  1  0  0  0  0  0  0  0  0  0
   14.2949   -9.2909  -13.3386 C   0  0  0  0  0  0  0  0  0  0  0  0
   13.0192  -10.0058  -13.5395 C   0  0  0  0  0  0  0  0  0  0  0  0
   12.2071  -10.0758  -12.2682 C   0  0  0  0  0  0  0  0  0  0  0  0
   10.9289  -10.8740  -12.5414 C   0  0  0  0  0  0  0  0  0  0  0  0
   10.2929  -11.0652  -11.2475 N   0  0  0  0  0  0  0  0  0  0  0  0
   16.1530   -8.1295  -14.3740 C   0  0  0  0  0  0  0  0  0  0  0  0
   17.2977   -8.3930  -13.8572 O   0  0  0  0  0  0  0  0  0  0  0  0
   19.1382   -5.1098  -15.4070 O   0  0  0  0  0  0  0  0  0  0  0  0
   18.2387   -6.1920  -15.4838 C   0  0  0  0  0  0  0  0  0  0  0  0
   17.0253   -5.7999  -14.7171 C   0  0  2  0  0  0  0  0  0  0  0  0
   15.9615   -6.7709  -14.7134 N   0  0  0  0  0  0  0  0  0  0  0  0
   16.5791   -4.4503  -15.2091 C   0  0  0  0  0  0  0  0  0  0  0  0
   17.1382   -3.3316  -14.6595 O   0  0  0  0  0  0  0  0  0  0  0  0
   15.7164   -4.3725  -16.1000 O   0  0  0  0  0  0  0  0  0  0  0  0
  2  1  1  1
  3  2  1  0
  4  5  1  1
  4  2  1  0
  6  4  1  0
  6  7  2  0
  8  9  1  0
  8  6  1  0
  9 15  1  0
  9 10  1  1
 11 10  1  0
 12 11  1  0
 12 13  1  0
 14 13  1  0
 15 16  2  0
 17 18  1  0
 19 18  1  6
 19 21  1  0
 20 15  1  0
 20 19  1  0
 21 23  2  0
 21 22  1  0
M  END
$$$$
