VKS.pdb
     RDKit          3D

 23 22  0  0  1  0  0  0  0  0999 V2000
   25.7116  -22.2845  -11.1109 C   0  0  0  0  0  0  0  0  0  0  0  0
   25.9829  -20.8532  -10.6989 C   0  0  2  0  0  0  0  0  0  0  0  0
   25.2312  -20.6194   -9.4014 C   0  0  0  0  0  0  0  0  0  0  0  0
   25.3748  -19.9564  -11.7534 C   0  0  2  0  0  0  0  0  0  0  0  0
   23.9624  -20.2303  -11.8688 N   0  0  0  0  0  0  0  0  0  0  0  0
   25.9960  -20.1496  -13.0782 C   0  0  0  0  0  0  0  0  0  0  0  0
   27.2556  -19.9802  -13.2234 O   0  0  0  0  0  0  0  0  0  0  0  0
   25.2550  -20.5194  -14.2157 N   0  0  0  0  0  0  0  0  0  0  0  0
   25.8780  -20.6931  -15.5453 C   0  0  1  0  0  0  0  0  0  0  0  0
   25.1100  -21.7663  -16.2838 C   0  0  0  0  0  0  0  0  0  0  0  0
   25.4701  -23.1469  -15.9052 C   0  0  0  0  0  0  0  0  0  0  0  0
   24.5808  -24.1651  -16.5784 C   0  0  0  0  0  0  0  0  0  0  0  0
   25.0366  -25.5681  -16.1672 C   0  0  0  0  0  0  0  0  0  0  0  0
   24.0372  -26.4837  -16.6948 N   0  0  0  0  0  0  0  0  0  0  0  0
   25.6515  -19.4045  -16.2375 C   0  0  0  0  0  0  0  0  0  0  0  0
   24.4823  -18.8761  -16.2107 O   0  0  0  0  0  0  0  0  0  0  0  0
   28.6798  -16.9992  -17.6326 O   0  0  0  0  0  0  0  0  0  0  0  0
   27.4992  -16.3612  -17.2025 C   0  0  0  0  0  0  0  0  0  0  0  0
   26.3836  -17.3192  -17.4296 C   0  0  2  0  0  0  0  0  0  0  0  0
   26.6166  -18.6573  -16.9502 N   0  0  0  0  0  0  0  0  0  0  0  0
   26.0249  -17.2789  -18.8899 C   0  0  0  0  0  0  0  0  0  0  0  0
   25.8953  -18.4574  -19.5685 O   0  0  0  0  0  0  0  0  0  0  0  0
   25.8529  -16.1848  -19.4532 O   0  0  0  0  0  0  0  0  0  0  0  0
  2  1  1  6
  3  2  1  0
  4  5  1  6
  4  2  1  0
  6  4  1  0
  6  7  2  0
  8  9  1  0
  8  6  1  0
  9 15  1  0
  9 10  1  6
 11 10  1  0
 12 11  1  0
 12 13  1  0
 14 13  1  0
 15 16  2  0
 17 18  1  0
 19 18  1  6
 19 21  1  0
 20 15  1  0
 20 19  1  0
 21 23  2  0
 21 22  1  0
M  END
$$$$
