VKS.pdb
     RDKit          3D

 23 22  0  0  1  0  0  0  0  0999 V2000
   23.3278  -12.4151  -15.1539 C   0  0  0  0  0  0  0  0  0  0  0  0
   23.1603  -10.9989  -15.6621 C   0  0  2  0  0  0  0  0  0  0  0  0
   23.5238  -10.0744  -14.5147 C   0  0  0  0  0  0  0  0  0  0  0  0
   21.6934  -10.7995  -15.9694 C   0  0  2  0  0  0  0  0  0  0  0  0
   21.2418  -11.8298  -16.8738 N   0  0  0  0  0  0  0  0  0  0  0  0
   21.4247   -9.4867  -16.5881 C   0  0  0  0  0  0  0  0  0  0  0  0
   22.2377   -9.0105  -17.4532 O   0  0  0  0  0  0  0  0  0  0  0  0
   20.2929   -8.7151  -16.2665 N   0  0  0  0  0  0  0  0  0  0  0  0
   20.0290   -7.3990  -16.8864 C   0  0  1  0  0  0  0  0  0  0  0  0
   18.6104   -7.4061  -17.4104 C   0  0  0  0  0  0  0  0  0  0  0  0
   18.4899   -7.7284  -18.8459 C   0  0  0  0  0  0  0  0  0  0  0  0
   17.0492   -7.7538  -19.2979 C   0  0  0  0  0  0  0  0  0  0  0  0
   17.0032   -8.1288  -20.7820 C   0  0  0  0  0  0  0  0  0  0  0  0
   15.5978   -8.3227  -21.1020 N   0  0  0  0  0  0  0  0  0  0  0  0
   20.1021   -6.4346  -15.7659 C   0  0  0  0  0  0  0  0  0  0  0  0
   19.6793   -6.7879  -14.6068 O   0  0  0  0  0  0  0  0  0  0  0  0
   23.0759   -4.9267  -14.3549 O   0  0  0  0  0  0  0  0  0  0  0  0
   21.8325   -4.8717  -13.6939 C   0  0  0  0  0  0  0  0  0  0  0  0
   20.8535   -4.3079  -14.6623 C   0  0  2  0  0  0  0  0  0  0  0  0
   20.6088   -5.1167  -15.8287 N   0  0  0  0  0  0  0  0  0  0  0  0
   21.2897   -2.9098  -15.0052 C   0  0  0  0  0  0  0  0  0  0  0  0
   21.4420   -2.0017  -13.9961 O   0  0  0  0  0  0  0  0  0  0  0  0
   21.5035   -2.6031  -16.1902 O   0  0  0  0  0  0  0  0  0  0  0  0
  2  1  1  1
  3  2  1  0
  4  5  1  6
  4  2  1  0
  6  4  1  0
  6  7  2  0
  8  9  1  0
  8  6  1  0
  9 15  1  0
  9 10  1  1
 11 10  1  0
 12 11  1  0
 12 13  1  0
 14 13  1  0
 15 16  2  0
 17 18  1  0
 19 18  1  1
 19 21  1  0
 20 15  1  0
 20 19  1  0
 21 23  2  0
 21 22  1  0
M  END
$$$$
