VKS.pdb
     RDKit          3D

 23 22  0  0  1  0  0  0  0  0999 V2000
   15.1269  -13.0209  -20.4275 C   0  0  0  0  0  0  0  0  0  0  0  0
   14.8920  -11.5711  -20.0605 C   0  0  2  0  0  0  0  0  0  0  0  0
   13.9450  -11.0022  -21.1011 C   0  0  0  0  0  0  0  0  0  0  0  0
   16.2143  -10.8507  -20.1959 C   0  0  2  0  0  0  0  0  0  0  0  0
   16.9818  -11.4404  -21.2667 N   0  0  0  0  0  0  0  0  0  0  0  0
   17.0161  -10.9155  -18.9584 C   0  0  0  0  0  0  0  0  0  0  0  0
   16.4861  -11.3446  -17.8762 O   0  0  0  0  0  0  0  0  0  0  0  0
   18.3654  -10.5197  -18.9084 N   0  0  0  0  0  0  0  0  0  0  0  0
   19.1538  -10.5485  -17.6579 C   0  0  1  0  0  0  0  0  0  0  0  0
   20.5329  -11.0743  -17.9878 C   0  0  0  0  0  0  0  0  0  0  0  0
   21.0542  -12.0685  -17.0292 C   0  0  0  0  0  0  0  0  0  0  0  0
   20.6938  -13.4792  -17.4301 C   0  0  0  0  0  0  0  0  0  0  0  0
   21.2293  -14.4463  -16.3702 C   0  0  0  0  0  0  0  0  0  0  0  0
   20.5987  -15.7280  -16.6435 N   0  0  0  0  0  0  0  0  0  0  0  0
   19.2839   -9.1279  -17.2631 C   0  0  0  0  0  0  0  0  0  0  0  0
   19.6049   -8.2580  -18.1503 O   0  0  0  0  0  0  0  0  0  0  0  0
   18.6941   -5.3200  -14.4074 O   0  0  0  0  0  0  0  0  0  0  0  0
   18.3882   -6.6871  -14.5610 C   0  0  0  0  0  0  0  0  0  0  0  0
   19.2625   -7.2055  -15.6476 C   0  0  2  0  0  0  0  0  0  0  0  0
   19.0826   -8.5982  -15.9683 N   0  0  0  0  0  0  0  0  0  0  0  0
   20.6868   -6.8680  -15.3007 C   0  0  0  0  0  0  0  0  0  0  0  0
   21.0994   -5.5699  -15.4043 O   0  0  0  0  0  0  0  0  0  0  0  0
   21.4607   -7.7660  -14.9284 O   0  0  0  0  0  0  0  0  0  0  0  0
  2  1  1  6
  3  2  1  0
  4  5  1  6
  4  2  1  0
  6  4  1  0
  6  7  2  0
  8  9  1  0
  8  6  1  0
  9 15  1  0
  9 10  1  6
 11 10  1  0
 12 11  1  0
 12 13  1  0
 14 13  1  0
 15 16  2  0
 17 18  1  0
 19 18  1  1
 19 21  1  0
 20 15  1  0
 20 19  1  0
 21 23  2  0
 21 22  1  0
M  END
$$$$
