VKS.pdb
     RDKit          3D

 23 22  0  0  1  0  0  0  0  0999 V2000
   21.8974  -12.3224  -18.4448 C   0  0  0  0  0  0  0  0  0  0  0  0
   23.0599  -11.5317  -19.0063 C   0  0  2  0  0  0  0  0  0  0  0  0
   24.2079  -12.5076  -19.1886 C   0  0  0  0  0  0  0  0  0  0  0  0
   23.4713  -10.5252  -17.9558 C   0  0  2  0  0  0  0  0  0  0  0  0
   23.9001  -11.2154  -16.7628 N   0  0  0  0  0  0  0  0  0  0  0  0
   22.3697   -9.6118  -17.5943 C   0  0  0  0  0  0  0  0  0  0  0  0
   21.8961   -8.8060  -18.4676 O   0  0  0  0  0  0  0  0  0  0  0  0
   21.8015   -9.5823  -16.3075 N   0  0  0  0  0  0  0  0  0  0  0  0
   20.7640   -8.6020  -15.9217 C   0  0  1  0  0  0  0  0  0  0  0  0
   19.8391   -9.2681  -14.9277 C   0  0  0  0  0  0  0  0  0  0  0  0
   18.5144   -9.6278  -15.4705 C   0  0  0  0  0  0  0  0  0  0  0  0
   17.6703  -10.3605  -14.4548 C   0  0  0  0  0  0  0  0  0  0  0  0
   16.2997  -10.6551  -15.0714 C   0  0  0  0  0  0  0  0  0  0  0  0
   15.5734  -11.4313  -14.0788 N   0  0  0  0  0  0  0  0  0  0  0  0
   21.5032   -7.5302  -15.2175 C   0  0  0  0  0  0  0  0  0  0  0  0
   22.4972   -7.8429  -14.4684 O   0  0  0  0  0  0  0  0  0  0  0  0
   23.7381   -3.5716  -14.6406 O   0  0  0  0  0  0  0  0  0  0  0  0
   22.9777   -4.4066  -15.4836 C   0  0  0  0  0  0  0  0  0  0  0  0
   22.0284   -5.1505  -14.6120 C   0  0  2  0  0  0  0  0  0  0  0  0
   21.2305   -6.1449  -15.2821 N   0  0  0  0  0  0  0  0  0  0  0  0
   21.1966   -4.1447  -13.8642 C   0  0  0  0  0  0  0  0  0  0  0  0
   21.6159   -3.7298  -12.6321 O   0  0  0  0  0  0  0  0  0  0  0  0
   20.1496   -3.7096  -14.3726 O   0  0  0  0  0  0  0  0  0  0  0  0
  2  1  1  1
  3  2  1  0
  4  5  1  1
  4  2  1  0
  6  4  1  0
  6  7  2  0
  8  9  1  0
  8  6  1  0
  9 15  1  0
  9 10  1  1
 11 10  1  0
 12 11  1  0
 12 13  1  0
 14 13  1  0
 15 16  2  0
 17 18  1  0
 19 18  1  6
 19 21  1  0
 20 15  1  0
 20 19  1  0
 21 23  2  0
 21 22  1  0
M  END
$$$$
