VKS.pdb
     RDKit          3D

 23 22  0  0  1  0  0  0  0  0999 V2000
   18.0391  -13.6919  -16.4701 C   0  0  0  0  0  0  0  0  0  0  0  0
   19.2033  -13.3295  -17.3675 C   0  0  2  0  0  0  0  0  0  0  0  0
   20.3268  -14.2965  -17.0419 C   0  0  0  0  0  0  0  0  0  0  0  0
   19.6600  -11.9421  -16.9772 C   0  0  2  0  0  0  0  0  0  0  0  0
   20.0870  -11.9409  -15.5984 N   0  0  0  0  0  0  0  0  0  0  0  0
   18.5912  -10.9364  -17.1340 C   0  0  0  0  0  0  0  0  0  0  0  0
   18.1323  -10.6689  -18.2978 O   0  0  0  0  0  0  0  0  0  0  0  0
   18.0390  -10.2412  -16.0425 N   0  0  0  0  0  0  0  0  0  0  0  0
   16.8568   -9.3636  -16.1780 C   0  0  1  0  0  0  0  0  0  0  0  0
   15.8046   -9.8444  -15.2040 C   0  0  0  0  0  0  0  0  0  0  0  0
   14.6121  -10.4415  -15.8368 C   0  0  0  0  0  0  0  0  0  0  0  0
   13.5670  -10.8264  -14.8168 C   0  0  0  0  0  0  0  0  0  0  0  0
   12.3573  -11.4167  -15.5472 C   0  0  0  0  0  0  0  0  0  0  0  0
   11.4889  -11.9548  -14.5120 N   0  0  0  0  0  0  0  0  0  0  0  0
   17.3244   -8.0320  -15.7320 C   0  0  0  0  0  0  0  0  0  0  0  0
   17.9582   -7.9306  -14.6206 O   0  0  0  0  0  0  0  0  0  0  0  0
   18.7838   -3.5458  -16.3992 O   0  0  0  0  0  0  0  0  0  0  0  0
   18.2375   -4.6774  -17.0373 C   0  0  0  0  0  0  0  0  0  0  0  0
   17.7022   -5.5605  -15.9661 C   0  0  2  0  0  0  0  0  0  0  0  0
   17.1488   -6.8102  -16.4206 N   0  0  0  0  0  0  0  0  0  0  0  0
   16.7305   -4.7591  -15.1437 C   0  0  0  0  0  0  0  0  0  0  0  0
   17.1829   -4.1295  -14.0190 O   0  0  0  0  0  0  0  0  0  0  0  0
   15.5413   -4.6817  -15.4955 O   0  0  0  0  0  0  0  0  0  0  0  0
  2  1  1  1
  3  2  1  0
  4  5  1  1
  4  2  1  0
  6  4  1  0
  6  7  2  0
  8  9  1  0
  8  6  1  0
  9 15  1  0
  9 10  1  1
 11 10  1  0
 12 11  1  0
 12 13  1  0
 14 13  1  0
 15 16  2  0
 17 18  1  0
 19 18  1  6
 19 21  1  0
 20 15  1  0
 20 19  1  0
 21 23  2  0
 21 22  1  0
M  END
$$$$
