ARR.pdb
     RDKit          3D

 28 27  0  0  1  0  0  0  0  0999 V2000
    7.1675  -21.4774   19.0699 C   0  0  0  0  0  0  0  0  0  0  0  0
    8.0471  -21.3017   20.3104 C   0  0  2  0  0  0  0  0  0  0  0  0
    7.1897  -21.3037   21.4669 N   0  0  0  0  0  0  0  0  0  0  0  0
    8.7462  -20.0015   20.1438 C   0  0  0  0  0  0  0  0  0  0  0  0
    9.5698  -19.8714   19.2062 O   0  0  0  0  0  0  0  0  0  0  0  0
    7.2478  -12.6751   18.0581 N   0  0  0  0  0  0  0  0  0  0  0  0
    7.7434  -12.8996   19.3623 C   0  0  0  0  0  0  0  0  0  0  0  0
    8.1760  -11.8736   20.0418 N   0  0  0  0  0  0  0  0  0  0  0  0
    7.7904  -14.1889   19.9409 N   0  0  0  0  0  0  0  0  0  0  0  0
    6.9438  -15.2509   19.5343 C   0  0  0  0  0  0  0  0  0  0  0  0
    7.1543  -16.5169   20.2959 C   0  0  0  0  0  0  0  0  0  0  0  0
    8.3716  -16.4750   21.1439 C   0  0  0  0  0  0  0  0  0  0  0  0
    9.2957  -17.6420   20.8475 C   0  0  2  0  0  0  0  0  0  0  0  0
    8.5353  -18.8945   20.9870 N   0  0  0  0  0  0  0  0  0  0  0  0
   10.4537  -17.6692   21.7552 C   0  0  0  0  0  0  0  0  0  0  0  0
   10.4950  -18.4416   22.7612 O   0  0  0  0  0  0  0  0  0  0  0  0
    8.6896  -12.0353   20.9088 N   0  0  0  0  0  0  0  0  0  0  0  0
   17.8522  -13.1543   20.6939 C   0  0  0  0  0  0  0  0  0  0  0  0
   18.2181  -14.1081   21.6928 N   0  0  0  0  0  0  0  0  0  0  0  0
   19.3750  -13.9927   22.2694 N   0  0  0  0  0  0  0  0  0  0  0  0
   17.3256  -15.1544   22.0379 C   0  0  0  0  0  0  0  0  0  0  0  0
   15.9949  -15.1033   21.3502 C   0  0  0  0  0  0  0  0  0  0  0  0
   15.2578  -16.2892   21.8403 C   0  0  0  0  0  0  0  0  0  0  0  0
   13.9129  -16.6043   21.4130 C   0  0  1  0  0  0  0  0  0  0  0  0
   12.8130  -17.0482   22.2889 N   0  0  0  0  0  0  0  0  0  0  0  0
   11.5510  -16.8129   21.5014 C   0  0  0  0  0  0  0  0  0  0  0  0
   12.5569  -16.3397   23.5378 O   0  0  0  0  0  0  0  0  0  0  0  0
   11.6234  -15.4495   23.6439 O   0  0  0  0  0  0  0  0  0  0  0  0
  2  1  1  6
  2  3  1  0
  4  2  1  0
  5  4  2  0
  7  6  1  0
  7  8  2  0
  9  7  1  0
 10  9  1  0
 11 10  1  0
 13 12  1  1
 12 11  1  0
 13 14  1  0
 14  4  1  0
 15 25  1  0
 15 13  1  0
 16 15  2  0
 18 17  1  0
 18 19  2  0
 20 18  1  0
 21 20  1  0
 22 21  1  0
 23 22  1  0
 24 23  1  6
 24 25  1  0
 26 28  1  0
 26 24  1  0
 27 26  2  0
M  END
$$$$
