ARR.pdb
     RDKit          3D

 28 27  0  0  1  0  0  0  0  0999 V2000
    7.4591  -12.0674   27.0701 C   0  0  0  0  0  0  0  0  0  0  0  0
    6.2098  -12.3267   26.2242 C   0  0  2  0  0  0  0  0  0  0  0  0
    5.1165  -12.6026   27.1193 N   0  0  0  0  0  0  0  0  0  0  0  0
    6.5261  -13.4949   25.3625 C   0  0  0  0  0  0  0  0  0  0  0  0
    6.3776  -14.6503   25.8288 O   0  0  0  0  0  0  0  0  0  0  0  0
    8.3520  -12.3017   18.2769 N   0  0  0  0  0  0  0  0  0  0  0  0
    8.4953  -13.6306   17.8181 C   0  0  0  0  0  0  0  0  0  0  0  0
    8.6856  -13.8245   16.5423 N   0  0  0  0  0  0  0  0  0  0  0  0
    8.4310  -14.7418   18.6901 N   0  0  0  0  0  0  0  0  0  0  0  0
    7.2802  -15.0602   19.4543 C   0  0  0  0  0  0  0  0  0  0  0  0
    7.5683  -15.3438   20.8908 C   0  0  0  0  0  0  0  0  0  0  0  0
    7.3155  -14.1708   21.7643 C   0  0  0  0  0  0  0  0  0  0  0  0
    7.3736  -14.5489   23.2330 C   0  0  2  0  0  0  0  0  0  0  0  0
    6.9879  -13.3786   24.0381 N   0  0  0  0  0  0  0  0  0  0  0  0
    8.7181  -14.9952   23.6319 C   0  0  0  0  0  0  0  0  0  0  0  0
    9.6220  -14.1710   23.9693 O   0  0  0  0  0  0  0  0  0  0  0  0
    8.7906  -14.7792   16.1971 N   0  0  0  0  0  0  0  0  0  0  0  0
   11.9176  -21.0588   28.8398 C   0  0  0  0  0  0  0  0  0  0  0  0
   11.8921  -19.7152   29.3251 N   0  0  0  0  0  0  0  0  0  0  0  0
   12.3984  -19.4658   30.4937 N   0  0  0  0  0  0  0  0  0  0  0  0
   11.3225  -18.6845   28.5353 C   0  0  0  0  0  0  0  0  0  0  0  0
   11.5581  -18.8139   27.0609 C   0  0  0  0  0  0  0  0  0  0  0  0
   10.8133  -17.6917   26.4478 C   0  0  0  0  0  0  0  0  0  0  0  0
   10.2243  -17.7729   25.1299 C   0  0  2  0  0  0  0  0  0  0  0  0
   10.4037  -16.7910   24.0447 N   0  0  0  0  0  0  0  0  0  0  0  0
    9.0127  -16.3789   23.6403 C   0  0  0  0  0  0  0  0  0  0  0  0
   11.0001  -17.2142   22.7827 O   0  0  0  0  0  0  0  0  0  0  0  0
   10.3769  -17.9883   21.9535 O   0  0  0  0  0  0  0  0  0  0  0  0
  2  1  1  1
  2  3  1  0
  4  2  1  0
  5  4  2  0
  7  6  1  0
  7  8  2  0
  9  7  1  0
 10  9  1  0
 11 10  1  0
 13 12  1  6
 12 11  1  0
 13 14  1  0
 14  4  1  0
 15 25  1  0
 15 13  1  0
 16 15  2  0
 18 17  1  0
 18 19  2  0
 20 18  1  0
 21 20  1  0
 22 21  1  0
 23 22  1  0
 24 23  1  1
 24 25  1  0
 26 28  1  0
 26 24  1  0
 27 26  2  0
M  END
$$$$
