ARR.pdb
     RDKit          3D

 28 27  0  0  1  0  0  0  0  0999 V2000
    8.7778  -14.6424   17.1937 C   0  0  0  0  0  0  0  0  0  0  0  0
    8.1695  -13.8022   18.3196 C   0  0  2  0  0  0  0  0  0  0  0  0
    8.0813  -12.4407   17.8601 N   0  0  0  0  0  0  0  0  0  0  0  0
    9.0878  -13.9347   19.4801 C   0  0  0  0  0  0  0  0  0  0  0  0
   10.0414  -13.1273   19.5942 O   0  0  0  0  0  0  0  0  0  0  0  0
   10.5197  -20.8607   23.4829 N   0  0  0  0  0  0  0  0  0  0  0  0
   11.0595  -20.1348   24.5685 C   0  0  0  0  0  0  0  0  0  0  0  0
   11.7697  -20.7827   25.4502 N   0  0  0  0  0  0  0  0  0  0  0  0
   10.8478  -18.7459   24.7284 N   0  0  0  0  0  0  0  0  0  0  0  0
    9.8546  -18.0275   24.0160 C   0  0  0  0  0  0  0  0  0  0  0  0
   10.4052  -17.0379   23.0441 C   0  0  0  0  0  0  0  0  0  0  0  0
    9.3784  -16.0794   22.5647 C   0  0  0  0  0  0  0  0  0  0  0  0
    9.9483  -15.1257   21.5307 C   0  0  2  0  0  0  0  0  0  0  0  0
    8.9477  -14.9253   20.4700 N   0  0  0  0  0  0  0  0  0  0  0  0
   11.1934  -15.6394   20.9377 C   0  0  0  0  0  0  0  0  0  0  0  0
   11.1919  -16.6078   20.1176 O   0  0  0  0  0  0  0  0  0  0  0  0
   12.2100  -20.2624   26.2100 N   0  0  0  0  0  0  0  0  0  0  0  0
   18.1903  -11.6524   17.3680 C   0  0  0  0  0  0  0  0  0  0  0  0
   17.6923  -12.8265   16.7239 N   0  0  0  0  0  0  0  0  0  0  0  0
   17.8462  -12.9452   15.4408 N   0  0  0  0  0  0  0  0  0  0  0  0
   17.0454  -13.8342   17.4833 C   0  0  0  0  0  0  0  0  0  0  0  0
   15.8557  -13.3696   18.2673 C   0  0  0  0  0  0  0  0  0  0  0  0
   15.2409  -14.6022   18.8086 C   0  0  0  0  0  0  0  0  0  0  0  0
   14.0339  -14.5882   19.6044 C   0  0  1  0  0  0  0  0  0  0  0  0
   13.6717  -15.5767   20.6367 N   0  0  0  0  0  0  0  0  0  0  0  0
   12.4253  -15.0394   21.2894 C   0  0  0  0  0  0  0  0  0  0  0  0
   14.5657  -15.7961   21.7681 O   0  0  0  0  0  0  0  0  0  0  0  0
   15.7306  -16.3423   21.6277 O   0  0  0  0  0  0  0  0  0  0  0  0
  2  1  1  6
  2  3  1  0
  4  2  1  0
  5  4  2  0
  7  6  1  0
  7  8  2  0
  9  7  1  0
 10  9  1  0
 11 10  1  0
 13 12  1  1
 12 11  1  0
 13 14  1  0
 14  4  1  0
 15 25  1  0
 15 13  1  0
 16 15  2  0
 18 17  1  0
 18 19  2  0
 20 18  1  0
 21 20  1  0
 22 21  1  0
 23 22  1  0
 24 23  1  6
 24 25  1  0
 26 28  1  0
 26 24  1  0
 27 26  2  0
M  END
$$$$
