ARR.pdb
     RDKit          3D

 28 27  0  0  1  0  0  0  0  0999 V2000
    4.8636  -19.5356   23.7118 C   0  0  0  0  0  0  0  0  0  0  0  0
    4.8199  -19.2145   22.2156 C   0  0  2  0  0  0  0  0  0  0  0  0
    4.8837  -20.4576   21.4923 N   0  0  0  0  0  0  0  0  0  0  0  0
    5.9996  -18.3544   21.9402 C   0  0  0  0  0  0  0  0  0  0  0  0
    7.1132  -18.8975   21.7424 O   0  0  0  0  0  0  0  0  0  0  0  0
    8.7225  -14.3266   17.7349 N   0  0  0  0  0  0  0  0  0  0  0  0
    9.1208  -13.0782   18.2637 C   0  0  0  0  0  0  0  0  0  0  0  0
   10.3673  -12.7198   18.1245 N   0  0  0  0  0  0  0  0  0  0  0  0
    8.2202  -12.2214   18.9377 N   0  0  0  0  0  0  0  0  0  0  0  0
    7.3695  -12.6609   19.9831 C   0  0  0  0  0  0  0  0  0  0  0  0
    7.7996  -13.9435   20.6131 C   0  0  0  0  0  0  0  0  0  0  0  0
    6.6532  -14.8218   20.9555 C   0  0  0  0  0  0  0  0  0  0  0  0
    7.1180  -16.1207   21.5884 C   0  0  2  0  0  0  0  0  0  0  0  0
    5.9388  -16.9492   21.8877 N   0  0  0  0  0  0  0  0  0  0  0  0
    7.8782  -15.8865   22.8266 C   0  0  0  0  0  0  0  0  0  0  0  0
    7.2994  -15.6350   23.9275 O   0  0  0  0  0  0  0  0  0  0  0  0
   10.6819  -11.8475   18.5509 N   0  0  0  0  0  0  0  0  0  0  0  0
   10.9724  -20.0359   28.0863 C   0  0  0  0  0  0  0  0  0  0  0  0
    9.5924  -20.0106   28.4557 N   0  0  0  0  0  0  0  0  0  0  0  0
    9.2269  -20.6238   29.5395 N   0  0  0  0  0  0  0  0  0  0  0  0
    8.6519  -19.3251   27.6458 C   0  0  0  0  0  0  0  0  0  0  0  0
    8.9552  -19.3348   26.1781 C   0  0  0  0  0  0  0  0  0  0  0  0
    9.3362  -17.9429   25.8503 C   0  0  0  0  0  0  0  0  0  0  0  0
    9.6929  -17.5253   24.5128 C   0  0  2  0  0  0  0  0  0  0  0  0
   10.0121  -16.1470   24.0975 N   0  0  0  0  0  0  0  0  0  0  0  0
    9.2914  -15.9428   22.7909 C   0  0  0  0  0  0  0  0  0  0  0  0
   11.3891  -15.7945   23.7708 O   0  0  0  0  0  0  0  0  0  0  0  0
   11.8093  -15.7252   22.5486 O   0  0  0  0  0  0  0  0  0  0  0  0
  2  1  1  1
  2  3  1  0
  4  2  1  0
  5  4  2  0
  7  6  1  0
  7  8  2  0
  9  7  1  0
 10  9  1  0
 11 10  1  0
 13 12  1  1
 12 11  1  0
 13 14  1  0
 14  4  1  0
 15 25  1  0
 15 13  1  0
 16 15  2  0
 18 17  1  0
 18 19  2  0
 20 18  1  0
 21 20  1  0
 22 21  1  0
 23 22  1  0
 24 23  1  1
 24 25  1  0
 26 28  1  0
 26 24  1  0
 27 26  2  0
M  END
$$$$
