ARR.pdb
     RDKit          3D

 28 27  0  0  1  0  0  0  0  0999 V2000
    8.1035  -12.0126   19.6213 C   0  0  0  0  0  0  0  0  0  0  0  0
    7.7961  -13.2721   18.8072 C   0  0  2  0  0  0  0  0  0  0  0  0
    6.4050  -13.2341   18.4381 N   0  0  0  0  0  0  0  0  0  0  0  0
    8.1007  -14.4249   19.6935 C   0  0  0  0  0  0  0  0  0  0  0  0
    7.2339  -14.8009   20.5191 O   0  0  0  0  0  0  0  0  0  0  0  0
   11.1401  -21.3734   22.0793 N   0  0  0  0  0  0  0  0  0  0  0  0
   12.3330  -20.9652   21.4411 C   0  0  0  0  0  0  0  0  0  0  0  0
   13.4693  -21.3025   21.9858 N   0  0  0  0  0  0  0  0  0  0  0  0
   12.3299  -20.2047   20.2491 N   0  0  0  0  0  0  0  0  0  0  0  0
   11.1479  -19.6774   19.6707 C   0  0  0  0  0  0  0  0  0  0  0  0
   10.5110  -18.5956   20.4776 C   0  0  0  0  0  0  0  0  0  0  0  0
   10.2878  -17.3562   19.6921 C   0  0  0  0  0  0  0  0  0  0  0  0
    9.5789  -16.2966   20.5156 C   0  0  2  0  0  0  0  0  0  0  0  0
    9.3198  -15.1275   19.6597 N   0  0  0  0  0  0  0  0  0  0  0  0
   10.3769  -15.8824   21.6808 C   0  0  0  0  0  0  0  0  0  0  0  0
   11.3987  -15.1397   21.5598 O   0  0  0  0  0  0  0  0  0  0  0  0
   14.3388  -21.0266   21.5279 N   0  0  0  0  0  0  0  0  0  0  0  0
   10.0261  -16.6347   29.0757 C   0  0  0  0  0  0  0  0  0  0  0  0
   10.0048  -15.2854   29.5454 N   0  0  0  0  0  0  0  0  0  0  0  0
   10.4516  -15.0344   30.7376 N   0  0  0  0  0  0  0  0  0  0  0  0
    9.5034  -14.2512   28.7151 C   0  0  0  0  0  0  0  0  0  0  0  0
    8.8264  -14.7181   27.4622 C   0  0  0  0  0  0  0  0  0  0  0  0
    9.9239  -15.0298   26.5197 C   0  0  0  0  0  0  0  0  0  0  0  0
    9.6869  -15.4681   25.1624 C   0  0  1  0  0  0  0  0  0  0  0  0
   10.7250  -15.7319   24.1492 N   0  0  0  0  0  0  0  0  0  0  0  0
    9.9966  -16.3223   22.9705 C   0  0  0  0  0  0  0  0  0  0  0  0
   11.7622  -16.7204   24.4220 O   0  0  0  0  0  0  0  0  0  0  0  0
   12.9562  -16.3806   24.7878 O   0  0  0  0  0  0  0  0  0  0  0  0
  2  1  1  1
  2  3  1  0
  4  2  1  0
  5  4  2  0
  7  6  1  0
  7  8  2  0
  9  7  1  0
 10  9  1  0
 11 10  1  0
 13 12  1  6
 12 11  1  0
 13 14  1  0
 14  4  1  0
 15 25  1  0
 15 13  1  0
 16 15  2  0
 18 17  1  0
 18 19  2  0
 20 18  1  0
 21 20  1  0
 22 21  1  0
 23 22  1  0
 24 23  1  6
 24 25  1  0
 26 28  1  0
 26 24  1  0
 27 26  2  0
M  END
$$$$
