ARR.pdb
     RDKit          3D

 28 27  0  0  1  0  0  0  0  0999 V2000
    7.8253  -14.2344   26.1159 C   0  0  0  0  0  0  0  0  0  0  0  0
    6.6334  -14.6744   25.2619 C   0  0  2  0  0  0  0  0  0  0  0  0
    5.9894  -15.7745   25.9309 N   0  0  0  0  0  0  0  0  0  0  0  0
    7.1916  -15.0791   23.9458 C   0  0  0  0  0  0  0  0  0  0  0  0
    7.5746  -16.2635   23.7879 O   0  0  0  0  0  0  0  0  0  0  0  0
    6.9196  -15.3285   16.6340 N   0  0  0  0  0  0  0  0  0  0  0  0
    7.8282  -14.3838   16.1057 C   0  0  0  0  0  0  0  0  0  0  0  0
    8.2654  -14.5629   14.8899 N   0  0  0  0  0  0  0  0  0  0  0  0
    8.2771  -13.2690   16.8508 N   0  0  0  0  0  0  0  0  0  0  0  0
    7.7716  -12.9418   18.1342 C   0  0  0  0  0  0  0  0  0  0  0  0
    8.1042  -13.9446   19.1882 C   0  0  0  0  0  0  0  0  0  0  0  0
    7.5558  -13.5764   20.5173 C   0  0  0  0  0  0  0  0  0  0  0  0
    7.8908  -14.6216   21.5655 C   0  0  2  0  0  0  0  0  0  0  0  0
    7.3169  -14.2002   22.8538 N   0  0  0  0  0  0  0  0  0  0  0  0
    9.3436  -14.8041   21.7137 C   0  0  0  0  0  0  0  0  0  0  0  0
   10.0734  -13.9259   22.2673 O   0  0  0  0  0  0  0  0  0  0  0  0
    8.9123  -13.8815   14.4912 N   0  0  0  0  0  0  0  0  0  0  0  0
    9.5083  -20.2463   26.3812 C   0  0  0  0  0  0  0  0  0  0  0  0
    9.7353  -18.8533   26.6034 N   0  0  0  0  0  0  0  0  0  0  0  0
    8.9916  -18.2313   27.4660 N   0  0  0  0  0  0  0  0  0  0  0  0
   10.7563  -18.1764   25.8894 C   0  0  0  0  0  0  0  0  0  0  0  0
   11.1472  -18.8119   24.5897 C   0  0  0  0  0  0  0  0  0  0  0  0
   10.5728  -17.9393   23.5415 C   0  0  0  0  0  0  0  0  0  0  0  0
   11.2737  -17.6248   22.3167 C   0  0  2  0  0  0  0  0  0  0  0  0
   11.3467  -16.2952   21.6836 N   0  0  0  0  0  0  0  0  0  0  0  0
    9.9445  -15.9889   21.2272 C   0  0  0  0  0  0  0  0  0  0  0  0
   12.1329  -16.1193   20.4677 O   0  0  0  0  0  0  0  0  0  0  0  0
   13.4131  -15.9316   20.4982 O   0  0  0  0  0  0  0  0  0  0  0  0
  2  1  1  1
  2  3  1  0
  4  2  1  0
  5  4  2  0
  7  6  1  0
  7  8  2  0
  9  7  1  0
 10  9  1  0
 11 10  1  0
 13 12  1  6
 12 11  1  0
 13 14  1  0
 14  4  1  0
 15 25  1  0
 15 13  1  0
 16 15  2  0
 18 17  1  0
 18 19  2  0
 20 18  1  0
 21 20  1  0
 22 21  1  0
 23 22  1  0
 24 23  1  1
 24 25  1  0
 26 28  1  0
 26 24  1  0
 27 26  2  0
M  END
$$$$
