ARR.pdb
     RDKit          3D

 28 27  0  0  1  0  0  0  0  0999 V2000
    5.8370  -19.8983   19.0022 C   0  0  0  0  0  0  0  0  0  0  0  0
    7.0213  -19.1449   19.6131 C   0  0  2  0  0  0  0  0  0  0  0  0
    8.1391  -20.0501   19.6759 N   0  0  0  0  0  0  0  0  0  0  0  0
    6.5854  -18.7113   20.9656 C   0  0  0  0  0  0  0  0  0  0  0  0
    5.6436  -17.8882   21.0644 O   0  0  0  0  0  0  0  0  0  0  0  0
    6.3986  -24.9152   25.9818 N   0  0  0  0  0  0  0  0  0  0  0  0
    6.8181  -24.8137   24.6362 C   0  0  0  0  0  0  0  0  0  0  0  0
    7.1551  -25.9083   24.0119 N   0  0  0  0  0  0  0  0  0  0  0  0
    6.8898  -23.5746   23.9588 N   0  0  0  0  0  0  0  0  0  0  0  0
    6.5382  -22.3411   24.5627 C   0  0  0  0  0  0  0  0  0  0  0  0
    6.7363  -21.1565   23.6769 C   0  0  0  0  0  0  0  0  0  0  0  0
    6.4624  -19.8741   24.3719 C   0  0  0  0  0  0  0  0  0  0  0  0
    6.7675  -18.6834   23.4816 C   0  0  2  0  0  0  0  0  0  0  0  0
    7.1751  -19.1763   22.1560 N   0  0  0  0  0  0  0  0  0  0  0  0
    7.8368  -17.8405   24.0400 C   0  0  0  0  0  0  0  0  0  0  0  0
    9.0614  -18.0691   23.7985 O   0  0  0  0  0  0  0  0  0  0  0  0
    7.4024  -25.8578   23.0229 N   0  0  0  0  0  0  0  0  0  0  0  0
    4.7795  -10.6572   26.1353 C   0  0  0  0  0  0  0  0  0  0  0  0
    6.1715  -10.6724   26.4574 N   0  0  0  0  0  0  0  0  0  0  0  0
    6.6484   -9.7226   27.2020 N   0  0  0  0  0  0  0  0  0  0  0  0
    7.0035  -11.7106   25.9672 C   0  0  0  0  0  0  0  0  0  0  0  0
    6.3188  -12.7027   25.0766 C   0  0  0  0  0  0  0  0  0  0  0  0
    7.3668  -13.6784   24.7029 C   0  0  0  0  0  0  0  0  0  0  0  0
    7.9859  -14.5652   25.6624 C   0  0  2  0  0  0  0  0  0  0  0  0
    8.6124  -15.8641   25.3550 N   0  0  0  0  0  0  0  0  0  0  0  0
    7.4928  -16.7460   24.8678 C   0  0  0  0  0  0  0  0  0  0  0  0
    9.2041  -16.6504   26.4316 O   0  0  0  0  0  0  0  0  0  0  0  0
    8.5451  -17.5792   27.0465 O   0  0  0  0  0  0  0  0  0  0  0  0
  2  1  1  1
  2  3  1  0
  4  2  1  0
  5  4  2  0
  7  6  1  0
  7  8  2  0
  9  7  1  0
 10  9  1  0
 11 10  1  0
 13 12  1  1
 12 11  1  0
 13 14  1  0
 14  4  1  0
 15 25  1  0
 15 13  1  0
 16 15  2  0
 18 17  1  0
 18 19  2  0
 20 18  1  0
 21 20  1  0
 22 21  1  0
 23 22  1  0
 24 23  1  6
 24 25  1  0
 26 28  1  0
 26 24  1  0
 27 26  2  0
M  END
$$$$
