AEV.pdb
     RDKit          3D

 22 21  0  0  1  0  0  0  0  0999 V2000
    7.4881  -12.9601   18.5279 C   0  0  0  0  0  0  0  0  0  0  0  0
    8.6910  -13.1888   19.4213 C   0  0  2  0  0  0  0  0  0  0  0  0
    9.6412  -14.0621   18.7632 N   0  0  0  0  0  0  0  0  0  0  0  0
    8.2257  -13.8151   20.6907 C   0  0  0  0  0  0  0  0  0  0  0  0
    7.4379  -13.1772   21.4292 O   0  0  0  0  0  0  0  0  0  0  0  0
    8.6369  -15.0998   21.0957 N   0  0  0  0  0  0  0  0  0  0  0  0
    8.1789  -15.7111   22.3528 C   0  0  1  0  0  0  0  0  0  0  0  0
    8.6400  -17.1416   22.2904 C   0  0  0  0  0  0  0  0  0  0  0  0
   10.1028  -17.3084   22.6337 C   0  0  0  0  0  0  0  0  0  0  0  0
   10.4775  -18.7560   22.5871 C   0  0  0  0  0  0  0  0  0  0  0  0
   11.5916  -19.1710   22.9625 O   0  0  0  0  0  0  0  0  0  0  0  0
    8.6738  -14.9577   23.5094 C   0  0  0  0  0  0  0  0  0  0  0  0
    9.7914  -14.4334   23.5861 O   0  0  0  0  0  0  0  0  0  0  0  0
    9.5389  -19.6434   22.1071 O   0  0  0  0  0  0  0  0  0  0  0  0
    7.4531  -11.8780   27.0419 C   0  0  0  0  0  0  0  0  0  0  0  0
    7.0767  -12.8671   25.9846 C   0  0  2  0  0  0  0  0  0  0  0  0
    5.8159  -13.5877   26.3992 C   0  0  0  0  0  0  0  0  0  0  0  0
    8.1404  -13.9110   25.7350 C   0  0  2  0  0  0  0  0  0  0  0  0
    7.8097  -14.8039   24.6546 N   0  0  0  0  0  0  0  0  0  0  0  0
    8.4420  -14.6581   26.9832 C   0  0  0  0  0  0  0  0  0  0  0  0
    8.8732  -14.0575   27.9952 O   0  0  0  0  0  0  0  0  0  0  0  0
    8.2577  -16.0254   27.0645 O   0  0  0  0  0  0  0  0  0  0  0  0
  2  1  1  6
  2  3  1  0
  4  2  1  0
  4  6  1  0
  5  4  2  0
  7  6  1  0
  7 12  1  0
  7  8  1  1
  9  8  1  0
  9 10  1  0
 10 14  1  0
 11 10  2  0
 12 19  1  0
 12 13  2  0
 16 15  1  1
 17 16  1  0
 18 16  1  0
 18 20  1  0
 18 19  1  6
 20 22  1  0
 21 20  2  0
M  END
$$$$
