AEV.pdb
     RDKit          3D

 22 21  0  0  1  0  0  0  0  0999 V2000
    8.0724  -12.2773   19.6434 C   0  0  0  0  0  0  0  0  0  0  0  0
    8.3465  -13.7278   19.2997 C   0  0  2  0  0  0  0  0  0  0  0  0
    7.4664  -14.1619   18.2340 N   0  0  0  0  0  0  0  0  0  0  0  0
    8.1115  -14.5552   20.5164 C   0  0  0  0  0  0  0  0  0  0  0  0
    6.9480  -14.9514   20.7657 O   0  0  0  0  0  0  0  0  0  0  0  0
    9.1479  -14.9114   21.4010 N   0  0  0  0  0  0  0  0  0  0  0  0
    8.9053  -15.7026   22.6171 C   0  0  1  0  0  0  0  0  0  0  0  0
    9.8293  -16.8850   22.5130 C   0  0  0  0  0  0  0  0  0  0  0  0
    9.3890  -17.8918   21.4747 C   0  0  0  0  0  0  0  0  0  0  0  0
   10.3909  -18.9986   21.3781 C   0  0  0  0  0  0  0  0  0  0  0  0
   10.3331  -19.8781   20.4963 O   0  0  0  0  0  0  0  0  0  0  0  0
    9.0925  -14.8826   23.8183 C   0  0  0  0  0  0  0  0  0  0  0  0
   10.1266  -14.2648   24.0987 O   0  0  0  0  0  0  0  0  0  0  0  0
   11.4055  -19.0247   22.3102 O   0  0  0  0  0  0  0  0  0  0  0  0
    6.4806  -12.2596   25.0384 C   0  0  0  0  0  0  0  0  0  0  0  0
    6.8600  -13.1329   26.1922 C   0  0  2  0  0  0  0  0  0  0  0  0
    7.1203  -12.2734   27.4064 C   0  0  0  0  0  0  0  0  0  0  0  0
    8.1018  -13.9555   25.9378 C   0  0  2  0  0  0  0  0  0  0  0  0
    8.0023  -14.7740   24.7572 N   0  0  0  0  0  0  0  0  0  0  0  0
    8.4442  -14.7676   27.1338 C   0  0  0  0  0  0  0  0  0  0  0  0
    8.1206  -15.9767   27.1952 O   0  0  0  0  0  0  0  0  0  0  0  0
    9.1238  -14.2183   28.2047 O   0  0  0  0  0  0  0  0  0  0  0  0
  2  1  1  1
  2  3  1  0
  4  2  1  0
  4  6  1  0
  5  4  2  0
  7  6  1  0
  7 12  1  0
  7  8  1  1
  9  8  1  0
  9 10  1  0
 10 14  1  0
 11 10  2  0
 12 19  1  0
 12 13  2  0
 16 15  1  6
 17 16  1  0
 18 16  1  0
 18 20  1  0
 18 19  1  6
 20 22  1  0
 21 20  2  0
M  END
$$$$
