AEV.pdb
     RDKit          3D

 22 21  0  0  1  0  0  0  0  0999 V2000
    7.3987  -12.6654   18.9304 C   0  0  0  0  0  0  0  0  0  0  0  0
    8.5971  -13.1281   19.7347 C   0  0  2  0  0  0  0  0  0  0  0  0
    9.3372  -14.1295   18.9943 N   0  0  0  0  0  0  0  0  0  0  0  0
    8.1108  -13.7071   21.0186 C   0  0  0  0  0  0  0  0  0  0  0  0
    7.4118  -12.9958   21.7791 O   0  0  0  0  0  0  0  0  0  0  0  0
    8.4059  -15.0264   21.4135 N   0  0  0  0  0  0  0  0  0  0  0  0
    7.8793  -15.6104   22.6567 C   0  0  1  0  0  0  0  0  0  0  0  0
    8.1406  -17.0875   22.5438 C   0  0  0  0  0  0  0  0  0  0  0  0
    7.6713  -17.8666   23.7514 C   0  0  0  0  0  0  0  0  0  0  0  0
    7.9097  -19.3285   23.5415 C   0  0  0  0  0  0  0  0  0  0  0  0
    9.0087  -19.8677   23.7776 O   0  0  0  0  0  0  0  0  0  0  0  0
    8.4820  -14.9695   23.8298 C   0  0  0  0  0  0  0  0  0  0  0  0
    9.6960  -14.9126   24.0589 O   0  0  0  0  0  0  0  0  0  0  0  0
    6.8596  -20.0854   23.0689 O   0  0  0  0  0  0  0  0  0  0  0  0
    5.8543  -12.9812   26.7422 C   0  0  0  0  0  0  0  0  0  0  0  0
    7.2684  -12.5759   26.4703 C   0  0  2  0  0  0  0  0  0  0  0  0
    7.2860  -11.5006   25.4100 C   0  0  0  0  0  0  0  0  0  0  0  0
    8.1347  -13.7142   25.9832 C   0  0  2  0  0  0  0  0  0  0  0  0
    7.6129  -14.3529   24.8027 N   0  0  0  0  0  0  0  0  0  0  0  0
    8.3677  -14.6964   27.0733 C   0  0  0  0  0  0  0  0  0  0  0  0
    7.8193  -15.8228   27.0422 O   0  0  0  0  0  0  0  0  0  0  0  0
    9.1891  -14.3994   28.1445 O   0  0  0  0  0  0  0  0  0  0  0  0
  2  1  1  6
  2  3  1  0
  4  2  1  0
  4  6  1  0
  5  4  2  0
  7  6  1  0
  7 12  1  0
  7  8  1  6
  9  8  1  0
  9 10  1  0
 10 14  1  0
 11 10  2  0
 12 19  1  0
 12 13  2  0
 16 15  1  6
 17 16  1  0
 18 16  1  0
 18 20  1  0
 18 19  1  6
 20 22  1  0
 21 20  2  0
M  END
$$$$
