AEV.pdb
     RDKit          3D

 22 21  0  0  1  0  0  0  0  0999 V2000
    8.2702  -12.1288   19.5075 C   0  0  0  0  0  0  0  0  0  0  0  0
    8.2728  -13.6149   19.2096 C   0  0  2  0  0  0  0  0  0  0  0  0
    7.1902  -13.9433   18.3047 N   0  0  0  0  0  0  0  0  0  0  0  0
    8.1008  -14.3551   20.4913 C   0  0  0  0  0  0  0  0  0  0  0  0
    6.9437  -14.5233   20.9447 O   0  0  0  0  0  0  0  0  0  0  0  0
    9.1903  -14.8752   21.2167 N   0  0  0  0  0  0  0  0  0  0  0  0
    9.0101  -15.6849   22.4316 C   0  0  1  0  0  0  0  0  0  0  0  0
    9.9548  -16.8455   22.2794 C   0  0  0  0  0  0  0  0  0  0  0  0
    9.5785  -17.7715   21.1451 C   0  0  0  0  0  0  0  0  0  0  0  0
   10.5400  -18.9156   21.0780 C   0  0  0  0  0  0  0  0  0  0  0  0
   11.0498  -19.2991   20.0069 O   0  0  0  0  0  0  0  0  0  0  0  0
    9.2241  -14.8744   23.6346 C   0  0  0  0  0  0  0  0  0  0  0  0
   10.2410  -14.2102   23.8681 O   0  0  0  0  0  0  0  0  0  0  0  0
   10.8577  -19.5527   22.2579 O   0  0  0  0  0  0  0  0  0  0  0  0
    7.3523  -12.1590   27.1914 C   0  0  0  0  0  0  0  0  0  0  0  0
    7.1784  -13.0560   26.0069 C   0  0  2  0  0  0  0  0  0  0  0  0
    5.9055  -13.8532   26.1650 C   0  0  0  0  0  0  0  0  0  0  0  0
    8.3140  -14.0365   25.8262 C   0  0  2  0  0  0  0  0  0  0  0  0
    8.1843  -14.8339   24.6341 N   0  0  0  0  0  0  0  0  0  0  0  0
    8.4662  -14.8875   27.0344 C   0  0  0  0  0  0  0  0  0  0  0  0
    8.0793  -16.0795   27.0253 O   0  0  0  0  0  0  0  0  0  0  0  0
    9.0341  -14.3942   28.1938 O   0  0  0  0  0  0  0  0  0  0  0  0
  2  1  1  1
  2  3  1  0
  4  2  1  0
  4  6  1  0
  5  4  2  0
  7  6  1  0
  7 12  1  0
  7  8  1  6
  9  8  1  0
  9 10  1  0
 10 14  1  0
 11 10  2  0
 12 19  1  0
 12 13  2  0
 16 15  1  1
 17 16  1  0
 18 16  1  0
 18 20  1  0
 18 19  1  6
 20 22  1  0
 21 20  2  0
M  END
$$$$
