IDG.pdb
     RDKit          3D

 21 20  0  0  1  0  0  0  0  0999 V2000
   14.8684  -11.8010  -17.3348 C   0  0  0  0  0  0  0  0  0  0  0  0
   16.3496  -11.6587  -17.4824 C   0  0  0  0  0  0  0  0  0  0  0  0
   16.9188  -10.5474  -16.6284 C   0  0  2  0  0  0  0  0  0  0  0  0
   16.2796   -9.2278  -16.9084 C   0  0  0  0  0  0  0  0  0  0  0  0
   18.4278  -10.5223  -16.7999 C   0  0  2  0  0  0  0  0  0  0  0  0
   18.9149  -11.8514  -16.5312 N   0  0  0  0  0  0  0  0  0  0  0  0
   19.0790   -9.5683  -15.9000 C   0  0  0  0  0  0  0  0  0  0  0  0
   18.9540   -9.6847  -14.6574 O   0  0  0  0  0  0  0  0  0  0  0  0
   19.8669   -8.4882  -16.3803 N   0  0  0  0  0  0  0  0  0  0  0  0
   20.5140   -7.5569  -15.4214 C   0  0  1  0  0  0  0  0  0  0  0  0
   21.9831   -7.6537  -15.7232 C   0  0  0  0  0  0  0  0  0  0  0  0
   22.6566   -8.8680  -15.2853 C   0  0  0  0  0  0  0  0  0  0  0  0
   22.6130   -9.3282  -14.1245 O   0  0  0  0  0  0  0  0  0  0  0  0
   19.9534   -6.1944  -15.6323 C   0  0  0  0  0  0  0  0  0  0  0  0
   20.4413   -5.2281  -15.0014 O   0  0  0  0  0  0  0  0  0  0  0  0
   23.4285   -9.6178  -16.1999 O   0  0  0  0  0  0  0  0  0  0  0  0
   18.8664   -6.0157  -16.5527 N   0  0  0  0  0  0  0  0  0  0  0  0
   18.3430   -4.7007  -16.8094 C   0  0  0  0  0  0  0  0  0  0  0  0
   17.5012   -4.2067  -15.6818 C   0  0  0  0  0  0  0  0  0  0  0  0
   16.9005   -2.9664  -15.6845 O   0  0  0  0  0  0  0  0  0  0  0  0
   17.3452   -4.9610  -14.7029 O   0  0  0  0  0  0  0  0  0  0  0  0
  1  2  1  0
  2  3  1  0
  3  5  1  0
  3  4  1  6
  5  7  1  0
  5  6  1  1
  7  9  1  0
  8  7  2  0
  9 10  1  0
 10 14  1  0
 10 11  1  6
 11 12  1  0
 12 13  2  0
 14 15  2  0
 14 17  1  0
 16 12  1  0
 17 18  1  0
 18 19  1  0
 19 20  1  0
 21 19  2  0
M  END
$$$$
