IDG.pdb
     RDKit          3D

 21 20  0  0  1  0  0  0  0  0999 V2000
   20.3337  -24.1142  -16.3512 C   0  0  0  0  0  0  0  0  0  0  0  0
   21.5908  -23.9443  -15.5594 C   0  0  0  0  0  0  0  0  0  0  0  0
   22.8266  -23.8822  -16.4294 C   0  0  2  0  0  0  0  0  0  0  0  0
   22.8921  -25.0067  -17.4090 C   0  0  0  0  0  0  0  0  0  0  0  0
   24.0516  -23.8046  -15.5348 C   0  0  2  0  0  0  0  0  0  0  0  0
   23.9080  -22.6343  -14.7068 N   0  0  0  0  0  0  0  0  0  0  0  0
   25.2987  -23.7177  -16.2973 C   0  0  0  0  0  0  0  0  0  0  0  0
   25.6556  -24.6667  -17.0357 O   0  0  0  0  0  0  0  0  0  0  0  0
   26.1463  -22.5792  -16.2389 N   0  0  0  0  0  0  0  0  0  0  0  0
   27.3266  -22.4850  -17.1352 C   0  0  1  0  0  0  0  0  0  0  0  0
   27.4097  -21.0322  -17.5106 C   0  0  0  0  0  0  0  0  0  0  0  0
   26.3409  -20.5185  -18.3555 C   0  0  0  0  0  0  0  0  0  0  0  0
   25.7627  -21.1719  -19.2497 O   0  0  0  0  0  0  0  0  0  0  0  0
   28.5222  -22.9767  -16.3977 C   0  0  0  0  0  0  0  0  0  0  0  0
   28.6384  -22.7154  -15.1778 O   0  0  0  0  0  0  0  0  0  0  0  0
   25.8873  -19.1908  -18.1934 O   0  0  0  0  0  0  0  0  0  0  0  0
   29.5166  -23.7389  -17.0982 N   0  0  0  0  0  0  0  0  0  0  0  0
   30.6647  -24.2495  -16.3980 C   0  0  0  0  0  0  0  0  0  0  0  0
   31.5953  -24.9754  -17.3097 C   0  0  0  0  0  0  0  0  0  0  0  0
   32.8161  -25.4643  -16.8975 O   0  0  0  0  0  0  0  0  0  0  0  0
   31.2376  -25.1377  -18.4917 O   0  0  0  0  0  0  0  0  0  0  0  0
  1  2  1  0
  2  3  1  0
  3  5  1  0
  3  4  1  1
  5  7  1  0
  5  6  1  1
  7  9  1  0
  8  7  2  0
  9 10  1  0
 10 14  1  0
 10 11  1  1
 11 12  1  0
 12 13  2  0
 14 15  2  0
 14 17  1  0
 16 12  1  0
 17 18  1  0
 18 19  1  0
 19 20  1  0
 21 19  2  0
M  END
$$$$
