IDG.pdb
     RDKit          3D

 21 20  0  0  1  0  0  0  0  0999 V2000
   16.7272  -10.5047  -20.3626 C   0  0  0  0  0  0  0  0  0  0  0  0
   17.9661  -10.6123  -19.5321 C   0  0  0  0  0  0  0  0  0  0  0  0
   18.1070   -9.4779  -18.5415 C   0  0  2  0  0  0  0  0  0  0  0  0
   18.0371   -8.1375  -19.1950 C   0  0  0  0  0  0  0  0  0  0  0  0
   19.3830   -9.6811  -17.7429 C   0  0  2  0  0  0  0  0  0  0  0  0
   19.2950  -10.9724  -17.1100 N   0  0  0  0  0  0  0  0  0  0  0  0
   19.5787   -8.6467  -16.7252 C   0  0  0  0  0  0  0  0  0  0  0  0
   19.2012   -8.8413  -15.5451 O   0  0  0  0  0  0  0  0  0  0  0  0
   20.1924   -7.3995  -17.0188 N   0  0  0  0  0  0  0  0  0  0  0  0
   20.3295   -6.3707  -15.9567 C   0  0  1  0  0  0  0  0  0  0  0  0
   21.1688   -7.0237  -14.8947 C   0  0  0  0  0  0  0  0  0  0  0  0
   21.5408   -6.1916  -13.7593 C   0  0  0  0  0  0  0  0  0  0  0  0
   21.2212   -4.9919  -13.6196 O   0  0  0  0  0  0  0  0  0  0  0  0
   20.9588   -5.1590  -16.5489 C   0  0  0  0  0  0  0  0  0  0  0  0
   21.8726   -5.2962  -17.3952 O   0  0  0  0  0  0  0  0  0  0  0  0
   22.3193   -6.7315  -12.7118 O   0  0  0  0  0  0  0  0  0  0  0  0
   20.5070   -3.8597  -16.1387 N   0  0  0  0  0  0  0  0  0  0  0  0
   21.0893   -2.6757  -16.7116 C   0  0  0  0  0  0  0  0  0  0  0  0
   20.3316   -1.4464  -16.3387 C   0  0  0  0  0  0  0  0  0  0  0  0
   20.6977   -0.1861  -16.7589 O   0  0  0  0  0  0  0  0  0  0  0  0
   19.3269   -1.5835  -15.6153 O   0  0  0  0  0  0  0  0  0  0  0  0
  1  2  1  0
  2  3  1  0
  3  5  1  0
  3  4  1  6
  5  7  1  0
  5  6  1  1
  7  9  1  0
  8  7  2  0
  9 10  1  0
 10 14  1  0
 10 11  1  1
 11 12  1  0
 12 13  2  0
 14 15  2  0
 14 17  1  0
 16 12  1  0
 17 18  1  0
 18 19  1  0
 19 20  1  0
 21 19  2  0
M  END
$$$$
