IDG.pdb
     RDKit          3D

 21 20  0  0  1  0  0  0  0  0999 V2000
   13.3249  -10.4197  -19.1874 C   0  0  0  0  0  0  0  0  0  0  0  0
   14.7605  -10.7733  -18.9635 C   0  0  0  0  0  0  0  0  0  0  0  0
   15.4662   -9.8014  -18.0441 C   0  0  2  0  0  0  0  0  0  0  0  0
   15.3945   -8.3943  -18.5375 C   0  0  0  0  0  0  0  0  0  0  0  0
   16.8911  -10.2803  -17.8262 C   0  0  2  0  0  0  0  0  0  0  0  0
   16.8206  -11.6200  -17.3010 N   0  0  0  0  0  0  0  0  0  0  0  0
   17.6343   -9.4261  -16.8977 C   0  0  0  0  0  0  0  0  0  0  0  0
   17.3118   -9.3783  -15.6866 O   0  0  0  0  0  0  0  0  0  0  0  0
   18.7329   -8.6277  -17.3146 N   0  0  0  0  0  0  0  0  0  0  0  0
   19.4184   -7.7407  -16.3407 C   0  0  1  0  0  0  0  0  0  0  0  0
   20.7352   -8.4123  -16.0694 C   0  0  0  0  0  0  0  0  0  0  0  0
   21.6019   -7.7697  -15.0917 C   0  0  0  0  0  0  0  0  0  0  0  0
   21.3563   -6.6825  -14.5271 O   0  0  0  0  0  0  0  0  0  0  0  0
   19.5557   -6.3882  -16.9464 C   0  0  0  0  0  0  0  0  0  0  0  0
   19.8799   -6.2884  -18.1526 O   0  0  0  0  0  0  0  0  0  0  0  0
   22.8208   -8.3779  -14.7190 O   0  0  0  0  0  0  0  0  0  0  0  0
   19.3146   -5.2272  -16.1373 N   0  0  0  0  0  0  0  0  0  0  0  0
   19.5231   -3.9108  -16.6784 C   0  0  0  0  0  0  0  0  0  0  0  0
   19.0870   -2.8443  -15.7313 C   0  0  0  0  0  0  0  0  0  0  0  0
   19.2569   -1.5011  -15.9882 O   0  0  0  0  0  0  0  0  0  0  0  0
   18.5478   -3.2013  -14.6668 O   0  0  0  0  0  0  0  0  0  0  0  0
  1  2  1  0
  2  3  1  0
  3  5  1  0
  3  4  1  6
  5  7  1  0
  5  6  1  1
  7  9  1  0
  8  7  2  0
  9 10  1  0
 10 14  1  0
 10 11  1  6
 11 12  1  0
 12 13  2  0
 14 15  2  0
 14 17  1  0
 16 12  1  0
 17 18  1  0
 18 19  1  0
 19 20  1  0
 21 19  2  0
M  END
$$$$
