IDG.pdb
     RDKit          3D

 21 20  0  0  1  0  0  0  0  0999 V2000
   11.0080   -9.6147   -8.5708 C   0  0  0  0  0  0  0  0  0  0  0  0
   11.4106  -10.6647   -9.5564 C   0  0  0  0  0  0  0  0  0  0  0  0
   12.7473  -10.3781  -10.2038 C   0  0  2  0  0  0  0  0  0  0  0  0
   12.8392   -8.9844  -10.7307 C   0  0  0  0  0  0  0  0  0  0  0  0
   13.0126  -11.4310  -11.2660 C   0  0  2  0  0  0  0  0  0  0  0  0
   12.9751  -12.7171  -10.6176 N   0  0  0  0  0  0  0  0  0  0  0  0
   14.3076  -11.2497  -11.9248 C   0  0  0  0  0  0  0  0  0  0  0  0
   15.2094  -12.1116  -11.7947 O   0  0  0  0  0  0  0  0  0  0  0  0
   14.5990  -10.1132  -12.7259 N   0  0  0  0  0  0  0  0  0  0  0  0
   15.8743  -10.0460  -13.4839 C   0  0  1  0  0  0  0  0  0  0  0  0
   15.8119  -11.1998  -14.4448 C   0  0  0  0  0  0  0  0  0  0  0  0
   16.9459  -11.3566  -15.3445 C   0  0  0  0  0  0  0  0  0  0  0  0
   16.9645  -10.9893  -16.5386 O   0  0  0  0  0  0  0  0  0  0  0  0
   15.9580   -8.7196  -14.1538 C   0  0  0  0  0  0  0  0  0  0  0  0
   14.9294   -8.2336  -14.6788 O   0  0  0  0  0  0  0  0  0  0  0  0
   18.1359  -11.9619  -14.8838 O   0  0  0  0  0  0  0  0  0  0  0  0
   17.2140   -8.0253  -14.1849 N   0  0  0  0  0  0  0  0  0  0  0  0
   17.3156   -6.7393  -14.8214 C   0  0  0  0  0  0  0  0  0  0  0  0
   18.6450   -6.1054  -14.5864 C   0  0  0  0  0  0  0  0  0  0  0  0
   19.6428   -6.7105  -13.8533 O   0  0  0  0  0  0  0  0  0  0  0  0
   18.8448   -4.9801  -15.0816 O   0  0  0  0  0  0  0  0  0  0  0  0
  1  2  1  0
  2  3  1  0
  3  5  1  0
  3  4  1  6
  5  7  1  0
  5  6  1  1
  7  9  1  0
  8  7  2  0
  9 10  1  0
 10 14  1  0
 10 11  1  6
 11 12  1  0
 12 13  2  0
 14 15  2  0
 14 17  1  0
 16 12  1  0
 17 18  1  0
 18 19  1  0
 19 20  1  0
 21 19  2  0
M  END
$$$$
