IDG.pdb
     RDKit          3D

 21 20  0  0  1  0  0  0  0  0999 V2000
   27.1979  -19.8330   -7.2546 C   0  0  0  0  0  0  0  0  0  0  0  0
   27.2334  -20.7723   -8.4176 C   0  0  0  0  0  0  0  0  0  0  0  0
   26.1843  -20.4534   -9.4597 C   0  0  2  0  0  0  0  0  0  0  0  0
   24.7956  -20.6702   -8.9565 C   0  0  0  0  0  0  0  0  0  0  0  0
   26.4881  -21.2468  -10.7188 C   0  0  2  0  0  0  0  0  0  0  0  0
   27.8779  -21.0379  -11.0358 N   0  0  0  0  0  0  0  0  0  0  0  0
   25.6577  -20.8381  -11.8535 C   0  0  0  0  0  0  0  0  0  0  0  0
   25.9272  -19.7912  -12.4895 O   0  0  0  0  0  0  0  0  0  0  0  0
   24.5312  -21.5913  -12.2798 N   0  0  0  0  0  0  0  0  0  0  0  0
   23.7560  -21.1590  -13.4705 C   0  0  1  0  0  0  0  0  0  0  0  0
   23.5640  -22.4107  -14.2797 C   0  0  0  0  0  0  0  0  0  0  0  0
   24.7694  -23.0306  -14.8114 C   0  0  0  0  0  0  0  0  0  0  0  0
   25.0448  -24.2460  -14.7220 O   0  0  0  0  0  0  0  0  0  0  0  0
   22.4792  -20.5490  -13.0089 C   0  0  0  0  0  0  0  0  0  0  0  0
   21.9077  -21.0186  -11.9976 O   0  0  0  0  0  0  0  0  0  0  0  0
   25.7300  -22.2453  -15.4863 O   0  0  0  0  0  0  0  0  0  0  0  0
   21.9294  -19.4370  -13.7311 N   0  0  0  0  0  0  0  0  0  0  0  0
   20.6765  -18.8578  -13.3259 C   0  0  0  0  0  0  0  0  0  0  0  0
   19.5442  -19.8157  -13.4822 C   0  0  0  0  0  0  0  0  0  0  0  0
   18.8171  -19.9303  -14.6473 O   0  0  0  0  0  0  0  0  0  0  0  0
   19.2568  -20.5357  -12.5073 O   0  0  0  0  0  0  0  0  0  0  0  0
  1  2  1  0
  2  3  1  0
  3  5  1  0
  3  4  1  1
  5  7  1  0
  5  6  1  6
  7  9  1  0
  8  7  2  0
  9 10  1  0
 10 14  1  0
 10 11  1  6
 11 12  1  0
 12 13  2  0
 14 15  2  0
 14 17  1  0
 16 12  1  0
 17 18  1  0
 18 19  1  0
 19 20  1  0
 21 19  2  0
M  END
$$$$
