IDG.pdb
     RDKit          3D

 21 20  0  0  1  0  0  0  0  0999 V2000
   11.2834  -13.7964  -10.1842 C   0  0  0  0  0  0  0  0  0  0  0  0
   12.1814  -13.3816  -11.3056 C   0  0  0  0  0  0  0  0  0  0  0  0
   13.2401  -12.3919  -10.8721 C   0  0  2  0  0  0  0  0  0  0  0  0
   12.6565  -11.1731  -10.2377 C   0  0  0  0  0  0  0  0  0  0  0  0
   14.1279  -12.0722  -12.0623 C   0  0  2  0  0  0  0  0  0  0  0  0
   14.6379  -13.3211  -12.5681 N   0  0  0  0  0  0  0  0  0  0  0  0
   15.2436  -11.1918  -11.7096 C   0  0  0  0  0  0  0  0  0  0  0  0
   16.2490  -11.6516  -11.1172 O   0  0  0  0  0  0  0  0  0  0  0  0
   15.2414   -9.8044  -12.0148 N   0  0  0  0  0  0  0  0  0  0  0  0
   16.4196   -8.9670  -11.6743 C   0  0  1  0  0  0  0  0  0  0  0  0
   16.9596   -8.5059  -12.9988 C   0  0  0  0  0  0  0  0  0  0  0  0
   18.1058   -7.6091  -12.9554 C   0  0  0  0  0  0  0  0  0  0  0  0
   19.0364   -7.6815  -12.1249 O   0  0  0  0  0  0  0  0  0  0  0  0
   15.9710   -7.8525  -10.7959 C   0  0  0  0  0  0  0  0  0  0  0  0
   15.1622   -7.0075  -11.2450 O   0  0  0  0  0  0  0  0  0  0  0  0
   18.2224   -6.5641  -13.8983 O   0  0  0  0  0  0  0  0  0  0  0  0
   16.4736   -7.7684   -9.4539 N   0  0  0  0  0  0  0  0  0  0  0  0
   16.1921   -6.6122   -8.6457 C   0  0  0  0  0  0  0  0  0  0  0  0
   14.7862   -6.6100   -8.1481 C   0  0  0  0  0  0  0  0  0  0  0  0
   14.2729   -5.6014   -7.3617 O   0  0  0  0  0  0  0  0  0  0  0  0
   14.0584   -7.5693   -8.4666 O   0  0  0  0  0  0  0  0  0  0  0  0
  1  2  1  0
  2  3  1  0
  3  5  1  0
  3  4  1  6
  5  7  1  0
  5  6  1  1
  7  9  1  0
  8  7  2  0
  9 10  1  0
 10 14  1  0
 10 11  1  6
 11 12  1  0
 12 13  2  0
 14 15  2  0
 14 17  1  0
 16 12  1  0
 17 18  1  0
 18 19  1  0
 19 20  1  0
 21 19  2  0
M  END
$$$$
