WLD.pdb
     RDKit          3D

 31 32  0  0  1  0  0  0  0  0999 V2000
    5.8712  -18.2378   24.5805 N   0  0  0  0  0  0  0  0  0  0  0  0
    6.6853  -17.2055   24.0144 C   0  0  1  0  0  0  0  0  0  0  0  0
    7.6219  -16.6628   25.0725 C   0  0  0  0  0  0  0  0  0  0  0  0
    7.1413  -15.3847   25.6305 C   0  0  0  0  0  0  0  0  0  0  0  0
    5.8466  -14.9434   25.5906 C   0  0  0  0  0  0  0  0  0  0  0  0
    5.8013  -13.7366   26.2010 N   0  0  0  0  0  0  0  0  0  0  0  0
    7.0478  -13.4052   26.6278 C   0  0  0  0  0  0  0  0  0  0  0  0
    7.5554  -12.3071   27.2961 C   0  0  0  0  0  0  0  0  0  0  0  0
    8.9054  -12.2732   27.5913 C   0  0  0  0  0  0  0  0  0  0  0  0
    9.7550  -13.2873   27.2453 C   0  0  0  0  0  0  0  0  0  0  0  0
    9.2304  -14.3802   26.5763 C   0  0  0  0  0  0  0  0  0  0  0  0
    7.8851  -14.4385   26.2696 C   0  0  0  0  0  0  0  0  0  0  0  0
    7.5233  -17.6937   22.8965 C   0  0  0  0  0  0  0  0  0  0  0  0
    7.2023  -18.6666   22.1731 O   0  0  0  0  0  0  0  0  0  0  0  0
    8.7332  -13.4636   20.7437 C   0  0  0  0  0  0  0  0  0  0  0  0
    7.6228  -14.3765   21.3310 C   0  0  1  0  0  0  0  0  0  0  0  0
    6.3418  -13.7475   20.7954 C   0  0  0  0  0  0  0  0  0  0  0  0
    7.8902  -15.7201   20.7906 C   0  0  0  0  0  0  0  0  0  0  0  0
    8.9990  -16.5304   21.2845 C   0  0  2  0  0  0  0  0  0  0  0  0
    8.7707  -17.0284   22.6148 N   0  0  0  0  0  0  0  0  0  0  0  0
   10.3364  -15.9076   21.2578 C   0  0  0  0  0  0  0  0  0  0  0  0
   10.8689  -15.3343   20.3018 O   0  0  0  0  0  0  0  0  0  0  0  0
   11.0817  -15.9835   22.4716 N   0  0  0  0  0  0  0  0  0  0  0  0
   12.4399  -16.5052   22.5287 C   0  0  1  0  0  0  0  0  0  0  0  0
   13.2459  -15.5988   23.4273 C   0  0  0  0  0  0  0  0  0  0  0  0
   14.6791  -15.6856   23.0963 C   0  0  0  0  0  0  0  0  0  0  0  0
   15.0988  -16.4034   22.1786 O   0  0  0  0  0  0  0  0  0  0  0  0
   12.4790  -17.9118   22.9291 C   0  0  0  0  0  0  0  0  0  0  0  0
   11.9188  -18.2935   23.9651 O   0  0  0  0  0  0  0  0  0  0  0  0
   15.5706  -14.9217   23.8598 O   0  0  0  0  0  0  0  0  0  0  0  0
   13.1583  -18.8401   22.1316 O   0  0  0  0  0  0  0  0  0  0  0  0
  2  1  1  1
  3  4  1  0
  3  2  1  0
  4  5  2  0
  6  5  1  0
  7  6  1  0
  8  7  2  0
  9  8  1  0
 10  9  2  0
 10 11  1  0
 11 12  2  0
 12  7  1  0
 12  4  1  0
 13  2  1  0
 13 20  1  0
 14 13  2  0
 16 18  1  0
 16 15  1  6
 17 16  1  0
 19 18  1  1
 19 20  1  0
 19 21  1  0
 21 22  2  0
 21 23  1  0
 23 24  1  0
 24 28  1  0
 25 26  1  0
 24 25  1  1
 26 27  2  0
 28 29  2  0
 28 31  1  0
 30 26  1  0
M  END
$$$$
