WLD.pdb
     RDKit          3D

 31 32  0  0  1  0  0  0  0  0999 V2000
    6.2870  -17.6595   25.6272 N   0  0  0  0  0  0  0  0  0  0  0  0
    6.9368  -16.4722   25.1615 C   0  0  1  0  0  0  0  0  0  0  0  0
    8.2681  -16.3155   25.8647 C   0  0  0  0  0  0  0  0  0  0  0  0
    8.2617  -15.1835   26.8103 C   0  0  0  0  0  0  0  0  0  0  0  0
    8.7668  -15.2145   28.0818 C   0  0  0  0  0  0  0  0  0  0  0  0
    8.5768  -13.9933   28.6329 N   0  0  0  0  0  0  0  0  0  0  0  0
    7.9586  -13.1875   27.7305 C   0  0  0  0  0  0  0  0  0  0  0  0
    7.5389  -11.8714   27.7726 C   0  0  0  0  0  0  0  0  0  0  0  0
    6.9260  -11.3324   26.6570 C   0  0  0  0  0  0  0  0  0  0  0  0
    6.7208  -12.0553   25.5146 C   0  0  0  0  0  0  0  0  0  0  0  0
    7.1474  -13.3724   25.4888 C   0  0  0  0  0  0  0  0  0  0  0  0
    7.7623  -13.9347   26.5901 C   0  0  0  0  0  0  0  0  0  0  0  0
    7.2112  -16.5095   23.7077 C   0  0  0  0  0  0  0  0  0  0  0  0
    7.1001  -17.5494   23.0155 O   0  0  0  0  0  0  0  0  0  0  0  0
    6.4473  -13.9457   19.3841 C   0  0  0  0  0  0  0  0  0  0  0  0
    7.9767  -13.8117   19.6177 C   0  0  1  0  0  0  0  0  0  0  0  0
    8.2655  -12.3780   19.1880 C   0  0  0  0  0  0  0  0  0  0  0  0
    8.1777  -14.0471   21.0574 C   0  0  0  0  0  0  0  0  0  0  0  0
    7.9706  -15.3659   21.6474 C   0  0  2  0  0  0  0  0  0  0  0  0
    7.6270  -15.2999   23.0429 N   0  0  0  0  0  0  0  0  0  0  0  0
    9.0711  -16.3374   21.4979 C   0  0  0  0  0  0  0  0  0  0  0  0
    9.0224  -17.4312   20.9257 O   0  0  0  0  0  0  0  0  0  0  0  0
   10.3168  -15.9600   22.0811 N   0  0  0  0  0  0  0  0  0  0  0  0
   11.5558  -16.6803   21.8231 C   0  0  1  0  0  0  0  0  0  0  0  0
   12.2748  -15.9754   20.6986 C   0  0  0  0  0  0  0  0  0  0  0  0
   13.5936  -16.5894   20.4641 C   0  0  0  0  0  0  0  0  0  0  0  0
   13.8319  -17.7674   20.7631 O   0  0  0  0  0  0  0  0  0  0  0  0
   12.3685  -16.8386   23.0293 C   0  0  0  0  0  0  0  0  0  0  0  0
   13.4766  -17.3888   22.9814 O   0  0  0  0  0  0  0  0  0  0  0  0
   14.5884  -15.7927   19.8838 O   0  0  0  0  0  0  0  0  0  0  0  0
   11.8887  -16.3621   24.2549 O   0  0  0  0  0  0  0  0  0  0  0  0
  2  1  1  1
  3  4  1  0
  3  2  1  0
  4  5  2  0
  6  5  1  0
  7  6  1  0
  8  7  2  0
  9  8  1  0
 10  9  2  0
 10 11  1  0
 11 12  2  0
 12  7  1  0
 12  4  1  0
 13  2  1  0
 13 20  1  0
 14 13  2  0
 16 18  1  0
 16 15  1  1
 17 16  1  0
 19 18  1  1
 19 20  1  0
 19 21  1  0
 21 22  2  0
 21 23  1  0
 23 24  1  0
 24 28  1  0
 25 26  1  0
 24 25  1  6
 26 27  2  0
 28 29  2  0
 28 31  1  0
 30 26  1  0
M  END
$$$$
