WLD.pdb
     RDKit          3D

 31 32  0  0  1  0  0  0  0  0999 V2000
    6.3136  -17.8171   24.3653 N   0  0  0  0  0  0  0  0  0  0  0  0
    7.0354  -16.6482   23.9634 C   0  0  1  0  0  0  0  0  0  0  0  0
    7.9551  -16.2119   25.0837 C   0  0  0  0  0  0  0  0  0  0  0  0
    7.2739  -15.3183   26.0393 C   0  0  0  0  0  0  0  0  0  0  0  0
    6.4423  -15.7267   27.0464 C   0  0  0  0  0  0  0  0  0  0  0  0
    6.0145  -14.6237   27.7032 N   0  0  0  0  0  0  0  0  0  0  0  0
    6.5620  -13.5212   27.1282 C   0  0  0  0  0  0  0  0  0  0  0  0
    6.4626  -12.1691   27.3965 C   0  0  0  0  0  0  0  0  0  0  0  0
    7.1642  -11.2801   26.6041 C   0  0  0  0  0  0  0  0  0  0  0  0
    7.9524  -11.6916   25.5651 C   0  0  0  0  0  0  0  0  0  0  0  0
    8.0412  -13.0496   25.3098 C   0  0  0  0  0  0  0  0  0  0  0  0
    7.3502  -13.9585   26.0867 C   0  0  0  0  0  0  0  0  0  0  0  0
    7.8795  -16.8855   22.7711 C   0  0  0  0  0  0  0  0  0  0  0  0
    8.0999  -18.0281   22.3036 O   0  0  0  0  0  0  0  0  0  0  0  0
    8.3854  -12.4157   19.5299 C   0  0  0  0  0  0  0  0  0  0  0  0
    7.9511  -13.5917   20.4463 C   0  0  1  0  0  0  0  0  0  0  0  0
    6.4365  -13.6185   20.2763 C   0  0  0  0  0  0  0  0  0  0  0  0
    8.6258  -14.7835   19.9048 C   0  0  0  0  0  0  0  0  0  0  0  0
    8.9477  -15.9256   20.7544 C   0  0  2  0  0  0  0  0  0  0  0  0
    8.4833  -15.7582   22.1058 N   0  0  0  0  0  0  0  0  0  0  0  0
   10.3659  -16.3295   20.8102 C   0  0  0  0  0  0  0  0  0  0  0  0
   11.1492  -16.4208   19.8592 O   0  0  0  0  0  0  0  0  0  0  0  0
   10.8718  -16.6449   22.1059 N   0  0  0  0  0  0  0  0  0  0  0  0
   12.2580  -17.0260   22.3372 C   0  0  1  0  0  0  0  0  0  0  0  0
   13.1378  -16.0007   21.6638 C   0  0  0  0  0  0  0  0  0  0  0  0
   14.5600  -16.3201   21.8788 C   0  0  0  0  0  0  0  0  0  0  0  0
   15.0295  -17.4357   21.6166 O   0  0  0  0  0  0  0  0  0  0  0  0
   12.5547  -17.2093   23.7580 C   0  0  0  0  0  0  0  0  0  0  0  0
   11.8061  -16.7460   24.6285 O   0  0  0  0  0  0  0  0  0  0  0  0
   15.3823  -15.3116   22.3965 O   0  0  0  0  0  0  0  0  0  0  0  0
   13.6998  -17.9176   24.1405 O   0  0  0  0  0  0  0  0  0  0  0  0
  2  1  1  1
  3  4  1  0
  3  2  1  0
  4  5  2  0
  6  5  1  0
  7  6  1  0
  8  7  2  0
  9  8  1  0
 10  9  2  0
 10 11  1  0
 11 12  2  0
 12  7  1  0
 12  4  1  0
 13  2  1  0
 13 20  1  0
 14 13  2  0
 16 18  1  0
 16 15  1  6
 17 16  1  0
 19 18  1  6
 19 20  1  0
 19 21  1  0
 21 22  2  0
 21 23  1  0
 23 24  1  0
 24 28  1  0
 25 26  1  0
 24 25  1  1
 26 27  2  0
 28 29  2  0
 28 31  1  0
 30 26  1  0
M  END
$$$$
