WLD.pdb
     RDKit          3D

 31 32  0  0  1  0  0  0  0  0999 V2000
    9.8527  -15.7786   24.8063 N   0  0  0  0  0  0  0  0  0  0  0  0
    8.9280  -16.8450   24.5683 C   0  0  1  0  0  0  0  0  0  0  0  0
    7.7076  -16.6610   25.4448 C   0  0  0  0  0  0  0  0  0  0  0  0
    7.6363  -15.3009   26.0112 C   0  0  0  0  0  0  0  0  0  0  0  0
    6.5834  -14.4392   25.8644 C   0  0  0  0  0  0  0  0  0  0  0  0
    6.8882  -13.2968   26.5225 N   0  0  0  0  0  0  0  0  0  0  0  0
    8.1188  -13.4204   27.0850 C   0  0  0  0  0  0  0  0  0  0  0  0
    8.8961  -12.5716   27.8501 C   0  0  0  0  0  0  0  0  0  0  0  0
   10.1355  -13.0088   28.2780 C   0  0  0  0  0  0  0  0  0  0  0  0
   10.6187  -14.2507   27.9709 C   0  0  0  0  0  0  0  0  0  0  0  0
    9.8274  -15.0888   27.2037 C   0  0  0  0  0  0  0  0  0  0  0  0
    8.5852  -14.6759   26.7635 C   0  0  0  0  0  0  0  0  0  0  0  0
    8.4577  -16.8848   23.1656 C   0  0  0  0  0  0  0  0  0  0  0  0
    7.5832  -17.6861   22.7582 O   0  0  0  0  0  0  0  0  0  0  0  0
    8.0226  -12.4032   20.1240 C   0  0  0  0  0  0  0  0  0  0  0  0
    8.0642  -13.5936   21.1203 C   0  0  1  0  0  0  0  0  0  0  0  0
    6.7417  -13.4632   21.8668 C   0  0  0  0  0  0  0  0  0  0  0  0
    8.1528  -14.8036   20.2855 C   0  0  0  0  0  0  0  0  0  0  0  0
    8.6250  -16.0712   20.8334 C   0  0  2  0  0  0  0  0  0  0  0  0
    9.0235  -15.9641   22.2116 N   0  0  0  0  0  0  0  0  0  0  0  0
    9.7133  -16.7446   20.0988 C   0  0  0  0  0  0  0  0  0  0  0  0
    9.7425  -17.0064   18.8919 O   0  0  0  0  0  0  0  0  0  0  0  0
   10.8447  -17.1281   20.8781 N   0  0  0  0  0  0  0  0  0  0  0  0
   12.0062  -17.7923   20.3036 C   0  0  1  0  0  0  0  0  0  0  0  0
   12.5523  -16.9057   19.2108 C   0  0  0  0  0  0  0  0  0  0  0  0
   13.4270  -15.8651   19.7794 C   0  0  0  0  0  0  0  0  0  0  0  0
   13.5650  -15.7189   21.0013 O   0  0  0  0  0  0  0  0  0  0  0  0
   12.9988  -18.1518   21.3166 C   0  0  0  0  0  0  0  0  0  0  0  0
   14.0357  -18.7523   21.0052 O   0  0  0  0  0  0  0  0  0  0  0  0
   14.1110  -15.0308   18.8864 O   0  0  0  0  0  0  0  0  0  0  0  0
   12.7749  -17.8131   22.6561 O   0  0  0  0  0  0  0  0  0  0  0  0
  2  1  1  6
  3  4  1  0
  3  2  1  0
  4  5  2  0
  6  5  1  0
  7  6  1  0
  8  7  2  0
  9  8  1  0
 10  9  2  0
 10 11  1  0
 11 12  2  0
 12  7  1  0
 12  4  1  0
 13  2  1  0
 13 20  1  0
 14 13  2  0
 16 18  1  0
 16 15  1  6
 17 16  1  0
 19 18  1  6
 19 20  1  0
 19 21  1  0
 21 22  2  0
 21 23  1  0
 23 24  1  0
 24 28  1  0
 25 26  1  0
 24 25  1  6
 26 27  2  0
 28 29  2  0
 28 31  1  0
 30 26  1  0
M  END
$$$$
