WLD.pdb
     RDKit          3D

 31 32  0  0  1  0  0  0  0  0999 V2000
    6.4329  -17.1022   25.4704 N   0  0  0  0  0  0  0  0  0  0  0  0
    7.0045  -16.1093   24.6123 C   0  0  1  0  0  0  0  0  0  0  0  0
    8.3500  -15.6826   25.1588 C   0  0  0  0  0  0  0  0  0  0  0  0
    8.2130  -14.7991   26.3320 C   0  0  0  0  0  0  0  0  0  0  0  0
    8.6600  -15.0868   27.5930 C   0  0  0  0  0  0  0  0  0  0  0  0
    8.3514  -14.0386   28.3911 N   0  0  0  0  0  0  0  0  0  0  0  0
    7.7153  -13.0897   27.6557 C   0  0  0  0  0  0  0  0  0  0  0  0
    7.1941  -11.8478   27.9657 C   0  0  0  0  0  0  0  0  0  0  0  0
    6.5935  -11.1091   26.9636 C   0  0  0  0  0  0  0  0  0  0  0  0
    6.4973  -11.5639   25.6776 C   0  0  0  0  0  0  0  0  0  0  0  0
    7.0247  -12.8100   25.3837 C   0  0  0  0  0  0  0  0  0  0  0  0
    7.6298  -13.5680   26.3668 C   0  0  0  0  0  0  0  0  0  0  0  0
    7.2289  -16.6097   23.2377 C   0  0  0  0  0  0  0  0  0  0  0  0
    7.0004  -17.7937   22.8933 O   0  0  0  0  0  0  0  0  0  0  0  0
    7.5445  -12.8769   18.8690 C   0  0  0  0  0  0  0  0  0  0  0  0
    8.1214  -13.7403   20.0236 C   0  0  1  0  0  0  0  0  0  0  0  0
    7.7739  -12.9288   21.2662 C   0  0  0  0  0  0  0  0  0  0  0  0
    7.4130  -15.0289   19.9442 C   0  0  0  0  0  0  0  0  0  0  0  0
    7.7206  -16.1223   20.8607 C   0  0  2  0  0  0  0  0  0  0  0  0
    7.7340  -15.7034   22.2370 N   0  0  0  0  0  0  0  0  0  0  0  0
    8.9662  -16.8703   20.6032 C   0  0  0  0  0  0  0  0  0  0  0  0
    9.2969  -17.4197   19.5473 O   0  0  0  0  0  0  0  0  0  0  0  0
    9.8749  -16.9602   21.6990 N   0  0  0  0  0  0  0  0  0  0  0  0
   11.2596  -17.3815   21.5393 C   0  0  1  0  0  0  0  0  0  0  0  0
   11.9137  -16.4526   20.5454 C   0  0  0  0  0  0  0  0  0  0  0  0
   13.2966  -16.8811   20.2712 C   0  0  0  0  0  0  0  0  0  0  0  0
   13.8060  -17.8575   20.8376 O   0  0  0  0  0  0  0  0  0  0  0  0
   11.9669  -17.4633   22.8174 C   0  0  0  0  0  0  0  0  0  0  0  0
   12.6343  -18.4638   23.1115 O   0  0  0  0  0  0  0  0  0  0  0  0
   14.0334  -16.1427   19.3368 O   0  0  0  0  0  0  0  0  0  0  0  0
   11.8892  -16.3973   23.7212 O   0  0  0  0  0  0  0  0  0  0  0  0
  2  1  1  1
  3  4  1  0
  3  2  1  0
  4  5  2  0
  6  5  1  0
  7  6  1  0
  8  7  2  0
  9  8  1  0
 10  9  2  0
 10 11  1  0
 11 12  2  0
 12  7  1  0
 12  4  1  0
 13  2  1  0
 13 20  1  0
 14 13  2  0
 16 18  1  0
 16 15  1  6
 17 16  1  0
 19 18  1  6
 19 20  1  0
 19 21  1  0
 21 22  2  0
 21 23  1  0
 23 24  1  0
 24 28  1  0
 25 26  1  0
 24 25  1  6
 26 27  2  0
 28 29  2  0
 28 31  1  0
 30 26  1  0
M  END
$$$$
