WLD.pdb
     RDKit          3D

 31 32  0  0  1  0  0  0  0  0999 V2000
    6.3530  -18.3543   24.6488 N   0  0  0  0  0  0  0  0  0  0  0  0
    6.7513  -16.9946   24.4453 C   0  0  1  0  0  0  0  0  0  0  0  0
    7.3750  -16.4552   25.7148 C   0  0  0  0  0  0  0  0  0  0  0  0
    6.6706  -15.2570   26.2085 C   0  0  0  0  0  0  0  0  0  0  0  0
    5.3392  -15.1961   26.5186 C   0  0  0  0  0  0  0  0  0  0  0  0
    5.0677  -13.9371   26.9338 N   0  0  0  0  0  0  0  0  0  0  0  0
    6.2069  -13.1978   26.8919 C   0  0  0  0  0  0  0  0  0  0  0  0
    6.4890  -11.8808   27.2016 C   0  0  0  0  0  0  0  0  0  0  0  0
    7.7840  -11.4232   27.0457 C   0  0  0  0  0  0  0  0  0  0  0  0
    8.7944  -12.2275   26.5963 C   0  0  0  0  0  0  0  0  0  0  0  0
    8.4950  -13.5444   26.2906 C   0  0  0  0  0  0  0  0  0  0  0  0
    7.2092  -14.0263   26.4375 C   0  0  0  0  0  0  0  0  0  0  0  0
    7.7574  -16.8539   23.3691 C   0  0  0  0  0  0  0  0  0  0  0  0
    8.4868  -17.7988   22.9846 O   0  0  0  0  0  0  0  0  0  0  0  0
    7.6656  -12.3995   19.8267 C   0  0  0  0  0  0  0  0  0  0  0  0
    7.4505  -13.7946   20.4738 C   0  0  1  0  0  0  0  0  0  0  0  0
    6.8865  -14.6228   19.3251 C   0  0  0  0  0  0  0  0  0  0  0  0
    8.7845  -14.2335   20.9171 C   0  0  0  0  0  0  0  0  0  0  0  0
    8.9567  -15.4263   21.7403 C   0  0  2  0  0  0  0  0  0  0  0  0
    7.9169  -15.5750   22.7234 N   0  0  0  0  0  0  0  0  0  0  0  0
   10.2539  -15.5734   22.4281 C   0  0  0  0  0  0  0  0  0  0  0  0
   10.4853  -15.3759   23.6255 O   0  0  0  0  0  0  0  0  0  0  0  0
   11.3472  -15.9878   21.6111 N   0  0  0  0  0  0  0  0  0  0  0  0
   12.6548  -16.3215   22.1579 C   0  0  1  0  0  0  0  0  0  0  0  0
   12.4708  -17.4559   23.1367 C   0  0  0  0  0  0  0  0  0  0  0  0
   13.7677  -17.8608   23.7071 C   0  0  0  0  0  0  0  0  0  0  0  0
   14.4729  -17.0768   24.3565 O   0  0  0  0  0  0  0  0  0  0  0  0
   13.6390  -16.6039   21.1128 C   0  0  0  0  0  0  0  0  0  0  0  0
   14.8215  -16.8335   21.3987 O   0  0  0  0  0  0  0  0  0  0  0  0
   14.1899  -19.1786   23.4924 O   0  0  0  0  0  0  0  0  0  0  0  0
   13.2403  -16.6151   19.7711 O   0  0  0  0  0  0  0  0  0  0  0  0
  2  1  1  1
  3  4  1  0
  3  2  1  0
  4  5  2  0
  6  5  1  0
  7  6  1  0
  8  7  2  0
  9  8  1  0
 10  9  2  0
 10 11  1  0
 11 12  2  0
 12  7  1  0
 12  4  1  0
 13  2  1  0
 13 20  1  0
 14 13  2  0
 16 18  1  0
 16 15  1  6
 17 16  1  0
 19 18  1  1
 19 20  1  0
 19 21  1  0
 21 22  2  0
 21 23  1  0
 23 24  1  0
 24 28  1  0
 25 26  1  0
 24 25  1  1
 26 27  2  0
 28 29  2  0
 28 31  1  0
 30 26  1  0
M  END
$$$$
