WLD.pdb
     RDKit          3D

 31 32  0  0  1  0  0  0  0  0999 V2000
    8.3684  -17.4439   25.4598 N   0  0  0  0  0  0  0  0  0  0  0  0
    7.0551  -17.3677   24.8954 C   0  0  1  0  0  0  0  0  0  0  0  0
    6.3481  -16.1382   25.4245 C   0  0  0  0  0  0  0  0  0  0  0  0
    7.2975  -15.1450   25.9612 C   0  0  0  0  0  0  0  0  0  0  0  0
    8.5972  -15.4010   26.3046 C   0  0  0  0  0  0  0  0  0  0  0  0
    9.1417  -14.2469   26.7546 N   0  0  0  0  0  0  0  0  0  0  0  0
    8.2072  -13.2621   26.7021 C   0  0  0  0  0  0  0  0  0  0  0  0
    8.2301  -11.9209   27.0348 C   0  0  0  0  0  0  0  0  0  0  0  0
    7.0819  -11.1718   26.8585 C   0  0  0  0  0  0  0  0  0  0  0  0
    5.9255  -11.7112   26.3668 C   0  0  0  0  0  0  0  0  0  0  0  0
    5.9194  -13.0562   26.0382 C   0  0  0  0  0  0  0  0  0  0  0  0
    7.0534  -13.8267   26.2050 C   0  0  0  0  0  0  0  0  0  0  0  0
    7.0780  -17.2587   23.4196 C   0  0  0  0  0  0  0  0  0  0  0  0
    6.0498  -17.3593   22.7087 O   0  0  0  0  0  0  0  0  0  0  0  0
    8.8892  -13.6201   20.4323 C   0  0  0  0  0  0  0  0  0  0  0  0
    7.9091  -14.0072   21.5729 C   0  0  1  0  0  0  0  0  0  0  0  0
    6.8189  -12.9476   21.4634 C   0  0  0  0  0  0  0  0  0  0  0  0
    7.4444  -15.3665   21.2490 C   0  0  0  0  0  0  0  0  0  0  0  0
    8.3177  -16.5252   21.4060 C   0  0  2  0  0  0  0  0  0  0  0  0
    8.3357  -17.0258   22.7547 N   0  0  0  0  0  0  0  0  0  0  0  0
    9.7166  -16.3636   20.9649 C   0  0  0  0  0  0  0  0  0  0  0  0
   10.1053  -15.9744   19.8587 O   0  0  0  0  0  0  0  0  0  0  0  0
   10.7144  -16.6957   21.9283 N   0  0  0  0  0  0  0  0  0  0  0  0
   11.7045  -17.7401   21.7064 C   0  0  1  0  0  0  0  0  0  0  0  0
   11.0158  -19.0730   21.8734 C   0  0  0  0  0  0  0  0  0  0  0  0
   11.8942  -20.0229   22.5785 C   0  0  0  0  0  0  0  0  0  0  0  0
   13.0597  -20.2328   22.2162 O   0  0  0  0  0  0  0  0  0  0  0  0
   12.3905  -17.5924   20.4226 C   0  0  0  0  0  0  0  0  0  0  0  0
   13.6157  -17.4214   20.3727 O   0  0  0  0  0  0  0  0  0  0  0  0
   11.3678  -20.6945   23.6890 O   0  0  0  0  0  0  0  0  0  0  0  0
   11.6535  -17.6447   19.2338 O   0  0  0  0  0  0  0  0  0  0  0  0
  2  1  1  1
  3  4  1  0
  3  2  1  0
  4  5  2  0
  6  5  1  0
  7  6  1  0
  8  7  2  0
  9  8  1  0
 10  9  2  0
 10 11  1  0
 11 12  2  0
 12  7  1  0
 12  4  1  0
 13  2  1  0
 13 20  1  0
 14 13  2  0
 16 18  1  0
 16 15  1  6
 17 16  1  0
 19 18  1  1
 19 20  1  0
 19 21  1  0
 21 22  2  0
 21 23  1  0
 23 24  1  0
 24 28  1  0
 25 26  1  0
 24 25  1  6
 26 27  2  0
 28 29  2  0
 28 31  1  0
 30 26  1  0
M  END
$$$$
