WLD.pdb
     RDKit          3D

 31 32  0  0  1  0  0  0  0  0999 V2000
    8.2236  -18.6314   22.8661 N   0  0  0  0  0  0  0  0  0  0  0  0
    8.4940  -17.3514   22.2853 C   0  0  1  0  0  0  0  0  0  0  0  0
    7.2640  -16.8581   21.5538 C   0  0  0  0  0  0  0  0  0  0  0  0
    7.5962  -15.8331   20.5465 C   0  0  0  0  0  0  0  0  0  0  0  0
    7.8982  -16.0837   19.2356 C   0  0  0  0  0  0  0  0  0  0  0  0
    8.1446  -14.8973   18.6332 N   0  0  0  0  0  0  0  0  0  0  0  0
    8.0035  -13.8973   19.5420 C   0  0  0  0  0  0  0  0  0  0  0  0
    8.1368  -12.5240   19.4623 C   0  0  0  0  0  0  0  0  0  0  0  0
    7.9199  -11.7673   20.5984 C   0  0  0  0  0  0  0  0  0  0  0  0
    7.5784  -12.3296   21.7972 C   0  0  0  0  0  0  0  0  0  0  0  0
    7.4488  -13.7068   21.8600 C   0  0  0  0  0  0  0  0  0  0  0  0
    7.6602  -14.4855   20.7393 C   0  0  0  0  0  0  0  0  0  0  0  0
    8.8390  -16.3304   23.2997 C   0  0  0  0  0  0  0  0  0  0  0  0
    9.8809  -15.6345   23.2451 O   0  0  0  0  0  0  0  0  0  0  0  0
    8.5220  -12.2050   26.4153 C   0  0  0  0  0  0  0  0  0  0  0  0
    7.4380  -13.2388   26.8248 C   0  0  1  0  0  0  0  0  0  0  0  0
    6.1997  -12.3744   27.0316 C   0  0  0  0  0  0  0  0  0  0  0  0
    7.3263  -14.1652   25.6855 C   0  0  0  0  0  0  0  0  0  0  0  0
    8.3350  -15.1907   25.4390 C   0  0  2  0  0  0  0  0  0  0  0  0
    7.9436  -16.1155   24.4087 N   0  0  0  0  0  0  0  0  0  0  0  0
    8.7789  -15.9759   26.6068 C   0  0  0  0  0  0  0  0  0  0  0  0
    8.1236  -16.2293   27.6229 O   0  0  0  0  0  0  0  0  0  0  0  0
   10.1077  -16.4901   26.5413 N   0  0  0  0  0  0  0  0  0  0  0  0
   10.5229  -17.6887   27.2564 C   0  0  1  0  0  0  0  0  0  0  0  0
    9.6470  -18.8285   26.7957 C   0  0  0  0  0  0  0  0  0  0  0  0
   10.0290  -20.0797   27.4738 C   0  0  0  0  0  0  0  0  0  0  0  0
    9.7888  -20.2766   28.6726 O   0  0  0  0  0  0  0  0  0  0  0  0
   11.9542  -17.9549   27.1117 C   0  0  0  0  0  0  0  0  0  0  0  0
   12.5876  -18.5291   28.0073 O   0  0  0  0  0  0  0  0  0  0  0  0
   10.6824  -21.0581   26.7142 O   0  0  0  0  0  0  0  0  0  0  0  0
   12.6183  -17.5558   25.9460 O   0  0  0  0  0  0  0  0  0  0  0  0
  2  1  1  1
  3  4  1  0
  3  2  1  0
  4  5  2  0
  6  5  1  0
  7  6  1  0
  8  7  2  0
  9  8  1  0
 10  9  2  0
 10 11  1  0
 11 12  2  0
 12  7  1  0
 12  4  1  0
 13  2  1  0
 13 20  1  0
 14 13  2  0
 16 18  1  0
 16 15  1  6
 17 16  1  0
 19 18  1  1
 19 20  1  0
 19 21  1  0
 21 22  2  0
 21 23  1  0
 23 24  1  0
 24 28  1  0
 25 26  1  0
 24 25  1  6
 26 27  2  0
 28 29  2  0
 28 31  1  0
 30 26  1  0
M  END
$$$$
