HNQ.pdb
     RDKit          3D

 28 28  0  0  1  0  0  0  0  0999 V2000
   29.9545   -9.2062  -17.4988 N   0  0  0  0  0  0  0  0  0  0  0  0
   29.4430  -10.0843  -18.5036 C   0  0  1  0  0  0  0  0  0  0  0  0
   30.0891  -11.4533  -18.4569 C   0  0  0  0  0  0  0  0  0  0  0  0
   31.5675  -11.3562  -18.5318 C   0  0  0  0  0  0  0  0  0  0  0  0
   32.3415  -10.2166  -18.6591 C   0  0  0  0  0  0  0  0  0  0  0  0
   33.6506  -10.5644  -18.6905 N   0  0  0  0  0  0  0  0  0  0  0  0
   33.7085  -11.9071  -18.5850 C   0  0  0  0  0  0  0  0  0  0  0  0
   32.4356  -12.3873  -18.4881 N   0  0  0  0  0  0  0  0  0  0  0  0
   27.9629  -10.1798  -18.4959 C   0  0  0  0  0  0  0  0  0  0  0  0
   27.4453  -11.0387  -19.2578 O   0  0  0  0  0  0  0  0  0  0  0  0
   23.8139  -12.8202  -18.1820 N   0  0  0  0  0  0  0  0  0  0  0  0
   24.0638  -11.4591  -17.8895 C   0  0  0  0  0  0  0  0  0  0  0  0
   23.1841  -10.6031  -18.2297 O   0  0  0  0  0  0  0  0  0  0  0  0
   25.2749  -10.9563  -17.2155 C   0  0  0  0  0  0  0  0  0  0  0  0
   25.6659   -9.5561  -17.6886 C   0  0  2  0  0  0  0  0  0  0  0  0
   27.1025   -9.3926  -17.7106 N   0  0  0  0  0  0  0  0  0  0  0  0
   25.0721   -8.6115  -16.7112 C   0  0  0  0  0  0  0  0  0  0  0  0
   25.5266   -8.6286  -15.5149 O   0  0  0  0  0  0  0  0  0  0  0  0
   21.6230   -4.0635  -13.8737 N   0  0  0  0  0  0  0  0  0  0  0  0
   22.6910   -3.6892  -14.7211 C   0  0  0  0  0  0  0  0  0  0  0  0
   22.6611   -2.5837  -15.2904 O   0  0  0  0  0  0  0  0  0  0  0  0
   23.8235   -4.6153  -14.9197 C   0  0  0  0  0  0  0  0  0  0  0  0
   23.7672   -5.4068  -16.1934 C   0  0  0  0  0  0  0  0  0  0  0  0
   23.4642   -6.8272  -15.9567 C   0  0  2  0  0  0  0  0  0  0  0  0
   24.0523   -7.6985  -16.9855 N   0  0  0  0  0  0  0  0  0  0  0  0
   21.9934   -7.0428  -16.0019 C   0  0  0  0  0  0  0  0  0  0  0  0
   21.3646   -7.3445  -17.0449 O   0  0  0  0  0  0  0  0  0  0  0  0
   21.2046   -6.9185  -14.8542 O   0  0  0  0  0  0  0  0  0  0  0  0
  2  1  1  1
  2  3  1  0
  3  4  1  0
  4  8  1  0
  4  5  2  0
  5  6  1  0
  7  6  1  0
  8  7  2  0
  9 10  2  0
  9  2  1  0
 11 12  1  0
 12 14  1  0
 13 12  2  0
 15 14  1  1
 15 16  1  0
 16  9  1  0
 17 18  2  0
 17 15  1  0
 19 20  1  0
 20 21  2  0
 22 20  1  0
 22 23  1  0
 24 23  1  6
 24 25  1  0
 25 17  1  0
 26 24  1  0
 27 26  2  0
 28 26  1  0
M  END
$$$$
