HNQ.pdb
     RDKit          3D

 28 28  0  0  1  0  0  0  0  0999 V2000
   16.1306  -11.8401  -14.0128 N   0  0  0  0  0  0  0  0  0  0  0  0
   17.3425  -11.1061  -14.1997 C   0  0  1  0  0  0  0  0  0  0  0  0
   17.7767  -11.0688  -15.6502 C   0  0  0  0  0  0  0  0  0  0  0  0
   18.2180  -12.4061  -16.1170 C   0  0  0  0  0  0  0  0  0  0  0  0
   19.4818  -12.7914  -16.5271 C   0  0  0  0  0  0  0  0  0  0  0  0
   19.4613  -14.1008  -16.8745 N   0  0  0  0  0  0  0  0  0  0  0  0
   18.2012  -14.5423  -16.6880 C   0  0  0  0  0  0  0  0  0  0  0  0
   17.4451  -13.5057  -16.2255 N   0  0  0  0  0  0  0  0  0  0  0  0
   17.2975   -9.7462  -13.6093 C   0  0  0  0  0  0  0  0  0  0  0  0
   16.2697   -9.0580  -13.8462 O   0  0  0  0  0  0  0  0  0  0  0  0
   18.3721   -5.9712   -9.4722 N   0  0  0  0  0  0  0  0  0  0  0  0
   19.1843   -6.2638  -10.5926 C   0  0  0  0  0  0  0  0  0  0  0  0
   19.8658   -5.3154  -11.1010 O   0  0  0  0  0  0  0  0  0  0  0  0
   19.3005   -7.5940  -11.2179 C   0  0  0  0  0  0  0  0  0  0  0  0
   18.2495   -7.8204  -12.3048 C   0  0  2  0  0  0  0  0  0  0  0  0
   18.3048   -9.1729  -12.8134 N   0  0  0  0  0  0  0  0  0  0  0  0
   18.5719   -6.8656  -13.3932 C   0  0  0  0  0  0  0  0  0  0  0  0
   19.5688   -7.1376  -14.1481 O   0  0  0  0  0  0  0  0  0  0  0  0
   14.8832   -3.8277  -17.3261 N   0  0  0  0  0  0  0  0  0  0  0  0
   16.1673   -3.3540  -17.6801 C   0  0  0  0  0  0  0  0  0  0  0  0
   16.3055   -2.6777  -18.7149 O   0  0  0  0  0  0  0  0  0  0  0  0
   17.3244   -3.6701  -16.8193 C   0  0  0  0  0  0  0  0  0  0  0  0
   17.0093   -4.5559  -15.6497 C   0  0  0  0  0  0  0  0  0  0  0  0
   18.1917   -4.8234  -14.8156 C   0  0  2  0  0  0  0  0  0  0  0  0
   17.8764   -5.6865  -13.6672 N   0  0  0  0  0  0  0  0  0  0  0  0
   18.7164   -3.5470  -14.2614 C   0  0  0  0  0  0  0  0  0  0  0  0
   19.2350   -2.6438  -14.9613 O   0  0  0  0  0  0  0  0  0  0  0  0
   18.6610   -3.2716  -12.8918 O   0  0  0  0  0  0  0  0  0  0  0  0
  2  1  1  6
  2  3  1  0
  3  4  1  0
  4  8  1  0
  4  5  2  0
  5  6  1  0
  7  6  1  0
  8  7  2  0
  9 10  2  0
  9  2  1  0
 11 12  1  0
 12 14  1  0
 13 12  2  0
 15 14  1  1
 15 16  1  0
 16  9  1  0
 17 18  2  0
 17 15  1  0
 19 20  1  0
 20 21  2  0
 22 20  1  0
 22 23  1  0
 24 23  1  1
 24 25  1  0
 25 17  1  0
 26 24  1  0
 27 26  2  0
 28 26  1  0
M  END
$$$$
