HNQ.pdb
     RDKit          3D

 28 28  0  0  1  0  0  0  0  0999 V2000
   23.7824  -27.7348  -17.6852 N   0  0  0  0  0  0  0  0  0  0  0  0
   24.2436  -27.7657  -16.3329 C   0  0  1  0  0  0  0  0  0  0  0  0
   25.0986  -28.9816  -16.0424 C   0  0  0  0  0  0  0  0  0  0  0  0
   24.3345  -30.2385  -16.2360 C   0  0  0  0  0  0  0  0  0  0  0  0
   23.4464  -30.8393  -15.3619 C   0  0  0  0  0  0  0  0  0  0  0  0
   22.9644  -31.9750  -15.9218 N   0  0  0  0  0  0  0  0  0  0  0  0
   23.5385  -32.0951  -17.1356 C   0  0  0  0  0  0  0  0  0  0  0  0
   24.3739  -31.0337  -17.3244 N   0  0  0  0  0  0  0  0  0  0  0  0
   24.9203  -26.5124  -15.9188 C   0  0  0  0  0  0  0  0  0  0  0  0
   25.5126  -26.5273  -14.8075 O   0  0  0  0  0  0  0  0  0  0  0  0
   28.0083  -21.9557  -15.8568 N   0  0  0  0  0  0  0  0  0  0  0  0
   26.9372  -22.1242  -16.7651 C   0  0  0  0  0  0  0  0  0  0  0  0
   26.3797  -21.0788  -17.2326 O   0  0  0  0  0  0  0  0  0  0  0  0
   26.4165  -23.4289  -17.2128 C   0  0  0  0  0  0  0  0  0  0  0  0
   25.5077  -24.0818  -16.1711 C   0  0  2  0  0  0  0  0  0  0  0  0
   24.9505  -25.3213  -16.6651 N   0  0  0  0  0  0  0  0  0  0  0  0
   24.4151  -23.1122  -15.9137 C   0  0  0  0  0  0  0  0  0  0  0  0
   23.4219  -23.1062  -16.7208 O   0  0  0  0  0  0  0  0  0  0  0  0
   22.7788  -20.0463  -10.5486 N   0  0  0  0  0  0  0  0  0  0  0  0
   21.8129  -19.6360  -11.4960 C   0  0  0  0  0  0  0  0  0  0  0  0
   20.8547  -18.9339  -11.1273 O   0  0  0  0  0  0  0  0  0  0  0  0
   21.9539  -20.0482  -12.9068 C   0  0  0  0  0  0  0  0  0  0  0  0
   23.1673  -20.8825  -13.1955 C   0  0  0  0  0  0  0  0  0  0  0  0
   23.2158  -21.3341  -14.5952 C   0  0  2  0  0  0  0  0  0  0  0  0
   24.3763  -22.1983  -14.8589 N   0  0  0  0  0  0  0  0  0  0  0  0
   23.3414  -20.1599  -15.4993 C   0  0  0  0  0  0  0  0  0  0  0  0
   24.4397  -19.6825  -15.8737 O   0  0  0  0  0  0  0  0  0  0  0  0
   22.2129  -19.5021  -15.9979 O   0  0  0  0  0  0  0  0  0  0  0  0
  2  1  1  6
  2  3  1  0
  3  4  1  0
  4  8  1  0
  4  5  2  0
  5  6  1  0
  7  6  1  0
  8  7  2  0
  9 10  2  0
  9  2  1  0
 11 12  1  0
 12 14  1  0
 13 12  2  0
 15 14  1  6
 15 16  1  0
 16  9  1  0
 17 18  2  0
 17 15  1  0
 19 20  1  0
 20 21  2  0
 22 20  1  0
 22 23  1  0
 24 23  1  1
 24 25  1  0
 25 17  1  0
 26 24  1  0
 27 26  2  0
 28 26  1  0
M  END
$$$$
