GVS.pdb
     RDKit          3D

 18 17  0  0  1  0  0  0  0  0999 V2000
   18.3042  -11.3545  -17.7838 N   0  0  0  0  0  0  0  0  0  0  0  0
   17.6883  -10.9031  -16.5725 C   0  0  0  0  0  0  0  0  0  0  0  0
   18.7598  -10.3714  -15.6579 C   0  0  0  0  0  0  0  0  0  0  0  0
   18.4825   -9.9436  -14.5005 O   0  0  0  0  0  0  0  0  0  0  0  0
   23.4886  -10.0475  -14.3271 C   0  0  0  0  0  0  0  0  0  0  0  0
   22.4189  -10.5660  -15.2080 C   0  0  2  0  0  0  0  0  0  0  0  0
   22.9343  -10.6865  -16.6237 C   0  0  0  0  0  0  0  0  0  0  0  0
   21.1516   -9.7614  -15.2201 C   0  0  2  0  0  0  0  0  0  0  0  0
   20.1245  -10.3279  -16.0552 N   0  0  0  0  0  0  0  0  0  0  0  0
   21.4131   -8.3256  -15.5755 C   0  0  0  0  0  0  0  0  0  0  0  0
   21.4668   -7.9452  -16.7734 O   0  0  0  0  0  0  0  0  0  0  0  0
   20.2553   -4.0773  -15.4193 O   0  0  0  0  0  0  0  0  0  0  0  0
   20.2175   -5.4312  -15.1955 C   0  0  0  0  0  0  0  0  0  0  0  0
   21.5957   -5.9354  -14.8137 C   0  0  2  0  0  0  0  0  0  0  0  0
   21.6102   -7.3423  -14.5507 N   0  0  0  0  0  0  0  0  0  0  0  0
   22.0680   -5.2054  -13.6181 C   0  0  0  0  0  0  0  0  0  0  0  0
   22.0716   -5.7978  -12.5137 O   0  0  0  0  0  0  0  0  0  0  0  0
   22.5095   -3.8819  -13.6744 O   0  0  0  0  0  0  0  0  0  0  0  0
  1  2  1  0
  3  4  2  0
  3  2  1  0
  6  5  1  1
  6  8  1  0
  7  6  1  0
  8  9  1  6
  9  3  1  0
 10 15  1  0
 10  8  1  0
 11 10  2  0
 14 13  1  1
 13 12  1  0
 14 15  1  0
 14 16  1  0
 16 18  1  0
 17 16  2  0
M  END
$$$$
