GVS.pdb
     RDKit          3D

 18 17  0  0  1  0  0  0  0  0999 V2000
   16.0135  -11.0172  -12.0344 N   0  0  0  0  0  0  0  0  0  0  0  0
   16.7434  -10.0657  -11.2520 C   0  0  0  0  0  0  0  0  0  0  0  0
   15.8434   -8.8953  -10.9564 C   0  0  0  0  0  0  0  0  0  0  0  0
   14.6196   -8.9110  -11.2752 O   0  0  0  0  0  0  0  0  0  0  0  0
   15.2082   -7.4659   -7.4015 C   0  0  0  0  0  0  0  0  0  0  0  0
   14.5468   -7.2061   -8.6992 C   0  0  2  0  0  0  0  0  0  0  0  0
   13.8443   -8.4566   -9.1759 C   0  0  0  0  0  0  0  0  0  0  0  0
   15.4495   -6.7107   -9.7916 C   0  0  2  0  0  0  0  0  0  0  0  0
   16.3295   -7.7264  -10.3086 N   0  0  0  0  0  0  0  0  0  0  0  0
   16.2158   -5.4917   -9.3635 C   0  0  0  0  0  0  0  0  0  0  0  0
   17.4211   -5.5644   -9.0106 O   0  0  0  0  0  0  0  0  0  0  0  0
   17.2978   -2.0946  -11.7719 O   0  0  0  0  0  0  0  0  0  0  0  0
   16.6923   -3.2366  -11.3095 C   0  0  0  0  0  0  0  0  0  0  0  0
   16.2092   -3.0315   -9.8868 C   0  0  2  0  0  0  0  0  0  0  0  0
   15.5889   -4.2023   -9.3454 N   0  0  0  0  0  0  0  0  0  0  0  0
   15.2510   -1.9062   -9.8548 C   0  0  0  0  0  0  0  0  0  0  0  0
   14.0650   -2.1156  -10.2014 O   0  0  0  0  0  0  0  0  0  0  0  0
   15.6187   -0.6205   -9.4531 O   0  0  0  0  0  0  0  0  0  0  0  0
  1  2  1  0
  3  4  2  0
  3  2  1  0
  6  5  1  1
  6  8  1  0
  7  6  1  0
  8  9  1  1
  9  3  1  0
 10 15  1  0
 10  8  1  0
 11 10  2  0
 14 13  1  6
 13 12  1  0
 14 15  1  0
 14 16  1  0
 16 18  1  0
 17 16  2  0
M  END
$$$$
