GVS.pdb
     RDKit          3D

 18 17  0  0  1  0  0  0  0  0999 V2000
   17.1878  -12.0468  -16.4589 N   0  0  0  0  0  0  0  0  0  0  0  0
   18.1166  -11.1792  -17.1185 C   0  0  0  0  0  0  0  0  0  0  0  0
   19.0956  -10.6595  -16.0993 C   0  0  0  0  0  0  0  0  0  0  0  0
   18.7724  -10.5329  -14.8832 O   0  0  0  0  0  0  0  0  0  0  0  0
   22.5599  -11.7836  -14.9666 C   0  0  0  0  0  0  0  0  0  0  0  0
   22.6410  -10.3744  -15.4100 C   0  0  2  0  0  0  0  0  0  0  0  0
   23.5342   -9.5931  -14.4739 C   0  0  0  0  0  0  0  0  0  0  0  0
   21.3245   -9.6631  -15.5305 C   0  0  2  0  0  0  0  0  0  0  0  0
   20.4207  -10.2901  -16.4597 N   0  0  0  0  0  0  0  0  0  0  0  0
   21.5113   -8.2072  -15.8497 C   0  0  0  0  0  0  0  0  0  0  0  0
   21.6911   -7.8118  -17.0302 O   0  0  0  0  0  0  0  0  0  0  0  0
   20.3203   -3.8271  -15.3876 O   0  0  0  0  0  0  0  0  0  0  0  0
   20.2064   -5.1926  -15.3042 C   0  0  0  0  0  0  0  0  0  0  0  0
   21.5687   -5.8164  -15.0704 C   0  0  2  0  0  0  0  0  0  0  0  0
   21.4895   -7.2213  -14.8087 N   0  0  0  0  0  0  0  0  0  0  0  0
   22.2261   -5.1391  -13.9326 C   0  0  0  0  0  0  0  0  0  0  0  0
   22.2270   -5.7050  -12.8144 O   0  0  0  0  0  0  0  0  0  0  0  0
   22.8451   -3.8939  -14.0582 O   0  0  0  0  0  0  0  0  0  0  0  0
  1  2  1  0
  3  4  2  0
  3  2  1  0
  6  5  1  1
  6  8  1  0
  7  6  1  0
  8  9  1  6
  9  3  1  0
 10 15  1  0
 10  8  1  0
 11 10  2  0
 14 13  1  1
 13 12  1  0
 14 15  1  0
 14 16  1  0
 16 18  1  0
 17 16  2  0
M  END
$$$$
