GVS.pdb
     RDKit          3D

 18 17  0  0  1  0  0  0  0  0999 V2000
   24.3553  -14.7722  -19.6402 N   0  0  0  0  0  0  0  0  0  0  0  0
   24.5734  -13.3702  -19.8330 C   0  0  0  0  0  0  0  0  0  0  0  0
   24.2788  -12.6559  -18.5406 C   0  0  0  0  0  0  0  0  0  0  0  0
   23.3904  -13.0772  -17.7451 O   0  0  0  0  0  0  0  0  0  0  0  0
   26.7149  -11.6621  -15.7360 C   0  0  0  0  0  0  0  0  0  0  0  0
   25.9145  -10.4782  -16.1192 C   0  0  2  0  0  0  0  0  0  0  0  0
   25.4977   -9.7186  -14.8809 C   0  0  0  0  0  0  0  0  0  0  0  0
   24.6941  -10.7685  -16.9438 C   0  0  2  0  0  0  0  0  0  0  0  0
   24.9846  -11.4813  -18.1608 N   0  0  0  0  0  0  0  0  0  0  0  0
   23.9041   -9.5208  -17.2180 C   0  0  0  0  0  0  0  0  0  0  0  0
   24.3034   -8.6590  -18.0429 O   0  0  0  0  0  0  0  0  0  0  0  0
   19.8991   -9.4974  -17.2026 O   0  0  0  0  0  0  0  0  0  0  0  0
   20.3688   -8.4171  -16.4979 C   0  0  0  0  0  0  0  0  0  0  0  0
   21.8221   -8.1594  -16.8453 C   0  0  2  0  0  0  0  0  0  0  0  0
   22.6637   -9.2767  -16.5415 N   0  0  0  0  0  0  0  0  0  0  0  0
   22.2963   -6.9697  -16.1070 C   0  0  0  0  0  0  0  0  0  0  0  0
   22.8320   -7.1313  -14.9856 O   0  0  0  0  0  0  0  0  0  0  0  0
   22.1692   -5.6744  -16.6128 O   0  0  0  0  0  0  0  0  0  0  0  0
  1  2  1  0
  3  4  2  0
  3  2  1  0
  6  5  1  1
  6  8  1  0
  7  6  1  0
  8  9  1  6
  9  3  1  0
 10 15  1  0
 10  8  1  0
 11 10  2  0
 14 13  1  1
 13 12  1  0
 14 15  1  0
 14 16  1  0
 16 18  1  0
 17 16  2  0
M  END
$$$$
