GVS.pdb
     RDKit          3D

 18 17  0  0  1  0  0  0  0  0999 V2000
   19.0899  -12.4339  -18.0711 N   0  0  0  0  0  0  0  0  0  0  0  0
   20.0558  -11.4408  -18.4334 C   0  0  0  0  0  0  0  0  0  0  0  0
   20.7851  -11.0040  -17.1905 C   0  0  0  0  0  0  0  0  0  0  0  0
   20.2288  -11.0409  -16.0554 O   0  0  0  0  0  0  0  0  0  0  0  0
   24.1127  -12.0616  -15.5779 C   0  0  0  0  0  0  0  0  0  0  0  0
   24.1303  -10.6020  -15.8199 C   0  0  2  0  0  0  0  0  0  0  0  0
   24.7701   -9.8957  -14.6469 C   0  0  0  0  0  0  0  0  0  0  0  0
   22.7906   -9.9801  -16.0886 C   0  0  2  0  0  0  0  0  0  0  0  0
   22.1260  -10.5330  -17.2401 N   0  0  0  0  0  0  0  0  0  0  0  0
   22.8854   -8.4839  -16.1800 C   0  0  0  0  0  0  0  0  0  0  0  0
   23.4187   -7.9190  -17.1694 O   0  0  0  0  0  0  0  0  0  0  0  0
   20.0250   -6.0511  -15.3349 O   0  0  0  0  0  0  0  0  0  0  0  0
   21.1909   -5.6611  -15.9458 C   0  0  0  0  0  0  0  0  0  0  0  0
   22.3847   -6.2228  -15.1982 C   0  0  2  0  0  0  0  0  0  0  0  0
   22.3664   -7.6526  -15.1333 N   0  0  0  0  0  0  0  0  0  0  0  0
   22.4077   -5.6672  -13.8286 C   0  0  0  0  0  0  0  0  0  0  0  0
   22.6227   -4.4415  -13.6798 O   0  0  0  0  0  0  0  0  0  0  0  0
   22.1988   -6.4570  -12.6962 O   0  0  0  0  0  0  0  0  0  0  0  0
  1  2  1  0
  3  4  2  0
  3  2  1  0
  6  5  1  1
  6  8  1  0
  7  6  1  0
  8  9  1  6
  9  3  1  0
 10 15  1  0
 10  8  1  0
 11 10  2  0
 14 13  1  1
 13 12  1  0
 14 15  1  0
 14 16  1  0
 16 18  1  0
 17 16  2  0
M  END
$$$$
