GVS.pdb
     RDKit          3D

 18 17  0  0  1  0  0  0  0  0999 V2000
   27.0718  -21.7007  -10.8126 N   0  0  0  0  0  0  0  0  0  0  0  0
   26.5530  -22.0460  -12.1018 C   0  0  0  0  0  0  0  0  0  0  0  0
   25.8881  -20.8313  -12.6932 C   0  0  0  0  0  0  0  0  0  0  0  0
   25.5189  -19.8651  -11.9656 O   0  0  0  0  0  0  0  0  0  0  0  0
   27.3188  -18.6165  -15.4349 C   0  0  0  0  0  0  0  0  0  0  0  0
   25.9320  -18.9789  -15.8019 C   0  0  2  0  0  0  0  0  0  0  0  0
   25.2282  -17.7793  -16.3934 C   0  0  0  0  0  0  0  0  0  0  0  0
   25.0954  -19.5292  -14.6833 C   0  0  2  0  0  0  0  0  0  0  0  0
   25.6480  -20.7193  -14.0904 N   0  0  0  0  0  0  0  0  0  0  0  0
   23.6723  -19.7443  -15.1132 C   0  0  0  0  0  0  0  0  0  0  0  0
   23.3678  -20.6252  -15.9580 O   0  0  0  0  0  0  0  0  0  0  0  0
   19.0052  -18.4789  -14.4899 O   0  0  0  0  0  0  0  0  0  0  0  0
   20.3068  -18.2524  -14.1171 C   0  0  0  0  0  0  0  0  0  0  0  0
   21.2430  -19.1155  -14.9405 C   0  0  2  0  0  0  0  0  0  0  0  0
   22.6144  -18.9449  -14.5676 N   0  0  0  0  0  0  0  0  0  0  0  0
   21.0767  -18.7866  -16.3721 C   0  0  0  0  0  0  0  0  0  0  0  0
   21.6719  -17.7844  -16.8325 O   0  0  0  0  0  0  0  0  0  0  0  0
   20.2817  -19.5506  -17.2288 O   0  0  0  0  0  0  0  0  0  0  0  0
  1  2  1  0
  3  4  2  0
  3  2  1  0
  6  5  1  1
  6  8  1  0
  7  6  1  0
  8  9  1  6
  9  3  1  0
 10 15  1  0
 10  8  1  0
 11 10  2  0
 14 13  1  1
 13 12  1  0
 14 15  1  0
 14 16  1  0
 16 18  1  0
 17 16  2  0
M  END
$$$$
