GVS.pdb
     RDKit          3D

 18 17  0  0  1  0  0  0  0  0999 V2000
   17.6008  -11.7629  -17.1761 N   0  0  0  0  0  0  0  0  0  0  0  0
   18.9906  -11.9037  -17.4907 C   0  0  0  0  0  0  0  0  0  0  0  0
   19.7975  -11.2201  -16.4189 C   0  0  0  0  0  0  0  0  0  0  0  0
   19.3456  -11.0789  -15.2462 O   0  0  0  0  0  0  0  0  0  0  0  0
   23.1490  -12.1776  -15.0337 C   0  0  0  0  0  0  0  0  0  0  0  0
   23.2215  -10.7578  -15.4438 C   0  0  2  0  0  0  0  0  0  0  0  0
   24.0132   -9.9700  -14.4255 C   0  0  0  0  0  0  0  0  0  0  0  0
   21.8975  -10.0830  -15.6563 C   0  0  2  0  0  0  0  0  0  0  0  0
   21.0976  -10.7060  -16.6788 N   0  0  0  0  0  0  0  0  0  0  0  0
   22.0629   -8.6125  -15.9138 C   0  0  0  0  0  0  0  0  0  0  0  0
   22.6234   -8.1876  -16.9567 O   0  0  0  0  0  0  0  0  0  0  0  0
   19.3763   -5.9675  -14.6096 O   0  0  0  0  0  0  0  0  0  0  0  0
   20.3099   -5.6357  -15.5597 C   0  0  0  0  0  0  0  0  0  0  0  0
   21.6557   -6.2350  -15.2005 C   0  0  2  0  0  0  0  0  0  0  0  0
   21.5824   -7.6458  -14.9701 N   0  0  0  0  0  0  0  0  0  0  0  0
   22.1810   -5.5646  -13.9922 C   0  0  0  0  0  0  0  0  0  0  0  0
   22.2959   -6.2302  -12.9366 O   0  0  0  0  0  0  0  0  0  0  0  0
   22.5533   -4.2189  -13.9842 O   0  0  0  0  0  0  0  0  0  0  0  0
  1  2  1  0
  3  4  2  0
  3  2  1  0
  6  5  1  1
  6  8  1  0
  7  6  1  0
  8  9  1  6
  9  3  1  0
 10 15  1  0
 10  8  1  0
 11 10  2  0
 14 13  1  1
 13 12  1  0
 14 15  1  0
 14 16  1  0
 16 18  1  0
 17 16  2  0
M  END
$$$$
