GVS.pdb
     RDKit          3D

 18 17  0  0  1  0  0  0  0  0999 V2000
   28.7265  -13.5506  -18.9395 N   0  0  0  0  0  0  0  0  0  0  0  0
   28.6511  -12.2578  -18.3284 C   0  0  0  0  0  0  0  0  0  0  0  0
   29.9733  -11.5613  -18.5130 C   0  0  0  0  0  0  0  0  0  0  0  0
   30.9381  -12.1290  -19.1013 O   0  0  0  0  0  0  0  0  0  0  0  0
   30.2776   -7.5253  -19.4009 C   0  0  0  0  0  0  0  0  0  0  0  0
   31.2755   -8.6109  -19.5225 C   0  0  2  0  0  0  0  0  0  0  0  0
   30.9667   -9.4574  -20.7359 C   0  0  0  0  0  0  0  0  0  0  0  0
   31.3978   -9.5071  -18.3243 C   0  0  2  0  0  0  0  0  0  0  0  0
   30.1925  -10.2400  -18.0352 N   0  0  0  0  0  0  0  0  0  0  0  0
   31.8799   -8.7528  -17.1182 C   0  0  0  0  0  0  0  0  0  0  0  0
   31.0765   -8.3014  -16.2618 O   0  0  0  0  0  0  0  0  0  0  0  0
   35.6167   -7.7544  -14.2309 O   0  0  0  0  0  0  0  0  0  0  0  0
   35.2247   -8.2784  -15.4377 C   0  0  0  0  0  0  0  0  0  0  0  0
   33.7937   -7.8782  -15.7401 C   0  0  2  0  0  0  0  0  0  0  0  0
   33.2800   -8.5252  -16.9090 N   0  0  0  0  0  0  0  0  0  0  0  0
   33.7245   -6.4122  -15.9173 C   0  0  0  0  0  0  0  0  0  0  0  0
   33.9879   -5.9290  -17.0432 O   0  0  0  0  0  0  0  0  0  0  0  0
   33.3770   -5.5476  -14.8774 O   0  0  0  0  0  0  0  0  0  0  0  0
  1  2  1  0
  3  4  2  0
  3  2  1  0
  6  5  1  1
  6  8  1  0
  7  6  1  0
  8  9  1  1
  9  3  1  0
 10 15  1  0
 10  8  1  0
 11 10  2  0
 14 13  1  6
 13 12  1  0
 14 15  1  0
 14 16  1  0
 16 18  1  0
 17 16  2  0
M  END
$$$$
