GVS.pdb
     RDKit          3D

 18 17  0  0  1  0  0  0  0  0999 V2000
   27.8478  -16.0904  -19.5429 N   0  0  0  0  0  0  0  0  0  0  0  0
   28.3897  -14.9957  -20.2901 C   0  0  0  0  0  0  0  0  0  0  0  0
   29.2562  -14.1716  -19.3750 C   0  0  0  0  0  0  0  0  0  0  0  0
   28.9371  -13.9778  -18.1667 O   0  0  0  0  0  0  0  0  0  0  0  0
   33.5991  -12.6310  -17.9128 C   0  0  0  0  0  0  0  0  0  0  0  0
   32.6839  -13.3986  -18.7859 C   0  0  2  0  0  0  0  0  0  0  0  0
   33.3130  -13.5883  -20.1471 C   0  0  0  0  0  0  0  0  0  0  0  0
   31.3166  -12.8045  -18.9621 C   0  0  2  0  0  0  0  0  0  0  0  0
   30.4662  -13.5782  -19.8290 N   0  0  0  0  0  0  0  0  0  0  0  0
   31.3908  -11.3720  -19.4076 C   0  0  0  0  0  0  0  0  0  0  0  0
   31.6423  -11.0682  -20.6022 O   0  0  0  0  0  0  0  0  0  0  0  0
   30.6555   -8.3280  -16.6315 O   0  0  0  0  0  0  0  0  0  0  0  0
   30.3817   -8.0459  -17.9467 C   0  0  0  0  0  0  0  0  0  0  0  0
   31.2210   -8.9242  -18.8543 C   0  0  2  0  0  0  0  0  0  0  0  0
   31.1753  -10.3038  -18.4758 N   0  0  0  0  0  0  0  0  0  0  0  0
   32.6217   -8.4523  -18.8301 C   0  0  0  0  0  0  0  0  0  0  0  0
   32.8901   -7.3376  -19.3363 O   0  0  0  0  0  0  0  0  0  0  0  0
   33.6551   -9.2020  -18.2648 O   0  0  0  0  0  0  0  0  0  0  0  0
  1  2  1  0
  3  4  2  0
  3  2  1  0
  6  5  1  1
  6  8  1  0
  7  6  1  0
  8  9  1  6
  9  3  1  0
 10 15  1  0
 10  8  1  0
 11 10  2  0
 14 13  1  1
 13 12  1  0
 14 15  1  0
 14 16  1  0
 16 18  1  0
 17 16  2  0
M  END
$$$$
