GVS.pdb
     RDKit          3D

 18 17  0  0  1  0  0  0  0  0999 V2000
   17.0695  -11.9935  -16.1756 N   0  0  0  0  0  0  0  0  0  0  0  0
   17.8809  -11.0326  -16.8602 C   0  0  0  0  0  0  0  0  0  0  0  0
   18.8244  -10.4063  -15.8678 C   0  0  0  0  0  0  0  0  0  0  0  0
   18.4785  -10.2082  -14.6676 O   0  0  0  0  0  0  0  0  0  0  0  0
   22.2747  -11.5198  -14.7326 C   0  0  0  0  0  0  0  0  0  0  0  0
   22.3612  -10.1155  -15.1905 C   0  0  2  0  0  0  0  0  0  0  0  0
   23.2692   -9.3316  -14.2711 C   0  0  0  0  0  0  0  0  0  0  0  0
   21.0486   -9.3961  -15.3049 C   0  0  2  0  0  0  0  0  0  0  0  0
   20.1401  -10.0123  -16.2367 N   0  0  0  0  0  0  0  0  0  0  0  0
   21.2432   -7.9394  -15.6154 C   0  0  0  0  0  0  0  0  0  0  0  0
   21.6655   -7.5580  -16.7373 O   0  0  0  0  0  0  0  0  0  0  0  0
   18.7996   -5.1737  -15.4643 O   0  0  0  0  0  0  0  0  0  0  0  0
   19.7921   -4.7767  -14.6031 C   0  0  0  0  0  0  0  0  0  0  0  0
   21.0720   -5.5349  -14.8970 C   0  0  2  0  0  0  0  0  0  0  0  0
   20.9506   -6.9365  -14.6333 N   0  0  0  0  0  0  0  0  0  0  0  0
   22.1697   -4.9730  -14.0818 C   0  0  0  0  0  0  0  0  0  0  0  0
   22.5352   -5.5926  -13.0556 O   0  0  0  0  0  0  0  0  0  0  0  0
   22.8132   -3.7789  -14.4130 O   0  0  0  0  0  0  0  0  0  0  0  0
  1  2  1  0
  3  4  2  0
  3  2  1  0
  6  5  1  1
  6  8  1  0
  7  6  1  0
  8  9  1  6
  9  3  1  0
 10 15  1  0
 10  8  1  0
 11 10  2  0
 14 13  1  1
 13 12  1  0
 14 15  1  0
 14 16  1  0
 16 18  1  0
 17 16  2  0
M  END
$$$$
