WYC.pdb
     RDKit          3D

 33 35  0  0  1  0  0  0  0  0999 V2000
    6.0941  -18.0028   23.5737 N   0  0  0  0  0  0  0  0  0  0  0  0
    6.9062  -16.8445   23.7078 C   0  0  1  0  0  0  0  0  0  0  0  0
    7.1678  -16.5136   25.1580 C   0  0  0  0  0  0  0  0  0  0  0  0
    6.4176  -15.3348   25.6161 C   0  0  0  0  0  0  0  0  0  0  0  0
    5.0966  -15.3014   26.0004 C   0  0  0  0  0  0  0  0  0  0  0  0
    4.7553  -14.0593   26.3868 N   0  0  0  0  0  0  0  0  0  0  0  0
    5.8502  -13.2885   26.2535 C   0  0  0  0  0  0  0  0  0  0  0  0
    5.9942  -11.9515   26.5169 C   0  0  0  0  0  0  0  0  0  0  0  0
    7.2330  -11.3485   26.2956 C   0  0  0  0  0  0  0  0  0  0  0  0
    8.2757  -12.1117   25.8189 C   0  0  0  0  0  0  0  0  0  0  0  0
    8.1221  -13.4536   25.5573 C   0  0  0  0  0  0  0  0  0  0  0  0
    6.9049  -14.0653   25.7715 C   0  0  0  0  0  0  0  0  0  0  0  0
    8.1892  -16.9110   22.9465 C   0  0  0  0  0  0  0  0  0  0  0  0
    8.5654  -18.0413   22.5422 O   0  0  0  0  0  0  0  0  0  0  0  0
    6.4052  -13.7144   17.1420 O   0  0  0  0  0  0  0  0  0  0  0  0
    7.3513  -13.8854   18.1490 C   0  0  0  0  0  0  0  0  0  0  0  0
    7.5653  -12.9178   19.1081 C   0  0  0  0  0  0  0  0  0  0  0  0
    8.5052  -13.1019   20.0981 C   0  0  0  0  0  0  0  0  0  0  0  0
    9.2863  -14.2562   20.1931 C   0  0  0  0  0  0  0  0  0  0  0  0
   10.2810  -14.3997   21.2882 C   0  0  0  0  0  0  0  0  0  0  0  0
   10.1056  -15.7307   21.9568 C   0  0  2  0  0  0  0  0  0  0  0  0
    8.8903  -15.6987   22.7345 N   0  0  0  0  0  0  0  0  0  0  0  0
   11.2254  -16.1133   22.8377 C   0  0  0  0  0  0  0  0  0  0  0  0
   12.3765  -16.2316   22.3573 O   0  0  0  0  0  0  0  0  0  0  0  0
    9.0618  -15.2134   19.2293 C   0  0  0  0  0  0  0  0  0  0  0  0
    8.1164  -15.0291   18.2326 C   0  0  0  0  0  0  0  0  0  0  0  0
   11.0624  -16.3601   24.2327 N   0  0  0  0  0  0  0  0  0  0  0  0
   12.1868  -16.8211   25.0017 C   0  0  1  0  0  0  0  0  0  0  0  0
   12.1002  -16.2968   26.4234 C   0  0  0  0  0  0  0  0  0  0  0  0
   10.3254  -16.2654   26.8579 S   0  0  0  0  0  0  0  0  0  0  0  0
   12.2208  -18.3112   25.0897 C   0  0  0  0  0  0  0  0  0  0  0  0
   13.3255  -18.9499   25.6275 O   0  0  0  0  0  0  0  0  0  0  0  0
   11.2689  -19.0181   24.6874 O   0  0  0  0  0  0  0  0  0  0  0  0
  2 13  1  0
  2  1  1  1
  3  2  1  0
  4  3  1  0
  5  4  2  0
  6  5  1  0
  7  6  1  0
  7 12  2  0
  8  7  1  0
  9  8  2  0
  9 10  1  0
 10 11  2  0
 11 12  1  0
 12  4  1  0
 13 14  2  0
 15 16  1  0
 16 17  2  0
 17 18  1  0
 19 18  2  0
 19 20  1  0
 21 20  1  1
 22 21  1  0
 22 13  1  0
 23 21  1  0
 24 23  2  0
 25 19  1  0
 26 16  1  0
 26 25  2  0
 27 23  1  0
 28 27  1  0
 29 30  1  0
 28 29  1  1
 31 28  1  0
 31 32  1  0
 33 31  2  0
M  END
$$$$
