WYC.pdb
     RDKit          3D

 33 35  0  0  1  0  0  0  0  0999 V2000
    6.2002  -18.0974   23.7140 N   0  0  0  0  0  0  0  0  0  0  0  0
    6.9274  -16.8908   23.8997 C   0  0  1  0  0  0  0  0  0  0  0  0
    6.9752  -16.4884   25.3546 C   0  0  0  0  0  0  0  0  0  0  0  0
    6.2820  -15.2183   25.6159 C   0  0  0  0  0  0  0  0  0  0  0  0
    4.9529  -15.0594   25.9358 C   0  0  0  0  0  0  0  0  0  0  0  0
    4.6741  -13.7590   26.1348 N   0  0  0  0  0  0  0  0  0  0  0  0
    5.8174  -13.0754   25.9444 C   0  0  0  0  0  0  0  0  0  0  0  0
    6.0326  -11.7248   26.0295 C   0  0  0  0  0  0  0  0  0  0  0  0
    7.3123  -11.2272   25.7809 C   0  0  0  0  0  0  0  0  0  0  0  0
    8.3230  -12.1051   25.4571 C   0  0  0  0  0  0  0  0  0  0  0  0
    8.0978  -13.4598   25.3741 C   0  0  0  0  0  0  0  0  0  0  0  0
    6.8394  -13.9682   25.6177 C   0  0  0  0  0  0  0  0  0  0  0  0
    8.3026  -16.9150   23.3181 C   0  0  0  0  0  0  0  0  0  0  0  0
    8.7668  -18.0325   22.9739 O   0  0  0  0  0  0  0  0  0  0  0  0
    6.8300  -14.0538   17.4480 O   0  0  0  0  0  0  0  0  0  0  0  0
    7.7093  -14.1241   18.5253 C   0  0  0  0  0  0  0  0  0  0  0  0
    8.8362  -14.9180   18.4845 C   0  0  0  0  0  0  0  0  0  0  0  0
    9.6965  -14.9770   19.5587 C   0  0  0  0  0  0  0  0  0  0  0  0
    9.4879  -14.2519   20.7343 C   0  0  0  0  0  0  0  0  0  0  0  0
   10.4555  -14.3523   21.8582 C   0  0  0  0  0  0  0  0  0  0  0  0
   10.2801  -15.6672   22.5579 C   0  0  2  0  0  0  0  0  0  0  0  0
    8.9856  -15.6803   23.1958 N   0  0  0  0  0  0  0  0  0  0  0  0
   11.3137  -15.9517   23.5712 C   0  0  0  0  0  0  0  0  0  0  0  0
   12.5136  -16.0408   23.2214 O   0  0  0  0  0  0  0  0  0  0  0  0
    8.3593  -13.4638   20.7608 C   0  0  0  0  0  0  0  0  0  0  0  0
    7.4930  -13.4038   19.6805 C   0  0  0  0  0  0  0  0  0  0  0  0
   11.0125  -16.1340   24.9531 N   0  0  0  0  0  0  0  0  0  0  0  0
   12.0562  -16.5469   25.8522 C   0  0  1  0  0  0  0  0  0  0  0  0
   11.6657  -16.2383   27.2860 C   0  0  0  0  0  0  0  0  0  0  0  0
   11.0293  -14.5253   27.2935 S   0  0  0  0  0  0  0  0  0  0  0  0
   12.3001  -18.0179   25.7755 C   0  0  0  0  0  0  0  0  0  0  0  0
   11.5203  -18.8089   24.9485 O   0  0  0  0  0  0  0  0  0  0  0  0
   13.2012  -18.5734   26.4443 O   0  0  0  0  0  0  0  0  0  0  0  0
  2 13  1  0
  2  1  1  1
  3  2  1  0
  4  3  1  0
  5  4  2  0
  6  5  1  0
  7  6  1  0
  7 12  2  0
  8  7  1  0
  9  8  2  0
  9 10  1  0
 10 11  2  0
 11 12  1  0
 12  4  1  0
 13 14  2  0
 15 16  1  0
 16 17  2  0
 17 18  1  0
 19 18  2  0
 19 20  1  0
 21 20  1  1
 22 21  1  0
 22 13  1  0
 23 21  1  0
 24 23  2  0
 25 19  1  0
 26 16  1  0
 26 25  2  0
 27 23  1  0
 28 27  1  0
 29 30  1  0
 28 29  1  1
 31 28  1  0
 31 32  1  0
 33 31  2  0
M  END
$$$$
