WYC.pdb
     RDKit          3D

 33 35  0  0  1  0  0  0  0  0999 V2000
    6.8928  -18.0475   25.8760 N   0  0  0  0  0  0  0  0  0  0  0  0
    7.2198  -16.7694   25.3479 C   0  0  1  0  0  0  0  0  0  0  0  0
    8.4442  -16.1887   26.0148 C   0  0  0  0  0  0  0  0  0  0  0  0
    8.1142  -15.1553   27.0074 C   0  0  0  0  0  0  0  0  0  0  0  0
    8.2421  -15.2593   28.3737 C   0  0  0  0  0  0  0  0  0  0  0  0
    7.8740  -14.1088   28.9648 N   0  0  0  0  0  0  0  0  0  0  0  0
    7.5079  -13.2607   27.9863 C   0  0  0  0  0  0  0  0  0  0  0  0
    7.0524  -11.9728   28.0946 C   0  0  0  0  0  0  0  0  0  0  0  0
    6.7190  -11.2739   26.9338 C   0  0  0  0  0  0  0  0  0  0  0  0
    6.8562  -11.8959   25.7126 C   0  0  0  0  0  0  0  0  0  0  0  0
    7.3145  -13.1893   25.6134 C   0  0  0  0  0  0  0  0  0  0  0  0
    7.6493  -13.8939   26.7505 C   0  0  0  0  0  0  0  0  0  0  0  0
    7.3727  -16.7471   23.8626 C   0  0  0  0  0  0  0  0  0  0  0  0
    7.5544  -17.8483   23.2820 O   0  0  0  0  0  0  0  0  0  0  0  0
    8.4447  -13.6158   15.7268 O   0  0  0  0  0  0  0  0  0  0  0  0
    8.1060  -13.7517   17.0704 C   0  0  0  0  0  0  0  0  0  0  0  0
    8.5490  -12.8542   18.0192 C   0  0  0  0  0  0  0  0  0  0  0  0
    8.2053  -13.0024   19.3449 C   0  0  0  0  0  0  0  0  0  0  0  0
    7.4026  -14.0491   19.8048 C   0  0  0  0  0  0  0  0  0  0  0  0
    7.0608  -14.1530   21.2476 C   0  0  0  0  0  0  0  0  0  0  0  0
    7.6396  -15.4159   21.8128 C   0  0  2  0  0  0  0  0  0  0  0  0
    7.3029  -15.4899   23.2142 N   0  0  0  0  0  0  0  0  0  0  0  0
    9.1037  -15.5237   21.6680 C   0  0  0  0  0  0  0  0  0  0  0  0
    9.8383  -14.6208   22.1319 O   0  0  0  0  0  0  0  0  0  0  0  0
    6.9677  -14.9371   18.8468 C   0  0  0  0  0  0  0  0  0  0  0  0
    7.3130  -14.7890   17.5126 C   0  0  0  0  0  0  0  0  0  0  0  0
    9.7375  -16.6219   21.0156 N   0  0  0  0  0  0  0  0  0  0  0  0
   11.1683  -16.6238   20.8709 C   0  0  1  0  0  0  0  0  0  0  0  0
   11.7207  -18.0118   21.1394 C   0  0  0  0  0  0  0  0  0  0  0  0
   11.3191  -18.4028   22.8789 S   0  0  0  0  0  0  0  0  0  0  0  0
   11.5829  -16.2519   19.4857 C   0  0  0  0  0  0  0  0  0  0  0  0
   12.9266  -16.1445   19.1683 O   0  0  0  0  0  0  0  0  0  0  0  0
   10.7443  -16.0293   18.5830 O   0  0  0  0  0  0  0  0  0  0  0  0
  2 13  1  0
  2  1  1  1
  3  2  1  0
  4  3  1  0
  5  4  2  0
  6  5  1  0
  7  6  1  0
  7 12  2  0
  8  7  1  0
  9  8  2  0
  9 10  1  0
 10 11  2  0
 11 12  1  0
 12  4  1  0
 13 14  2  0
 15 16  1  0
 16 17  2  0
 17 18  1  0
 19 18  2  0
 19 20  1  0
 21 20  1  1
 22 21  1  0
 22 13  1  0
 23 21  1  0
 24 23  2  0
 25 19  1  0
 26 16  1  0
 26 25  2  0
 27 23  1  0
 28 27  1  0
 29 30  1  0
 28 29  1  6
 31 28  1  0
 31 32  1  0
 33 31  2  0
M  END
$$$$
