WYC.pdb
     RDKit          3D

 33 35  0  0  1  0  0  0  0  0999 V2000
    7.4306  -17.0285   25.5620 N   0  0  0  0  0  0  0  0  0  0  0  0
    8.4299  -16.1009   25.1616 C   0  0  1  0  0  0  0  0  0  0  0  0
    8.4627  -14.8931   26.0676 C   0  0  0  0  0  0  0  0  0  0  0  0
    7.2053  -14.1313   26.0447 C   0  0  0  0  0  0  0  0  0  0  0  0
    5.9425  -14.6246   26.2814 C   0  0  0  0  0  0  0  0  0  0  0  0
    5.0344  -13.6357   26.2052 N   0  0  0  0  0  0  0  0  0  0  0  0
    5.7044  -12.5042   25.9196 C   0  0  0  0  0  0  0  0  0  0  0  0
    5.2110  -11.2387   25.7383 C   0  0  0  0  0  0  0  0  0  0  0  0
    6.0978  -10.2041   25.4377 C   0  0  0  0  0  0  0  0  0  0  0  0
    7.4426  -10.4820   25.3311 C   0  0  0  0  0  0  0  0  0  0  0  0
    7.9291  -11.7556   25.5149 C   0  0  0  0  0  0  0  0  0  0  0  0
    7.0666  -12.7894   25.8136 C   0  0  0  0  0  0  0  0  0  0  0  0
    9.7936  -16.6956   25.0327 C   0  0  0  0  0  0  0  0  0  0  0  0
   10.5055  -16.7435   26.0688 O   0  0  0  0  0  0  0  0  0  0  0  0
   11.5103  -16.4708   29.8439 O   0  0  0  0  0  0  0  0  0  0  0  0
   11.6367  -16.9631   28.5477 C   0  0  0  0  0  0  0  0  0  0  0  0
   10.9071  -18.0509   28.1160 C   0  0  0  0  0  0  0  0  0  0  0  0
   11.0435  -18.5262   26.8304 C   0  0  0  0  0  0  0  0  0  0  0  0
   11.9112  -17.9496   25.8998 C   0  0  0  0  0  0  0  0  0  0  0  0
   12.0107  -18.5041   24.5242 C   0  0  0  0  0  0  0  0  0  0  0  0
   11.5811  -17.4662   23.5305 C   0  0  2  0  0  0  0  0  0  0  0  0
   10.1882  -17.1624   23.7550 N   0  0  0  0  0  0  0  0  0  0  0  0
   11.7599  -17.8708   22.1232 C   0  0  0  0  0  0  0  0  0  0  0  0
   11.2690  -18.9525   21.7244 O   0  0  0  0  0  0  0  0  0  0  0  0
   12.6328  -16.8647   26.3444 C   0  0  0  0  0  0  0  0  0  0  0  0
   12.4965  -16.3856   27.6379 C   0  0  0  0  0  0  0  0  0  0  0  0
   12.4754  -17.0804   21.1762 N   0  0  0  0  0  0  0  0  0  0  0  0
   12.8900  -17.6746   19.9339 C   0  0  1  0  0  0  0  0  0  0  0  0
   13.1076  -16.5994   18.8851 C   0  0  0  0  0  0  0  0  0  0  0  0
   11.5469  -15.6545   18.7788 S   0  0  0  0  0  0  0  0  0  0  0  0
   14.1821  -18.4086   20.0779 C   0  0  0  0  0  0  0  0  0  0  0  0
   14.8017  -18.4879   21.3139 O   0  0  0  0  0  0  0  0  0  0  0  0
   14.7369  -18.9659   19.1035 O   0  0  0  0  0  0  0  0  0  0  0  0
  2 13  1  0
  2  1  1  1
  3  2  1  0
  4  3  1  0
  5  4  2  0
  6  5  1  0
  7  6  1  0
  7 12  2  0
  8  7  1  0
  9  8  2  0
  9 10  1  0
 10 11  2  0
 11 12  1  0
 12  4  1  0
 13 14  2  0
 15 16  1  0
 16 17  2  0
 17 18  1  0
 19 18  2  0
 19 20  1  0
 21 20  1  1
 22 21  1  0
 22 13  1  0
 23 21  1  0
 24 23  2  0
 25 19  1  0
 26 16  1  0
 26 25  2  0
 27 23  1  0
 28 27  1  0
 29 30  1  0
 28 29  1  6
 31 28  1  0
 31 32  1  0
 33 31  2  0
M  END
$$$$
