WYC.pdb
     RDKit          3D

 33 35  0  0  1  0  0  0  0  0999 V2000
    6.5684  -18.9249   26.1081 N   0  0  0  0  0  0  0  0  0  0  0  0
    7.1870  -17.7095   25.7091 C   0  0  1  0  0  0  0  0  0  0  0  0
    8.6440  -17.6709   26.1046 C   0  0  0  0  0  0  0  0  0  0  0  0
    8.9059  -16.7485   27.2194 C   0  0  0  0  0  0  0  0  0  0  0  0
    9.2966  -17.0914   28.4937 C   0  0  0  0  0  0  0  0  0  0  0  0
    9.4717  -15.9866   29.2402 N   0  0  0  0  0  0  0  0  0  0  0  0
    9.1952  -14.9300   28.4542 C   0  0  0  0  0  0  0  0  0  0  0  0
    9.2265  -13.5966   28.7686 C   0  0  0  0  0  0  0  0  0  0  0  0
    8.8898  -12.6628   27.7879 C   0  0  0  0  0  0  0  0  0  0  0  0
    8.5354  -13.1052   26.5327 C   0  0  0  0  0  0  0  0  0  0  0  0
    8.5068  -14.4460   26.2259 C   0  0  0  0  0  0  0  0  0  0  0  0
    8.8376  -15.3820   27.1829 C   0  0  0  0  0  0  0  0  0  0  0  0
    7.0304  -17.3966   24.2573 C   0  0  0  0  0  0  0  0  0  0  0  0
    6.9927  -18.3659   23.4562 O   0  0  0  0  0  0  0  0  0  0  0  0
    7.7860  -12.8157   16.8682 O   0  0  0  0  0  0  0  0  0  0  0  0
    7.5941  -13.1470   18.2068 C   0  0  0  0  0  0  0  0  0  0  0  0
    6.7347  -14.1581   18.5824 C   0  0  0  0  0  0  0  0  0  0  0  0
    6.5555  -14.4740   19.9112 C   0  0  0  0  0  0  0  0  0  0  0  0
    7.2185  -13.8050   20.9428 C   0  0  0  0  0  0  0  0  0  0  0  0
    6.9882  -14.1953   22.3585 C   0  0  0  0  0  0  0  0  0  0  0  0
    7.2224  -15.6679   22.5194 C   0  0  2  0  0  0  0  0  0  0  0  0
    6.9361  -16.0330   23.8860 N   0  0  0  0  0  0  0  0  0  0  0  0
    8.5941  -16.0982   22.1885 C   0  0  0  0  0  0  0  0  0  0  0  0
    8.8050  -16.7243   21.1238 O   0  0  0  0  0  0  0  0  0  0  0  0
    8.0731  -12.7983   20.5531 C   0  0  0  0  0  0  0  0  0  0  0  0
    8.2541  -12.4796   19.2164 C   0  0  0  0  0  0  0  0  0  0  0  0
    9.7124  -15.8340   23.0329 N   0  0  0  0  0  0  0  0  0  0  0  0
   11.0368  -16.1384   22.5623 C   0  0  1  0  0  0  0  0  0  0  0  0
   12.0249  -15.1052   23.0720 C   0  0  0  0  0  0  0  0  0  0  0  0
   11.6629  -14.8726   24.8481 S   0  0  0  0  0  0  0  0  0  0  0  0
   11.5053  -17.4675   23.0554 C   0  0  0  0  0  0  0  0  0  0  0  0
   12.7283  -17.9694   22.6432 O   0  0  0  0  0  0  0  0  0  0  0  0
   10.8197  -18.1584   23.8431 O   0  0  0  0  0  0  0  0  0  0  0  0
  2 13  1  0
  2  1  1  6
  3  2  1  0
  4  3  1  0
  5  4  2  0
  6  5  1  0
  7  6  1  0
  7 12  2  0
  8  7  1  0
  9  8  2  0
  9 10  1  0
 10 11  2  0
 11 12  1  0
 12  4  1  0
 13 14  2  0
 15 16  1  0
 16 17  2  0
 17 18  1  0
 19 18  2  0
 19 20  1  0
 21 20  1  1
 22 21  1  0
 22 13  1  0
 23 21  1  0
 24 23  2  0
 25 19  1  0
 26 16  1  0
 26 25  2  0
 27 23  1  0
 28 27  1  0
 29 30  1  0
 28 29  1  1
 31 28  1  0
 31 32  1  0
 33 31  2  0
M  END
$$$$
