WYC.pdb
     RDKit          3D

 33 35  0  0  1  0  0  0  0  0999 V2000
    7.7711  -17.8316   26.3237 N   0  0  0  0  0  0  0  0  0  0  0  0
    7.6539  -16.7897   25.3646 C   0  0  1  0  0  0  0  0  0  0  0  0
    8.8504  -15.8685   25.3952 C   0  0  0  0  0  0  0  0  0  0  0  0
    8.6997  -14.7735   26.3648 C   0  0  0  0  0  0  0  0  0  0  0  0
    9.3034  -14.6805   27.5980 C   0  0  0  0  0  0  0  0  0  0  0  0
    8.9592  -13.5279   28.1993 N   0  0  0  0  0  0  0  0  0  0  0  0
    8.1346  -12.8747   27.3602 C   0  0  0  0  0  0  0  0  0  0  0  0
    7.5199  -11.6623   27.5338 C   0  0  0  0  0  0  0  0  0  0  0  0
    6.6900  -11.1744   26.5237 C   0  0  0  0  0  0  0  0  0  0  0  0
    6.5108  -11.9230   25.3816 C   0  0  0  0  0  0  0  0  0  0  0  0
    7.1321  -13.1393   25.2158 C   0  0  0  0  0  0  0  0  0  0  0  0
    7.9563  -13.6356   26.2037 C   0  0  0  0  0  0  0  0  0  0  0  0
    7.3990  -17.2705   23.9740 C   0  0  0  0  0  0  0  0  0  0  0  0
    7.3745  -18.5141   23.7859 O   0  0  0  0  0  0  0  0  0  0  0  0
    9.1867  -11.3531   18.8608 O   0  0  0  0  0  0  0  0  0  0  0  0
    8.4581  -12.4366   19.3441 C   0  0  0  0  0  0  0  0  0  0  0  0
    7.9641  -12.4556   20.6316 C   0  0  0  0  0  0  0  0  0  0  0  0
    7.2450  -13.5352   21.0951 C   0  0  0  0  0  0  0  0  0  0  0  0
    6.9752  -14.6574   20.3080 C   0  0  0  0  0  0  0  0  0  0  0  0
    6.1883  -15.7899   20.8627 C   0  0  0  0  0  0  0  0  0  0  0  0
    7.1020  -16.7275   21.5944 C   0  0  2  0  0  0  0  0  0  0  0  0
    7.2036  -16.2937   22.9671 N   0  0  0  0  0  0  0  0  0  0  0  0
    8.4582  -16.8154   21.0207 C   0  0  0  0  0  0  0  0  0  0  0  0
    8.6181  -17.3307   19.8898 O   0  0  0  0  0  0  0  0  0  0  0  0
    7.4744  -14.6245   19.0254 C   0  0  0  0  0  0  0  0  0  0  0  0
    8.1981  -13.5387   18.5579 C   0  0  0  0  0  0  0  0  0  0  0  0
    9.6174  -16.3357   21.6987 N   0  0  0  0  0  0  0  0  0  0  0  0
   10.9028  -16.4543   21.0649 C   0  0  1  0  0  0  0  0  0  0  0  0
   11.4326  -15.0816   20.6926 C   0  0  0  0  0  0  0  0  0  0  0  0
   13.0682  -15.3478   19.9220 S   0  0  0  0  0  0  0  0  0  0  0  0
   11.9105  -17.0768   21.9738 C   0  0  0  0  0  0  0  0  0  0  0  0
   11.7159  -17.0555   23.3447 O   0  0  0  0  0  0  0  0  0  0  0  0
   12.9449  -17.6282   21.5336 O   0  0  0  0  0  0  0  0  0  0  0  0
  2 13  1  0
  2  1  1  1
  3  2  1  0
  4  3  1  0
  5  4  2  0
  6  5  1  0
  7  6  1  0
  7 12  2  0
  8  7  1  0
  9  8  2  0
  9 10  1  0
 10 11  2  0
 11 12  1  0
 12  4  1  0
 13 14  2  0
 15 16  1  0
 16 17  2  0
 17 18  1  0
 19 18  2  0
 19 20  1  0
 21 20  1  6
 22 21  1  0
 22 13  1  0
 23 21  1  0
 24 23  2  0
 25 19  1  0
 26 16  1  0
 26 25  2  0
 27 23  1  0
 28 27  1  0
 29 30  1  0
 28 29  1  1
 31 28  1  0
 31 32  1  0
 33 31  2  0
M  END
$$$$
