WYC.pdb
     RDKit          3D

 33 35  0  0  1  0  0  0  0  0999 V2000
    6.0505  -18.1263   23.7177 N   0  0  0  0  0  0  0  0  0  0  0  0
    6.7468  -16.9132   23.9684 C   0  0  1  0  0  0  0  0  0  0  0  0
    6.7886  -16.5905   25.4432 C   0  0  0  0  0  0  0  0  0  0  0  0
    6.2904  -15.2401   25.7436 C   0  0  0  0  0  0  0  0  0  0  0  0
    4.9749  -14.8657   25.8959 C   0  0  0  0  0  0  0  0  0  0  0  0
    4.8947  -13.5569   26.1943 N   0  0  0  0  0  0  0  0  0  0  0  0
    6.1532  -13.0825   26.2353 C   0  0  0  0  0  0  0  0  0  0  0  0
    6.5799  -11.8062   26.4937 C   0  0  0  0  0  0  0  0  0  0  0  0
    7.9485  -11.5344   26.4757 C   0  0  0  0  0  0  0  0  0  0  0  0
    8.8321  -12.5540   26.1990 C   0  0  0  0  0  0  0  0  0  0  0  0
    8.3947  -13.8325   25.9408 C   0  0  0  0  0  0  0  0  0  0  0  0
    7.0458  -14.1185   25.9556 C   0  0  0  0  0  0  0  0  0  0  0  0
    8.1204  -16.8698   23.3842 C   0  0  0  0  0  0  0  0  0  0  0  0
    8.6803  -17.9689   23.1371 O   0  0  0  0  0  0  0  0  0  0  0  0
    7.1832  -14.2746   17.1757 O   0  0  0  0  0  0  0  0  0  0  0  0
    7.9321  -14.2620   18.3493 C   0  0  0  0  0  0  0  0  0  0  0  0
    9.0329  -15.0771   18.5100 C   0  0  0  0  0  0  0  0  0  0  0  0
    9.7638  -15.0531   19.6773 C   0  0  0  0  0  0  0  0  0  0  0  0
    9.4443  -14.2193   20.7517 C   0  0  0  0  0  0  0  0  0  0  0  0
   10.2749  -14.2341   21.9843 C   0  0  0  0  0  0  0  0  0  0  0  0
   10.0687  -15.5274   22.7152 C   0  0  2  0  0  0  0  0  0  0  0  0
    8.6944  -15.5962   23.1505 N   0  0  0  0  0  0  0  0  0  0  0  0
   10.9489  -15.7034   23.8859 C   0  0  0  0  0  0  0  0  0  0  0  0
   12.1923  -15.6743   23.7336 O   0  0  0  0  0  0  0  0  0  0  0  0
    8.3434  -13.4113   20.5772 C   0  0  0  0  0  0  0  0  0  0  0  0
    7.6072  -13.4347   19.4030 C   0  0  0  0  0  0  0  0  0  0  0  0
   10.4488  -15.9088   25.2054 N   0  0  0  0  0  0  0  0  0  0  0  0
   11.3740  -15.9939   26.3031 C   0  0  1  0  0  0  0  0  0  0  0  0
   10.7698  -15.3702   27.5479 C   0  0  0  0  0  0  0  0  0  0  0  0
   12.0260  -15.5220   28.8666 S   0  0  0  0  0  0  0  0  0  0  0  0
   11.6990  -17.4113   26.6416 C   0  0  0  0  0  0  0  0  0  0  0  0
   12.9039  -17.7212   27.2498 O   0  0  0  0  0  0  0  0  0  0  0  0
   10.9070  -18.3481   26.3909 O   0  0  0  0  0  0  0  0  0  0  0  0
  2 13  1  0
  2  1  1  1
  3  2  1  0
  4  3  1  0
  5  4  2  0
  6  5  1  0
  7  6  1  0
  7 12  2  0
  8  7  1  0
  9  8  2  0
  9 10  1  0
 10 11  2  0
 11 12  1  0
 12  4  1  0
 13 14  2  0
 15 16  1  0
 16 17  2  0
 17 18  1  0
 19 18  2  0
 19 20  1  0
 21 20  1  1
 22 21  1  0
 22 13  1  0
 23 21  1  0
 24 23  2  0
 25 19  1  0
 26 16  1  0
 26 25  2  0
 27 23  1  0
 28 27  1  0
 29 30  1  0
 28 29  1  1
 31 28  1  0
 31 32  1  0
 33 31  2  0
M  END
$$$$
