WYC.pdb
     RDKit          3D

 33 35  0  0  1  0  0  0  0  0999 V2000
    9.2008  -17.3244   22.2850 N   0  0  0  0  0  0  0  0  0  0  0  0
   10.1828  -16.2985   22.2376 C   0  0  1  0  0  0  0  0  0  0  0  0
    9.5540  -14.9254   22.2526 C   0  0  0  0  0  0  0  0  0  0  0  0
    8.3868  -14.8254   21.3639 C   0  0  0  0  0  0  0  0  0  0  0  0
    7.1706  -15.4466   21.5335 C   0  0  0  0  0  0  0  0  0  0  0  0
    6.3299  -15.1032   20.5416 N   0  0  0  0  0  0  0  0  0  0  0  0
    6.9976  -14.2626   19.7302 C   0  0  0  0  0  0  0  0  0  0  0  0
    6.5621  -13.6519   18.5834 C   0  0  0  0  0  0  0  0  0  0  0  0
    7.4371  -12.8162   17.8884 C   0  0  0  0  0  0  0  0  0  0  0  0
    8.7128  -12.6281   18.3725 C   0  0  0  0  0  0  0  0  0  0  0  0
    9.1414  -13.2452   19.5249 C   0  0  0  0  0  0  0  0  0  0  0  0
    8.2891  -14.0734   20.2244 C   0  0  0  0  0  0  0  0  0  0  0  0
   11.2266  -16.4076   23.3000 C   0  0  0  0  0  0  0  0  0  0  0  0
   12.3953  -16.0485   23.0036 O   0  0  0  0  0  0  0  0  0  0  0  0
    5.9841  -12.0044   28.1702 O   0  0  0  0  0  0  0  0  0  0  0  0
    6.7290  -12.8096   27.3128 C   0  0  0  0  0  0  0  0  0  0  0  0
    7.9978  -12.4508   26.9085 C   0  0  0  0  0  0  0  0  0  0  0  0
    8.7222  -13.2582   26.0596 C   0  0  0  0  0  0  0  0  0  0  0  0
    8.2294  -14.4675   25.5634 C   0  0  0  0  0  0  0  0  0  0  0  0
    9.0612  -15.2990   24.6545 C   0  0  0  0  0  0  0  0  0  0  0  0
   10.0966  -16.0350   25.4517 C   0  0  2  0  0  0  0  0  0  0  0  0
   10.8273  -16.9072   24.5638 N   0  0  0  0  0  0  0  0  0  0  0  0
    9.5443  -16.8372   26.5597 C   0  0  0  0  0  0  0  0  0  0  0  0
    8.9458  -16.2632   27.4991 O   0  0  0  0  0  0  0  0  0  0  0  0
    6.9620  -14.8130   25.9753 C   0  0  0  0  0  0  0  0  0  0  0  0
    6.2321  -14.0012   26.8294 C   0  0  0  0  0  0  0  0  0  0  0  0
    9.6585  -18.2574   26.6181 N   0  0  0  0  0  0  0  0  0  0  0  0
    9.1092  -18.9616   27.7453 C   0  0  1  0  0  0  0  0  0  0  0  0
    7.9584  -19.8459   27.3012 C   0  0  0  0  0  0  0  0  0  0  0  0
    6.4356  -18.8554   27.5011 S   0  0  0  0  0  0  0  0  0  0  0  0
   10.1212  -19.8543   28.3842 C   0  0  0  0  0  0  0  0  0  0  0  0
    9.7747  -20.6218   29.4835 O   0  0  0  0  0  0  0  0  0  0  0  0
   11.2944  -19.9360   27.9543 O   0  0  0  0  0  0  0  0  0  0  0  0
  2 13  1  0
  2  1  1  1
  3  2  1  0
  4  3  1  0
  5  4  2  0
  6  5  1  0
  7  6  1  0
  7 12  2  0
  8  7  1  0
  9  8  2  0
  9 10  1  0
 10 11  2  0
 11 12  1  0
 12  4  1  0
 13 14  2  0
 15 16  1  0
 16 17  2  0
 17 18  1  0
 19 18  2  0
 19 20  1  0
 21 20  1  6
 22 21  1  0
 22 13  1  0
 23 21  1  0
 24 23  2  0
 25 19  1  0
 26 16  1  0
 26 25  2  0
 27 23  1  0
 28 27  1  0
 29 30  1  0
 28 29  1  6
 31 28  1  0
 31 32  1  0
 33 31  2  0
M  END
$$$$
