WYC.pdb
     RDKit          3D

 33 35  0  0  1  0  0  0  0  0999 V2000
    7.6517  -14.4626   23.3331 N   0  0  0  0  0  0  0  0  0  0  0  0
    8.3407  -15.5684   23.9003 C   0  0  1  0  0  0  0  0  0  0  0  0
    7.6838  -16.0377   25.1767 C   0  0  0  0  0  0  0  0  0  0  0  0
    7.1971  -14.9262   26.0072 C   0  0  0  0  0  0  0  0  0  0  0  0
    5.8850  -14.5572   26.1974 C   0  0  0  0  0  0  0  0  0  0  0  0
    5.8124  -13.5145   27.0435 N   0  0  0  0  0  0  0  0  0  0  0  0
    7.0726  -13.2066   27.4012 C   0  0  0  0  0  0  0  0  0  0  0  0
    7.5070  -12.2145   28.2407 C   0  0  0  0  0  0  0  0  0  0  0  0
    8.8767  -12.0700   28.4645 C   0  0  0  0  0  0  0  0  0  0  0  0
    9.7538  -12.9265   27.8368 C   0  0  0  0  0  0  0  0  0  0  0  0
    9.3087  -13.9199   26.9956 C   0  0  0  0  0  0  0  0  0  0  0  0
    7.9584  -14.0772   26.7642 C   0  0  0  0  0  0  0  0  0  0  0  0
    8.5321  -16.7120   22.9592 C   0  0  0  0  0  0  0  0  0  0  0  0
    8.2260  -17.8602   23.3723 O   0  0  0  0  0  0  0  0  0  0  0  0
    8.2671  -11.9692   17.7188 O   0  0  0  0  0  0  0  0  0  0  0  0
    8.2590  -13.2823   18.1819 C   0  0  0  0  0  0  0  0  0  0  0  0
    7.4868  -13.6611   19.2599 C   0  0  0  0  0  0  0  0  0  0  0  0
    7.4897  -14.9642   19.7062 C   0  0  0  0  0  0  0  0  0  0  0  0
    8.2587  -15.9657   19.1086 C   0  0  0  0  0  0  0  0  0  0  0  0
    8.2156  -17.3563   19.6321 C   0  0  0  0  0  0  0  0  0  0  0  0
    9.2181  -17.5098   20.7370 C   0  0  2  0  0  0  0  0  0  0  0  0
    9.0444  -16.4231   21.6707 N   0  0  0  0  0  0  0  0  0  0  0  0
   10.6203  -17.5249   20.2788 C   0  0  0  0  0  0  0  0  0  0  0  0
   10.9353  -18.2086   19.2771 O   0  0  0  0  0  0  0  0  0  0  0  0
    9.0243  -15.5733   18.0338 C   0  0  0  0  0  0  0  0  0  0  0  0
    9.0222  -14.2622   17.5839 C   0  0  0  0  0  0  0  0  0  0  0  0
   11.6542  -16.7887   20.9287 N   0  0  0  0  0  0  0  0  0  0  0  0
   12.9045  -16.5816   20.2489 C   0  0  1  0  0  0  0  0  0  0  0  0
   12.6981  -15.7059   19.0265 C   0  0  0  0  0  0  0  0  0  0  0  0
   13.6726  -14.1855   19.3067 S   0  0  0  0  0  0  0  0  0  0  0  0
   13.8968  -15.8847   21.1199 C   0  0  0  0  0  0  0  0  0  0  0  0
   15.1933  -15.6872   20.6750 O   0  0  0  0  0  0  0  0  0  0  0  0
   13.5941  -15.4640   22.2597 O   0  0  0  0  0  0  0  0  0  0  0  0
  2 13  1  0
  2  1  1  6
  3  2  1  0
  4  3  1  0
  5  4  2  0
  6  5  1  0
  7  6  1  0
  7 12  2  0
  8  7  1  0
  9  8  2  0
  9 10  1  0
 10 11  2  0
 11 12  1  0
 12  4  1  0
 13 14  2  0
 15 16  1  0
 16 17  2  0
 17 18  1  0
 19 18  2  0
 19 20  1  0
 21 20  1  6
 22 21  1  0
 22 13  1  0
 23 21  1  0
 24 23  2  0
 25 19  1  0
 26 16  1  0
 26 25  2  0
 27 23  1  0
 28 27  1  0
 29 30  1  0
 28 29  1  6
 31 28  1  0
 31 32  1  0
 33 31  2  0
M  END
$$$$
