WYC.pdb
     RDKit          3D

 33 35  0  0  1  0  0  0  0  0999 V2000
    6.1620  -17.9939   24.0995 N   0  0  0  0  0  0  0  0  0  0  0  0
    6.9184  -16.7923   24.1555 C   0  0  1  0  0  0  0  0  0  0  0  0
    7.1083  -16.3204   25.5775 C   0  0  0  0  0  0  0  0  0  0  0  0
    6.3831  -15.0738   25.8641 C   0  0  0  0  0  0  0  0  0  0  0  0
    5.0233  -14.9334   26.0228 C   0  0  0  0  0  0  0  0  0  0  0  0
    4.7168  -13.6546   26.3043 N   0  0  0  0  0  0  0  0  0  0  0  0
    5.8730  -12.9666   26.3280 C   0  0  0  0  0  0  0  0  0  0  0  0
    6.0711  -11.6317   26.5656 C   0  0  0  0  0  0  0  0  0  0  0  0
    7.3707  -11.1246   26.5321 C   0  0  0  0  0  0  0  0  0  0  0  0
    8.4176  -11.9777   26.2614 C   0  0  0  0  0  0  0  0  0  0  0  0
    8.2094  -13.3167   26.0242 C   0  0  0  0  0  0  0  0  0  0  0  0
    6.9316  -13.8343   26.0545 C   0  0  0  0  0  0  0  0  0  0  0  0
    8.2321  -16.8684   23.4496 C   0  0  0  0  0  0  0  0  0  0  0  0
    8.6962  -18.0130   23.2104 O   0  0  0  0  0  0  0  0  0  0  0  0
    7.0943  -14.0742   17.2903 O   0  0  0  0  0  0  0  0  0  0  0  0
    7.9270  -14.1628   18.4026 C   0  0  0  0  0  0  0  0  0  0  0  0
    7.9221  -13.1948   19.3850 C   0  0  0  0  0  0  0  0  0  0  0  0
    8.7521  -13.2967   20.4796 C   0  0  0  0  0  0  0  0  0  0  0  0
    9.6342  -14.3645   20.6621 C   0  0  0  0  0  0  0  0  0  0  0  0
   10.5015  -14.4221   21.8678 C   0  0  0  0  0  0  0  0  0  0  0  0
   10.2245  -15.6851   22.6276 C   0  0  2  0  0  0  0  0  0  0  0  0
    8.8614  -15.6485   23.1004 N   0  0  0  0  0  0  0  0  0  0  0  0
   11.1222  -15.9041   23.7776 C   0  0  0  0  0  0  0  0  0  0  0  0
   12.3599  -15.9648   23.5922 O   0  0  0  0  0  0  0  0  0  0  0  0
    9.6282  -15.3230   19.6739 C   0  0  0  0  0  0  0  0  0  0  0  0
    8.7936  -15.2215   18.5720 C   0  0  0  0  0  0  0  0  0  0  0  0
   10.6455  -16.0531   25.1133 N   0  0  0  0  0  0  0  0  0  0  0  0
   11.5923  -16.1875   26.1874 C   0  0  1  0  0  0  0  0  0  0  0  0
   11.0596  -15.5208   27.4426 C   0  0  0  0  0  0  0  0  0  0  0  0
   12.3179  -15.7804   28.7422 S   0  0  0  0  0  0  0  0  0  0  0  0
   11.8399  -17.6198   26.5282 C   0  0  0  0  0  0  0  0  0  0  0  0
   13.0201  -17.9916   27.1499 O   0  0  0  0  0  0  0  0  0  0  0  0
   11.0036  -18.5145   26.2676 O   0  0  0  0  0  0  0  0  0  0  0  0
  2 13  1  0
  2  1  1  1
  3  2  1  0
  4  3  1  0
  5  4  2  0
  6  5  1  0
  7  6  1  0
  7 12  2  0
  8  7  1  0
  9  8  2  0
  9 10  1  0
 10 11  2  0
 11 12  1  0
 12  4  1  0
 13 14  2  0
 15 16  1  0
 16 17  2  0
 17 18  1  0
 19 18  2  0
 19 20  1  0
 21 20  1  1
 22 21  1  0
 22 13  1  0
 23 21  1  0
 24 23  2  0
 25 19  1  0
 26 16  1  0
 26 25  2  0
 27 23  1  0
 28 27  1  0
 29 30  1  0
 28 29  1  1
 31 28  1  0
 31 32  1  0
 33 31  2  0
M  END
$$$$
