VET.pdb
     RDKit          3D

 24 23  0  0  1  0  0  0  0  0999 V2000
    7.4691  -12.5247   18.4469 C   0  0  0  0  0  0  0  0  0  0  0  0
    7.5599  -13.1890   19.8326 C   0  0  2  0  0  0  0  0  0  0  0  0
    8.4940  -12.4360   20.7213 C   0  0  0  0  0  0  0  0  0  0  0  0
    8.1550  -14.5661   19.5528 C   0  0  2  0  0  0  0  0  0  0  0  0
    7.1385  -15.3565   18.8087 N   0  0  0  0  0  0  0  0  0  0  0  0
    8.3779  -15.3218   20.8102 C   0  0  0  0  0  0  0  0  0  0  0  0
    7.3713  -15.7802   21.4650 O   0  0  0  0  0  0  0  0  0  0  0  0
    9.6390  -15.6016   21.3832 N   0  0  0  0  0  0  0  0  0  0  0  0
    9.7499  -16.4282   22.6175 C   0  0  1  0  0  0  0  0  0  0  0  0
   11.0330  -17.2124   22.4686 C   0  0  0  0  0  0  0  0  0  0  0  0
   11.3622  -18.0467   23.6468 C   0  0  0  0  0  0  0  0  0  0  0  0
   12.6694  -18.7539   23.5035 C   0  0  0  0  0  0  0  0  0  0  0  0
   12.6929  -19.9834   23.3702 O   0  0  0  0  0  0  0  0  0  0  0  0
    9.6962  -15.5654   23.8026 C   0  0  0  0  0  0  0  0  0  0  0  0
   10.4473  -14.5355   23.8214 O   0  0  0  0  0  0  0  0  0  0  0  0
   13.8121  -18.0001   23.5257 O   0  0  0  0  0  0  0  0  0  0  0  0
    7.5078  -13.1778   24.9205 C   0  0  0  0  0  0  0  0  0  0  0  0
    7.5454  -14.1359   26.0849 C   0  0  1  0  0  0  0  0  0  0  0  0
    6.5122  -15.0481   26.0397 O   0  0  0  0  0  0  0  0  0  0  0  0
    8.9051  -14.8181   26.0710 C   0  0  2  0  0  0  0  0  0  0  0  0
    8.8814  -15.7561   24.9432 N   0  0  0  0  0  0  0  0  0  0  0  0
    9.1175  -15.6092   27.3018 C   0  0  0  0  0  0  0  0  0  0  0  0
    9.1342  -16.8511   27.3030 O   0  0  0  0  0  0  0  0  0  0  0  0
    9.3031  -14.9108   28.4902 O   0  0  0  0  0  0  0  0  0  0  0  0
  2  1  1  6
  2  3  1  0
  4  2  1  0
  4  5  1  6
  6  4  1  0
  7  6  2  0
  8  6  1  0
  9  8  1  0
 10 11  1  0
  9 10  1  6
 12 16  1  0
 12 11  1  0
 13 12  2  0
 14 15  2  0
 14  9  1  0
 18 20  1  0
 18 17  1  6
 19 18  1  0
 20 21  1  6
 21 14  1  0
 22 20  1  0
 23 22  2  0
 24 22  1  0
M  END
$$$$
