VET.pdb
     RDKit          3D

 24 23  0  0  1  0  0  0  0  0999 V2000
    8.2244  -12.9888   18.0865 C   0  0  0  0  0  0  0  0  0  0  0  0
    7.7161  -13.6952   19.3563 C   0  0  2  0  0  0  0  0  0  0  0  0
    6.6822  -12.8674   20.0456 C   0  0  0  0  0  0  0  0  0  0  0  0
    8.9463  -13.7882   20.2545 C   0  0  2  0  0  0  0  0  0  0  0  0
    9.9219  -14.6960   19.5945 N   0  0  0  0  0  0  0  0  0  0  0  0
    8.6234  -14.4498   21.5429 C   0  0  0  0  0  0  0  0  0  0  0  0
    7.6754  -13.9866   22.2769 O   0  0  0  0  0  0  0  0  0  0  0  0
    9.2798  -15.5873   22.0649 N   0  0  0  0  0  0  0  0  0  0  0  0
    8.8988  -16.1462   23.3920 C   0  0  1  0  0  0  0  0  0  0  0  0
    9.7747  -17.3617   23.5887 C   0  0  0  0  0  0  0  0  0  0  0  0
    9.6199  -17.9999   24.9159 C   0  0  0  0  0  0  0  0  0  0  0  0
   10.4827  -19.2078   25.0772 C   0  0  0  0  0  0  0  0  0  0  0  0
    9.9849  -20.3366   24.9876 O   0  0  0  0  0  0  0  0  0  0  0  0
    9.0426  -15.1166   24.4271 C   0  0  0  0  0  0  0  0  0  0  0  0
   10.1737  -14.5390   24.5365 O   0  0  0  0  0  0  0  0  0  0  0  0
   11.8159  -19.0154   25.3226 O   0  0  0  0  0  0  0  0  0  0  0  0
    6.6074  -12.1143   25.4184 C   0  0  0  0  0  0  0  0  0  0  0  0
    6.9499  -12.9837   26.6026 C   0  0  1  0  0  0  0  0  0  0  0  0
    5.9706  -13.9200   26.8593 O   0  0  0  0  0  0  0  0  0  0  0  0
    8.2954  -13.6339   26.3174 C   0  0  2  0  0  0  0  0  0  0  0  0
    8.0401  -14.6867   25.3279 N   0  0  0  0  0  0  0  0  0  0  0  0
    8.8402  -14.2852   27.5276 C   0  0  0  0  0  0  0  0  0  0  0  0
    8.9553  -15.5178   27.6285 O   0  0  0  0  0  0  0  0  0  0  0  0
    9.2312  -13.4627   28.5788 O   0  0  0  0  0  0  0  0  0  0  0  0
  2  1  1  6
  2  3  1  0
  4  2  1  0
  4  5  1  6
  6  4  1  0
  7  6  2  0
  8  6  1  0
  9  8  1  0
 10 11  1  0
  9 10  1  1
 12 16  1  0
 12 11  1  0
 13 12  2  0
 14 15  2  0
 14  9  1  0
 18 20  1  0
 18 17  1  6
 19 18  1  0
 20 21  1  6
 21 14  1  0
 22 20  1  0
 23 22  2  0
 24 22  1  0
M  END
$$$$
