VET.pdb
     RDKit          3D

 24 23  0  0  1  0  0  0  0  0999 V2000
    7.6296  -12.5401   18.2791 C   0  0  0  0  0  0  0  0  0  0  0  0
    7.6605  -13.4198   19.5420 C   0  0  2  0  0  0  0  0  0  0  0  0
    8.3749  -12.7256   20.6543 C   0  0  0  0  0  0  0  0  0  0  0  0
    8.4720  -14.6445   19.1292 C   0  0  2  0  0  0  0  0  0  0  0  0
    7.6606  -15.4173   18.1514 N   0  0  0  0  0  0  0  0  0  0  0  0
    8.6708  -15.5691   20.2727 C   0  0  0  0  0  0  0  0  0  0  0  0
    7.6925  -16.2951   20.6824 O   0  0  0  0  0  0  0  0  0  0  0  0
    9.8792  -15.7401   20.9852 N   0  0  0  0  0  0  0  0  0  0  0  0
    9.9455  -16.6406   22.1700 C   0  0  1  0  0  0  0  0  0  0  0  0
   11.2504  -17.3910   22.0386 C   0  0  0  0  0  0  0  0  0  0  0  0
   12.4253  -16.5132   21.8344 C   0  0  0  0  0  0  0  0  0  0  0  0
   13.7018  -17.2789   21.7173 C   0  0  0  0  0  0  0  0  0  0  0  0
   13.6847  -18.5149   21.7616 O   0  0  0  0  0  0  0  0  0  0  0  0
    9.8148  -15.8550   23.4020 C   0  0  0  0  0  0  0  0  0  0  0  0
    9.8909  -14.5860   23.3075 O   0  0  0  0  0  0  0  0  0  0  0  0
   14.8630  -16.5701   21.5627 O   0  0  0  0  0  0  0  0  0  0  0  0
    8.1022  -13.9808   24.2459 C   0  0  0  0  0  0  0  0  0  0  0  0
    7.8596  -14.8969   25.4195 C   0  0  1  0  0  0  0  0  0  0  0  0
    6.9255  -15.8702   25.1336 O   0  0  0  0  0  0  0  0  0  0  0  0
    9.2006  -15.4966   25.8153 C   0  0  2  0  0  0  0  0  0  0  0  0
    9.6046  -16.3656   24.7045 N   0  0  0  0  0  0  0  0  0  0  0  0
    9.0707  -16.3459   27.0184 C   0  0  0  0  0  0  0  0  0  0  0  0
    8.8505  -15.8763   28.1470 O   0  0  0  0  0  0  0  0  0  0  0  0
    9.2046  -17.7202   26.8520 O   0  0  0  0  0  0  0  0  0  0  0  0
  2  1  1  6
  2  3  1  0
  4  2  1  0
  4  5  1  6
  6  4  1  0
  7  6  2  0
  8  6  1  0
  9  8  1  0
 10 11  1  0
  9 10  1  1
 12 16  1  0
 12 11  1  0
 13 12  2  0
 14 15  2  0
 14  9  1  0
 18 20  1  0
 18 17  1  6
 19 18  1  0
 20 21  1  6
 21 14  1  0
 22 20  1  0
 23 22  2  0
 24 22  1  0
M  END
$$$$
