VET.pdb
     RDKit          3D

 24 23  0  0  1  0  0  0  0  0999 V2000
    7.0333  -12.8822   20.9343 C   0  0  0  0  0  0  0  0  0  0  0  0
    8.2290  -13.2141   20.0233 C   0  0  2  0  0  0  0  0  0  0  0  0
    7.9957  -12.7095   18.6376 C   0  0  0  0  0  0  0  0  0  0  0  0
    8.2650  -14.7394   19.9884 C   0  0  2  0  0  0  0  0  0  0  0  0
    7.0399  -15.2057   19.2860 N   0  0  0  0  0  0  0  0  0  0  0  0
    8.1612  -15.3116   21.3536 C   0  0  0  0  0  0  0  0  0  0  0  0
    7.0046  -15.5809   21.8452 O   0  0  0  0  0  0  0  0  0  0  0  0
    9.2525  -15.6044   22.2024 N   0  0  0  0  0  0  0  0  0  0  0  0
    9.0319  -16.1865   23.5557 C   0  0  1  0  0  0  0  0  0  0  0  0
   10.0633  -17.2811   23.7013 C   0  0  0  0  0  0  0  0  0  0  0  0
   11.4566  -16.8168   23.5118 C   0  0  0  0  0  0  0  0  0  0  0  0
   12.4491  -17.9296   23.5892 C   0  0  0  0  0  0  0  0  0  0  0  0
   12.0582  -19.0947   23.7296 O   0  0  0  0  0  0  0  0  0  0  0  0
    9.1138  -15.1319   24.5721 C   0  0  0  0  0  0  0  0  0  0  0  0
    9.9538  -14.1914   24.3851 O   0  0  0  0  0  0  0  0  0  0  0  0
   13.7778  -17.6112   23.5002 O   0  0  0  0  0  0  0  0  0  0  0  0
    7.0628  -12.3859   25.4293 C   0  0  0  0  0  0  0  0  0  0  0  0
    7.1477  -13.2006   26.6960 C   0  0  1  0  0  0  0  0  0  0  0  0
    6.0924  -14.0797   26.8191 O   0  0  0  0  0  0  0  0  0  0  0  0
    8.4877  -13.9208   26.6866 C   0  0  2  0  0  0  0  0  0  0  0  0
    8.3423  -15.0445   25.7547 N   0  0  0  0  0  0  0  0  0  0  0  0
    8.7991  -14.4851   28.0170 C   0  0  0  0  0  0  0  0  0  0  0  0
    8.8428  -15.7080   28.2304 O   0  0  0  0  0  0  0  0  0  0  0  0
    9.0488  -13.5901   29.0520 O   0  0  0  0  0  0  0  0  0  0  0  0
  2  1  1  1
  2  3  1  0
  4  2  1  0
  4  5  1  6
  6  4  1  0
  7  6  2  0
  8  6  1  0
  9  8  1  0
 10 11  1  0
  9 10  1  1
 12 16  1  0
 12 11  1  0
 13 12  2  0
 14 15  2  0
 14  9  1  0
 18 20  1  0
 18 17  1  6
 19 18  1  0
 20 21  1  6
 21 14  1  0
 22 20  1  0
 23 22  2  0
 24 22  1  0
M  END
$$$$
