VET.pdb
     RDKit          3D

 24 23  0  0  1  0  0  0  0  0999 V2000
    7.1691  -13.7369   21.0954 C   0  0  0  0  0  0  0  0  0  0  0  0
    8.2728  -13.4443   20.0630 C   0  0  2  0  0  0  0  0  0  0  0  0
    7.7520  -12.5837   18.9597 C   0  0  0  0  0  0  0  0  0  0  0  0
    8.6258  -14.8138   19.4895 C   0  0  2  0  0  0  0  0  0  0  0  0
    7.3736  -15.4231   18.9676 N   0  0  0  0  0  0  0  0  0  0  0  0
    9.0846  -15.7409   20.5533 C   0  0  0  0  0  0  0  0  0  0  0  0
    8.2295  -16.4762   21.1699 O   0  0  0  0  0  0  0  0  0  0  0  0
   10.4241  -15.9049   20.9730 N   0  0  0  0  0  0  0  0  0  0  0  0
   10.7769  -16.8932   22.0303 C   0  0  1  0  0  0  0  0  0  0  0  0
   12.2591  -17.1429   21.8759 C   0  0  0  0  0  0  0  0  0  0  0  0
   12.8266  -18.0279   22.9187 C   0  0  0  0  0  0  0  0  0  0  0  0
   14.2789  -18.3048   22.7100 C   0  0  0  0  0  0  0  0  0  0  0  0
   14.6290  -19.2807   22.0354 O   0  0  0  0  0  0  0  0  0  0  0  0
   10.3782  -16.3807   23.3457 C   0  0  0  0  0  0  0  0  0  0  0  0
   10.8965  -15.2838   23.7372 O   0  0  0  0  0  0  0  0  0  0  0  0
   15.1833  -17.4520   23.2841 O   0  0  0  0  0  0  0  0  0  0  0  0
    7.4246  -14.9626   24.7550 C   0  0  0  0  0  0  0  0  0  0  0  0
    7.7081  -16.1535   25.6364 C   0  0  1  0  0  0  0  0  0  0  0  0
    6.9686  -17.2581   25.2696 O   0  0  0  0  0  0  0  0  0  0  0  0
    9.2036  -16.4247   25.5701 C   0  0  2  0  0  0  0  0  0  0  0  0
    9.4601  -16.9828   24.2378 N   0  0  0  0  0  0  0  0  0  0  0  0
    9.6052  -17.4438   26.5630 C   0  0  0  0  0  0  0  0  0  0  0  0
    9.9100  -18.6046   26.2429 O   0  0  0  0  0  0  0  0  0  0  0  0
    9.6344  -17.0616   27.8999 O   0  0  0  0  0  0  0  0  0  0  0  0
  2  1  1  1
  2  3  1  0
  4  2  1  0
  4  5  1  1
  6  4  1  0
  7  6  2  0
  8  6  1  0
  9  8  1  0
 10 11  1  0
  9 10  1  1
 12 16  1  0
 12 11  1  0
 13 12  2  0
 14 15  2  0
 14  9  1  0
 18 20  1  0
 18 17  1  6
 19 18  1  0
 20 21  1  6
 21 14  1  0
 22 20  1  0
 23 22  2  0
 24 22  1  0
M  END
$$$$
