VET.pdb
     RDKit          3D

 24 23  0  0  1  0  0  0  0  0999 V2000
    7.1834  -12.7715   18.6070 C   0  0  0  0  0  0  0  0  0  0  0  0
    7.6201  -13.7044   19.7511 C   0  0  2  0  0  0  0  0  0  0  0  0
    8.6675  -13.0551   20.5940 C   0  0  0  0  0  0  0  0  0  0  0  0
    8.2385  -14.9064   19.0428 C   0  0  2  0  0  0  0  0  0  0  0  0
    7.1394  -15.6552   18.3774 N   0  0  0  0  0  0  0  0  0  0  0  0
    8.8168  -15.8657   20.0160 C   0  0  0  0  0  0  0  0  0  0  0  0
    8.0377  -16.6090   20.7177 O   0  0  0  0  0  0  0  0  0  0  0  0
   10.1966  -16.0534   20.2576 N   0  0  0  0  0  0  0  0  0  0  0  0
   10.6651  -16.9776   21.3277 C   0  0  1  0  0  0  0  0  0  0  0  0
   12.1105  -17.2762   21.0039 C   0  0  0  0  0  0  0  0  0  0  0  0
   12.7830  -18.1299   22.0097 C   0  0  0  0  0  0  0  0  0  0  0  0
   14.2132  -18.3965   21.6738 C   0  0  0  0  0  0  0  0  0  0  0  0
   15.1100  -17.7975   22.2795 O   0  0  0  0  0  0  0  0  0  0  0  0
   10.4482  -16.3678   22.6442 C   0  0  0  0  0  0  0  0  0  0  0  0
   10.6287  -15.1105   22.7528 O   0  0  0  0  0  0  0  0  0  0  0  0
   14.4813  -19.3105   20.6902 O   0  0  0  0  0  0  0  0  0  0  0  0
    7.7331  -15.3530   26.1846 C   0  0  0  0  0  0  0  0  0  0  0  0
    8.1860  -15.9890   24.8939 C   0  0  1  0  0  0  0  0  0  0  0  0
    7.9325  -15.1851   23.8025 O   0  0  0  0  0  0  0  0  0  0  0  0
    9.6678  -16.3029   25.0351 C   0  0  2  0  0  0  0  0  0  0  0  0
   10.0481  -17.0382   23.8239 N   0  0  0  0  0  0  0  0  0  0  0  0
    9.9170  -17.1914   26.1902 C   0  0  0  0  0  0  0  0  0  0  0  0
   10.2642  -18.3767   26.0585 O   0  0  0  0  0  0  0  0  0  0  0  0
    9.7489  -16.6541   27.4619 O   0  0  0  0  0  0  0  0  0  0  0  0
  2  1  1  6
  2  3  1  0
  4  2  1  0
  4  5  1  1
  6  4  1  0
  7  6  2  0
  8  6  1  0
  9  8  1  0
 10 11  1  0
  9 10  1  6
 12 16  1  0
 12 11  1  0
 13 12  2  0
 14 15  2  0
 14  9  1  0
 18 20  1  0
 18 17  1  1
 19 18  1  0
 20 21  1  6
 21 14  1  0
 22 20  1  0
 23 22  2  0
 24 22  1  0
M  END
$$$$
