RGL.pdb
     RDKit          3D

 24 23  0  0  1  0  0  0  0  0999 V2000
   30.8128  -28.0416  -17.7445 N   0  0  0  0  0  0  0  0  0  0  0  0
   30.0563  -29.1578  -18.1880 C   0  0  0  0  0  0  0  0  0  0  0  0
   30.7012  -30.1961  -18.5974 N   0  0  0  0  0  0  0  0  0  0  0  0
   28.6158  -29.1684  -18.1974 N   0  0  0  0  0  0  0  0  0  0  0  0
   27.8576  -28.1121  -17.6356 C   0  0  0  0  0  0  0  0  0  0  0  0
   27.5225  -26.9224  -18.4292 C   0  0  0  0  0  0  0  0  0  0  0  0
   27.2309  -25.6363  -17.7824 C   0  0  0  0  0  0  0  0  0  0  0  0
   26.7687  -25.6007  -16.3758 C   0  0  2  0  0  0  0  0  0  0  0  0
   25.4493  -26.1019  -16.1234 N   0  0  0  0  0  0  0  0  0  0  0  0
   26.7674  -24.1902  -15.8525 C   0  0  0  0  0  0  0  0  0  0  0  0
   27.6621  -23.3704  -16.1840 O   0  0  0  0  0  0  0  0  0  0  0  0
   30.1807  -31.0047  -18.9906 N   0  0  0  0  0  0  0  0  0  0  0  0
   25.7535  -23.7570  -14.9721 C   0  0  0  0  0  0  0  0  0  0  0  0
   25.6492  -22.3417  -14.5789 C   0  0  0  0  0  0  0  0  0  0  0  0
   24.5649  -22.1475  -13.5906 O   0  0  0  0  0  0  0  0  0  0  0  0
   23.5037  -22.8369  -13.6043 C   0  0  0  0  0  0  0  0  0  0  0  0
   25.2753  -21.7253   -9.0057 C   0  0  1  0  0  0  0  0  0  0  0  0
   25.6096  -20.4842   -9.8610 C   0  0  0  0  0  0  0  0  0  0  0  0
   26.1911  -19.4801   -8.8635 C   0  0  0  0  0  0  0  0  0  0  0  0
   24.3258  -20.0385  -10.4614 C   0  0  2  0  0  0  0  0  0  0  0  0
   23.7692  -20.8770  -11.5579 N   0  0  0  0  0  0  0  0  0  0  0  0
   24.7372  -21.1523  -12.6025 C   0  0  0  0  0  0  0  0  0  0  0  0
   22.5297  -20.3714  -12.1788 O   0  0  0  0  0  0  0  0  0  0  0  0
   22.4879  -19.8793  -13.4737 O   0  0  0  0  0  0  0  0  0  0  0  0
  1  2  1  0
  2  3  2  0
  4  2  1  0
  5  4  1  0
  6  5  1  0
  7  6  1  0
  8  7  1  0
  8 10  1  0
  8  9  1  6
 10 11  2  0
 10 12  1  0
 12 13  1  0
 14 21  1  0
 14 13  1  0
 15 14  2  0
 17 18  1  1
 17 16  1  0
 19 17  1  0
 20 22  1  0
 20 19  1  1
 20 21  1  0
 22 23  1  0
 24 22  2  0
M  END
$$$$
