RGL.pdb
     RDKit          3D

 24 23  0  0  1  0  0  0  0  0999 V2000
   22.4893  -19.5720  -15.5362 N   0  0  0  0  0  0  0  0  0  0  0  0
   21.8250  -18.6240  -14.7146 C   0  0  0  0  0  0  0  0  0  0  0  0
   20.9575  -19.0650  -13.8692 N   0  0  0  0  0  0  0  0  0  0  0  0
   22.0822  -17.2088  -14.7937 N   0  0  0  0  0  0  0  0  0  0  0  0
   23.2737  -16.6971  -15.3636 C   0  0  0  0  0  0  0  0  0  0  0  0
   24.5610  -16.8428  -14.6717 C   0  0  0  0  0  0  0  0  0  0  0  0
   25.8011  -16.3170  -15.2577 C   0  0  0  0  0  0  0  0  0  0  0  0
   26.5014  -17.0772  -16.3184 C   0  0  2  0  0  0  0  0  0  0  0  0
   25.6752  -17.8231  -17.2222 N   0  0  0  0  0  0  0  0  0  0  0  0
   27.4448  -18.0828  -15.7167 C   0  0  0  0  0  0  0  0  0  0  0  0
   28.3071  -17.7414  -14.8667 O   0  0  0  0  0  0  0  0  0  0  0  0
   20.4751  -18.4017  -13.2316 N   0  0  0  0  0  0  0  0  0  0  0  0
   27.3793  -19.4396  -16.0982 C   0  0  0  0  0  0  0  0  0  0  0  0
   28.3233  -20.4255  -15.5454 C   0  0  0  0  0  0  0  0  0  0  0  0
   27.6397  -21.3394  -14.6034 O   0  0  0  0  0  0  0  0  0  0  0  0
   28.1299  -22.4565  -14.2664 C   0  0  0  0  0  0  0  0  0  0  0  0
   26.5610  -19.2995  -11.0688 C   0  0  1  0  0  0  0  0  0  0  0  0
   25.4304  -20.3507  -11.0577 C   0  0  0  0  0  0  0  0  0  0  0  0
   25.1364  -20.5778   -9.5733 C   0  0  0  0  0  0  0  0  0  0  0  0
   25.9774  -21.5527  -11.7382 C   0  0  1  0  0  0  0  0  0  0  0  0
   25.6033  -21.7461  -13.1657 N   0  0  0  0  0  0  0  0  0  0  0  0
   26.3956  -20.9345  -14.0699 C   0  0  0  0  0  0  0  0  0  0  0  0
   24.1747  -21.5532  -13.4807 O   0  0  0  0  0  0  0  0  0  0  0  0
   23.1662  -22.2635  -12.8489 O   0  0  0  0  0  0  0  0  0  0  0  0
  1  2  1  0
  2  3  2  0
  4  2  1  0
  5  4  1  0
  6  5  1  0
  7  6  1  0
  8  7  1  0
  8 10  1  0
  8  9  1  1
 10 11  2  0
 10 12  1  0
 12 13  1  0
 14 21  1  0
 14 13  1  0
 15 14  2  0
 17 18  1  1
 17 16  1  0
 19 17  1  0
 20 22  1  0
 20 19  1  6
 20 21  1  0
 22 23  1  0
 24 22  2  0
M  END
$$$$
