RGL.pdb
     RDKit          3D

 24 23  0  0  1  0  0  0  0  0999 V2000
   17.6361  -22.7875  -11.8242 N   0  0  0  0  0  0  0  0  0  0  0  0
   18.1870  -23.9140  -12.4893 C   0  0  0  0  0  0  0  0  0  0  0  0
   17.4339  -24.9489  -12.6424 N   0  0  0  0  0  0  0  0  0  0  0  0
   19.5379  -23.9399  -12.9891 N   0  0  0  0  0  0  0  0  0  0  0  0
   20.2481  -22.7502  -13.2833 C   0  0  0  0  0  0  0  0  0  0  0  0
   19.5359  -21.5269  -13.6753 C   0  0  0  0  0  0  0  0  0  0  0  0
   20.2639  -20.2830  -13.9588 C   0  0  0  0  0  0  0  0  0  0  0  0
   21.1830  -20.2084  -15.1177 C   0  0  2  0  0  0  0  0  0  0  0  0
   21.9871  -21.3680  -15.3717 N   0  0  0  0  0  0  0  0  0  0  0  0
   22.1578  -19.0748  -14.9506 C   0  0  0  0  0  0  0  0  0  0  0  0
   22.0978  -18.3034  -13.9587 O   0  0  0  0  0  0  0  0  0  0  0  0
   17.8341  -25.8252  -13.0312 N   0  0  0  0  0  0  0  0  0  0  0  0
   23.1663  -18.8537  -15.9123 C   0  0  0  0  0  0  0  0  0  0  0  0
   24.1988  -17.8252  -15.7006 C   0  0  0  0  0  0  0  0  0  0  0  0
   25.5113  -18.4465  -15.4153 O   0  0  0  0  0  0  0  0  0  0  0  0
   26.5810  -17.7730  -15.3533 C   0  0  0  0  0  0  0  0  0  0  0  0
   27.4651  -19.4074  -12.1162 C   0  0  2  0  0  0  0  0  0  0  0  0
   26.2800  -20.3564  -12.3967 C   0  0  0  0  0  0  0  0  0  0  0  0
   26.0953  -21.1310  -11.0900 C   0  0  0  0  0  0  0  0  0  0  0  0
   26.6992  -21.2156  -13.5339 C   0  0  2  0  0  0  0  0  0  0  0  0
   26.7627  -20.5728  -14.8748 N   0  0  0  0  0  0  0  0  0  0  0  0
   25.5536  -19.8433  -15.2068 C   0  0  0  0  0  0  0  0  0  0  0  0
   27.0995  -21.4714  -15.9957 O   0  0  0  0  0  0  0  0  0  0  0  0
   26.2806  -21.6263  -17.1031 O   0  0  0  0  0  0  0  0  0  0  0  0
  1  2  1  0
  2  3  2  0
  4  2  1  0
  5  4  1  0
  6  5  1  0
  7  6  1  0
  8  7  1  0
  8 10  1  0
  8  9  1  1
 10 11  2  0
 10 12  1  0
 12 13  1  0
 14 21  1  0
 14 13  1  0
 15 14  2  0
 17 18  1  6
 17 16  1  0
 19 17  1  0
 20 22  1  0
 20 19  1  1
 20 21  1  0
 22 23  1  0
 24 22  2  0
M  END
$$$$
