RGL.pdb
     RDKit          3D

 24 23  0  0  1  0  0  0  0  0999 V2000
   29.9322  -31.4381  -16.1806 N   0  0  0  0  0  0  0  0  0  0  0  0
   28.8318  -31.5856  -17.0650 C   0  0  0  0  0  0  0  0  0  0  0  0
   28.9442  -31.0936  -18.2511 N   0  0  0  0  0  0  0  0  0  0  0  0
   27.6129  -32.2541  -16.6871 N   0  0  0  0  0  0  0  0  0  0  0  0
   27.3849  -32.6982  -15.3616 C   0  0  0  0  0  0  0  0  0  0  0  0
   27.6666  -34.0869  -14.9750 C   0  0  0  0  0  0  0  0  0  0  0  0
   27.2464  -34.6110  -13.6688 C   0  0  0  0  0  0  0  0  0  0  0  0
   25.9487  -34.1988  -13.0862 C   0  0  2  0  0  0  0  0  0  0  0  0
   25.7944  -32.8042  -12.7911 N   0  0  0  0  0  0  0  0  0  0  0  0
   25.6996  -34.9126  -11.7855 C   0  0  0  0  0  0  0  0  0  0  0  0
   25.8239  -36.1609  -11.6920 O   0  0  0  0  0  0  0  0  0  0  0  0
   28.1604  -31.1903  -18.9261 N   0  0  0  0  0  0  0  0  0  0  0  0
   25.3183  -34.1884  -10.6361 C   0  0  0  0  0  0  0  0  0  0  0  0
   25.1926  -34.8570   -9.3300 C   0  0  0  0  0  0  0  0  0  0  0  0
   25.3794  -33.8921   -8.2236 O   0  0  0  0  0  0  0  0  0  0  0  0
   25.6368  -32.6696   -8.4264 C   0  0  0  0  0  0  0  0  0  0  0  0
   22.4100  -32.8961   -5.1699 C   0  0  1  0  0  0  0  0  0  0  0  0
   23.0767  -34.2675   -4.9280 C   0  0  0  0  0  0  0  0  0  0  0  0
   22.2983  -34.8674   -3.7550 C   0  0  0  0  0  0  0  0  0  0  0  0
   24.4988  -33.9841   -4.6049 C   0  0  2  0  0  0  0  0  0  0  0  0
   25.3641  -33.5237   -5.7249 N   0  0  0  0  0  0  0  0  0  0  0  0
   25.2623  -34.3695   -6.8990 C   0  0  0  0  0  0  0  0  0  0  0  0
   26.7901  -33.3397   -5.3930 O   0  0  0  0  0  0  0  0  0  0  0  0
   27.7988  -34.0812   -5.9876 O   0  0  0  0  0  0  0  0  0  0  0  0
  1  2  1  0
  2  3  2  0
  4  2  1  0
  5  4  1  0
  6  5  1  0
  7  6  1  0
  8  7  1  0
  8 10  1  0
  8  9  1  1
 10 11  2  0
 10 12  1  0
 12 13  1  0
 14 21  1  0
 14 13  1  0
 15 14  2  0
 17 18  1  1
 17 16  1  0
 19 17  1  0
 20 22  1  0
 20 19  1  6
 20 21  1  0
 22 23  1  0
 24 22  2  0
M  END
$$$$
