RGL.pdb
     RDKit          3D

 24 23  0  0  1  0  0  0  0  0999 V2000
   27.4131  -25.5036  -16.3793 N   0  0  0  0  0  0  0  0  0  0  0  0
   28.7594  -25.0890  -16.5537 C   0  0  0  0  0  0  0  0  0  0  0  0
   29.5983  -25.9510  -17.0173 N   0  0  0  0  0  0  0  0  0  0  0  0
   29.2127  -23.7595  -16.2335 N   0  0  0  0  0  0  0  0  0  0  0  0
   28.3292  -22.7675  -15.7421 C   0  0  0  0  0  0  0  0  0  0  0  0
   27.9373  -21.6274  -16.5811 C   0  0  0  0  0  0  0  0  0  0  0  0
   26.8922  -20.6905  -16.1481 C   0  0  0  0  0  0  0  0  0  0  0  0
   25.4760  -20.9441  -16.4993 C   0  0  2  0  0  0  0  0  0  0  0  0
   25.2068  -21.2814  -17.8667 N   0  0  0  0  0  0  0  0  0  0  0  0
   24.6323  -19.7319  -16.2131 C   0  0  0  0  0  0  0  0  0  0  0  0
   24.5045  -18.8109  -17.0605 O   0  0  0  0  0  0  0  0  0  0  0  0
   30.5759  -25.6628  -17.2184 N   0  0  0  0  0  0  0  0  0  0  0  0
   23.9629  -19.6043  -14.9776 C   0  0  0  0  0  0  0  0  0  0  0  0
   23.1162  -18.4329  -14.6953 C   0  0  0  0  0  0  0  0  0  0  0  0
   21.7268  -18.6650  -15.1488 O   0  0  0  0  0  0  0  0  0  0  0  0
   20.7900  -17.8484  -14.9090 C   0  0  0  0  0  0  0  0  0  0  0  0
   20.4957  -20.6218  -20.1052 C   0  0  1  0  0  0  0  0  0  0  0  0
   19.8346  -19.9693  -18.8719 C   0  0  0  0  0  0  0  0  0  0  0  0
   20.4665  -18.5779  -18.7929 C   0  0  0  0  0  0  0  0  0  0  0  0
   20.1757  -20.8353  -17.7140 C   0  0  2  0  0  0  0  0  0  0  0  0
   20.1367  -20.2034  -16.3670 N   0  0  0  0  0  0  0  0  0  0  0  0
   21.4536  -19.8459  -15.8749 C   0  0  0  0  0  0  0  0  0  0  0  0
   19.4314  -20.9726  -15.3237 O   0  0  0  0  0  0  0  0  0  0  0  0
   18.0767  -20.8242  -15.0713 O   0  0  0  0  0  0  0  0  0  0  0  0
  1  2  1  0
  2  3  2  0
  4  2  1  0
  5  4  1  0
  6  5  1  0
  7  6  1  0
  8  7  1  0
  8 10  1  0
  8  9  1  6
 10 11  2  0
 10 12  1  0
 12 13  1  0
 14 21  1  0
 14 13  1  0
 15 14  2  0
 17 18  1  6
 17 16  1  0
 19 17  1  0
 20 22  1  0
 20 19  1  6
 20 21  1  0
 22 23  1  0
 24 22  2  0
M  END
$$$$
