RGL.pdb
     RDKit          3D

 24 23  0  0  1  0  0  0  0  0999 V2000
   26.6485  -25.0284  -16.1310 N   0  0  0  0  0  0  0  0  0  0  0  0
   25.4299  -25.5058  -15.5816 C   0  0  0  0  0  0  0  0  0  0  0  0
   25.2127  -26.7760  -15.6148 N   0  0  0  0  0  0  0  0  0  0  0  0
   24.4431  -24.6327  -14.9991 N   0  0  0  0  0  0  0  0  0  0  0  0
   24.5842  -23.2236  -15.0256 C   0  0  0  0  0  0  0  0  0  0  0  0
   25.4314  -22.5342  -14.0436 C   0  0  0  0  0  0  0  0  0  0  0  0
   25.6049  -21.0762  -14.0821 C   0  0  0  0  0  0  0  0  0  0  0  0
   25.6826  -20.3719  -15.3826 C   0  0  2  0  0  0  0  0  0  0  0  0
   26.9056  -20.5173  -16.1165 N   0  0  0  0  0  0  0  0  0  0  0  0
   25.5022  -18.8900  -15.1959 C   0  0  0  0  0  0  0  0  0  0  0  0
   26.4455  -18.1641  -14.7885 O   0  0  0  0  0  0  0  0  0  0  0  0
   24.2981  -27.1515  -15.2956 N   0  0  0  0  0  0  0  0  0  0  0  0
   24.2605  -18.2816  -15.4766 C   0  0  0  0  0  0  0  0  0  0  0  0
   24.1303  -16.8152  -15.5166 C   0  0  0  0  0  0  0  0  0  0  0  0
   22.7423  -16.4178  -15.8413 O   0  0  0  0  0  0  0  0  0  0  0  0
   22.3631  -15.2103  -15.8324 C   0  0  0  0  0  0  0  0  0  0  0  0
   20.3568  -15.2390  -18.9239 C   0  0  2  0  0  0  0  0  0  0  0  0
   20.9276  -16.6733  -18.9525 C   0  0  0  0  0  0  0  0  0  0  0  0
   20.7073  -17.1418  -20.3925 C   0  0  0  0  0  0  0  0  0  0  0  0
   20.1445  -17.4492  -17.9566 C   0  0  2  0  0  0  0  0  0  0  0  0
   20.4343  -17.1863  -16.5206 N   0  0  0  0  0  0  0  0  0  0  0  0
   21.8198  -17.4359  -16.1713 C   0  0  0  0  0  0  0  0  0  0  0  0
   19.5662  -17.8905  -15.5572 O   0  0  0  0  0  0  0  0  0  0  0  0
   18.2129  -17.6192  -15.4316 O   0  0  0  0  0  0  0  0  0  0  0  0
  1  2  1  0
  2  3  2  0
  4  2  1  0
  5  4  1  0
  6  5  1  0
  7  6  1  0
  8  7  1  0
  8 10  1  0
  8  9  1  1
 10 11  2  0
 10 12  1  0
 12 13  1  0
 14 21  1  0
 14 13  1  0
 15 14  2  0
 17 18  1  1
 17 16  1  0
 19 17  1  0
 20 22  1  0
 20 19  1  6
 20 21  1  0
 22 23  1  0
 24 22  2  0
M  END
$$$$
