RGL.pdb
     RDKit          3D

 24 23  0  0  1  0  0  0  0  0999 V2000
   14.4300  -15.0962  -14.2565 N   0  0  0  0  0  0  0  0  0  0  0  0
   14.2649  -15.8367  -15.4562 C   0  0  0  0  0  0  0  0  0  0  0  0
   13.4880  -16.8649  -15.4255 N   0  0  0  0  0  0  0  0  0  0  0  0
   14.9270  -15.4846  -16.6863 N   0  0  0  0  0  0  0  0  0  0  0  0
   15.9650  -14.5218  -16.7265 C   0  0  0  0  0  0  0  0  0  0  0  0
   17.3110  -14.8464  -16.2363 C   0  0  0  0  0  0  0  0  0  0  0  0
   18.3925  -13.8532  -16.2748 C   0  0  0  0  0  0  0  0  0  0  0  0
   19.3081  -13.7975  -17.4375 C   0  0  2  0  0  0  0  0  0  0  0  0
   20.2529  -14.8691  -17.5593 N   0  0  0  0  0  0  0  0  0  0  0  0
   20.1326  -12.5396  -17.4048 C   0  0  0  0  0  0  0  0  0  0  0  0
   21.3464  -12.5633  -17.0750 O   0  0  0  0  0  0  0  0  0  0  0  0
   13.3665  -17.4453  -16.2786 N   0  0  0  0  0  0  0  0  0  0  0  0
   19.5544  -11.2986  -17.7462 C   0  0  0  0  0  0  0  0  0  0  0  0
   20.3828  -10.0867  -17.8638 C   0  0  0  0  0  0  0  0  0  0  0  0
   20.9409   -9.6998  -16.5490 O   0  0  0  0  0  0  0  0  0  0  0  0
   20.3953  -10.0324  -15.4565 C   0  0  0  0  0  0  0  0  0  0  0  0
   24.5729  -10.7564  -14.2759 C   0  0  2  0  0  0  0  0  0  0  0  0
   24.8147   -9.9902  -15.5943 C   0  0  0  0  0  0  0  0  0  0  0  0
   26.3342  -10.0119  -15.7739 C   0  0  0  0  0  0  0  0  0  0  0  0
   24.2681   -8.6247  -15.3844 C   0  0  2  0  0  0  0  0  0  0  0  0
   22.7870   -8.4966  -15.3146 N   0  0  0  0  0  0  0  0  0  0  0  0
   22.1266   -8.9316  -16.5307 C   0  0  0  0  0  0  0  0  0  0  0  0
   22.2806   -7.1593  -14.9503 O   0  0  0  0  0  0  0  0  0  0  0  0
   22.3233   -6.6702  -13.6543 O   0  0  0  0  0  0  0  0  0  0  0  0
  1  2  1  0
  2  3  2  0
  4  2  1  0
  5  4  1  0
  6  5  1  0
  7  6  1  0
  8  7  1  0
  8 10  1  0
  8  9  1  1
 10 11  2  0
 10 12  1  0
 12 13  1  0
 14 21  1  0
 14 13  1  0
 15 14  2  0
 17 18  1  1
 17 16  1  0
 19 17  1  0
 20 22  1  0
 20 19  1  1
 20 21  1  0
 22 23  1  0
 24 22  2  0
M  END
$$$$
