RGL.pdb
     RDKit          3D

 24 23  0  0  1  0  0  0  0  0999 V2000
   15.9167  -20.9884  -13.5100 N   0  0  0  0  0  0  0  0  0  0  0  0
   16.9516  -20.6468  -14.4194 C   0  0  0  0  0  0  0  0  0  0  0  0
   16.6868  -19.7748  -15.3311 N   0  0  0  0  0  0  0  0  0  0  0  0
   18.2660  -21.2336  -14.3599 N   0  0  0  0  0  0  0  0  0  0  0  0
   18.4844  -22.5221  -13.8137 C   0  0  0  0  0  0  0  0  0  0  0  0
   17.9177  -23.7162  -14.4542 C   0  0  0  0  0  0  0  0  0  0  0  0
   18.1432  -25.0559  -13.8959 C   0  0  0  0  0  0  0  0  0  0  0  0
   19.4859  -25.4375  -13.4008 C   0  0  2  0  0  0  0  0  0  0  0  0
   20.2928  -26.2269  -14.2848 N   0  0  0  0  0  0  0  0  0  0  0  0
   19.3763  -26.2417  -12.1342 C   0  0  0  0  0  0  0  0  0  0  0  0
   18.9411  -27.4220  -12.1462 O   0  0  0  0  0  0  0  0  0  0  0  0
   17.4155  -19.5161  -16.0248 N   0  0  0  0  0  0  0  0  0  0  0  0
   19.7631  -25.6819  -10.8981 C   0  0  0  0  0  0  0  0  0  0  0  0
   19.5750  -26.4254   -9.6409 C   0  0  0  0  0  0  0  0  0  0  0  0
   18.4316  -25.8831   -8.8737 O   0  0  0  0  0  0  0  0  0  0  0  0
   17.6256  -25.0393   -9.3636 C   0  0  0  0  0  0  0  0  0  0  0  0
   15.8947  -26.4509   -3.7160 C   0  0  1  0  0  0  0  0  0  0  0  0
   15.3077  -26.5678   -5.1392 C   0  0  0  0  0  0  0  0  0  0  0  0
   14.2324  -27.6499   -5.0195 C   0  0  0  0  0  0  0  0  0  0  0  0
   16.4377  -26.9584   -6.0211 C   0  0  2  0  0  0  0  0  0  0  0  0
   17.1962  -25.8549   -6.6709 N   0  0  0  0  0  0  0  0  0  0  0  0
   18.2474  -26.3349   -7.5477 C   0  0  0  0  0  0  0  0  0  0  0  0
   17.7638  -24.8473   -5.7544 O   0  0  0  0  0  0  0  0  0  0  0  0
   17.0209  -23.7921   -5.2490 O   0  0  0  0  0  0  0  0  0  0  0  0
  1  2  1  0
  2  3  2  0
  4  2  1  0
  5  4  1  0
  6  5  1  0
  7  6  1  0
  8  7  1  0
  8 10  1  0
  8  9  1  6
 10 11  2  0
 10 12  1  0
 12 13  1  0
 14 21  1  0
 14 13  1  0
 15 14  2  0
 17 18  1  6
 17 16  1  0
 19 17  1  0
 20 22  1  0
 20 19  1  6
 20 21  1  0
 22 23  1  0
 24 22  2  0
M  END
$$$$
