RGL.pdb
     RDKit          3D

 24 23  0  0  1  0  0  0  0  0999 V2000
   26.1304  -27.4905  -17.3471 N   0  0  0  0  0  0  0  0  0  0  0  0
   26.1985  -26.6748  -18.5067 C   0  0  0  0  0  0  0  0  0  0  0  0
   26.4253  -27.2537  -19.6360 N   0  0  0  0  0  0  0  0  0  0  0  0
   26.0273  -25.2450  -18.4646 N   0  0  0  0  0  0  0  0  0  0  0  0
   25.6223  -24.5760  -17.2836 C   0  0  0  0  0  0  0  0  0  0  0  0
   26.5038  -24.5219  -16.1101 C   0  0  0  0  0  0  0  0  0  0  0  0
   26.1085  -23.7941  -14.8971 C   0  0  0  0  0  0  0  0  0  0  0  0
   25.8625  -22.3348  -14.9540 C   0  0  2  0  0  0  0  0  0  0  0  0
   26.9316  -21.5254  -15.4614 N   0  0  0  0  0  0  0  0  0  0  0  0
   25.5664  -21.7920  -13.5825 C   0  0  0  0  0  0  0  0  0  0  0  0
   26.4827  -21.6153  -12.7388 O   0  0  0  0  0  0  0  0  0  0  0  0
   26.5316  -26.6817  -20.4967 N   0  0  0  0  0  0  0  0  0  0  0  0
   24.2435  -21.4682  -13.2137 C   0  0  0  0  0  0  0  0  0  0  0  0
   23.9497  -20.8798  -11.8961 C   0  0  0  0  0  0  0  0  0  0  0  0
   22.5067  -20.5799  -11.7625 O   0  0  0  0  0  0  0  0  0  0  0  0
   22.0153  -20.0652  -10.7159 C   0  0  0  0  0  0  0  0  0  0  0  0
   19.8463  -17.5051  -12.7399 C   0  0  2  0  0  0  0  0  0  0  0  0
   20.5418  -18.2710  -13.8859 C   0  0  0  0  0  0  0  0  0  0  0  0
   20.2870  -17.4126  -15.1268 C   0  0  0  0  0  0  0  0  0  0  0  0
   19.8870  -19.6030  -13.9493 C   0  0  2  0  0  0  0  0  0  0  0  0
   20.2436  -20.5791  -12.8838 N   0  0  0  0  0  0  0  0  0  0  0  0
   21.6612  -20.8851  -12.8525 C   0  0  0  0  0  0  0  0  0  0  0  0
   19.4839  -21.8441  -12.8998 O   0  0  0  0  0  0  0  0  0  0  0  0
   18.1769  -21.9381  -12.4483 O   0  0  0  0  0  0  0  0  0  0  0  0
  1  2  1  0
  2  3  2  0
  4  2  1  0
  5  4  1  0
  6  5  1  0
  7  6  1  0
  8  7  1  0
  8 10  1  0
  8  9  1  1
 10 11  2  0
 10 12  1  0
 12 13  1  0
 14 21  1  0
 14 13  1  0
 15 14  2  0
 17 18  1  6
 17 16  1  0
 19 17  1  0
 20 22  1  0
 20 19  1  1
 20 21  1  0
 22 23  1  0
 24 22  2  0
M  END
$$$$
