RGL.pdb
     RDKit          3D

 24 23  0  0  1  0  0  0  0  0999 V2000
   23.4284  -21.8993   -7.8159 N   0  0  0  0  0  0  0  0  0  0  0  0
   23.0192  -20.7408   -8.5266 C   0  0  0  0  0  0  0  0  0  0  0  0
   21.8496  -20.2619   -8.2724 N   0  0  0  0  0  0  0  0  0  0  0  0
   23.8524  -20.0939   -9.5077 N   0  0  0  0  0  0  0  0  0  0  0  0
   24.1247  -20.6877  -10.7644 C   0  0  0  0  0  0  0  0  0  0  0  0
   25.0555  -20.0560  -11.7087 C   0  0  0  0  0  0  0  0  0  0  0  0
   25.2632  -20.6085  -13.0538 C   0  0  0  0  0  0  0  0  0  0  0  0
   25.5923  -22.0423  -13.2247 C   0  0  2  0  0  0  0  0  0  0  0  0
   26.7338  -22.3438  -14.0382 N   0  0  0  0  0  0  0  0  0  0  0  0
   24.4439  -22.7791  -13.8584 C   0  0  0  0  0  0  0  0  0  0  0  0
   23.4609  -23.1665  -13.1757 O   0  0  0  0  0  0  0  0  0  0  0  0
   21.4930  -19.4539   -8.8195 N   0  0  0  0  0  0  0  0  0  0  0  0
   24.4485  -23.0519  -15.2427 C   0  0  0  0  0  0  0  0  0  0  0  0
   23.3418  -23.7945  -15.8694 C   0  0  0  0  0  0  0  0  0  0  0  0
   22.2383  -22.8814  -16.2417 O   0  0  0  0  0  0  0  0  0  0  0  0
   21.9455  -22.6278  -17.4465 C   0  0  0  0  0  0  0  0  0  0  0  0
   17.7960  -23.0917  -15.5965 C   0  0  2  0  0  0  0  0  0  0  0  0
   18.6767  -22.9306  -14.3386 C   0  0  0  0  0  0  0  0  0  0  0  0
   17.7013  -23.0813  -13.1693 C   0  0  0  0  0  0  0  0  0  0  0  0
   19.2808  -21.5763  -14.4281 C   0  0  2  0  0  0  0  0  0  0  0  0
   20.3705  -21.3904  -15.4247 N   0  0  0  0  0  0  0  0  0  0  0  0
   21.4945  -22.2798  -15.2019 C   0  0  0  0  0  0  0  0  0  0  0  0
   20.8755  -20.0110  -15.5653 O   0  0  0  0  0  0  0  0  0  0  0  0
   22.1996  -19.6716  -15.3363 O   0  0  0  0  0  0  0  0  0  0  0  0
  1  2  1  0
  2  3  2  0
  4  2  1  0
  5  4  1  0
  6  5  1  0
  7  6  1  0
  8  7  1  0
  8 10  1  0
  8  9  1  6
 10 11  2  0
 10 12  1  0
 12 13  1  0
 14 21  1  0
 14 13  1  0
 15 14  2  0
 17 18  1  6
 17 16  1  0
 19 17  1  0
 20 22  1  0
 20 19  1  6
 20 21  1  0
 22 23  1  0
 24 22  2  0
M  END
$$$$
