RGL.pdb
     RDKit          3D

 24 23  0  0  1  0  0  0  0  0999 V2000
   22.3799  -20.2337  -16.0852 N   0  0  0  0  0  0  0  0  0  0  0  0
   22.7477  -19.8866  -17.4114 C   0  0  0  0  0  0  0  0  0  0  0  0
   21.8369  -19.9434  -18.3219 N   0  0  0  0  0  0  0  0  0  0  0  0
   24.0832  -19.4813  -17.7687 N   0  0  0  0  0  0  0  0  0  0  0  0
   25.1423  -19.4882  -16.8282 C   0  0  0  0  0  0  0  0  0  0  0  0
   24.9327  -19.0071  -15.4564 C   0  0  0  0  0  0  0  0  0  0  0  0
   26.0266  -19.0095  -14.4761 C   0  0  0  0  0  0  0  0  0  0  0  0
   26.8149  -20.2421  -14.2466 C   0  0  2  0  0  0  0  0  0  0  0  0
   26.0693  -21.4521  -14.0576 N   0  0  0  0  0  0  0  0  0  0  0  0
   27.6710  -20.1040  -13.0172 C   0  0  0  0  0  0  0  0  0  0  0  0
   28.2995  -19.0414  -12.7757 O   0  0  0  0  0  0  0  0  0  0  0  0
   22.0697  -19.6863  -19.3012 N   0  0  0  0  0  0  0  0  0  0  0  0
   27.7861  -21.1737  -12.1043 C   0  0  0  0  0  0  0  0  0  0  0  0
   28.5492  -21.0204  -10.8542 C   0  0  0  0  0  0  0  0  0  0  0  0
   27.7419  -21.4433   -9.6883 O   0  0  0  0  0  0  0  0  0  0  0  0
   27.1704  -22.5712   -9.6327 C   0  0  0  0  0  0  0  0  0  0  0  0
   29.0855  -21.0985   -5.2465 C   0  0  1  0  0  0  0  0  0  0  0  0
   28.6652  -19.7987   -5.9658 C   0  0  0  0  0  0  0  0  0  0  0  0
   28.9650  -18.6901   -4.9545 C   0  0  0  0  0  0  0  0  0  0  0  0
   27.2175  -19.9428   -6.2666 C   0  0  2  0  0  0  0  0  0  0  0  0
   26.8522  -20.8278   -7.4060 N   0  0  0  0  0  0  0  0  0  0  0  0
   27.6150  -20.5433   -8.6066 C   0  0  0  0  0  0  0  0  0  0  0  0
   25.4177  -20.8620   -7.7505 O   0  0  0  0  0  0  0  0  0  0  0  0
   24.9286  -20.4093   -8.9657 O   0  0  0  0  0  0  0  0  0  0  0  0
  1  2  1  0
  2  3  2  0
  4  2  1  0
  5  4  1  0
  6  5  1  0
  7  6  1  0
  8  7  1  0
  8 10  1  0
  8  9  1  1
 10 11  2  0
 10 12  1  0
 12 13  1  0
 14 21  1  0
 14 13  1  0
 15 14  2  0
 17 18  1  1
 17 16  1  0
 19 17  1  0
 20 22  1  0
 20 19  1  1
 20 21  1  0
 22 23  1  0
 24 22  2  0
M  END
$$$$
