QDN.pdb
     RDKit          3D

 26 25  0  0  1  0  0  0  0  0999 V2000
    8.3525  -12.6559   20.0285 N   0  0  0  0  0  0  0  0  0  0  0  0
    7.9103  -13.2954   18.8167 C   0  0  0  0  0  0  0  0  0  0  0  0
    7.6638  -12.5541   17.8612 O   0  0  0  0  0  0  0  0  0  0  0  0
    7.8060  -14.7639   18.8680 C   0  0  0  0  0  0  0  0  0  0  0  0
    8.2104  -15.3898   20.1508 C   0  0  0  0  0  0  0  0  0  0  0  0
    9.2213  -16.4804   19.9452 C   0  0  2  0  0  0  0  0  0  0  0  0
    8.6637  -17.5261   19.0793 N   0  0  0  0  0  0  0  0  0  0  0  0
    9.5437  -17.1140   21.2455 C   0  0  0  0  0  0  0  0  0  0  0  0
    8.6341  -17.2573   22.0947 O   0  0  0  0  0  0  0  0  0  0  0  0
   10.8625  -17.5699   21.5673 N   0  0  0  0  0  0  0  0  0  0  0  0
   11.1070  -18.1075   22.8616 C   0  0  1  0  0  0  0  0  0  0  0  0
   12.4660  -18.7453   22.9330 C   0  0  0  0  0  0  0  0  0  0  0  0
   12.5838  -19.6049   24.1232 C   0  0  0  0  0  0  0  0  0  0  0  0
   12.2198  -19.2149   25.2477 O   0  0  0  0  0  0  0  0  0  0  0  0
   10.9390  -17.1379   23.9540 C   0  0  0  0  0  0  0  0  0  0  0  0
   11.5991  -16.1051   24.1476 O   0  0  0  0  0  0  0  0  0  0  0  0
   13.1172  -20.9055   24.0210 O   0  0  0  0  0  0  0  0  0  0  0  0
    8.8284  -14.6102   24.2843 N   0  0  0  0  0  0  0  0  0  0  0  0
    7.8157  -15.1793   25.1412 C   0  0  0  0  0  0  0  0  0  0  0  0
    6.6779  -14.6712   25.0091 O   0  0  0  0  0  0  0  0  0  0  0  0
    8.1576  -16.2688   26.0750 C   0  0  0  0  0  0  0  0  0  0  0  0
    9.6307  -16.5786   26.0227 C   0  0  2  0  0  0  0  0  0  0  0  0
    9.8846  -17.4324   24.8989 N   0  0  0  0  0  0  0  0  0  0  0  0
   10.1336  -17.2420   27.2515 C   0  0  0  0  0  0  0  0  0  0  0  0
   10.4782  -16.4617   28.3450 O   0  0  0  0  0  0  0  0  0  0  0  0
   10.2691  -18.4875   27.3650 O   0  0  0  0  0  0  0  0  0  0  0  0
  2  1  1  0
  2  3  2  0
  4  5  1  0
  4  2  1  0
  5  6  1  0
  6  7  1  6
  8  6  1  0
  8 10  1  0
  9  8  2  0
 11 10  1  0
 11 12  1  6
 13 14  2  0
 13 12  1  0
 15 11  1  0
 16 15  2  0
 17 13  1  0
 18 19  1  0
 19 21  1  0
 20 19  2  0
 22 21  1  1
 22 24  1  0
 22 23  1  0
 23 15  1  0
 24 25  1  0
 26 24  2  0
M  END
$$$$
