QDN.pdb
     RDKit          3D

 26 25  0  0  1  0  0  0  0  0999 V2000
    7.1157  -15.2722   16.6066 N   0  0  0  0  0  0  0  0  0  0  0  0
    7.4867  -13.8844   16.5089 C   0  0  0  0  0  0  0  0  0  0  0  0
    7.3931  -13.3668   15.3924 O   0  0  0  0  0  0  0  0  0  0  0  0
    7.9350  -13.2510   17.7609 C   0  0  0  0  0  0  0  0  0  0  0  0
    7.9151  -14.1221   18.9617 C   0  0  0  0  0  0  0  0  0  0  0  0
    8.9724  -13.7304   19.9528 C   0  0  2  0  0  0  0  0  0  0  0  0
   10.2860  -13.6947   19.2989 N   0  0  0  0  0  0  0  0  0  0  0  0
    9.0469  -14.7447   21.0305 C   0  0  0  0  0  0  0  0  0  0  0  0
    8.0570  -14.9099   21.7802 O   0  0  0  0  0  0  0  0  0  0  0  0
   10.2140  -15.5458   21.2468 N   0  0  0  0  0  0  0  0  0  0  0  0
   10.2282  -16.4592   22.3375 C   0  0  1  0  0  0  0  0  0  0  0  0
   11.0034  -17.6995   21.9924 C   0  0  0  0  0  0  0  0  0  0  0  0
   12.3462  -17.3604   21.4911 C   0  0  0  0  0  0  0  0  0  0  0  0
   13.3463  -17.3952   22.2311 O   0  0  0  0  0  0  0  0  0  0  0  0
   10.7218  -15.8810   23.5960 C   0  0  0  0  0  0  0  0  0  0  0  0
   11.6629  -15.0845   23.7366 O   0  0  0  0  0  0  0  0  0  0  0  0
   12.5379  -16.9836   20.1466 O   0  0  0  0  0  0  0  0  0  0  0  0
   10.7837  -14.5196   28.4948 N   0  0  0  0  0  0  0  0  0  0  0  0
    9.5147  -14.2723   27.8525 C   0  0  0  0  0  0  0  0  0  0  0  0
    8.7501  -13.5106   28.4890 O   0  0  0  0  0  0  0  0  0  0  0  0
    9.2049  -14.8963   26.5524 C   0  0  0  0  0  0  0  0  0  0  0  0
   10.3548  -15.7446   26.0760 C   0  0  2  0  0  0  0  0  0  0  0  0
   10.0243  -16.2943   24.7935 N   0  0  0  0  0  0  0  0  0  0  0  0
   10.6859  -16.8559   27.0025 C   0  0  0  0  0  0  0  0  0  0  0  0
   11.5516  -16.6163   28.0592 O   0  0  0  0  0  0  0  0  0  0  0  0
   10.2232  -18.0200   26.8874 O   0  0  0  0  0  0  0  0  0  0  0  0
  2  1  1  0
  2  3  2  0
  4  5  1  0
  4  2  1  0
  5  6  1  0
  6  7  1  6
  8  6  1  0
  8 10  1  0
  9  8  2  0
 11 10  1  0
 11 12  1  6
 13 14  2  0
 13 12  1  0
 15 11  1  0
 16 15  2  0
 17 13  1  0
 18 19  1  0
 19 21  1  0
 20 19  2  0
 22 21  1  1
 22 24  1  0
 22 23  1  0
 23 15  1  0
 24 25  1  0
 26 24  2  0
M  END
$$$$
