QDN.pdb
     RDKit          3D

 26 25  0  0  1  0  0  0  0  0999 V2000
    7.8398  -15.0921   14.6632 N   0  0  0  0  0  0  0  0  0  0  0  0
    8.3770  -13.8491   15.1525 C   0  0  0  0  0  0  0  0  0  0  0  0
    8.3854  -12.9030   14.3600 O   0  0  0  0  0  0  0  0  0  0  0  0
    8.8531  -13.8610   16.5464 C   0  0  0  0  0  0  0  0  0  0  0  0
    8.6467  -15.1325   17.2824 C   0  0  0  0  0  0  0  0  0  0  0  0
    9.2142  -15.0719   18.6709 C   0  0  2  0  0  0  0  0  0  0  0  0
    9.1210  -13.7033   19.1929 N   0  0  0  0  0  0  0  0  0  0  0  0
   10.6514  -15.4319   18.6391 C   0  0  0  0  0  0  0  0  0  0  0  0
   10.9942  -16.5233   18.1288 O   0  0  0  0  0  0  0  0  0  0  0  0
   11.6661  -14.5738   19.1726 N   0  0  0  0  0  0  0  0  0  0  0  0
   13.0294  -14.9598   19.0449 C   0  0  1  0  0  0  0  0  0  0  0  0
   13.8412  -13.8692   18.4045 C   0  0  0  0  0  0  0  0  0  0  0  0
   15.2392  -14.2929   18.2161 C   0  0  0  0  0  0  0  0  0  0  0  0
   15.5267  -15.3402   17.6083 O   0  0  0  0  0  0  0  0  0  0  0  0
   13.6515  -15.3865   20.3070 C   0  0  0  0  0  0  0  0  0  0  0  0
   14.8231  -15.7582   20.4770 O   0  0  0  0  0  0  0  0  0  0  0  0
   16.3005  -13.5168   18.7237 O   0  0  0  0  0  0  0  0  0  0  0  0
   11.0604  -18.8401   22.5951 N   0  0  0  0  0  0  0  0  0  0  0  0
   12.5005  -18.8129   22.4993 C   0  0  0  0  0  0  0  0  0  0  0  0
   13.0756  -19.7861   23.0399 O   0  0  0  0  0  0  0  0  0  0  0  0
   13.1791  -17.7008   21.8075 C   0  0  0  0  0  0  0  0  0  0  0  0
   12.8709  -16.3857   22.4740 C   0  0  2  0  0  0  0  0  0  0  0  0
   12.7921  -15.3651   21.4698 N   0  0  0  0  0  0  0  0  0  0  0  0
   13.8851  -15.9882   23.4822 C   0  0  0  0  0  0  0  0  0  0  0  0
   15.1294  -15.5539   23.0505 O   0  0  0  0  0  0  0  0  0  0  0  0
   13.6835  -16.0211   24.7235 O   0  0  0  0  0  0  0  0  0  0  0  0
  2  1  1  0
  2  3  2  0
  4  5  1  0
  4  2  1  0
  5  6  1  0
  6  7  1  6
  8  6  1  0
  8 10  1  0
  9  8  2  0
 11 10  1  0
 11 12  1  1
 13 14  2  0
 13 12  1  0
 15 11  1  0
 16 15  2  0
 17 13  1  0
 18 19  1  0
 19 21  1  0
 20 19  2  0
 22 21  1  6
 22 24  1  0
 22 23  1  0
 23 15  1  0
 24 25  1  0
 26 24  2  0
M  END
$$$$
