QDN.pdb
     RDKit          3D

 26 25  0  0  1  0  0  0  0  0999 V2000
    8.7663  -13.6709   17.7280 N   0  0  0  0  0  0  0  0  0  0  0  0
    8.4841  -12.8772   18.8956 C   0  0  0  0  0  0  0  0  0  0  0  0
    9.3707  -12.1000   19.2605 O   0  0  0  0  0  0  0  0  0  0  0  0
    7.1646  -13.0929   19.5138 C   0  0  0  0  0  0  0  0  0  0  0  0
    7.1861  -13.6093   20.9044 C   0  0  0  0  0  0  0  0  0  0  0  0
    8.2549  -14.6455   21.0984 C   0  0  2  0  0  0  0  0  0  0  0  0
    8.1457  -15.6804   20.0634 N   0  0  0  0  0  0  0  0  0  0  0  0
    8.0704  -15.3142   22.4079 C   0  0  0  0  0  0  0  0  0  0  0  0
    7.9874  -14.6133   23.4428 O   0  0  0  0  0  0  0  0  0  0  0  0
    7.9832  -16.7381   22.5334 N   0  0  0  0  0  0  0  0  0  0  0  0
    7.8985  -17.3094   23.8335 C   0  0  1  0  0  0  0  0  0  0  0  0
    7.3379  -18.7026   23.7751 C   0  0  0  0  0  0  0  0  0  0  0  0
    6.0637  -18.7284   23.0368 C   0  0  0  0  0  0  0  0  0  0  0  0
    6.0030  -19.1125   21.8545 O   0  0  0  0  0  0  0  0  0  0  0  0
    9.1678  -17.2995   24.5756 C   0  0  0  0  0  0  0  0  0  0  0  0
   10.3134  -17.2579   24.1005 O   0  0  0  0  0  0  0  0  0  0  0  0
    4.8662  -18.3151   23.6545 O   0  0  0  0  0  0  0  0  0  0  0  0
    9.4935  -13.3384   28.7171 N   0  0  0  0  0  0  0  0  0  0  0  0
   10.0942  -14.2608   27.7832 C   0  0  0  0  0  0  0  0  0  0  0  0
   11.3454  -14.2111   27.7360 O   0  0  0  0  0  0  0  0  0  0  0  0
    9.2476  -15.1623   26.9792 C   0  0  0  0  0  0  0  0  0  0  0  0
    9.8798  -16.5238   26.8549 C   0  0  2  0  0  0  0  0  0  0  0  0
    9.0536  -17.3429   26.0165 N   0  0  0  0  0  0  0  0  0  0  0  0
   10.0627  -17.2060   28.1603 C   0  0  0  0  0  0  0  0  0  0  0  0
   11.3108  -17.1804   28.7644 O   0  0  0  0  0  0  0  0  0  0  0  0
    9.1419  -17.8158   28.7627 O   0  0  0  0  0  0  0  0  0  0  0  0
  2  1  1  0
  2  3  2  0
  4  5  1  0
  4  2  1  0
  5  6  1  0
  6  7  1  6
  8  6  1  0
  8 10  1  0
  9  8  2  0
 11 10  1  0
 11 12  1  6
 13 14  2  0
 13 12  1  0
 15 11  1  0
 16 15  2  0
 17 13  1  0
 18 19  1  0
 19 21  1  0
 20 19  2  0
 22 21  1  1
 22 24  1  0
 22 23  1  0
 23 15  1  0
 24 25  1  0
 26 24  2  0
M  END
$$$$
