KTD.pdb
     RDKit          3D

 25 24  0  0  1  0  0  0  0  0999 V2000
    7.7837  -18.2139   18.4518 N   0  0  0  0  0  0  0  0  0  0  0  0
    8.5012  -17.0651   18.0359 C   0  0  1  0  0  0  0  0  0  0  0  0
    7.8157  -16.2500   16.9642 C   0  0  0  0  0  0  0  0  0  0  0  0
    7.9402  -16.7411   15.5832 C   0  0  0  0  0  0  0  0  0  0  0  0
    8.0210  -18.1988   15.3423 C   0  0  0  0  0  0  0  0  0  0  0  0
    8.0883  -18.6004   13.8882 C   0  0  0  0  0  0  0  0  0  0  0  0
    8.3017  -17.5170   12.9764 N   0  0  0  0  0  0  0  0  0  0  0  0
    9.0305  -16.2056   19.1197 C   0  0  0  0  0  0  0  0  0  0  0  0
    9.7705  -15.2314   18.7988 O   0  0  0  0  0  0  0  0  0  0  0  0
    7.3491  -14.0649   21.5179 C   0  0  0  0  0  0  0  0  0  0  0  0
    8.2189  -14.9992   22.2918 C   0  0  1  0  0  0  0  0  0  0  0  0
    7.3803  -16.0218   22.7815 O   0  0  0  0  0  0  0  0  0  0  0  0
    9.3475  -15.6109   21.5385 C   0  0  2  0  0  0  0  0  0  0  0  0
    8.7553  -16.4194   20.4647 N   0  0  0  0  0  0  0  0  0  0  0  0
   10.1577  -16.4660   22.4316 C   0  0  0  0  0  0  0  0  0  0  0  0
    9.9588  -17.7241   22.5159 O   0  0  0  0  0  0  0  0  0  0  0  0
   11.1944  -15.9572   23.2389 N   0  0  0  0  0  0  0  0  0  0  0  0
   11.9875  -16.8128   24.1134 C   0  0  1  0  0  0  0  0  0  0  0  0
   13.3792  -16.1730   24.3094 C   0  0  0  0  0  0  0  0  0  0  0  0
   14.1189  -16.1412   23.0412 C   0  0  0  0  0  0  0  0  0  0  0  0
   13.8624  -16.9987   22.1610 O   0  0  0  0  0  0  0  0  0  0  0  0
   11.3860  -17.0129   25.4228 C   0  0  0  0  0  0  0  0  0  0  0  0
   10.4027  -16.3176   25.7783 O   0  0  0  0  0  0  0  0  0  0  0  0
   15.0837  -15.1882   22.8123 O   0  0  0  0  0  0  0  0  0  0  0  0
   11.8702  -17.9613   26.3046 O   0  0  0  0  0  0  0  0  0  0  0  0
  2  1  1  1
  3  4  1  0
  3  2  1  0
  5  6  1  0
  5  4  1  0
  6  7  1  0
  8  2  1  0
  8  9  2  0
 11 10  1  6
 11 13  1  0
 12 11  1  0
 13 14  1  6
 14  8  1  0
 15 13  1  0
 16 15  2  0
 17 15  1  0
 18 22  1  0
 18 17  1  0
 18 19  1  1
 20 19  1  0
 21 20  2  0
 22 25  1  0
 23 22  2  0
 24 20  1  0
M  END
$$$$
