KTD.pdb
     RDKit          3D

 25 24  0  0  1  0  0  0  0  0999 V2000
    7.6493  -15.9272   19.0828 N   0  0  0  0  0  0  0  0  0  0  0  0
    8.3135  -14.6855   19.2389 C   0  0  1  0  0  0  0  0  0  0  0  0
    7.5510  -13.4940   18.7078 C   0  0  0  0  0  0  0  0  0  0  0  0
    7.6521  -13.2389   17.2625 C   0  0  0  0  0  0  0  0  0  0  0  0
    7.9257  -14.3707   16.3495 C   0  0  0  0  0  0  0  0  0  0  0  0
    7.8925  -14.0246   14.8800 C   0  0  0  0  0  0  0  0  0  0  0  0
    8.3533  -15.0637   14.0089 N   0  0  0  0  0  0  0  0  0  0  0  0
    8.8767  -14.4176   20.5821 C   0  0  0  0  0  0  0  0  0  0  0  0
    9.5756  -13.3749   20.7372 O   0  0  0  0  0  0  0  0  0  0  0  0
    7.4344  -13.4844   23.6698 C   0  0  0  0  0  0  0  0  0  0  0  0
    8.2188  -14.7247   23.9434 C   0  0  1  0  0  0  0  0  0  0  0  0
    7.2979  -15.7927   23.9533 O   0  0  0  0  0  0  0  0  0  0  0  0
    9.3105  -15.0292   22.9785 C   0  0  2  0  0  0  0  0  0  0  0  0
    8.6759  -15.2542   21.6732 N   0  0  0  0  0  0  0  0  0  0  0  0
   10.0473  -16.2389   23.4015 C   0  0  0  0  0  0  0  0  0  0  0  0
    9.6958  -17.4050   23.0191 O   0  0  0  0  0  0  0  0  0  0  0  0
   11.1762  -16.1878   24.2430 N   0  0  0  0  0  0  0  0  0  0  0  0
   11.9036  -17.3878   24.6388 C   0  0  1  0  0  0  0  0  0  0  0  0
   13.4030  -17.0426   24.7686 C   0  0  0  0  0  0  0  0  0  0  0  0
   13.9196  -16.4916   23.5091 C   0  0  0  0  0  0  0  0  0  0  0  0
   13.6594  -17.0799   22.4311 O   0  0  0  0  0  0  0  0  0  0  0  0
   11.4499  -17.9451   25.9038 C   0  0  0  0  0  0  0  0  0  0  0  0
   10.5643  -17.3561   26.5712 O   0  0  0  0  0  0  0  0  0  0  0  0
   14.6811  -15.3464   23.5012 O   0  0  0  0  0  0  0  0  0  0  0  0
   11.9712  -19.1237   26.4040 O   0  0  0  0  0  0  0  0  0  0  0  0
  2  1  1  1
  3  4  1  0
  3  2  1  0
  5  6  1  0
  5  4  1  0
  6  7  1  0
  8  2  1  0
  8  9  2  0
 11 10  1  6
 11 13  1  0
 12 11  1  0
 13 14  1  6
 14  8  1  0
 15 13  1  0
 16 15  2  0
 17 15  1  0
 18 22  1  0
 18 17  1  0
 18 19  1  1
 20 19  1  0
 21 20  2  0
 22 25  1  0
 23 22  2  0
 24 20  1  0
M  END
$$$$
