KTD.pdb
     RDKit          3D

 25 24  0  0  1  0  0  0  0  0999 V2000
    6.1493  -15.6258   26.2208 N   0  0  0  0  0  0  0  0  0  0  0  0
    7.3138  -15.2659   25.4983 C   0  0  1  0  0  0  0  0  0  0  0  0
    8.5897  -15.2973   26.3071 C   0  0  0  0  0  0  0  0  0  0  0  0
    8.5901  -14.5356   27.5656 C   0  0  0  0  0  0  0  0  0  0  0  0
    9.7765  -14.6032   28.4472 C   0  0  0  0  0  0  0  0  0  0  0  0
    9.6404  -13.8599   29.7546 C   0  0  0  0  0  0  0  0  0  0  0  0
   10.7748  -13.9615   30.6227 N   0  0  0  0  0  0  0  0  0  0  0  0
    7.4866  -15.9218   24.1818 C   0  0  0  0  0  0  0  0  0  0  0  0
    7.0036  -17.0804   24.0261 O   0  0  0  0  0  0  0  0  0  0  0  0
    6.8903  -14.1463   20.9008 C   0  0  0  0  0  0  0  0  0  0  0  0
    8.1297  -14.9677   20.7685 C   0  0  1  0  0  0  0  0  0  0  0  0
    9.2151  -14.0673   20.7735 O   0  0  0  0  0  0  0  0  0  0  0  0
    8.3430  -15.9967   21.8226 C   0  0  2  0  0  0  0  0  0  0  0  0
    8.1523  -15.3282   23.1164 N   0  0  0  0  0  0  0  0  0  0  0  0
    9.7112  -16.5490   21.7319 C   0  0  0  0  0  0  0  0  0  0  0  0
   10.6512  -16.1375   22.4913 O   0  0  0  0  0  0  0  0  0  0  0  0
   10.0662  -17.5575   20.8142 N   0  0  0  0  0  0  0  0  0  0  0  0
   11.4102  -18.1202   20.7616 C   0  0  1  0  0  0  0  0  0  0  0  0
   11.4352  -19.2561   19.7159 C   0  0  0  0  0  0  0  0  0  0  0  0
   11.9232  -20.5041   20.3169 C   0  0  0  0  0  0  0  0  0  0  0  0
   12.3402  -20.4914   21.5009 O   0  0  0  0  0  0  0  0  0  0  0  0
   12.4290  -17.1451   20.4042 C   0  0  0  0  0  0  0  0  0  0  0  0
   12.1317  -16.1540   19.6928 O   0  0  0  0  0  0  0  0  0  0  0  0
   11.9284  -21.6768   19.5986 O   0  0  0  0  0  0  0  0  0  0  0  0
   13.7376  -17.2761   20.8303 O   0  0  0  0  0  0  0  0  0  0  0  0
  2  1  1  1
  3  4  1  0
  3  2  1  0
  5  6  1  0
  5  4  1  0
  6  7  1  0
  8  2  1  0
  8  9  2  0
 11 10  1  1
 11 13  1  0
 12 11  1  0
 13 14  1  1
 14  8  1  0
 15 13  1  0
 16 15  2  0
 17 15  1  0
 18 22  1  0
 18 17  1  0
 18 19  1  6
 20 19  1  0
 21 20  2  0
 22 25  1  0
 23 22  2  0
 24 20  1  0
M  END
$$$$
