KTD.pdb
     RDKit          3D

 25 24  0  0  1  0  0  0  0  0999 V2000
    5.5219  -16.0416   25.0265 N   0  0  0  0  0  0  0  0  0  0  0  0
    6.4361  -15.3551   24.1895 C   0  0  1  0  0  0  0  0  0  0  0  0
    6.9576  -14.0569   24.7603 C   0  0  0  0  0  0  0  0  0  0  0  0
    6.3334  -13.5884   26.0073 C   0  0  0  0  0  0  0  0  0  0  0  0
    6.7577  -12.2926   26.5817 C   0  0  0  0  0  0  0  0  0  0  0  0
    5.9577  -11.8346   27.7777 C   0  0  0  0  0  0  0  0  0  0  0  0
    6.4216  -10.6211   28.3802 N   0  0  0  0  0  0  0  0  0  0  0  0
    7.5271  -16.1748   23.6140 C   0  0  0  0  0  0  0  0  0  0  0  0
    7.8800  -17.2176   24.2368 O   0  0  0  0  0  0  0  0  0  0  0  0
    8.1625  -16.0238   19.6308 C   0  0  0  0  0  0  0  0  0  0  0  0
    9.4053  -16.2314   20.4311 C   0  0  1  0  0  0  0  0  0  0  0  0
   10.0820  -14.9944   20.4571 O   0  0  0  0  0  0  0  0  0  0  0  0
    9.2073  -16.7100   21.8265 C   0  0  2  0  0  0  0  0  0  0  0  0
    8.1788  -15.8526   22.4299 N   0  0  0  0  0  0  0  0  0  0  0  0
   10.4691  -16.6050   22.5895 C   0  0  0  0  0  0  0  0  0  0  0  0
   10.6890  -15.6352   23.3898 O   0  0  0  0  0  0  0  0  0  0  0  0
   11.5016  -17.5584   22.4889 N   0  0  0  0  0  0  0  0  0  0  0  0
   12.6958  -17.4994   23.3233 C   0  0  1  0  0  0  0  0  0  0  0  0
   12.9673  -18.9034   23.9063 C   0  0  0  0  0  0  0  0  0  0  0  0
   14.1689  -18.8913   24.7505 C   0  0  0  0  0  0  0  0  0  0  0  0
   14.6771  -17.7907   25.0764 O   0  0  0  0  0  0  0  0  0  0  0  0
   13.8818  -17.0654   22.6011 C   0  0  0  0  0  0  0  0  0  0  0  0
   14.0246  -17.3586   21.3885 O   0  0  0  0  0  0  0  0  0  0  0  0
   14.7381  -20.0664   25.1822 O   0  0  0  0  0  0  0  0  0  0  0  0
   14.8747  -16.3267   23.2174 O   0  0  0  0  0  0  0  0  0  0  0  0
  2  1  1  1
  3  4  1  0
  3  2  1  0
  5  6  1  0
  5  4  1  0
  6  7  1  0
  8  2  1  0
  8  9  2  0
 11 10  1  1
 11 13  1  0
 12 11  1  0
 13 14  1  1
 14  8  1  0
 15 13  1  0
 16 15  2  0
 17 15  1  0
 18 22  1  0
 18 17  1  0
 18 19  1  6
 20 19  1  0
 21 20  2  0
 22 25  1  0
 23 22  2  0
 24 20  1  0
M  END
$$$$
