KTD.pdb
     RDKit          3D

 25 24  0  0  1  0  0  0  0  0999 V2000
    6.8576  -17.6584   17.5310 N   0  0  0  0  0  0  0  0  0  0  0  0
    8.1588  -17.1939   17.2170 C   0  0  1  0  0  0  0  0  0  0  0  0
    8.3003  -16.6117   15.8299 C   0  0  0  0  0  0  0  0  0  0  0  0
    7.2920  -17.0189   14.8392 C   0  0  0  0  0  0  0  0  0  0  0  0
    7.2972  -16.3821   13.5036 C   0  0  0  0  0  0  0  0  0  0  0  0
    6.1293  -16.7489   12.6195 C   0  0  0  0  0  0  0  0  0  0  0  0
    6.2047  -16.2377   11.2840 N   0  0  0  0  0  0  0  0  0  0  0  0
    8.8025  -16.3346   18.2371 C   0  0  0  0  0  0  0  0  0  0  0  0
    9.9934  -15.9599   18.0339 O   0  0  0  0  0  0  0  0  0  0  0  0
    7.2921  -13.1542   19.7131 C   0  0  0  0  0  0  0  0  0  0  0  0
    7.7933  -14.0430   20.8027 C   0  0  1  0  0  0  0  0  0  0  0  0
    6.6668  -14.6987   21.3413 O   0  0  0  0  0  0  0  0  0  0  0  0
    8.8040  -15.0586   20.3996 C   0  0  2  0  0  0  0  0  0  0  0  0
    8.1639  -15.9248   19.4010 N   0  0  0  0  0  0  0  0  0  0  0  0
    9.2253  -15.8568   21.5703 C   0  0  0  0  0  0  0  0  0  0  0  0
    8.4365  -16.6876   22.1334 O   0  0  0  0  0  0  0  0  0  0  0  0
   10.5121  -15.7585   22.1360 N   0  0  0  0  0  0  0  0  0  0  0  0
   11.0173  -16.7392   23.0892 C   0  0  1  0  0  0  0  0  0  0  0  0
   11.0888  -18.1175   22.3966 C   0  0  0  0  0  0  0  0  0  0  0  0
   11.6699  -19.1214   23.2973 C   0  0  0  0  0  0  0  0  0  0  0  0
   10.9482  -19.6387   24.1847 O   0  0  0  0  0  0  0  0  0  0  0  0
   12.3391  -16.4148   23.6030 C   0  0  0  0  0  0  0  0  0  0  0  0
   12.8185  -17.0632   24.5656 O   0  0  0  0  0  0  0  0  0  0  0  0
   12.9880  -19.4954   23.1786 O   0  0  0  0  0  0  0  0  0  0  0  0
   13.0989  -15.3977   23.0558 O   0  0  0  0  0  0  0  0  0  0  0  0
  2  1  1  1
  3  4  1  0
  3  2  1  0
  5  6  1  0
  5  4  1  0
  6  7  1  0
  8  2  1  0
  8  9  2  0
 11 10  1  6
 11 13  1  0
 12 11  1  0
 13 14  1  6
 14  8  1  0
 15 13  1  0
 16 15  2  0
 17 15  1  0
 18 22  1  0
 18 17  1  0
 18 19  1  6
 20 19  1  0
 21 20  2  0
 22 25  1  0
 23 22  2  0
 24 20  1  0
M  END
$$$$
