KTD.pdb
     RDKit          3D

 25 24  0  0  1  0  0  0  0  0999 V2000
    7.9131  -16.3329   16.3979 N   0  0  0  0  0  0  0  0  0  0  0  0
    7.6351  -16.7671   17.7176 C   0  0  1  0  0  0  0  0  0  0  0  0
    7.6038  -18.2676   17.8919 C   0  0  0  0  0  0  0  0  0  0  0  0
    6.8623  -19.0327   16.8776 C   0  0  0  0  0  0  0  0  0  0  0  0
    6.8080  -20.5074   16.9859 C   0  0  0  0  0  0  0  0  0  0  0  0
    5.9603  -21.1911   15.9399 C   0  0  0  0  0  0  0  0  0  0  0  0
    5.7777  -22.5971   16.1416 N   0  0  0  0  0  0  0  0  0  0  0  0
    8.4136  -16.1096   18.7923 C   0  0  0  0  0  0  0  0  0  0  0  0
    9.6354  -15.8638   18.5768 O   0  0  0  0  0  0  0  0  0  0  0  0
    7.1997  -12.9722   20.7454 C   0  0  0  0  0  0  0  0  0  0  0  0
    7.6977  -14.0429   21.6587 C   0  0  1  0  0  0  0  0  0  0  0  0
    6.5608  -14.7150   22.1531 O   0  0  0  0  0  0  0  0  0  0  0  0
    8.6267  -15.0347   21.0515 C   0  0  2  0  0  0  0  0  0  0  0  0
    7.8682  -15.7540   20.0198 N   0  0  0  0  0  0  0  0  0  0  0  0
    9.1114  -15.9805   22.0790 C   0  0  0  0  0  0  0  0  0  0  0  0
    8.6136  -17.1496   22.2012 O   0  0  0  0  0  0  0  0  0  0  0  0
   10.1458  -15.6612   22.9808 N   0  0  0  0  0  0  0  0  0  0  0  0
   10.6105  -16.6022   23.9929 C   0  0  1  0  0  0  0  0  0  0  0  0
   12.1300  -16.4114   24.1916 C   0  0  0  0  0  0  0  0  0  0  0  0
   12.8580  -16.7213   22.9544 C   0  0  0  0  0  0  0  0  0  0  0  0
   12.7212  -17.8539   22.4307 O   0  0  0  0  0  0  0  0  0  0  0  0
    9.9547  -16.4333   25.2804 C   0  0  0  0  0  0  0  0  0  0  0  0
    9.1879  -15.4581   25.4748 O   0  0  0  0  0  0  0  0  0  0  0  0
   13.6830  -15.7888   22.3703 O   0  0  0  0  0  0  0  0  0  0  0  0
   10.1514  -17.3280   26.3159 O   0  0  0  0  0  0  0  0  0  0  0  0
  2  1  1  6
  3  4  1  0
  3  2  1  0
  5  6  1  0
  5  4  1  0
  6  7  1  0
  8  2  1  0
  8  9  2  0
 11 10  1  6
 11 13  1  0
 12 11  1  0
 13 14  1  6
 14  8  1  0
 15 13  1  0
 16 15  2  0
 17 15  1  0
 18 22  1  0
 18 17  1  0
 18 19  1  1
 20 19  1  0
 21 20  2  0
 22 25  1  0
 23 22  2  0
 24 20  1  0
M  END
$$$$
