KTD.pdb
     RDKit          3D

 25 24  0  0  1  0  0  0  0  0999 V2000
    8.1668  -16.6235   17.4312 N   0  0  0  0  0  0  0  0  0  0  0  0
    8.6179  -15.2809   17.4671 C   0  0  1  0  0  0  0  0  0  0  0  0
    7.7944  -14.3191   16.6426 C   0  0  0  0  0  0  0  0  0  0  0  0
    7.4179  -14.7651   15.2923 C   0  0  0  0  0  0  0  0  0  0  0  0
    6.6727  -13.8397   14.4105 C   0  0  0  0  0  0  0  0  0  0  0  0
    6.5467  -14.2919   12.9753 C   0  0  0  0  0  0  0  0  0  0  0  0
    5.6103  -13.5442   12.1912 N   0  0  0  0  0  0  0  0  0  0  0  0
    8.9120  -14.7331   18.8113 C   0  0  0  0  0  0  0  0  0  0  0  0
    8.3128  -13.6779   19.1680 O   0  0  0  0  0  0  0  0  0  0  0  0
    7.5534  -14.1301   21.0364 C   0  0  0  0  0  0  0  0  0  0  0  0
    8.6154  -14.9352   21.7090 C   0  0  1  0  0  0  0  0  0  0  0  0
    8.1649  -16.2716   21.7201 O   0  0  0  0  0  0  0  0  0  0  0  0
    9.9659  -14.8795   21.0856 C   0  0  2  0  0  0  0  0  0  0  0  0
    9.8116  -15.3197   19.6929 N   0  0  0  0  0  0  0  0  0  0  0  0
   10.8994  -15.7744   21.8017 C   0  0  0  0  0  0  0  0  0  0  0  0
   11.0086  -17.0095   21.4983 O   0  0  0  0  0  0  0  0  0  0  0  0
   11.7249  -15.3299   22.8535 N   0  0  0  0  0  0  0  0  0  0  0  0
   12.7622  -16.1734   23.4351 C   0  0  1  0  0  0  0  0  0  0  0  0
   13.8317  -15.2709   24.0878 C   0  0  0  0  0  0  0  0  0  0  0  0
   15.0906  -16.0053   24.2683 C   0  0  0  0  0  0  0  0  0  0  0  0
   15.1334  -16.9548   25.0883 O   0  0  0  0  0  0  0  0  0  0  0  0
   12.2585  -17.0917   24.4447 C   0  0  0  0  0  0  0  0  0  0  0  0
   11.2837  -16.7642   25.1653 O   0  0  0  0  0  0  0  0  0  0  0  0
   16.2143  -15.6632   23.5531 O   0  0  0  0  0  0  0  0  0  0  0  0
   12.8281  -18.3362   24.6400 O   0  0  0  0  0  0  0  0  0  0  0  0
  2  1  1  1
  3  4  1  0
  3  2  1  0
  5  6  1  0
  5  4  1  0
  6  7  1  0
  8  2  1  0
  8  9  2  0
 11 10  1  6
 11 13  1  0
 12 11  1  0
 13 14  1  6
 14  8  1  0
 15 13  1  0
 16 15  2  0
 17 15  1  0
 18 22  1  0
 18 17  1  0
 18 19  1  1
 20 19  1  0
 21 20  2  0
 22 25  1  0
 23 22  2  0
 24 20  1  0
M  END
$$$$
