IDQ.pdb
     RDKit          3D

 26 25  0  0  1  0  0  0  0  0999 V2000
   16.5004  -14.3274  -18.4693 C   0  0  0  0  0  0  0  0  0  0  0  0
   17.0898  -13.7736  -17.2108 C   0  0  0  0  0  0  0  0  0  0  0  0
   17.6244  -12.3673  -17.3684 C   0  0  2  0  0  0  0  0  0  0  0  0
   18.6946  -12.3021  -18.4436 C   0  0  0  0  0  0  0  0  0  0  0  0
   18.1558  -11.9043  -16.0330 C   0  0  2  0  0  0  0  0  0  0  0  0
   17.2166  -12.2992  -15.0108 N   0  0  0  0  0  0  0  0  0  0  0  0
   18.3118  -10.4129  -16.0335 C   0  0  0  0  0  0  0  0  0  0  0  0
   19.1686   -9.8923  -16.7859 O   0  0  0  0  0  0  0  0  0  0  0  0
   17.5253   -9.5711  -15.2141 N   0  0  0  0  0  0  0  0  0  0  0  0
   17.7422   -8.1408  -15.2884 C   0  0  1  0  0  0  0  0  0  0  0  0
   16.6786   -7.4805  -14.4420 C   0  0  0  0  0  0  0  0  0  0  0  0
   16.7697   -6.0245  -14.4448 C   0  0  0  0  0  0  0  0  0  0  0  0
   17.3528   -5.4242  -13.5177 O   0  0  0  0  0  0  0  0  0  0  0  0
   19.1007   -7.7811  -14.7765 C   0  0  0  0  0  0  0  0  0  0  0  0
   19.6017   -8.3363  -13.7697 O   0  0  0  0  0  0  0  0  0  0  0  0
   16.1968   -5.3246  -15.4953 O   0  0  0  0  0  0  0  0  0  0  0  0
   23.7695   -8.1551  -18.0980 N   0  0  0  0  0  0  0  0  0  0  0  0
   24.3874   -7.3809  -17.0777 C   0  0  0  0  0  0  0  0  0  0  0  0
   25.6627   -7.3178  -17.0765 O   0  0  0  0  0  0  0  0  0  0  0  0
   23.6005   -6.6637  -16.0413 C   0  0  0  0  0  0  0  0  0  0  0  0
   22.1470   -6.9754  -16.2297 C   0  0  0  0  0  0  0  0  0  0  0  0
   21.2811   -6.5255  -15.0856 C   0  0  2  0  0  0  0  0  0  0  0  0
   19.8933   -6.7844  -15.4132 N   0  0  0  0  0  0  0  0  0  0  0  0
   21.4973   -5.1070  -14.7249 C   0  0  0  0  0  0  0  0  0  0  0  0
   22.6124   -4.6357  -14.0603 O   0  0  0  0  0  0  0  0  0  0  0  0
   20.6141   -4.2773  -15.0411 O   0  0  0  0  0  0  0  0  0  0  0  0
  2  1  1  0
  3  5  1  0
  3  2  1  0
  3  4  1  6
  5  6  1  1
  7  5  1  0
  7  8  2  0
  9  7  1  0
 10  9  1  0
 11 12  1  0
 10 11  1  1
 12 16  1  0
 13 12  2  0
 14 10  1  0
 15 14  2  0
 17 18  1  0
 18 19  2  0
 18 20  1  0
 20 21  1  0
 22 21  1  6
 22 23  1  0
 22 24  1  0
 23 14  1  0
 24 25  1  0
 26 24  2  0
M  END
$$$$
