IDQ.pdb
     RDKit          3D

 26 25  0  0  1  0  0  0  0  0999 V2000
   26.7513  -20.5837   -8.5669 C   0  0  0  0  0  0  0  0  0  0  0  0
   27.1399  -20.6913  -10.0075 C   0  0  0  0  0  0  0  0  0  0  0  0
   25.9538  -20.7637  -10.9436 C   0  0  2  0  0  0  0  0  0  0  0  0
   25.0809  -21.9671  -10.6347 C   0  0  0  0  0  0  0  0  0  0  0  0
   26.4659  -20.8040  -12.3636 C   0  0  2  0  0  0  0  0  0  0  0  0
   27.3414  -19.6738  -12.5611 N   0  0  0  0  0  0  0  0  0  0  0  0
   25.3167  -20.7329  -13.3242 C   0  0  0  0  0  0  0  0  0  0  0  0
   24.5408  -19.7498  -13.2710 O   0  0  0  0  0  0  0  0  0  0  0  0
   25.0764  -21.7370  -14.2898 N   0  0  0  0  0  0  0  0  0  0  0  0
   23.8790  -21.6407  -15.0993 C   0  0  1  0  0  0  0  0  0  0  0  0
   24.2302  -22.1389  -16.4822 C   0  0  0  0  0  0  0  0  0  0  0  0
   25.0795  -21.2129  -17.2236 C   0  0  0  0  0  0  0  0  0  0  0  0
   24.9130  -19.9794  -17.1208 O   0  0  0  0  0  0  0  0  0  0  0  0
   22.7770  -22.4699  -14.5206 C   0  0  0  0  0  0  0  0  0  0  0  0
   22.9929  -23.3611  -13.6650 O   0  0  0  0  0  0  0  0  0  0  0  0
   26.0715  -21.7307  -18.0418 O   0  0  0  0  0  0  0  0  0  0  0  0
   21.3147  -20.2278  -12.0044 N   0  0  0  0  0  0  0  0  0  0  0  0
   19.8985  -20.3565  -12.0092 C   0  0  0  0  0  0  0  0  0  0  0  0
   19.2163  -19.3784  -11.5530 O   0  0  0  0  0  0  0  0  0  0  0  0
   19.2154  -21.5730  -12.5202 C   0  0  0  0  0  0  0  0  0  0  0  0
   20.2459  -22.6109  -12.8458 C   0  0  0  0  0  0  0  0  0  0  0  0
   20.3009  -22.9683  -14.3054 C   0  0  2  0  0  0  0  0  0  0  0  0
   21.4223  -22.2843  -14.9175 N   0  0  0  0  0  0  0  0  0  0  0  0
   19.0359  -22.6782  -15.0158 C   0  0  0  0  0  0  0  0  0  0  0  0
   17.9077  -23.4719  -14.9489 O   0  0  0  0  0  0  0  0  0  0  0  0
   18.9810  -21.6470  -15.7243 O   0  0  0  0  0  0  0  0  0  0  0  0
  2  1  1  0
  3  5  1  0
  3  2  1  0
  3  4  1  1
  5  6  1  6
  7  5  1  0
  7  8  2  0
  9  7  1  0
 10  9  1  0
 11 12  1  0
 10 11  1  6
 12 16  1  0
 13 12  2  0
 14 10  1  0
 15 14  2  0
 17 18  1  0
 18 19  2  0
 18 20  1  0
 20 21  1  0
 22 21  1  1
 22 23  1  0
 22 24  1  0
 23 14  1  0
 24 25  1  0
 26 24  2  0
M  END
$$$$
