IDQ.pdb
     RDKit          3D

 26 25  0  0  1  0  0  0  0  0999 V2000
   29.0956  -22.1039  -16.6628 C   0  0  0  0  0  0  0  0  0  0  0  0
   29.0629  -20.8247  -15.8879 C   0  0  0  0  0  0  0  0  0  0  0  0
   27.6610  -20.3458  -15.5820 C   0  0  2  0  0  0  0  0  0  0  0  0
   26.7640  -21.4979  -15.1654 C   0  0  0  0  0  0  0  0  0  0  0  0
   27.1195  -19.6386  -16.8013 C   0  0  2  0  0  0  0  0  0  0  0  0
   28.0059  -18.5455  -17.1213 N   0  0  0  0  0  0  0  0  0  0  0  0
   25.7435  -19.1136  -16.5194 C   0  0  0  0  0  0  0  0  0  0  0  0
   25.6107  -18.1552  -15.7226 O   0  0  0  0  0  0  0  0  0  0  0  0
   24.5880  -19.6621  -17.1215 N   0  0  0  0  0  0  0  0  0  0  0  0
   23.2927  -19.1695  -16.6998 C   0  0  1  0  0  0  0  0  0  0  0  0
   22.4032  -19.1411  -17.9213 C   0  0  0  0  0  0  0  0  0  0  0  0
   21.1145  -18.5037  -17.6739 C   0  0  0  0  0  0  0  0  0  0  0  0
   20.1610  -18.6751  -18.4622 O   0  0  0  0  0  0  0  0  0  0  0  0
   22.6992  -20.0594  -15.6545 C   0  0  0  0  0  0  0  0  0  0  0  0
   22.9407  -21.2894  -15.6115 O   0  0  0  0  0  0  0  0  0  0  0  0
   20.9722  -17.7067  -16.5487 O   0  0  0  0  0  0  0  0  0  0  0  0
   20.7541  -18.1838  -10.2771 N   0  0  0  0  0  0  0  0  0  0  0  0
   20.7179  -19.5888  -10.0610 C   0  0  0  0  0  0  0  0  0  0  0  0
   20.2704  -20.0011   -8.9385 O   0  0  0  0  0  0  0  0  0  0  0  0
   21.1776  -20.5603  -11.0871 C   0  0  0  0  0  0  0  0  0  0  0  0
   21.7169  -19.8072  -12.2649 C   0  0  0  0  0  0  0  0  0  0  0  0
   21.2582  -20.3515  -13.5895 C   0  0  2  0  0  0  0  0  0  0  0  0
   21.8262  -19.5475  -14.6530 N   0  0  0  0  0  0  0  0  0  0  0  0
   19.7848  -20.4314  -13.6983 C   0  0  0  0  0  0  0  0  0  0  0  0
   19.0382  -21.5368  -13.3407 O   0  0  0  0  0  0  0  0  0  0  0  0
   19.1718  -19.4340  -14.1431 O   0  0  0  0  0  0  0  0  0  0  0  0
  2  1  1  0
  3  5  1  0
  3  2  1  0
  3  4  1  6
  5  6  1  1
  7  5  1  0
  7  8  2  0
  9  7  1  0
 10  9  1  0
 11 12  1  0
 10 11  1  6
 12 16  1  0
 13 12  2  0
 14 10  1  0
 15 14  2  0
 17 18  1  0
 18 19  2  0
 18 20  1  0
 20 21  1  0
 22 21  1  1
 22 23  1  0
 22 24  1  0
 23 14  1  0
 24 25  1  0
 26 24  2  0
M  END
$$$$
