IDQ.pdb
     RDKit          3D

 26 25  0  0  1  0  0  0  0  0999 V2000
   26.4280  -26.9825  -17.5525 C   0  0  0  0  0  0  0  0  0  0  0  0
   27.3808  -25.8300  -17.5099 C   0  0  0  0  0  0  0  0  0  0  0  0
   26.7295  -24.5300  -17.0924 C   0  0  2  0  0  0  0  0  0  0  0  0
   25.5164  -24.2208  -17.9516 C   0  0  0  0  0  0  0  0  0  0  0  0
   27.7598  -23.4293  -17.1767 C   0  0  2  0  0  0  0  0  0  0  0  0
   28.8328  -23.7430  -16.2639 N   0  0  0  0  0  0  0  0  0  0  0  0
   27.1385  -22.1171  -16.8016 C   0  0  0  0  0  0  0  0  0  0  0  0
   26.8574  -21.8999  -15.5995 O   0  0  0  0  0  0  0  0  0  0  0  0
   26.8577  -21.1139  -17.7573 N   0  0  0  0  0  0  0  0  0  0  0  0
   26.2401  -19.8848  -17.3033 C   0  0  1  0  0  0  0  0  0  0  0  0
   26.5986  -18.8070  -18.3002 C   0  0  0  0  0  0  0  0  0  0  0  0
   28.0101  -18.4401  -18.2609 C   0  0  0  0  0  0  0  0  0  0  0  0
   28.7783  -18.7766  -19.1863 O   0  0  0  0  0  0  0  0  0  0  0  0
   24.7542  -20.0339  -17.2224 C   0  0  0  0  0  0  0  0  0  0  0  0
   24.1027  -20.6849  -18.0737 O   0  0  0  0  0  0  0  0  0  0  0  0
   28.4778  -17.7124  -17.1777 O   0  0  0  0  0  0  0  0  0  0  0  0
   21.7210  -22.0870  -12.7180 N   0  0  0  0  0  0  0  0  0  0  0  0
   20.6226  -21.5995  -13.4783 C   0  0  0  0  0  0  0  0  0  0  0  0
   19.4547  -21.9955  -13.1473 O   0  0  0  0  0  0  0  0  0  0  0  0
   20.8017  -20.6643  -14.6190 C   0  0  0  0  0  0  0  0  0  0  0  0
   22.2669  -20.4545  -14.8525 C   0  0  0  0  0  0  0  0  0  0  0  0
   22.5685  -19.5651  -16.0269 C   0  0  2  0  0  0  0  0  0  0  0  0
   24.0054  -19.4393  -16.1675 N   0  0  0  0  0  0  0  0  0  0  0  0
   21.9157  -18.2411  -15.9272 C   0  0  0  0  0  0  0  0  0  0  0  0
   20.5989  -17.9969  -16.2644 O   0  0  0  0  0  0  0  0  0  0  0  0
   22.5983  -17.2774  -15.5105 O   0  0  0  0  0  0  0  0  0  0  0  0
  2  1  1  0
  3  5  1  0
  3  2  1  0
  3  4  1  6
  5  6  1  1
  7  5  1  0
  7  8  2  0
  9  7  1  0
 10  9  1  0
 11 12  1  0
 10 11  1  6
 12 16  1  0
 13 12  2  0
 14 10  1  0
 15 14  2  0
 17 18  1  0
 18 19  2  0
 18 20  1  0
 20 21  1  0
 22 21  1  1
 22 23  1  0
 22 24  1  0
 23 14  1  0
 24 25  1  0
 26 24  2  0
M  END
$$$$
