IDQ.pdb
     RDKit          3D

 26 25  0  0  1  0  0  0  0  0999 V2000
   18.5417  -13.3383  -20.6471 C   0  0  0  0  0  0  0  0  0  0  0  0
   19.6144  -13.1212  -19.6273 C   0  0  0  0  0  0  0  0  0  0  0  0
   19.3023  -12.0015  -18.6593 C   0  0  2  0  0  0  0  0  0  0  0  0
   19.1318  -10.6782  -19.3842 C   0  0  0  0  0  0  0  0  0  0  0  0
   20.4100  -11.9304  -17.6355 C   0  0  2  0  0  0  0  0  0  0  0  0
   20.5014  -13.2121  -16.9782 N   0  0  0  0  0  0  0  0  0  0  0  0
   20.1082  -10.8612  -16.6284 C   0  0  0  0  0  0  0  0  0  0  0  0
   19.2026  -11.0598  -15.7849 O   0  0  0  0  0  0  0  0  0  0  0  0
   20.8102   -9.6346  -16.5961 N   0  0  0  0  0  0  0  0  0  0  0  0
   20.3687   -8.6135  -15.6683 C   0  0  1  0  0  0  0  0  0  0  0  0
   21.5731   -8.1906  -14.8592 C   0  0  0  0  0  0  0  0  0  0  0  0
   21.2681   -7.1494  -13.8839 C   0  0  0  0  0  0  0  0  0  0  0  0
   20.3743   -7.3237  -13.0292 O   0  0  0  0  0  0  0  0  0  0  0  0
   19.8045   -7.4374  -16.3999 C   0  0  0  0  0  0  0  0  0  0  0  0
   20.4273   -6.8691  -17.3283 O   0  0  0  0  0  0  0  0  0  0  0  0
   21.9899   -5.9666  -13.9266 O   0  0  0  0  0  0  0  0  0  0  0  0
   14.1764   -6.7995  -18.2868 N   0  0  0  0  0  0  0  0  0  0  0  0
   14.2042   -6.1965  -16.9993 C   0  0  0  0  0  0  0  0  0  0  0  0
   13.0896   -6.0445  -16.3955 O   0  0  0  0  0  0  0  0  0  0  0  0
   15.4697   -5.7518  -16.3601 C   0  0  0  0  0  0  0  0  0  0  0  0
   16.6152   -6.0699  -17.2724 C   0  0  0  0  0  0  0  0  0  0  0  0
   17.9596   -5.7240  -16.6945 C   0  0  2  0  0  0  0  0  0  0  0  0
   18.5250   -6.9050  -16.0734 N   0  0  0  0  0  0  0  0  0  0  0  0
   17.9029   -4.5883  -15.7479 C   0  0  0  0  0  0  0  0  0  0  0  0
   17.6966   -3.2749  -16.1218 O   0  0  0  0  0  0  0  0  0  0  0  0
   18.0510   -4.8299  -14.5280 O   0  0  0  0  0  0  0  0  0  0  0  0
  2  1  1  0
  3  5  1  0
  3  2  1  0
  3  4  1  6
  5  6  1  1
  7  5  1  0
  7  8  2  0
  9  7  1  0
 10  9  1  0
 11 12  1  0
 10 11  1  6
 12 16  1  0
 13 12  2  0
 14 10  1  0
 15 14  2  0
 17 18  1  0
 18 19  2  0
 18 20  1  0
 20 21  1  0
 22 21  1  1
 22 23  1  0
 22 24  1  0
 23 14  1  0
 24 25  1  0
 26 24  2  0
M  END
$$$$
