IDQ.pdb
     RDKit          3D

 26 25  0  0  1  0  0  0  0  0999 V2000
   18.9587  -15.4800  -17.4756 C   0  0  0  0  0  0  0  0  0  0  0  0
   18.7371  -14.4136  -16.4501 C   0  0  0  0  0  0  0  0  0  0  0  0
   18.8586  -13.0126  -17.0076 C   0  0  2  0  0  0  0  0  0  0  0  0
   20.2192  -12.7888  -17.6432 C   0  0  0  0  0  0  0  0  0  0  0  0
   18.6032  -12.0288  -15.8909 C   0  0  2  0  0  0  0  0  0  0  0  0
   17.4201  -12.4492  -15.1793 N   0  0  0  0  0  0  0  0  0  0  0  0
   18.3973  -10.6553  -16.4561 C   0  0  0  0  0  0  0  0  0  0  0  0
   19.3321  -10.1139  -17.0919 O   0  0  0  0  0  0  0  0  0  0  0  0
   17.1839   -9.9475  -16.2972 N   0  0  0  0  0  0  0  0  0  0  0  0
   17.0698   -8.6343  -16.8978 C   0  0  1  0  0  0  0  0  0  0  0  0
   15.6153   -8.4271  -17.2520 C   0  0  0  0  0  0  0  0  0  0  0  0
   15.1268   -9.3832  -18.2397 C   0  0  0  0  0  0  0  0  0  0  0  0
   15.6810   -9.4816  -19.3546 O   0  0  0  0  0  0  0  0  0  0  0  0
   17.5215   -7.5725  -15.9463 C   0  0  0  0  0  0  0  0  0  0  0  0
   17.6119   -7.7784  -14.7125 O   0  0  0  0  0  0  0  0  0  0  0  0
   14.0380  -10.1772  -17.9145 O   0  0  0  0  0  0  0  0  0  0  0  0
   21.9738   -7.0192  -13.8049 N   0  0  0  0  0  0  0  0  0  0  0  0
   21.7660   -5.6256  -13.6134 C   0  0  0  0  0  0  0  0  0  0  0  0
   22.6234   -4.9931  -12.9097 O   0  0  0  0  0  0  0  0  0  0  0  0
   20.6032   -4.9101  -14.1996 C   0  0  0  0  0  0  0  0  0  0  0  0
   19.7806   -5.8815  -14.9902 C   0  0  0  0  0  0  0  0  0  0  0  0
   18.5344   -5.2782  -15.5769 C   0  0  2  0  0  0  0  0  0  0  0  0
   17.8722   -6.2696  -16.4008 N   0  0  0  0  0  0  0  0  0  0  0  0
   18.7995   -4.0345  -16.3331 C   0  0  0  0  0  0  0  0  0  0  0  0
   19.0817   -2.8153  -15.7490 O   0  0  0  0  0  0  0  0  0  0  0  0
   18.7668   -4.0871  -17.5840 O   0  0  0  0  0  0  0  0  0  0  0  0
  2  1  1  0
  3  5  1  0
  3  2  1  0
  3  4  1  1
  5  6  1  6
  7  5  1  0
  7  8  2  0
  9  7  1  0
 10  9  1  0
 11 12  1  0
 10 11  1  1
 12 16  1  0
 13 12  2  0
 14 10  1  0
 15 14  2  0
 17 18  1  0
 18 19  2  0
 18 20  1  0
 20 21  1  0
 22 21  1  6
 22 23  1  0
 22 24  1  0
 23 14  1  0
 24 25  1  0
 26 24  2  0
M  END
$$$$
