IDQ.pdb
     RDKit          3D

 26 25  0  0  1  0  0  0  0  0999 V2000
   12.9581  -10.5260   -8.9718 C   0  0  0  0  0  0  0  0  0  0  0  0
   14.1567   -9.6322   -8.9240 C   0  0  0  0  0  0  0  0  0  0  0  0
   14.6380   -9.2027  -10.2923 C   0  0  2  0  0  0  0  0  0  0  0  0
   14.8845  -10.4015  -11.1909 C   0  0  0  0  0  0  0  0  0  0  0  0
   15.8895   -8.3749  -10.1219 C   0  0  2  0  0  0  0  0  0  0  0  0
   15.6044   -7.3102   -9.1902 N   0  0  0  0  0  0  0  0  0  0  0  0
   16.3059   -7.7992  -11.4423 C   0  0  0  0  0  0  0  0  0  0  0  0
   16.8710   -8.5431  -12.2780 O   0  0  0  0  0  0  0  0  0  0  0  0
   16.0835   -6.4444  -11.7792 N   0  0  0  0  0  0  0  0  0  0  0  0
   16.3541   -6.0198  -13.1375 C   0  0  1  0  0  0  0  0  0  0  0  0
   15.4809   -4.8180  -13.4150 C   0  0  0  0  0  0  0  0  0  0  0  0
   14.0583   -5.1404  -13.4419 C   0  0  0  0  0  0  0  0  0  0  0  0
   13.6500   -6.1569  -14.0416 O   0  0  0  0  0  0  0  0  0  0  0  0
   17.7950   -5.6555  -13.3043 C   0  0  0  0  0  0  0  0  0  0  0  0
   18.4097   -4.9644  -12.4573 O   0  0  0  0  0  0  0  0  0  0  0  0
   13.1731   -4.2965  -12.7894 O   0  0  0  0  0  0  0  0  0  0  0  0
   21.8794   -9.5948  -15.0764 N   0  0  0  0  0  0  0  0  0  0  0  0
   21.3658   -9.2701  -13.7907 C   0  0  0  0  0  0  0  0  0  0  0  0
   21.5145  -10.1331  -12.8615 O   0  0  0  0  0  0  0  0  0  0  0  0
   20.6784   -7.9821  -13.5144 C   0  0  0  0  0  0  0  0  0  0  0  0
   20.6652   -7.1579  -14.7658 C   0  0  0  0  0  0  0  0  0  0  0  0
   19.9594   -5.8390  -14.6111 C   0  0  2  0  0  0  0  0  0  0  0  0
   18.5406   -6.0796  -14.4407 N   0  0  0  0  0  0  0  0  0  0  0  0
   20.2211   -4.9125  -15.7346 C   0  0  0  0  0  0  0  0  0  0  0  0
   21.2976   -4.0497  -15.7953 O   0  0  0  0  0  0  0  0  0  0  0  0
   19.4163   -4.9077  -16.6941 O   0  0  0  0  0  0  0  0  0  0  0  0
  2  1  1  0
  3  5  1  0
  3  2  1  0
  3  4  1  6
  5  6  1  1
  7  5  1  0
  7  8  2  0
  9  7  1  0
 10  9  1  0
 11 12  1  0
 10 11  1  1
 12 16  1  0
 13 12  2  0
 14 10  1  0
 15 14  2  0
 17 18  1  0
 18 19  2  0
 18 20  1  0
 20 21  1  0
 22 21  1  6
 22 23  1  0
 22 24  1  0
 23 14  1  0
 24 25  1  0
 26 24  2  0
M  END
$$$$
