IDQ.pdb
     RDKit          3D

 26 25  0  0  1  0  0  0  0  0999 V2000
   28.9690  -12.7261  -15.9804 C   0  0  0  0  0  0  0  0  0  0  0  0
   27.5521  -13.1971  -16.0718 C   0  0  0  0  0  0  0  0  0  0  0  0
   26.5539  -12.0688  -16.2091 C   0  0  2  0  0  0  0  0  0  0  0  0
   26.6168  -11.1297  -15.0176 C   0  0  0  0  0  0  0  0  0  0  0  0
   25.1758  -12.6650  -16.3689 C   0  0  2  0  0  0  0  0  0  0  0  0
   25.2370  -13.6771  -17.3959 N   0  0  0  0  0  0  0  0  0  0  0  0
   24.1989  -11.5976  -16.7624 C   0  0  0  0  0  0  0  0  0  0  0  0
   24.4006  -10.9482  -17.8154 O   0  0  0  0  0  0  0  0  0  0  0  0
   23.0561  -11.2968  -15.9866 N   0  0  0  0  0  0  0  0  0  0  0  0
   22.1547  -10.2665  -16.4603 C   0  0  1  0  0  0  0  0  0  0  0  0
   20.7631  -10.8559  -16.4683 C   0  0  0  0  0  0  0  0  0  0  0  0
   20.6302  -11.9928  -17.3729 C   0  0  0  0  0  0  0  0  0  0  0  0
   20.8715  -11.8646  -18.5916 O   0  0  0  0  0  0  0  0  0  0  0  0
   22.1984   -9.0686  -15.5660 C   0  0  0  0  0  0  0  0  0  0  0  0
   22.3794   -9.1670  -14.3289 O   0  0  0  0  0  0  0  0  0  0  0  0
   20.2317  -13.2139  -16.8517 O   0  0  0  0  0  0  0  0  0  0  0  0
   23.4367   -3.3273  -17.7039 N   0  0  0  0  0  0  0  0  0  0  0  0
   23.0218   -3.0316  -16.3763 C   0  0  0  0  0  0  0  0  0  0  0  0
   23.0147   -1.8055  -16.0204 O   0  0  0  0  0  0  0  0  0  0  0  0
   22.6076   -4.0918  -15.4212 C   0  0  0  0  0  0  0  0  0  0  0  0
   22.5533   -5.4042  -16.1424 C   0  0  0  0  0  0  0  0  0  0  0  0
   22.1188   -6.5518  -15.2733 C   0  0  2  0  0  0  0  0  0  0  0  0
   22.0353   -7.7516  -16.0818 N   0  0  0  0  0  0  0  0  0  0  0  0
   20.8475   -6.2862  -14.5646 C   0  0  0  0  0  0  0  0  0  0  0  0
   20.7593   -5.6683  -13.3327 O   0  0  0  0  0  0  0  0  0  0  0  0
   19.7805   -6.6434  -15.1145 O   0  0  0  0  0  0  0  0  0  0  0  0
  2  1  1  0
  3  5  1  0
  3  2  1  0
  3  4  1  1
  5  6  1  6
  7  5  1  0
  7  8  2  0
  9  7  1  0
 10  9  1  0
 11 12  1  0
 10 11  1  1
 12 16  1  0
 13 12  2  0
 14 10  1  0
 15 14  2  0
 17 18  1  0
 18 19  2  0
 18 20  1  0
 20 21  1  0
 22 21  1  6
 22 23  1  0
 22 24  1  0
 23 14  1  0
 24 25  1  0
 26 24  2  0
M  END
$$$$
