NYY.pdb
     RDKit          3D

 33 34  0  0  1  0  0  0  0  0999 V2000
    7.3615  -20.8158   19.9269 N   0  0  0  0  0  0  0  0  0  0  0  0
    7.7410  -20.8752   21.3043 C   0  0  0  0  0  0  0  0  0  0  0  0
    7.3264  -21.8497   21.9800 O   0  0  0  0  0  0  0  0  0  0  0  0
    8.5843  -19.7871   21.8173 C   0  0  0  0  0  0  0  0  0  0  0  0
    8.6653  -18.6793   20.7506 C   0  0  2  0  0  0  0  0  0  0  0  0
    9.3831  -19.2319   19.6471 N   0  0  0  0  0  0  0  0  0  0  0  0
    9.2458  -17.4529   21.3282 C   0  0  0  0  0  0  0  0  0  0  0  0
   10.5172  -17.3646   21.2201 O   0  0  0  0  0  0  0  0  0  0  0  0
    7.5131  -12.6557   16.8237 O   0  0  0  0  0  0  0  0  0  0  0  0
    7.7609  -12.9714   18.1383 C   0  0  0  0  0  0  0  0  0  0  0  0
    6.9187  -13.8692   18.7873 C   0  0  0  0  0  0  0  0  0  0  0  0
    7.1482  -14.2039   20.1161 C   0  0  0  0  0  0  0  0  0  0  0  0
    8.2034  -13.6627   20.8261 C   0  0  0  0  0  0  0  0  0  0  0  0
    8.4693  -13.9748   22.2364 C   0  0  0  0  0  0  0  0  0  0  0  0
    9.2196  -15.2703   22.4685 C   0  0  2  0  0  0  0  0  0  0  0  0
    8.5203  -16.4141   21.9661 N   0  0  0  0  0  0  0  0  0  0  0  0
    9.5125  -15.3680   23.9266 C   0  0  0  0  0  0  0  0  0  0  0  0
   10.2993  -14.4837   24.3985 O   0  0  0  0  0  0  0  0  0  0  0  0
    9.0166  -12.7804   20.1631 C   0  0  0  0  0  0  0  0  0  0  0  0
    8.8033  -12.4311   18.8274 C   0  0  0  0  0  0  0  0  0  0  0  0
    5.6857  -10.9500   26.6316 O   0  0  0  0  0  0  0  0  0  0  0  0
    6.2247  -12.2449   26.7138 C   0  0  0  0  0  0  0  0  0  0  0  0
    7.5235  -12.4383   27.1867 C   0  0  0  0  0  0  0  0  0  0  0  0
    8.0443  -13.7234   27.2620 C   0  0  0  0  0  0  0  0  0  0  0  0
    7.3399  -14.8453   26.8885 C   0  0  0  0  0  0  0  0  0  0  0  0
    7.8976  -16.2108   26.9633 C   0  0  0  0  0  0  0  0  0  0  0  0
    9.2282  -16.3380   26.2345 C   0  0  2  0  0  0  0  0  0  0  0  0
    8.9987  -16.3364   24.7939 N   0  0  0  0  0  0  0  0  0  0  0  0
    9.9143  -17.5757   26.6287 C   0  0  0  0  0  0  0  0  0  0  0  0
   10.2464  -17.8000   27.8132 O   0  0  0  0  0  0  0  0  0  0  0  0
    6.0470  -14.6191   26.4206 C   0  0  0  0  0  0  0  0  0  0  0  0
    5.5101  -13.3502   26.3384 C   0  0  0  0  0  0  0  0  0  0  0  0
   10.2226  -18.5602   25.6748 O   0  0  0  0  0  0  0  0  0  0  0  0
  2  1  1  0
  3  2  2  0
  4  5  1  0
  4  2  1  0
  5  6  1  6
  7  5  1  0
  7  8  2  0
  9 10  1  0
 10 11  2  0
 11 12  1  0
 13 12  2  0
 13 14  1  0
 15 14  1  1
 15 16  1  0
 16  7  1  0
 17 15  1  0
 18 17  2  0
 19 13  1  0
 20 10  1  0
 20 19  2  0
 22 21  1  0
 22 23  2  0
 24 23  1  0
 25 24  2  0
 26 25  1  0
 27 28  1  0
 27 26  1  1
 28 17  1  0
 29 27  1  0
 30 29  2  0
 31 32  2  0
 31 25  1  0
 32 22  1  0
 33 29  1  0
M  END
$$$$
