NYY.pdb
     RDKit          3D

 33 34  0  0  1  0  0  0  0  0999 V2000
    8.0059  -16.3216   13.8365 N   0  0  0  0  0  0  0  0  0  0  0  0
    9.0048  -16.3052   14.8597 C   0  0  0  0  0  0  0  0  0  0  0  0
   10.1105  -16.8423   14.6011 O   0  0  0  0  0  0  0  0  0  0  0  0
    8.6530  -15.6626   16.1330 C   0  0  0  0  0  0  0  0  0  0  0  0
    8.9775  -16.6337   17.2834 C   0  0  2  0  0  0  0  0  0  0  0  0
    8.0995  -17.7491   17.1310 N   0  0  0  0  0  0  0  0  0  0  0  0
    8.8922  -15.9382   18.5810 C   0  0  0  0  0  0  0  0  0  0  0  0
    9.7540  -15.0070   18.7426 O   0  0  0  0  0  0  0  0  0  0  0  0
    7.3211  -13.3595   26.8544 O   0  0  0  0  0  0  0  0  0  0  0  0
    7.1898  -13.8610   25.5814 C   0  0  0  0  0  0  0  0  0  0  0  0
    6.9425  -15.2202   25.4135 C   0  0  0  0  0  0  0  0  0  0  0  0
    6.8063  -15.7510   24.1368 C   0  0  0  0  0  0  0  0  0  0  0  0
    6.9122  -14.9587   23.0092 C   0  0  0  0  0  0  0  0  0  0  0  0
    6.7942  -15.4831   21.6424 C   0  0  0  0  0  0  0  0  0  0  0  0
    8.1034  -15.5842   20.8869 C   0  0  2  0  0  0  0  0  0  0  0  0
    7.9610  -16.2216   19.6129 N   0  0  0  0  0  0  0  0  0  0  0  0
    9.0835  -16.2759   21.7714 C   0  0  0  0  0  0  0  0  0  0  0  0
    8.9511  -17.5393   21.8710 O   0  0  0  0  0  0  0  0  0  0  0  0
    7.1571  -13.6238   23.2032 C   0  0  0  0  0  0  0  0  0  0  0  0
    7.2970  -13.0705   24.4783 C   0  0  0  0  0  0  0  0  0  0  0  0
   14.1737  -14.7273   17.7140 O   0  0  0  0  0  0  0  0  0  0  0  0
   13.7543  -14.9337   19.0389 C   0  0  0  0  0  0  0  0  0  0  0  0
   14.1673  -16.0678   19.7398 C   0  0  0  0  0  0  0  0  0  0  0  0
   13.7447  -16.2600   21.0485 C   0  0  0  0  0  0  0  0  0  0  0  0
   12.9223  -15.3782   21.7122 C   0  0  0  0  0  0  0  0  0  0  0  0
   12.4686  -15.5873   23.1021 C   0  0  0  0  0  0  0  0  0  0  0  0
   11.1707  -16.3793   23.1789 C   0  0  2  0  0  0  0  0  0  0  0  0
   10.1135  -15.6539   22.4831 N   0  0  0  0  0  0  0  0  0  0  0  0
   10.7853  -16.6005   24.5791 C   0  0  0  0  0  0  0  0  0  0  0  0
    9.7678  -16.0711   25.0772 O   0  0  0  0  0  0  0  0  0  0  0  0
   12.5273  -14.2566   20.9858 C   0  0  0  0  0  0  0  0  0  0  0  0
   12.9364  -14.0462   19.6845 C   0  0  0  0  0  0  0  0  0  0  0  0
   11.5576  -17.4255   25.4141 O   0  0  0  0  0  0  0  0  0  0  0  0
  2  1  1  0
  3  2  2  0
  4  5  1  0
  4  2  1  0
  5  6  1  1
  7  5  1  0
  7  8  2  0
  9 10  1  0
 10 11  2  0
 11 12  1  0
 13 12  2  0
 13 14  1  0
 15 14  1  1
 15 16  1  0
 16  7  1  0
 17 15  1  0
 18 17  2  0
 19 13  1  0
 20 10  1  0
 20 19  2  0
 22 21  1  0
 22 23  2  0
 24 23  1  0
 25 24  2  0
 26 25  1  0
 27 28  1  0
 27 26  1  1
 28 17  1  0
 29 27  1  0
 30 29  2  0
 31 32  2  0
 31 25  1  0
 32 22  1  0
 33 29  1  0
M  END
$$$$
