NYY.pdb
     RDKit          3D

 33 34  0  0  1  0  0  0  0  0999 V2000
    2.8515  -19.1815   23.3739 N   0  0  0  0  0  0  0  0  0  0  0  0
    4.0934  -19.8784   23.5041 C   0  0  0  0  0  0  0  0  0  0  0  0
    4.0461  -21.1143   23.7235 O   0  0  0  0  0  0  0  0  0  0  0  0
    5.3250  -19.0884   23.3730 C   0  0  0  0  0  0  0  0  0  0  0  0
    5.5422  -18.7541   21.8855 C   0  0  2  0  0  0  0  0  0  0  0  0
    5.7700  -19.9969   21.2207 N   0  0  0  0  0  0  0  0  0  0  0  0
    6.6160  -17.7544   21.7361 C   0  0  0  0  0  0  0  0  0  0  0  0
    7.7966  -18.2447   21.6944 O   0  0  0  0  0  0  0  0  0  0  0  0
    7.9900  -13.7752   15.4186 O   0  0  0  0  0  0  0  0  0  0  0  0
    7.8172  -13.8469   16.7803 C   0  0  0  0  0  0  0  0  0  0  0  0
    8.2873  -14.9649   17.4625 C   0  0  0  0  0  0  0  0  0  0  0  0
    8.1242  -15.0609   18.8390 C   0  0  0  0  0  0  0  0  0  0  0  0
    7.4975  -14.0648   19.5639 C   0  0  0  0  0  0  0  0  0  0  0  0
    7.2876  -14.1361   21.0158 C   0  0  0  0  0  0  0  0  0  0  0  0
    7.5768  -15.4893   21.6325 C   0  0  2  0  0  0  0  0  0  0  0  0
    6.4334  -16.3509   21.6406 N   0  0  0  0  0  0  0  0  0  0  0  0
    8.1324  -15.2554   22.9955 C   0  0  0  0  0  0  0  0  0  0  0  0
    7.4803  -14.4463   23.7330 O   0  0  0  0  0  0  0  0  0  0  0  0
    7.0430  -12.9752   18.8669 C   0  0  0  0  0  0  0  0  0  0  0  0
    7.1974  -12.8595   17.4834 C   0  0  0  0  0  0  0  0  0  0  0  0
   10.5196  -15.3417   31.2724 O   0  0  0  0  0  0  0  0  0  0  0  0
   10.0787  -15.4859   29.9462 C   0  0  0  0  0  0  0  0  0  0  0  0
    9.7628  -14.3609   29.1829 C   0  0  0  0  0  0  0  0  0  0  0  0
    9.3273  -14.5177   27.8736 C   0  0  0  0  0  0  0  0  0  0  0  0
    9.1843  -15.7457   27.2688 C   0  0  0  0  0  0  0  0  0  0  0  0
    8.7151  -15.9110   25.8782 C   0  0  0  0  0  0  0  0  0  0  0  0
    9.7976  -15.5935   24.8559 C   0  0  2  0  0  0  0  0  0  0  0  0
    9.2897  -15.8454   23.5118 N   0  0  0  0  0  0  0  0  0  0  0  0
   10.9916  -16.4138   25.0996 C   0  0  0  0  0  0  0  0  0  0  0  0
   11.1261  -17.5521   24.5996 O   0  0  0  0  0  0  0  0  0  0  0  0
    9.5072  -16.8487   28.0567 C   0  0  0  0  0  0  0  0  0  0  0  0
    9.9425  -16.7150   29.3597 C   0  0  0  0  0  0  0  0  0  0  0  0
   12.0348  -15.9389   25.9124 O   0  0  0  0  0  0  0  0  0  0  0  0
  2  1  1  0
  3  2  2  0
  4  5  1  0
  4  2  1  0
  5  6  1  6
  7  5  1  0
  7  8  2  0
  9 10  1  0
 10 11  2  0
 11 12  1  0
 13 12  2  0
 13 14  1  0
 15 14  1  1
 15 16  1  0
 16  7  1  0
 17 15  1  0
 18 17  2  0
 19 13  1  0
 20 10  1  0
 20 19  2  0
 22 21  1  0
 22 23  2  0
 24 23  1  0
 25 24  2  0
 26 25  1  0
 27 28  1  0
 27 26  1  1
 28 17  1  0
 29 27  1  0
 30 29  2  0
 31 32  2  0
 31 25  1  0
 32 22  1  0
 33 29  1  0
M  END
$$$$
