NYY.pdb
     RDKit          3D

 33 34  0  0  1  0  0  0  0  0999 V2000
   11.9086  -16.5976   14.6688 N   0  0  0  0  0  0  0  0  0  0  0  0
   12.5248  -17.0515   15.8767 C   0  0  0  0  0  0  0  0  0  0  0  0
   13.3750  -17.9717   15.7853 O   0  0  0  0  0  0  0  0  0  0  0  0
   12.1091  -16.4043   17.1283 C   0  0  0  0  0  0  0  0  0  0  0  0
   11.8040  -17.4952   18.1716 C   0  0  2  0  0  0  0  0  0  0  0  0
   10.6652  -18.2087   17.6896 N   0  0  0  0  0  0  0  0  0  0  0  0
   11.6510  -16.8959   19.5103 C   0  0  0  0  0  0  0  0  0  0  0  0
   12.7078  -16.3389   19.9672 O   0  0  0  0  0  0  0  0  0  0  0  0
    6.8288  -12.2572   18.1202 O   0  0  0  0  0  0  0  0  0  0  0  0
    7.3984  -13.0929   19.0511 C   0  0  0  0  0  0  0  0  0  0  0  0
    6.6997  -14.2251   19.4590 C   0  0  0  0  0  0  0  0  0  0  0  0
    7.2541  -15.0849   20.3990 C   0  0  0  0  0  0  0  0  0  0  0  0
    8.4980  -14.8462   20.9524 C   0  0  0  0  0  0  0  0  0  0  0  0
    9.1110  -15.7186   21.9623 C   0  0  0  0  0  0  0  0  0  0  0  0
   10.4655  -16.2784   21.5786 C   0  0  2  0  0  0  0  0  0  0  0  0
   10.4644  -16.8975   20.2877 N   0  0  0  0  0  0  0  0  0  0  0  0
   10.8946  -17.2065   22.6629 C   0  0  0  0  0  0  0  0  0  0  0  0
   10.9155  -18.4446   22.3623 O   0  0  0  0  0  0  0  0  0  0  0  0
    9.1640  -13.7234   20.5338 C   0  0  0  0  0  0  0  0  0  0  0  0
    8.6242  -12.8466   19.5896 C   0  0  0  0  0  0  0  0  0  0  0  0
   15.5829  -20.3884   20.4829 O   0  0  0  0  0  0  0  0  0  0  0  0
   15.0127  -19.7422   21.5925 C   0  0  0  0  0  0  0  0  0  0  0  0
   14.7723  -18.3677   21.5602 C   0  0  0  0  0  0  0  0  0  0  0  0
   14.2091  -17.7414   22.6642 C   0  0  0  0  0  0  0  0  0  0  0  0
   13.8658  -18.4106   23.8169 C   0  0  0  0  0  0  0  0  0  0  0  0
   13.2726  -17.7419   24.9925 C   0  0  0  0  0  0  0  0  0  0  0  0
   11.7505  -17.7598   24.9672 C   0  0  2  0  0  0  0  0  0  0  0  0
   11.2673  -16.8265   23.9555 N   0  0  0  0  0  0  0  0  0  0  0  0
   11.2098  -17.3928   26.2829 C   0  0  0  0  0  0  0  0  0  0  0  0
   11.5031  -18.0275   27.3196 O   0  0  0  0  0  0  0  0  0  0  0  0
   14.1183  -19.7810   23.8180 C   0  0  0  0  0  0  0  0  0  0  0  0
   14.6767  -20.4231   22.7312 C   0  0  0  0  0  0  0  0  0  0  0  0
   10.3349  -16.3019   26.4201 O   0  0  0  0  0  0  0  0  0  0  0  0
  2  1  1  0
  3  2  2  0
  4  5  1  0
  4  2  1  0
  5  6  1  6
  7  5  1  0
  7  8  2  0
  9 10  1  0
 10 11  2  0
 11 12  1  0
 13 12  2  0
 13 14  1  0
 15 14  1  1
 15 16  1  0
 16  7  1  0
 17 15  1  0
 18 17  2  0
 19 13  1  0
 20 10  1  0
 20 19  2  0
 22 21  1  0
 22 23  2  0
 24 23  1  0
 25 24  2  0
 26 25  1  0
 27 28  1  0
 27 26  1  1
 28 17  1  0
 29 27  1  0
 30 29  2  0
 31 32  2  0
 31 25  1  0
 32 22  1  0
 33 29  1  0
M  END
$$$$
