NYY.pdb
     RDKit          3D

 33 34  0  0  1  0  0  0  0  0999 V2000
   14.2342  -14.8563   17.4045 N   0  0  0  0  0  0  0  0  0  0  0  0
   14.2863  -14.7049   18.8255 C   0  0  0  0  0  0  0  0  0  0  0  0
   15.4008  -14.8538   19.3855 O   0  0  0  0  0  0  0  0  0  0  0  0
   13.0279  -14.3897   19.5150 C   0  0  0  0  0  0  0  0  0  0  0  0
   12.7219  -15.5125   20.5236 C   0  0  2  0  0  0  0  0  0  0  0  0
   12.5254  -16.7014   19.7580 N   0  0  0  0  0  0  0  0  0  0  0  0
   11.5928  -15.1288   21.3911 C   0  0  0  0  0  0  0  0  0  0  0  0
   11.8377  -14.1539   22.1821 O   0  0  0  0  0  0  0  0  0  0  0  0
    7.8328  -13.1522   16.3167 O   0  0  0  0  0  0  0  0  0  0  0  0
    7.8613  -13.6390   17.6018 C   0  0  0  0  0  0  0  0  0  0  0  0
    7.8041  -15.0146   17.8040 C   0  0  0  0  0  0  0  0  0  0  0  0
    7.8309  -15.5310   19.0936 C   0  0  0  0  0  0  0  0  0  0  0  0
    7.9120  -14.7074   20.2006 C   0  0  0  0  0  0  0  0  0  0  0  0
    7.9232  -15.2113   21.5801 C   0  0  0  0  0  0  0  0  0  0  0  0
    9.2844  -15.2081   22.2452 C   0  0  2  0  0  0  0  0  0  0  0  0
   10.3136  -15.7417   21.4051 N   0  0  0  0  0  0  0  0  0  0  0  0
    9.1577  -15.9397   23.5375 C   0  0  0  0  0  0  0  0  0  0  0  0
    9.9283  -16.9431   23.6889 O   0  0  0  0  0  0  0  0  0  0  0  0
    7.9658  -13.3566   19.9729 C   0  0  0  0  0  0  0  0  0  0  0  0
    7.9405  -12.8175   18.6845 C   0  0  0  0  0  0  0  0  0  0  0  0
    6.7407  -10.0877   26.7122 O   0  0  0  0  0  0  0  0  0  0  0  0
    6.8143  -11.4907   26.7033 C   0  0  0  0  0  0  0  0  0  0  0  0
    7.9275  -12.1410   27.2381 C   0  0  0  0  0  0  0  0  0  0  0  0
    7.9879  -13.5282   27.2221 C   0  0  0  0  0  0  0  0  0  0  0  0
    6.9920  -14.3200   26.6970 C   0  0  0  0  0  0  0  0  0  0  0  0
    7.0606  -15.7951   26.6750 C   0  0  0  0  0  0  0  0  0  0  0  0
    8.2315  -16.3122   25.8509 C   0  0  2  0  0  0  0  0  0  0  0  0
    8.2757  -15.6126   24.5715 N   0  0  0  0  0  0  0  0  0  0  0  0
    8.1024  -17.7579   25.6243 C   0  0  0  0  0  0  0  0  0  0  0  0
    7.6435  -18.2224   24.5579 O   0  0  0  0  0  0  0  0  0  0  0  0
    5.8946  -13.6413   26.1708 C   0  0  0  0  0  0  0  0  0  0  0  0
    5.8145  -12.2633   26.1774 C   0  0  0  0  0  0  0  0  0  0  0  0
    8.4964  -18.6769   26.6115 O   0  0  0  0  0  0  0  0  0  0  0  0
  2  1  1  0
  3  2  2  0
  4  5  1  0
  4  2  1  0
  5  6  1  6
  7  5  1  0
  7  8  2  0
  9 10  1  0
 10 11  2  0
 11 12  1  0
 13 12  2  0
 13 14  1  0
 15 14  1  6
 15 16  1  0
 16  7  1  0
 17 15  1  0
 18 17  2  0
 19 13  1  0
 20 10  1  0
 20 19  2  0
 22 21  1  0
 22 23  2  0
 24 23  1  0
 25 24  2  0
 26 25  1  0
 27 28  1  0
 27 26  1  1
 28 17  1  0
 29 27  1  0
 30 29  2  0
 31 32  2  0
 31 25  1  0
 32 22  1  0
 33 29  1  0
M  END
$$$$
