NYY.pdb
     RDKit          3D

 33 34  0  0  1  0  0  0  0  0999 V2000
    3.9050  -22.1587   24.2197 N   0  0  0  0  0  0  0  0  0  0  0  0
    4.8534  -21.7197   25.1957 C   0  0  0  0  0  0  0  0  0  0  0  0
    4.6779  -22.0883   26.3837 O   0  0  0  0  0  0  0  0  0  0  0  0
    5.9559  -20.8692   24.7274 C   0  0  0  0  0  0  0  0  0  0  0  0
    5.7936  -20.6381   23.2135 C   0  0  2  0  0  0  0  0  0  0  0  0
    6.2317  -21.8360   22.5722 N   0  0  0  0  0  0  0  0  0  0  0  0
    6.5000  -19.4102   22.8036 C   0  0  0  0  0  0  0  0  0  0  0  0
    7.7732  -19.5214   22.7527 O   0  0  0  0  0  0  0  0  0  0  0  0
    9.0941  -11.7793   19.3275 O   0  0  0  0  0  0  0  0  0  0  0  0
    8.3182  -12.8023   19.8182 C   0  0  0  0  0  0  0  0  0  0  0  0
    7.7625  -12.6787   21.0881 C   0  0  0  0  0  0  0  0  0  0  0  0
    6.9750  -13.6993   21.6063 C   0  0  0  0  0  0  0  0  0  0  0  0
    6.7234  -14.8537   20.8889 C   0  0  0  0  0  0  0  0  0  0  0  0
    5.9132  -15.9635   21.4074 C   0  0  0  0  0  0  0  0  0  0  0  0
    6.7046  -17.0638   22.0845 C   0  0  2  0  0  0  0  0  0  0  0  0
    5.8885  -18.1723   22.4782 N   0  0  0  0  0  0  0  0  0  0  0  0
    7.4394  -16.4536   23.2286 C   0  0  0  0  0  0  0  0  0  0  0  0
    6.7368  -16.1589   24.2500 O   0  0  0  0  0  0  0  0  0  0  0  0
    7.2839  -14.9498   19.6415 C   0  0  0  0  0  0  0  0  0  0  0  0
    8.0782  -13.9350   19.1023 C   0  0  0  0  0  0  0  0  0  0  0  0
   11.1259  -13.7453   30.3698 O   0  0  0  0  0  0  0  0  0  0  0  0
   10.5078  -14.2470   29.2122 C   0  0  0  0  0  0  0  0  0  0  0  0
   10.4464  -15.6230   28.9867 C   0  0  0  0  0  0  0  0  0  0  0  0
    9.8333  -16.1054   27.8379 C   0  0  0  0  0  0  0  0  0  0  0  0
    9.2695  -15.2884   26.8845 C   0  0  0  0  0  0  0  0  0  0  0  0
    8.6234  -15.8029   25.6601 C   0  0  0  0  0  0  0  0  0  0  0  0
    9.5049  -15.6516   24.4281 C   0  0  2  0  0  0  0  0  0  0  0  0
    8.8113  -16.1874   23.2619 N   0  0  0  0  0  0  0  0  0  0  0  0
   10.7794  -16.3571   24.6178 C   0  0  0  0  0  0  0  0  0  0  0  0
   11.8547  -15.7446   24.7972 O   0  0  0  0  0  0  0  0  0  0  0  0
    9.3473  -13.9205   27.1383 C   0  0  0  0  0  0  0  0  0  0  0  0
    9.9515  -13.4202   28.2741 C   0  0  0  0  0  0  0  0  0  0  0  0
   10.8313  -17.7611   24.6042 O   0  0  0  0  0  0  0  0  0  0  0  0
  2  1  1  0
  3  2  2  0
  4  5  1  0
  4  2  1  0
  5  6  1  6
  7  5  1  0
  7  8  2  0
  9 10  1  0
 10 11  2  0
 11 12  1  0
 13 12  2  0
 13 14  1  0
 15 14  1  1
 15 16  1  0
 16  7  1  0
 17 15  1  0
 18 17  2  0
 19 13  1  0
 20 10  1  0
 20 19  2  0
 22 21  1  0
 22 23  2  0
 24 23  1  0
 25 24  2  0
 26 25  1  0
 27 28  1  0
 27 26  1  1
 28 17  1  0
 29 27  1  0
 30 29  2  0
 31 32  2  0
 31 25  1  0
 32 22  1  0
 33 29  1  0
M  END
$$$$
