NYY.pdb
     RDKit          3D

 33 34  0  0  1  0  0  0  0  0999 V2000
   10.7097  -17.8456   16.2966 N   0  0  0  0  0  0  0  0  0  0  0  0
   11.7635  -17.1594   16.9774 C   0  0  0  0  0  0  0  0  0  0  0  0
   12.9302  -17.2993   16.5334 O   0  0  0  0  0  0  0  0  0  0  0  0
   11.3937  -16.3479   18.1448 C   0  0  0  0  0  0  0  0  0  0  0  0
   10.5008  -17.1933   19.0721 C   0  0  2  0  0  0  0  0  0  0  0  0
    9.3436  -17.5417   18.3119 N   0  0  0  0  0  0  0  0  0  0  0  0
   10.2339  -16.4680   20.3280 C   0  0  0  0  0  0  0  0  0  0  0  0
   11.2812  -16.1353   20.9825 O   0  0  0  0  0  0  0  0  0  0  0  0
    6.9621  -12.5676   27.5054 O   0  0  0  0  0  0  0  0  0  0  0  0
    7.0909  -13.1263   26.2562 C   0  0  0  0  0  0  0  0  0  0  0  0
    6.7345  -14.4589   26.0726 C   0  0  0  0  0  0  0  0  0  0  0  0
    6.8561  -15.0464   24.8195 C   0  0  0  0  0  0  0  0  0  0  0  0
    7.3295  -14.3375   23.7314 C   0  0  0  0  0  0  0  0  0  0  0  0
    7.4916  -14.9258   22.3956 C   0  0  0  0  0  0  0  0  0  0  0  0
    8.8345  -15.5832   22.1510 C   0  0  2  0  0  0  0  0  0  0  0  0
    8.9519  -16.1316   20.8337 N   0  0  0  0  0  0  0  0  0  0  0  0
    9.0408  -16.6011   23.2200 C   0  0  0  0  0  0  0  0  0  0  0  0
    7.9975  -17.2195   23.6110 O   0  0  0  0  0  0  0  0  0  0  0  0
    7.6744  -13.0272   23.9404 C   0  0  0  0  0  0  0  0  0  0  0  0
    7.5593  -12.4179   25.1922 C   0  0  0  0  0  0  0  0  0  0  0  0
   10.3914  -15.1014   31.4586 O   0  0  0  0  0  0  0  0  0  0  0  0
   10.2408  -15.2285   30.0676 C   0  0  0  0  0  0  0  0  0  0  0  0
   10.3640  -14.1108   29.2408 C   0  0  0  0  0  0  0  0  0  0  0  0
   10.2119  -14.2503   27.8676 C   0  0  0  0  0  0  0  0  0  0  0  0
    9.9396  -15.4537   27.2578 C   0  0  0  0  0  0  0  0  0  0  0  0
    9.7720  -15.5993   25.7977 C   0  0  0  0  0  0  0  0  0  0  0  0
   10.5357  -16.7920   25.2391 C   0  0  2  0  0  0  0  0  0  0  0  0
   10.2670  -16.9194   23.8110 N   0  0  0  0  0  0  0  0  0  0  0  0
   10.1414  -18.0257   25.9325 C   0  0  0  0  0  0  0  0  0  0  0  0
    8.9627  -18.4432   25.9220 O   0  0  0  0  0  0  0  0  0  0  0  0
    9.8224  -16.5501   28.1099 C   0  0  0  0  0  0  0  0  0  0  0  0
    9.9706  -16.4334   29.4772 C   0  0  0  0  0  0  0  0  0  0  0  0
   11.0888  -18.7862   26.6384 O   0  0  0  0  0  0  0  0  0  0  0  0
  2  1  1  0
  3  2  2  0
  4  5  1  0
  4  2  1  0
  5  6  1  6
  7  5  1  0
  7  8  2  0
  9 10  1  0
 10 11  2  0
 11 12  1  0
 13 12  2  0
 13 14  1  0
 15 14  1  6
 15 16  1  0
 16  7  1  0
 17 15  1  0
 18 17  2  0
 19 13  1  0
 20 10  1  0
 20 19  2  0
 22 21  1  0
 22 23  2  0
 24 23  1  0
 25 24  2  0
 26 25  1  0
 27 28  1  0
 27 26  1  1
 28 17  1  0
 29 27  1  0
 30 29  2  0
 31 32  2  0
 31 25  1  0
 32 22  1  0
 33 29  1  0
M  END
$$$$
