NYY.pdb
     RDKit          3D

 33 34  0  0  1  0  0  0  0  0999 V2000
    6.6298  -20.1423   20.2234 N   0  0  0  0  0  0  0  0  0  0  0  0
    7.5832  -20.6667   21.1513 C   0  0  0  0  0  0  0  0  0  0  0  0
    7.2986  -21.7444   21.7305 O   0  0  0  0  0  0  0  0  0  0  0  0
    8.8186  -19.8978   21.3532 C   0  0  0  0  0  0  0  0  0  0  0  0
    8.7378  -18.6045   20.5211 C   0  0  2  0  0  0  0  0  0  0  0  0
    9.4415  -18.8609   19.3056 N   0  0  0  0  0  0  0  0  0  0  0  0
    9.2335  -17.4583   21.3055 C   0  0  0  0  0  0  0  0  0  0  0  0
   10.5076  -17.3820   21.3881 O   0  0  0  0  0  0  0  0  0  0  0  0
    7.4316  -12.6709   16.9062 O   0  0  0  0  0  0  0  0  0  0  0  0
    7.6513  -13.0035   18.2216 C   0  0  0  0  0  0  0  0  0  0  0  0
    6.8104  -13.9279   18.8338 C   0  0  0  0  0  0  0  0  0  0  0  0
    7.0118  -14.2801   20.1626 C   0  0  0  0  0  0  0  0  0  0  0  0
    8.0374  -13.7305   20.9088 C   0  0  0  0  0  0  0  0  0  0  0  0
    8.2726  -14.0606   22.3204 C   0  0  0  0  0  0  0  0  0  0  0  0
    9.0469  -15.3421   22.5512 C   0  0  2  0  0  0  0  0  0  0  0  0
    8.4274  -16.4815   21.9446 N   0  0  0  0  0  0  0  0  0  0  0  0
    9.2308  -15.5004   24.0218 C   0  0  0  0  0  0  0  0  0  0  0  0
    9.9199  -14.5971   24.5987 O   0  0  0  0  0  0  0  0  0  0  0  0
    8.8500  -12.8218   20.2816 C   0  0  0  0  0  0  0  0  0  0  0  0
    8.6646  -12.4547   18.9465 C   0  0  0  0  0  0  0  0  0  0  0  0
    6.2106  -10.8536   26.8413 O   0  0  0  0  0  0  0  0  0  0  0  0
    6.5640  -12.2130   26.8729 C   0  0  0  0  0  0  0  0  0  0  0  0
    5.6798  -13.1819   26.3958 C   0  0  0  0  0  0  0  0  0  0  0  0
    6.0414  -14.5221   26.4336 C   0  0  0  0  0  0  0  0  0  0  0  0
    7.2484  -14.9635   26.9261 C   0  0  0  0  0  0  0  0  0  0  0  0
    7.6289  -16.3898   26.9715 C   0  0  0  0  0  0  0  0  0  0  0  0
    8.9306  -16.6698   26.2332 C   0  0  2  0  0  0  0  0  0  0  0  0
    8.7145  -16.5435   24.7961 N   0  0  0  0  0  0  0  0  0  0  0  0
    9.4199  -18.0190   26.5471 C   0  0  0  0  0  0  0  0  0  0  0  0
    9.6728  -18.3755   27.7186 O   0  0  0  0  0  0  0  0  0  0  0  0
    8.1087  -13.9725   27.3949 C   0  0  0  0  0  0  0  0  0  0  0  0
    7.7691  -12.6350   27.3657 C   0  0  0  0  0  0  0  0  0  0  0  0
    9.6213  -18.9644   25.5273 O   0  0  0  0  0  0  0  0  0  0  0  0
  2  1  1  0
  3  2  2  0
  4  5  1  0
  4  2  1  0
  5  6  1  6
  7  5  1  0
  7  8  2  0
  9 10  1  0
 10 11  2  0
 11 12  1  0
 13 12  2  0
 13 14  1  0
 15 14  1  1
 15 16  1  0
 16  7  1  0
 17 15  1  0
 18 17  2  0
 19 13  1  0
 20 10  1  0
 20 19  2  0
 22 21  1  0
 22 23  2  0
 24 23  1  0
 25 24  2  0
 26 25  1  0
 27 28  1  0
 27 26  1  1
 28 17  1  0
 29 27  1  0
 30 29  2  0
 31 32  2  0
 31 25  1  0
 32 22  1  0
 33 29  1  0
M  END
$$$$
