KWK.pdb
     RDKit          3D

 33 34  0  0  1  0  0  0  0  0999 V2000
    9.4132  -17.9275   19.2762 N   0  0  0  0  0  0  0  0  0  0  0  0
   10.4943  -16.9855   19.4838 C   0  0  1  0  0  0  0  0  0  0  0  0
   10.4642  -15.9838   18.3659 C   0  0  0  0  0  0  0  0  0  0  0  0
   10.8026  -16.4970   17.0183 C   0  0  0  0  0  0  0  0  0  0  0  0
    9.7228  -17.1843   16.2612 C   0  0  0  0  0  0  0  0  0  0  0  0
   10.2844  -17.4142   14.8417 C   0  0  0  0  0  0  0  0  0  0  0  0
    9.9509  -18.8048   14.5125 N   0  0  0  0  0  0  0  0  0  0  0  0
   10.2349  -16.2287   20.7509 C   0  0  0  0  0  0  0  0  0  0  0  0
   11.0821  -15.3675   21.1449 O   0  0  0  0  0  0  0  0  0  0  0  0
    9.0932  -16.4120   21.5496 N   0  0  0  0  0  0  0  0  0  0  0  0
    8.9490  -15.7565   22.8615 C   0  0  1  0  0  0  0  0  0  0  0  0
    7.4968  -15.4061   22.9791 C   0  0  0  0  0  0  0  0  0  0  0  0
    7.0497  -15.0037   24.3073 C   0  0  0  0  0  0  0  0  0  0  0  0
    6.4607  -15.8346   25.2326 C   0  0  0  0  0  0  0  0  0  0  0  0
    6.1901  -15.1209   26.3242 N   0  0  0  0  0  0  0  0  0  0  0  0
    6.5805  -13.8425   26.1542 C   0  0  0  0  0  0  0  0  0  0  0  0
    6.5176  -12.7293   26.9810 C   0  0  0  0  0  0  0  0  0  0  0  0
    7.0005  -11.5089   26.5453 C   0  0  0  0  0  0  0  0  0  0  0  0
    7.5397  -11.4546   25.2682 C   0  0  0  0  0  0  0  0  0  0  0  0
    7.6141  -12.5372   24.4326 C   0  0  0  0  0  0  0  0  0  0  0  0
    7.1252  -13.7563   24.8834 C   0  0  0  0  0  0  0  0  0  0  0  0
    9.3349  -16.7931   23.8911 C   0  0  0  0  0  0  0  0  0  0  0  0
    8.9907  -17.9972   23.7428 O   0  0  0  0  0  0  0  0  0  0  0  0
   10.0837  -16.4473   25.0334 N   0  0  0  0  0  0  0  0  0  0  0  0
   10.6123  -17.5302   25.9604 C   0  0  1  0  0  0  0  0  0  0  0  0
   11.9084  -17.9466   25.4274 C   0  0  0  0  0  0  0  0  0  0  0  0
   12.4684  -19.2922   25.5261 C   0  0  0  0  0  0  0  0  0  0  0  0
   13.7699  -19.5990   24.8735 C   0  0  0  0  0  0  0  0  0  0  0  0
   14.0213  -21.0951   25.0384 C   0  0  0  0  0  0  0  0  0  0  0  0
   15.2786  -21.3856   24.3841 N   0  0  0  0  0  0  0  0  0  0  0  0
   10.4485  -17.0464   27.3194 C   0  0  0  0  0  0  0  0  0  0  0  0
   10.0705  -15.8181   27.5284 O   0  0  0  0  0  0  0  0  0  0  0  0
   10.6353  -17.7322   28.4973 O   0  0  0  0  0  0  0  0  0  0  0  0
  2  1  1  6
  2  3  1  0
  4  3  1  0
  4  5  1  0
  5  6  1  0
  6  7  1  0
  8  2  1  0
  9  8  2  0
 10  8  1  0
 11 12  1  1
 11 10  1  0
 12 13  1  0
 13 14  2  0
 14 15  1  0
 16 15  1  0
 17 16  2  0
 18 17  1  0
 19 20  1  0
 19 18  2  0
 20 21  2  0
 21 13  1  0
 21 16  1  0
 22 11  1  0
 23 22  2  0
 24 22  1  0
 25 31  1  0
 25 24  1  0
 25 26  1  6
 27 26  1  0
 27 28  1  0
 29 28  1  0
 29 30  1  0
 31 33  1  0
 32 31  2  0
M  END
$$$$
