KWK.pdb
     RDKit          3D

 33 34  0  0  1  0  0  0  0  0999 V2000
    7.5378  -16.6992   20.9883 N   0  0  0  0  0  0  0  0  0  0  0  0
    8.6408  -15.7603   21.0237 C   0  0  1  0  0  0  0  0  0  0  0  0
    8.1162  -14.4063   20.6423 C   0  0  0  0  0  0  0  0  0  0  0  0
    7.4640  -14.3072   19.3162 C   0  0  0  0  0  0  0  0  0  0  0  0
    8.2627  -13.7204   18.2075 C   0  0  0  0  0  0  0  0  0  0  0  0
    7.3169  -13.6689   16.9884 C   0  0  0  0  0  0  0  0  0  0  0  0
    8.1021  -13.0515   15.9134 N   0  0  0  0  0  0  0  0  0  0  0  0
    9.1341  -15.6523   22.4347 C   0  0  0  0  0  0  0  0  0  0  0  0
   10.0426  -14.8084   22.7123 O   0  0  0  0  0  0  0  0  0  0  0  0
    8.6490  -16.4389   23.4934 N   0  0  0  0  0  0  0  0  0  0  0  0
    9.2578  -16.3974   24.8347 C   0  0  1  0  0  0  0  0  0  0  0  0
    8.1101  -16.4031   25.7982 C   0  0  0  0  0  0  0  0  0  0  0  0
    7.2431  -15.2317   25.7547 C   0  0  0  0  0  0  0  0  0  0  0  0
    5.9694  -15.2052   25.2344 C   0  0  0  0  0  0  0  0  0  0  0  0
    5.4878  -13.9706   25.3687 N   0  0  0  0  0  0  0  0  0  0  0  0
    6.4002  -13.1759   25.9615 C   0  0  0  0  0  0  0  0  0  0  0  0
    6.3804  -11.8336   26.3147 C   0  0  0  0  0  0  0  0  0  0  0  0
    7.4797  -11.2565   26.9237 C   0  0  0  0  0  0  0  0  0  0  0  0
    8.5791  -12.0691   27.1593 C   0  0  0  0  0  0  0  0  0  0  0  0
    8.6248  -13.3956   26.8213 C   0  0  0  0  0  0  0  0  0  0  0  0
    7.5136  -13.9616   26.2102 C   0  0  0  0  0  0  0  0  0  0  0  0
   10.0715  -17.6642   24.9635 C   0  0  0  0  0  0  0  0  0  0  0  0
    9.6980  -18.7225   24.3883 O   0  0  0  0  0  0  0  0  0  0  0  0
   11.2589  -17.6981   25.7211 N   0  0  0  0  0  0  0  0  0  0  0  0
   11.9805  -19.0153   25.9572 C   0  0  1  0  0  0  0  0  0  0  0  0
   13.2948  -18.8953   25.3283 C   0  0  0  0  0  0  0  0  0  0  0  0
   13.7290  -19.6194   24.1361 C   0  0  0  0  0  0  0  0  0  0  0  0
   15.1218  -19.4544   23.6395 C   0  0  0  0  0  0  0  0  0  0  0  0
   15.2473  -20.2682   22.3546 C   0  0  0  0  0  0  0  0  0  0  0  0
   16.4913  -19.8769   21.7280 N   0  0  0  0  0  0  0  0  0  0  0  0
   11.8167  -19.3463   27.3612 C   0  0  0  0  0  0  0  0  0  0  0  0
   11.3020  -18.4717   28.1770 O   0  0  0  0  0  0  0  0  0  0  0  0
   12.1344  -20.5208   28.0034 O   0  0  0  0  0  0  0  0  0  0  0  0
  2  1  1  1
  2  3  1  0
  4  3  1  0
  4  5  1  0
  5  6  1  0
  6  7  1  0
  8  2  1  0
  9  8  2  0
 10  8  1  0
 11 12  1  1
 11 10  1  0
 12 13  1  0
 13 14  2  0
 14 15  1  0
 16 15  1  0
 17 16  2  0
 18 17  1  0
 19 20  1  0
 19 18  2  0
 20 21  2  0
 21 13  1  0
 21 16  1  0
 22 11  1  0
 23 22  2  0
 24 22  1  0
 25 31  1  0
 25 24  1  0
 25 26  1  1
 27 26  1  0
 27 28  1  0
 29 28  1  0
 29 30  1  0
 31 33  1  0
 32 31  2  0
M  END
$$$$
