KWK.pdb
     RDKit          3D

 33 34  0  0  1  0  0  0  0  0999 V2000
    7.1916  -16.1793   20.8933 N   0  0  0  0  0  0  0  0  0  0  0  0
    8.3693  -15.3360   20.8568 C   0  0  1  0  0  0  0  0  0  0  0  0
    7.9252  -13.9207   20.6251 C   0  0  0  0  0  0  0  0  0  0  0  0
    7.3615  -13.6224   19.2883 C   0  0  0  0  0  0  0  0  0  0  0  0
    8.2892  -13.6910   18.1280 C   0  0  0  0  0  0  0  0  0  0  0  0
    7.4172  -13.4513   16.8769 C   0  0  0  0  0  0  0  0  0  0  0  0
    8.3441  -13.5089   15.7406 N   0  0  0  0  0  0  0  0  0  0  0  0
    9.0255  -15.3694   22.2036 C   0  0  0  0  0  0  0  0  0  0  0  0
   10.0273  -14.6199   22.4254 O   0  0  0  0  0  0  0  0  0  0  0  0
    8.5980  -16.1920   23.2598 N   0  0  0  0  0  0  0  0  0  0  0  0
    9.2783  -16.1949   24.5669 C   0  0  1  0  0  0  0  0  0  0  0  0
    8.1851  -16.2614   25.5897 C   0  0  0  0  0  0  0  0  0  0  0  0
    7.2824  -15.1169   25.6247 C   0  0  0  0  0  0  0  0  0  0  0  0
    5.9381  -15.1566   25.3333 C   0  0  0  0  0  0  0  0  0  0  0  0
    5.4431  -13.9278   25.4720 N   0  0  0  0  0  0  0  0  0  0  0  0
    6.4150  -13.0729   25.8462 C   0  0  0  0  0  0  0  0  0  0  0  0
    6.4085  -11.7107   26.1129 C   0  0  0  0  0  0  0  0  0  0  0  0
    7.5749  -11.0672   26.4840 C   0  0  0  0  0  0  0  0  0  0  0  0
    8.7267  -11.8351   26.5750 C   0  0  0  0  0  0  0  0  0  0  0  0
    8.7608  -13.1799   26.3177 C   0  0  0  0  0  0  0  0  0  0  0  0
    7.5819  -13.8128   25.9459 C   0  0  0  0  0  0  0  0  0  0  0  0
   10.1180  -17.4509   24.5981 C   0  0  0  0  0  0  0  0  0  0  0  0
    9.7346  -18.4887   23.9929 O   0  0  0  0  0  0  0  0  0  0  0  0
   11.3411  -17.4970   25.2959 N   0  0  0  0  0  0  0  0  0  0  0  0
   12.0968  -18.8091   25.4327 C   0  0  1  0  0  0  0  0  0  0  0  0
   13.4255  -18.5925   24.8627 C   0  0  0  0  0  0  0  0  0  0  0  0
   14.5059  -19.5756   24.8435 C   0  0  0  0  0  0  0  0  0  0  0  0
   15.8226  -19.2128   24.2532 C   0  0  0  0  0  0  0  0  0  0  0  0
   16.7028  -20.4585   24.3013 C   0  0  0  0  0  0  0  0  0  0  0  0
   17.9243  -20.1388   23.5951 N   0  0  0  0  0  0  0  0  0  0  0  0
   11.9001  -19.2754   26.7934 C   0  0  0  0  0  0  0  0  0  0  0  0
   11.3783  -18.4793   27.6818 O   0  0  0  0  0  0  0  0  0  0  0  0
   12.1911  -20.5118   27.3219 O   0  0  0  0  0  0  0  0  0  0  0  0
  2  1  1  1
  2  3  1  0
  4  3  1  0
  4  5  1  0
  5  6  1  0
  6  7  1  0
  8  2  1  0
  9  8  2  0
 10  8  1  0
 11 12  1  1
 11 10  1  0
 12 13  1  0
 13 14  2  0
 14 15  1  0
 16 15  1  0
 17 16  2  0
 18 17  1  0
 19 20  1  0
 19 18  2  0
 20 21  2  0
 21 13  1  0
 21 16  1  0
 22 11  1  0
 23 22  2  0
 24 22  1  0
 25 31  1  0
 25 24  1  0
 25 26  1  1
 27 26  1  0
 27 28  1  0
 29 28  1  0
 29 30  1  0
 31 33  1  0
 32 31  2  0
M  END
$$$$
