KWK.pdb
     RDKit          3D

 33 34  0  0  1  0  0  0  0  0999 V2000
    7.2204  -16.6169   20.8078 N   0  0  0  0  0  0  0  0  0  0  0  0
    8.3142  -15.6665   20.8089 C   0  0  1  0  0  0  0  0  0  0  0  0
    7.7573  -14.3107   20.4834 C   0  0  0  0  0  0  0  0  0  0  0  0
    7.3435  -14.0937   19.0779 C   0  0  0  0  0  0  0  0  0  0  0  0
    8.3363  -13.4667   18.1655 C   0  0  0  0  0  0  0  0  0  0  0  0
    7.6063  -13.2706   16.8194 C   0  0  0  0  0  0  0  0  0  0  0  0
    8.6046  -12.6837   15.9180 N   0  0  0  0  0  0  0  0  0  0  0  0
    8.8759  -15.5828   22.1956 C   0  0  0  0  0  0  0  0  0  0  0  0
    9.8108  -14.7573   22.4385 O   0  0  0  0  0  0  0  0  0  0  0  0
    8.4286  -16.3734   23.2679 N   0  0  0  0  0  0  0  0  0  0  0  0
    9.0706  -16.3206   24.5932 C   0  0  1  0  0  0  0  0  0  0  0  0
    7.9484  -16.3535   25.5858 C   0  0  0  0  0  0  0  0  0  0  0  0
    7.1095  -15.1618   25.6304 C   0  0  0  0  0  0  0  0  0  0  0  0
    5.7717  -15.1199   25.3104 C   0  0  0  0  0  0  0  0  0  0  0  0
    5.3421  -13.8692   25.4692 N   0  0  0  0  0  0  0  0  0  0  0  0
    6.3511  -13.0787   25.8846 C   0  0  0  0  0  0  0  0  0  0  0  0
    6.4136  -11.7249   26.1848 C   0  0  0  0  0  0  0  0  0  0  0  0
    7.6051  -11.1560   26.5959 C   0  0  0  0  0  0  0  0  0  0  0  0
    8.7107  -11.9886   26.6917 C   0  0  0  0  0  0  0  0  0  0  0  0
    8.6764  -13.3268   26.4019 C   0  0  0  0  0  0  0  0  0  0  0  0
    7.4730  -13.8843   25.9901 C   0  0  0  0  0  0  0  0  0  0  0  0
    9.9153  -17.5691   24.6983 C   0  0  0  0  0  0  0  0  0  0  0  0
    9.5193  -18.6512   24.1859 O   0  0  0  0  0  0  0  0  0  0  0  0
   11.1571  -17.5593   25.3638 N   0  0  0  0  0  0  0  0  0  0  0  0
   11.9464  -18.8476   25.5334 C   0  0  1  0  0  0  0  0  0  0  0  0
   13.2500  -18.6295   24.9086 C   0  0  0  0  0  0  0  0  0  0  0  0
   14.2582  -19.6611   24.6779 C   0  0  0  0  0  0  0  0  0  0  0  0
   15.5969  -19.2795   24.1522 C   0  0  0  0  0  0  0  0  0  0  0  0
   16.4449  -20.5472   24.1005 C   0  0  0  0  0  0  0  0  0  0  0  0
   17.7602  -20.1557   23.6423 N   0  0  0  0  0  0  0  0  0  0  0  0
   11.8060  -19.2551   26.9197 C   0  0  0  0  0  0  0  0  0  0  0  0
   11.3040  -18.4273   27.7904 O   0  0  0  0  0  0  0  0  0  0  0  0
   12.1352  -20.4623   27.4915 O   0  0  0  0  0  0  0  0  0  0  0  0
  2  1  1  1
  2  3  1  0
  4  3  1  0
  4  5  1  0
  5  6  1  0
  6  7  1  0
  8  2  1  0
  9  8  2  0
 10  8  1  0
 11 12  1  1
 11 10  1  0
 12 13  1  0
 13 14  2  0
 14 15  1  0
 16 15  1  0
 17 16  2  0
 18 17  1  0
 19 20  1  0
 19 18  2  0
 20 21  2  0
 21 13  1  0
 21 16  1  0
 22 11  1  0
 23 22  2  0
 24 22  1  0
 25 31  1  0
 25 24  1  0
 25 26  1  1
 27 26  1  0
 27 28  1  0
 29 28  1  0
 29 30  1  0
 31 33  1  0
 32 31  2  0
M  END
$$$$
