KWK.pdb
     RDKit          3D

 33 34  0  0  1  0  0  0  0  0999 V2000
    6.4812  -14.0613   20.0996 N   0  0  0  0  0  0  0  0  0  0  0  0
    6.7882  -15.3593   20.6659 C   0  0  1  0  0  0  0  0  0  0  0  0
    7.3606  -16.2216   19.5784 C   0  0  0  0  0  0  0  0  0  0  0  0
    8.1381  -15.5219   18.5297 C   0  0  0  0  0  0  0  0  0  0  0  0
    8.5997  -16.3315   17.3709 C   0  0  0  0  0  0  0  0  0  0  0  0
    9.3524  -15.3515   16.4455 C   0  0  0  0  0  0  0  0  0  0  0  0
    9.7614  -16.1502   15.2844 N   0  0  0  0  0  0  0  0  0  0  0  0
    7.8629  -15.1912   21.6967 C   0  0  0  0  0  0  0  0  0  0  0  0
    8.7805  -14.3337   21.5034 O   0  0  0  0  0  0  0  0  0  0  0  0
    7.9251  -15.9345   22.8877 N   0  0  0  0  0  0  0  0  0  0  0  0
    8.9885  -15.7177   23.8844 C   0  0  1  0  0  0  0  0  0  0  0  0
    8.3393  -15.9294   25.2184 C   0  0  0  0  0  0  0  0  0  0  0  0
    7.3848  -14.9054   25.6260 C   0  0  0  0  0  0  0  0  0  0  0  0
    6.0324  -15.1001   25.7888 C   0  0  0  0  0  0  0  0  0  0  0  0
    5.4856  -13.9457   26.1665 N   0  0  0  0  0  0  0  0  0  0  0  0
    6.4310  -12.9903   26.2600 C   0  0  0  0  0  0  0  0  0  0  0  0
    6.3705  -11.6478   26.6076 C   0  0  0  0  0  0  0  0  0  0  0  0
    7.5194  -10.8782   26.6199 C   0  0  0  0  0  0  0  0  0  0  0  0
    8.7096  -11.5021   26.2755 C   0  0  0  0  0  0  0  0  0  0  0  0
    8.7972  -12.8242   25.9289 C   0  0  0  0  0  0  0  0  0  0  0  0
    7.6353  -13.5848   25.9208 C   0  0  0  0  0  0  0  0  0  0  0  0
   10.0307  -16.7798   23.6213 C   0  0  0  0  0  0  0  0  0  0  0  0
    9.6864  -17.9242   23.2187 O   0  0  0  0  0  0  0  0  0  0  0  0
   11.4025  -16.5238   23.8152 N   0  0  0  0  0  0  0  0  0  0  0  0
   12.4199  -17.6439   23.6677 C   0  0  1  0  0  0  0  0  0  0  0  0
   13.6211  -17.0491   23.0840 C   0  0  0  0  0  0  0  0  0  0  0  0
   14.8715  -17.7575   22.8221 C   0  0  0  0  0  0  0  0  0  0  0  0
   16.0120  -17.0341   22.1977 C   0  0  0  0  0  0  0  0  0  0  0  0
   17.1862  -18.0064   22.1294 C   0  0  0  0  0  0  0  0  0  0  0  0
   18.3112  -17.2713   21.5936 N   0  0  0  0  0  0  0  0  0  0  0  0
   12.4425  -18.3687   24.9254 C   0  0  0  0  0  0  0  0  0  0  0  0
   11.9255  -17.8306   25.9924 O   0  0  0  0  0  0  0  0  0  0  0  0
   12.9516  -19.6214   25.1790 O   0  0  0  0  0  0  0  0  0  0  0  0
  2  1  1  6
  2  3  1  0
  4  3  1  0
  4  5  1  0
  5  6  1  0
  6  7  1  0
  8  2  1  0
  9  8  2  0
 10  8  1  0
 11 12  1  1
 11 10  1  0
 12 13  1  0
 13 14  2  0
 14 15  1  0
 16 15  1  0
 17 16  2  0
 18 17  1  0
 19 20  1  0
 19 18  2  0
 20 21  2  0
 21 13  1  0
 21 16  1  0
 22 11  1  0
 23 22  2  0
 24 22  1  0
 25 31  1  0
 25 24  1  0
 25 26  1  1
 27 26  1  0
 27 28  1  0
 29 28  1  0
 29 30  1  0
 31 33  1  0
 32 31  2  0
M  END
$$$$
