KWK.pdb
     RDKit          3D

 33 34  0  0  1  0  0  0  0  0999 V2000
    6.6914  -14.9313   20.4588 N   0  0  0  0  0  0  0  0  0  0  0  0
    7.4066  -16.1574   20.7496 C   0  0  1  0  0  0  0  0  0  0  0  0
    8.3874  -16.4024   19.6396 C   0  0  0  0  0  0  0  0  0  0  0  0
    7.9187  -17.2656   18.5311 C   0  0  0  0  0  0  0  0  0  0  0  0
    8.9133  -17.6345   17.4889 C   0  0  0  0  0  0  0  0  0  0  0  0
    8.1324  -18.4389   16.4275 C   0  0  0  0  0  0  0  0  0  0  0  0
    9.0844  -18.6655   15.3339 N   0  0  0  0  0  0  0  0  0  0  0  0
    8.2080  -15.9604   22.0005 C   0  0  0  0  0  0  0  0  0  0  0  0
    9.0325  -14.9958   22.0647 O   0  0  0  0  0  0  0  0  0  0  0  0
    8.1065  -16.7891   23.1309 N   0  0  0  0  0  0  0  0  0  0  0  0
    8.8571  -16.5112   24.3682 C   0  0  1  0  0  0  0  0  0  0  0  0
    7.8386  -16.5184   25.4673 C   0  0  0  0  0  0  0  0  0  0  0  0
    7.0662  -15.2913   25.6207 C   0  0  0  0  0  0  0  0  0  0  0  0
    5.6927  -15.2096   25.5992 C   0  0  0  0  0  0  0  0  0  0  0  0
    5.3463  -13.9349   25.7705 N   0  0  0  0  0  0  0  0  0  0  0  0
    6.4452  -13.1670   25.9053 C   0  0  0  0  0  0  0  0  0  0  0  0
    6.6128  -11.8029   26.1003 C   0  0  0  0  0  0  0  0  0  0  0  0
    7.8822  -11.2642   26.2046 C   0  0  0  0  0  0  0  0  0  0  0  0
    8.9562  -12.1369   26.1074 C   0  0  0  0  0  0  0  0  0  0  0  0
    8.8189  -13.4860   25.9154 C   0  0  0  0  0  0  0  0  0  0  0  0
    7.5382  -14.0130   25.8123 C   0  0  0  0  0  0  0  0  0  0  0  0
    9.8304  -17.6554   24.5323 C   0  0  0  0  0  0  0  0  0  0  0  0
    9.5110  -18.8204   24.1701 O   0  0  0  0  0  0  0  0  0  0  0  0
   11.1096  -17.4549   25.0878 N   0  0  0  0  0  0  0  0  0  0  0  0
   12.0330  -18.6375   25.3330 C   0  0  1  0  0  0  0  0  0  0  0  0
   13.3454  -18.2644   24.8080 C   0  0  0  0  0  0  0  0  0  0  0  0
   14.4579  -19.1847   24.5856 C   0  0  0  0  0  0  0  0  0  0  0  0
   15.8023  -18.8629   25.1360 C   0  0  0  0  0  0  0  0  0  0  0  0
   16.7367  -20.0082   24.7561 C   0  0  0  0  0  0  0  0  0  0  0  0
   17.9071  -19.4131   24.1485 N   0  0  0  0  0  0  0  0  0  0  0  0
   11.8353  -19.0555   26.7092 C   0  0  0  0  0  0  0  0  0  0  0  0
   12.3105  -20.1984   27.1136 O   0  0  0  0  0  0  0  0  0  0  0  0
   11.1884  -18.3833   27.7204 O   0  0  0  0  0  0  0  0  0  0  0  0
  2  1  1  6
  2  3  1  0
  4  3  1  0
  4  5  1  0
  5  6  1  0
  6  7  1  0
  8  2  1  0
  9  8  2  0
 10  8  1  0
 11 12  1  1
 11 10  1  0
 12 13  1  0
 13 14  2  0
 14 15  1  0
 16 15  1  0
 17 16  2  0
 18 17  1  0
 19 20  1  0
 19 18  2  0
 20 21  2  0
 21 13  1  0
 21 16  1  0
 22 11  1  0
 23 22  2  0
 24 22  1  0
 25 31  1  0
 25 24  1  0
 25 26  1  1
 27 26  1  0
 27 28  1  0
 29 28  1  0
 29 30  1  0
 31 33  1  0
 32 31  2  0
M  END
$$$$
