KWK.pdb
     RDKit          3D

 33 34  0  0  1  0  0  0  0  0999 V2000
    8.4510  -16.7013   18.9802 N   0  0  0  0  0  0  0  0  0  0  0  0
    9.3637  -15.5967   19.1951 C   0  0  1  0  0  0  0  0  0  0  0  0
    8.8988  -14.4361   18.3638 C   0  0  0  0  0  0  0  0  0  0  0  0
    8.5243  -14.7425   16.9639 C   0  0  0  0  0  0  0  0  0  0  0  0
    8.9304  -13.7631   15.9212 C   0  0  0  0  0  0  0  0  0  0  0  0
    8.4008  -14.3265   14.5850 C   0  0  0  0  0  0  0  0  0  0  0  0
    8.7291  -13.3109   13.5778 N   0  0  0  0  0  0  0  0  0  0  0  0
    9.2701  -15.1684   20.6281 C   0  0  0  0  0  0  0  0  0  0  0  0
    9.9906  -14.2050   21.0369 O   0  0  0  0  0  0  0  0  0  0  0  0
    8.4210  -15.7743   21.5698 N   0  0  0  0  0  0  0  0  0  0  0  0
    8.4442  -15.3960   22.9938 C   0  0  1  0  0  0  0  0  0  0  0  0
    7.0160  -15.1335   23.3640 C   0  0  0  0  0  0  0  0  0  0  0  0
    6.7889  -14.7006   24.7376 C   0  0  0  0  0  0  0  0  0  0  0  0
    6.3226  -15.5005   25.7556 C   0  0  0  0  0  0  0  0  0  0  0  0
    6.2433  -14.7651   26.8633 N   0  0  0  0  0  0  0  0  0  0  0  0
    6.6421  -13.5023   26.6143 C   0  0  0  0  0  0  0  0  0  0  0  0
    6.7397  -12.3777   27.4221 C   0  0  0  0  0  0  0  0  0  0  0  0
    7.1875  -11.1791   26.8974 C   0  0  0  0  0  0  0  0  0  0  0  0
    7.5274  -11.1580   25.5526 C   0  0  0  0  0  0  0  0  0  0  0  0
    7.4407  -12.2525   24.7338 C   0  0  0  0  0  0  0  0  0  0  0  0
    6.9892  -13.4494   25.2743 C   0  0  0  0  0  0  0  0  0  0  0  0
    8.9777  -16.5988   23.7370 C   0  0  0  0  0  0  0  0  0  0  0  0
    8.6363  -17.7630   23.3931 O   0  0  0  0  0  0  0  0  0  0  0  0
    9.8636  -16.4549   24.8230 N   0  0  0  0  0  0  0  0  0  0  0  0
   10.5257  -17.6767   25.4395 C   0  0  1  0  0  0  0  0  0  0  0  0
   11.8326  -17.8169   24.7993 C   0  0  0  0  0  0  0  0  0  0  0  0
   12.4771  -19.0847   24.4659 C   0  0  0  0  0  0  0  0  0  0  0  0
   13.7924  -19.0828   23.7702 C   0  0  0  0  0  0  0  0  0  0  0  0
   14.1710  -20.5374   23.5065 C   0  0  0  0  0  0  0  0  0  0  0  0
   15.3286  -20.5207   22.6389 N   0  0  0  0  0  0  0  0  0  0  0  0
   10.3719  -17.5653   26.8788 C   0  0  0  0  0  0  0  0  0  0  0  0
   10.0644  -16.4171   27.4103 O   0  0  0  0  0  0  0  0  0  0  0  0
   10.5013  -18.5514   27.8294 O   0  0  0  0  0  0  0  0  0  0  0  0
  2  1  1  1
  2  3  1  0
  4  3  1  0
  4  5  1  0
  5  6  1  0
  6  7  1  0
  8  2  1  0
  9  8  2  0
 10  8  1  0
 11 12  1  1
 11 10  1  0
 12 13  1  0
 13 14  2  0
 14 15  1  0
 16 15  1  0
 17 16  2  0
 18 17  1  0
 19 20  1  0
 19 18  2  0
 20 21  2  0
 21 13  1  0
 21 16  1  0
 22 11  1  0
 23 22  2  0
 24 22  1  0
 25 31  1  0
 25 24  1  0
 25 26  1  1
 27 26  1  0
 27 28  1  0
 29 28  1  0
 29 30  1  0
 31 33  1  0
 32 31  2  0
M  END
$$$$
