HHW.pdb
     RDKit          3D

 35 38  0  0  1  0  0  0  0  0999 V2000
   10.6604  -17.0034   19.1726 N   0  0  0  0  0  0  0  0  0  0  0  0
   11.2637  -16.6674   20.4205 C   0  0  1  0  0  0  0  0  0  0  0  0
   11.7498  -15.2452   20.5146 C   0  0  0  0  0  0  0  0  0  0  0  0
   12.9205  -14.9902   19.6390 C   0  0  0  0  0  0  0  0  0  0  0  0
   13.5575  -15.9180   18.8377 C   0  0  0  0  0  0  0  0  0  0  0  0
   14.5603  -15.2771   18.2146 N   0  0  0  0  0  0  0  0  0  0  0  0
   14.5582  -13.9904   18.6071 C   0  0  0  0  0  0  0  0  0  0  0  0
   13.5520  -13.8199   19.4796 N   0  0  0  0  0  0  0  0  0  0  0  0
   10.3028  -16.8904   21.5751 C   0  0  0  0  0  0  0  0  0  0  0  0
    9.1103  -16.5877   21.4140 O   0  0  0  0  0  0  0  0  0  0  0  0
   10.7283  -17.4201   22.7937 N   0  0  0  0  0  0  0  0  0  0  0  0
   10.0545  -17.8043   23.9641 C   0  0  1  0  0  0  0  0  0  0  0  0
    9.7251  -19.2267   24.2218 C   0  0  0  0  0  0  0  0  0  0  0  0
    8.8642  -19.9133   23.2730 C   0  0  0  0  0  0  0  0  0  0  0  0
    8.1561  -19.5262   22.1545 C   0  0  0  0  0  0  0  0  0  0  0  0
    7.4560  -20.5888   21.7275 N   0  0  0  0  0  0  0  0  0  0  0  0
    7.6920  -21.6360   22.5317 C   0  0  0  0  0  0  0  0  0  0  0  0
    8.5390  -21.2302   23.4618 N   0  0  0  0  0  0  0  0  0  0  0  0
   10.4255  -17.1446   25.2149 C   0  0  0  0  0  0  0  0  0  0  0  0
   11.6471  -16.8325   25.4523 O   0  0  0  0  0  0  0  0  0  0  0  0
    9.5300  -16.7897   26.2583 N   0  0  0  0  0  0  0  0  0  0  0  0
    9.9692  -16.2775   27.5582 C   0  0  1  0  0  0  0  0  0  0  0  0
    8.8733  -15.5836   28.2658 C   0  0  0  0  0  0  0  0  0  0  0  0
    7.8941  -14.9791   27.3572 C   0  0  0  0  0  0  0  0  0  0  0  0
    6.8767  -15.6435   26.6566 C   0  0  0  0  0  0  0  0  0  0  0  0
    6.2030  -14.7712   25.8885 N   0  0  0  0  0  0  0  0  0  0  0  0
    6.7240  -13.5368   26.0413 C   0  0  0  0  0  0  0  0  0  0  0  0
    6.3471  -12.3241   25.4681 C   0  0  0  0  0  0  0  0  0  0  0  0
    7.0703  -11.2127   25.8461 C   0  0  0  0  0  0  0  0  0  0  0  0
    8.1088  -11.2970   26.7418 C   0  0  0  0  0  0  0  0  0  0  0  0
    8.4547  -12.5053   27.2864 C   0  0  0  0  0  0  0  0  0  0  0  0
    7.7636  -13.6545   26.9423 C   0  0  0  0  0  0  0  0  0  0  0  0
   10.6555  -17.2751   28.3699 C   0  0  0  0  0  0  0  0  0  0  0  0
   10.6121  -18.4889   28.0643 O   0  0  0  0  0  0  0  0  0  0  0  0
   11.3994  -16.9735   29.5252 O   0  0  0  0  0  0  0  0  0  0  0  0
  2  1  1  6
  2  3  1  0
  4  5  2  0
  4  3  1  0
  6  5  1  0
  7  8  2  0
  7  6  1  0
  8  4  1  0
  9  2  1  0
 10  9  2  0
 11  9  1  0
 12 11  1  0
 12 13  1  1
 14 13  1  0
 14 18  1  0
 15 14  2  0
 16 15  1  0
 16 17  1  0
 17 18  2  0
 19 21  1  0
 19 12  1  0
 20 19  2  0
 22 33  1  0
 22 21  1  0
 22 23  1  1
 24 23  1  0
 24 32  1  0
 25 24  2  0
 26 25  1  0
 26 27  1  0
 27 28  1  0
 27 32  2  0
 28 29  2  0
 29 30  1  0
 31 30  2  0
 32 31  1  0
 33 35  1  0
 34 33  2  0
M  END
$$$$
