HHW.pdb
     RDKit          3D

 35 38  0  0  1  0  0  0  0  0999 V2000
   10.1980  -15.5380   18.8554 N   0  0  0  0  0  0  0  0  0  0  0  0
    9.2680  -14.9657   19.7728 C   0  0  1  0  0  0  0  0  0  0  0  0
    7.8531  -14.8940   19.2623 C   0  0  0  0  0  0  0  0  0  0  0  0
    7.7821  -14.4007   17.8645 C   0  0  0  0  0  0  0  0  0  0  0  0
    7.9937  -13.1012   17.4461 C   0  0  0  0  0  0  0  0  0  0  0  0
    7.8351  -13.0866   16.1122 N   0  0  0  0  0  0  0  0  0  0  0  0
    7.5340  -14.3316   15.7012 C   0  0  0  0  0  0  0  0  0  0  0  0
    7.5026  -15.1327   16.7782 N   0  0  0  0  0  0  0  0  0  0  0  0
    9.2350  -15.7394   21.0790 C   0  0  0  0  0  0  0  0  0  0  0  0
    8.3745  -15.4362   21.9200 O   0  0  0  0  0  0  0  0  0  0  0  0
   10.1392  -16.7676   21.3474 N   0  0  0  0  0  0  0  0  0  0  0  0
   10.3349  -17.6139   22.4506 C   0  0  1  0  0  0  0  0  0  0  0  0
   11.2825  -18.7518   22.3795 C   0  0  0  0  0  0  0  0  0  0  0  0
   11.3973  -19.6213   23.5387 C   0  0  0  0  0  0  0  0  0  0  0  0
   12.3309  -19.7763   24.5420 C   0  0  0  0  0  0  0  0  0  0  0  0
   11.9458  -20.8148   25.3001 N   0  0  0  0  0  0  0  0  0  0  0  0
   10.8035  -21.3255   24.8170 C   0  0  0  0  0  0  0  0  0  0  0  0
   10.4731  -20.6080   23.7572 N   0  0  0  0  0  0  0  0  0  0  0  0
   10.3862  -17.0055   23.7789 C   0  0  0  0  0  0  0  0  0  0  0  0
   11.2636  -16.1110   24.0550 O   0  0  0  0  0  0  0  0  0  0  0  0
    9.5206  -17.3130   24.8620 N   0  0  0  0  0  0  0  0  0  0  0  0
    9.6315  -16.6922   26.1838 C   0  0  1  0  0  0  0  0  0  0  0  0
    8.3025  -16.3819   26.7501 C   0  0  0  0  0  0  0  0  0  0  0  0
    7.5592  -15.3924   25.9638 C   0  0  0  0  0  0  0  0  0  0  0  0
    6.8033  -15.6349   24.8074 C   0  0  0  0  0  0  0  0  0  0  0  0
    6.3010  -14.4811   24.3369 N   0  0  0  0  0  0  0  0  0  0  0  0
    6.6865  -13.4620   25.1314 C   0  0  0  0  0  0  0  0  0  0  0  0
    6.3982  -12.1012   25.0524 C   0  0  0  0  0  0  0  0  0  0  0  0
    6.9273  -11.3007   26.0427 C   0  0  0  0  0  0  0  0  0  0  0  0
    7.6988  -11.8185   27.0548 C   0  0  0  0  0  0  0  0  0  0  0  0
    7.9646  -13.1614   27.1027 C   0  0  0  0  0  0  0  0  0  0  0  0
    7.4599  -14.0123   26.1343 C   0  0  0  0  0  0  0  0  0  0  0  0
   10.5031  -17.4246   27.0943 C   0  0  0  0  0  0  0  0  0  0  0  0
   10.7009  -17.0133   28.2606 O   0  0  0  0  0  0  0  0  0  0  0  0
   11.1739  -18.6139   26.7556 O   0  0  0  0  0  0  0  0  0  0  0  0
  2  1  1  6
  2  3  1  0
  4  5  2  0
  4  3  1  0
  6  5  1  0
  7  8  2  0
  7  6  1  0
  8  4  1  0
  9  2  1  0
 10  9  2  0
 11  9  1  0
 12 11  1  0
 12 13  1  6
 14 13  1  0
 14 18  1  0
 15 14  2  0
 16 15  1  0
 16 17  1  0
 17 18  2  0
 19 21  1  0
 19 12  1  0
 20 19  2  0
 22 33  1  0
 22 21  1  0
 22 23  1  1
 24 23  1  0
 24 32  1  0
 25 24  2  0
 26 25  1  0
 26 27  1  0
 27 28  1  0
 27 32  2  0
 28 29  2  0
 29 30  1  0
 31 30  2  0
 32 31  1  0
 33 35  1  0
 34 33  2  0
M  END
$$$$
