HHW.pdb
     RDKit          3D

 35 38  0  0  1  0  0  0  0  0999 V2000
    9.9978  -15.9786   18.5538 N   0  0  0  0  0  0  0  0  0  0  0  0
    8.8284  -15.4142   19.1437 C   0  0  1  0  0  0  0  0  0  0  0  0
    7.5868  -15.5302   18.2996 C   0  0  0  0  0  0  0  0  0  0  0  0
    7.6575  -14.6953   17.0747 C   0  0  0  0  0  0  0  0  0  0  0  0
    8.7267  -13.9146   16.6800 C   0  0  0  0  0  0  0  0  0  0  0  0
    8.3799  -13.3291   15.5218 N   0  0  0  0  0  0  0  0  0  0  0  0
    7.1364  -13.7247   15.1951 C   0  0  0  0  0  0  0  0  0  0  0  0
    6.6983  -14.5614   16.1495 N   0  0  0  0  0  0  0  0  0  0  0  0
    8.5214  -16.0583   20.4842 C   0  0  0  0  0  0  0  0  0  0  0  0
    7.5252  -15.6649   21.1107 O   0  0  0  0  0  0  0  0  0  0  0  0
    9.3249  -17.0673   21.0161 N   0  0  0  0  0  0  0  0  0  0  0  0
    9.2980  -17.7832   22.2237 C   0  0  1  0  0  0  0  0  0  0  0  0
    9.4104  -19.2614   22.2359 C   0  0  0  0  0  0  0  0  0  0  0  0
    8.6538  -20.0143   21.2492 C   0  0  0  0  0  0  0  0  0  0  0  0
    7.3194  -20.0946   20.9098 C   0  0  0  0  0  0  0  0  0  0  0  0
    7.1951  -21.0415   19.9667 N   0  0  0  0  0  0  0  0  0  0  0  0
    8.3991  -21.5660   19.6941 C   0  0  0  0  0  0  0  0  0  0  0  0
    9.2771  -20.9485   20.4654 N   0  0  0  0  0  0  0  0  0  0  0  0
   10.0113  -17.2201   23.3688 C   0  0  0  0  0  0  0  0  0  0  0  0
   11.2507  -16.9018   23.2751 O   0  0  0  0  0  0  0  0  0  0  0  0
    9.4509  -16.9714   24.6498 N   0  0  0  0  0  0  0  0  0  0  0  0
   10.2089  -16.3974   25.7637 C   0  0  1  0  0  0  0  0  0  0  0  0
    9.8691  -14.9750   25.9746 C   0  0  0  0  0  0  0  0  0  0  0  0
    8.4271  -14.7408   26.1002 C   0  0  0  0  0  0  0  0  0  0  0  0
    7.4082  -15.6983   25.9897 C   0  0  0  0  0  0  0  0  0  0  0  0
    6.2080  -15.1088   26.1197 N   0  0  0  0  0  0  0  0  0  0  0  0
    6.3727  -13.7849   26.3157 C   0  0  0  0  0  0  0  0  0  0  0  0
    5.4278  -12.7812   26.5184 C   0  0  0  0  0  0  0  0  0  0  0  0
    5.9155  -11.5068   26.7165 C   0  0  0  0  0  0  0  0  0  0  0  0
    7.2634  -11.2406   26.7141 C   0  0  0  0  0  0  0  0  0  0  0  0
    8.1664  -12.2504   26.5106 C   0  0  0  0  0  0  0  0  0  0  0  0
    7.7332  -13.5492   26.3057 C   0  0  0  0  0  0  0  0  0  0  0  0
   10.1510  -17.2029   26.9773 C   0  0  0  0  0  0  0  0  0  0  0  0
    9.3488  -18.1599   27.0726 O   0  0  0  0  0  0  0  0  0  0  0  0
   10.9610  -16.9842   28.1065 O   0  0  0  0  0  0  0  0  0  0  0  0
  2  1  1  6
  2  3  1  0
  4  5  2  0
  4  3  1  0
  6  5  1  0
  7  8  2  0
  7  6  1  0
  8  4  1  0
  9  2  1  0
 10  9  2  0
 11  9  1  0
 12 11  1  0
 12 13  1  6
 14 13  1  0
 14 18  1  0
 15 14  2  0
 16 15  1  0
 16 17  1  0
 17 18  2  0
 19 21  1  0
 19 12  1  0
 20 19  2  0
 22 33  1  0
 22 21  1  0
 22 23  1  1
 24 23  1  0
 24 32  1  0
 25 24  2  0
 26 25  1  0
 26 27  1  0
 27 28  1  0
 27 32  2  0
 28 29  2  0
 29 30  1  0
 31 30  2  0
 32 31  1  0
 33 35  1  0
 34 33  2  0
M  END
$$$$
