HHW.pdb
     RDKit          3D

 35 38  0  0  1  0  0  0  0  0999 V2000
   10.1427  -15.3536   19.8007 N   0  0  0  0  0  0  0  0  0  0  0  0
    9.2025  -14.8475   20.7460 C   0  0  1  0  0  0  0  0  0  0  0  0
    7.7882  -14.7652   20.2353 C   0  0  0  0  0  0  0  0  0  0  0  0
    7.7136  -14.1809   18.8732 C   0  0  0  0  0  0  0  0  0  0  0  0
    7.9808  -12.8691   18.5323 C   0  0  0  0  0  0  0  0  0  0  0  0
    7.7961  -12.7619   17.2060 N   0  0  0  0  0  0  0  0  0  0  0  0
    7.4256  -13.9621   16.7248 C   0  0  0  0  0  0  0  0  0  0  0  0
    7.3763  -14.8278   17.7499 N   0  0  0  0  0  0  0  0  0  0  0  0
    9.1760  -15.6955   22.0055 C   0  0  0  0  0  0  0  0  0  0  0  0
    8.1857  -15.6133   22.7486 O   0  0  0  0  0  0  0  0  0  0  0  0
   10.2269  -16.5511   22.3377 N   0  0  0  0  0  0  0  0  0  0  0  0
   10.5015  -17.3473   23.4612 C   0  0  1  0  0  0  0  0  0  0  0  0
   11.4815  -18.4574   23.3873 C   0  0  0  0  0  0  0  0  0  0  0  0
   11.4511  -19.3216   22.2189 C   0  0  0  0  0  0  0  0  0  0  0  0
   10.5201  -20.1839   21.6785 C   0  0  0  0  0  0  0  0  0  0  0  0
   11.0892  -20.7893   20.6243 N   0  0  0  0  0  0  0  0  0  0  0  0
   12.3458  -20.3448   20.4744 C   0  0  0  0  0  0  0  0  0  0  0  0
   12.5642  -19.4619   21.4335 N   0  0  0  0  0  0  0  0  0  0  0  0
   10.5949  -16.6864   24.7618 C   0  0  0  0  0  0  0  0  0  0  0  0
   11.4356  -15.7363   24.9536 O   0  0  0  0  0  0  0  0  0  0  0  0
    9.8112  -16.9978   25.9044 N   0  0  0  0  0  0  0  0  0  0  0  0
    9.9346  -16.2938   27.1827 C   0  0  1  0  0  0  0  0  0  0  0  0
    8.6106  -15.9800   27.7587 C   0  0  0  0  0  0  0  0  0  0  0  0
    7.7088  -15.3266   26.8049 C   0  0  0  0  0  0  0  0  0  0  0  0
    6.7578  -15.9515   25.9851 C   0  0  0  0  0  0  0  0  0  0  0  0
    6.1472  -15.0383   25.2118 N   0  0  0  0  0  0  0  0  0  0  0  0
    6.6471  -13.8142   25.4759 C   0  0  0  0  0  0  0  0  0  0  0  0
    6.3140  -12.5717   24.9405 C   0  0  0  0  0  0  0  0  0  0  0  0
    6.9970  -11.4827   25.4391 C   0  0  0  0  0  0  0  0  0  0  0  0
    7.9563  -11.6160   26.4137 C   0  0  0  0  0  0  0  0  0  0  0  0
    8.2609  -12.8525   26.9183 C   0  0  0  0  0  0  0  0  0  0  0  0
    7.6073  -13.9811   26.4541 C   0  0  0  0  0  0  0  0  0  0  0  0
   10.8430  -16.9477   28.1166 C   0  0  0  0  0  0  0  0  0  0  0  0
   11.1132  -16.4222   29.2209 O   0  0  0  0  0  0  0  0  0  0  0  0
   11.4728  -18.1810   27.8689 O   0  0  0  0  0  0  0  0  0  0  0  0
  2  1  1  6
  2  3  1  0
  4  5  2  0
  4  3  1  0
  6  5  1  0
  7  8  2  0
  7  6  1  0
  8  4  1  0
  9  2  1  0
 10  9  2  0
 11  9  1  0
 12 11  1  0
 12 13  1  6
 14 13  1  0
 14 18  1  0
 15 14  2  0
 16 15  1  0
 16 17  1  0
 17 18  2  0
 19 21  1  0
 19 12  1  0
 20 19  2  0
 22 33  1  0
 22 21  1  0
 22 23  1  1
 24 23  1  0
 24 32  1  0
 25 24  2  0
 26 25  1  0
 26 27  1  0
 27 28  1  0
 27 32  2  0
 28 29  2  0
 29 30  1  0
 31 30  2  0
 32 31  1  0
 33 35  1  0
 34 33  2  0
M  END
$$$$
