HHW.pdb
     RDKit          3D

 35 38  0  0  1  0  0  0  0  0999 V2000
    9.0103  -16.5980   19.3619 N   0  0  0  0  0  0  0  0  0  0  0  0
    9.1169  -15.6917   20.4579 C   0  0  1  0  0  0  0  0  0  0  0  0
    8.0967  -14.5840   20.4518 C   0  0  0  0  0  0  0  0  0  0  0  0
    8.0562  -13.8616   19.1561 C   0  0  0  0  0  0  0  0  0  0  0  0
    8.8859  -12.8253   18.7735 C   0  0  0  0  0  0  0  0  0  0  0  0
    8.5150  -12.4614   17.5347 N   0  0  0  0  0  0  0  0  0  0  0  0
    7.4880  -13.2390   17.1472 C   0  0  0  0  0  0  0  0  0  0  0  0
    7.2107  -14.0949   18.1438 N   0  0  0  0  0  0  0  0  0  0  0  0
    8.9855  -16.4153   21.7864 C   0  0  0  0  0  0  0  0  0  0  0  0
    7.8840  -16.3998   22.3576 O   0  0  0  0  0  0  0  0  0  0  0  0
   10.0620  -17.0860   22.3678 N   0  0  0  0  0  0  0  0  0  0  0  0
   10.2086  -17.8275   23.5511 C   0  0  1  0  0  0  0  0  0  0  0  0
   10.9302  -19.1226   23.5545 C   0  0  0  0  0  0  0  0  0  0  0  0
   10.8877  -19.9275   24.7641 C   0  0  0  0  0  0  0  0  0  0  0  0
   10.3411  -19.7583   26.0190 C   0  0  0  0  0  0  0  0  0  0  0  0
   10.7044  -20.8118   26.7672 N   0  0  0  0  0  0  0  0  0  0  0  0
   11.4608  -21.6437   26.0358 C   0  0  0  0  0  0  0  0  0  0  0  0
   11.5715  -21.1123   24.8307 N   0  0  0  0  0  0  0  0  0  0  0  0
   10.4910  -17.0970   24.7856 C   0  0  0  0  0  0  0  0  0  0  0  0
   11.4883  -16.2929   24.8561 O   0  0  0  0  0  0  0  0  0  0  0  0
    9.7386  -17.1838   25.9869 N   0  0  0  0  0  0  0  0  0  0  0  0
   10.0425  -16.4009   27.1868 C   0  0  1  0  0  0  0  0  0  0  0  0
    8.8113  -15.9978   27.8972 C   0  0  0  0  0  0  0  0  0  0  0  0
    7.8042  -15.4051   27.0115 C   0  0  0  0  0  0  0  0  0  0  0  0
    6.8250  -16.0896   26.2768 C   0  0  0  0  0  0  0  0  0  0  0  0
    6.1086  -15.2201   25.5450 N   0  0  0  0  0  0  0  0  0  0  0  0
    6.5637  -13.9684   25.7553 C   0  0  0  0  0  0  0  0  0  0  0  0
    6.1254  -12.7525   25.2349 C   0  0  0  0  0  0  0  0  0  0  0  0
    6.7884  -11.6230   25.6659 C   0  0  0  0  0  0  0  0  0  0  0  0
    7.8274  -11.6930   26.5622 C   0  0  0  0  0  0  0  0  0  0  0  0
    8.2346  -12.9048   27.0541 C   0  0  0  0  0  0  0  0  0  0  0  0
    7.6056  -14.0719   26.6555 C   0  0  0  0  0  0  0  0  0  0  0  0
   11.0405  -17.0256   28.0463 C   0  0  0  0  0  0  0  0  0  0  0  0
   11.4718  -16.4330   29.0618 O   0  0  0  0  0  0  0  0  0  0  0  0
   11.5869  -18.3019   27.8191 O   0  0  0  0  0  0  0  0  0  0  0  0
  2  1  1  6
  2  3  1  0
  4  5  2  0
  4  3  1  0
  6  5  1  0
  7  8  2  0
  7  6  1  0
  8  4  1  0
  9  2  1  0
 10  9  2  0
 11  9  1  0
 12 11  1  0
 12 13  1  6
 14 13  1  0
 14 18  1  0
 15 14  2  0
 16 15  1  0
 16 17  1  0
 17 18  2  0
 19 21  1  0
 19 12  1  0
 20 19  2  0
 22 33  1  0
 22 21  1  0
 22 23  1  1
 24 23  1  0
 24 32  1  0
 25 24  2  0
 26 25  1  0
 26 27  1  0
 27 28  1  0
 27 32  2  0
 28 29  2  0
 29 30  1  0
 31 30  2  0
 32 31  1  0
 33 35  1  0
 34 33  2  0
M  END
$$$$
