HHW.pdb
     RDKit          3D

 35 38  0  0  1  0  0  0  0  0999 V2000
   10.3589  -15.3003   19.1131 N   0  0  0  0  0  0  0  0  0  0  0  0
    9.0927  -15.2127   19.7635 C   0  0  1  0  0  0  0  0  0  0  0  0
    7.9220  -15.6120   18.9046 C   0  0  0  0  0  0  0  0  0  0  0  0
    7.8310  -14.8030   17.6638 C   0  0  0  0  0  0  0  0  0  0  0  0
    8.6898  -14.8666   16.5835 C   0  0  0  0  0  0  0  0  0  0  0  0
    8.2516  -13.9746   15.6796 N   0  0  0  0  0  0  0  0  0  0  0  0
    7.1554  -13.3683   16.1699 C   0  0  0  0  0  0  0  0  0  0  0  0
    6.9020  -13.8792   17.3854 N   0  0  0  0  0  0  0  0  0  0  0  0
    9.0517  -16.0803   21.0092 C   0  0  0  0  0  0  0  0  0  0  0  0
    7.9755  -16.1836   21.6182 O   0  0  0  0  0  0  0  0  0  0  0  0
   10.1825  -16.7523   21.4745 N   0  0  0  0  0  0  0  0  0  0  0  0
   10.4274  -17.5634   22.5942 C   0  0  1  0  0  0  0  0  0  0  0  0
   11.4868  -18.6003   22.5669 C   0  0  0  0  0  0  0  0  0  0  0  0
   11.5634  -19.4712   21.4055 C   0  0  0  0  0  0  0  0  0  0  0  0
   10.6988  -19.7936   20.3805 C   0  0  0  0  0  0  0  0  0  0  0  0
   11.2887  -20.7388   19.6320 N   0  0  0  0  0  0  0  0  0  0  0  0
   12.4946  -21.0293   20.1422 C   0  0  0  0  0  0  0  0  0  0  0  0
   12.6605  -20.2671   21.2093 N   0  0  0  0  0  0  0  0  0  0  0  0
   10.3751  -16.9397   23.9153 C   0  0  0  0  0  0  0  0  0  0  0  0
   10.9647  -15.8215   24.1344 O   0  0  0  0  0  0  0  0  0  0  0  0
    9.7037  -17.4658   25.0507 N   0  0  0  0  0  0  0  0  0  0  0  0
    9.6822  -16.7998   26.3549 C   0  0  1  0  0  0  0  0  0  0  0  0
    8.3006  -16.6027   26.8402 C   0  0  0  0  0  0  0  0  0  0  0  0
    7.5569  -15.6028   26.0676 C   0  0  0  0  0  0  0  0  0  0  0  0
    6.7269  -15.8427   24.9626 C   0  0  0  0  0  0  0  0  0  0  0  0
    6.2485  -14.6809   24.4869 N   0  0  0  0  0  0  0  0  0  0  0  0
    6.7216  -13.6588   25.2284 C   0  0  0  0  0  0  0  0  0  0  0  0
    6.4877  -12.2892   25.1256 C   0  0  0  0  0  0  0  0  0  0  0  0
    7.1058  -11.4865   26.0610 C   0  0  0  0  0  0  0  0  0  0  0  0
    7.9107  -12.0105   27.0435 C   0  0  0  0  0  0  0  0  0  0  0  0
    8.1211  -13.3621   27.1161 C   0  0  0  0  0  0  0  0  0  0  0  0
    7.5264  -14.2156   26.2026 C   0  0  0  0  0  0  0  0  0  0  0  0
   10.5675  -17.4186   27.3338 C   0  0  0  0  0  0  0  0  0  0  0  0
   11.1885  -18.4712   27.0600 O   0  0  0  0  0  0  0  0  0  0  0  0
   10.7939  -16.9070   28.6245 O   0  0  0  0  0  0  0  0  0  0  0  0
  2  1  1  6
  2  3  1  0
  4  5  2  0
  4  3  1  0
  6  5  1  0
  7  8  2  0
  7  6  1  0
  8  4  1  0
  9  2  1  0
 10  9  2  0
 11  9  1  0
 12 11  1  0
 12 13  1  6
 14 13  1  0
 14 18  1  0
 15 14  2  0
 16 15  1  0
 16 17  1  0
 17 18  2  0
 19 21  1  0
 19 12  1  0
 20 19  2  0
 22 33  1  0
 22 21  1  0
 22 23  1  1
 24 23  1  0
 24 32  1  0
 25 24  2  0
 26 25  1  0
 26 27  1  0
 27 28  1  0
 27 32  2  0
 28 29  2  0
 29 30  1  0
 31 30  2  0
 32 31  1  0
 33 35  1  0
 34 33  2  0
M  END
$$$$
