HHW.pdb
     RDKit          3D

 35 38  0  0  1  0  0  0  0  0999 V2000
    9.4136  -15.4147   18.1363 N   0  0  0  0  0  0  0  0  0  0  0  0
    8.6834  -14.4950   18.9455 C   0  0  1  0  0  0  0  0  0  0  0  0
    7.4198  -13.9750   18.3125 C   0  0  0  0  0  0  0  0  0  0  0  0
    7.5730  -13.7446   16.8544 C   0  0  0  0  0  0  0  0  0  0  0  0
    7.8239  -12.5319   16.2420 C   0  0  0  0  0  0  0  0  0  0  0  0
    7.8901  -12.7649   14.9206 N   0  0  0  0  0  0  0  0  0  0  0  0
    7.6885  -14.0772   14.7045 C   0  0  0  0  0  0  0  0  0  0  0  0
    7.4947  -14.6728   15.8921 N   0  0  0  0  0  0  0  0  0  0  0  0
    8.2956  -15.1179   20.2751 C   0  0  0  0  0  0  0  0  0  0  0  0
    7.7172  -14.4062   21.1110 O   0  0  0  0  0  0  0  0  0  0  0  0
    8.5728  -16.4531   20.5699 N   0  0  0  0  0  0  0  0  0  0  0  0
    8.4001  -17.2410   21.7193 C   0  0  1  0  0  0  0  0  0  0  0  0
    8.0954  -18.6880   21.6125 C   0  0  0  0  0  0  0  0  0  0  0  0
    7.8270  -19.4239   22.8370 C   0  0  0  0  0  0  0  0  0  0  0  0
    6.7593  -19.4960   23.7071 C   0  0  0  0  0  0  0  0  0  0  0  0
    7.1204  -20.2857   24.7306 N   0  0  0  0  0  0  0  0  0  0  0  0
    8.3764  -20.7179   24.5443 C   0  0  0  0  0  0  0  0  0  0  0  0
    8.8022  -20.1997   23.4053 N   0  0  0  0  0  0  0  0  0  0  0  0
    9.2922  -17.0024   22.8526 C   0  0  0  0  0  0  0  0  0  0  0  0
   10.5478  -17.2489   22.7597 O   0  0  0  0  0  0  0  0  0  0  0  0
    8.8994  -16.4976   24.1205 N   0  0  0  0  0  0  0  0  0  0  0  0
    9.8181  -16.3584   25.2526 C   0  0  1  0  0  0  0  0  0  0  0  0
    9.7509  -15.0051   25.8419 C   0  0  0  0  0  0  0  0  0  0  0  0
    8.3941  -14.4496   25.8535 C   0  0  0  0  0  0  0  0  0  0  0  0
    7.1916  -15.1710   25.8839 C   0  0  0  0  0  0  0  0  0  0  0  0
    6.1481  -14.3260   25.8421 N   0  0  0  0  0  0  0  0  0  0  0  0
    6.5961  -13.0555   25.7854 C   0  0  0  0  0  0  0  0  0  0  0  0
    5.8916  -11.8541   25.7464 C   0  0  0  0  0  0  0  0  0  0  0  0
    6.6441  -10.6991   25.7161 C   0  0  0  0  0  0  0  0  0  0  0  0
    8.0177  -10.7315   25.7239 C   0  0  0  0  0  0  0  0  0  0  0  0
    8.6800  -11.9299   25.7615 C   0  0  0  0  0  0  0  0  0  0  0  0
    7.9753  -13.1212   25.7923 C   0  0  0  0  0  0  0  0  0  0  0  0
    9.6966  -17.4329   26.2301 C   0  0  0  0  0  0  0  0  0  0  0  0
   10.5304  -17.5523   27.1571 O   0  0  0  0  0  0  0  0  0  0  0  0
    8.6703  -18.3950   26.2188 O   0  0  0  0  0  0  0  0  0  0  0  0
  2  1  1  6
  2  3  1  0
  4  5  2  0
  4  3  1  0
  6  5  1  0
  7  8  2  0
  7  6  1  0
  8  4  1  0
  9  2  1  0
 10  9  2  0
 11  9  1  0
 12 11  1  0
 12 13  1  6
 14 13  1  0
 14 18  1  0
 15 14  2  0
 16 15  1  0
 16 17  1  0
 17 18  2  0
 19 21  1  0
 19 12  1  0
 20 19  2  0
 22 33  1  0
 22 21  1  0
 22 23  1  1
 24 23  1  0
 24 32  1  0
 25 24  2  0
 26 25  1  0
 26 27  1  0
 27 28  1  0
 27 32  2  0
 28 29  2  0
 29 30  1  0
 31 30  2  0
 32 31  1  0
 33 35  1  0
 34 33  2  0
M  END
$$$$
