HHW.pdb
     RDKit          3D

 35 38  0  0  1  0  0  0  0  0999 V2000
   10.2067  -17.1101   16.2058 N   0  0  0  0  0  0  0  0  0  0  0  0
    9.4977  -15.9948   16.7420 C   0  0  1  0  0  0  0  0  0  0  0  0
    8.2089  -15.6759   16.0315 C   0  0  0  0  0  0  0  0  0  0  0  0
    8.4106  -15.4247   14.5828 C   0  0  0  0  0  0  0  0  0  0  0  0
    8.8132  -14.2340   14.0095 C   0  0  0  0  0  0  0  0  0  0  0  0
    8.8714  -14.4362   12.6827 N   0  0  0  0  0  0  0  0  0  0  0  0
    8.5185  -15.7085   12.4255 C   0  0  0  0  0  0  0  0  0  0  0  0
    8.2371  -16.3098   13.5926 N   0  0  0  0  0  0  0  0  0  0  0  0
    9.1613  -16.2082   18.2073 C   0  0  0  0  0  0  0  0  0  0  0  0
    8.5066  -15.3321   18.7936 O   0  0  0  0  0  0  0  0  0  0  0  0
    9.5679  -17.3515   18.8960 N   0  0  0  0  0  0  0  0  0  0  0  0
    9.3508  -17.8162   20.2031 C   0  0  1  0  0  0  0  0  0  0  0  0
    8.9306  -19.2156   20.4544 C   0  0  0  0  0  0  0  0  0  0  0  0
    7.7724  -19.7225   19.7372 C   0  0  0  0  0  0  0  0  0  0  0  0
    6.7879  -19.1471   18.9613 C   0  0  0  0  0  0  0  0  0  0  0  0
    5.9134  -20.1106   18.6320 N   0  0  0  0  0  0  0  0  0  0  0  0
    6.3045  -21.2760   19.1688 C   0  0  0  0  0  0  0  0  0  0  0  0
    7.4227  -21.0431   19.8339 N   0  0  0  0  0  0  0  0  0  0  0  0
   10.2761  -17.3790   21.2470 C   0  0  0  0  0  0  0  0  0  0  0  0
   11.5411  -17.3605   21.0337 O   0  0  0  0  0  0  0  0  0  0  0  0
    9.9079  -16.9465   22.5486 N   0  0  0  0  0  0  0  0  0  0  0  0
   10.8792  -16.5669   23.5768 C   0  0  1  0  0  0  0  0  0  0  0  0
   10.6690  -15.1779   24.0346 C   0  0  0  0  0  0  0  0  0  0  0  0
    9.2637  -14.8734   24.3214 C   0  0  0  0  0  0  0  0  0  0  0  0
    8.5075  -15.3415   25.4061 C   0  0  0  0  0  0  0  0  0  0  0  0
    7.2463  -14.8877   25.3164 N   0  0  0  0  0  0  0  0  0  0  0  0
    7.1163  -14.1268   24.2107 C   0  0  0  0  0  0  0  0  0  0  0  0
    6.0103  -13.4371   23.7183 C   0  0  0  0  0  0  0  0  0  0  0  0
    6.2001  -12.7162   22.5584 C   0  0  0  0  0  0  0  0  0  0  0  0
    7.4169  -12.6800   21.9213 C   0  0  0  0  0  0  0  0  0  0  0  0
    8.4843  -13.3705   22.4313 C   0  0  0  0  0  0  0  0  0  0  0  0
    8.3511  -14.1118   23.5929 C   0  0  0  0  0  0  0  0  0  0  0  0
   10.9800  -17.5355   24.6615 C   0  0  0  0  0  0  0  0  0  0  0  0
   11.9174  -17.4738   25.4898 O   0  0  0  0  0  0  0  0  0  0  0  0
   10.0670  -18.5861   24.8659 O   0  0  0  0  0  0  0  0  0  0  0  0
  2  1  1  6
  2  3  1  0
  4  5  2  0
  4  3  1  0
  6  5  1  0
  7  8  2  0
  7  6  1  0
  8  4  1  0
  9  2  1  0
 10  9  2  0
 11  9  1  0
 12 11  1  0
 12 13  1  6
 14 13  1  0
 14 18  1  0
 15 14  2  0
 16 15  1  0
 16 17  1  0
 17 18  2  0
 19 21  1  0
 19 12  1  0
 20 19  2  0
 22 33  1  0
 22 21  1  0
 22 23  1  1
 24 23  1  0
 24 32  1  0
 25 24  2  0
 26 25  1  0
 26 27  1  0
 27 28  1  0
 27 32  2  0
 28 29  2  0
 29 30  1  0
 31 30  2  0
 32 31  1  0
 33 35  1  0
 34 33  2  0
M  END
$$$$
