HHW.pdb
     RDKit          3D

 35 38  0  0  1  0  0  0  0  0999 V2000
    9.8435  -15.2339   18.3465 N   0  0  0  0  0  0  0  0  0  0  0  0
    8.7436  -14.6608   19.0505 C   0  0  1  0  0  0  0  0  0  0  0  0
    7.4801  -14.5399   18.2401 C   0  0  0  0  0  0  0  0  0  0  0  0
    7.7536  -14.3092   16.7999 C   0  0  0  0  0  0  0  0  0  0  0  0
    7.5714  -15.2213   15.7785 C   0  0  0  0  0  0  0  0  0  0  0  0
    7.9358  -14.6125   14.6378 N   0  0  0  0  0  0  0  0  0  0  0  0
    8.3341  -13.3605   14.9266 C   0  0  0  0  0  0  0  0  0  0  0  0
    8.2208  -13.1797   16.2522 N   0  0  0  0  0  0  0  0  0  0  0  0
    8.4045  -15.4656   20.2928 C   0  0  0  0  0  0  0  0  0  0  0  0
    7.4146  -15.1273   20.9601 O   0  0  0  0  0  0  0  0  0  0  0  0
    9.1724  -16.5601   20.6918 N   0  0  0  0  0  0  0  0  0  0  0  0
    9.1576  -17.3828   21.8295 C   0  0  1  0  0  0  0  0  0  0  0  0
    9.3647  -18.8464   21.7143 C   0  0  0  0  0  0  0  0  0  0  0  0
    8.4801  -19.5967   20.8382 C   0  0  0  0  0  0  0  0  0  0  0  0
    7.3319  -19.2956   20.1360 C   0  0  0  0  0  0  0  0  0  0  0  0
    6.8954  -20.4285   19.5636 N   0  0  0  0  0  0  0  0  0  0  0  0
    7.7221  -21.4377   19.8753 C   0  0  0  0  0  0  0  0  0  0  0  0
    8.6757  -20.9379   20.6422 N   0  0  0  0  0  0  0  0  0  0  0  0
    9.8006  -16.8831   23.0436 C   0  0  0  0  0  0  0  0  0  0  0  0
   10.8342  -16.1264   22.9720 O   0  0  0  0  0  0  0  0  0  0  0  0
    9.3827  -17.1585   24.3725 N   0  0  0  0  0  0  0  0  0  0  0  0
    9.9080  -16.4554   25.5449 C   0  0  1  0  0  0  0  0  0  0  0  0
    9.7014  -14.9961   25.4394 C   0  0  0  0  0  0  0  0  0  0  0  0
    8.2964  -14.6025   25.5834 C   0  0  0  0  0  0  0  0  0  0  0  0
    7.1720  -15.4200   25.3974 C   0  0  0  0  0  0  0  0  0  0  0  0
    6.0492  -14.7037   25.5740 N   0  0  0  0  0  0  0  0  0  0  0  0
    6.3682  -13.4285   25.8745 C   0  0  0  0  0  0  0  0  0  0  0  0
    5.5474  -12.3385   26.1565 C   0  0  0  0  0  0  0  0  0  0  0  0
    6.1812  -11.1509   26.4551 C   0  0  0  0  0  0  0  0  0  0  0  0
    7.5511  -11.0479   26.4736 C   0  0  0  0  0  0  0  0  0  0  0  0
    8.3295  -12.1389   26.1904 C   0  0  0  0  0  0  0  0  0  0  0  0
    7.7471  -13.3566   25.8830 C   0  0  0  0  0  0  0  0  0  0  0  0
    9.4572  -17.0240   26.8092 C   0  0  0  0  0  0  0  0  0  0  0  0
    8.5505  -17.8876   26.8355 O   0  0  0  0  0  0  0  0  0  0  0  0
    9.9815  -16.6661   28.0646 O   0  0  0  0  0  0  0  0  0  0  0  0
  2  1  1  6
  2  3  1  0
  4  5  2  0
  4  3  1  0
  6  5  1  0
  7  8  2  0
  7  6  1  0
  8  4  1  0
  9  2  1  0
 10  9  2  0
 11  9  1  0
 12 11  1  0
 12 13  1  6
 14 13  1  0
 14 18  1  0
 15 14  2  0
 16 15  1  0
 16 17  1  0
 17 18  2  0
 19 21  1  0
 19 12  1  0
 20 19  2  0
 22 33  1  0
 22 21  1  0
 22 23  1  6
 24 23  1  0
 24 32  1  0
 25 24  2  0
 26 25  1  0
 26 27  1  0
 27 28  1  0
 27 32  2  0
 28 29  2  0
 29 30  1  0
 31 30  2  0
 32 31  1  0
 33 35  1  0
 34 33  2  0
M  END
$$$$
