RLR.pdb
     RDKit          3D

 31 30  0  0  1  0  0  0  0  0999 V2000
   30.6793  -18.6709  -19.1260 N   0  0  0  0  0  0  0  0  0  0  0  0
   29.7833  -17.5480  -19.0563 C   0  0  0  0  0  0  0  0  0  0  0  0
   29.9527  -16.5537  -19.8416 N   0  0  0  0  0  0  0  0  0  0  0  0
   28.7096  -17.5088  -18.1361 N   0  0  0  0  0  0  0  0  0  0  0  0
   28.4811  -18.5164  -17.1228 C   0  0  0  0  0  0  0  0  0  0  0  0
   27.7497  -19.7053  -17.6526 C   0  0  0  0  0  0  0  0  0  0  0  0
   26.7034  -20.2726  -16.7571 C   0  0  0  0  0  0  0  0  0  0  0  0
   27.1324  -21.4754  -15.9602 C   0  0  2  0  0  0  0  0  0  0  0  0
   27.4725  -22.6203  -16.7692 N   0  0  0  0  0  0  0  0  0  0  0  0
   26.1606  -21.8112  -14.8950 C   0  0  0  0  0  0  0  0  0  0  0  0
   25.3914  -22.7662  -15.0388 O   0  0  0  0  0  0  0  0  0  0  0  0
   29.3249  -15.7224  -19.8032 C   0  0  0  0  0  0  0  0  0  0  0  0
   24.4478  -21.7116   -9.6186 C   0  0  2  0  0  0  0  0  0  0  0  0
   24.7113  -20.3981  -10.3145 C   0  0  0  0  0  0  0  0  0  0  0  0
   25.4174  -19.5156   -9.2692 C   0  0  0  0  0  0  0  0  0  0  0  0
   25.6121  -20.5948  -11.4599 C   0  0  1  0  0  0  0  0  0  0  0  0
   25.0582  -21.0914  -12.7388 N   0  0  0  0  0  0  0  0  0  0  0  0
   26.1039  -21.0593  -13.7276 C   0  0  0  0  0  0  0  0  0  0  0  0
   23.7602  -20.6151  -13.1695 O   0  0  0  0  0  0  0  0  0  0  0  0
   23.3591  -19.4051  -13.0242 N   0  0  0  0  0  0  0  0  0  0  0  0
   18.7063  -25.8138  -12.7101 C   0  0  0  0  0  0  0  0  0  0  0  0
   17.5757  -25.1565  -12.1797 N   0  0  0  0  0  0  0  0  0  0  0  0
   16.4171  -25.6662  -12.3635 N   0  0  0  0  0  0  0  0  0  0  0  0
   17.7545  -23.9586  -11.4621 C   0  0  0  0  0  0  0  0  0  0  0  0
   19.1127  -23.5015  -11.1836 C   0  0  0  0  0  0  0  0  0  0  0  0
   19.4886  -22.3682  -12.0790 C   0  0  0  0  0  0  0  0  0  0  0  0
   20.8898  -22.3971  -12.5334 C   0  0  1  0  0  0  0  0  0  0  0  0
   21.3602  -21.3691  -13.4852 N   0  0  0  0  0  0  0  0  0  0  0  0
   22.7728  -21.4193  -13.8053 C   0  0  0  0  0  0  0  0  0  0  0  0
   20.9646  -19.9970  -13.1301 O   0  0  0  0  0  0  0  0  0  0  0  0
   19.7337  -19.7298  -12.9951 O   0  0  0  0  0  0  0  0  0  0  0  0
  2  1  1  0
  2  3  2  0
  4  2  1  0
  5  4  1  0
  6  5  1  0
  7  6  1  0
  8  7  1  0
  8  9  1  6
 10  8  1  0
 10 11  2  0
 13 12  1  1
 14 13  1  0
 16 15  1  1
 15 13  1  0
 17 16  1  0
 17 10  1  0
 18 16  1  0
 19 18  2  0
 21 20  1  0
 21 22  2  0
 23 21  1  0
 24 23  1  0
 25 24  1  0
 25 26  1  0
 27 26  1  6
 27 28  1  0
 28 18  1  0
 29 31  1  0
 29 27  1  0
 30 29  2  0
M  END
$$$$
