RLR.pdb
     RDKit          3D

 31 30  0  0  1  0  0  0  0  0999 V2000
   28.1535  -23.2259  -16.4740 N   0  0  0  0  0  0  0  0  0  0  0  0
   29.5846  -23.0834  -16.4826 C   0  0  0  0  0  0  0  0  0  0  0  0
   30.3018  -23.9385  -17.1059 N   0  0  0  0  0  0  0  0  0  0  0  0
   30.2303  -22.0159  -15.8158 N   0  0  0  0  0  0  0  0  0  0  0  0
   29.5325  -21.0087  -15.0458 C   0  0  0  0  0  0  0  0  0  0  0  0
   28.8531  -19.9972  -15.9086 C   0  0  0  0  0  0  0  0  0  0  0  0
   27.3654  -20.0640  -15.9345 C   0  0  0  0  0  0  0  0  0  0  0  0
   26.6749  -19.2864  -14.8463 C   0  0  2  0  0  0  0  0  0  0  0  0
   27.5122  -18.2950  -14.2164 N   0  0  0  0  0  0  0  0  0  0  0  0
   26.0193  -20.1744  -13.8596 C   0  0  0  0  0  0  0  0  0  0  0  0
   25.2936  -21.0962  -14.2440 O   0  0  0  0  0  0  0  0  0  0  0  0
   31.3428  -23.8870  -17.0860 C   0  0  0  0  0  0  0  0  0  0  0  0
   28.0653  -20.1516   -8.7432 C   0  0  1  0  0  0  0  0  0  0  0  0
   27.5211  -20.4937  -10.1091 C   0  0  0  0  0  0  0  0  0  0  0  0
   27.8057  -21.9947  -10.2988 C   0  0  0  0  0  0  0  0  0  0  0  0
   26.0678  -20.2741  -10.1533 C   0  0  2  0  0  0  0  0  0  0  0  0
   25.3507  -20.4354  -11.4373 N   0  0  0  0  0  0  0  0  0  0  0  0
   26.2126  -19.9811  -12.4970 C   0  0  0  0  0  0  0  0  0  0  0  0
   23.9660  -20.0198  -11.5210 O   0  0  0  0  0  0  0  0  0  0  0  0
   23.5884  -18.8803  -11.9737 N   0  0  0  0  0  0  0  0  0  0  0  0
   20.2642  -20.4168  -17.9231 C   0  0  0  0  0  0  0  0  0  0  0  0
   19.0882  -20.8907  -17.3032 N   0  0  0  0  0  0  0  0  0  0  0  0
   17.9593  -20.6759  -17.8650 N   0  0  0  0  0  0  0  0  0  0  0  0
   19.1903  -21.5876  -16.0842 C   0  0  0  0  0  0  0  0  0  0  0  0
   20.4771  -21.6150  -15.3953 C   0  0  0  0  0  0  0  0  0  0  0  0
   20.3263  -21.2106  -13.9666 C   0  0  0  0  0  0  0  0  0  0  0  0
   21.5936  -21.1585  -13.2171 C   0  0  1  0  0  0  0  0  0  0  0  0
   21.5688  -20.8026  -11.7829 N   0  0  0  0  0  0  0  0  0  0  0  0
   22.8564  -20.8148  -11.1178 C   0  0  0  0  0  0  0  0  0  0  0  0
   20.5791  -21.5546  -10.9954 O   0  0  0  0  0  0  0  0  0  0  0  0
   20.9846  -22.3130  -10.0653 O   0  0  0  0  0  0  0  0  0  0  0  0
  2  1  1  0
  2  3  2  0
  4  2  1  0
  5  4  1  0
  6  5  1  0
  7  6  1  0
  8  7  1  0
  8  9  1  1
 10  8  1  0
 10 11  2  0
 13 12  1  6
 14 13  1  0
 16 15  1  6
 15 13  1  0
 17 16  1  0
 17 10  1  0
 18 16  1  0
 19 18  2  0
 21 20  1  0
 21 22  2  0
 23 21  1  0
 24 23  1  0
 25 24  1  0
 25 26  1  0
 27 26  1  6
 27 28  1  0
 28 18  1  0
 29 31  1  0
 29 27  1  0
 30 29  2  0
M  END
$$$$
