RLR.pdb
     RDKit          3D

 31 30  0  0  1  0  0  0  0  0999 V2000
   22.4190  -26.8071  -14.3445 N   0  0  0  0  0  0  0  0  0  0  0  0
   21.0357  -26.4479  -14.5058 C   0  0  0  0  0  0  0  0  0  0  0  0
   20.1240  -27.2970  -14.2196 N   0  0  0  0  0  0  0  0  0  0  0  0
   20.6484  -25.1714  -14.9764 N   0  0  0  0  0  0  0  0  0  0  0  0
   21.5543  -24.0493  -15.0970 C   0  0  0  0  0  0  0  0  0  0  0  0
   22.0062  -23.5335  -13.7708 C   0  0  0  0  0  0  0  0  0  0  0  0
   23.1591  -22.5910  -13.8022 C   0  0  0  0  0  0  0  0  0  0  0  0
   23.5230  -21.9867  -12.4725 C   0  0  2  0  0  0  0  0  0  0  0  0
   22.3891  -21.5130  -11.7171 N   0  0  0  0  0  0  0  0  0  0  0  0
   24.5798  -20.9578  -12.6007 C   0  0  0  0  0  0  0  0  0  0  0  0
   24.2802  -19.7601  -12.5950 O   0  0  0  0  0  0  0  0  0  0  0  0
   19.1170  -27.0840  -14.3842 C   0  0  0  0  0  0  0  0  0  0  0  0
   29.7418  -21.9968  -10.9046 C   0  0  1  0  0  0  0  0  0  0  0  0
   28.3763  -21.4242  -11.1987 C   0  0  0  0  0  0  0  0  0  0  0  0
   28.2799  -20.1410  -10.3536 C   0  0  0  0  0  0  0  0  0  0  0  0
   28.2634  -21.0685  -12.6210 C   0  0  2  0  0  0  0  0  0  0  0  0
   27.0042  -20.4730  -13.1199 N   0  0  0  0  0  0  0  0  0  0  0  0
   25.9136  -21.3269  -12.7279 C   0  0  0  0  0  0  0  0  0  0  0  0
   26.9604  -19.9665  -14.4759 O   0  0  0  0  0  0  0  0  0  0  0  0
   26.7629  -20.7034  -15.5075 N   0  0  0  0  0  0  0  0  0  0  0  0
   21.3813  -14.6837  -16.9997 C   0  0  0  0  0  0  0  0  0  0  0  0
   21.5598  -16.0491  -16.6903 N   0  0  0  0  0  0  0  0  0  0  0  0
   20.5784  -16.7100  -16.2045 N   0  0  0  0  0  0  0  0  0  0  0  0
   22.8128  -16.6461  -16.9261 C   0  0  0  0  0  0  0  0  0  0  0  0
   23.9164  -15.8076  -17.3846 C   0  0  0  0  0  0  0  0  0  0  0  0
   25.1865  -16.5881  -17.4542 C   0  0  0  0  0  0  0  0  0  0  0  0
   25.5614  -17.2449  -16.1898 C   0  0  1  0  0  0  0  0  0  0  0  0
   26.7935  -18.0595  -16.1383 N   0  0  0  0  0  0  0  0  0  0  0  0
   27.1267  -18.5994  -14.8353 C   0  0  0  0  0  0  0  0  0  0  0  0
   27.9687  -17.4080  -16.7379 O   0  0  0  0  0  0  0  0  0  0  0  0
   28.8900  -16.9865  -15.9776 O   0  0  0  0  0  0  0  0  0  0  0  0
  2  1  1  0
  2  3  2  0
  4  2  1  0
  5  4  1  0
  6  5  1  0
  7  6  1  0
  8  7  1  0
  8  9  1  6
 10  8  1  0
 10 11  2  0
 13 12  1  1
 14 13  1  0
 16 15  1  1
 15 13  1  0
 17 16  1  0
 17 10  1  0
 18 16  1  0
 19 18  2  0
 21 20  1  0
 21 22  2  0
 23 21  1  0
 24 23  1  0
 25 24  1  0
 25 26  1  0
 27 26  1  6
 27 28  1  0
 28 18  1  0
 29 31  1  0
 29 27  1  0
 30 29  2  0
M  END
$$$$
