RLR.pdb
     RDKit          3D

 31 30  0  0  1  0  0  0  0  0999 V2000
   28.4012  -18.0904  -19.5956 N   0  0  0  0  0  0  0  0  0  0  0  0
   27.0840  -18.1055  -19.0183 C   0  0  0  0  0  0  0  0  0  0  0  0
   26.0590  -18.0395  -19.7793 N   0  0  0  0  0  0  0  0  0  0  0  0
   26.8850  -18.1914  -17.6204 N   0  0  0  0  0  0  0  0  0  0  0  0
   27.9347  -18.5094  -16.6764 C   0  0  0  0  0  0  0  0  0  0  0  0
   27.8537  -19.9162  -16.1827 C   0  0  0  0  0  0  0  0  0  0  0  0
   26.9410  -20.1447  -15.0281 C   0  0  0  0  0  0  0  0  0  0  0  0
   26.9090  -21.5587  -14.5129 C   0  0  2  0  0  0  0  0  0  0  0  0
   26.5480  -22.5354  -15.5112 N   0  0  0  0  0  0  0  0  0  0  0  0
   26.0910  -21.6841  -13.2853 C   0  0  0  0  0  0  0  0  0  0  0  0
   25.1717  -22.5068  -13.2366 O   0  0  0  0  0  0  0  0  0  0  0  0
   25.0936  -18.1068  -19.3917 C   0  0  0  0  0  0  0  0  0  0  0  0
   26.6697  -19.8427   -7.6339 C   0  0  2  0  0  0  0  0  0  0  0  0
   26.2863  -21.0608   -8.4391 C   0  0  0  0  0  0  0  0  0  0  0  0
   24.7493  -21.1247   -8.3779 C   0  0  0  0  0  0  0  0  0  0  0  0
   26.7021  -20.9025   -9.8405 C   0  0  2  0  0  0  0  0  0  0  0  0
   25.6775  -20.9379  -10.9073 N   0  0  0  0  0  0  0  0  0  0  0  0
   26.3475  -20.8815  -12.1802 C   0  0  0  0  0  0  0  0  0  0  0  0
   24.4986  -20.1079  -10.7713 O   0  0  0  0  0  0  0  0  0  0  0  0
   23.7493  -20.0967   -9.7299 N   0  0  0  0  0  0  0  0  0  0  0  0
   19.3106  -21.2678  -15.9504 C   0  0  0  0  0  0  0  0  0  0  0  0
   19.9335  -20.6127  -17.0342 N   0  0  0  0  0  0  0  0  0  0  0  0
   19.2056  -20.1034  -17.9544 N   0  0  0  0  0  0  0  0  0  0  0  0
   21.3388  -20.5368  -17.0718 C   0  0  0  0  0  0  0  0  0  0  0  0
   22.1016  -21.0506  -15.9381 C   0  0  0  0  0  0  0  0  0  0  0  0
   21.8071  -20.2716  -14.6996 C   0  0  0  0  0  0  0  0  0  0  0  0
   22.9926  -19.9763  -13.8762 C   0  0  1  0  0  0  0  0  0  0  0  0
   22.8081  -19.4056  -12.5255 N   0  0  0  0  0  0  0  0  0  0  0  0
   24.0252  -19.2051  -11.7646 C   0  0  0  0  0  0  0  0  0  0  0  0
   21.8046  -20.1076  -11.7097 O   0  0  0  0  0  0  0  0  0  0  0  0
   22.0967  -21.2380  -11.2182 O   0  0  0  0  0  0  0  0  0  0  0  0
  2  1  1  0
  2  3  2  0
  4  2  1  0
  5  4  1  0
  6  5  1  0
  7  6  1  0
  8  7  1  0
  8  9  1  6
 10  8  1  0
 10 11  2  0
 13 12  1  1
 14 13  1  0
 16 15  1  6
 15 13  1  0
 17 16  1  0
 17 10  1  0
 18 16  1  0
 19 18  2  0
 21 20  1  0
 21 22  2  0
 23 21  1  0
 24 23  1  0
 25 24  1  0
 25 26  1  0
 27 26  1  6
 27 28  1  0
 28 18  1  0
 29 31  1  0
 29 27  1  0
 30 29  2  0
M  END
$$$$
