RLR.pdb
     RDKit          3D

 31 30  0  0  1  0  0  0  0  0999 V2000
   22.5483  -19.6173  -20.0081 N   0  0  0  0  0  0  0  0  0  0  0  0
   22.4954  -18.7770  -18.8421 C   0  0  0  0  0  0  0  0  0  0  0  0
   21.3635  -18.3848  -18.3957 N   0  0  0  0  0  0  0  0  0  0  0  0
   23.6686  -18.3663  -18.1668 N   0  0  0  0  0  0  0  0  0  0  0  0
   25.0074  -18.6912  -18.6098 C   0  0  0  0  0  0  0  0  0  0  0  0
   25.8283  -19.3236  -17.5349 C   0  0  0  0  0  0  0  0  0  0  0  0
   25.0661  -20.0555  -16.4852 C   0  0  0  0  0  0  0  0  0  0  0  0
   25.9073  -20.6571  -15.3915 C   0  0  2  0  0  0  0  0  0  0  0  0
   26.9094  -21.5796  -15.8667 N   0  0  0  0  0  0  0  0  0  0  0  0
   25.0797  -21.2377  -14.3100 C   0  0  0  0  0  0  0  0  0  0  0  0
   24.7104  -22.4139  -14.3780 O   0  0  0  0  0  0  0  0  0  0  0  0
   21.2997  -17.7233  -17.5926 C   0  0  0  0  0  0  0  0  0  0  0  0
   26.0997  -19.4899   -9.2654 C   0  0  2  0  0  0  0  0  0  0  0  0
   25.8106  -20.3374  -10.4808 C   0  0  0  0  0  0  0  0  0  0  0  0
   26.0623  -21.7897  -10.0364 C   0  0  0  0  0  0  0  0  0  0  0  0
   24.4028  -20.1981  -10.8816 C   0  0  2  0  0  0  0  0  0  0  0  0
   23.9215  -20.9037  -12.0897 N   0  0  0  0  0  0  0  0  0  0  0  0
   24.7113  -20.4694  -13.2121 C   0  0  0  0  0  0  0  0  0  0  0  0
   22.4949  -21.0061  -12.3170 O   0  0  0  0  0  0  0  0  0  0  0  0
   21.6833  -20.0173  -12.2186 N   0  0  0  0  0  0  0  0  0  0  0  0
   18.3826  -26.0374   -7.5389 C   0  0  0  0  0  0  0  0  0  0  0  0
   17.9466  -24.7881   -8.0296 N   0  0  0  0  0  0  0  0  0  0  0  0
   17.3554  -23.9796   -7.2341 N   0  0  0  0  0  0  0  0  0  0  0  0
   18.1755  -24.4659   -9.3808 C   0  0  0  0  0  0  0  0  0  0  0  0
   17.8488  -23.1221   -9.8487 C   0  0  0  0  0  0  0  0  0  0  0  0
   18.3348  -22.9098  -11.2437 C   0  0  0  0  0  0  0  0  0  0  0  0
   19.7919  -22.7217  -11.3532 C   0  0  2  0  0  0  0  0  0  0  0  0
   20.3750  -22.3537  -12.6604 N   0  0  0  0  0  0  0  0  0  0  0  0
   21.8164  -22.2043  -12.6773 C   0  0  0  0  0  0  0  0  0  0  0  0
   19.7329  -21.1935  -13.2983 O   0  0  0  0  0  0  0  0  0  0  0  0
   20.2416  -20.0450  -13.1346 O   0  0  0  0  0  0  0  0  0  0  0  0
  2  1  1  0
  2  3  2  0
  4  2  1  0
  5  4  1  0
  6  5  1  0
  7  6  1  0
  8  7  1  0
  8  9  1  6
 10  8  1  0
 10 11  2  0
 13 12  1  6
 14 13  1  0
 16 15  1  1
 15 13  1  0
 17 16  1  0
 17 10  1  0
 18 16  1  0
 19 18  2  0
 21 20  1  0
 21 22  2  0
 23 21  1  0
 24 23  1  0
 25 24  1  0
 25 26  1  0
 27 26  1  6
 27 28  1  0
 28 18  1  0
 29 31  1  0
 29 27  1  0
 30 29  2  0
M  END
$$$$
