RLR.pdb
     RDKit          3D

 31 30  0  0  1  0  0  0  0  0999 V2000
   19.3984  -24.3599   -8.1658 N   0  0  0  0  0  0  0  0  0  0  0  0
   18.0123  -24.3521   -8.5493 C   0  0  0  0  0  0  0  0  0  0  0  0
   17.2614  -25.3356   -8.2284 N   0  0  0  0  0  0  0  0  0  0  0  0
   17.4479  -23.2792   -9.2783 N   0  0  0  0  0  0  0  0  0  0  0  0
   18.1907  -22.4647  -10.2158 C   0  0  0  0  0  0  0  0  0  0  0  0
   19.0321  -23.2801  -11.1412 C   0  0  0  0  0  0  0  0  0  0  0  0
   20.4005  -22.7539  -11.4040 C   0  0  0  0  0  0  0  0  0  0  0  0
   20.5196  -21.2535  -11.3842 C   0  0  2  0  0  0  0  0  0  0  0  0
   19.7006  -20.5902  -12.3692 N   0  0  0  0  0  0  0  0  0  0  0  0
   21.9304  -20.8077  -11.4369 C   0  0  0  0  0  0  0  0  0  0  0  0
   22.4335  -20.4749  -12.5141 O   0  0  0  0  0  0  0  0  0  0  0  0
   16.2507  -25.3489   -8.4832 C   0  0  0  0  0  0  0  0  0  0  0  0
   26.3081  -18.7561   -8.6822 C   0  0  2  0  0  0  0  0  0  0  0  0
   25.8946  -20.1824   -8.4108 C   0  0  0  0  0  0  0  0  0  0  0  0
   26.0549  -20.3729   -6.8915 C   0  0  0  0  0  0  0  0  0  0  0  0
   24.4836  -20.3860   -8.7711 C   0  0  1  0  0  0  0  0  0  0  0  0
   24.1050  -20.4574  -10.1996 N   0  0  0  0  0  0  0  0  0  0  0  0
   22.6997  -20.7591  -10.2806 C   0  0  0  0  0  0  0  0  0  0  0  0
   24.9646  -21.1790  -11.1148 O   0  0  0  0  0  0  0  0  0  0  0  0
   25.2535  -22.4230  -10.9926 N   0  0  0  0  0  0  0  0  0  0  0  0
   26.2665  -24.9253  -17.5814 C   0  0  0  0  0  0  0  0  0  0  0  0
   26.0426  -25.9035  -16.5890 N   0  0  0  0  0  0  0  0  0  0  0  0
   26.6300  -27.0354  -16.6881 N   0  0  0  0  0  0  0  0  0  0  0  0
   25.1799  -25.6059  -15.5171 C   0  0  0  0  0  0  0  0  0  0  0  0
   24.5871  -24.2741  -15.4400 C   0  0  0  0  0  0  0  0  0  0  0  0
   25.6001  -23.2626  -15.0180 C   0  0  0  0  0  0  0  0  0  0  0  0
   25.2052  -22.4669  -13.8427 C   0  0  1  0  0  0  0  0  0  0  0  0
   26.0920  -21.3803  -13.3767 N   0  0  0  0  0  0  0  0  0  0  0  0
   25.5916  -20.6074  -12.2575 C   0  0  0  0  0  0  0  0  0  0  0  0
   26.5589  -20.4861  -14.4480 O   0  0  0  0  0  0  0  0  0  0  0  0
   25.9583  -19.3863  -14.6331 O   0  0  0  0  0  0  0  0  0  0  0  0
  2  1  1  0
  2  3  2  0
  4  2  1  0
  5  4  1  0
  6  5  1  0
  7  6  1  0
  8  7  1  0
  8  9  1  6
 10  8  1  0
 10 11  2  0
 13 12  1  6
 14 13  1  0
 16 15  1  1
 15 13  1  0
 17 16  1  0
 17 10  1  0
 18 16  1  0
 19 18  2  0
 21 20  1  0
 21 22  2  0
 23 21  1  0
 24 23  1  0
 25 24  1  0
 25 26  1  0
 27 26  1  1
 27 28  1  0
 28 18  1  0
 29 31  1  0
 29 27  1  0
 30 29  2  0
M  END
$$$$
