LFP.pdb
     RDKit          3D

 27 28  0  0  1  0  0  0  0  0999 V2000
   12.3495  -17.0120   17.9913 C   0  0  0  0  0  0  0  0  0  0  0  0
   11.2759  -17.5334   18.9268 C   0  0  1  0  0  0  0  0  0  0  0  0
   11.8610  -18.7374   19.6453 C   0  0  0  0  0  0  0  0  0  0  0  0
   10.9807  -16.4934   19.9727 C   0  0  0  0  0  0  0  0  0  0  0  0
    9.9145  -16.9308   20.9502 C   0  0  2  0  0  0  0  0  0  0  0  0
    8.6599  -17.2051   20.3328 N   0  0  0  0  0  0  0  0  0  0  0  0
    9.8567  -15.9445   22.0323 C   0  0  0  0  0  0  0  0  0  0  0  0
   10.0458  -14.7307   21.7622 O   0  0  0  0  0  0  0  0  0  0  0  0
    9.5974  -16.2736   23.3866 N   0  0  0  0  0  0  0  0  0  0  0  0
    9.3436  -15.2014   24.4068 C   0  0  1  0  0  0  0  0  0  0  0  0
    7.9034  -14.7421   24.1233 C   0  0  0  0  0  0  0  0  0  0  0  0
    7.3393  -13.7336   24.9632 C   0  0  0  0  0  0  0  0  0  0  0  0
    7.7411  -12.4198   24.9155 C   0  0  0  0  0  0  0  0  0  0  0  0
    7.1385  -11.4404   25.7050 C   0  0  0  0  0  0  0  0  0  0  0  0
    6.1191  -11.7702   26.5571 C   0  0  0  0  0  0  0  0  0  0  0  0
    5.6836  -13.0914   26.6350 C   0  0  0  0  0  0  0  0  0  0  0  0
    6.3036  -14.0495   25.8353 C   0  0  0  0  0  0  0  0  0  0  0  0
    9.4294  -15.7969   25.7542 C   0  0  0  0  0  0  0  0  0  0  0  0
    8.7633  -16.8864   25.8807 O   0  0  0  0  0  0  0  0  0  0  0  0
   10.1699  -15.2627   26.8434 N   0  0  0  0  0  0  0  0  0  0  0  0
   10.7895  -13.9642   26.8023 C   0  0  0  0  0  0  0  0  0  0  0  0
   10.5300  -13.3697   28.1507 C   0  0  0  0  0  0  0  0  0  0  0  0
   10.0889  -14.5488   28.9884 C   0  0  0  0  0  0  0  0  0  0  0  0
   10.5125  -15.7473   28.1125 C   0  0  1  0  0  0  0  0  0  0  0  0
   10.1086  -17.0046   28.6277 C   0  0  0  0  0  0  0  0  0  0  0  0
    9.1396  -17.5703   27.9869 O   0  0  0  0  0  0  0  0  0  0  0  0
   10.5295  -17.7678   29.6784 O   0  0  0  0  0  0  0  0  0  0  0  0
  2  1  1  6
  3  2  1  0
  4  2  1  0
  5  4  1  0
  5  6  1  6
  7  8  2  0
  7  5  1  0
  9  7  1  0
 10  9  1  0
 10 11  1  6
 11 12  1  0
 12 17  1  0
 12 13  2  0
 13 14  1  0
 14 15  2  0
 16 15  1  0
 17 16  2  0
 18 10  1  0
 19 18  2  0
 20 21  1  0
 20 18  1  0
 22 21  1  0
 23 24  1  0
 23 22  1  0
 24 20  1  0
 25 27  1  0
 24 25  1  1
 26 25  2  0
M  END
$$$$
