LFP.pdb
     RDKit          3D

 27 28  0  0  1  0  0  0  0  0999 V2000
   11.4986  -17.1394   18.1016 C   0  0  0  0  0  0  0  0  0  0  0  0
   11.8975  -17.8604   19.3746 C   0  0  1  0  0  0  0  0  0  0  0  0
   13.3964  -18.0967   19.2988 C   0  0  0  0  0  0  0  0  0  0  0  0
   11.6500  -16.9598   20.5538 C   0  0  0  0  0  0  0  0  0  0  0  0
   10.2468  -17.0825   21.1011 C   0  0  2  0  0  0  0  0  0  0  0  0
    9.2401  -17.0218   20.0945 N   0  0  0  0  0  0  0  0  0  0  0  0
   10.0904  -16.1004   22.1772 C   0  0  0  0  0  0  0  0  0  0  0  0
   10.3566  -14.8933   21.9450 O   0  0  0  0  0  0  0  0  0  0  0  0
    9.6514  -16.4266   23.4851 N   0  0  0  0  0  0  0  0  0  0  0  0
    9.3232  -15.3509   24.4801 C   0  0  1  0  0  0  0  0  0  0  0  0
    7.8595  -14.9887   24.1772 C   0  0  0  0  0  0  0  0  0  0  0  0
    7.2365  -13.9777   24.9713 C   0  0  0  0  0  0  0  0  0  0  0  0
    6.3451  -14.2696   25.9763 C   0  0  0  0  0  0  0  0  0  0  0  0
    5.7906  -13.2707   26.7765 C   0  0  0  0  0  0  0  0  0  0  0  0
    6.1263  -11.9588   26.5761 C   0  0  0  0  0  0  0  0  0  0  0  0
    7.0258  -11.6220   25.5668 C   0  0  0  0  0  0  0  0  0  0  0  0
    7.5643  -12.6398   24.7821 C   0  0  0  0  0  0  0  0  0  0  0  0
    9.4352  -15.9111   25.8406 C   0  0  0  0  0  0  0  0  0  0  0  0
    8.7939  -17.0110   26.0007 O   0  0  0  0  0  0  0  0  0  0  0  0
   10.1749  -15.3346   26.9086 N   0  0  0  0  0  0  0  0  0  0  0  0
   10.8039  -14.0436   26.8133 C   0  0  0  0  0  0  0  0  0  0  0  0
   10.5429  -13.3886   28.1331 C   0  0  0  0  0  0  0  0  0  0  0  0
   10.0900  -14.5265   29.0199 C   0  0  0  0  0  0  0  0  0  0  0  0
   10.5088  -15.7653   28.1993 C   0  0  1  0  0  0  0  0  0  0  0  0
   10.0938  -16.9959   28.7675 C   0  0  0  0  0  0  0  0  0  0  0  0
    9.0463  -17.5217   28.2235 O   0  0  0  0  0  0  0  0  0  0  0  0
   10.5701  -17.7666   29.7887 O   0  0  0  0  0  0  0  0  0  0  0  0
  2  1  1  6
  3  2  1  0
  4  2  1  0
  5  4  1  0
  5  6  1  6
  7  8  2  0
  7  5  1  0
  9  7  1  0
 10  9  1  0
 10 11  1  6
 11 12  1  0
 12 17  1  0
 12 13  2  0
 13 14  1  0
 14 15  2  0
 16 15  1  0
 17 16  2  0
 18 10  1  0
 19 18  2  0
 20 21  1  0
 20 18  1  0
 22 21  1  0
 23 24  1  0
 23 22  1  0
 24 20  1  0
 25 27  1  0
 24 25  1  1
 26 25  2  0
M  END
$$$$
