LFP.pdb
     RDKit          3D

 27 28  0  0  1  0  0  0  0  0999 V2000
    8.5223  -22.5495   22.3713 C   0  0  0  0  0  0  0  0  0  0  0  0
    7.2300  -22.1668   23.0665 C   0  0  1  0  0  0  0  0  0  0  0  0
    7.2985  -22.7357   24.4735 C   0  0  0  0  0  0  0  0  0  0  0  0
    7.1606  -20.6698   23.1966 C   0  0  0  0  0  0  0  0  0  0  0  0
    5.9000  -20.1987   23.8840 C   0  0  2  0  0  0  0  0  0  0  0  0
    4.7141  -20.7833   23.3526 N   0  0  0  0  0  0  0  0  0  0  0  0
    5.9052  -18.7334   23.8902 C   0  0  0  0  0  0  0  0  0  0  0  0
    5.3073  -18.1172   22.9711 O   0  0  0  0  0  0  0  0  0  0  0  0
    6.5508  -17.9512   24.8807 N   0  0  0  0  0  0  0  0  0  0  0  0
    6.6965  -16.4655   24.7175 C   0  0  1  0  0  0  0  0  0  0  0  0
    6.8313  -15.9379   26.1559 C   0  0  0  0  0  0  0  0  0  0  0  0
    6.9248  -14.5258   26.3504 C   0  0  0  0  0  0  0  0  0  0  0  0
    5.8221  -13.7050   26.3620 C   0  0  0  0  0  0  0  0  0  0  0  0
    5.9302  -12.3364   26.6091 C   0  0  0  0  0  0  0  0  0  0  0  0
    7.1542  -11.7720   26.8489 C   0  0  0  0  0  0  0  0  0  0  0  0
    8.2960  -12.5704   26.8449 C   0  0  0  0  0  0  0  0  0  0  0  0
    8.1591  -13.9344   26.5949 C   0  0  0  0  0  0  0  0  0  0  0  0
    7.9317  -16.1892   23.9589 C   0  0  0  0  0  0  0  0  0  0  0  0
    8.9860  -16.6961   24.4862 O   0  0  0  0  0  0  0  0  0  0  0  0
    8.0048  -15.4454   22.7499 N   0  0  0  0  0  0  0  0  0  0  0  0
    6.8366  -15.0207   22.0243 C   0  0  0  0  0  0  0  0  0  0  0  0
    7.1424  -13.6238   21.5837 C   0  0  0  0  0  0  0  0  0  0  0  0
    8.6353  -13.4973   21.7882 C   0  0  0  0  0  0  0  0  0  0  0  0
    9.0652  -14.9690   21.9680 C   0  0  1  0  0  0  0  0  0  0  0  0
   10.4362  -15.1301   22.2906 C   0  0  0  0  0  0  0  0  0  0  0  0
   10.6896  -15.2414   23.5528 O   0  0  0  0  0  0  0  0  0  0  0  0
   11.5756  -15.1950   21.5417 O   0  0  0  0  0  0  0  0  0  0  0  0
  2  1  1  6
  3  2  1  0
  4  2  1  0
  5  4  1  0
  5  6  1  6
  7  8  2  0
  7  5  1  0
  9  7  1  0
 10  9  1  0
 10 11  1  1
 11 12  1  0
 12 17  1  0
 12 13  2  0
 13 14  1  0
 14 15  2  0
 16 15  1  0
 17 16  2  0
 18 10  1  0
 19 18  2  0
 20 21  1  0
 20 18  1  0
 22 21  1  0
 23 24  1  0
 23 22  1  0
 24 20  1  0
 25 27  1  0
 24 25  1  1
 26 25  2  0
M  END
$$$$
