LFP.pdb
     RDKit          3D

 27 28  0  0  1  0  0  0  0  0999 V2000
    9.6847  -13.5207   18.4011 C   0  0  0  0  0  0  0  0  0  0  0  0
    8.5873  -13.6680   19.4372 C   0  0  1  0  0  0  0  0  0  0  0  0
    7.3558  -12.9744   18.8799 C   0  0  0  0  0  0  0  0  0  0  0  0
    8.2435  -15.1241   19.5928 C   0  0  0  0  0  0  0  0  0  0  0  0
    9.1128  -15.8266   20.6099 C   0  0  2  0  0  0  0  0  0  0  0  0
    8.7820  -17.2018   20.7827 N   0  0  0  0  0  0  0  0  0  0  0  0
    9.0970  -15.0377   21.8446 C   0  0  0  0  0  0  0  0  0  0  0  0
    8.9710  -13.7886   21.7690 O   0  0  0  0  0  0  0  0  0  0  0  0
    9.2164  -15.5992   23.1408 N   0  0  0  0  0  0  0  0  0  0  0  0
    9.0506  -14.7500   24.3683 C   0  0  1  0  0  0  0  0  0  0  0  0
    7.5821  -14.2957   24.3188 C   0  0  0  0  0  0  0  0  0  0  0  0
    7.1165  -13.4064   25.3353 C   0  0  0  0  0  0  0  0  0  0  0  0
    7.4847  -12.0830   25.3873 C   0  0  0  0  0  0  0  0  0  0  0  0
    6.9748  -11.2183   26.3558 C   0  0  0  0  0  0  0  0  0  0  0  0
    6.0837  -11.6747   27.2895 C   0  0  0  0  0  0  0  0  0  0  0  0
    5.6863  -13.0100   27.2707 C   0  0  0  0  0  0  0  0  0  0  0  0
    6.2116  -13.8518   26.2924 C   0  0  0  0  0  0  0  0  0  0  0  0
    9.2817  -15.5877   25.5609 C   0  0  0  0  0  0  0  0  0  0  0  0
    8.6298  -16.6929   25.5500 O   0  0  0  0  0  0  0  0  0  0  0  0
   10.1392  -15.2558   26.6448 N   0  0  0  0  0  0  0  0  0  0  0  0
   10.8575  -14.0108   26.7173 C   0  0  0  0  0  0  0  0  0  0  0  0
   10.7442  -13.5823   28.1465 C   0  0  0  0  0  0  0  0  0  0  0  0
   10.2700  -14.8270   28.8621 C   0  0  0  0  0  0  0  0  0  0  0  0
   10.5311  -15.9267   27.8106 C   0  0  1  0  0  0  0  0  0  0  0  0
   10.0644  -17.2090   28.1945 C   0  0  0  0  0  0  0  0  0  0  0  0
   10.7242  -17.7632   29.1575 O   0  0  0  0  0  0  0  0  0  0  0  0
    9.0455  -18.0064   27.7593 O   0  0  0  0  0  0  0  0  0  0  0  0
  2  1  1  6
  3  2  1  0
  4  2  1  0
  5  4  1  0
  5  6  1  1
  7  8  2  0
  7  5  1  0
  9  7  1  0
 10  9  1  0
 10 11  1  1
 11 12  1  0
 12 17  1  0
 12 13  2  0
 13 14  1  0
 14 15  2  0
 16 15  1  0
 17 16  2  0
 18 10  1  0
 19 18  2  0
 20 21  1  0
 20 18  1  0
 22 21  1  0
 23 24  1  0
 23 22  1  0
 24 20  1  0
 25 27  1  0
 24 25  1  1
 26 25  2  0
M  END
$$$$
