LFP.pdb
     RDKit          3D

 27 28  0  0  1  0  0  0  0  0999 V2000
    7.7890  -12.7900   20.4620 C   0  0  0  0  0  0  0  0  0  0  0  0
    8.3681  -13.8728   19.5722 C   0  0  1  0  0  0  0  0  0  0  0  0
    9.3418  -13.1936   18.6242 C   0  0  0  0  0  0  0  0  0  0  0  0
    9.1646  -14.8329   20.4126 C   0  0  0  0  0  0  0  0  0  0  0  0
    8.3056  -15.6273   21.3690 C   0  0  2  0  0  0  0  0  0  0  0  0
    6.9464  -15.7321   20.9544 N   0  0  0  0  0  0  0  0  0  0  0  0
    8.4902  -15.0744   22.7134 C   0  0  0  0  0  0  0  0  0  0  0  0
    8.5777  -13.8276   22.8536 O   0  0  0  0  0  0  0  0  0  0  0  0
    8.5782  -15.8656   23.8864 N   0  0  0  0  0  0  0  0  0  0  0  0
    8.7791  -15.2310   25.2325 C   0  0  1  0  0  0  0  0  0  0  0  0
    7.3534  -15.0318   25.7738 C   0  0  0  0  0  0  0  0  0  0  0  0
    6.8898  -13.6960   25.9780 C   0  0  0  0  0  0  0  0  0  0  0  0
    5.6272  -13.2872   25.6198 C   0  0  0  0  0  0  0  0  0  0  0  0
    5.1752  -11.9932   25.8786 C   0  0  0  0  0  0  0  0  0  0  0  0
    5.9905  -11.0886   26.5040 C   0  0  0  0  0  0  0  0  0  0  0  0
    7.2778  -11.4643   26.8821 C   0  0  0  0  0  0  0  0  0  0  0  0
    7.7036  -12.7631   26.6109 C   0  0  0  0  0  0  0  0  0  0  0  0
    9.5218  -16.1701   26.0950 C   0  0  0  0  0  0  0  0  0  0  0  0
    9.3067  -17.4048   25.8196 O   0  0  0  0  0  0  0  0  0  0  0  0
   10.4097  -15.7988   27.1409 N   0  0  0  0  0  0  0  0  0  0  0  0
   10.9590  -14.4741   27.2635 C   0  0  0  0  0  0  0  0  0  0  0  0
   10.9020  -14.1664   28.7267 C   0  0  0  0  0  0  0  0  0  0  0  0
   10.6559  -15.5119   29.3713 C   0  0  0  0  0  0  0  0  0  0  0  0
   10.9781  -16.4884   28.2199 C   0  0  1  0  0  0  0  0  0  0  0  0
   10.7183  -17.8468   28.5311 C   0  0  0  0  0  0  0  0  0  0  0  0
   11.6598  -18.4464   29.1821 O   0  0  0  0  0  0  0  0  0  0  0  0
    9.6654  -18.6810   28.2879 O   0  0  0  0  0  0  0  0  0  0  0  0
  2  1  1  1
  3  2  1  0
  4  2  1  0
  5  4  1  0
  5  6  1  6
  7  8  2  0
  7  5  1  0
  9  7  1  0
 10  9  1  0
 10 11  1  1
 11 12  1  0
 12 17  1  0
 12 13  2  0
 13 14  1  0
 14 15  2  0
 16 15  1  0
 17 16  2  0
 18 10  1  0
 19 18  2  0
 20 21  1  0
 20 18  1  0
 22 21  1  0
 23 24  1  0
 23 22  1  0
 24 20  1  0
 25 27  1  0
 24 25  1  1
 26 25  2  0
M  END
$$$$
