LFP.pdb
     RDKit          3D

 27 28  0  0  1  0  0  0  0  0999 V2000
   13.5586  -18.4120   19.6812 C   0  0  0  0  0  0  0  0  0  0  0  0
   12.0642  -18.1620   19.7432 C   0  0  1  0  0  0  0  0  0  0  0  0
   11.4127  -19.4708   20.1564 C   0  0  0  0  0  0  0  0  0  0  0  0
   11.7729  -17.1604   20.8270 C   0  0  0  0  0  0  0  0  0  0  0  0
   10.2954  -16.8916   20.9955 C   0  0  2  0  0  0  0  0  0  0  0  0
    9.6544  -16.4811   19.7909 N   0  0  0  0  0  0  0  0  0  0  0  0
   10.1261  -15.9671   22.1196 C   0  0  0  0  0  0  0  0  0  0  0  0
   10.7529  -14.8766   22.1125 O   0  0  0  0  0  0  0  0  0  0  0  0
    9.2883  -16.2250   23.2338 N   0  0  0  0  0  0  0  0  0  0  0  0
    9.0769  -15.1864   24.2976 C   0  0  1  0  0  0  0  0  0  0  0  0
    7.6100  -14.7585   24.1230 C   0  0  0  0  0  0  0  0  0  0  0  0
    7.0863  -13.7676   25.0088 C   0  0  0  0  0  0  0  0  0  0  0  0
    6.2007  -14.0682   26.0162 C   0  0  0  0  0  0  0  0  0  0  0  0
    5.7445  -13.0948   26.9051 C   0  0  0  0  0  0  0  0  0  0  0  0
    6.1745  -11.8000   26.7925 C   0  0  0  0  0  0  0  0  0  0  0  0
    7.0717  -11.4551   25.7838 C   0  0  0  0  0  0  0  0  0  0  0  0
    7.5109  -12.4473   24.9095 C   0  0  0  0  0  0  0  0  0  0  0  0
    9.2675  -15.8140   25.6195 C   0  0  0  0  0  0  0  0  0  0  0  0
    8.7081  -16.9634   25.7311 O   0  0  0  0  0  0  0  0  0  0  0  0
    9.9977  -15.2488   26.7000 N   0  0  0  0  0  0  0  0  0  0  0  0
   10.5480  -13.9196   26.6581 C   0  0  0  0  0  0  0  0  0  0  0  0
   10.2809  -13.3481   28.0150 C   0  0  0  0  0  0  0  0  0  0  0  0
    9.9162  -14.5539   28.8513 C   0  0  0  0  0  0  0  0  0  0  0  0
   10.3866  -15.7230   27.9597 C   0  0  1  0  0  0  0  0  0  0  0  0
   10.0576  -17.0030   28.4724 C   0  0  0  0  0  0  0  0  0  0  0  0
    9.1909  -17.6624   27.7768 O   0  0  0  0  0  0  0  0  0  0  0  0
   10.4658  -17.7093   29.5669 O   0  0  0  0  0  0  0  0  0  0  0  0
  2  1  1  1
  3  2  1  0
  4  2  1  0
  5  4  1  0
  5  6  1  6
  7  8  2  0
  7  5  1  0
  9  7  1  0
 10  9  1  0
 10 11  1  1
 11 12  1  0
 12 17  1  0
 12 13  2  0
 13 14  1  0
 14 15  2  0
 16 15  1  0
 17 16  2  0
 18 10  1  0
 19 18  2  0
 20 21  1  0
 20 18  1  0
 22 21  1  0
 23 24  1  0
 23 22  1  0
 24 20  1  0
 25 27  1  0
 24 25  1  1
 26 25  2  0
M  END
$$$$
