LFP.pdb
     RDKit          3D

 27 28  0  0  1  0  0  0  0  0999 V2000
    8.6528  -12.6021   18.8287 C   0  0  0  0  0  0  0  0  0  0  0  0
    8.4647  -13.7817   19.7629 C   0  0  1  0  0  0  0  0  0  0  0  0
    7.3486  -14.6332   19.1821 C   0  0  0  0  0  0  0  0  0  0  0  0
    9.7119  -14.6227   19.7583 C   0  0  0  0  0  0  0  0  0  0  0  0
    9.6795  -15.7254   20.7910 C   0  0  2  0  0  0  0  0  0  0  0  0
    8.6538  -16.6871   20.5592 N   0  0  0  0  0  0  0  0  0  0  0  0
    9.6428  -15.1054   22.1181 C   0  0  0  0  0  0  0  0  0  0  0  0
   10.5019  -14.2337   22.4083 O   0  0  0  0  0  0  0  0  0  0  0  0
    8.6865  -15.4285   23.1135 N   0  0  0  0  0  0  0  0  0  0  0  0
    8.6743  -14.7130   24.4337 C   0  0  1  0  0  0  0  0  0  0  0  0
    7.1894  -14.3962   24.6791 C   0  0  0  0  0  0  0  0  0  0  0  0
    6.8644  -13.3828   25.6320 C   0  0  0  0  0  0  0  0  0  0  0  0
    7.3242  -12.0917   25.5263 C   0  0  0  0  0  0  0  0  0  0  0  0
    6.9497  -11.1038   26.4371 C   0  0  0  0  0  0  0  0  0  0  0  0
    6.1040  -11.4023   27.4714 C   0  0  0  0  0  0  0  0  0  0  0  0
    5.6168  -12.6999   27.6133 C   0  0  0  0  0  0  0  0  0  0  0  0
    6.0074  -13.6671   26.6893 C   0  0  0  0  0  0  0  0  0  0  0  0
    9.1756  -15.6294   25.4760 C   0  0  0  0  0  0  0  0  0  0  0  0
    8.7468  -16.8328   25.3556 O   0  0  0  0  0  0  0  0  0  0  0  0
   10.0569  -15.2701   26.5317 N   0  0  0  0  0  0  0  0  0  0  0  0
   10.6876  -13.9790   26.6151 C   0  0  0  0  0  0  0  0  0  0  0  0
   10.6109  -13.6046   28.0618 C   0  0  0  0  0  0  0  0  0  0  0  0
   10.2602  -14.9021   28.7545 C   0  0  0  0  0  0  0  0  0  0  0  0
   10.5496  -15.9467   27.6552 C   0  0  1  0  0  0  0  0  0  0  0  0
   10.1936  -17.2708   28.0151 C   0  0  0  0  0  0  0  0  0  0  0  0
    8.9967  -17.6236   27.6796 O   0  0  0  0  0  0  0  0  0  0  0  0
   10.8545  -18.2800   28.6540 O   0  0  0  0  0  0  0  0  0  0  0  0
  2  1  1  6
  3  2  1  0
  4  2  1  0
  5  4  1  0
  5  6  1  6
  7  8  2  0
  7  5  1  0
  9  7  1  0
 10  9  1  0
 10 11  1  1
 11 12  1  0
 12 17  1  0
 12 13  2  0
 13 14  1  0
 14 15  2  0
 16 15  1  0
 17 16  2  0
 18 10  1  0
 19 18  2  0
 20 21  1  0
 20 18  1  0
 22 21  1  0
 23 24  1  0
 23 22  1  0
 24 20  1  0
 25 27  1  0
 24 25  1  1
 26 25  2  0
M  END
$$$$
