DVF.pdb
     RDKit          3D

 27 27  0  0  1  0  0  0  0  0999 V2000
    9.1758  -18.6481   18.7855 N   0  0  0  0  0  0  0  0  0  0  0  0
    8.3623  -18.1877   19.8871 C   0  0  1  0  0  0  0  0  0  0  0  0
    8.3995  -19.2522   20.9559 C   0  0  0  0  0  0  0  0  0  0  0  0
    7.4806  -20.3387   20.5423 C   0  0  0  0  0  0  0  0  0  0  0  0
    6.9163  -20.3618   19.4205 O   0  0  0  0  0  0  0  0  0  0  0  0
    8.8510  -16.8896   20.3515 C   0  0  0  0  0  0  0  0  0  0  0  0
   10.0903  -16.7154   20.4745 O   0  0  0  0  0  0  0  0  0  0  0  0
    7.2226  -21.3804   21.4190 O   0  0  0  0  0  0  0  0  0  0  0  0
    7.3806  -13.3501   19.3102 C   0  0  0  0  0  0  0  0  0  0  0  0
    7.6722  -13.3715   20.7840 C   0  0  2  0  0  0  0  0  0  0  0  0
    8.4098  -12.1357   21.2415 C   0  0  0  0  0  0  0  0  0  0  0  0
    8.5424  -14.5831   21.1492 C   0  0  2  0  0  0  0  0  0  0  0  0
    7.9748  -15.7982   20.6753 N   0  0  0  0  0  0  0  0  0  0  0  0
    8.6608  -14.5414   22.6364 C   0  0  0  0  0  0  0  0  0  0  0  0
    8.0103  -13.6580   23.2423 O   0  0  0  0  0  0  0  0  0  0  0  0
    9.4746  -15.4594   23.3524 N   0  0  0  0  0  0  0  0  0  0  0  0
    9.7424  -15.3167   24.7762 C   0  0  1  0  0  0  0  0  0  0  0  0
    8.4432  -15.6138   25.5056 C   0  0  0  0  0  0  0  0  0  0  0  0
    7.7323  -14.3761   25.9077 C   0  0  0  0  0  0  0  0  0  0  0  0
    6.3992  -14.2437   25.6062 C   0  0  0  0  0  0  0  0  0  0  0  0
    5.7288  -13.0773   25.9860 C   0  0  0  0  0  0  0  0  0  0  0  0
    6.3996  -12.0691   26.6568 C   0  0  0  0  0  0  0  0  0  0  0  0
    7.7561  -12.2082   26.9612 C   0  0  0  0  0  0  0  0  0  0  0  0
    8.3840  -13.3709   26.5718 C   0  0  0  0  0  0  0  0  0  0  0  0
   10.7315  -16.3238   25.2443 C   0  0  0  0  0  0  0  0  0  0  0  0
   11.2172  -17.3092   24.4351 O   0  0  0  0  0  0  0  0  0  0  0  0
   11.1166  -16.2376   26.4395 O   0  0  0  0  0  0  0  0  0  0  0  0
  2  3  1  0
  2  1  1  6
  4  3  1  0
  4  8  1  0
  5  4  2  0
  6  2  1  0
  7  6  2  0
 10  9  1  6
 10 12  1  0
 11 10  1  0
 12 13  1  1
 13  6  1  0
 14 12  1  0
 14 16  1  0
 15 14  2  0
 17 16  1  0
 17 25  1  0
 17 18  1  1
 19 18  1  0
 19 20  2  0
 21 20  1  0
 22 21  2  0
 23 24  2  0
 23 22  1  0
 24 19  1  0
 25 26  1  0
 27 25  2  0
M  END
$$$$
