DVF.pdb
     RDKit          3D

 27 27  0  0  1  0  0  0  0  0999 V2000
   12.2237  -17.1969   18.8953 N   0  0  0  0  0  0  0  0  0  0  0  0
   11.0456  -17.6997   19.5634 C   0  0  1  0  0  0  0  0  0  0  0  0
   11.4109  -19.0192   20.1978 C   0  0  0  0  0  0  0  0  0  0  0  0
   11.5281  -20.0233   19.1143 C   0  0  0  0  0  0  0  0  0  0  0  0
   11.3016  -21.2457   19.2926 O   0  0  0  0  0  0  0  0  0  0  0  0
   10.5670  -16.7107   20.5291 C   0  0  0  0  0  0  0  0  0  0  0  0
   11.4077  -16.0121   21.1508 O   0  0  0  0  0  0  0  0  0  0  0  0
   11.9026  -19.6121   17.8450 O   0  0  0  0  0  0  0  0  0  0  0  0
    7.1599  -13.7465   22.3752 C   0  0  0  0  0  0  0  0  0  0  0  0
    7.4278  -14.9212   21.4775 C   0  0  2  0  0  0  0  0  0  0  0  0
    6.4043  -16.0187   21.6468 C   0  0  0  0  0  0  0  0  0  0  0  0
    8.8048  -15.5321   21.7767 C   0  0  2  0  0  0  0  0  0  0  0  0
    9.1723  -16.4997   20.8011 N   0  0  0  0  0  0  0  0  0  0  0  0
    8.6830  -16.1101   23.1474 C   0  0  0  0  0  0  0  0  0  0  0  0
    8.4550  -17.3392   23.2370 O   0  0  0  0  0  0  0  0  0  0  0  0
    8.8174  -15.3124   24.3150 N   0  0  0  0  0  0  0  0  0  0  0  0
    8.9083  -15.8913   25.6476 C   0  0  1  0  0  0  0  0  0  0  0  0
    9.0278  -14.7365   26.6275 C   0  0  0  0  0  0  0  0  0  0  0  0
    7.9759  -13.7129   26.4161 C   0  0  0  0  0  0  0  0  0  0  0  0
    8.2880  -12.5670   25.7269 C   0  0  0  0  0  0  0  0  0  0  0  0
    7.2961  -11.6024   25.5269 C   0  0  0  0  0  0  0  0  0  0  0  0
    6.0165  -11.7995   26.0170 C   0  0  0  0  0  0  0  0  0  0  0  0
    5.7037  -12.9670   26.7178 C   0  0  0  0  0  0  0  0  0  0  0  0
    6.7059  -13.8953   26.8958 C   0  0  0  0  0  0  0  0  0  0  0  0
    7.6644  -16.6240   26.0053 C   0  0  0  0  0  0  0  0  0  0  0  0
    7.5733  -17.4253   27.1059 O   0  0  0  0  0  0  0  0  0  0  0  0
    6.6736  -16.4789   25.2428 O   0  0  0  0  0  0  0  0  0  0  0  0
  2  3  1  0
  2  1  1  1
  4  3  1  0
  4  8  1  0
  5  4  2  0
  6  2  1  0
  7  6  2  0
 10  9  1  1
 10 12  1  0
 11 10  1  0
 12 13  1  6
 13  6  1  0
 14 12  1  0
 14 16  1  0
 15 14  2  0
 17 16  1  0
 17 25  1  0
 17 18  1  1
 19 18  1  0
 19 20  2  0
 21 20  1  0
 22 21  2  0
 23 24  2  0
 23 22  1  0
 24 19  1  0
 25 26  1  0
 27 25  2  0
M  END
$$$$
