DVF.pdb
     RDKit          3D

 27 27  0  0  1  0  0  0  0  0999 V2000
    8.5411  -18.6201   19.8460 N   0  0  0  0  0  0  0  0  0  0  0  0
    9.9161  -18.1862   19.7558 C   0  0  1  0  0  0  0  0  0  0  0  0
   10.4062  -18.5137   18.3668 C   0  0  0  0  0  0  0  0  0  0  0  0
    9.8897  -19.8565   18.0114 C   0  0  0  0  0  0  0  0  0  0  0  0
    8.6895  -20.1886   18.1750 O   0  0  0  0  0  0  0  0  0  0  0  0
   10.0050  -16.7615   20.0756 C   0  0  0  0  0  0  0  0  0  0  0  0
   11.1408  -16.2326   20.1827 O   0  0  0  0  0  0  0  0  0  0  0  0
   10.7549  -20.7968   17.4752 O   0  0  0  0  0  0  0  0  0  0  0  0
    7.6541  -13.7908   18.6026 C   0  0  0  0  0  0  0  0  0  0  0  0
    7.8253  -13.7173   20.0935 C   0  0  2  0  0  0  0  0  0  0  0  0
    8.0495  -12.3042   20.5769 C   0  0  0  0  0  0  0  0  0  0  0  0
    9.0342  -14.5504   20.5443 C   0  0  2  0  0  0  0  0  0  0  0  0
    8.8473  -15.9343   20.2739 N   0  0  0  0  0  0  0  0  0  0  0  0
    9.1833  -14.2608   22.0009 C   0  0  0  0  0  0  0  0  0  0  0  0
    9.2646  -13.0583   22.3445 O   0  0  0  0  0  0  0  0  0  0  0  0
    9.2333  -15.2957   22.9725 N   0  0  0  0  0  0  0  0  0  0  0  0
    9.0054  -15.0463   24.3886 C   0  0  1  0  0  0  0  0  0  0  0  0
    7.5641  -14.5884   24.5338 C   0  0  0  0  0  0  0  0  0  0  0  0
    7.3980  -13.6050   25.6312 C   0  0  0  0  0  0  0  0  0  0  0  0
    6.1547  -13.4277   26.1865 C   0  0  0  0  0  0  0  0  0  0  0  0
    5.9982  -12.5012   27.2215 C   0  0  0  0  0  0  0  0  0  0  0  0
    7.0818  -11.7721   27.6806 C   0  0  0  0  0  0  0  0  0  0  0  0
    8.3449  -11.9558   27.1123 C   0  0  0  0  0  0  0  0  0  0  0  0
    8.4617  -12.8770   26.0947 C   0  0  0  0  0  0  0  0  0  0  0  0
    9.1362  -16.2950   25.1858 C   0  0  0  0  0  0  0  0  0  0  0  0
    9.5967  -16.3030   26.4701 O   0  0  0  0  0  0  0  0  0  0  0  0
    8.8008  -17.3711   24.6258 O   0  0  0  0  0  0  0  0  0  0  0  0
  2  3  1  0
  2  1  1  6
  4  3  1  0
  4  8  1  0
  5  4  2  0
  6  2  1  0
  7  6  2  0
 10  9  1  6
 10 12  1  0
 11 10  1  0
 12 13  1  1
 13  6  1  0
 14 12  1  0
 14 16  1  0
 15 14  2  0
 17 16  1  0
 17 25  1  0
 17 18  1  6
 19 18  1  0
 19 20  2  0
 21 20  1  0
 22 21  2  0
 23 24  2  0
 23 22  1  0
 24 19  1  0
 25 26  1  0
 27 25  2  0
M  END
$$$$
