DVF.pdb
     RDKit          3D

 27 27  0  0  1  0  0  0  0  0999 V2000
    8.1971  -18.4581   19.6526 N   0  0  0  0  0  0  0  0  0  0  0  0
    9.5758  -18.0310   19.7128 C   0  0  1  0  0  0  0  0  0  0  0  0
   10.1116  -18.0232   18.3022 C   0  0  0  0  0  0  0  0  0  0  0  0
   10.0291  -19.4079   17.7809 C   0  0  0  0  0  0  0  0  0  0  0  0
   10.2909  -20.4157   18.4833 O   0  0  0  0  0  0  0  0  0  0  0  0
    9.6589  -16.7250   20.3664 C   0  0  0  0  0  0  0  0  0  0  0  0
   10.7812  -16.1670   20.4686 O   0  0  0  0  0  0  0  0  0  0  0  0
    9.6487  -19.6165   16.4648 O   0  0  0  0  0  0  0  0  0  0  0  0
    7.0576  -13.7770   19.7711 C   0  0  0  0  0  0  0  0  0  0  0  0
    7.4070  -13.8866   21.2283 C   0  0  2  0  0  0  0  0  0  0  0  0
    7.6680  -12.5396   21.8593 C   0  0  0  0  0  0  0  0  0  0  0  0
    8.6731  -14.7339   21.4223 C   0  0  2  0  0  0  0  0  0  0  0  0
    8.5103  -16.0469   20.9000 N   0  0  0  0  0  0  0  0  0  0  0  0
    8.9249  -14.7238   22.8934 C   0  0  0  0  0  0  0  0  0  0  0  0
    9.2456  -13.6308   23.4162 O   0  0  0  0  0  0  0  0  0  0  0  0
    8.8103  -15.8979   23.6844 N   0  0  0  0  0  0  0  0  0  0  0  0
    9.0118  -15.8886   25.1262 C   0  0  1  0  0  0  0  0  0  0  0  0
    7.6546  -15.6449   25.7639 C   0  0  0  0  0  0  0  0  0  0  0  0
    7.4322  -14.2121   26.0745 C   0  0  0  0  0  0  0  0  0  0  0  0
    8.4957  -13.4437   26.4798 C   0  0  0  0  0  0  0  0  0  0  0  0
    8.2862  -12.0928   26.7718 C   0  0  0  0  0  0  0  0  0  0  0  0
    7.0238  -11.5369   26.6544 C   0  0  0  0  0  0  0  0  0  0  0  0
    5.9448  -12.3227   26.2419 C   0  0  0  0  0  0  0  0  0  0  0  0
    6.1883  -13.6496   25.9625 C   0  0  0  0  0  0  0  0  0  0  0  0
    9.4789  -17.2130   25.6158 C   0  0  0  0  0  0  0  0  0  0  0  0
    9.7904  -17.4457   26.9237 O   0  0  0  0  0  0  0  0  0  0  0  0
    9.5809  -18.1357   24.7659 O   0  0  0  0  0  0  0  0  0  0  0  0
  2  3  1  0
  2  1  1  6
  4  3  1  0
  4  8  1  0
  5  4  2  0
  6  2  1  0
  7  6  2  0
 10  9  1  6
 10 12  1  0
 11 10  1  0
 12 13  1  1
 13  6  1  0
 14 12  1  0
 14 16  1  0
 15 14  2  0
 17 16  1  0
 17 25  1  0
 17 18  1  1
 19 18  1  0
 19 20  2  0
 21 20  1  0
 22 21  2  0
 23 24  2  0
 23 22  1  0
 24 19  1  0
 25 26  1  0
 27 25  2  0
M  END
$$$$
