DVF.pdb
     RDKit          3D

 27 27  0  0  1  0  0  0  0  0999 V2000
   10.9891  -18.3561   19.3294 N   0  0  0  0  0  0  0  0  0  0  0  0
   10.1649  -18.3787   20.5157 C   0  0  1  0  0  0  0  0  0  0  0  0
   10.7592  -19.3917   21.4631 C   0  0  0  0  0  0  0  0  0  0  0  0
   10.6794  -20.7200   20.8111 C   0  0  0  0  0  0  0  0  0  0  0  0
   11.6365  -21.2221   20.1713 O   0  0  0  0  0  0  0  0  0  0  0  0
   10.0864  -17.0344   21.0868 C   0  0  0  0  0  0  0  0  0  0  0  0
   11.1461  -16.3727   21.2313 O   0  0  0  0  0  0  0  0  0  0  0  0
    9.5059  -21.4515   20.9017 O   0  0  0  0  0  0  0  0  0  0  0  0
    7.0467  -14.4564   20.2777 C   0  0  0  0  0  0  0  0  0  0  0  0
    7.4686  -14.4218   21.7194 C   0  0  2  0  0  0  0  0  0  0  0  0
    7.5600  -13.0136   22.2575 C   0  0  0  0  0  0  0  0  0  0  0  0
    8.8500  -15.0685   21.8981 C   0  0  2  0  0  0  0  0  0  0  0  0
    8.8470  -16.4319   21.4926 N   0  0  0  0  0  0  0  0  0  0  0  0
    9.1749  -14.8960   23.3446 C   0  0  0  0  0  0  0  0  0  0  0  0
    9.2422  -13.7247   23.7850 O   0  0  0  0  0  0  0  0  0  0  0  0
    9.4020  -16.0054   24.2021 N   0  0  0  0  0  0  0  0  0  0  0  0
    9.3594  -15.8901   25.6527 C   0  0  1  0  0  0  0  0  0  0  0  0
    7.8969  -15.7727   26.0472 C   0  0  0  0  0  0  0  0  0  0  0  0
    7.4732  -14.3608   26.2086 C   0  0  0  0  0  0  0  0  0  0  0  0
    8.3641  -13.4508   26.7223 C   0  0  0  0  0  0  0  0  0  0  0  0
    7.9650  -12.1196   26.8737 C   0  0  0  0  0  0  0  0  0  0  0  0
    6.6890  -11.7239   26.5108 C   0  0  0  0  0  0  0  0  0  0  0  0
    5.7860  -12.6535   25.9887 C   0  0  0  0  0  0  0  0  0  0  0  0
    6.2138  -13.9560   25.8536 C   0  0  0  0  0  0  0  0  0  0  0  0
    9.8782  -17.1199   26.3087 C   0  0  0  0  0  0  0  0  0  0  0  0
   10.2516  -18.2275   25.6048 O   0  0  0  0  0  0  0  0  0  0  0  0
    9.9646  -17.1077   27.5643 O   0  0  0  0  0  0  0  0  0  0  0  0
  2  3  1  0
  2  1  1  6
  4  3  1  0
  4  8  1  0
  5  4  2  0
  6  2  1  0
  7  6  2  0
 10  9  1  6
 10 12  1  0
 11 10  1  0
 12 13  1  1
 13  6  1  0
 14 12  1  0
 14 16  1  0
 15 14  2  0
 17 16  1  0
 17 25  1  0
 17 18  1  1
 19 18  1  0
 19 20  2  0
 21 20  1  0
 22 21  2  0
 23 24  2  0
 23 22  1  0
 24 19  1  0
 25 26  1  0
 27 25  2  0
M  END
$$$$
