DVF.pdb
     RDKit          3D

 27 27  0  0  1  0  0  0  0  0999 V2000
   11.2923  -15.7048   18.2923 N   0  0  0  0  0  0  0  0  0  0  0  0
   11.7768  -15.5944   19.6488 C   0  0  1  0  0  0  0  0  0  0  0  0
   12.3729  -14.2174   19.8082 C   0  0  0  0  0  0  0  0  0  0  0  0
   13.7647  -14.2672   19.3017 C   0  0  0  0  0  0  0  0  0  0  0  0
   14.3551  -15.3445   19.0405 O   0  0  0  0  0  0  0  0  0  0  0  0
   10.6848  -15.8599   20.5852 C   0  0  0  0  0  0  0  0  0  0  0  0
    9.5369  -15.4201   20.3204 O   0  0  0  0  0  0  0  0  0  0  0  0
   14.4577  -13.0837   19.1029 O   0  0  0  0  0  0  0  0  0  0  0  0
   10.4633  -19.2013   22.9115 C   0  0  0  0  0  0  0  0  0  0  0  0
    9.2993  -18.2949   22.6270 C   0  0  2  0  0  0  0  0  0  0  0  0
    8.6783  -18.5639   21.2769 C   0  0  0  0  0  0  0  0  0  0  0  0
    9.7389  -16.8234   22.6414 C   0  0  2  0  0  0  0  0  0  0  0  0
   10.8650  -16.6044   21.8005 N   0  0  0  0  0  0  0  0  0  0  0  0
   10.0191  -16.5164   24.0749 C   0  0  0  0  0  0  0  0  0  0  0  0
   11.2171  -16.3593   24.4077 O   0  0  0  0  0  0  0  0  0  0  0  0
    8.9804  -16.4037   25.0371 N   0  0  0  0  0  0  0  0  0  0  0  0
    9.2439  -16.0957   26.4354 C   0  0  1  0  0  0  0  0  0  0  0  0
    7.9690  -15.5001   27.0080 C   0  0  0  0  0  0  0  0  0  0  0  0
    7.6951  -14.1450   26.4716 C   0  0  0  0  0  0  0  0  0  0  0  0
    6.6898  -13.9821   25.5504 C   0  0  0  0  0  0  0  0  0  0  0  0
    6.4311  -12.7046   25.0452 C   0  0  0  0  0  0  0  0  0  0  0  0
    7.1781  -11.6183   25.4677 C   0  0  0  0  0  0  0  0  0  0  0  0
    8.2001  -11.7890   26.4049 C   0  0  0  0  0  0  0  0  0  0  0  0
    8.4267  -13.0618   26.8809 C   0  0  0  0  0  0  0  0  0  0  0  0
    9.5244  -17.3292   27.2175 C   0  0  0  0  0  0  0  0  0  0  0  0
   10.0731  -17.2994   28.4664 O   0  0  0  0  0  0  0  0  0  0  0  0
    9.2331  -18.4289   26.6790 O   0  0  0  0  0  0  0  0  0  0  0  0
  2  3  1  0
  2  1  1  6
  4  3  1  0
  4  8  1  0
  5  4  2  0
  6  2  1  0
  7  6  2  0
 10  9  1  6
 10 12  1  0
 11 10  1  0
 12 13  1  6
 13  6  1  0
 14 12  1  0
 14 16  1  0
 15 14  2  0
 17 16  1  0
 17 25  1  0
 17 18  1  1
 19 18  1  0
 19 20  2  0
 21 20  1  0
 22 21  2  0
 23 24  2  0
 23 22  1  0
 24 19  1  0
 25 26  1  0
 27 25  2  0
M  END
$$$$
