DVF.pdb
     RDKit          3D

 27 27  0  0  1  0  0  0  0  0999 V2000
    7.3090  -16.3130   19.4743 N   0  0  0  0  0  0  0  0  0  0  0  0
    8.1880  -15.4754   20.2572 C   0  0  1  0  0  0  0  0  0  0  0  0
    7.6932  -14.0553   20.1327 C   0  0  0  0  0  0  0  0  0  0  0  0
    7.9941  -13.5920   18.7576 C   0  0  0  0  0  0  0  0  0  0  0  0
    7.1478  -13.0079   18.0364 O   0  0  0  0  0  0  0  0  0  0  0  0
    8.2219  -15.9531   21.6394 C   0  0  0  0  0  0  0  0  0  0  0  0
    7.1426  -16.2790   22.1963 O   0  0  0  0  0  0  0  0  0  0  0  0
    9.2580  -13.8048   18.2307 O   0  0  0  0  0  0  0  0  0  0  0  0
    9.8451  -18.9697   22.2029 C   0  0  0  0  0  0  0  0  0  0  0  0
   10.3441  -18.1328   23.3467 C   0  0  2  0  0  0  0  0  0  0  0  0
   10.3584  -18.8932   24.6513 C   0  0  0  0  0  0  0  0  0  0  0  0
    9.4523  -16.8989   23.5480 C   0  0  2  0  0  0  0  0  0  0  0  0
    9.4390  -16.0675   22.3939 N   0  0  0  0  0  0  0  0  0  0  0  0
   10.0081  -16.2106   24.7502 C   0  0  0  0  0  0  0  0  0  0  0  0
   11.1686  -15.7454   24.6635 O   0  0  0  0  0  0  0  0  0  0  0  0
    9.2643  -16.0797   25.9532 N   0  0  0  0  0  0  0  0  0  0  0  0
    9.8243  -15.4750   27.1532 C   0  0  1  0  0  0  0  0  0  0  0  0
    8.6675  -14.8623   27.9244 C   0  0  0  0  0  0  0  0  0  0  0  0
    8.0213  -13.7563   27.1773 C   0  0  0  0  0  0  0  0  0  0  0  0
    6.7882  -13.9645   26.6101 C   0  0  0  0  0  0  0  0  0  0  0  0
    6.1786  -12.9216   25.9065 C   0  0  0  0  0  0  0  0  0  0  0  0
    6.8094  -11.6955   25.7830 C   0  0  0  0  0  0  0  0  0  0  0  0
    8.0641  -11.4884   26.3618 C   0  0  0  0  0  0  0  0  0  0  0  0
    8.6344  -12.5383   27.0476 C   0  0  0  0  0  0  0  0  0  0  0  0
   10.4314  -16.5004   28.0430 C   0  0  0  0  0  0  0  0  0  0  0  0
   10.3169  -17.8395   27.8075 O   0  0  0  0  0  0  0  0  0  0  0  0
   11.0698  -16.0853   29.0451 O   0  0  0  0  0  0  0  0  0  0  0  0
  2  3  1  0
  2  1  1  6
  4  3  1  0
  4  8  1  0
  5  4  2  0
  6  2  1  0
  7  6  2  0
 10  9  1  6
 10 12  1  0
 11 10  1  0
 12 13  1  6
 13  6  1  0
 14 12  1  0
 14 16  1  0
 15 14  2  0
 17 16  1  0
 17 25  1  0
 17 18  1  1
 19 18  1  0
 19 20  2  0
 21 20  1  0
 22 21  2  0
 23 24  2  0
 23 22  1  0
 24 19  1  0
 25 26  1  0
 27 25  2  0
M  END
$$$$
