DVF.pdb
     RDKit          3D

 27 27  0  0  1  0  0  0  0  0999 V2000
    9.1548  -18.0411   18.3752 N   0  0  0  0  0  0  0  0  0  0  0  0
    9.7529  -18.4508   19.6248 C   0  0  1  0  0  0  0  0  0  0  0  0
   11.2369  -18.1968   19.5236 C   0  0  0  0  0  0  0  0  0  0  0  0
   11.7919  -19.1539   18.5377 C   0  0  0  0  0  0  0  0  0  0  0  0
   12.3868  -18.7870   17.4943 O   0  0  0  0  0  0  0  0  0  0  0  0
    9.1212  -17.7334   20.7320 C   0  0  0  0  0  0  0  0  0  0  0  0
    9.0820  -16.4769   20.6983 O   0  0  0  0  0  0  0  0  0  0  0  0
   11.6568  -20.5147   18.7621 O   0  0  0  0  0  0  0  0  0  0  0  0
    6.1856  -17.5213   24.6624 C   0  0  0  0  0  0  0  0  0  0  0  0
    6.7947  -18.3648   23.5785 C   0  0  2  0  0  0  0  0  0  0  0  0
    7.3547  -19.6637   24.1078 C   0  0  0  0  0  0  0  0  0  0  0  0
    7.9472  -17.6183   22.8906 C   0  0  2  0  0  0  0  0  0  0  0  0
    8.5403  -18.4025   21.8628 N   0  0  0  0  0  0  0  0  0  0  0  0
    8.9026  -17.2846   23.9877 C   0  0  0  0  0  0  0  0  0  0  0  0
    9.7253  -18.1679   24.3246 O   0  0  0  0  0  0  0  0  0  0  0  0
    8.8930  -16.0204   24.6351 N   0  0  0  0  0  0  0  0  0  0  0  0
    9.8623  -15.6631   25.6608 C   0  0  1  0  0  0  0  0  0  0  0  0
    9.9668  -14.1474   25.6660 C   0  0  0  0  0  0  0  0  0  0  0  0
    8.6533  -13.4974   25.8922 C   0  0  0  0  0  0  0  0  0  0  0  0
    8.3895  -12.9327   27.1158 C   0  0  0  0  0  0  0  0  0  0  0  0
    7.1516  -12.3193   27.3288 C   0  0  0  0  0  0  0  0  0  0  0  0
    6.2042  -12.2815   26.3200 C   0  0  0  0  0  0  0  0  0  0  0  0
    6.4771  -12.8576   25.0767 C   0  0  0  0  0  0  0  0  0  0  0  0
    7.7071  -13.4532   24.9028 C   0  0  0  0  0  0  0  0  0  0  0  0
    9.3896  -16.0603   27.0138 C   0  0  0  0  0  0  0  0  0  0  0  0
   10.1971  -16.0304   28.1133 O   0  0  0  0  0  0  0  0  0  0  0  0
    8.1923  -16.4344   27.1165 O   0  0  0  0  0  0  0  0  0  0  0  0
  2  3  1  0
  2  1  1  6
  4  3  1  0
  4  8  1  0
  5  4  2  0
  6  2  1  0
  7  6  2  0
 10  9  1  1
 10 12  1  0
 11 10  1  0
 12 13  1  6
 13  6  1  0
 14 12  1  0
 14 16  1  0
 15 14  2  0
 17 16  1  0
 17 25  1  0
 17 18  1  1
 19 18  1  0
 19 20  2  0
 21 20  1  0
 22 21  2  0
 23 24  2  0
 23 22  1  0
 24 19  1  0
 25 26  1  0
 27 25  2  0
M  END
$$$$
