PHI.pdb
     RDKit          3D

 26 27  0  0  1  0  0  0  0  0999 V2000
   27.8982  -21.6438  -15.3601 N   0  0  0  0  0  0  0  0  0  0  0  0
   28.6061  -21.6795  -16.6264 C   0  0  0  0  0  0  0  0  0  0  0  0
   28.5649  -20.2899  -17.1967 C   0  0  0  0  0  0  0  0  0  0  0  0
   27.8554  -19.4739  -16.1116 C   0  0  0  0  0  0  0  0  0  0  0  0
   28.1051  -20.3072  -14.8967 C   0  0  1  0  0  0  0  0  0  0  0  0
   27.2505  -19.9542  -13.7440 C   0  0  0  0  0  0  0  0  0  0  0  0
   27.2905  -18.7855  -13.2932 O   0  0  0  0  0  0  0  0  0  0  0  0
   26.3756  -20.8967  -13.1194 N   0  0  0  0  0  0  0  0  0  0  0  0
   25.4025  -20.4405  -12.1540 C   0  0  1  0  0  0  0  0  0  0  0  0
   23.9896  -20.5702  -12.5832 C   0  0  0  0  0  0  0  0  0  0  0  0
   23.5973  -19.8586  -13.8034 C   0  0  0  0  0  0  0  0  0  0  0  0
   23.1020  -18.5972  -13.9646 C   0  0  0  0  0  0  0  0  0  0  0  0
   22.9088  -18.3378  -15.2889 N   0  0  0  0  0  0  0  0  0  0  0  0
   23.2864  -19.4386  -15.9318 C   0  0  0  0  0  0  0  0  0  0  0  0
   23.7036  -20.3671  -15.0718 N   0  0  0  0  0  0  0  0  0  0  0  0
   25.6545  -21.0353  -10.8109 C   0  0  0  0  0  0  0  0  0  0  0  0
   25.8442  -22.2660  -10.7268 O   0  0  0  0  0  0  0  0  0  0  0  0
   28.5317  -18.3681   -7.0646 C   0  0  0  0  0  0  0  0  0  0  0  0
   27.8720  -19.4345   -7.8758 C   0  0  0  0  0  0  0  0  0  0  0  0
   26.5072  -19.8180   -7.4138 C   0  0  2  0  0  0  0  0  0  0  0  0
   26.5679  -20.2967   -5.9838 C   0  0  0  0  0  0  0  0  0  0  0  0
   25.8260  -20.8343   -8.2953 C   0  0  2  0  0  0  0  0  0  0  0  0
   25.6852  -20.2527   -9.6339 N   0  0  0  0  0  0  0  0  0  0  0  0
   24.4754  -21.1246   -7.7513 C   0  0  0  0  0  0  0  0  0  0  0  0
   23.4786  -20.5075   -8.1982 O   0  0  0  0  0  0  0  0  0  0  0  0
   24.2609  -22.0613   -6.7561 O   0  0  0  0  0  0  0  0  0  0  0  0
  2  1  1  0
  3  2  1  0
  4  3  1  0
  4  5  1  0
  5  1  1  0
  5  6  1  1
  6  8  1  0
  7  6  2  0
  9  8  1  0
 10 11  1  0
  9 10  1  6
 11 12  2  0
 12 13  1  0
 14 13  1  0
 15 11  1  0
 15 14  2  0
 16  9  1  0
 17 16  2  0
 19 18  1  0
 19 20  1  0
 20 22  1  0
 20 21  1  1
 22 23  1  6
 22 24  1  0
 23 16  1  0
 24 25  2  0
 24 26  1  0
M  END
$$$$
