PHI.pdb
     RDKit          3D

 26 27  0  0  1  0  0  0  0  0999 V2000
   27.9291  -21.3905  -13.4417 N   0  0  0  0  0  0  0  0  0  0  0  0
   28.3244  -21.3701  -14.8378 C   0  0  0  0  0  0  0  0  0  0  0  0
   27.7669  -20.1104  -15.4380 C   0  0  0  0  0  0  0  0  0  0  0  0
   27.1091  -19.4030  -14.2492 C   0  0  0  0  0  0  0  0  0  0  0  0
   27.8436  -20.0058  -13.0961 C   0  0  1  0  0  0  0  0  0  0  0  0
   27.1964  -19.7735  -11.7880 C   0  0  0  0  0  0  0  0  0  0  0  0
   26.9055  -18.6012  -11.4537 O   0  0  0  0  0  0  0  0  0  0  0  0
   26.8872  -20.8372  -10.8843 N   0  0  0  0  0  0  0  0  0  0  0  0
   26.1360  -20.5604   -9.6819 C   0  0  1  0  0  0  0  0  0  0  0  0
   24.8091  -21.2175   -9.6100 C   0  0  0  0  0  0  0  0  0  0  0  0
   23.8136  -20.8167  -10.6087 C   0  0  0  0  0  0  0  0  0  0  0  0
   22.8792  -19.8228  -10.5688 C   0  0  0  0  0  0  0  0  0  0  0  0
   22.1846  -19.7886  -11.7412 N   0  0  0  0  0  0  0  0  0  0  0  0
   22.6956  -20.7588  -12.4928 C   0  0  0  0  0  0  0  0  0  0  0  0
   23.6721  -21.3927  -11.8444 N   0  0  0  0  0  0  0  0  0  0  0  0
   26.9619  -20.7930   -8.4634 C   0  0  0  0  0  0  0  0  0  0  0  0
   27.7302  -21.7764   -8.4393 O   0  0  0  0  0  0  0  0  0  0  0  0
   30.4844  -18.8054   -6.1051 C   0  0  0  0  0  0  0  0  0  0  0  0
   29.1210  -18.2168   -6.2631 C   0  0  0  0  0  0  0  0  0  0  0  0
   28.0483  -18.9062   -5.4904 C   0  0  2  0  0  0  0  0  0  0  0  0
   28.4842  -19.0813   -4.0562 C   0  0  0  0  0  0  0  0  0  0  0  0
   27.6131  -20.2210   -6.0871 C   0  0  2  0  0  0  0  0  0  0  0  0
   26.9030  -19.9386   -7.3385 N   0  0  0  0  0  0  0  0  0  0  0  0
   26.6842  -20.8991   -5.1481 C   0  0  0  0  0  0  0  0  0  0  0  0
   25.4450  -20.7934   -5.3136 O   0  0  0  0  0  0  0  0  0  0  0  0
   27.1298  -21.6561   -4.0794 O   0  0  0  0  0  0  0  0  0  0  0  0
  2  1  1  0
  3  2  1  0
  4  3  1  0
  4  5  1  0
  5  1  1  0
  5  6  1  1
  6  8  1  0
  7  6  2  0
  9  8  1  0
 10 11  1  0
  9 10  1  1
 11 12  2  0
 12 13  1  0
 14 13  1  0
 15 11  1  0
 15 14  2  0
 16  9  1  0
 17 16  2  0
 19 18  1  0
 19 20  1  0
 20 22  1  0
 20 21  1  1
 22 23  1  6
 22 24  1  0
 23 16  1  0
 24 25  2  0
 24 26  1  0
M  END
$$$$
