TST.pdb
     RDKit          3D

 21 20  0  0  1  0  0  0  0  0999 V2000
   10.5935  -13.8752   20.7606 C   0  0  0  0  0  0  0  0  0  0  0  0
    9.6841  -13.2006   19.7644 C   0  0  1  0  0  0  0  0  0  0  0  0
   10.3415  -12.9016   18.5827 O   0  0  0  0  0  0  0  0  0  0  0  0
    8.5059  -14.1375   19.4807 C   0  0  2  0  0  0  0  0  0  0  0  0
    7.7311  -13.5297   18.4414 N   0  0  0  0  0  0  0  0  0  0  0  0
    7.6972  -14.2782   20.7318 C   0  0  0  0  0  0  0  0  0  0  0  0
    6.9219  -13.3730   21.1183 O   0  0  0  0  0  0  0  0  0  0  0  0
    8.3022  -17.7636   22.9771 O   0  0  0  0  0  0  0  0  0  0  0  0
    7.0063  -17.2224   22.8560 C   0  0  0  0  0  0  0  0  0  0  0  0
    7.0869  -15.6960   22.7334 C   0  0  2  0  0  0  0  0  0  0  0  0
    7.8166  -15.4549   21.4829 N   0  0  0  0  0  0  0  0  0  0  0  0
    7.9088  -15.1179   23.8134 C   0  0  0  0  0  0  0  0  0  0  0  0
    9.1716  -14.9899   23.7398 O   0  0  0  0  0  0  0  0  0  0  0  0
    7.4119  -11.7354   25.9514 C   0  0  0  0  0  0  0  0  0  0  0  0
    7.4814  -12.9688   26.8249 C   0  0  1  0  0  0  0  0  0  0  0  0
    6.1628  -13.3499   27.0863 O   0  0  0  0  0  0  0  0  0  0  0  0
    8.1425  -14.1259   26.1064 C   0  0  2  0  0  0  0  0  0  0  0  0
    7.3327  -14.6498   25.0471 N   0  0  0  0  0  0  0  0  0  0  0  0
    8.4883  -15.2184   27.0291 C   0  0  0  0  0  0  0  0  0  0  0  0
    8.0247  -16.3587   26.8516 O   0  0  0  0  0  0  0  0  0  0  0  0
    9.3282  -14.9813   28.0944 O   0  0  0  0  0  0  0  0  0  0  0  0
  2  1  1  1
  2  3  1  0
  2  4  1  0
  4  5  1  6
  6  4  1  0
  6 11  1  0
  7  6  2  0
  8  9  1  0
 10 11  1  0
 10  9  1  1
 10 12  1  0
 12 18  1  0
 13 12  2  0
 15 14  1  6
 15 17  1  0
 16 15  1  0
 17 19  1  0
 17 18  1  6
 19 20  2  0
 19 21  1  0
M  END
$$$$
