TST.pdb
     RDKit          3D

 21 20  0  0  1  0  0  0  0  0999 V2000
    7.0364  -14.5920   17.9678 C   0  0  0  0  0  0  0  0  0  0  0  0
    7.7770  -14.7938   19.2661 C   0  0  1  0  0  0  0  0  0  0  0  0
    9.0395  -15.3262   19.0649 O   0  0  0  0  0  0  0  0  0  0  0  0
    7.8912  -13.4370   19.9680 C   0  0  2  0  0  0  0  0  0  0  0  0
    8.5862  -12.5621   19.0730 N   0  0  0  0  0  0  0  0  0  0  0  0
    8.6633  -13.6205   21.2366 C   0  0  0  0  0  0  0  0  0  0  0  0
    9.8946  -13.3964   21.2945 O   0  0  0  0  0  0  0  0  0  0  0  0
    6.4164  -14.7590   24.4761 O   0  0  0  0  0  0  0  0  0  0  0  0
    7.5672  -13.9841   24.7253 C   0  0  0  0  0  0  0  0  0  0  0  0
    8.6406  -14.2900   23.6738 C   0  0  2  0  0  0  0  0  0  0  0  0
    7.9838  -14.0538   22.3826 N   0  0  0  0  0  0  0  0  0  0  0  0
    9.0158  -15.7166   23.6955 C   0  0  0  0  0  0  0  0  0  0  0  0
    8.3350  -16.6279   23.1277 O   0  0  0  0  0  0  0  0  0  0  0  0
   11.6585  -17.6588   22.1955 C   0  0  0  0  0  0  0  0  0  0  0  0
   11.8033  -17.9056   23.6811 C   0  0  1  0  0  0  0  0  0  0  0  0
   12.7831  -17.0218   24.1408 O   0  0  0  0  0  0  0  0  0  0  0  0
   10.5276  -17.5802   24.4287 C   0  0  2  0  0  0  0  0  0  0  0  0
   10.1969  -16.1876   24.3709 N   0  0  0  0  0  0  0  0  0  0  0  0
   10.5965  -17.9973   25.8379 C   0  0  0  0  0  0  0  0  0  0  0  0
   10.4376  -17.1632   26.7467 O   0  0  0  0  0  0  0  0  0  0  0  0
   10.8378  -19.3153   26.1558 O   0  0  0  0  0  0  0  0  0  0  0  0
  2  1  1  6
  2  3  1  0
  2  4  1  0
  4  5  1  6
  6  4  1  0
  6 11  1  0
  7  6  2  0
  8  9  1  0
 10 11  1  0
 10  9  1  1
 10 12  1  0
 12 18  1  0
 13 12  2  0
 15 14  1  6
 15 17  1  0
 16 15  1  0
 17 19  1  0
 17 18  1  1
 19 20  2  0
 19 21  1  0
M  END
$$$$
