TST.pdb
     RDKit          3D

 21 20  0  0  1  0  0  0  0  0999 V2000
   10.5776  -14.7728   20.8263 C   0  0  0  0  0  0  0  0  0  0  0  0
    9.7756  -13.6833   20.1597 C   0  0  1  0  0  0  0  0  0  0  0  0
   10.2414  -13.4028   18.8860 O   0  0  0  0  0  0  0  0  0  0  0  0
    8.3147  -14.1385   20.0901 C   0  0  2  0  0  0  0  0  0  0  0  0
    7.6003  -13.1360   19.3592 N   0  0  0  0  0  0  0  0  0  0  0  0
    7.7854  -14.2561   21.4848 C   0  0  0  0  0  0  0  0  0  0  0  0
    7.4007  -13.2523   22.1284 O   0  0  0  0  0  0  0  0  0  0  0  0
    7.8176  -18.0968   23.3951 O   0  0  0  0  0  0  0  0  0  0  0  0
    6.7265  -17.2054   23.4367 C   0  0  0  0  0  0  0  0  0  0  0  0
    7.2339  -15.7584   23.4413 C   0  0  2  0  0  0  0  0  0  0  0  0
    7.7222  -15.5242   22.0771 N   0  0  0  0  0  0  0  0  0  0  0  0
    8.3993  -15.6058   24.3329 C   0  0  0  0  0  0  0  0  0  0  0  0
    9.6000  -15.7735   23.9500 O   0  0  0  0  0  0  0  0  0  0  0  0
    8.8664  -12.5818   26.9374 C   0  0  0  0  0  0  0  0  0  0  0  0
    9.1373  -13.9221   27.5849 C   0  0  1  0  0  0  0  0  0  0  0  0
    7.9707  -14.2822   28.2645 O   0  0  0  0  0  0  0  0  0  0  0  0
    9.3988  -14.9987   26.5529 C   0  0  2  0  0  0  0  0  0  0  0  0
    8.2599  -15.2508   25.7213 N   0  0  0  0  0  0  0  0  0  0  0  0
    9.8259  -16.2617   27.1748 C   0  0  0  0  0  0  0  0  0  0  0  0
   10.8264  -16.2897   27.9130 O   0  0  0  0  0  0  0  0  0  0  0  0
    9.1177  -17.4194   26.9410 O   0  0  0  0  0  0  0  0  0  0  0  0
  2  1  1  6
  2  3  1  0
  2  4  1  0
  4  5  1  6
  6  4  1  0
  6 11  1  0
  7  6  2  0
  8  9  1  0
 10 11  1  0
 10  9  1  6
 10 12  1  0
 12 18  1  0
 13 12  2  0
 15 14  1  6
 15 17  1  0
 16 15  1  0
 17 19  1  0
 17 18  1  1
 19 20  2  0
 19 21  1  0
M  END
$$$$
