TST.pdb
     RDKit          3D

 21 20  0  0  1  0  0  0  0  0999 V2000
    7.6493  -12.1627   19.3791 C   0  0  0  0  0  0  0  0  0  0  0  0
    7.9005  -13.6064   19.0220 C   0  0  1  0  0  0  0  0  0  0  0  0
    8.3042  -13.7514   17.7053 O   0  0  0  0  0  0  0  0  0  0  0  0
    8.9825  -14.1503   19.9601 C   0  0  2  0  0  0  0  0  0  0  0  0
    9.3887  -15.4192   19.4361 N   0  0  0  0  0  0  0  0  0  0  0  0
    8.3939  -14.3050   21.3271 C   0  0  0  0  0  0  0  0  0  0  0  0
    7.9089  -13.3306   21.9478 O   0  0  0  0  0  0  0  0  0  0  0  0
    9.2949  -17.5950   23.6445 O   0  0  0  0  0  0  0  0  0  0  0  0
    7.9237  -17.3820   23.3968 C   0  0  0  0  0  0  0  0  0  0  0  0
    7.6621  -15.8906   23.1544 C   0  0  2  0  0  0  0  0  0  0  0  0
    8.3897  -15.5746   21.9194 N   0  0  0  0  0  0  0  0  0  0  0  0
    8.2664  -15.0646   24.2169 C   0  0  0  0  0  0  0  0  0  0  0  0
    9.4602  -14.6297   24.1714 O   0  0  0  0  0  0  0  0  0  0  0  0
    6.8840  -11.7249   25.7383 C   0  0  0  0  0  0  0  0  0  0  0  0
    7.1367  -12.7381   26.8331 C   0  0  1  0  0  0  0  0  0  0  0  0
    5.9149  -13.3665   27.0878 O   0  0  0  0  0  0  0  0  0  0  0  0
    8.1034  -13.8143   26.3863 C   0  0  2  0  0  0  0  0  0  0  0  0
    7.5381  -14.6855   25.3996 N   0  0  0  0  0  0  0  0  0  0  0  0
    8.5855  -14.6220   27.5176 C   0  0  0  0  0  0  0  0  0  0  0  0
    9.1575  -14.0767   28.4779 O   0  0  0  0  0  0  0  0  0  0  0  0
    8.4044  -15.9871   27.5167 O   0  0  0  0  0  0  0  0  0  0  0  0
  2  1  1  1
  2  3  1  0
  2  4  1  0
  4  5  1  6
  6  4  1  0
  6 11  1  0
  7  6  2  0
  8  9  1  0
 10 11  1  0
 10  9  1  1
 10 12  1  0
 12 18  1  0
 13 12  2  0
 15 14  1  6
 15 17  1  0
 16 15  1  0
 17 19  1  0
 17 18  1  6
 19 20  2  0
 19 21  1  0
M  END
$$$$
