TST.pdb
     RDKit          3D

 21 20  0  0  1  0  0  0  0  0999 V2000
    7.4219  -16.1657   19.1247 C   0  0  0  0  0  0  0  0  0  0  0  0
    8.0900  -14.9880   18.4605 C   0  0  1  0  0  0  0  0  0  0  0  0
    7.6886  -14.8399   17.1433 O   0  0  0  0  0  0  0  0  0  0  0  0
    7.7382  -13.7269   19.2557 C   0  0  2  0  0  0  0  0  0  0  0  0
    8.1984  -12.6089   18.4889 N   0  0  0  0  0  0  0  0  0  0  0  0
    8.4368  -13.7869   20.5776 C   0  0  0  0  0  0  0  0  0  0  0  0
    9.6581  -13.5298   20.6876 O   0  0  0  0  0  0  0  0  0  0  0  0
    7.5478  -13.8128   25.3363 O   0  0  0  0  0  0  0  0  0  0  0  0
    7.1256  -13.7543   23.9927 C   0  0  0  0  0  0  0  0  0  0  0  0
    8.2673  -14.1913   23.0669 C   0  0  2  0  0  0  0  0  0  0  0  0
    7.6985  -14.1402   21.7147 N   0  0  0  0  0  0  0  0  0  0  0  0
    8.6402  -15.5980   23.3091 C   0  0  0  0  0  0  0  0  0  0  0  0
    7.8682  -16.5784   23.0659 O   0  0  0  0  0  0  0  0  0  0  0  0
   11.0933  -17.7601   21.7826 C   0  0  0  0  0  0  0  0  0  0  0  0
   11.4225  -17.8166   23.2582 C   0  0  1  0  0  0  0  0  0  0  0  0
   12.4809  -16.9286   23.4672 O   0  0  0  0  0  0  0  0  0  0  0  0
   10.2657  -17.3346   24.1078 C   0  0  2  0  0  0  0  0  0  0  0  0
    9.9237  -15.9683   23.8461 N   0  0  0  0  0  0  0  0  0  0  0  0
   10.5381  -17.4926   25.5449 C   0  0  0  0  0  0  0  0  0  0  0  0
   10.5443  -16.4999   26.2942 O   0  0  0  0  0  0  0  0  0  0  0  0
   10.7875  -18.7426   26.0660 O   0  0  0  0  0  0  0  0  0  0  0  0
  2  1  1  1
  2  3  1  0
  2  4  1  0
  4  5  1  6
  6  4  1  0
  6 11  1  0
  7  6  2  0
  8  9  1  0
 10 11  1  0
 10  9  1  1
 10 12  1  0
 12 18  1  0
 13 12  2  0
 15 14  1  6
 15 17  1  0
 16 15  1  0
 17 19  1  0
 17 18  1  1
 19 20  2  0
 19 21  1  0
M  END
$$$$
