TST.pdb
     RDKit          3D

 21 20  0  0  1  0  0  0  0  0999 V2000
   10.1478  -20.7007   17.8092 C   0  0  0  0  0  0  0  0  0  0  0  0
    9.7202  -19.6509   18.8041 C   0  0  1  0  0  0  0  0  0  0  0  0
   10.7628  -18.8055   19.1451 O   0  0  0  0  0  0  0  0  0  0  0  0
    8.5766  -18.8418   18.1846 C   0  0  2  0  0  0  0  0  0  0  0  0
    9.1441  -18.0600   17.1279 N   0  0  0  0  0  0  0  0  0  0  0  0
    7.9906  -17.9591   19.2413 C   0  0  0  0  0  0  0  0  0  0  0  0
    8.4923  -16.8453   19.5196 O   0  0  0  0  0  0  0  0  0  0  0  0
    3.8850  -18.0098   20.1556 O   0  0  0  0  0  0  0  0  0  0  0  0
    4.8179  -18.3246   21.1643 C   0  0  0  0  0  0  0  0  0  0  0  0
    6.1326  -17.5766   20.9117 C   0  0  2  0  0  0  0  0  0  0  0  0
    6.8527  -18.3977   19.9311 N   0  0  0  0  0  0  0  0  0  0  0  0
    6.9701  -17.5474   22.1258 C   0  0  0  0  0  0  0  0  0  0  0  0
    7.8547  -18.4224   22.3869 O   0  0  0  0  0  0  0  0  0  0  0  0
    7.1175  -14.0891   24.8243 C   0  0  0  0  0  0  0  0  0  0  0  0
    8.2327  -15.0689   24.5325 C   0  0  1  0  0  0  0  0  0  0  0  0
    9.0129  -15.1446   25.6893 O   0  0  0  0  0  0  0  0  0  0  0  0
    7.6987  -16.4605   24.2669 C   0  0  2  0  0  0  0  0  0  0  0  0
    6.8449  -16.5113   23.1177 N   0  0  0  0  0  0  0  0  0  0  0  0
    6.9718  -16.9994   25.4269 C   0  0  0  0  0  0  0  0  0  0  0  0
    5.7317  -17.0904   25.4021 O   0  0  0  0  0  0  0  0  0  0  0  0
    7.6636  -17.4056   26.5461 O   0  0  0  0  0  0  0  0  0  0  0  0
  2  1  1  6
  2  3  1  0
  2  4  1  0
  4  5  1  6
  6  4  1  0
  6 11  1  0
  7  6  2  0
  8  9  1  0
 10 11  1  0
 10  9  1  1
 10 12  1  0
 12 18  1  0
 13 12  2  0
 15 14  1  1
 15 17  1  0
 16 15  1  0
 17 19  1  0
 17 18  1  6
 19 20  2  0
 19 21  1  0
M  END
$$$$
