TST.pdb
     RDKit          3D

 21 20  0  0  1  0  0  0  0  0999 V2000
    2.3677  -18.7599   21.5852 C   0  0  0  0  0  0  0  0  0  0  0  0
    3.7089  -18.7095   22.2733 C   0  0  1  0  0  0  0  0  0  0  0  0
    4.1139  -19.9596   22.7106 O   0  0  0  0  0  0  0  0  0  0  0  0
    4.7341  -18.1480   21.2833 C   0  0  2  0  0  0  0  0  0  0  0  0
    4.7926  -19.0606   20.1817 N   0  0  0  0  0  0  0  0  0  0  0  0
    6.0607  -18.0600   21.9700 C   0  0  0  0  0  0  0  0  0  0  0  0
    6.9923  -18.8544   21.7039 O   0  0  0  0  0  0  0  0  0  0  0  0
    6.3242  -14.9183   24.4348 O   0  0  0  0  0  0  0  0  0  0  0  0
    7.5673  -15.3355   23.9177 C   0  0  0  0  0  0  0  0  0  0  0  0
    7.5324  -16.8402   23.6238 C   0  0  2  0  0  0  0  0  0  0  0  0
    6.2564  -17.0613   22.9329 N   0  0  0  0  0  0  0  0  0  0  0  0
    7.4719  -17.6249   24.8715 C   0  0  0  0  0  0  0  0  0  0  0  0
    6.4601  -17.6387   25.6412 O   0  0  0  0  0  0  0  0  0  0  0  0
    7.4704  -21.2410   25.2991 C   0  0  0  0  0  0  0  0  0  0  0  0
    8.6118  -20.7447   26.1592 C   0  0  1  0  0  0  0  0  0  0  0  0
    9.7768  -20.8880   25.4011 O   0  0  0  0  0  0  0  0  0  0  0  0
    8.4705  -19.2718   26.4798 C   0  0  2  0  0  0  0  0  0  0  0  0
    8.5699  -18.4439   25.3150 N   0  0  0  0  0  0  0  0  0  0  0  0
    9.4659  -18.8282   27.4682 C   0  0  0  0  0  0  0  0  0  0  0  0
   10.2553  -17.9074   27.1925 O   0  0  0  0  0  0  0  0  0  0  0  0
    9.5270  -19.4322   28.7042 O   0  0  0  0  0  0  0  0  0  0  0  0
  2  1  1  6
  2  3  1  0
  2  4  1  0
  4  5  1  6
  6  4  1  0
  6 11  1  0
  7  6  2  0
  8  9  1  0
 10 11  1  0
 10  9  1  1
 10 12  1  0
 12 18  1  0
 13 12  2  0
 15 14  1  6
 15 17  1  0
 16 15  1  0
 17 19  1  0
 17 18  1  6
 19 20  2  0
 19 21  1  0
M  END
$$$$
