TST.pdb
     RDKit          3D

 21 20  0  0  1  0  0  0  0  0999 V2000
    7.3583  -12.4807   19.0772 C   0  0  0  0  0  0  0  0  0  0  0  0
    8.0170  -13.8115   18.8134 C   0  0  1  0  0  0  0  0  0  0  0  0
    8.6683  -13.8338   17.5914 O   0  0  0  0  0  0  0  0  0  0  0  0
    9.0181  -14.0821   19.9407 C   0  0  2  0  0  0  0  0  0  0  0  0
    9.7577  -15.2504   19.5696 N   0  0  0  0  0  0  0  0  0  0  0  0
    8.2570  -14.3166   21.2076 C   0  0  0  0  0  0  0  0  0  0  0  0
    7.4928  -13.4464   21.6857 O   0  0  0  0  0  0  0  0  0  0  0  0
    9.4889  -17.4951   23.4110 O   0  0  0  0  0  0  0  0  0  0  0  0
    8.0877  -17.3436   23.3913 C   0  0  0  0  0  0  0  0  0  0  0  0
    7.7243  -15.8783   23.1224 C   0  0  2  0  0  0  0  0  0  0  0  0
    8.4092  -15.5427   21.8682 N   0  0  0  0  0  0  0  0  0  0  0  0
    8.2902  -14.9912   24.1563 C   0  0  0  0  0  0  0  0  0  0  0  0
    9.4574  -14.4919   24.0875 O   0  0  0  0  0  0  0  0  0  0  0  0
    6.7480  -11.7245   25.8699 C   0  0  0  0  0  0  0  0  0  0  0  0
    7.1101  -12.7796   26.8920 C   0  0  1  0  0  0  0  0  0  0  0  0
    5.9397  -13.4927   27.1641 O   0  0  0  0  0  0  0  0  0  0  0  0
    8.1141  -13.7700   26.3413 C   0  0  2  0  0  0  0  0  0  0  0  0
    7.5515  -14.6209   25.3354 N   0  0  0  0  0  0  0  0  0  0  0  0
    8.6985  -14.6053   27.4020 C   0  0  0  0  0  0  0  0  0  0  0  0
    8.5578  -15.8408   27.3756 O   0  0  0  0  0  0  0  0  0  0  0  0
    9.4046  -14.0206   28.4296 O   0  0  0  0  0  0  0  0  0  0  0  0
  2  1  1  1
  2  3  1  0
  2  4  1  0
  4  5  1  6
  6  4  1  0
  6 11  1  0
  7  6  2  0
  8  9  1  0
 10 11  1  0
 10  9  1  1
 10 12  1  0
 12 18  1  0
 13 12  2  0
 15 14  1  6
 15 17  1  0
 16 15  1  0
 17 19  1  0
 17 18  1  6
 19 20  2  0
 19 21  1  0
M  END
$$$$
