TST.pdb
     RDKit          3D

 21 20  0  0  1  0  0  0  0  0999 V2000
    7.8822  -16.8902   16.2114 C   0  0  0  0  0  0  0  0  0  0  0  0
    8.2580  -15.9305   15.1103 C   0  0  1  0  0  0  0  0  0  0  0  0
    7.6369  -16.2465   13.9136 O   0  0  0  0  0  0  0  0  0  0  0  0
    7.8555  -14.5187   15.5476 C   0  0  2  0  0  0  0  0  0  0  0  0
    7.9978  -13.6714   14.4025 N   0  0  0  0  0  0  0  0  0  0  0  0
    8.7708  -14.0816   16.6477 C   0  0  0  0  0  0  0  0  0  0  0  0
    9.9698  -13.7913   16.4286 O   0  0  0  0  0  0  0  0  0  0  0  0
    7.4850  -14.6293   20.5741 O   0  0  0  0  0  0  0  0  0  0  0  0
    8.0469  -13.3805   20.2403 C   0  0  0  0  0  0  0  0  0  0  0  0
    9.0602  -13.5510   19.1021 C   0  0  2  0  0  0  0  0  0  0  0  0
    8.2655  -13.9981   17.9518 N   0  0  0  0  0  0  0  0  0  0  0  0
   10.0140  -14.6370   19.3968 C   0  0  0  0  0  0  0  0  0  0  0  0
    9.7452  -15.8686   19.2312 O   0  0  0  0  0  0  0  0  0  0  0  0
   13.4723  -14.8774   17.9476 C   0  0  0  0  0  0  0  0  0  0  0  0
   13.6240  -15.1273   19.4320 C   0  0  1  0  0  0  0  0  0  0  0  0
   14.0947  -13.9373   19.9930 O   0  0  0  0  0  0  0  0  0  0  0  0
   12.2927  -15.4293   20.0869 C   0  0  2  0  0  0  0  0  0  0  0  0
   11.3377  -14.3779   19.9006 N   0  0  0  0  0  0  0  0  0  0  0  0
   12.4378  -15.6940   21.5268 C   0  0  0  0  0  0  0  0  0  0  0  0
   11.8758  -14.9597   22.3585 O   0  0  0  0  0  0  0  0  0  0  0  0
   13.1978  -16.7578   21.9591 O   0  0  0  0  0  0  0  0  0  0  0  0
  2  1  1  1
  2  3  1  0
  2  4  1  0
  4  5  1  6
  6  4  1  0
  6 11  1  0
  7  6  2  0
  8  9  1  0
 10 11  1  0
 10  9  1  1
 10 12  1  0
 12 18  1  0
 13 12  2  0
 15 14  1  6
 15 17  1  0
 16 15  1  0
 17 19  1  0
 17 18  1  1
 19 20  2  0
 19 21  1  0
M  END
$$$$
