TST.pdb
     RDKit          3D

 21 20  0  0  1  0  0  0  0  0999 V2000
    6.9477  -18.5068   19.9425 C   0  0  0  0  0  0  0  0  0  0  0  0
    7.7680  -18.3711   18.6842 C   0  0  1  0  0  0  0  0  0  0  0  0
    7.1909  -19.0367   17.6156 O   0  0  0  0  0  0  0  0  0  0  0  0
    7.9005  -16.8804   18.3575 C   0  0  2  0  0  0  0  0  0  0  0  0
    8.4895  -16.7900   17.0557 N   0  0  0  0  0  0  0  0  0  0  0  0
    8.7835  -16.2443   19.3844 C   0  0  0  0  0  0  0  0  0  0  0  0
   10.0305  -16.2337   19.2630 O   0  0  0  0  0  0  0  0  0  0  0  0
    6.9012  -14.9778   22.8612 O   0  0  0  0  0  0  0  0  0  0  0  0
    7.9523  -14.1807   22.3647 C   0  0  0  0  0  0  0  0  0  0  0  0
    8.9591  -15.0557   21.6082 C   0  0  2  0  0  0  0  0  0  0  0  0
    8.1921  -15.6485   20.5060 N   0  0  0  0  0  0  0  0  0  0  0  0
    9.4221  -16.1790   22.4449 C   0  0  0  0  0  0  0  0  0  0  0  0
    8.7259  -17.2193   22.6673 O   0  0  0  0  0  0  0  0  0  0  0  0
   12.5876  -18.1548   21.9520 C   0  0  0  0  0  0  0  0  0  0  0  0
   12.5590  -17.7589   23.4119 C   0  0  1  0  0  0  0  0  0  0  0  0
   13.4148  -16.6627   23.5470 O   0  0  0  0  0  0  0  0  0  0  0  0
   11.1810  -17.3003   23.8397 C   0  0  2  0  0  0  0  0  0  0  0  0
   10.7145  -16.1792   23.0796 N   0  0  0  0  0  0  0  0  0  0  0  0
   11.1362  -16.9600   25.2703 C   0  0  0  0  0  0  0  0  0  0  0  0
   10.8685  -15.8000   25.6303 O   0  0  0  0  0  0  0  0  0  0  0  0
   11.3910  -17.9269   26.2172 O   0  0  0  0  0  0  0  0  0  0  0  0
  2  1  1  1
  2  3  1  0
  2  4  1  0
  4  5  1  6
  6  4  1  0
  6 11  1  0
  7  6  2  0
  8  9  1  0
 10 11  1  0
 10  9  1  1
 10 12  1  0
 12 18  1  0
 13 12  2  0
 15 14  1  6
 15 17  1  0
 16 15  1  0
 17 19  1  0
 17 18  1  6
 19 20  2  0
 19 21  1  0
M  END
$$$$
