MKW.pdb
     RDKit          3D

 32 33  0  0  1  0  0  0  0  0999 V2000
   32.9560  -22.2941   -9.8861 C   0  0  0  0  0  0  0  0  0  0  0  0
   31.6430  -21.3342  -10.6823 S   0  0  0  0  0  0  0  0  0  0  0  0
   30.0528  -22.1727  -10.3877 C   0  0  0  0  0  0  0  0  0  0  0  0
   28.9846  -21.4280  -11.1144 C   0  0  0  0  0  0  0  0  0  0  0  0
   29.4084  -21.1095  -12.5222 C   0  0  2  0  0  0  0  0  0  0  0  0
   30.6796  -20.3829  -12.5125 N   0  0  0  0  0  0  0  0  0  0  0  0
   28.4036  -20.2537  -13.1667 C   0  0  0  0  0  0  0  0  0  0  0  0
   28.2047  -19.0326  -12.8297 O   0  0  0  0  0  0  0  0  0  0  0  0
   27.6037  -20.7553  -14.2020 N   0  0  0  0  0  0  0  0  0  0  0  0
   26.5283  -19.9364  -14.8528 C   0  0  1  0  0  0  0  0  0  0  0  0
   27.0290  -19.7573  -16.2415 C   0  0  0  0  0  0  0  0  0  0  0  0
   27.9697  -18.6965  -16.5796 C   0  0  0  0  0  0  0  0  0  0  0  0
   28.6289  -18.5986  -17.8748 C   0  0  0  0  0  0  0  0  0  0  0  0
   29.5635  -17.5296  -18.2303 C   0  0  0  0  0  0  0  0  0  0  0  0
   29.9751  -17.8232  -19.6432 N   0  0  0  0  0  0  0  0  0  0  0  0
   25.3322  -20.8548  -14.7782 C   0  0  0  0  0  0  0  0  0  0  0  0
   25.4481  -22.1100  -15.0324 O   0  0  0  0  0  0  0  0  0  0  0  0
   24.0909  -20.3012  -14.4226 N   0  0  0  0  0  0  0  0  0  0  0  0
   22.9502  -21.2304  -14.2654 C   0  0  1  0  0  0  0  0  0  0  0  0
   23.3415  -22.1340  -13.1361 C   0  0  0  0  0  0  0  0  0  0  0  0
   23.3633  -21.4392  -11.8515 C   0  0  0  0  0  0  0  0  0  0  0  0
   22.2912  -20.8378  -11.2268 C   0  0  0  0  0  0  0  0  0  0  0  0
   22.6876  -20.2668  -10.0773 N   0  0  0  0  0  0  0  0  0  0  0  0
   24.0070  -20.4840   -9.9345 C   0  0  0  0  0  0  0  0  0  0  0  0
   24.8894  -20.1292   -8.9386 C   0  0  0  0  0  0  0  0  0  0  0  0
   26.2311  -20.4921   -9.0064 C   0  0  0  0  0  0  0  0  0  0  0  0
   26.6996  -21.2181  -10.0811 C   0  0  0  0  0  0  0  0  0  0  0  0
   25.8056  -21.5634  -11.0669 C   0  0  0  0  0  0  0  0  0  0  0  0
   24.4530  -21.2196  -11.0385 C   0  0  0  0  0  0  0  0  0  0  0  0
   21.6931  -20.5079  -14.1489 C   0  0  0  0  0  0  0  0  0  0  0  0
   21.5837  -19.2943  -13.8725 O   0  0  0  0  0  0  0  0  0  0  0  0
   20.4849  -21.1979  -14.3573 O   0  0  0  0  0  0  0  0  0  0  0  0
  2  1  1  0
  3  2  1  0
  4  3  1  0
  5  4  1  0
  5  6  1  1
  7  5  1  0
  7  8  2  0
  9  7  1  0
 10  9  1  0
 10 11  1  6
 11 12  1  0
 12 13  1  0
 13 14  1  0
 14 15  1  0
 16 10  1  0
 17 16  2  0
 18 16  1  0
 19 18  1  0
 19 20  1  1
 20 21  1  0
 21 22  2  0
 22 23  1  0
 24 23  1  0
 25 24  2  0
 26 25  1  0
 27 28  1  0
 27 26  2  0
 28 29  2  0
 29 21  1  0
 29 24  1  0
 30 19  1  0
 30 32  1  0
 31 30  2  0
M  END
$$$$
