MKW.pdb
     RDKit          3D

 32 33  0  0  1  0  0  0  0  0999 V2000
   29.0492  -14.7909  -16.7987 C   0  0  0  0  0  0  0  0  0  0  0  0
   29.7998  -16.2887  -17.4861 S   0  0  0  0  0  0  0  0  0  0  0  0
   28.6534  -17.6810  -17.2295 C   0  0  0  0  0  0  0  0  0  0  0  0
   27.9537  -17.4827  -15.9276 C   0  0  0  0  0  0  0  0  0  0  0  0
   28.0741  -18.7034  -15.0567 C   0  0  2  0  0  0  0  0  0  0  0  0
   27.9484  -19.9151  -15.8692 N   0  0  0  0  0  0  0  0  0  0  0  0
   26.9970  -18.7150  -14.0582 C   0  0  0  0  0  0  0  0  0  0  0  0
   26.7429  -17.7191  -13.2913 O   0  0  0  0  0  0  0  0  0  0  0  0
   26.1857  -19.8468  -13.9033 N   0  0  0  0  0  0  0  0  0  0  0  0
   25.0368  -19.8838  -12.9393 C   0  0  1  0  0  0  0  0  0  0  0  0
   24.0101  -20.6802  -13.6624 C   0  0  0  0  0  0  0  0  0  0  0  0
   22.7225  -20.9916  -13.0545 C   0  0  0  0  0  0  0  0  0  0  0  0
   22.0709  -20.1268  -12.0802 C   0  0  0  0  0  0  0  0  0  0  0  0
   20.7939  -20.4448  -11.4395 C   0  0  0  0  0  0  0  0  0  0  0  0
   19.8419  -20.7022  -12.5707 N   0  0  0  0  0  0  0  0  0  0  0  0
   25.6257  -20.6232  -11.7620 C   0  0  0  0  0  0  0  0  0  0  0  0
   26.2315  -21.7458  -11.9248 O   0  0  0  0  0  0  0  0  0  0  0  0
   25.4949  -20.0513  -10.4855 N   0  0  0  0  0  0  0  0  0  0  0  0
   25.8728  -20.8851   -9.3231 C   0  0  1  0  0  0  0  0  0  0  0  0
   27.0199  -20.1618   -8.6862 C   0  0  0  0  0  0  0  0  0  0  0  0
   27.1660  -20.4904   -7.2705 C   0  0  0  0  0  0  0  0  0  0  0  0
   26.6382  -21.5890   -6.6256 C   0  0  0  0  0  0  0  0  0  0  0  0
   26.9458  -21.5489   -5.3186 N   0  0  0  0  0  0  0  0  0  0  0  0
   27.6703  -20.4388   -5.0923 C   0  0  0  0  0  0  0  0  0  0  0  0
   28.2417  -19.9383   -3.9437 C   0  0  0  0  0  0  0  0  0  0  0  0
   28.9761  -18.7566   -3.9641 C   0  0  0  0  0  0  0  0  0  0  0  0
   29.1434  -18.0643   -5.1449 C   0  0  0  0  0  0  0  0  0  0  0  0
   28.5658  -18.5775   -6.2822 C   0  0  0  0  0  0  0  0  0  0  0  0
   27.8213  -19.7580   -6.3058 C   0  0  0  0  0  0  0  0  0  0  0  0
   24.7177  -21.1861   -8.4917 C   0  0  0  0  0  0  0  0  0  0  0  0
   23.6475  -20.5414   -8.4864 O   0  0  0  0  0  0  0  0  0  0  0  0
   24.7743  -22.2824   -7.6118 O   0  0  0  0  0  0  0  0  0  0  0  0
  2  1  1  0
  3  2  1  0
  4  3  1  0
  5  4  1  0
  5  6  1  6
  7  5  1  0
  7  8  2  0
  9  7  1  0
 10  9  1  0
 10 11  1  6
 11 12  1  0
 12 13  1  0
 13 14  1  0
 14 15  1  0
 16 10  1  0
 17 16  2  0
 18 16  1  0
 19 18  1  0
 19 20  1  1
 20 21  1  0
 21 22  2  0
 22 23  1  0
 24 23  1  0
 25 24  2  0
 26 25  1  0
 27 28  1  0
 27 26  2  0
 28 29  2  0
 29 21  1  0
 29 24  1  0
 30 19  1  0
 30 32  1  0
 31 30  2  0
M  END
$$$$
