MKW.pdb
     RDKit          3D

 32 33  0  0  1  0  0  0  0  0999 V2000
   30.0303  -17.2913  -15.2247 C   0  0  0  0  0  0  0  0  0  0  0  0
   29.6428  -17.0060  -16.9705 S   0  0  0  0  0  0  0  0  0  0  0  0
   27.8778  -17.3687  -17.2385 C   0  0  0  0  0  0  0  0  0  0  0  0
   27.1959  -17.4012  -15.9127 C   0  0  0  0  0  0  0  0  0  0  0  0
   27.2502  -18.7782  -15.3094 C   0  0  2  0  0  0  0  0  0  0  0  0
   26.8785  -19.7806  -16.3101 N   0  0  0  0  0  0  0  0  0  0  0  0
   26.2969  -18.8757  -14.1963 C   0  0  0  0  0  0  0  0  0  0  0  0
   26.1341  -17.9438  -13.3307 O   0  0  0  0  0  0  0  0  0  0  0  0
   25.5091  -20.0233  -14.0357 N   0  0  0  0  0  0  0  0  0  0  0  0
   24.5800  -20.2014  -12.8715 C   0  0  1  0  0  0  0  0  0  0  0  0
   23.6730  -21.2902  -13.3220 C   0  0  0  0  0  0  0  0  0  0  0  0
   22.2416  -21.2487  -13.0501 C   0  0  0  0  0  0  0  0  0  0  0  0
   21.5424  -20.0375  -12.6428 C   0  0  0  0  0  0  0  0  0  0  0  0
   20.1184  -19.9975  -12.3065 C   0  0  0  0  0  0  0  0  0  0  0  0
   19.8849  -18.6214  -11.7552 N   0  0  0  0  0  0  0  0  0  0  0  0
   25.5180  -20.6411  -11.7731 C   0  0  0  0  0  0  0  0  0  0  0  0
   26.7350  -20.9631  -12.0353 O   0  0  0  0  0  0  0  0  0  0  0  0
   25.0256  -20.6874  -10.4581 N   0  0  0  0  0  0  0  0  0  0  0  0
   25.9550  -21.1360   -9.3978 C   0  0  1  0  0  0  0  0  0  0  0  0
   27.0071  -20.0712   -9.3312 C   0  0  0  0  0  0  0  0  0  0  0  0
   28.0223  -20.3566   -8.3207 C   0  0  0  0  0  0  0  0  0  0  0  0
   29.0679  -21.2477   -8.4382 C   0  0  0  0  0  0  0  0  0  0  0  0
   29.7808  -21.2757   -7.3001 N   0  0  0  0  0  0  0  0  0  0  0  0
   29.2202  -20.4142   -6.4330 C   0  0  0  0  0  0  0  0  0  0  0  0
   29.5638  -20.0564   -5.1483 C   0  0  0  0  0  0  0  0  0  0  0  0
   28.8256  -19.1087   -4.4460 C   0  0  0  0  0  0  0  0  0  0  0  0
   27.7303  -18.5096   -5.0316 C   0  0  0  0  0  0  0  0  0  0  0  0
   27.4007  -18.8788   -6.3143 C   0  0  0  0  0  0  0  0  0  0  0  0
   28.1129  -19.8246   -7.0536 C   0  0  0  0  0  0  0  0  0  0  0  0
   25.2411  -21.4588   -8.1721 C   0  0  0  0  0  0  0  0  0  0  0  0
   24.0464  -21.1764   -7.9397 O   0  0  0  0  0  0  0  0  0  0  0  0
   25.9178  -22.1424   -7.1455 O   0  0  0  0  0  0  0  0  0  0  0  0
  2  1  1  0
  3  2  1  0
  4  3  1  0
  5  4  1  0
  5  6  1  6
  7  5  1  0
  7  8  2  0
  9  7  1  0
 10  9  1  0
 10 11  1  6
 11 12  1  0
 12 13  1  0
 13 14  1  0
 14 15  1  0
 16 10  1  0
 17 16  2  0
 18 16  1  0
 19 18  1  0
 19 20  1  1
 20 21  1  0
 21 22  2  0
 22 23  1  0
 24 23  1  0
 25 24  2  0
 26 25  1  0
 27 28  1  0
 27 26  2  0
 28 29  2  0
 29 21  1  0
 29 24  1  0
 30 19  1  0
 30 32  1  0
 31 30  2  0
M  END
$$$$
