MKW.pdb
     RDKit          3D

 32 33  0  0  1  0  0  0  0  0999 V2000
   15.4399  -22.6727   -0.6984 C   0  0  0  0  0  0  0  0  0  0  0  0
   15.1640  -21.6567    0.7750 S   0  0  0  0  0  0  0  0  0  0  0  0
   16.7749  -21.0459    1.3670 C   0  0  0  0  0  0  0  0  0  0  0  0
   16.5390  -20.1432    2.5303 C   0  0  0  0  0  0  0  0  0  0  0  0
   15.8829  -20.8820    3.6647 C   0  0  2  0  0  0  0  0  0  0  0  0
   14.4821  -21.1592    3.3408 N   0  0  0  0  0  0  0  0  0  0  0  0
   15.9112  -20.0597    4.8814 C   0  0  0  0  0  0  0  0  0  0  0  0
   15.0728  -19.1162    5.1080 O   0  0  0  0  0  0  0  0  0  0  0  0
   16.8832  -20.2827    5.8657 N   0  0  0  0  0  0  0  0  0  0  0  0
   16.8898  -19.5394    7.1687 C   0  0  1  0  0  0  0  0  0  0  0  0
   16.9432  -20.6267    8.1817 C   0  0  0  0  0  0  0  0  0  0  0  0
   17.0422  -20.3344    9.6062 C   0  0  0  0  0  0  0  0  0  0  0  0
   17.0744  -21.3682   10.6318 C   0  0  0  0  0  0  0  0  0  0  0  0
   17.1235  -21.0854   12.0671 C   0  0  0  0  0  0  0  0  0  0  0  0
   17.1505  -22.4311   12.7306 N   0  0  0  0  0  0  0  0  0  0  0  0
   18.1772  -18.7547    7.0873 C   0  0  0  0  0  0  0  0  0  0  0  0
   19.1691  -19.1862    6.3918 O   0  0  0  0  0  0  0  0  0  0  0  0
   18.2611  -17.5412    7.7901 N   0  0  0  0  0  0  0  0  0  0  0  0
   19.5794  -16.8712    7.8381 C   0  0  1  0  0  0  0  0  0  0  0  0
   19.2977  -15.5039    8.3823 C   0  0  0  0  0  0  0  0  0  0  0  0
   18.9571  -14.5479    7.3319 C   0  0  0  0  0  0  0  0  0  0  0  0
   17.7708  -14.4880    6.6316 C   0  0  0  0  0  0  0  0  0  0  0  0
   17.8228  -13.5040    5.7186 N   0  0  0  0  0  0  0  0  0  0  0  0
   19.0275  -12.9130    5.8075 C   0  0  0  0  0  0  0  0  0  0  0  0
   19.5804  -11.8562    5.1191 C   0  0  0  0  0  0  0  0  0  0  0  0
   20.8643  -11.4046    5.4090 C   0  0  0  0  0  0  0  0  0  0  0  0
   21.6071  -12.0143    6.3979 C   0  0  0  0  0  0  0  0  0  0  0  0
   21.0404  -13.0683    7.0748 C   0  0  0  0  0  0  0  0  0  0  0  0
   19.7574  -13.5531    6.8157 C   0  0  0  0  0  0  0  0  0  0  0  0
   20.5612  -17.6874    8.5353 C   0  0  0  0  0  0  0  0  0  0  0  0
   20.3058  -18.4844    9.4630 O   0  0  0  0  0  0  0  0  0  0  0  0
   21.9147  -17.5982    8.1622 O   0  0  0  0  0  0  0  0  0  0  0  0
  2  1  1  0
  3  2  1  0
  4  3  1  0
  5  4  1  0
  5  6  1  6
  7  5  1  0
  7  8  2  0
  9  7  1  0
 10  9  1  0
 10 11  1  1
 11 12  1  0
 12 13  1  0
 13 14  1  0
 14 15  1  0
 16 10  1  0
 17 16  2  0
 18 16  1  0
 19 18  1  0
 19 20  1  1
 20 21  1  0
 21 22  2  0
 22 23  1  0
 24 23  1  0
 25 24  2  0
 26 25  1  0
 27 28  1  0
 27 26  2  0
 28 29  2  0
 29 21  1  0
 29 24  1  0
 30 19  1  0
 30 32  1  0
 31 30  2  0
M  END
$$$$
