MKW.pdb
     RDKit          3D

 32 33  0  0  1  0  0  0  0  0999 V2000
   33.5185  -22.7231  -13.4588 C   0  0  0  0  0  0  0  0  0  0  0  0
   33.0216  -24.4199  -13.8502 S   0  0  0  0  0  0  0  0  0  0  0  0
   32.0120  -24.3924  -15.3663 C   0  0  0  0  0  0  0  0  0  0  0  0
   30.9261  -23.3852  -15.1922 C   0  0  0  0  0  0  0  0  0  0  0  0
   30.1008  -23.2570  -16.4434 C   0  0  2  0  0  0  0  0  0  0  0  0
   30.9590  -22.9129  -17.5788 N   0  0  0  0  0  0  0  0  0  0  0  0
   29.1111  -22.1837  -16.2833 C   0  0  0  0  0  0  0  0  0  0  0  0
   29.3942  -20.9423  -16.4359 O   0  0  0  0  0  0  0  0  0  0  0  0
   27.7846  -22.4862  -15.9484 N   0  0  0  0  0  0  0  0  0  0  0  0
   26.7852  -21.4251  -15.5939 C   0  0  1  0  0  0  0  0  0  0  0  0
   25.9397  -21.3314  -16.8136 C   0  0  0  0  0  0  0  0  0  0  0  0
   26.5262  -21.1169  -18.1306 C   0  0  0  0  0  0  0  0  0  0  0  0
   25.7365  -21.0406  -19.3521 C   0  0  0  0  0  0  0  0  0  0  0  0
   26.3104  -21.1298  -20.6957 C   0  0  0  0  0  0  0  0  0  0  0  0
   27.6518  -20.4648  -20.5934 N   0  0  0  0  0  0  0  0  0  0  0  0
   26.0564  -22.0440  -14.4254 C   0  0  0  0  0  0  0  0  0  0  0  0
   26.3509  -23.2273  -14.0169 O   0  0  0  0  0  0  0  0  0  0  0  0
   25.0499  -21.2922  -13.7966 N   0  0  0  0  0  0  0  0  0  0  0  0
   25.0144  -21.3032  -12.3175 C   0  0  1  0  0  0  0  0  0  0  0  0
   26.3878  -20.8781  -11.8955 C   0  0  0  0  0  0  0  0  0  0  0  0
   26.4568  -20.5582  -10.4720 C   0  0  0  0  0  0  0  0  0  0  0  0
   25.5088  -19.8769   -9.7382 C   0  0  0  0  0  0  0  0  0  0  0  0
   25.9221  -19.7355   -8.4680 N   0  0  0  0  0  0  0  0  0  0  0  0
   27.1302  -20.3150   -8.3533 C   0  0  0  0  0  0  0  0  0  0  0  0
   27.9750  -20.4623   -7.2757 C   0  0  0  0  0  0  0  0  0  0  0  0
   29.1889  -21.1306   -7.4022 C   0  0  0  0  0  0  0  0  0  0  0  0
   29.5661  -21.6591   -8.6188 C   0  0  0  0  0  0  0  0  0  0  0  0
   28.7115  -21.5024   -9.6843 C   0  0  0  0  0  0  0  0  0  0  0  0
   27.4861  -20.8392   -9.6013 C   0  0  0  0  0  0  0  0  0  0  0  0
   23.8846  -20.5397  -11.8109 C   0  0  0  0  0  0  0  0  0  0  0  0
   23.6504  -19.3410  -12.0741 O   0  0  0  0  0  0  0  0  0  0  0  0
   22.9624  -21.1682  -10.9544 O   0  0  0  0  0  0  0  0  0  0  0  0
  2  1  1  0
  3  2  1  0
  4  3  1  0
  5  4  1  0
  5  6  1  6
  7  5  1  0
  7  8  2  0
  9  7  1  0
 10  9  1  0
 10 11  1  6
 11 12  1  0
 12 13  1  0
 13 14  1  0
 14 15  1  0
 16 10  1  0
 17 16  2  0
 18 16  1  0
 19 18  1  0
 19 20  1  1
 20 21  1  0
 21 22  2  0
 22 23  1  0
 24 23  1  0
 25 24  2  0
 26 25  1  0
 27 28  1  0
 27 26  2  0
 28 29  2  0
 29 21  1  0
 29 24  1  0
 30 19  1  0
 30 32  1  0
 31 30  2  0
M  END
$$$$
