MKW.pdb
     RDKit          3D

 32 33  0  0  1  0  0  0  0  0999 V2000
   30.4750  -16.2149  -17.9688 C   0  0  0  0  0  0  0  0  0  0  0  0
   28.9111  -16.7058  -17.1991 S   0  0  0  0  0  0  0  0  0  0  0  0
   28.0598  -15.2067  -16.6105 C   0  0  0  0  0  0  0  0  0  0  0  0
   26.8719  -15.6216  -15.8103 C   0  0  0  0  0  0  0  0  0  0  0  0
   26.0359  -16.6220  -16.5610 C   0  0  2  0  0  0  0  0  0  0  0  0
   25.3286  -15.9621  -17.6603 N   0  0  0  0  0  0  0  0  0  0  0  0
   25.0310  -17.2086  -15.6647 C   0  0  0  0  0  0  0  0  0  0  0  0
   24.1367  -16.5123  -15.0648 O   0  0  0  0  0  0  0  0  0  0  0  0
   25.0132  -18.5892  -15.4261 N   0  0  0  0  0  0  0  0  0  0  0  0
   24.0232  -19.2297  -14.4988 C   0  0  1  0  0  0  0  0  0  0  0  0
   23.2221  -20.0982  -15.4017 C   0  0  0  0  0  0  0  0  0  0  0  0
   21.9573  -19.6455  -15.9672 C   0  0  0  0  0  0  0  0  0  0  0  0
   21.7509  -18.2986  -16.4819 C   0  0  0  0  0  0  0  0  0  0  0  0
   20.4707  -17.8170  -17.0030 C   0  0  0  0  0  0  0  0  0  0  0  0
   20.0056  -18.8861  -17.9479 N   0  0  0  0  0  0  0  0  0  0  0  0
   24.9137  -20.0190  -13.5694 C   0  0  0  0  0  0  0  0  0  0  0  0
   26.0568  -20.4555  -13.9648 O   0  0  0  0  0  0  0  0  0  0  0  0
   24.4603  -20.2620  -12.2621 N   0  0  0  0  0  0  0  0  0  0  0  0
   25.4336  -20.8158  -11.2950 C   0  0  1  0  0  0  0  0  0  0  0  0
   26.4376  -19.7227  -11.0895 C   0  0  0  0  0  0  0  0  0  0  0  0
   27.5198  -20.1243  -10.1946 C   0  0  0  0  0  0  0  0  0  0  0  0
   28.6039  -20.9114  -10.5214 C   0  0  0  0  0  0  0  0  0  0  0  0
   29.3778  -21.1029   -9.4403 N   0  0  0  0  0  0  0  0  0  0  0  0
   28.8195  -20.4521   -8.4044 C   0  0  0  0  0  0  0  0  0  0  0  0
   29.2125  -20.3152   -7.0917 C   0  0  0  0  0  0  0  0  0  0  0  0
   28.4636  -19.5607   -6.1937 C   0  0  0  0  0  0  0  0  0  0  0  0
   27.3076  -18.9343   -6.6095 C   0  0  0  0  0  0  0  0  0  0  0  0
   26.9293  -19.0818   -7.9231 C   0  0  0  0  0  0  0  0  0  0  0  0
   27.6502  -19.8293   -8.8558 C   0  0  0  0  0  0  0  0  0  0  0  0
   24.7640  -21.3489  -10.1188 C   0  0  0  0  0  0  0  0  0  0  0  0
   23.6762  -20.9377   -9.6620 O   0  0  0  0  0  0  0  0  0  0  0  0
   25.3592  -22.4116   -9.4149 O   0  0  0  0  0  0  0  0  0  0  0  0
  2  1  1  0
  3  2  1  0
  4  3  1  0
  5  4  1  0
  5  6  1  6
  7  5  1  0
  7  8  2  0
  9  7  1  0
 10  9  1  0
 10 11  1  6
 11 12  1  0
 12 13  1  0
 13 14  1  0
 14 15  1  0
 16 10  1  0
 17 16  2  0
 18 16  1  0
 19 18  1  0
 19 20  1  1
 20 21  1  0
 21 22  2  0
 22 23  1  0
 24 23  1  0
 25 24  2  0
 26 25  1  0
 27 28  1  0
 27 26  2  0
 28 29  2  0
 29 21  1  0
 29 24  1  0
 30 19  1  0
 30 32  1  0
 31 30  2  0
M  END
$$$$
