THY.pdb
     RDKit          3D

 30 31  0  0  1  0  0  0  0  0999 V2000
    9.0384  -12.4502   20.4091 C   0  0  0  0  0  0  0  0  0  0  0  0
    8.3107  -12.8564   19.1459 C   0  0  1  0  0  0  0  0  0  0  0  0
    8.6132  -11.9341   18.1788 O   0  0  0  0  0  0  0  0  0  0  0  0
    8.6597  -14.2746   18.7383 C   0  0  2  0  0  0  0  0  0  0  0  0
    7.8686  -14.5802   17.5434 N   0  0  0  0  0  0  0  0  0  0  0  0
    8.3619  -15.2546   19.7916 C   0  0  0  0  0  0  0  0  0  0  0  0
    7.1592  -15.5934   20.0024 O   0  0  0  0  0  0  0  0  0  0  0  0
    9.3281  -15.8818   20.6279 N   0  0  0  0  0  0  0  0  0  0  0  0
    9.0076  -16.8533   21.6599 C   0  0  1  0  0  0  0  0  0  0  0  0
    9.6658  -18.1422   21.3739 C   0  0  0  0  0  0  0  0  0  0  0  0
    9.0773  -18.9971   20.3492 C   0  0  0  0  0  0  0  0  0  0  0  0
    7.9870  -18.9039   19.5307 C   0  0  0  0  0  0  0  0  0  0  0  0
    7.8517  -19.9963   18.7394 N   0  0  0  0  0  0  0  0  0  0  0  0
    8.8958  -20.7889   19.0864 C   0  0  0  0  0  0  0  0  0  0  0  0
    9.6295  -20.2045   20.0412 N   0  0  0  0  0  0  0  0  0  0  0  0
    9.4084  -16.3168   23.0124 C   0  0  0  0  0  0  0  0  0  0  0  0
   10.5014  -15.6999   23.1861 O   0  0  0  0  0  0  0  0  0  0  0  0
    6.3225  -10.3180   25.8292 O   0  0  0  0  0  0  0  0  0  0  0  0
    6.6486  -11.6738   25.9696 C   0  0  0  0  0  0  0  0  0  0  0  0
    7.9255  -12.0792   25.6347 C   0  0  0  0  0  0  0  0  0  0  0  0
    8.2801  -13.3960   25.7595 C   0  0  0  0  0  0  0  0  0  0  0  0
    7.3912  -14.3565   26.2171 C   0  0  0  0  0  0  0  0  0  0  0  0
    7.7766  -15.7534   26.3408 C   0  0  0  0  0  0  0  0  0  0  0  0
    9.0025  -16.1111   25.4961 C   0  0  2  0  0  0  0  0  0  0  0  0
    8.5848  -16.4777   24.1478 N   0  0  0  0  0  0  0  0  0  0  0  0
    9.8329  -17.1323   26.1232 C   0  0  0  0  0  0  0  0  0  0  0  0
   10.5188  -16.8529   27.3320 O   0  0  0  0  0  0  0  0  0  0  0  0
    6.1245  -13.9503   26.5488 C   0  0  0  0  0  0  0  0  0  0  0  0
    5.7533  -12.6062   26.4247 C   0  0  0  0  0  0  0  0  0  0  0  0
   10.0141  -18.2923   25.6848 O   0  0  0  0  0  0  0  0  0  0  0  0
  2  1  1  1
  2  3  1  0
  4  2  1  0
  4  5  1  6
  6  4  1  0
  6  7  2  0
  8  6  1  0
  9  8  1  0
  9 10  1  6
 10 11  1  0
 11 15  1  0
 11 12  2  0
 12 13  1  0
 14 13  1  0
 15 14  2  0
 16  9  1  0
 17 16  2  0
 18 19  1  0
 19 29  2  0
 20 19  1  0
 20 21  2  0
 21 22  1  0
 22 28  2  0
 22 23  1  0
 24 23  1  1
 24 25  1  0
 25 16  1  0
 26 24  1  0
 27 26  1  0
 29 28  1  0
 30 26  2  0
M  END
$$$$
