THY.pdb
     RDKit          3D

 30 31  0  0  1  0  0  0  0  0999 V2000
    7.6259  -11.9675   20.4143 C   0  0  0  0  0  0  0  0  0  0  0  0
    7.9484  -13.1454   21.3081 C   0  0  1  0  0  0  0  0  0  0  0  0
    6.8899  -13.3210   22.1601 O   0  0  0  0  0  0  0  0  0  0  0  0
    8.2637  -14.3862   20.4955 C   0  0  2  0  0  0  0  0  0  0  0  0
    7.0917  -14.6549   19.6581 N   0  0  0  0  0  0  0  0  0  0  0  0
    8.5473  -15.5561   21.3378 C   0  0  0  0  0  0  0  0  0  0  0  0
    7.6241  -16.3926   21.5698 O   0  0  0  0  0  0  0  0  0  0  0  0
    9.8030  -15.8504   21.9402 N   0  0  0  0  0  0  0  0  0  0  0  0
   10.0316  -16.9577   22.8531 C   0  0  1  0  0  0  0  0  0  0  0  0
   11.1664  -17.7789   22.3901 C   0  0  0  0  0  0  0  0  0  0  0  0
   10.9324  -18.7107   21.2928 C   0  0  0  0  0  0  0  0  0  0  0  0
    9.8395  -19.0723   20.5564 C   0  0  0  0  0  0  0  0  0  0  0  0
   10.1403  -20.0175   19.6324 N   0  0  0  0  0  0  0  0  0  0  0  0
   11.4654  -20.2451   19.8097 C   0  0  0  0  0  0  0  0  0  0  0  0
   11.9449  -19.4740   20.7931 N   0  0  0  0  0  0  0  0  0  0  0  0
   10.2629  -16.4329   24.2490 C   0  0  0  0  0  0  0  0  0  0  0  0
   11.1480  -15.5598   24.4933 O   0  0  0  0  0  0  0  0  0  0  0  0
    6.5058  -11.1043   25.6196 O   0  0  0  0  0  0  0  0  0  0  0  0
    7.0299  -12.3223   26.0740 C   0  0  0  0  0  0  0  0  0  0  0  0
    6.2281  -13.4449   26.0122 C   0  0  0  0  0  0  0  0  0  0  0  0
    6.7066  -14.6522   26.4468 C   0  0  0  0  0  0  0  0  0  0  0  0
    7.9881  -14.7947   26.9561 C   0  0  0  0  0  0  0  0  0  0  0  0
    8.4846  -16.0807   27.4198 C   0  0  0  0  0  0  0  0  0  0  0  0
    9.7827  -16.5042   26.7269 C   0  0  2  0  0  0  0  0  0  0  0  0
    9.5047  -16.8908   25.3486 N   0  0  0  0  0  0  0  0  0  0  0  0
   10.4977  -17.5376   27.4661 C   0  0  0  0  0  0  0  0  0  0  0  0
   10.9905  -17.2734   28.7688 O   0  0  0  0  0  0  0  0  0  0  0  0
    8.7813  -13.6781   27.0157 C   0  0  0  0  0  0  0  0  0  0  0  0
    8.3007  -12.4399   26.5734 C   0  0  0  0  0  0  0  0  0  0  0  0
   10.7350  -18.6960   27.0510 O   0  0  0  0  0  0  0  0  0  0  0  0
  2  1  1  6
  2  3  1  0
  4  2  1  0
  4  5  1  6
  6  4  1  0
  6  7  2  0
  8  6  1  0
  9  8  1  0
  9 10  1  6
 10 11  1  0
 11 15  1  0
 11 12  2  0
 12 13  1  0
 14 13  1  0
 15 14  2  0
 16  9  1  0
 17 16  2  0
 18 19  1  0
 19 29  2  0
 20 19  1  0
 20 21  2  0
 21 22  1  0
 22 28  2  0
 22 23  1  0
 24 23  1  1
 24 25  1  0
 25 16  1  0
 26 24  1  0
 27 26  1  0
 29 28  1  0
 30 26  2  0
M  END
$$$$
