THY.pdb
     RDKit          3D

 30 31  0  0  1  0  0  0  0  0999 V2000
   18.1581  -22.8356   15.9520 C   0  0  0  0  0  0  0  0  0  0  0  0
   17.9118  -21.7936   14.8826 C   0  0  1  0  0  0  0  0  0  0  0  0
   18.3023  -22.3299   13.6838 O   0  0  0  0  0  0  0  0  0  0  0  0
   16.4667  -21.3342   14.8805 C   0  0  2  0  0  0  0  0  0  0  0  0
   16.3428  -20.3263   13.8241 N   0  0  0  0  0  0  0  0  0  0  0  0
   16.0564  -20.7544   16.1666 C   0  0  0  0  0  0  0  0  0  0  0  0
   16.2123  -19.5128   16.3660 O   0  0  0  0  0  0  0  0  0  0  0  0
   15.4809  -21.4787   17.2485 N   0  0  0  0  0  0  0  0  0  0  0  0
   15.0338  -20.8724   18.4912 C   0  0  1  0  0  0  0  0  0  0  0  0
   13.6201  -21.2081   18.7466 C   0  0  0  0  0  0  0  0  0  0  0  0
   12.6026  -20.5298   17.9519 C   0  0  0  0  0  0  0  0  0  0  0  0
   12.2373  -19.2255   17.7704 C   0  0  0  0  0  0  0  0  0  0  0  0
   11.1914  -19.1057   16.9163 N   0  0  0  0  0  0  0  0  0  0  0  0
   10.9039  -20.3828   16.5624 C   0  0  0  0  0  0  0  0  0  0  0  0
   11.7361  -21.2357   17.1718 N   0  0  0  0  0  0  0  0  0  0  0  0
   15.9211  -21.3174   19.6279 C   0  0  0  0  0  0  0  0  0  0  0  0
   15.8445  -22.4850   20.1139 O   0  0  0  0  0  0  0  0  0  0  0  0
   22.7159  -20.5438   17.1988 O   0  0  0  0  0  0  0  0  0  0  0  0
   21.7008  -20.8777   18.1057 C   0  0  0  0  0  0  0  0  0  0  0  0
   21.3680  -22.2094   18.2565 C   0  0  0  0  0  0  0  0  0  0  0  0
   20.3814  -22.5729   19.1338 C   0  0  0  0  0  0  0  0  0  0  0  0
   19.6903  -21.6396   19.8908 C   0  0  0  0  0  0  0  0  0  0  0  0
   18.6405  -22.0361   20.8160 C   0  0  0  0  0  0  0  0  0  0  0  0
   17.7766  -20.8595   21.2781 C   0  0  2  0  0  0  0  0  0  0  0  0
   16.8778  -20.4534   20.2040 N   0  0  0  0  0  0  0  0  0  0  0  0
   18.5727  -19.7516   21.7924 C   0  0  0  0  0  0  0  0  0  0  0  0
   18.4350  -18.4544   21.2377 O   0  0  0  0  0  0  0  0  0  0  0  0
   20.0235  -20.3185   19.7387 C   0  0  0  0  0  0  0  0  0  0  0  0
   21.0309  -19.9375   18.8444 C   0  0  0  0  0  0  0  0  0  0  0  0
   19.4096  -19.8277   22.7222 O   0  0  0  0  0  0  0  0  0  0  0  0
  2  1  1  1
  2  3  1  0
  4  2  1  0
  4  5  1  6
  6  4  1  0
  6  7  2  0
  8  6  1  0
  9  8  1  0
  9 10  1  1
 10 11  1  0
 11 15  1  0
 11 12  2  0
 12 13  1  0
 14 13  1  0
 15 14  2  0
 16  9  1  0
 17 16  2  0
 18 19  1  0
 19 29  2  0
 20 19  1  0
 20 21  2  0
 21 22  1  0
 22 28  2  0
 22 23  1  0
 24 23  1  6
 24 25  1  0
 25 16  1  0
 26 24  1  0
 27 26  1  0
 29 28  1  0
 30 26  2  0
M  END
$$$$
