THY.pdb
     RDKit          3D

 30 31  0  0  1  0  0  0  0  0999 V2000
    9.0274  -12.6584   21.2001 C   0  0  0  0  0  0  0  0  0  0  0  0
    7.7363  -13.0719   20.5275 C   0  0  1  0  0  0  0  0  0  0  0  0
    7.4805  -12.1677   19.5303 O   0  0  0  0  0  0  0  0  0  0  0  0
    7.8079  -14.5005   20.0242 C   0  0  2  0  0  0  0  0  0  0  0  0
    6.5070  -14.8045   19.4221 N   0  0  0  0  0  0  0  0  0  0  0  0
    8.0928  -15.4636   21.0964 C   0  0  0  0  0  0  0  0  0  0  0  0
    7.1415  -15.8906   21.8164 O   0  0  0  0  0  0  0  0  0  0  0  0
    9.3798  -15.9809   21.4161 N   0  0  0  0  0  0  0  0  0  0  0  0
    9.6167  -17.0466   22.3752 C   0  0  1  0  0  0  0  0  0  0  0  0
   10.7935  -17.8426   21.9779 C   0  0  0  0  0  0  0  0  0  0  0  0
   11.1688  -18.9735   22.8189 C   0  0  0  0  0  0  0  0  0  0  0  0
   11.3190  -19.1619   24.1641 C   0  0  0  0  0  0  0  0  0  0  0  0
   11.7070  -20.4268   24.4591 N   0  0  0  0  0  0  0  0  0  0  0  0
   11.7997  -21.0359   23.2511 C   0  0  0  0  0  0  0  0  0  0  0  0
   11.4820  -20.1815   22.2710 N   0  0  0  0  0  0  0  0  0  0  0  0
    9.7844  -16.4653   23.7577 C   0  0  0  0  0  0  0  0  0  0  0  0
   10.5290  -15.4628   23.9721 O   0  0  0  0  0  0  0  0  0  0  0  0
    6.1940  -11.0004   25.1838 O   0  0  0  0  0  0  0  0  0  0  0  0
    6.6572  -12.2531   25.6088 C   0  0  0  0  0  0  0  0  0  0  0  0
    5.9553  -13.3776   25.2218 C   0  0  0  0  0  0  0  0  0  0  0  0
    6.3785  -14.6183   25.6178 C   0  0  0  0  0  0  0  0  0  0  0  0
    7.5049  -14.7935   26.4069 C   0  0  0  0  0  0  0  0  0  0  0  0
    7.9427  -16.1155   26.8262 C   0  0  0  0  0  0  0  0  0  0  0  0
    9.2989  -16.5102   26.2353 C   0  0  2  0  0  0  0  0  0  0  0  0
    9.1203  -17.0115   24.8776 N   0  0  0  0  0  0  0  0  0  0  0  0
   10.0277  -17.4429   27.0864 C   0  0  0  0  0  0  0  0  0  0  0  0
   10.4843  -17.0365   28.3654 O   0  0  0  0  0  0  0  0  0  0  0  0
    8.1993  -13.6749   26.7890 C   0  0  0  0  0  0  0  0  0  0  0  0
    7.7741  -12.4026   26.3887 C   0  0  0  0  0  0  0  0  0  0  0  0
   10.3079  -18.6286   26.7926 O   0  0  0  0  0  0  0  0  0  0  0  0
  2  1  1  6
  2  3  1  0
  4  2  1  0
  4  5  1  1
  6  4  1  0
  6  7  2  0
  8  6  1  0
  9  8  1  0
  9 10  1  6
 10 11  1  0
 11 15  1  0
 11 12  2  0
 12 13  1  0
 14 13  1  0
 15 14  2  0
 16  9  1  0
 17 16  2  0
 18 19  1  0
 19 29  2  0
 20 19  1  0
 20 21  2  0
 21 22  1  0
 22 28  2  0
 22 23  1  0
 24 23  1  1
 24 25  1  0
 25 16  1  0
 26 24  1  0
 27 26  1  0
 29 28  1  0
 30 26  2  0
M  END
$$$$
