FRD.pdb
     RDKit          3D

 31 31  0  0  1  0  0  0  0  0999 V2000
    5.6156  -17.4186   25.1038 N   0  0  0  0  0  0  0  0  0  0  0  0
    6.4200  -16.2732   24.7504 C   0  0  1  0  0  0  0  0  0  0  0  0
    7.0224  -15.7233   26.0186 C   0  0  0  0  0  0  0  0  0  0  0  0
    6.7319  -14.2605   26.0679 C   0  0  0  0  0  0  0  0  0  0  0  0
    7.7677  -13.3252   26.0290 C   0  0  0  0  0  0  0  0  0  0  0  0
    7.5493  -11.9664   26.0720 C   0  0  0  0  0  0  0  0  0  0  0  0
    6.2769  -11.4850   26.1561 C   0  0  0  0  0  0  0  0  0  0  0  0
    5.2259  -12.3786   26.1967 C   0  0  0  0  0  0  0  0  0  0  0  0
    5.4590  -13.7385   26.1530 C   0  0  0  0  0  0  0  0  0  0  0  0
    7.4510  -16.6029   23.7339 C   0  0  0  0  0  0  0  0  0  0  0  0
    7.1941  -17.3437   22.7551 O   0  0  0  0  0  0  0  0  0  0  0  0
    7.8778  -12.2420   19.3447 N   0  0  0  0  0  0  0  0  0  0  0  0
    8.1957  -13.4009   18.5896 C   0  0  0  0  0  0  0  0  0  0  0  0
    8.7645  -13.2834   17.4537 N   0  0  0  0  0  0  0  0  0  0  0  0
    7.8844  -14.7069   19.0920 N   0  0  0  0  0  0  0  0  0  0  0  0
    7.0798  -14.8846   20.2894 C   0  0  0  0  0  0  0  0  0  0  0  0
    7.9548  -14.6306   21.5293 C   0  0  0  0  0  0  0  0  0  0  0  0
    9.2261  -15.4098   21.4553 C   0  0  0  0  0  0  0  0  0  0  0  0
    9.7077  -16.0247   22.7181 C   0  0  2  0  0  0  0  0  0  0  0  0
    8.7854  -16.1087   23.7965 N   0  0  0  0  0  0  0  0  0  0  0  0
   11.1013  -15.6700   23.0689 C   0  0  0  0  0  0  0  0  0  0  0  0
   11.8030  -15.2181   22.1013 O   0  0  0  0  0  0  0  0  0  0  0  0
    8.9660  -14.0972   16.8294 N   0  0  0  0  0  0  0  0  0  0  0  0
   11.7331  -15.7718   24.3120 C   0  0  2  0  0  0  0  0  0  0  0  0
   12.8265  -16.7135   24.5087 C   0  0  0  0  0  0  0  0  0  0  0  0
   12.3916  -18.0923   24.8841 C   0  0  0  0  0  0  0  0  0  0  0  0
   11.8956  -18.2249   26.2738 O   0  0  0  0  0  0  0  0  0  0  0  0
   10.9424  -17.6102   26.7764 C   0  0  0  0  0  0  0  0  0  0  0  0
   13.6710  -16.7910   23.3110 O   0  0  0  0  0  0  0  0  0  0  0  0
   14.8528  -16.3139   23.2891 O   0  0  0  0  0  0  0  0  0  0  0  0
   12.5510  -19.1291   27.1280 O   0  0  0  0  0  0  0  0  0  0  0  0
  2  1  1  1
  2  3  1  0
  2 10  1  0
  3  4  1  0
  4  9  2  0
  4  5  1  0
  5  6  2  0
  6  7  1  0
  8  7  2  0
  9  8  1  0
 10 11  2  0
 10 20  1  0
 13 15  1  0
 13 12  1  0
 14 13  2  0
 16 15  1  0
 17 16  1  0
 18 17  1  0
 19 18  1  6
 20 19  1  0
 21 19  1  0
 21 23  1  0
 22 21  2  0
 24 23  1  0
 24 28  1  0
 24 25  1  1
 25 26  1  0
 26 30  1  0
 26 27  2  0
 28 31  1  0
 29 28  2  0
M  END
$$$$
