FRD.pdb
     RDKit          3D

 31 31  0  0  1  0  0  0  0  0999 V2000
    5.6652  -17.7973   25.3839 N   0  0  0  0  0  0  0  0  0  0  0  0
    6.2181  -16.4712   25.2433 C   0  0  1  0  0  0  0  0  0  0  0  0
    6.9941  -16.1594   26.4979 C   0  0  0  0  0  0  0  0  0  0  0  0
    7.1868  -14.6811   26.5628 C   0  0  0  0  0  0  0  0  0  0  0  0
    8.4548  -14.1188   26.4041 C   0  0  0  0  0  0  0  0  0  0  0  0
    8.6819  -12.7617   26.4561 C   0  0  0  0  0  0  0  0  0  0  0  0
    7.6425  -11.9064   26.6703 C   0  0  0  0  0  0  0  0  0  0  0  0
    6.3735  -12.4245   26.8318 C   0  0  0  0  0  0  0  0  0  0  0  0
    6.1598  -13.7871   26.7775 C   0  0  0  0  0  0  0  0  0  0  0  0
    7.0478  -16.3355   24.0193 C   0  0  0  0  0  0  0  0  0  0  0  0
    7.8209  -17.2495   23.6459 O   0  0  0  0  0  0  0  0  0  0  0  0
    8.2403  -13.1111   16.7608 N   0  0  0  0  0  0  0  0  0  0  0  0
    7.9904  -14.4771   17.0535 C   0  0  0  0  0  0  0  0  0  0  0  0
    7.8397  -15.3139   16.1025 N   0  0  0  0  0  0  0  0  0  0  0  0
    7.9062  -14.9285   18.4115 N   0  0  0  0  0  0  0  0  0  0  0  0
    8.9428  -14.6110   19.3797 C   0  0  0  0  0  0  0  0  0  0  0  0
    8.5231  -13.3658   20.1803 C   0  0  0  0  0  0  0  0  0  0  0  0
    7.5427  -13.7221   21.2483 C   0  0  0  0  0  0  0  0  0  0  0  0
    7.8493  -14.9250   22.0629 C   0  0  2  0  0  0  0  0  0  0  0  0
    7.0251  -15.1749   23.1939 N   0  0  0  0  0  0  0  0  0  0  0  0
    9.2963  -15.1873   22.2311 C   0  0  0  0  0  0  0  0  0  0  0  0
    9.9413  -14.2756   22.8520 O   0  0  0  0  0  0  0  0  0  0  0  0
    7.8156  -16.3484   16.2507 N   0  0  0  0  0  0  0  0  0  0  0  0
   10.0312  -16.2943   21.7959 C   0  0  2  0  0  0  0  0  0  0  0  0
   11.4471  -16.4116   22.1159 C   0  0  0  0  0  0  0  0  0  0  0  0
   11.9631  -17.8134   22.1208 C   0  0  0  0  0  0  0  0  0  0  0  0
   13.1847  -18.0174   22.9338 O   0  0  0  0  0  0  0  0  0  0  0  0
   13.8407  -17.1358   23.5097 C   0  0  0  0  0  0  0  0  0  0  0  0
   12.2594  -15.6093   21.1940 O   0  0  0  0  0  0  0  0  0  0  0  0
   13.0750  -14.7236   21.6124 O   0  0  0  0  0  0  0  0  0  0  0  0
   13.6694  -19.3285   23.0841 O   0  0  0  0  0  0  0  0  0  0  0  0
  2  1  1  1
  2  3  1  0
  2 10  1  0
  3  4  1  0
  4  9  2  0
  4  5  1  0
  5  6  2  0
  6  7  1  0
  8  7  2  0
  9  8  1  0
 10 11  2  0
 10 20  1  0
 13 15  1  0
 13 12  1  0
 14 13  2  0
 16 15  1  0
 17 16  1  0
 18 17  1  0
 19 18  1  1
 20 19  1  0
 21 19  1  0
 21 23  1  0
 22 21  2  0
 24 23  1  0
 24 28  1  0
 24 25  1  1
 25 26  1  0
 26 30  1  0
 26 27  2  0
 28 31  1  0
 29 28  2  0
M  END
$$$$
