FRD.pdb
     RDKit          3D

 31 31  0  0  1  0  0  0  0  0999 V2000
    8.0560  -12.5461   22.2427 N   0  0  0  0  0  0  0  0  0  0  0  0
    7.9350  -13.1416   23.5522 C   0  0  1  0  0  0  0  0  0  0  0  0
    6.5652  -12.8073   24.0864 C   0  0  0  0  0  0  0  0  0  0  0  0
    6.6833  -12.6095   25.5607 C   0  0  0  0  0  0  0  0  0  0  0  0
    7.6761  -11.7849   26.0932 C   0  0  0  0  0  0  0  0  0  0  0  0
    7.8243  -11.5719   27.4455 C   0  0  0  0  0  0  0  0  0  0  0  0
    6.9794  -12.1794   28.3257 C   0  0  0  0  0  0  0  0  0  0  0  0
    5.9846  -13.0022   27.8375 C   0  0  0  0  0  0  0  0  0  0  0  0
    5.8473  -13.2071   26.4794 C   0  0  0  0  0  0  0  0  0  0  0  0
    8.1895  -14.6043   23.5298 C   0  0  0  0  0  0  0  0  0  0  0  0
    8.1016  -15.3017   24.5684 O   0  0  0  0  0  0  0  0  0  0  0  0
    7.5445  -13.0111   18.5272 N   0  0  0  0  0  0  0  0  0  0  0  0
    8.1524  -14.1041   17.8566 C   0  0  0  0  0  0  0  0  0  0  0  0
    9.2386  -13.9293   17.2107 N   0  0  0  0  0  0  0  0  0  0  0  0
    7.5574  -15.4077   17.8982 N   0  0  0  0  0  0  0  0  0  0  0  0
    7.3962  -16.1258   19.1517 C   0  0  0  0  0  0  0  0  0  0  0  0
    8.7842  -16.4672   19.7213 C   0  0  0  0  0  0  0  0  0  0  0  0
    8.6676  -17.3427   20.9250 C   0  0  0  0  0  0  0  0  0  0  0  0
    8.8606  -16.6924   22.2458 C   0  0  2  0  0  0  0  0  0  0  0  0
    8.5460  -15.3097   22.3448 N   0  0  0  0  0  0  0  0  0  0  0  0
   10.0676  -17.1473   22.9718 C   0  0  0  0  0  0  0  0  0  0  0  0
    9.8873  -18.1496   23.7436 O   0  0  0  0  0  0  0  0  0  0  0  0
    9.6949  -14.6819   16.6468 N   0  0  0  0  0  0  0  0  0  0  0  0
   11.3605  -16.6178   22.9179 C   0  0  2  0  0  0  0  0  0  0  0  0
   12.4270  -17.1921   23.7264 C   0  0  0  0  0  0  0  0  0  0  0  0
   12.6271  -18.6592   23.5294 C   0  0  0  0  0  0  0  0  0  0  0  0
   13.7830  -19.2272   24.2617 O   0  0  0  0  0  0  0  0  0  0  0  0
   13.9822  -19.1638   25.4846 C   0  0  0  0  0  0  0  0  0  0  0  0
   13.6985  -16.5018   23.4807 O   0  0  0  0  0  0  0  0  0  0  0  0
   13.8147  -15.6058   22.5816 O   0  0  0  0  0  0  0  0  0  0  0  0
   14.7649  -19.9102   23.5228 O   0  0  0  0  0  0  0  0  0  0  0  0
  2  1  1  6
  2  3  1  0
  2 10  1  0
  3  4  1  0
  4  9  2  0
  4  5  1  0
  5  6  2  0
  6  7  1  0
  8  7  2  0
  9  8  1  0
 10 11  2  0
 10 20  1  0
 13 15  1  0
 13 12  1  0
 14 13  2  0
 16 15  1  0
 17 16  1  0
 18 17  1  0
 19 18  1  6
 20 19  1  0
 21 19  1  0
 21 23  1  0
 22 21  2  0
 24 23  1  0
 24 28  1  0
 24 25  1  6
 25 26  1  0
 26 30  1  0
 26 27  2  0
 28 31  1  0
 29 28  2  0
M  END
$$$$
