FRD.pdb
     RDKit          3D

 31 31  0  0  1  0  0  0  0  0999 V2000
    6.6411  -17.7873   27.0677 N   0  0  0  0  0  0  0  0  0  0  0  0
    7.0519  -16.5732   26.4034 C   0  0  1  0  0  0  0  0  0  0  0  0
    7.9733  -15.8267   27.3346 C   0  0  0  0  0  0  0  0  0  0  0  0
    7.7528  -14.3659   27.1249 C   0  0  0  0  0  0  0  0  0  0  0  0
    8.8281  -13.4755   27.1167 C   0  0  0  0  0  0  0  0  0  0  0  0
    8.6744  -12.1203   26.9272 C   0  0  0  0  0  0  0  0  0  0  0  0
    7.4301  -11.5976   26.7369 C   0  0  0  0  0  0  0  0  0  0  0  0
    6.3416  -12.4462   26.7383 C   0  0  0  0  0  0  0  0  0  0  0  0
    6.5099  -13.8028   26.9295 C   0  0  0  0  0  0  0  0  0  0  0  0
    7.6790  -16.8394   25.0841 C   0  0  0  0  0  0  0  0  0  0  0  0
    8.4372  -17.8219   24.9042 O   0  0  0  0  0  0  0  0  0  0  0  0
    8.3932  -13.6581   16.6124 N   0  0  0  0  0  0  0  0  0  0  0  0
    8.4337  -12.9316   17.8308 C   0  0  0  0  0  0  0  0  0  0  0  0
    8.9762  -11.7774   17.8652 N   0  0  0  0  0  0  0  0  0  0  0  0
    7.8685  -13.4823   19.0276 N   0  0  0  0  0  0  0  0  0  0  0  0
    7.4669  -14.8773   19.1019 C   0  0  0  0  0  0  0  0  0  0  0  0
    8.2507  -15.5700   20.2303 C   0  0  0  0  0  0  0  0  0  0  0  0
    7.5761  -15.3750   21.5478 C   0  0  0  0  0  0  0  0  0  0  0  0
    8.1804  -16.0627   22.7166 C   0  0  2  0  0  0  0  0  0  0  0  0
    7.4674  -16.0104   23.9453 N   0  0  0  0  0  0  0  0  0  0  0  0
    9.6519  -15.9270   22.8024 C   0  0  0  0  0  0  0  0  0  0  0  0
   10.0905  -15.5078   23.9270 O   0  0  0  0  0  0  0  0  0  0  0  0
    9.0600  -11.2119   18.7403 N   0  0  0  0  0  0  0  0  0  0  0  0
   10.6044  -16.1950   21.8146 C   0  0  1  0  0  0  0  0  0  0  0  0
   12.0220  -16.2287   22.1469 C   0  0  0  0  0  0  0  0  0  0  0  0
   12.4331  -17.4035   22.9728 C   0  0  0  0  0  0  0  0  0  0  0  0
   12.7829  -17.0784   24.3752 O   0  0  0  0  0  0  0  0  0  0  0  0
   12.8128  -15.9466   24.8824 C   0  0  0  0  0  0  0  0  0  0  0  0
   12.8443  -16.1906   20.9320 O   0  0  0  0  0  0  0  0  0  0  0  0
   14.1166  -16.1305   20.9824 O   0  0  0  0  0  0  0  0  0  0  0  0
   13.1174  -18.1374   25.2373 O   0  0  0  0  0  0  0  0  0  0  0  0
  2  1  1  1
  2  3  1  0
  2 10  1  0
  3  4  1  0
  4  9  2  0
  4  5  1  0
  5  6  2  0
  6  7  1  0
  8  7  2  0
  9  8  1  0
 10 11  2  0
 10 20  1  0
 13 15  1  0
 13 12  1  0
 14 13  2  0
 16 15  1  0
 17 16  1  0
 18 17  1  0
 19 18  1  6
 20 19  1  0
 21 19  1  0
 21 23  1  0
 22 21  2  0
 24 23  1  0
 24 28  1  0
 24 25  1  6
 25 26  1  0
 26 30  1  0
 26 27  2  0
 28 31  1  0
 29 28  2  0
M  END
$$$$
