FRD.pdb
     RDKit          3D

 31 31  0  0  1  0  0  0  0  0999 V2000
    6.1902  -16.5575   25.4283 N   0  0  0  0  0  0  0  0  0  0  0  0
    7.1518  -15.6341   24.8745 C   0  0  1  0  0  0  0  0  0  0  0  0
    7.8940  -14.9972   26.0220 C   0  0  0  0  0  0  0  0  0  0  0  0
    7.2067  -13.7162   26.3585 C   0  0  0  0  0  0  0  0  0  0  0  0
    7.5926  -12.5186   25.7535 C   0  0  0  0  0  0  0  0  0  0  0  0
    6.9890  -11.3127   26.0316 C   0  0  0  0  0  0  0  0  0  0  0  0
    5.9677  -11.2558   26.9325 C   0  0  0  0  0  0  0  0  0  0  0  0
    5.5574  -12.4190   27.5516 C   0  0  0  0  0  0  0  0  0  0  0  0
    6.1714  -13.6213   27.2636 C   0  0  0  0  0  0  0  0  0  0  0  0
    8.0670  -16.2897   23.9062 C   0  0  0  0  0  0  0  0  0  0  0  0
    8.3701  -17.5024   24.0075 O   0  0  0  0  0  0  0  0  0  0  0  0
    8.7599  -12.5674   16.2548 N   0  0  0  0  0  0  0  0  0  0  0  0
    7.7635  -13.5520   16.4826 C   0  0  0  0  0  0  0  0  0  0  0  0
    6.8402  -13.7336   15.6212 N   0  0  0  0  0  0  0  0  0  0  0  0
    7.7841  -14.3484   17.6744 N   0  0  0  0  0  0  0  0  0  0  0  0
    8.9334  -14.3483   18.5643 C   0  0  0  0  0  0  0  0  0  0  0  0
    8.6468  -15.2723   19.7609 C   0  0  0  0  0  0  0  0  0  0  0  0
    9.8471  -15.3966   20.6399 C   0  0  0  0  0  0  0  0  0  0  0  0
    9.6583  -16.1002   21.9337 C   0  0  2  0  0  0  0  0  0  0  0  0
    8.6570  -15.5988   22.8093 N   0  0  0  0  0  0  0  0  0  0  0  0
   10.9187  -16.5528   22.5642 C   0  0  0  0  0  0  0  0  0  0  0  0
   11.2844  -15.8768   23.5851 O   0  0  0  0  0  0  0  0  0  0  0  0
    6.1048  -14.4699   15.7191 N   0  0  0  0  0  0  0  0  0  0  0  0
   11.7460  -17.6126   22.1806 C   0  0  2  0  0  0  0  0  0  0  0  0
   12.9738  -17.8919   22.9125 C   0  0  0  0  0  0  0  0  0  0  0  0
   13.0050  -19.2307   23.5744 C   0  0  0  0  0  0  0  0  0  0  0  0
   14.2851  -19.5566   24.2452 O   0  0  0  0  0  0  0  0  0  0  0  0
   15.0441  -20.4970   23.9645 C   0  0  0  0  0  0  0  0  0  0  0  0
   14.1442  -17.7677   22.0360 O   0  0  0  0  0  0  0  0  0  0  0  0
   14.0283  -17.5416   20.7869 O   0  0  0  0  0  0  0  0  0  0  0  0
   14.7048  -18.7359   25.3068 O   0  0  0  0  0  0  0  0  0  0  0  0
  2  1  1  1
  2  3  1  0
  2 10  1  0
  3  4  1  0
  4  9  2  0
  4  5  1  0
  5  6  2  0
  6  7  1  0
  8  7  2  0
  9  8  1  0
 10 11  2  0
 10 20  1  0
 13 15  1  0
 13 12  1  0
 14 13  2  0
 16 15  1  0
 17 16  1  0
 18 17  1  0
 19 18  1  6
 20 19  1  0
 21 19  1  0
 21 23  1  0
 22 21  2  0
 24 23  1  0
 24 28  1  0
 24 25  1  1
 25 26  1  0
 26 30  1  0
 26 27  2  0
 28 31  1  0
 29 28  2  0
M  END
$$$$
