FRD.pdb
     RDKit          3D

 31 31  0  0  1  0  0  0  0  0999 V2000
    6.7592  -17.0617   27.0508 N   0  0  0  0  0  0  0  0  0  0  0  0
    7.1091  -16.2170   25.9336 C   0  0  1  0  0  0  0  0  0  0  0  0
    8.0893  -15.1827   26.4261 C   0  0  0  0  0  0  0  0  0  0  0  0
    7.3384  -13.9154   26.6641 C   0  0  0  0  0  0  0  0  0  0  0  0
    8.0118  -12.7374   26.9930 C   0  0  0  0  0  0  0  0  0  0  0  0
    7.3628  -11.5448   27.2216 C   0  0  0  0  0  0  0  0  0  0  0  0
    6.0043  -11.4819   27.1296 C   0  0  0  0  0  0  0  0  0  0  0  0
    5.3029  -12.6258   26.8064 C   0  0  0  0  0  0  0  0  0  0  0  0
    5.9662  -13.8150   26.5799 C   0  0  0  0  0  0  0  0  0  0  0  0
    7.6403  -16.9951   24.7858 C   0  0  0  0  0  0  0  0  0  0  0  0
    8.1416  -18.1341   24.9411 O   0  0  0  0  0  0  0  0  0  0  0  0
    9.9724  -13.5949   18.2402 N   0  0  0  0  0  0  0  0  0  0  0  0
    8.8509  -12.9052   18.7699 C   0  0  0  0  0  0  0  0  0  0  0  0
    8.9791  -11.7043   19.1810 N   0  0  0  0  0  0  0  0  0  0  0  0
    7.5707  -13.5454   18.8474 N   0  0  0  0  0  0  0  0  0  0  0  0
    7.4462  -14.9446   19.2208 C   0  0  0  0  0  0  0  0  0  0  0  0
    8.0543  -15.1512   20.6191 C   0  0  0  0  0  0  0  0  0  0  0  0
    8.0388  -16.5944   21.0010 C   0  0  0  0  0  0  0  0  0  0  0  0
    8.4673  -16.9246   22.3837 C   0  0  2  0  0  0  0  0  0  0  0  0
    7.6185  -16.5111   23.4464 N   0  0  0  0  0  0  0  0  0  0  0  0
    9.9234  -16.7898   22.6128 C   0  0  0  0  0  0  0  0  0  0  0  0
   10.2487  -16.0173   23.5773 O   0  0  0  0  0  0  0  0  0  0  0  0
    8.1990  -11.1651   19.6207 N   0  0  0  0  0  0  0  0  0  0  0  0
   10.9695  -17.3943   21.9091 C   0  0  2  0  0  0  0  0  0  0  0  0
   12.2504  -17.6386   22.5577 C   0  0  0  0  0  0  0  0  0  0  0  0
   12.2818  -18.8587   23.4189 C   0  0  0  0  0  0  0  0  0  0  0  0
   13.5973  -19.1417   24.0387 O   0  0  0  0  0  0  0  0  0  0  0  0
   14.6417  -19.4447   23.4417 C   0  0  0  0  0  0  0  0  0  0  0  0
   13.3291  -17.7283   21.5667 O   0  0  0  0  0  0  0  0  0  0  0  0
   14.5334  -17.9752   21.9037 O   0  0  0  0  0  0  0  0  0  0  0  0
   13.7002  -19.0661   25.4388 O   0  0  0  0  0  0  0  0  0  0  0  0
  2  1  1  1
  2  3  1  0
  2 10  1  0
  3  4  1  0
  4  9  2  0
  4  5  1  0
  5  6  2  0
  6  7  1  0
  8  7  2  0
  9  8  1  0
 10 11  2  0
 10 20  1  0
 13 15  1  0
 13 12  1  0
 14 13  2  0
 16 15  1  0
 17 16  1  0
 18 17  1  0
 19 18  1  6
 20 19  1  0
 21 19  1  0
 21 23  1  0
 22 21  2  0
 24 23  1  0
 24 28  1  0
 24 25  1  6
 25 26  1  0
 26 30  1  0
 26 27  2  0
 28 31  1  0
 29 28  2  0
M  END
$$$$
