FRD.pdb
     RDKit          3D

 31 31  0  0  1  0  0  0  0  0999 V2000
    6.6369  -17.9538   26.6017 N   0  0  0  0  0  0  0  0  0  0  0  0
    6.7790  -16.5987   26.1246 C   0  0  1  0  0  0  0  0  0  0  0  0
    7.4197  -15.7877   27.2224 C   0  0  0  0  0  0  0  0  0  0  0  0
    7.0457  -14.3581   27.0149 C   0  0  0  0  0  0  0  0  0  0  0  0
    7.9683  -13.4464   26.4986 C   0  0  0  0  0  0  0  0  0  0  0  0
    7.6698  -12.1186   26.2898 C   0  0  0  0  0  0  0  0  0  0  0  0
    6.4273  -11.6459   26.5911 C   0  0  0  0  0  0  0  0  0  0  0  0
    5.4873  -12.5169   27.1036 C   0  0  0  0  0  0  0  0  0  0  0  0
    5.8000  -13.8458   27.3080 C   0  0  0  0  0  0  0  0  0  0  0  0
    7.5425  -16.5281   24.8530 C   0  0  0  0  0  0  0  0  0  0  0  0
    8.5273  -17.2737   24.6366 O   0  0  0  0  0  0  0  0  0  0  0  0
    8.2857  -12.2203   18.0653 N   0  0  0  0  0  0  0  0  0  0  0  0
    8.7168  -13.4415   17.4848 C   0  0  0  0  0  0  0  0  0  0  0  0
    9.6261  -13.4340   16.5900 N   0  0  0  0  0  0  0  0  0  0  0  0
    8.1401  -14.6880   17.8954 N   0  0  0  0  0  0  0  0  0  0  0  0
    7.2890  -14.7769   19.0703 C   0  0  0  0  0  0  0  0  0  0  0  0
    8.0893  -14.3384   20.3092 C   0  0  0  0  0  0  0  0  0  0  0  0
    7.3052  -14.5638   21.5596 C   0  0  0  0  0  0  0  0  0  0  0  0
    7.9002  -15.4792   22.5658 C   0  0  2  0  0  0  0  0  0  0  0  0
    7.2157  -15.6222   23.8035 N   0  0  0  0  0  0  0  0  0  0  0  0
    9.3778  -15.4246   22.6324 C   0  0  0  0  0  0  0  0  0  0  0  0
    9.8524  -14.4308   23.2804 O   0  0  0  0  0  0  0  0  0  0  0  0
   10.0459  -14.3062   16.1954 N   0  0  0  0  0  0  0  0  0  0  0  0
   10.3023  -16.3145   22.0770 C   0  0  2  0  0  0  0  0  0  0  0  0
   11.7321  -16.0746   22.2160 C   0  0  0  0  0  0  0  0  0  0  0  0
   12.5493  -17.3119   22.3961 C   0  0  0  0  0  0  0  0  0  0  0  0
   12.2986  -18.0367   23.6637 O   0  0  0  0  0  0  0  0  0  0  0  0
   12.3091  -17.5489   24.8043 C   0  0  0  0  0  0  0  0  0  0  0  0
   12.2505  -15.3259   21.0652 O   0  0  0  0  0  0  0  0  0  0  0  0
   11.5354  -15.0946   20.0357 O   0  0  0  0  0  0  0  0  0  0  0  0
   12.0186  -19.4128   23.5961 O   0  0  0  0  0  0  0  0  0  0  0  0
  2  1  1  1
  2  3  1  0
  2 10  1  0
  3  4  1  0
  4  9  2  0
  4  5  1  0
  5  6  2  0
  6  7  1  0
  8  7  2  0
  9  8  1  0
 10 11  2  0
 10 20  1  0
 13 15  1  0
 13 12  1  0
 14 13  2  0
 16 15  1  0
 17 16  1  0
 18 17  1  0
 19 18  1  1
 20 19  1  0
 21 19  1  0
 21 23  1  0
 22 21  2  0
 24 23  1  0
 24 28  1  0
 24 25  1  6
 25 26  1  0
 26 30  1  0
 26 27  2  0
 28 31  1  0
 29 28  2  0
M  END
$$$$
