FRD.pdb
     RDKit          3D

 31 31  0  0  1  0  0  0  0  0999 V2000
    6.9830  -16.4242   26.4293 N   0  0  0  0  0  0  0  0  0  0  0  0
    7.3739  -15.4844   25.4056 C   0  0  1  0  0  0  0  0  0  0  0  0
    8.2408  -14.4331   26.0509 C   0  0  0  0  0  0  0  0  0  0  0  0
    7.3642  -13.2888   26.4365 C   0  0  0  0  0  0  0  0  0  0  0  0
    7.2897  -12.8621   27.7638 C   0  0  0  0  0  0  0  0  0  0  0  0
    6.4958  -11.8120   28.1674 C   0  0  0  0  0  0  0  0  0  0  0  0
    5.7392  -11.1416   27.2531 C   0  0  0  0  0  0  0  0  0  0  0  0
    5.7860  -11.5338   25.9307 C   0  0  0  0  0  0  0  0  0  0  0  0
    6.5863  -12.5884   25.5397 C   0  0  0  0  0  0  0  0  0  0  0  0
    8.0501  -16.1482   24.2623 C   0  0  0  0  0  0  0  0  0  0  0  0
    8.6751  -17.2260   24.4054 O   0  0  0  0  0  0  0  0  0  0  0  0
    8.3131  -12.3679   17.9136 N   0  0  0  0  0  0  0  0  0  0  0  0
    8.4877  -13.6996   17.4551 C   0  0  0  0  0  0  0  0  0  0  0  0
    9.3252  -13.9471   16.5250 N   0  0  0  0  0  0  0  0  0  0  0  0
    7.7312  -14.7737   18.0286 N   0  0  0  0  0  0  0  0  0  0  0  0
    6.7478  -14.5334   19.0717 C   0  0  0  0  0  0  0  0  0  0  0  0
    7.4605  -14.4693   20.4339 C   0  0  0  0  0  0  0  0  0  0  0  0
    8.5505  -15.4862   20.5154 C   0  0  0  0  0  0  0  0  0  0  0  0
    8.8891  -15.9963   21.8681 C   0  0  2  0  0  0  0  0  0  0  0  0
    8.0373  -15.6165   22.9409 N   0  0  0  0  0  0  0  0  0  0  0  0
   10.3405  -16.0236   22.1570 C   0  0  0  0  0  0  0  0  0  0  0  0
   11.0013  -15.0319   21.6959 O   0  0  0  0  0  0  0  0  0  0  0  0
    9.4209  -14.8872   16.0783 N   0  0  0  0  0  0  0  0  0  0  0  0
   11.0645  -16.9913   22.8601 C   0  0  1  0  0  0  0  0  0  0  0  0
   12.5154  -17.0524   22.7485 C   0  0  0  0  0  0  0  0  0  0  0  0
   13.1344  -18.2392   23.4115 C   0  0  0  0  0  0  0  0  0  0  0  0
   12.5484  -18.5851   24.7275 O   0  0  0  0  0  0  0  0  0  0  0  0
   12.1131  -17.7868   25.5715 C   0  0  0  0  0  0  0  0  0  0  0  0
   12.9329  -17.0220   21.3420 O   0  0  0  0  0  0  0  0  0  0  0  0
   12.0876  -17.0525   20.3884 O   0  0  0  0  0  0  0  0  0  0  0  0
   12.4653  -19.9437   25.0795 O   0  0  0  0  0  0  0  0  0  0  0  0
  2  1  1  1
  2  3  1  0
  2 10  1  0
  3  4  1  0
  4  9  2  0
  4  5  1  0
  5  6  2  0
  6  7  1  0
  8  7  2  0
  9  8  1  0
 10 11  2  0
 10 20  1  0
 13 15  1  0
 13 12  1  0
 14 13  2  0
 16 15  1  0
 17 16  1  0
 18 17  1  0
 19 18  1  6
 20 19  1  0
 21 19  1  0
 21 23  1  0
 22 21  2  0
 24 23  1  0
 24 28  1  0
 24 25  1  6
 25 26  1  0
 26 30  1  0
 26 27  2  0
 28 31  1  0
 29 28  2  0
M  END
$$$$
