FRD.pdb
     RDKit          3D

 31 31  0  0  1  0  0  0  0  0999 V2000
    6.0395  -17.9912   26.0682 N   0  0  0  0  0  0  0  0  0  0  0  0
    6.5052  -16.6566   25.7749 C   0  0  1  0  0  0  0  0  0  0  0  0
    7.2712  -16.1609   26.9752 C   0  0  0  0  0  0  0  0  0  0  0  0
    7.3925  -14.6779   26.8618 C   0  0  0  0  0  0  0  0  0  0  0  0
    6.2551  -13.8731   26.7746 C   0  0  0  0  0  0  0  0  0  0  0  0
    6.3166  -12.5017   26.6686 C   0  0  0  0  0  0  0  0  0  0  0  0
    7.5272  -11.8756   26.6456 C   0  0  0  0  0  0  0  0  0  0  0  0
    8.6750  -12.6373   26.7298 C   0  0  0  0  0  0  0  0  0  0  0  0
    8.5989  -14.0115   26.8356 C   0  0  0  0  0  0  0  0  0  0  0  0
    7.3131  -16.6045   24.5301 C   0  0  0  0  0  0  0  0  0  0  0  0
    8.0896  -17.5366   24.2123 O   0  0  0  0  0  0  0  0  0  0  0  0
    7.7330  -15.5327   17.3115 N   0  0  0  0  0  0  0  0  0  0  0  0
    8.3978  -14.3146   17.0145 C   0  0  0  0  0  0  0  0  0  0  0  0
    9.0168  -14.1816   15.9069 N   0  0  0  0  0  0  0  0  0  0  0  0
    8.3804  -13.2275   17.9489 N   0  0  0  0  0  0  0  0  0  0  0  0
    7.6029  -13.2965   19.1750 C   0  0  0  0  0  0  0  0  0  0  0  0
    8.3123  -14.2293   20.1721 C   0  0  0  0  0  0  0  0  0  0  0  0
    7.5164  -14.3757   21.4267 C   0  0  0  0  0  0  0  0  0  0  0  0
    7.9925  -15.3843   22.4067 C   0  0  2  0  0  0  0  0  0  0  0  0
    7.2645  -15.5088   23.6213 N   0  0  0  0  0  0  0  0  0  0  0  0
    9.4662  -15.4775   22.5092 C   0  0  0  0  0  0  0  0  0  0  0  0
   10.0061  -14.6350   23.3040 O   0  0  0  0  0  0  0  0  0  0  0  0
    9.5645  -13.3268   15.6581 N   0  0  0  0  0  0  0  0  0  0  0  0
   10.3253  -16.3608   21.8484 C   0  0  2  0  0  0  0  0  0  0  0  0
   11.7633  -16.2948   22.0693 C   0  0  0  0  0  0  0  0  0  0  0  0
   12.4398  -17.6255   22.1226 C   0  0  0  0  0  0  0  0  0  0  0  0
   12.6751  -18.1427   23.4908 O   0  0  0  0  0  0  0  0  0  0  0  0
   13.0897  -19.2735   23.7885 C   0  0  0  0  0  0  0  0  0  0  0  0
   12.4125  -15.4724   21.0418 O   0  0  0  0  0  0  0  0  0  0  0  0
   11.9204  -15.3438   19.8730 O   0  0  0  0  0  0  0  0  0  0  0  0
   12.4114  -17.2891   24.5764 O   0  0  0  0  0  0  0  0  0  0  0  0
  2  1  1  1
  2  3  1  0
  2 10  1  0
  3  4  1  0
  4  9  2  0
  4  5  1  0
  5  6  2  0
  6  7  1  0
  8  7  2  0
  9  8  1  0
 10 11  2  0
 10 20  1  0
 13 15  1  0
 13 12  1  0
 14 13  2  0
 16 15  1  0
 17 16  1  0
 18 17  1  0
 19 18  1  1
 20 19  1  0
 21 19  1  0
 21 23  1  0
 22 21  2  0
 24 23  1  0
 24 28  1  0
 24 25  1  6
 25 26  1  0
 26 30  1  0
 26 27  2  0
 28 31  1  0
 29 28  2  0
M  END
$$$$
