CQW.pdb
     RDKit          3D

 30 31  0  0  1  0  0  0  0  0999 V2000
    6.8143  -15.1490   19.5736 N   0  0  0  0  0  0  0  0  0  0  0  0
    8.0386  -14.8783   20.2829 C   0  0  1  0  0  0  0  0  0  0  0  0
    7.9778  -13.5167   20.9413 C   0  0  0  0  0  0  0  0  0  0  0  0
    6.7080  -13.4704   22.2445 S   0  0  0  0  0  0  0  0  0  0  0  0
    8.3751  -15.8976   21.2986 C   0  0  0  0  0  0  0  0  0  0  0  0
    7.5377  -16.7195   21.7371 O   0  0  0  0  0  0  0  0  0  0  0  0
   13.8304  -18.8779   21.3901 N   0  0  0  0  0  0  0  0  0  0  0  0
   12.8767  -19.6527   22.0612 C   0  0  0  0  0  0  0  0  0  0  0  0
   12.9158  -20.9037   22.0769 O   0  0  0  0  0  0  0  0  0  0  0  0
   11.7514  -18.9934   22.7978 C   0  0  0  0  0  0  0  0  0  0  0  0
   11.2077  -17.8241   22.0379 C   0  0  0  0  0  0  0  0  0  0  0  0
   10.1145  -17.0841   22.7092 C   0  0  2  0  0  0  0  0  0  0  0  0
    9.6928  -15.9718   21.8171 N   0  0  0  0  0  0  0  0  0  0  0  0
   10.4179  -16.4666   24.0222 C   0  0  0  0  0  0  0  0  0  0  0  0
   11.3988  -15.6825   24.0286 O   0  0  0  0  0  0  0  0  0  0  0  0
    9.7281  -16.6846   25.1961 N   0  0  0  0  0  0  0  0  0  0  0  0
   10.0974  -16.7292   26.5694 C   0  0  1  0  0  0  0  0  0  0  0  0
    8.8388  -16.4916   27.3731 C   0  0  0  0  0  0  0  0  0  0  0  0
    7.8143  -15.6750   26.6958 C   0  0  0  0  0  0  0  0  0  0  0  0
    6.7527  -16.1243   25.9461 C   0  0  0  0  0  0  0  0  0  0  0  0
    6.0487  -15.0701   25.5050 N   0  0  0  0  0  0  0  0  0  0  0  0
    6.6277  -13.9491   25.9493 C   0  0  0  0  0  0  0  0  0  0  0  0
    6.2674  -12.6149   25.7507 C   0  0  0  0  0  0  0  0  0  0  0  0
    7.0281  -11.6161   26.3119 C   0  0  0  0  0  0  0  0  0  0  0  0
    8.1588  -11.9512   27.0779 C   0  0  0  0  0  0  0  0  0  0  0  0
    8.4656  -13.2795   27.2384 C   0  0  0  0  0  0  0  0  0  0  0  0
    7.7231  -14.3013   26.6886 C   0  0  0  0  0  0  0  0  0  0  0  0
   10.9124  -17.8119   27.0825 C   0  0  0  0  0  0  0  0  0  0  0  0
   11.2586  -18.8728   26.5358 O   0  0  0  0  0  0  0  0  0  0  0  0
   11.4244  -17.6927   28.4105 O   0  0  0  0  0  0  0  0  0  0  0  0
  2  1  1  1
  2  5  1  0
  3  2  1  0
  4  3  1  0
  5  6  2  0
  8  7  1  0
  8  9  2  0
 10 11  1  0
 10  8  1  0
 12 11  1  6
 12 14  1  0
 13  5  1  0
 13 12  1  0
 14 15  2  0
 16 17  1  0
 16 14  1  0
 17 28  1  0
 17 18  1  1
 19 18  1  0
 20 19  2  0
 21 22  1  0
 21 20  1  0
 22 27  2  0
 23 24  2  0
 23 22  1  0
 24 25  1  0
 25 26  2  0
 27 19  1  0
 27 26  1  0
 28 29  2  0
 28 30  1  0
M  END
$$$$
