CQW.pdb
     RDKit          3D

 30 31  0  0  1  0  0  0  0  0999 V2000
    9.7657  -13.7828   18.6140 N   0  0  0  0  0  0  0  0  0  0  0  0
    8.6476  -13.6729   19.5158 C   0  0  1  0  0  0  0  0  0  0  0  0
    7.3535  -13.5500   18.7404 C   0  0  0  0  0  0  0  0  0  0  0  0
    7.6686  -13.3447   16.9595 S   0  0  0  0  0  0  0  0  0  0  0  0
    8.5408  -14.7962   20.4701 C   0  0  0  0  0  0  0  0  0  0  0  0
    7.5876  -14.9138   21.2742 O   0  0  0  0  0  0  0  0  0  0  0  0
   11.6751  -19.7663   23.4650 N   0  0  0  0  0  0  0  0  0  0  0  0
   11.4487  -19.5274   22.1042 C   0  0  0  0  0  0  0  0  0  0  0  0
   12.3805  -19.4227   21.2749 O   0  0  0  0  0  0  0  0  0  0  0  0
   10.0509  -19.3843   21.5852 C   0  0  0  0  0  0  0  0  0  0  0  0
    9.9031  -18.1619   20.7343 C   0  0  0  0  0  0  0  0  0  0  0  0
    9.4751  -16.9383   21.4506 C   0  0  2  0  0  0  0  0  0  0  0  0
    9.5446  -15.7973   20.4997 N   0  0  0  0  0  0  0  0  0  0  0  0
   10.2655  -16.5339   22.6377 C   0  0  0  0  0  0  0  0  0  0  0  0
   11.2205  -15.7535   22.4015 O   0  0  0  0  0  0  0  0  0  0  0  0
   10.0386  -16.9399   23.9357 N   0  0  0  0  0  0  0  0  0  0  0  0
   10.2626  -16.3522   25.2119 C   0  0  1  0  0  0  0  0  0  0  0  0
    9.8000  -14.9153   25.1238 C   0  0  0  0  0  0  0  0  0  0  0  0
    8.4008  -14.6874   25.5305 C   0  0  0  0  0  0  0  0  0  0  0  0
    7.3707  -15.5983   25.5176 C   0  0  0  0  0  0  0  0  0  0  0  0
    6.2536  -15.0049   25.9667 N   0  0  0  0  0  0  0  0  0  0  0  0
    6.5337  -13.7324   26.2695 C   0  0  0  0  0  0  0  0  0  0  0  0
    5.7029  -12.7252   26.7643 C   0  0  0  0  0  0  0  0  0  0  0  0
    6.2210  -11.4733   26.9998 C   0  0  0  0  0  0  0  0  0  0  0  0
    7.5801  -11.2236   26.7390 C   0  0  0  0  0  0  0  0  0  0  0  0
    8.3488  -12.2515   26.2522 C   0  0  0  0  0  0  0  0  0  0  0  0
    7.8581  -13.5150   26.0065 C   0  0  0  0  0  0  0  0  0  0  0  0
    9.8318  -17.0226   26.4222 C   0  0  0  0  0  0  0  0  0  0  0  0
    9.0488  -17.9770   26.5653 O   0  0  0  0  0  0  0  0  0  0  0  0
   10.3577  -16.5600   27.6669 O   0  0  0  0  0  0  0  0  0  0  0  0
  2  1  1  6
  2  5  1  0
  3  2  1  0
  4  3  1  0
  5  6  2  0
  8  7  1  0
  8  9  2  0
 10 11  1  0
 10  8  1  0
 12 11  1  6
 12 14  1  0
 13  5  1  0
 13 12  1  0
 14 15  2  0
 16 17  1  0
 16 14  1  0
 17 28  1  0
 17 18  1  6
 19 18  1  0
 20 19  2  0
 21 22  1  0
 21 20  1  0
 22 27  2  0
 23 24  2  0
 23 22  1  0
 24 25  1  0
 25 26  2  0
 27 19  1  0
 27 26  1  0
 28 29  2  0
 28 30  1  0
M  END
$$$$
