CQW.pdb
     RDKit          3D

 30 31  0  0  1  0  0  0  0  0999 V2000
    7.1913  -15.0494   18.8045 N   0  0  0  0  0  0  0  0  0  0  0  0
    8.4296  -14.8168   19.5028 C   0  0  1  0  0  0  0  0  0  0  0  0
    8.4226  -13.4484   20.1498 C   0  0  0  0  0  0  0  0  0  0  0  0
    8.3096  -12.1291   18.9009 S   0  0  0  0  0  0  0  0  0  0  0  0
    8.7368  -15.8390   20.5250 C   0  0  0  0  0  0  0  0  0  0  0  0
    7.8479  -16.4895   21.1213 O   0  0  0  0  0  0  0  0  0  0  0  0
   12.9828  -20.3173   21.0978 N   0  0  0  0  0  0  0  0  0  0  0  0
   11.9801  -20.1143   20.1420 C   0  0  0  0  0  0  0  0  0  0  0  0
   11.7393  -20.9408   19.2332 O   0  0  0  0  0  0  0  0  0  0  0  0
   11.1451  -18.8713   20.1762 C   0  0  0  0  0  0  0  0  0  0  0  0
   11.5287  -17.9829   21.3181 C   0  0  0  0  0  0  0  0  0  0  0  0
   10.4340  -17.1535   21.8721 C   0  0  2  0  0  0  0  0  0  0  0  0
   10.0851  -16.1158   20.8658 N   0  0  0  0  0  0  0  0  0  0  0  0
   10.7041  -16.4273   23.1358 C   0  0  0  0  0  0  0  0  0  0  0  0
   11.3179  -15.3396   23.0049 O   0  0  0  0  0  0  0  0  0  0  0  0
   10.3459  -16.8454   24.4001 N   0  0  0  0  0  0  0  0  0  0  0  0
   10.4379  -16.2696   25.6979 C   0  0  1  0  0  0  0  0  0  0  0  0
    9.9058  -14.8581   25.5937 C   0  0  0  0  0  0  0  0  0  0  0  0
    8.4374  -14.7410   25.6662 C   0  0  0  0  0  0  0  0  0  0  0  0
    7.5121  -15.7425   25.4878 C   0  0  0  0  0  0  0  0  0  0  0  0
    6.2792  -15.2339   25.6393 N   0  0  0  0  0  0  0  0  0  0  0  0
    6.3823  -13.9281   25.9106 C   0  0  0  0  0  0  0  0  0  0  0  0
    5.3843  -12.9794   26.1418 C   0  0  0  0  0  0  0  0  0  0  0  0
    5.7353  -11.6753   26.4012 C   0  0  0  0  0  0  0  0  0  0  0  0
    7.0941  -11.3140   26.4299 C   0  0  0  0  0  0  0  0  0  0  0  0
    8.0315  -12.2888   26.1941 C   0  0  0  0  0  0  0  0  0  0  0  0
    7.7105  -13.6023   25.9315 C   0  0  0  0  0  0  0  0  0  0  0  0
    9.9516  -16.9838   26.8612 C   0  0  0  0  0  0  0  0  0  0  0  0
    9.9913  -16.6659   28.0619 O   0  0  0  0  0  0  0  0  0  0  0  0
    9.3195  -18.2478   26.6545 O   0  0  0  0  0  0  0  0  0  0  0  0
  2  1  1  1
  2  5  1  0
  3  2  1  0
  4  3  1  0
  5  6  2  0
  8  7  1  0
  8  9  2  0
 10 11  1  0
 10  8  1  0
 12 11  1  6
 12 14  1  0
 13  5  1  0
 13 12  1  0
 14 15  2  0
 16 17  1  0
 16 14  1  0
 17 28  1  0
 17 18  1  6
 19 18  1  0
 20 19  2  0
 21 22  1  0
 21 20  1  0
 22 27  2  0
 23 24  2  0
 23 22  1  0
 24 25  1  0
 25 26  2  0
 27 19  1  0
 27 26  1  0
 28 29  2  0
 28 30  1  0
M  END
$$$$
