CQW.pdb
     RDKit          3D

 30 31  0  0  1  0  0  0  0  0999 V2000
    7.1364  -15.1264   18.0014 N   0  0  0  0  0  0  0  0  0  0  0  0
    8.0573  -14.6363   18.9950 C   0  0  1  0  0  0  0  0  0  0  0  0
    7.4849  -13.4207   19.6920 C   0  0  0  0  0  0  0  0  0  0  0  0
    8.6314  -12.7833   20.9539 S   0  0  0  0  0  0  0  0  0  0  0  0
    8.4347  -15.6465   20.0055 C   0  0  0  0  0  0  0  0  0  0  0  0
    7.6093  -16.4432   20.5083 O   0  0  0  0  0  0  0  0  0  0  0  0
   13.5974  -18.7787   19.3193 N   0  0  0  0  0  0  0  0  0  0  0  0
   12.2604  -18.7851   18.9041 C   0  0  0  0  0  0  0  0  0  0  0  0
   11.9282  -18.9313   17.7061 O   0  0  0  0  0  0  0  0  0  0  0  0
   11.1587  -18.6113   19.9039 C   0  0  0  0  0  0  0  0  0  0  0  0
   11.4224  -17.4546   20.8166 C   0  0  0  0  0  0  0  0  0  0  0  0
   10.2175  -16.8064   21.3835 C   0  0  2  0  0  0  0  0  0  0  0  0
    9.7800  -15.7405   20.4437 N   0  0  0  0  0  0  0  0  0  0  0  0
   10.3553  -16.1562   22.7085 C   0  0  0  0  0  0  0  0  0  0  0  0
   10.9254  -15.0373   22.6965 O   0  0  0  0  0  0  0  0  0  0  0  0
    9.9212  -16.6729   23.9110 N   0  0  0  0  0  0  0  0  0  0  0  0
   10.2286  -16.4050   25.2740 C   0  0  1  0  0  0  0  0  0  0  0  0
    9.7923  -14.9846   25.5543 C   0  0  0  0  0  0  0  0  0  0  0  0
    8.3384  -14.8032   25.7221 C   0  0  0  0  0  0  0  0  0  0  0  0
    7.3573  -15.7550   25.5715 C   0  0  0  0  0  0  0  0  0  0  0  0
    6.1616  -15.1961   25.8153 N   0  0  0  0  0  0  0  0  0  0  0  0
    6.3430  -13.9061   26.1192 C   0  0  0  0  0  0  0  0  0  0  0  0
    5.4073  -12.9211   26.4412 C   0  0  0  0  0  0  0  0  0  0  0  0
    5.8351  -11.6437   26.7178 C   0  0  0  0  0  0  0  0  0  0  0  0
    7.2087  -11.3459   26.6723 C   0  0  0  0  0  0  0  0  0  0  0  0
    8.0826  -12.3539   26.3488 C   0  0  0  0  0  0  0  0  0  0  0  0
    7.6840  -13.6421   26.0669 C   0  0  0  0  0  0  0  0  0  0  0  0
    9.8519  -17.3391   26.3158 C   0  0  0  0  0  0  0  0  0  0  0  0
    9.1651  -18.3724   26.2452 O   0  0  0  0  0  0  0  0  0  0  0  0
   10.3152  -17.0844   27.6426 O   0  0  0  0  0  0  0  0  0  0  0  0
  2  1  1  6
  2  5  1  0
  3  2  1  0
  4  3  1  0
  5  6  2  0
  8  7  1  0
  8  9  2  0
 10 11  1  0
 10  8  1  0
 12 11  1  6
 12 14  1  0
 13  5  1  0
 13 12  1  0
 14 15  2  0
 16 17  1  0
 16 14  1  0
 17 28  1  0
 17 18  1  1
 19 18  1  0
 20 19  2  0
 21 22  1  0
 21 20  1  0
 22 27  2  0
 23 24  2  0
 23 22  1  0
 24 25  1  0
 25 26  2  0
 27 19  1  0
 27 26  1  0
 28 29  2  0
 28 30  1  0
M  END
$$$$
