CQW.pdb
     RDKit          3D

 30 31  0  0  1  0  0  0  0  0999 V2000
    6.0875  -18.3890   21.1238 N   0  0  0  0  0  0  0  0  0  0  0  0
    7.1081  -17.3725   21.1081 C   0  0  1  0  0  0  0  0  0  0  0  0
    6.5272  -16.0341   21.5108 C   0  0  0  0  0  0  0  0  0  0  0  0
    5.2548  -15.4854   20.3306 S   0  0  0  0  0  0  0  0  0  0  0  0
    8.2679  -17.6812   21.9705 C   0  0  0  0  0  0  0  0  0  0  0  0
    8.1673  -18.3396   23.0313 O   0  0  0  0  0  0  0  0  0  0  0  0
   14.4662  -18.3879   20.2844 N   0  0  0  0  0  0  0  0  0  0  0  0
   14.4194  -17.5120   21.3757 C   0  0  0  0  0  0  0  0  0  0  0  0
   15.3220  -16.6761   21.6071 O   0  0  0  0  0  0  0  0  0  0  0  0
   13.2612  -17.5496   22.3246 C   0  0  0  0  0  0  0  0  0  0  0  0
   11.9559  -17.4187   21.6038 C   0  0  0  0  0  0  0  0  0  0  0  0
   10.7486  -17.5031   22.4575 C   0  0  2  0  0  0  0  0  0  0  0  0
    9.5606  -17.2254   21.6075 N   0  0  0  0  0  0  0  0  0  0  0  0
   10.6611  -16.5694   23.6054 C   0  0  0  0  0  0  0  0  0  0  0  0
   10.8258  -15.3575   23.3206 O   0  0  0  0  0  0  0  0  0  0  0  0
   10.4235  -16.9219   24.9171 N   0  0  0  0  0  0  0  0  0  0  0  0
   10.6680  -16.2969   26.1717 C   0  0  1  0  0  0  0  0  0  0  0  0
   10.1573  -14.8777   26.0651 C   0  0  0  0  0  0  0  0  0  0  0  0
    8.6896  -14.7492   25.9981 C   0  0  0  0  0  0  0  0  0  0  0  0
    7.7758  -15.7494   25.7626 C   0  0  0  0  0  0  0  0  0  0  0  0
    6.5388  -15.2288   25.7851 N   0  0  0  0  0  0  0  0  0  0  0  0
    6.6281  -13.9166   26.0285 C   0  0  0  0  0  0  0  0  0  0  0  0
    5.6217  -12.9553   26.1399 C   0  0  0  0  0  0  0  0  0  0  0  0
    5.9589  -11.6466   26.3945 C   0  0  0  0  0  0  0  0  0  0  0  0
    7.3124  -11.2934   26.5389 C   0  0  0  0  0  0  0  0  0  0  0  0
    8.2588  -12.2804   26.4180 C   0  0  0  0  0  0  0  0  0  0  0  0
    7.9516  -13.5988   26.1633 C   0  0  0  0  0  0  0  0  0  0  0  0
   10.2963  -16.9511   27.4101 C   0  0  0  0  0  0  0  0  0  0  0  0
   10.3258  -16.5204   28.5754 O   0  0  0  0  0  0  0  0  0  0  0  0
    9.8132  -18.2933   27.3390 O   0  0  0  0  0  0  0  0  0  0  0  0
  2  1  1  1
  2  5  1  0
  3  2  1  0
  4  3  1  0
  5  6  2  0
  8  7  1  0
  8  9  2  0
 10 11  1  0
 10  8  1  0
 12 11  1  6
 12 14  1  0
 13  5  1  0
 13 12  1  0
 14 15  2  0
 16 17  1  0
 16 14  1  0
 17 28  1  0
 17 18  1  6
 19 18  1  0
 20 19  2  0
 21 22  1  0
 21 20  1  0
 22 27  2  0
 23 24  2  0
 23 22  1  0
 24 25  1  0
 25 26  2  0
 27 19  1  0
 27 26  1  0
 28 29  2  0
 28 30  1  0
M  END
$$$$
