YLQ.pdb
     RDKit          3D

 30 30  0  0  1  0  0  0  0  0999 V2000
    7.2552  -21.5689   17.8558 O   0  0  0  0  0  0  0  0  0  0  0  0
    7.7607  -20.7099   18.8399 C   0  0  0  0  0  0  0  0  0  0  0  0
    7.0491  -20.4497   19.9954 C   0  0  0  0  0  0  0  0  0  0  0  0
    7.5914  -19.5953   20.9351 C   0  0  0  0  0  0  0  0  0  0  0  0
    8.8112  -18.9888   20.7744 C   0  0  0  0  0  0  0  0  0  0  0  0
    9.3716  -18.0752   21.7987 C   0  0  0  0  0  0  0  0  0  0  0  0
    8.6625  -16.7291   21.6043 C   0  0  2  0  0  0  0  0  0  0  0  0
    9.0464  -16.2416   20.3127 N   0  0  0  0  0  0  0  0  0  0  0  0
    9.0133  -15.7908   22.6985 C   0  0  0  0  0  0  0  0  0  0  0  0
   10.1616  -15.3148   22.8036 O   0  0  0  0  0  0  0  0  0  0  0  0
    9.5117  -19.2578   19.6147 C   0  0  0  0  0  0  0  0  0  0  0  0
    8.9875  -20.1138   18.6543 C   0  0  0  0  0  0  0  0  0  0  0  0
    5.3706  -12.8262   26.7322 C   0  0  0  0  0  0  0  0  0  0  0  0
    6.7529  -13.1420   26.3173 C   0  0  2  0  0  0  0  0  0  0  0  0
    7.4888  -11.7924   26.1226 C   0  0  0  0  0  0  0  0  0  0  0  0
    6.9888  -13.9205   25.1024 C   0  0  0  0  0  0  0  0  0  0  0  0
    8.3219  -14.4489   24.7470 C   0  0  2  0  0  0  0  0  0  0  0  0
    8.0261  -15.4292   23.6409 N   0  0  0  0  0  0  0  0  0  0  0  0
    9.0432  -15.2488   25.7226 C   0  0  0  0  0  0  0  0  0  0  0  0
    8.6231  -16.3890   26.0426 O   0  0  0  0  0  0  0  0  0  0  0  0
   15.7051  -16.0167   27.9977 N   0  0  0  0  0  0  0  0  0  0  0  0
   14.8134  -16.5023   27.0041 C   0  0  0  0  0  0  0  0  0  0  0  0
   15.2877  -16.7940   25.8864 O   0  0  0  0  0  0  0  0  0  0  0  0
   13.3828  -16.6280   27.3614 C   0  0  0  0  0  0  0  0  0  0  0  0
   12.4763  -15.6663   26.6592 C   0  0  0  0  0  0  0  0  0  0  0  0
   11.0303  -15.7681   27.1249 C   0  0  2  0  0  0  0  0  0  0  0  0
   10.2301  -14.8086   26.3405 N   0  0  0  0  0  0  0  0  0  0  0  0
   10.9570  -15.4798   28.5534 C   0  0  0  0  0  0  0  0  0  0  0  0
   10.2106  -14.4231   29.0795 O   0  0  0  0  0  0  0  0  0  0  0  0
   11.5669  -16.1670   29.4097 O   0  0  0  0  0  0  0  0  0  0  0  0
  2  1  1  0
  3  2  2  0
  4  3  1  0
  5  4  2  0
  5 11  1  0
  6  7  1  0
  6  5  1  0
  7  9  1  0
  7  8  1  6
  9 10  2  0
 11 12  2  0
 12  2  1  0
 14 13  1  6
 15 14  1  0
 16 14  1  0
 17 16  1  1
 18 17  1  0
 18  9  1  0
 19 17  1  0
 19 20  2  0
 21 22  1  0
 22 24  1  0
 23 22  2  0
 24 25  1  0
 26 25  1  6
 26 28  1  0
 26 27  1  0
 27 19  1  0
 28 29  1  0
 30 28  2  0
M  END
$$$$
