YLQ.pdb
     RDKit          3D

 30 30  0  0  1  0  0  0  0  0999 V2000
    5.6077  -19.1005   16.3123 O   0  0  0  0  0  0  0  0  0  0  0  0
    6.2936  -18.6972   17.4651 C   0  0  0  0  0  0  0  0  0  0  0  0
    7.6739  -18.6380   17.4913 C   0  0  0  0  0  0  0  0  0  0  0  0
    8.3026  -18.2340   18.6526 C   0  0  0  0  0  0  0  0  0  0  0  0
    7.6170  -17.8865   19.7887 C   0  0  0  0  0  0  0  0  0  0  0  0
    8.3158  -17.4559   21.0233 C   0  0  0  0  0  0  0  0  0  0  0  0
    8.2219  -15.9253   21.0554 C   0  0  2  0  0  0  0  0  0  0  0  0
    8.9464  -15.4420   19.9176 N   0  0  0  0  0  0  0  0  0  0  0  0
    8.7488  -15.3962   22.3374 C   0  0  0  0  0  0  0  0  0  0  0  0
    9.9698  -15.4086   22.5929 O   0  0  0  0  0  0  0  0  0  0  0  0
    6.2378  -17.9503   19.7484 C   0  0  0  0  0  0  0  0  0  0  0  0
    5.5819  -18.3536   18.5921 C   0  0  0  0  0  0  0  0  0  0  0  0
    5.8485  -12.4128   26.9415 C   0  0  0  0  0  0  0  0  0  0  0  0
    7.1137  -12.9928   26.4460 C   0  0  2  0  0  0  0  0  0  0  0  0
    8.1953  -11.8892   26.5603 C   0  0  0  0  0  0  0  0  0  0  0  0
    7.1927  -13.5092   25.0804 C   0  0  0  0  0  0  0  0  0  0  0  0
    8.3351  -14.3156   24.6036 C   0  0  2  0  0  0  0  0  0  0  0  0
    7.8488  -14.8676   23.2881 N   0  0  0  0  0  0  0  0  0  0  0  0
    8.7150  -15.5042   25.3484 C   0  0  0  0  0  0  0  0  0  0  0  0
    7.9420  -16.4935   25.4006 O   0  0  0  0  0  0  0  0  0  0  0  0
   13.8409  -20.4262   25.5474 N   0  0  0  0  0  0  0  0  0  0  0  0
   13.3266  -19.1265   25.2937 C   0  0  0  0  0  0  0  0  0  0  0  0
   13.8891  -18.4369   24.4176 O   0  0  0  0  0  0  0  0  0  0  0  0
   12.1599  -18.6781   26.0860 C   0  0  0  0  0  0  0  0  0  0  0  0
   11.5507  -17.3903   25.6277 C   0  0  0  0  0  0  0  0  0  0  0  0
   10.3848  -16.9438   26.4991 C   0  0  2  0  0  0  0  0  0  0  0  0
    9.9443  -15.6174   26.0267 N   0  0  0  0  0  0  0  0  0  0  0  0
   10.8089  -16.8980   27.8945 C   0  0  0  0  0  0  0  0  0  0  0  0
   10.8090  -15.7247   28.6521 O   0  0  0  0  0  0  0  0  0  0  0  0
   11.2070  -17.9181   28.5095 O   0  0  0  0  0  0  0  0  0  0  0  0
  2  1  1  0
  3  2  2  0
  4  3  1  0
  5  4  2  0
  5 11  1  0
  6  7  1  0
  6  5  1  0
  7  9  1  0
  7  8  1  6
  9 10  2  0
 11 12  2  0
 12  2  1  0
 14 13  1  6
 15 14  1  0
 16 14  1  0
 17 16  1  1
 18 17  1  0
 18  9  1  0
 19 17  1  0
 19 20  2  0
 21 22  1  0
 22 24  1  0
 23 22  2  0
 24 25  1  0
 26 25  1  6
 26 28  1  0
 26 27  1  0
 27 19  1  0
 28 29  1  0
 30 28  2  0
M  END
$$$$
