YLQ.pdb
     RDKit          3D

 30 30  0  0  1  0  0  0  0  0999 V2000
   12.5025  -17.7319   31.5886 O   0  0  0  0  0  0  0  0  0  0  0  0
   11.8319  -17.5603   30.3709 C   0  0  0  0  0  0  0  0  0  0  0  0
   11.8234  -18.5564   29.4133 C   0  0  0  0  0  0  0  0  0  0  0  0
   11.1475  -18.3378   28.2290 C   0  0  0  0  0  0  0  0  0  0  0  0
   10.4798  -17.1710   27.9568 C   0  0  0  0  0  0  0  0  0  0  0  0
    9.7614  -16.9609   26.6771 C   0  0  0  0  0  0  0  0  0  0  0  0
    8.2681  -16.9276   27.0261 C   0  0  2  0  0  0  0  0  0  0  0  0
    7.8973  -18.2640   27.3865 N   0  0  0  0  0  0  0  0  0  0  0  0
    7.4769  -16.4008   25.8871 C   0  0  0  0  0  0  0  0  0  0  0  0
    6.7594  -17.1487   25.1928 O   0  0  0  0  0  0  0  0  0  0  0  0
   10.4965  -16.1839   28.9229 C   0  0  0  0  0  0  0  0  0  0  0  0
   11.1694  -16.3796   30.1224 C   0  0  0  0  0  0  0  0  0  0  0  0
    5.3379  -12.3578   26.5462 C   0  0  0  0  0  0  0  0  0  0  0  0
    6.6842  -12.3790   25.9382 C   0  0  2  0  0  0  0  0  0  0  0  0
    7.1488  -10.9063   25.8108 C   0  0  0  0  0  0  0  0  0  0  0  0
    6.8805  -12.9894   24.6242 C   0  0  0  0  0  0  0  0  0  0  0  0
    6.7903  -14.4480   24.4073 C   0  0  2  0  0  0  0  0  0  0  0  0
    7.5376  -15.0234   25.5829 N   0  0  0  0  0  0  0  0  0  0  0  0
    7.4660  -15.0306   23.2602 C   0  0  0  0  0  0  0  0  0  0  0  0
    6.8818  -15.8839   22.5464 O   0  0  0  0  0  0  0  0  0  0  0  0
    8.8341  -12.2898   18.5564 N   0  0  0  0  0  0  0  0  0  0  0  0
    8.4083  -13.6136   18.2662 C   0  0  0  0  0  0  0  0  0  0  0  0
    7.9304  -13.8382   17.1345 O   0  0  0  0  0  0  0  0  0  0  0  0
    8.5589  -14.6359   19.3256 C   0  0  0  0  0  0  0  0  0  0  0  0
    9.2499  -14.1562   20.5633 C   0  0  0  0  0  0  0  0  0  0  0  0
    9.3438  -15.2271   21.6416 C   0  0  2  0  0  0  0  0  0  0  0  0
    8.7758  -14.6729   22.8852 N   0  0  0  0  0  0  0  0  0  0  0  0
   10.7384  -15.6171   21.8209 C   0  0  0  0  0  0  0  0  0  0  0  0
   11.3946  -15.5532   23.0521 O   0  0  0  0  0  0  0  0  0  0  0  0
   11.4460  -16.0368   20.8719 O   0  0  0  0  0  0  0  0  0  0  0  0
  2  1  1  0
  3  2  2  0
  4  3  1  0
  5  4  2  0
  5 11  1  0
  6  7  1  0
  6  5  1  0
  7  9  1  0
  7  8  1  6
  9 10  2  0
 11 12  2  0
 12  2  1  0
 14 13  1  6
 15 14  1  0
 16 14  1  0
 17 16  1  6
 18 17  1  0
 18  9  1  0
 19 17  1  0
 19 20  2  0
 21 22  1  0
 22 24  1  0
 23 22  2  0
 24 25  1  0
 26 25  1  6
 26 28  1  0
 26 27  1  0
 27 19  1  0
 28 29  1  0
 30 28  2  0
M  END
$$$$
