YLQ.pdb
     RDKit          3D

 30 30  0  0  1  0  0  0  0  0999 V2000
    5.9250  -10.6623   27.6826 O   0  0  0  0  0  0  0  0  0  0  0  0
    6.4319  -11.8980   27.2608 C   0  0  0  0  0  0  0  0  0  0  0  0
    6.0690  -12.4411   26.0431 C   0  0  0  0  0  0  0  0  0  0  0  0
    6.5967  -13.6625   25.6732 C   0  0  0  0  0  0  0  0  0  0  0  0
    7.4698  -14.3666   26.4628 C   0  0  0  0  0  0  0  0  0  0  0  0
    8.0225  -15.6765   26.0427 C   0  0  0  0  0  0  0  0  0  0  0  0
    6.9659  -16.3134   25.1313 C   0  0  2  0  0  0  0  0  0  0  0  0
    6.6478  -17.5913   25.6962 N   0  0  0  0  0  0  0  0  0  0  0  0
    7.4677  -16.4115   23.7386 C   0  0  0  0  0  0  0  0  0  0  0  0
    7.4823  -17.4992   23.1279 O   0  0  0  0  0  0  0  0  0  0  0  0
    7.8239  -13.8120   27.6773 C   0  0  0  0  0  0  0  0  0  0  0  0
    7.3067  -12.5846   28.0720 C   0  0  0  0  0  0  0  0  0  0  0  0
    8.6448  -11.8736   19.6907 C   0  0  0  0  0  0  0  0  0  0  0  0
    8.3270  -13.3006   19.9039 C   0  0  2  0  0  0  0  0  0  0  0  0
    7.0462  -13.6079   19.0879 C   0  0  0  0  0  0  0  0  0  0  0  0
    8.0843  -13.7984   21.2571 C   0  0  0  0  0  0  0  0  0  0  0  0
    8.1960  -15.2296   21.6061 C   0  0  2  0  0  0  0  0  0  0  0  0
    7.9389  -15.2487   23.0911 N   0  0  0  0  0  0  0  0  0  0  0  0
    9.4868  -15.8849   21.4788 C   0  0  0  0  0  0  0  0  0  0  0  0
    9.8302  -16.4019   20.3862 O   0  0  0  0  0  0  0  0  0  0  0  0
   15.4745  -15.9102   20.0250 N   0  0  0  0  0  0  0  0  0  0  0  0
   15.0306  -15.1458   21.1369 C   0  0  0  0  0  0  0  0  0  0  0  0
   15.4975  -13.9963   21.2789 O   0  0  0  0  0  0  0  0  0  0  0  0
   14.0459  -15.7646   22.0522 C   0  0  0  0  0  0  0  0  0  0  0  0
   12.6228  -15.6634   21.6003 C   0  0  0  0  0  0  0  0  0  0  0  0
   11.7021  -16.6387   22.3207 C   0  0  2  0  0  0  0  0  0  0  0  0
   10.4080  -15.9658   22.5414 N   0  0  0  0  0  0  0  0  0  0  0  0
   12.3131  -17.0443   23.5822 C   0  0  0  0  0  0  0  0  0  0  0  0
   11.7803  -16.7087   24.8288 O   0  0  0  0  0  0  0  0  0  0  0  0
   13.3675  -17.7251   23.6298 O   0  0  0  0  0  0  0  0  0  0  0  0
  2  1  1  0
  3  2  2  0
  4  3  1  0
  5  4  2  0
  5 11  1  0
  6  7  1  0
  6  5  1  0
  7  9  1  0
  7  8  1  1
  9 10  2  0
 11 12  2  0
 12  2  1  0
 14 13  1  1
 15 14  1  0
 16 14  1  0
 17 16  1  1
 18 17  1  0
 18  9  1  0
 19 17  1  0
 19 20  2  0
 21 22  1  0
 22 24  1  0
 23 22  2  0
 24 25  1  0
 26 25  1  1
 26 28  1  0
 26 27  1  0
 27 19  1  0
 28 29  1  0
 30 28  2  0
M  END
$$$$
