YLQ.pdb
     RDKit          3D

 30 30  0  0  1  0  0  0  0  0999 V2000
   11.7098  -22.4018   20.6058 O   0  0  0  0  0  0  0  0  0  0  0  0
   11.0796  -21.1596   20.7536 C   0  0  0  0  0  0  0  0  0  0  0  0
   11.2564  -20.3999   21.8942 C   0  0  0  0  0  0  0  0  0  0  0  0
   10.6127  -19.1819   21.9912 C   0  0  0  0  0  0  0  0  0  0  0  0
    9.8010  -18.6875   21.0022 C   0  0  0  0  0  0  0  0  0  0  0  0
    9.1211  -17.3764   21.1306 C   0  0  0  0  0  0  0  0  0  0  0  0
    8.1012  -17.5334   22.2655 C   0  0  2  0  0  0  0  0  0  0  0  0
    7.1491  -18.5134   21.8338 N   0  0  0  0  0  0  0  0  0  0  0  0
    7.4740  -16.2284   22.5887 C   0  0  0  0  0  0  0  0  0  0  0  0
    7.0095  -15.4915   21.6957 O   0  0  0  0  0  0  0  0  0  0  0  0
    9.6333  -19.4573   19.8677 C   0  0  0  0  0  0  0  0  0  0  0  0
   10.2699  -20.6861   19.7462 C   0  0  0  0  0  0  0  0  0  0  0  0
    5.6537  -12.3226   26.7829 C   0  0  0  0  0  0  0  0  0  0  0  0
    6.7320  -12.6445   25.8257 C   0  0  2  0  0  0  0  0  0  0  0  0
    6.7809  -11.4918   24.7914 C   0  0  0  0  0  0  0  0  0  0  0  0
    6.6768  -13.8872   25.0573 C   0  0  0  0  0  0  0  0  0  0  0  0
    7.8547  -14.4372   24.3555 C   0  0  2  0  0  0  0  0  0  0  0  0
    7.4015  -15.8121   23.9358 N   0  0  0  0  0  0  0  0  0  0  0  0
    9.0660  -14.6983   25.1147 C   0  0  0  0  0  0  0  0  0  0  0  0
    9.6436  -13.7656   25.7272 O   0  0  0  0  0  0  0  0  0  0  0  0
   10.2277  -14.0772   29.4896 N   0  0  0  0  0  0  0  0  0  0  0  0
   10.8187  -15.3263   29.8189 C   0  0  0  0  0  0  0  0  0  0  0  0
   11.3014  -15.4603   30.9629 O   0  0  0  0  0  0  0  0  0  0  0  0
   10.8232  -16.3832   28.7831 C   0  0  0  0  0  0  0  0  0  0  0  0
    9.9181  -16.1225   27.6201 C   0  0  0  0  0  0  0  0  0  0  0  0
   10.6279  -16.2444   26.2787 C   0  0  2  0  0  0  0  0  0  0  0  0
    9.6406  -15.9805   25.2148 N   0  0  0  0  0  0  0  0  0  0  0  0
   11.2036  -17.5791   26.1514 C   0  0  0  0  0  0  0  0  0  0  0  0
   12.3543  -17.9801   26.8338 O   0  0  0  0  0  0  0  0  0  0  0  0
   10.6995  -18.4606   25.4124 O   0  0  0  0  0  0  0  0  0  0  0  0
  2  1  1  0
  3  2  2  0
  4  3  1  0
  5  4  2  0
  5 11  1  0
  6  7  1  0
  6  5  1  0
  7  9  1  0
  7  8  1  6
  9 10  2  0
 11 12  2  0
 12  2  1  0
 14 13  1  1
 15 14  1  0
 16 14  1  0
 17 16  1  1
 18 17  1  0
 18  9  1  0
 19 17  1  0
 19 20  2  0
 21 22  1  0
 22 24  1  0
 23 22  2  0
 24 25  1  0
 26 25  1  1
 26 28  1  0
 26 27  1  0
 27 19  1  0
 28 29  1  0
 30 28  2  0
M  END
$$$$
