YLQ.pdb
     RDKit          3D

 30 30  0  0  1  0  0  0  0  0999 V2000
    7.6046  -12.7254   16.1044 O   0  0  0  0  0  0  0  0  0  0  0  0
    7.5896  -13.2792   17.3909 C   0  0  0  0  0  0  0  0  0  0  0  0
    8.0238  -12.5560   18.4853 C   0  0  0  0  0  0  0  0  0  0  0  0
    7.9888  -13.1475   19.7327 C   0  0  0  0  0  0  0  0  0  0  0  0
    7.5406  -14.4275   19.9378 C   0  0  0  0  0  0  0  0  0  0  0  0
    7.5131  -15.0399   21.2876 C   0  0  0  0  0  0  0  0  0  0  0  0
    8.9014  -14.7999   21.8940 C   0  0  2  0  0  0  0  0  0  0  0  0
    9.8548  -15.3477   20.9752 N   0  0  0  0  0  0  0  0  0  0  0  0
    8.9935  -15.4061   23.2449 C   0  0  0  0  0  0  0  0  0  0  0  0
   10.0965  -15.6587   23.7702 O   0  0  0  0  0  0  0  0  0  0  0  0
    7.1096  -15.1389   18.8350 C   0  0  0  0  0  0  0  0  0  0  0  0
    7.1348  -14.5661   17.5697 C   0  0  0  0  0  0  0  0  0  0  0  0
    7.9372  -12.7651   27.1190 C   0  0  0  0  0  0  0  0  0  0  0  0
    7.1319  -12.8569   25.8839 C   0  0  2  0  0  0  0  0  0  0  0  0
    5.8161  -12.0798   26.1402 C   0  0  0  0  0  0  0  0  0  0  0  0
    6.7436  -14.1668   25.3632 C   0  0  0  0  0  0  0  0  0  0  0  0
    7.6477  -15.3345   25.4032 C   0  0  2  0  0  0  0  0  0  0  0  0
    7.8074  -15.7033   23.9505 N   0  0  0  0  0  0  0  0  0  0  0  0
    7.1775  -16.5663   26.0142 C   0  0  0  0  0  0  0  0  0  0  0  0
    6.1419  -17.1326   25.5831 O   0  0  0  0  0  0  0  0  0  0  0  0
   12.3682  -19.0190   28.1804 N   0  0  0  0  0  0  0  0  0  0  0  0
   11.6653  -20.2075   27.8467 C   0  0  0  0  0  0  0  0  0  0  0  0
   12.2732  -21.2936   27.9492 O   0  0  0  0  0  0  0  0  0  0  0  0
   10.2608  -20.0772   27.3989 C   0  0  0  0  0  0  0  0  0  0  0  0
    9.6938  -18.6970   27.5134 C   0  0  0  0  0  0  0  0  0  0  0  0
    8.2838  -18.5877   26.9494 C   0  0  2  0  0  0  0  0  0  0  0  0
    7.8443  -17.1864   27.0889 N   0  0  0  0  0  0  0  0  0  0  0  0
    7.3989  -19.4973   27.6696 C   0  0  0  0  0  0  0  0  0  0  0  0
    7.4397  -20.8842   27.5106 O   0  0  0  0  0  0  0  0  0  0  0  0
    6.5344  -19.0891   28.4842 O   0  0  0  0  0  0  0  0  0  0  0  0
  2  1  1  0
  3  2  2  0
  4  3  1  0
  5  4  2  0
  5 11  1  0
  6  7  1  0
  6  5  1  0
  7  9  1  0
  7  8  1  6
  9 10  2  0
 11 12  2  0
 12  2  1  0
 14 13  1  1
 15 14  1  0
 16 14  1  0
 17 16  1  6
 18 17  1  0
 18  9  1  0
 19 17  1  0
 19 20  2  0
 21 22  1  0
 22 24  1  0
 23 22  2  0
 24 25  1  0
 26 25  1  1
 26 28  1  0
 26 27  1  0
 27 19  1  0
 28 29  1  0
 30 28  2  0
M  END
$$$$
