YLQ.pdb
     RDKit          3D

 30 30  0  0  1  0  0  0  0  0999 V2000
   16.6974  -17.2850   12.5731 O   0  0  0  0  0  0  0  0  0  0  0  0
   16.1530  -17.0222   13.8366 C   0  0  0  0  0  0  0  0  0  0  0  0
   16.9633  -16.7297   14.9170 C   0  0  0  0  0  0  0  0  0  0  0  0
   16.3774  -16.4781   16.1419 C   0  0  0  0  0  0  0  0  0  0  0  0
   15.0201  -16.5051   16.3380 C   0  0  0  0  0  0  0  0  0  0  0  0
   14.4155  -16.2312   17.6636 C   0  0  0  0  0  0  0  0  0  0  0  0
   13.7076  -14.8762   17.5385 C   0  0  2  0  0  0  0  0  0  0  0  0
   14.7263  -13.8976   17.2978 N   0  0  0  0  0  0  0  0  0  0  0  0
   12.9122  -14.5877   18.7571 C   0  0  0  0  0  0  0  0  0  0  0  0
   13.4609  -14.2698   19.8314 O   0  0  0  0  0  0  0  0  0  0  0  0
   14.2221  -16.7989   15.2495 C   0  0  0  0  0  0  0  0  0  0  0  0
   14.7875  -17.0557   14.0068 C   0  0  0  0  0  0  0  0  0  0  0  0
    6.8772  -13.3725   19.3731 C   0  0  0  0  0  0  0  0  0  0  0  0
    8.1748  -13.5850   20.0466 C   0  0  2  0  0  0  0  0  0  0  0  0
    8.5055  -12.2824   20.8178 C   0  0  0  0  0  0  0  0  0  0  0  0
    9.3611  -13.9100   19.2562 C   0  0  0  0  0  0  0  0  0  0  0  0
   10.6471  -14.2884   19.8772 C   0  0  2  0  0  0  0  0  0  0  0  0
   11.5042  -14.6748   18.6992 N   0  0  0  0  0  0  0  0  0  0  0  0
   10.6962  -15.4640   20.7301 C   0  0  0  0  0  0  0  0  0  0  0  0
   10.4995  -16.6069   20.2461 O   0  0  0  0  0  0  0  0  0  0  0  0
   13.6195  -19.0778   23.3026 N   0  0  0  0  0  0  0  0  0  0  0  0
   14.1359  -17.9219   22.6583 C   0  0  0  0  0  0  0  0  0  0  0  0
   15.1660  -18.0515   21.9643 O   0  0  0  0  0  0  0  0  0  0  0  0
   13.4183  -16.6426   22.8547 C   0  0  0  0  0  0  0  0  0  0  0  0
   12.1972  -16.7364   23.7147 C   0  0  0  0  0  0  0  0  0  0  0  0
   10.9034  -16.6241   22.9201 C   0  0  2  0  0  0  0  0  0  0  0  0
   10.9714  -15.3932   22.1097 N   0  0  0  0  0  0  0  0  0  0  0  0
    9.7690  -16.5954   23.8374 C   0  0  0  0  0  0  0  0  0  0  0  0
    8.8934  -15.5115   23.9318 O   0  0  0  0  0  0  0  0  0  0  0  0
    9.5052  -17.5501   24.6097 O   0  0  0  0  0  0  0  0  0  0  0  0
  2  1  1  0
  3  2  2  0
  4  3  1  0
  5  4  2  0
  5 11  1  0
  6  7  1  0
  6  5  1  0
  7  9  1  0
  7  8  1  1
  9 10  2  0
 11 12  2  0
 12  2  1  0
 14 13  1  6
 15 14  1  0
 16 14  1  0
 17 16  1  6
 18 17  1  0
 18  9  1  0
 19 17  1  0
 19 20  2  0
 21 22  1  0
 22 24  1  0
 23 22  2  0
 24 25  1  0
 26 25  1  1
 26 28  1  0
 26 27  1  0
 27 19  1  0
 28 29  1  0
 30 28  2  0
M  END
$$$$
