YLQ.pdb
     RDKit          3D

 30 30  0  0  1  0  0  0  0  0999 V2000
   13.3033  -19.6041   19.5661 O   0  0  0  0  0  0  0  0  0  0  0  0
   12.1108  -18.9088   19.8033 C   0  0  0  0  0  0  0  0  0  0  0  0
   11.0115  -19.5417   20.3513 C   0  0  0  0  0  0  0  0  0  0  0  0
    9.8590  -18.8116   20.5654 C   0  0  0  0  0  0  0  0  0  0  0  0
    9.7534  -17.4791   20.2576 C   0  0  0  0  0  0  0  0  0  0  0  0
    8.5043  -16.7174   20.4974 C   0  0  0  0  0  0  0  0  0  0  0  0
    8.1306  -16.9608   21.9650 C   0  0  2  0  0  0  0  0  0  0  0  0
    6.7021  -16.8844   22.0466 N   0  0  0  0  0  0  0  0  0  0  0  0
    8.8083  -15.9787   22.8465 C   0  0  0  0  0  0  0  0  0  0  0  0
    9.8580  -15.4043   22.4938 O   0  0  0  0  0  0  0  0  0  0  0  0
   10.8598  -16.8591   19.7104 C   0  0  0  0  0  0  0  0  0  0  0  0
   12.0308  -17.5719   19.4854 C   0  0  0  0  0  0  0  0  0  0  0  0
    7.7858  -11.8350   24.8095 C   0  0  0  0  0  0  0  0  0  0  0  0
    7.1074  -13.0634   25.2716 C   0  0  2  0  0  0  0  0  0  0  0  0
    6.0866  -12.6382   26.3570 C   0  0  0  0  0  0  0  0  0  0  0  0
    7.8909  -14.1559   25.8463 C   0  0  0  0  0  0  0  0  0  0  0  0
    8.9824  -14.8221   25.1064 C   0  0  2  0  0  0  0  0  0  0  0  0
    8.2529  -15.6882   24.1117 N   0  0  0  0  0  0  0  0  0  0  0  0
    9.8362  -15.7635   25.8111 C   0  0  0  0  0  0  0  0  0  0  0  0
   10.5898  -15.3668   26.7350 O   0  0  0  0  0  0  0  0  0  0  0  0
   13.2498  -21.7906   26.0127 N   0  0  0  0  0  0  0  0  0  0  0  0
   11.8733  -21.4962   25.8220 C   0  0  0  0  0  0  0  0  0  0  0  0
   11.2559  -22.1347   24.9440 O   0  0  0  0  0  0  0  0  0  0  0  0
   11.2650  -20.4518   26.6760 C   0  0  0  0  0  0  0  0  0  0  0  0
   10.4147  -19.4621   25.9433 C   0  0  0  0  0  0  0  0  0  0  0  0
   10.7882  -18.0185   26.2509 C   0  0  2  0  0  0  0  0  0  0  0  0
    9.8589  -17.1403   25.5149 N   0  0  0  0  0  0  0  0  0  0  0  0
   12.1723  -17.7785   25.8564 C   0  0  0  0  0  0  0  0  0  0  0  0
   12.5259  -17.1783   24.6459 O   0  0  0  0  0  0  0  0  0  0  0  0
   13.1439  -18.1006   26.5843 O   0  0  0  0  0  0  0  0  0  0  0  0
  2  1  1  0
  3  2  2  0
  4  3  1  0
  5  4  2  0
  5 11  1  0
  6  7  1  0
  6  5  1  0
  7  9  1  0
  7  8  1  6
  9 10  2  0
 11 12  2  0
 12  2  1  0
 14 13  1  1
 15 14  1  0
 16 14  1  0
 17 16  1  1
 18 17  1  0
 18  9  1  0
 19 17  1  0
 19 20  2  0
 21 22  1  0
 22 24  1  0
 23 22  2  0
 24 25  1  0
 26 25  1  6
 26 28  1  0
 26 27  1  0
 27 19  1  0
 28 29  1  0
 30 28  2  0
M  END
$$$$
