YLQ.pdb
     RDKit          3D

 30 30  0  0  1  0  0  0  0  0999 V2000
    6.7604  -16.2996   14.7503 O   0  0  0  0  0  0  0  0  0  0  0  0
    7.3198  -15.9986   15.9987 C   0  0  0  0  0  0  0  0  0  0  0  0
    8.4022  -16.7059   16.4860 C   0  0  0  0  0  0  0  0  0  0  0  0
    8.9168  -16.3701   17.7227 C   0  0  0  0  0  0  0  0  0  0  0  0
    8.4008  -15.3609   18.4952 C   0  0  0  0  0  0  0  0  0  0  0  0
    8.9718  -15.0198   19.8202 C   0  0  0  0  0  0  0  0  0  0  0  0
    8.0476  -13.9537   20.4219 C   0  0  2  0  0  0  0  0  0  0  0  0
    8.1736  -12.7857   19.6015 N   0  0  0  0  0  0  0  0  0  0  0  0
    8.3987  -13.6982   21.8405 C   0  0  0  0  0  0  0  0  0  0  0  0
    8.8532  -12.5966   22.2095 O   0  0  0  0  0  0  0  0  0  0  0  0
    7.3189  -14.6622   17.9959 C   0  0  0  0  0  0  0  0  0  0  0  0
    6.7831  -14.9810   16.7544 C   0  0  0  0  0  0  0  0  0  0  0  0
    5.7278  -12.2863   26.1378 C   0  0  0  0  0  0  0  0  0  0  0  0
    6.9641  -13.0618   25.9081 C   0  0  2  0  0  0  0  0  0  0  0  0
    8.1378  -12.2255   26.4774 C   0  0  0  0  0  0  0  0  0  0  0  0
    7.3461  -13.4376   24.5477 C   0  0  0  0  0  0  0  0  0  0  0  0
    8.3748  -14.4604   24.2681 C   0  0  2  0  0  0  0  0  0  0  0  0
    8.2142  -14.7240   22.7928 N   0  0  0  0  0  0  0  0  0  0  0  0
    8.2348  -15.7786   24.8636 C   0  0  0  0  0  0  0  0  0  0  0  0
    7.2039  -16.4644   24.6497 O   0  0  0  0  0  0  0  0  0  0  0  0
   12.8769  -19.1199   27.6963 N   0  0  0  0  0  0  0  0  0  0  0  0
   11.8692  -20.1008   27.4957 C   0  0  0  0  0  0  0  0  0  0  0  0
   12.1334  -21.2812   27.8061 O   0  0  0  0  0  0  0  0  0  0  0  0
   10.5752  -19.6569   26.9310 C   0  0  0  0  0  0  0  0  0  0  0  0
   10.5110  -18.2028   26.5832 C   0  0  0  0  0  0  0  0  0  0  0  0
    9.1848  -17.8033   25.9509 C   0  0  2  0  0  0  0  0  0  0  0  0
    9.2256  -16.3531   25.6835 N   0  0  0  0  0  0  0  0  0  0  0  0
    8.0913  -18.1476   26.8536 C   0  0  0  0  0  0  0  0  0  0  0  0
    7.4848  -19.4055   26.8699 O   0  0  0  0  0  0  0  0  0  0  0  0
    7.6187  -17.3280   27.6797 O   0  0  0  0  0  0  0  0  0  0  0  0
  2  1  1  0
  3  2  2  0
  4  3  1  0
  5  4  2  0
  5 11  1  0
  6  7  1  0
  6  5  1  0
  7  9  1  0
  7  8  1  6
  9 10  2  0
 11 12  2  0
 12  2  1  0
 14 13  1  6
 15 14  1  0
 16 14  1  0
 17 16  1  1
 18 17  1  0
 18  9  1  0
 19 17  1  0
 19 20  2  0
 21 22  1  0
 22 24  1  0
 23 22  2  0
 24 25  1  0
 26 25  1  1
 26 28  1  0
 26 27  1  0
 27 19  1  0
 28 29  1  0
 30 28  2  0
M  END
$$$$
