FGG.pdb
     RDKit          3D

 20 20  0  0  1  0  0  0  0  0999 V2000
   21.8836  -10.9694  -19.0650 N   0  0  0  0  0  0  0  0  0  0  0  0
   21.1915  -10.2877  -17.9960 C   0  0  1  0  0  0  0  0  0  0  0  0
   20.3865  -11.2739  -17.1568 C   0  0  0  0  0  0  0  0  0  0  0  0
   19.2899  -11.7862  -18.0154 C   0  0  0  0  0  0  0  0  0  0  0  0
   18.1576  -11.0411  -18.2329 C   0  0  0  0  0  0  0  0  0  0  0  0
   17.1341  -11.5100  -19.0295 C   0  0  0  0  0  0  0  0  0  0  0  0
   17.2436  -12.7552  -19.6243 C   0  0  0  0  0  0  0  0  0  0  0  0
   18.3668  -13.5145  -19.4190 C   0  0  0  0  0  0  0  0  0  0  0  0
   19.3899  -13.0241  -18.6115 C   0  0  0  0  0  0  0  0  0  0  0  0
   22.1589   -9.5551  -17.1130 C   0  0  0  0  0  0  0  0  0  0  0  0
   23.3658   -9.9108  -17.0577 O   0  0  0  0  0  0  0  0  0  0  0  0
   21.7528   -8.4541  -16.3229 N   0  0  0  0  0  0  0  0  0  0  0  0
   22.6375   -7.7723  -15.4017 C   0  0  0  0  0  0  0  0  0  0  0  0
   21.9375   -6.6015  -14.8454 C   0  0  0  0  0  0  0  0  0  0  0  0
   20.8085   -6.2815  -15.2857 O   0  0  0  0  0  0  0  0  0  0  0  0
   22.4991   -5.7938  -13.8016 N   0  0  0  0  0  0  0  0  0  0  0  0
   21.7381   -4.6595  -13.3137 C   0  0  0  0  0  0  0  0  0  0  0  0
   21.8172   -3.5111  -14.2196 C   0  0  0  0  0  0  0  0  0  0  0  0
   21.0276   -2.3650  -14.0872 O   0  0  0  0  0  0  0  0  0  0  0  0
   22.6374   -3.5539  -15.1681 O   0  0  0  0  0  0  0  0  0  0  0  0
  2  1  1  6
  2 10  1  0
  3  2  1  0
  4  3  1  0
  4  5  2  0
  6  5  1  0
  7  6  2  0
  8  9  2  0
  8  7  1  0
  9  4  1  0
 10 11  2  0
 12 10  1  0
 12 13  1  0
 13 14  1  0
 14 15  2  0
 16 17  1  0
 16 14  1  0
 18 19  1  0
 18 17  1  0
 20 18  2  0
M  END
$$$$
