FGG.pdb
     RDKit          3D

 20 20  0  0  1  0  0  0  0  0999 V2000
   27.0063  -22.1785  -11.1418 N   0  0  0  0  0  0  0  0  0  0  0  0
   26.1913  -20.9863  -11.1695 C   0  0  1  0  0  0  0  0  0  0  0  0
   27.0434  -19.7425  -10.9421 C   0  0  0  0  0  0  0  0  0  0  0  0
   27.5908  -19.8326   -9.5657 C   0  0  0  0  0  0  0  0  0  0  0  0
   26.8402  -19.4502   -8.4817 C   0  0  0  0  0  0  0  0  0  0  0  0
   27.3416  -19.5308   -7.1995 C   0  0  0  0  0  0  0  0  0  0  0  0
   28.6257  -20.0054   -6.9940 C   0  0  0  0  0  0  0  0  0  0  0  0
   29.3910  -20.3921   -8.0640 C   0  0  0  0  0  0  0  0  0  0  0  0
   28.8676  -20.3035   -9.3514 C   0  0  0  0  0  0  0  0  0  0  0  0
   25.4677  -20.8625  -12.4784 C   0  0  0  0  0  0  0  0  0  0  0  0
   25.8975  -21.4564  -13.5025 O   0  0  0  0  0  0  0  0  0  0  0  0
   24.2931  -20.0841  -12.6045 N   0  0  0  0  0  0  0  0  0  0  0  0
   23.5860  -19.9160  -13.8567 C   0  0  0  0  0  0  0  0  0  0  0  0
   22.4169  -20.8123  -13.8692 C   0  0  0  0  0  0  0  0  0  0  0  0
   21.6290  -20.7973  -14.8437 O   0  0  0  0  0  0  0  0  0  0  0  0
   22.1323  -21.7202  -12.7960 N   0  0  0  0  0  0  0  0  0  0  0  0
   20.9640  -22.5739  -12.8980 C   0  0  0  0  0  0  0  0  0  0  0  0
   19.7157  -21.8191  -12.7668 C   0  0  0  0  0  0  0  0  0  0  0  0
   19.0955  -21.5556  -11.5418 O   0  0  0  0  0  0  0  0  0  0  0  0
   19.1691  -21.3828  -13.8084 O   0  0  0  0  0  0  0  0  0  0  0  0
  2  1  1  6
  2 10  1  0
  3  2  1  0
  4  3  1  0
  4  5  2  0
  6  5  1  0
  7  6  2  0
  8  9  2  0
  8  7  1  0
  9  4  1  0
 10 11  2  0
 12 10  1  0
 12 13  1  0
 13 14  1  0
 14 15  2  0
 16 17  1  0
 16 14  1  0
 18 19  1  0
 18 17  1  0
 20 18  2  0
M  END
$$$$
