FGG.pdb
     RDKit          3D

 20 20  0  0  1  0  0  0  0  0999 V2000
   29.1054  -21.5003  -12.2692 N   0  0  0  0  0  0  0  0  0  0  0  0
   28.1411  -21.3422  -11.2055 C   0  0  1  0  0  0  0  0  0  0  0  0
   28.7668  -20.6353  -10.0081 C   0  0  0  0  0  0  0  0  0  0  0  0
   29.9381  -21.4428   -9.5861 C   0  0  0  0  0  0  0  0  0  0  0  0
   29.8614  -22.2854   -8.5051 C   0  0  0  0  0  0  0  0  0  0  0  0
   30.9454  -23.0391   -8.1065 C   0  0  0  0  0  0  0  0  0  0  0  0
   32.1370  -22.9495   -8.8052 C   0  0  0  0  0  0  0  0  0  0  0  0
   32.2334  -22.1135   -9.8878 C   0  0  0  0  0  0  0  0  0  0  0  0
   31.1281  -21.3602  -10.2753 C   0  0  0  0  0  0  0  0  0  0  0  0
   26.9473  -20.5638  -11.6760 C   0  0  0  0  0  0  0  0  0  0  0  0
   26.9420  -19.3060  -11.6132 O   0  0  0  0  0  0  0  0  0  0  0  0
   25.8021  -21.2088  -12.1995 N   0  0  0  0  0  0  0  0  0  0  0  0
   24.6036  -20.4976  -12.5919 C   0  0  0  0  0  0  0  0  0  0  0  0
   23.5960  -21.4727  -13.0437 C   0  0  0  0  0  0  0  0  0  0  0  0
   22.4650  -21.0770  -13.4116 O   0  0  0  0  0  0  0  0  0  0  0  0
   23.8539  -22.8830  -13.0833 N   0  0  0  0  0  0  0  0  0  0  0  0
   22.7992  -23.7710  -13.5342 C   0  0  0  0  0  0  0  0  0  0  0  0
   21.5693  -23.6068  -12.7559 C   0  0  0  0  0  0  0  0  0  0  0  0
   21.3728  -24.1688  -11.4910 O   0  0  0  0  0  0  0  0  0  0  0  0
   20.6378  -22.9250  -13.2476 O   0  0  0  0  0  0  0  0  0  0  0  0
  2  1  1  6
  2 10  1  0
  3  2  1  0
  4  3  1  0
  4  5  2  0
  6  5  1  0
  7  6  2  0
  8  9  2  0
  8  7  1  0
  9  4  1  0
 10 11  2  0
 12 10  1  0
 12 13  1  0
 13 14  1  0
 14 15  2  0
 16 17  1  0
 16 14  1  0
 18 19  1  0
 18 17  1  0
 20 18  2  0
M  END
$$$$
