FGG.pdb
     RDKit          3D

 20 20  0  0  1  0  0  0  0  0999 V2000
   25.6054  -20.6414   -7.4923 N   0  0  0  0  0  0  0  0  0  0  0  0
   26.7428  -20.2615   -8.2974 C   0  0  1  0  0  0  0  0  0  0  0  0
   28.0358  -20.8030   -7.6976 C   0  0  0  0  0  0  0  0  0  0  0  0
   28.2149  -20.1470   -6.3787 C   0  0  0  0  0  0  0  0  0  0  0  0
   28.6167  -20.8674   -5.2813 C   0  0  0  0  0  0  0  0  0  0  0  0
   28.7854  -20.2652   -4.0521 C   0  0  0  0  0  0  0  0  0  0  0  0
   28.5469  -18.9085   -3.9148 C   0  0  0  0  0  0  0  0  0  0  0  0
   28.1450  -18.1718   -4.9992 C   0  0  0  0  0  0  0  0  0  0  0  0
   27.9799  -18.7974   -6.2323 C   0  0  0  0  0  0  0  0  0  0  0  0
   26.5960  -20.7654   -9.7035 C   0  0  0  0  0  0  0  0  0  0  0  0
   27.6120  -20.9377  -10.4276 O   0  0  0  0  0  0  0  0  0  0  0  0
   25.3275  -21.0601  -10.2559 N   0  0  0  0  0  0  0  0  0  0  0  0
   24.5666  -20.1110  -11.0410 C   0  0  0  0  0  0  0  0  0  0  0  0
   25.1607  -20.0186  -12.3859 C   0  0  0  0  0  0  0  0  0  0  0  0
   24.5581  -19.3990  -13.2936 O   0  0  0  0  0  0  0  0  0  0  0  0
   26.4227  -20.6170  -12.7121 N   0  0  0  0  0  0  0  0  0  0  0  0
   26.9311  -20.4760  -14.0633 C   0  0  0  0  0  0  0  0  0  0  0  0
   26.6017  -21.6320  -14.9003 C   0  0  0  0  0  0  0  0  0  0  0  0
   27.5618  -22.4461  -15.5085 O   0  0  0  0  0  0  0  0  0  0  0  0
   25.3923  -21.9108  -15.0845 O   0  0  0  0  0  0  0  0  0  0  0  0
  2  1  1  1
  2 10  1  0
  3  2  1  0
  4  3  1  0
  4  5  2  0
  6  5  1  0
  7  6  2  0
  8  9  2  0
  8  7  1  0
  9  4  1  0
 10 11  2  0
 12 10  1  0
 12 13  1  0
 13 14  1  0
 14 15  2  0
 16 17  1  0
 16 14  1  0
 18 19  1  0
 18 17  1  0
 20 18  2  0
M  END
$$$$
