FGG.pdb
     RDKit          3D

 20 20  0  0  1  0  0  0  0  0999 V2000
   28.9009  -21.3252   -8.6257 N   0  0  0  0  0  0  0  0  0  0  0  0
   27.5117  -20.9315   -8.6622 C   0  0  1  0  0  0  0  0  0  0  0  0
   27.3188  -19.5657   -8.0123 C   0  0  0  0  0  0  0  0  0  0  0  0
   27.8318  -19.6654   -6.6235 C   0  0  0  0  0  0  0  0  0  0  0  0
   28.9689  -18.9975   -6.2419 C   0  0  0  0  0  0  0  0  0  0  0  0
   29.4521  -19.0850   -4.9531 C   0  0  0  0  0  0  0  0  0  0  0  0
   28.7828  -19.8593   -4.0210 C   0  0  0  0  0  0  0  0  0  0  0  0
   27.6452  -20.5340   -4.3829 C   0  0  0  0  0  0  0  0  0  0  0  0
   27.1725  -20.4335   -5.6890 C   0  0  0  0  0  0  0  0  0  0  0  0
   27.0042  -20.8881  -10.0739 C   0  0  0  0  0  0  0  0  0  0  0  0
   27.7141  -20.3973  -10.9911 O   0  0  0  0  0  0  0  0  0  0  0  0
   25.7272  -21.3906  -10.4175 N   0  0  0  0  0  0  0  0  0  0  0  0
   25.0428  -21.0400  -11.6443 C   0  0  0  0  0  0  0  0  0  0  0  0
   23.6403  -20.7144  -11.3325 C   0  0  0  0  0  0  0  0  0  0  0  0
   23.3782  -19.8094  -10.5059 O   0  0  0  0  0  0  0  0  0  0  0  0
   22.5377  -21.3987  -11.9433 N   0  0  0  0  0  0  0  0  0  0  0  0
   21.1907  -21.0601  -11.5251 C   0  0  0  0  0  0  0  0  0  0  0  0
   20.5153  -20.1900  -12.4906 C   0  0  0  0  0  0  0  0  0  0  0  0
   19.2287  -19.6765  -12.3021 O   0  0  0  0  0  0  0  0  0  0  0  0
   21.1209  -19.8861  -13.5465 O   0  0  0  0  0  0  0  0  0  0  0  0
  2  1  1  6
  2 10  1  0
  3  2  1  0
  4  3  1  0
  4  5  2  0
  6  5  1  0
  7  6  2  0
  8  9  2  0
  8  7  1  0
  9  4  1  0
 10 11  2  0
 12 10  1  0
 12 13  1  0
 13 14  1  0
 14 15  2  0
 16 17  1  0
 16 14  1  0
 18 19  1  0
 18 17  1  0
 20 18  2  0
M  END
$$$$
