FGG.pdb
     RDKit          3D

 20 20  0  0  1  0  0  0  0  0999 V2000
   26.1325  -19.2324  -17.3459 N   0  0  0  0  0  0  0  0  0  0  0  0
   26.3105  -18.6125  -16.0534 C   0  0  1  0  0  0  0  0  0  0  0  0
   24.9915  -18.0479  -15.5376 C   0  0  0  0  0  0  0  0  0  0  0  0
   24.5742  -16.9799  -16.4796 C   0  0  0  0  0  0  0  0  0  0  0  0
   25.2668  -15.7971  -16.5565 C   0  0  0  0  0  0  0  0  0  0  0  0
   24.8855  -14.7997  -17.4293 C   0  0  0  0  0  0  0  0  0  0  0  0
   23.7841  -14.9878  -18.2465 C   0  0  0  0  0  0  0  0  0  0  0  0
   23.0794  -16.1624  -18.1844 C   0  0  0  0  0  0  0  0  0  0  0  0
   23.4796  -17.1581  -17.2968 C   0  0  0  0  0  0  0  0  0  0  0  0
   26.8553  -19.5952  -15.0585 C   0  0  0  0  0  0  0  0  0  0  0  0
   26.5278  -20.8098  -15.1182 O   0  0  0  0  0  0  0  0  0  0  0  0
   27.7440  -19.1953  -14.0330 N   0  0  0  0  0  0  0  0  0  0  0  0
   28.2746  -20.1104  -13.0445 C   0  0  0  0  0  0  0  0  0  0  0  0
   27.4073  -20.0829  -11.8540 C   0  0  0  0  0  0  0  0  0  0  0  0
   27.1051  -18.9867  -11.3267 O   0  0  0  0  0  0  0  0  0  0  0  0
   26.8815  -21.2766  -11.2576 N   0  0  0  0  0  0  0  0  0  0  0  0
   26.1231  -21.1635  -10.0263 C   0  0  0  0  0  0  0  0  0  0  0  0
   24.6827  -21.3077  -10.2501 C   0  0  0  0  0  0  0  0  0  0  0  0
   23.7281  -21.2137   -9.2331 O   0  0  0  0  0  0  0  0  0  0  0  0
   24.2787  -21.5278  -11.4174 O   0  0  0  0  0  0  0  0  0  0  0  0
  2  1  1  6
  2 10  1  0
  3  2  1  0
  4  3  1  0
  4  5  2  0
  6  5  1  0
  7  6  2  0
  8  9  2  0
  8  7  1  0
  9  4  1  0
 10 11  2  0
 12 10  1  0
 12 13  1  0
 13 14  1  0
 14 15  2  0
 16 17  1  0
 16 14  1  0
 18 19  1  0
 18 17  1  0
 20 18  2  0
M  END
$$$$
