FGG.pdb
     RDKit          3D

 20 20  0  0  1  0  0  0  0  0999 V2000
   27.3068  -33.0675   -9.7454 N   0  0  0  0  0  0  0  0  0  0  0  0
   25.8653  -33.1543   -9.7156 C   0  0  1  0  0  0  0  0  0  0  0  0
   25.3715  -34.2736  -10.6257 C   0  0  0  0  0  0  0  0  0  0  0  0
   24.7306  -33.6321  -11.8004 C   0  0  0  0  0  0  0  0  0  0  0  0
   25.3795  -33.5637  -13.0082 C   0  0  0  0  0  0  0  0  0  0  0  0
   24.7908  -32.9693  -14.1046 C   0  0  0  0  0  0  0  0  0  0  0  0
   23.5212  -32.4289  -13.9924 C   0  0  0  0  0  0  0  0  0  0  0  0
   22.8568  -32.4874  -12.7943 C   0  0  0  0  0  0  0  0  0  0  0  0
   23.4675  -33.0916  -11.6983 C   0  0  0  0  0  0  0  0  0  0  0  0
   25.3718  -33.3933   -8.3186 C   0  0  0  0  0  0  0  0  0  0  0  0
   25.4016  -34.5502   -7.8218 O   0  0  0  0  0  0  0  0  0  0  0  0
   24.8629  -32.3402   -7.5228 N   0  0  0  0  0  0  0  0  0  0  0  0
   24.3985  -32.5284   -6.1644 C   0  0  0  0  0  0  0  0  0  0  0  0
   25.5526  -32.4603   -5.2513 C   0  0  0  0  0  0  0  0  0  0  0  0
   25.3676  -32.3039   -4.0216 O   0  0  0  0  0  0  0  0  0  0  0  0
   26.9063  -32.5668   -5.7133 N   0  0  0  0  0  0  0  0  0  0  0  0
   27.9802  -32.5106   -4.7399 C   0  0  0  0  0  0  0  0  0  0  0  0
   28.0918  -33.7511   -3.9690 C   0  0  0  0  0  0  0  0  0  0  0  0
   27.2380  -34.8455   -4.1357 O   0  0  0  0  0  0  0  0  0  0  0  0
   29.0025  -33.8410   -3.1106 O   0  0  0  0  0  0  0  0  0  0  0  0
  2  1  1  1
  2 10  1  0
  3  2  1  0
  4  3  1  0
  4  5  2  0
  6  5  1  0
  7  6  2  0
  8  9  2  0
  8  7  1  0
  9  4  1  0
 10 11  2  0
 12 10  1  0
 12 13  1  0
 13 14  1  0
 14 15  2  0
 16 17  1  0
 16 14  1  0
 18 19  1  0
 18 17  1  0
 20 18  2  0
M  END
$$$$
