FHT.pdb
     RDKit          3D

 29 30  0  0  1  0  0  0  0  0999 V2000
   13.6591   -9.1767   -9.9340 N   0  0  0  0  0  0  0  0  0  0  0  0
   14.8429   -8.3508   -9.8082 C   0  0  1  0  0  0  0  0  0  0  0  0
   15.1564   -8.2366   -8.3385 C   0  0  0  0  0  0  0  0  0  0  0  0
   14.0726   -7.4371   -7.7196 C   0  0  0  0  0  0  0  0  0  0  0  0
   14.1576   -6.0863   -7.5412 C   0  0  0  0  0  0  0  0  0  0  0  0
   13.1108   -5.3852   -6.9542 C   0  0  0  0  0  0  0  0  0  0  0  0
   11.9822   -6.0741   -6.5535 C   0  0  0  0  0  0  0  0  0  0  0  0
   11.8731   -7.4326   -6.7223 C   0  0  0  0  0  0  0  0  0  0  0  0
   12.9379   -8.1075   -7.3132 C   0  0  0  0  0  0  0  0  0  0  0  0
   15.9147   -8.9266  -10.6069 C   0  0  0  0  0  0  0  0  0  0  0  0
   15.9595  -10.1729  -10.7881 O   0  0  0  0  0  0  0  0  0  0  0  0
   16.9535   -8.1749  -11.2228 N   0  0  0  0  0  0  0  0  0  0  0  0
   17.1397   -8.1476  -12.6643 C   0  0  1  0  0  0  0  0  0  0  0  0
   15.8189   -7.9623  -13.3789 C   0  0  0  0  0  0  0  0  0  0  0  0
   16.0127   -8.0616  -14.8404 C   0  0  0  0  0  0  0  0  0  0  0  0
   17.2016   -8.2777  -15.5152 C   0  0  0  0  0  0  0  0  0  0  0  0
   16.9597   -8.3041  -16.8594 N   0  0  0  0  0  0  0  0  0  0  0  0
   15.6481   -8.1082  -17.0128 C   0  0  0  0  0  0  0  0  0  0  0  0
   15.0887   -7.9644  -15.8075 N   0  0  0  0  0  0  0  0  0  0  0  0
   18.1553   -7.1289  -13.0335 C   0  0  0  0  0  0  0  0  0  0  0  0
   17.9944   -5.8996  -12.8303 O   0  0  0  0  0  0  0  0  0  0  0  0
   22.0754   -7.7133  -12.5143 C   0  0  0  0  0  0  0  0  0  0  0  0
   21.8005   -7.2999  -13.9388 C   0  0  1  0  0  0  0  0  0  0  0  0
   21.8487   -8.4455  -14.7201 O   0  0  0  0  0  0  0  0  0  0  0  0
   20.4407   -6.6403  -14.0018 C   0  0  2  0  0  0  0  0  0  0  0  0
   19.3815   -7.5636  -13.6524 N   0  0  0  0  0  0  0  0  0  0  0  0
   20.1993   -6.0976  -15.3412 C   0  0  0  0  0  0  0  0  0  0  0  0
   19.3446   -6.6743  -16.0830 O   0  0  0  0  0  0  0  0  0  0  0  0
   20.8966   -4.9815  -15.7701 O   0  0  0  0  0  0  0  0  0  0  0  0
  2  3  1  0
  2  1  1  1
  4  3  1  0
  4  9  1  0
  5  4  2  0
  6  5  1  0
  6  7  2  0
  7  8  1  0
  8  9  2  0
 10  2  1  0
 11 10  2  0
 12 10  1  0
 13 12  1  0
 14 15  1  0
 13 14  1  6
 15 19  1  0
 16 15  2  0
 16 17  1  0
 17 18  1  0
 19 18  2  0
 20 13  1  0
 20 21  2  0
 23 22  1  1
 23 25  1  0
 24 23  1  0
 25 26  1  6
 26 20  1  0
 27 25  1  0
 28 27  2  0
 29 27  1  0
M  END
$$$$
