FHT.pdb
     RDKit          3D

 29 30  0  0  1  0  0  0  0  0999 V2000
   24.8641  -10.6758  -17.8274 N   0  0  0  0  0  0  0  0  0  0  0  0
   24.7305  -10.4066  -16.4100 C   0  0  1  0  0  0  0  0  0  0  0  0
   26.0571   -9.8801  -15.9260 C   0  0  0  0  0  0  0  0  0  0  0  0
   27.0557  -10.9570  -16.1259 C   0  0  0  0  0  0  0  0  0  0  0  0
   28.1112  -10.8389  -16.9836 C   0  0  0  0  0  0  0  0  0  0  0  0
   29.0184  -11.8812  -17.1332 C   0  0  0  0  0  0  0  0  0  0  0  0
   28.8377  -13.0393  -16.4017 C   0  0  0  0  0  0  0  0  0  0  0  0
   27.7839  -13.1820  -15.5327 C   0  0  0  0  0  0  0  0  0  0  0  0
   26.8917  -12.1209  -15.4042 C   0  0  0  0  0  0  0  0  0  0  0  0
   23.6123   -9.4992  -16.1990 C   0  0  0  0  0  0  0  0  0  0  0  0
   23.2296   -8.7496  -17.1370 O   0  0  0  0  0  0  0  0  0  0  0  0
   22.8885   -9.3823  -14.9800 N   0  0  0  0  0  0  0  0  0  0  0  0
   21.7104   -8.5396  -14.8565 C   0  0  1  0  0  0  0  0  0  0  0  0
   20.6835   -9.1726  -13.9430 C   0  0  0  0  0  0  0  0  0  0  0  0
   20.0320  -10.3119  -14.6221 C   0  0  0  0  0  0  0  0  0  0  0  0
   20.2745  -10.7731  -15.9043 C   0  0  0  0  0  0  0  0  0  0  0  0
   19.4677  -11.8457  -16.1586 N   0  0  0  0  0  0  0  0  0  0  0  0
   18.7412  -12.0439  -15.0564 C   0  0  0  0  0  0  0  0  0  0  0  0
   19.0810  -11.1278  -14.1442 N   0  0  0  0  0  0  0  0  0  0  0  0
   22.0994   -7.1678  -14.4414 C   0  0  0  0  0  0  0  0  0  0  0  0
   22.7223   -6.9273  -13.3771 O   0  0  0  0  0  0  0  0  0  0  0  0
   24.3420   -4.9280  -16.2512 C   0  0  0  0  0  0  0  0  0  0  0  0
   23.0347   -4.1774  -16.1927 C   0  0  1  0  0  0  0  0  0  0  0  0
   22.3914   -4.3690  -17.4070 O   0  0  0  0  0  0  0  0  0  0  0  0
   22.2159   -4.7124  -15.0388 C   0  0  2  0  0  0  0  0  0  0  0  0
   21.7498   -6.0595  -15.2929 N   0  0  0  0  0  0  0  0  0  0  0  0
   21.0713   -3.8361  -14.7769 C   0  0  0  0  0  0  0  0  0  0  0  0
   21.2907   -2.6806  -14.2973 O   0  0  0  0  0  0  0  0  0  0  0  0
   19.7880   -4.2755  -15.0525 O   0  0  0  0  0  0  0  0  0  0  0  0
  2  3  1  0
  2  1  1  6
  4  3  1  0
  4  9  1  0
  5  4  2  0
  6  5  1  0
  6  7  2  0
  7  8  1  0
  8  9  2  0
 10  2  1  0
 11 10  2  0
 12 10  1  0
 13 12  1  0
 14 15  1  0
 13 14  1  1
 15 19  1  0
 16 15  2  0
 16 17  1  0
 17 18  1  0
 19 18  2  0
 20 13  1  0
 20 21  2  0
 23 22  1  6
 23 25  1  0
 24 23  1  0
 25 26  1  6
 26 20  1  0
 27 25  1  0
 28 27  2  0
 29 27  1  0
M  END
$$$$
