FHT.pdb
     RDKit          3D

 29 30  0  0  1  0  0  0  0  0999 V2000
   33.4385  -32.9491  -15.4787 N   0  0  0  0  0  0  0  0  0  0  0  0
   33.2818  -32.0518  -16.6056 C   0  0  1  0  0  0  0  0  0  0  0  0
   34.5613  -32.1013  -17.4003 C   0  0  0  0  0  0  0  0  0  0  0  0
   34.3920  -31.1954  -18.5610 C   0  0  0  0  0  0  0  0  0  0  0  0
   34.0306  -31.6389  -19.8007 C   0  0  0  0  0  0  0  0  0  0  0  0
   33.8865  -30.7449  -20.8551 C   0  0  0  0  0  0  0  0  0  0  0  0
   34.1140  -29.4006  -20.6320 C   0  0  0  0  0  0  0  0  0  0  0  0
   34.4785  -28.9303  -19.3943 C   0  0  0  0  0  0  0  0  0  0  0  0
   34.6149  -29.8496  -18.3576 C   0  0  0  0  0  0  0  0  0  0  0  0
   32.0943  -32.4308  -17.3569 C   0  0  0  0  0  0  0  0  0  0  0  0
   31.7782  -33.6468  -17.4556 O   0  0  0  0  0  0  0  0  0  0  0  0
   31.2287  -31.5121  -18.0130 N   0  0  0  0  0  0  0  0  0  0  0  0
   30.0263  -31.9419  -18.7078 C   0  0  1  0  0  0  0  0  0  0  0  0
   28.8086  -31.2076  -18.1903 C   0  0  0  0  0  0  0  0  0  0  0  0
   28.3340  -31.8296  -16.9368 C   0  0  0  0  0  0  0  0  0  0  0  0
   28.8147  -32.9813  -16.3385 C   0  0  0  0  0  0  0  0  0  0  0  0
   28.1107  -33.2229  -15.1930 N   0  0  0  0  0  0  0  0  0  0  0  0
   27.2131  -32.2408  -15.0851 C   0  0  0  0  0  0  0  0  0  0  0  0
   27.3501  -31.4136  -16.1260 N   0  0  0  0  0  0  0  0  0  0  0  0
   30.2074  -31.8170  -20.1765 C   0  0  0  0  0  0  0  0  0  0  0  0
   30.5007  -30.7323  -20.7385 O   0  0  0  0  0  0  0  0  0  0  0  0
   31.9639  -34.6679  -22.4671 C   0  0  0  0  0  0  0  0  0  0  0  0
   30.5950  -34.3064  -22.9880 C   0  0  1  0  0  0  0  0  0  0  0  0
   29.7180  -35.2985  -22.5737 O   0  0  0  0  0  0  0  0  0  0  0  0
   30.2048  -32.9530  -22.4368 C   0  0  2  0  0  0  0  0  0  0  0  0
   30.0406  -32.9883  -20.9986 N   0  0  0  0  0  0  0  0  0  0  0  0
   28.9652  -32.4861  -23.0629 C   0  0  0  0  0  0  0  0  0  0  0  0
   28.9865  -32.1842  -24.2966 O   0  0  0  0  0  0  0  0  0  0  0  0
   27.8078  -32.3831  -22.3108 O   0  0  0  0  0  0  0  0  0  0  0  0
  2  3  1  0
  2  1  1  1
  4  3  1  0
  4  9  1  0
  5  4  2  0
  6  5  1  0
  6  7  2  0
  7  8  1  0
  8  9  2  0
 10  2  1  0
 11 10  2  0
 12 10  1  0
 13 12  1  0
 14 15  1  0
 13 14  1  1
 15 19  1  0
 16 15  2  0
 16 17  1  0
 17 18  1  0
 19 18  2  0
 20 13  1  0
 20 21  2  0
 23 22  1  1
 23 25  1  0
 24 23  1  0
 25 26  1  1
 26 20  1  0
 27 25  1  0
 28 27  2  0
 29 27  1  0
M  END
$$$$
