FHT.pdb
     RDKit          3D

 29 30  0  0  1  0  0  0  0  0999 V2000
   35.2011  -31.5277  -14.1377 N   0  0  0  0  0  0  0  0  0  0  0  0
   34.7420  -32.8373  -14.5543 C   0  0  1  0  0  0  0  0  0  0  0  0
   34.1683  -33.5195  -13.3391 C   0  0  0  0  0  0  0  0  0  0  0  0
   35.3101  -34.0102  -12.5316 C   0  0  0  0  0  0  0  0  0  0  0  0
   35.9738  -35.1693  -12.8143 C   0  0  0  0  0  0  0  0  0  0  0  0
   37.0386  -35.5833  -12.0228 C   0  0  0  0  0  0  0  0  0  0  0  0
   37.4168  -34.8057  -10.9452 C   0  0  0  0  0  0  0  0  0  0  0  0
   36.7650  -33.6360  -10.6406 C   0  0  0  0  0  0  0  0  0  0  0  0
   35.7023  -33.2472  -11.4516 C   0  0  0  0  0  0  0  0  0  0  0  0
   33.8035  -32.6866  -15.6564 C   0  0  0  0  0  0  0  0  0  0  0  0
   33.2760  -31.5640  -15.8798 O   0  0  0  0  0  0  0  0  0  0  0  0
   33.4169  -33.7367  -16.5348 N   0  0  0  0  0  0  0  0  0  0  0  0
   32.4015  -33.5553  -17.5591 C   0  0  1  0  0  0  0  0  0  0  0  0
   32.8038  -34.2367  -18.8489 C   0  0  0  0  0  0  0  0  0  0  0  0
   31.7928  -33.9815  -19.8959 C   0  0  0  0  0  0  0  0  0  0  0  0
   31.4204  -32.7560  -20.4202 C   0  0  0  0  0  0  0  0  0  0  0  0
   30.4545  -32.9446  -21.3676 N   0  0  0  0  0  0  0  0  0  0  0  0
   30.2341  -34.2598  -21.4280 C   0  0  0  0  0  0  0  0  0  0  0  0
   31.0335  -34.8729  -20.5497 N   0  0  0  0  0  0  0  0  0  0  0  0
   31.0754  -33.9919  -17.0530 C   0  0  0  0  0  0  0  0  0  0  0  0
   30.8988  -35.0805  -16.4512 O   0  0  0  0  0  0  0  0  0  0  0  0
   28.6723  -31.6927  -15.0005 C   0  0  0  0  0  0  0  0  0  0  0  0
   27.9270  -32.2068  -16.2072 C   0  0  1  0  0  0  0  0  0  0  0  0
   27.9195  -31.1922  -17.1537 O   0  0  0  0  0  0  0  0  0  0  0  0
   28.6278  -33.4439  -16.7233 C   0  0  2  0  0  0  0  0  0  0  0  0
   29.9369  -33.1332  -17.2583 N   0  0  0  0  0  0  0  0  0  0  0  0
   27.8164  -34.0964  -17.7540 C   0  0  0  0  0  0  0  0  0  0  0  0
   28.2506  -34.1100  -18.9477 O   0  0  0  0  0  0  0  0  0  0  0  0
   26.6075  -34.6790  -17.4152 O   0  0  0  0  0  0  0  0  0  0  0  0
  2  3  1  0
  2  1  1  1
  4  3  1  0
  4  9  1  0
  5  4  2  0
  6  5  1  0
  6  7  2  0
  7  8  1  0
  8  9  2  0
 10  2  1  0
 11 10  2  0
 12 10  1  0
 13 12  1  0
 14 15  1  0
 13 14  1  6
 15 19  1  0
 16 15  2  0
 16 17  1  0
 17 18  1  0
 19 18  2  0
 20 13  1  0
 20 21  2  0
 23 22  1  1
 23 25  1  0
 24 23  1  0
 25 26  1  6
 26 20  1  0
 27 25  1  0
 28 27  2  0
 29 27  1  0
M  END
$$$$
