FHT.pdb
     RDKit          3D

 29 30  0  0  1  0  0  0  0  0999 V2000
   34.6789   -8.1639  -15.6030 N   0  0  0  0  0  0  0  0  0  0  0  0
   35.0429   -9.3772  -14.8996 C   0  0  1  0  0  0  0  0  0  0  0  0
   35.5653  -10.3508  -15.9245 C   0  0  0  0  0  0  0  0  0  0  0  0
   34.3972  -10.8591  -16.6819 C   0  0  0  0  0  0  0  0  0  0  0  0
   34.1003  -10.4485  -17.9497 C   0  0  0  0  0  0  0  0  0  0  0  0
   32.9909  -10.9579  -18.6143 C   0  0  0  0  0  0  0  0  0  0  0  0
   32.1921  -11.8859  -17.9745 C   0  0  0  0  0  0  0  0  0  0  0  0
   32.4700  -12.3145  -16.6997 C   0  0  0  0  0  0  0  0  0  0  0  0
   33.5878  -11.7864  -16.0596 C   0  0  0  0  0  0  0  0  0  0  0  0
   35.9906   -9.0518  -13.8440 C   0  0  0  0  0  0  0  0  0  0  0  0
   36.7955   -8.0946  -13.9993 O   0  0  0  0  0  0  0  0  0  0  0  0
   36.0891   -9.7475  -12.6071 N   0  0  0  0  0  0  0  0  0  0  0  0
   37.1049   -9.4279  -11.6175 C   0  0  1  0  0  0  0  0  0  0  0  0
   36.6946   -9.9103  -10.2432 C   0  0  0  0  0  0  0  0  0  0  0  0
   37.7192   -9.5370   -9.2461 C   0  0  0  0  0  0  0  0  0  0  0  0
   38.9298   -8.9096   -9.4832 C   0  0  0  0  0  0  0  0  0  0  0  0
   39.5902   -8.7401   -8.2995 N   0  0  0  0  0  0  0  0  0  0  0  0
   38.8042   -9.2523   -7.3498 C   0  0  0  0  0  0  0  0  0  0  0  0
   37.6912   -9.7256   -7.9186 N   0  0  0  0  0  0  0  0  0  0  0  0
   38.4275   -9.9456  -12.0510 C   0  0  0  0  0  0  0  0  0  0  0  0
   38.5861  -11.0943  -12.5347 O   0  0  0  0  0  0  0  0  0  0  0  0
   40.5668   -9.5720  -14.6741 C   0  0  0  0  0  0  0  0  0  0  0  0
   41.3943   -8.9802  -13.5601 C   0  0  1  0  0  0  0  0  0  0  0  0
   41.2308   -7.6032  -13.6081 O   0  0  0  0  0  0  0  0  0  0  0  0
   40.9190   -9.5514  -12.2426 C   0  0  2  0  0  0  0  0  0  0  0  0
   39.5840   -9.0976  -11.9134 N   0  0  0  0  0  0  0  0  0  0  0  0
   41.8431   -9.1861  -11.1660 C   0  0  0  0  0  0  0  0  0  0  0  0
   41.4395   -8.3836  -10.2679 O   0  0  0  0  0  0  0  0  0  0  0  0
   43.1226   -9.7139  -11.1454 O   0  0  0  0  0  0  0  0  0  0  0  0
  2  3  1  0
  2  1  1  6
  4  3  1  0
  4  9  1  0
  5  4  2  0
  6  5  1  0
  6  7  2  0
  7  8  1  0
  8  9  2  0
 10  2  1  0
 11 10  2  0
 12 10  1  0
 13 12  1  0
 14 15  1  0
 13 14  1  1
 15 19  1  0
 16 15  2  0
 16 17  1  0
 17 18  1  0
 19 18  2  0
 20 13  1  0
 20 21  2  0
 23 22  1  6
 23 25  1  0
 24 23  1  0
 25 26  1  1
 26 20  1  0
 27 25  1  0
 28 27  2  0
 29 27  1  0
M  END
$$$$
