FHT.pdb
     RDKit          3D

 29 30  0  0  1  0  0  0  0  0999 V2000
   26.2770  -10.9240  -18.2807 N   0  0  0  0  0  0  0  0  0  0  0  0
   26.3913  -10.1200  -17.0807 C   0  0  1  0  0  0  0  0  0  0  0  0
   27.8200  -10.2158  -16.6106 C   0  0  0  0  0  0  0  0  0  0  0  0
   28.1186  -11.6529  -16.4050 C   0  0  0  0  0  0  0  0  0  0  0  0
   28.9626  -12.3576  -17.2144 C   0  0  0  0  0  0  0  0  0  0  0  0
   29.2069  -13.7050  -16.9762 C   0  0  0  0  0  0  0  0  0  0  0  0
   28.5839  -14.3222  -15.9086 C   0  0  0  0  0  0  0  0  0  0  0  0
   27.7309  -13.6348  -15.0804 C   0  0  0  0  0  0  0  0  0  0  0  0
   27.5058  -12.2864  -15.3441 C   0  0  0  0  0  0  0  0  0  0  0  0
   25.9444   -8.7652  -17.3686 C   0  0  0  0  0  0  0  0  0  0  0  0
   26.0630   -7.8679  -16.4917 O   0  0  0  0  0  0  0  0  0  0  0  0
   25.3640   -8.3528  -18.6001 N   0  0  0  0  0  0  0  0  0  0  0  0
   24.9367   -6.9833  -18.8348 C   0  0  1  0  0  0  0  0  0  0  0  0
   25.3429   -6.5171  -20.2159 C   0  0  0  0  0  0  0  0  0  0  0  0
   26.7903   -6.2215  -20.2479 C   0  0  0  0  0  0  0  0  0  0  0  0
   27.6358   -6.0553  -19.1649 C   0  0  0  0  0  0  0  0  0  0  0  0
   28.8994   -5.7950  -19.6139 N   0  0  0  0  0  0  0  0  0  0  0  0
   28.8367   -5.8000  -20.9474 C   0  0  0  0  0  0  0  0  0  0  0  0
   27.5786   -6.0545  -21.3200 N   0  0  0  0  0  0  0  0  0  0  0  0
   23.4815   -6.8454  -18.5727 C   0  0  0  0  0  0  0  0  0  0  0  0
   22.6041   -7.3861  -19.2912 O   0  0  0  0  0  0  0  0  0  0  0  0
   21.4681   -8.0757  -15.9932 C   0  0  0  0  0  0  0  0  0  0  0  0
   21.3071   -6.5871  -15.8080 C   0  0  1  0  0  0  0  0  0  0  0  0
   22.1580   -6.2022  -14.7819 O   0  0  0  0  0  0  0  0  0  0  0  0
   21.6525   -5.8935  -17.1070 C   0  0  2  0  0  0  0  0  0  0  0  0
   23.0506   -6.0578  -17.4459 N   0  0  0  0  0  0  0  0  0  0  0  0
   21.3301   -4.4667  -17.0240 C   0  0  0  0  0  0  0  0  0  0  0  0
   22.2667   -3.6239  -17.1850 O   0  0  0  0  0  0  0  0  0  0  0  0
   20.0287   -4.0661  -16.7751 O   0  0  0  0  0  0  0  0  0  0  0  0
  2  3  1  0
  2  1  1  6
  4  3  1  0
  4  9  1  0
  5  4  2  0
  6  5  1  0
  6  7  2  0
  7  8  1  0
  8  9  2  0
 10  2  1  0
 11 10  2  0
 12 10  1  0
 13 12  1  0
 14 15  1  0
 13 14  1  6
 15 19  1  0
 16 15  2  0
 16 17  1  0
 17 18  1  0
 19 18  2  0
 20 13  1  0
 20 21  2  0
 23 22  1  6
 23 25  1  0
 24 23  1  0
 25 26  1  1
 26 20  1  0
 27 25  1  0
 28 27  2  0
 29 27  1  0
M  END
$$$$
