FHT.pdb
     RDKit          3D

 29 30  0  0  1  0  0  0  0  0999 V2000
   22.7103  -18.4326  -19.0858 N   0  0  0  0  0  0  0  0  0  0  0  0
   21.6137  -17.5195  -19.3371 C   0  0  1  0  0  0  0  0  0  0  0  0
   20.9128  -17.9922  -20.5847 C   0  0  0  0  0  0  0  0  0  0  0  0
   21.8031  -17.6882  -21.7299 C   0  0  0  0  0  0  0  0  0  0  0  0
   22.6228  -18.6199  -22.2991 C   0  0  0  0  0  0  0  0  0  0  0  0
   23.4386  -18.2802  -23.3719 C   0  0  0  0  0  0  0  0  0  0  0  0
   23.4090  -16.9862  -23.8550 C   0  0  0  0  0  0  0  0  0  0  0  0
   22.5931  -16.0314  -23.2995 C   0  0  0  0  0  0  0  0  0  0  0  0
   21.7873  -16.4014  -22.2261 C   0  0  0  0  0  0  0  0  0  0  0  0
   20.7629  -17.4583  -18.1579 C   0  0  0  0  0  0  0  0  0  0  0  0
   20.6741  -18.4596  -17.3979 O   0  0  0  0  0  0  0  0  0  0  0  0
   19.9951  -16.3231  -17.7765 N   0  0  0  0  0  0  0  0  0  0  0  0
   19.1487  -16.3221  -16.5946 C   0  0  1  0  0  0  0  0  0  0  0  0
   19.0934  -14.9460  -15.9676 C   0  0  0  0  0  0  0  0  0  0  0  0
   20.4203  -14.5773  -15.4319 C   0  0  0  0  0  0  0  0  0  0  0  0
   21.5584  -15.3640  -15.3981 C   0  0  0  0  0  0  0  0  0  0  0  0
   22.5779  -14.6592  -14.8237 N   0  0  0  0  0  0  0  0  0  0  0  0
   22.0805  -13.4611  -14.5088 C   0  0  0  0  0  0  0  0  0  0  0  0
   20.7952  -13.4173  -14.8730 N   0  0  0  0  0  0  0  0  0  0  0  0
   17.8087  -16.8735  -16.9199 C   0  0  0  0  0  0  0  0  0  0  0  0
   17.0804  -16.4055  -17.8304 O   0  0  0  0  0  0  0  0  0  0  0  0
   17.0873  -20.8236  -16.0871 C   0  0  0  0  0  0  0  0  0  0  0  0
   16.2327  -20.0133  -17.0300 C   0  0  1  0  0  0  0  0  0  0  0  0
   15.0213  -20.6761  -17.1657 O   0  0  0  0  0  0  0  0  0  0  0  0
   16.0472  -18.6278  -16.4520 C   0  0  2  0  0  0  0  0  0  0  0  0
   17.3167  -17.9951  -16.1612 N   0  0  0  0  0  0  0  0  0  0  0  0
   15.2364  -18.6887  -15.2331 C   0  0  0  0  0  0  0  0  0  0  0  0
   14.0178  -19.0329  -15.3331 O   0  0  0  0  0  0  0  0  0  0  0  0
   15.8035  -18.3747  -14.0101 O   0  0  0  0  0  0  0  0  0  0  0  0
  2  3  1  0
  2  1  1  1
  4  3  1  0
  4  9  1  0
  5  4  2  0
  6  5  1  0
  6  7  2  0
  7  8  1  0
  8  9  2  0
 10  2  1  0
 11 10  2  0
 12 10  1  0
 13 12  1  0
 14 15  1  0
 13 14  1  6
 15 19  1  0
 16 15  2  0
 16 17  1  0
 17 18  1  0
 19 18  2  0
 20 13  1  0
 20 21  2  0
 23 22  1  1
 23 25  1  0
 24 23  1  0
 25 26  1  1
 26 20  1  0
 27 25  1  0
 28 27  2  0
 29 27  1  0
M  END
$$$$
