FGK.pdb
     RDKit          3D

 25 25  0  0  1  0  0  0  0  0999 V2000
    6.7899  -16.2548   20.8180 N   0  0  0  0  0  0  0  0  0  0  0  0
    8.2292  -16.3511   20.9816 C   0  0  1  0  0  0  0  0  0  0  0  0
    8.8305  -15.0114   20.6553 C   0  0  0  0  0  0  0  0  0  0  0  0
    8.2545  -13.8861   21.4069 C   0  0  0  0  0  0  0  0  0  0  0  0
    7.5312  -12.8684   20.7937 C   0  0  0  0  0  0  0  0  0  0  0  0
    6.9948  -11.8296   21.5201 C   0  0  0  0  0  0  0  0  0  0  0  0
    7.1450  -11.7466   22.8705 C   0  0  0  0  0  0  0  0  0  0  0  0
    7.8566  -12.7417   23.5003 C   0  0  0  0  0  0  0  0  0  0  0  0
    8.4024  -13.7942   22.7812 C   0  0  0  0  0  0  0  0  0  0  0  0
    8.5601  -16.7337   22.3610 C   0  0  0  0  0  0  0  0  0  0  0  0
    7.7388  -16.6874   23.3090 O   0  0  0  0  0  0  0  0  0  0  0  0
    9.8909  -17.1999   22.7173 N   0  0  0  0  0  0  0  0  0  0  0  0
   10.1323  -17.7613   23.9929 C   0  0  0  0  0  0  0  0  0  0  0  0
   10.4513  -16.7420   24.9996 C   0  0  0  0  0  0  0  0  0  0  0  0
   11.2106  -15.7483   24.6811 O   0  0  0  0  0  0  0  0  0  0  0  0
    9.9941  -16.7471   26.3154 N   0  0  0  0  0  0  0  0  0  0  0  0
   10.5647  -15.8059   27.2944 C   0  0  1  0  0  0  0  0  0  0  0  0
    9.5404  -14.7807   27.6175 C   0  0  0  0  0  0  0  0  0  0  0  0
    8.8090  -14.1632   26.4943 C   0  0  0  0  0  0  0  0  0  0  0  0
    7.7078  -13.2291   26.8908 C   0  0  0  0  0  0  0  0  0  0  0  0
    7.1205  -12.5478   25.6729 C   0  0  0  0  0  0  0  0  0  0  0  0
    6.0537  -11.6727   26.1452 N   0  0  0  0  0  0  0  0  0  0  0  0
   10.8591  -16.6098   28.5034 C   0  0  0  0  0  0  0  0  0  0  0  0
   10.5146  -17.9286   28.5971 O   0  0  0  0  0  0  0  0  0  0  0  0
   11.4378  -16.0654   29.4612 O   0  0  0  0  0  0  0  0  0  0  0  0
  2 10  1  0
  2  1  1  1
  3  2  1  0
  4  3  1  0
  5  4  2  0
  6  5  1  0
  7  8  1  0
  7  6  2  0
  8  9  2  0
  9  4  1  0
 10 12  1  0
 11 10  2  0
 12 13  1  0
 14 13  1  0
 14 15  2  0
 16 14  1  0
 17 16  1  0
 17 23  1  0
 17 18  1  1
 19 20  1  0
 19 18  1  0
 21 20  1  0
 22 21  1  0
 23 25  2  0
 23 24  1  0
M  END
$$$$
