FGK.pdb
     RDKit          3D

 25 25  0  0  1  0  0  0  0  0999 V2000
    6.2199  -13.8817   22.1982 N   0  0  0  0  0  0  0  0  0  0  0  0
    7.6332  -14.1882   22.3262 C   0  0  1  0  0  0  0  0  0  0  0  0
    8.2699  -13.1249   23.1787 C   0  0  0  0  0  0  0  0  0  0  0  0
    7.6048  -12.9016   24.4713 C   0  0  0  0  0  0  0  0  0  0  0  0
    6.3639  -12.2820   24.5774 C   0  0  0  0  0  0  0  0  0  0  0  0
    5.7578  -12.0915   25.7985 C   0  0  0  0  0  0  0  0  0  0  0  0
    6.3407  -12.4987   26.9592 C   0  0  0  0  0  0  0  0  0  0  0  0
    7.5686  -13.1144   26.8803 C   0  0  0  0  0  0  0  0  0  0  0  0
    8.1908  -13.3130   25.6571 C   0  0  0  0  0  0  0  0  0  0  0  0
    7.8136  -15.5093   22.9433 C   0  0  0  0  0  0  0  0  0  0  0  0
    8.9288  -16.0734   23.0597 O   0  0  0  0  0  0  0  0  0  0  0  0
    6.6832  -16.2589   23.4681 N   0  0  0  0  0  0  0  0  0  0  0  0
    6.8637  -17.5750   23.9539 C   0  0  0  0  0  0  0  0  0  0  0  0
    7.1970  -17.6011   25.3830 C   0  0  0  0  0  0  0  0  0  0  0  0
    6.7703  -16.6580   26.1537 O   0  0  0  0  0  0  0  0  0  0  0  0
    7.9590  -18.5853   26.0084 N   0  0  0  0  0  0  0  0  0  0  0  0
    8.2123  -18.5073   27.4574 C   0  0  1  0  0  0  0  0  0  0  0  0
    7.7250  -19.7586   28.0907 C   0  0  0  0  0  0  0  0  0  0  0  0
    7.1221  -20.7819   27.2147 C   0  0  0  0  0  0  0  0  0  0  0  0
    6.7009  -22.0415   27.9064 C   0  0  0  0  0  0  0  0  0  0  0  0
    6.1886  -23.0552   26.9052 C   0  0  0  0  0  0  0  0  0  0  0  0
    5.9631  -24.2987   27.6329 N   0  0  0  0  0  0  0  0  0  0  0  0
    9.6834  -18.4175   27.6061 C   0  0  0  0  0  0  0  0  0  0  0  0
   10.5262  -18.5118   26.5348 O   0  0  0  0  0  0  0  0  0  0  0  0
   10.1640  -18.2511   28.7420 O   0  0  0  0  0  0  0  0  0  0  0  0
  2 10  1  0
  2  1  1  1
  3  2  1  0
  4  3  1  0
  5  4  2  0
  6  5  1  0
  7  8  1  0
  7  6  2  0
  8  9  2  0
  9  4  1  0
 10 12  1  0
 11 10  2  0
 12 13  1  0
 14 13  1  0
 14 15  2  0
 16 14  1  0
 17 16  1  0
 17 23  1  0
 17 18  1  1
 19 20  1  0
 19 18  1  0
 21 20  1  0
 22 21  1  0
 23 25  2  0
 23 24  1  0
M  END
$$$$
