FGK.pdb
     RDKit          3D

 25 25  0  0  1  0  0  0  0  0999 V2000
    6.2159  -18.1775   24.7858 N   0  0  0  0  0  0  0  0  0  0  0  0
    6.6974  -16.8350   24.5145 C   0  0  1  0  0  0  0  0  0  0  0  0
    6.9734  -16.1595   25.8300 C   0  0  0  0  0  0  0  0  0  0  0  0
    6.9231  -14.6904   25.7824 C   0  0  0  0  0  0  0  0  0  0  0  0
    5.8813  -13.9586   26.3428 C   0  0  0  0  0  0  0  0  0  0  0  0
    5.8608  -12.5832   26.2925 C   0  0  0  0  0  0  0  0  0  0  0  0
    6.8558  -11.8730   25.6937 C   0  0  0  0  0  0  0  0  0  0  0  0
    7.8977  -12.5745   25.1320 C   0  0  0  0  0  0  0  0  0  0  0  0
    7.9316  -13.9601   25.1753 C   0  0  0  0  0  0  0  0  0  0  0  0
    7.9217  -16.8876   23.7040 C   0  0  0  0  0  0  0  0  0  0  0  0
    8.7258  -17.8511   23.7249 O   0  0  0  0  0  0  0  0  0  0  0  0
    8.2822  -15.8000   22.8083 N   0  0  0  0  0  0  0  0  0  0  0  0
    9.3751  -15.9390   21.9212 C   0  0  0  0  0  0  0  0  0  0  0  0
   10.6673  -15.8824   22.6151 C   0  0  0  0  0  0  0  0  0  0  0  0
   11.7593  -15.8751   21.9276 O   0  0  0  0  0  0  0  0  0  0  0  0
   10.8309  -15.8340   23.9976 N   0  0  0  0  0  0  0  0  0  0  0  0
   12.1853  -15.7926   24.5753 C   0  0  1  0  0  0  0  0  0  0  0  0
   12.0911  -15.2794   25.9653 C   0  0  0  0  0  0  0  0  0  0  0  0
   10.8507  -15.5545   26.7162 C   0  0  0  0  0  0  0  0  0  0  0  0
   10.8339  -15.0431   28.1235 C   0  0  0  0  0  0  0  0  0  0  0  0
    9.5717  -15.4810   28.8360 C   0  0  0  0  0  0  0  0  0  0  0  0
    9.6324  -14.9355   30.1872 N   0  0  0  0  0  0  0  0  0  0  0  0
   12.6585  -17.1962   24.5967 C   0  0  0  0  0  0  0  0  0  0  0  0
   13.9375  -17.5233   24.9486 O   0  0  0  0  0  0  0  0  0  0  0  0
   11.8655  -18.1030   24.2843 O   0  0  0  0  0  0  0  0  0  0  0  0
  2 10  1  0
  2  1  1  1
  3  2  1  0
  4  3  1  0
  5  4  2  0
  6  5  1  0
  7  8  1  0
  7  6  2  0
  8  9  2  0
  9  4  1  0
 10 12  1  0
 11 10  2  0
 12 13  1  0
 14 13  1  0
 14 15  2  0
 16 14  1  0
 17 16  1  0
 17 23  1  0
 17 18  1  1
 19 20  1  0
 19 18  1  0
 21 20  1  0
 22 21  1  0
 23 25  2  0
 23 24  1  0
M  END
$$$$
