FGK.pdb
     RDKit          3D

 25 25  0  0  1  0  0  0  0  0999 V2000
    6.2857  -17.0218   25.2829 N   0  0  0  0  0  0  0  0  0  0  0  0
    7.1079  -16.1094   24.5087 C   0  0  1  0  0  0  0  0  0  0  0  0
    7.8186  -15.1905   25.4643 C   0  0  0  0  0  0  0  0  0  0  0  0
    7.0929  -13.9477   25.7676 C   0  0  0  0  0  0  0  0  0  0  0  0
    6.1259  -13.8698   26.7645 C   0  0  0  0  0  0  0  0  0  0  0  0
    5.4658  -12.6926   27.0350 C   0  0  0  0  0  0  0  0  0  0  0  0
    5.7256  -11.5498   26.3426 C   0  0  0  0  0  0  0  0  0  0  0  0
    6.6783  -11.6015   25.3513 C   0  0  0  0  0  0  0  0  0  0  0  0
    7.3512  -12.7804   25.0680 C   0  0  0  0  0  0  0  0  0  0  0  0
    8.0829  -16.8597   23.7057 C   0  0  0  0  0  0  0  0  0  0  0  0
    8.5657  -17.9642   24.0559 O   0  0  0  0  0  0  0  0  0  0  0  0
    8.5574  -16.3544   22.4272 N   0  0  0  0  0  0  0  0  0  0  0  0
    9.6566  -16.9672   21.7814 C   0  0  0  0  0  0  0  0  0  0  0  0
   10.9348  -16.6382   22.4233 C   0  0  0  0  0  0  0  0  0  0  0  0
   11.7809  -15.8832   21.8073 O   0  0  0  0  0  0  0  0  0  0  0  0
   11.3349  -17.0813   23.6819 N   0  0  0  0  0  0  0  0  0  0  0  0
   12.5943  -16.5900   24.2668 C   0  0  1  0  0  0  0  0  0  0  0  0
   12.2692  -15.6310   25.3527 C   0  0  0  0  0  0  0  0  0  0  0  0
   11.6046  -16.1600   26.5596 C   0  0  0  0  0  0  0  0  0  0  0  0
   11.3333  -15.1484   27.6298 C   0  0  0  0  0  0  0  0  0  0  0  0
   10.5553  -15.7718   28.7694 C   0  0  0  0  0  0  0  0  0  0  0  0
   10.4205  -14.7521   29.8033 N   0  0  0  0  0  0  0  0  0  0  0  0
   13.2642  -17.7799   24.8413 C   0  0  0  0  0  0  0  0  0  0  0  0
   14.5479  -17.7333   25.3069 O   0  0  0  0  0  0  0  0  0  0  0  0
   12.6369  -18.8531   24.9006 O   0  0  0  0  0  0  0  0  0  0  0  0
  2 10  1  0
  2  1  1  1
  3  2  1  0
  4  3  1  0
  5  4  2  0
  6  5  1  0
  7  8  1  0
  7  6  2  0
  8  9  2  0
  9  4  1  0
 10 12  1  0
 11 10  2  0
 12 13  1  0
 14 13  1  0
 14 15  2  0
 16 14  1  0
 17 16  1  0
 17 23  1  0
 17 18  1  1
 19 20  1  0
 19 18  1  0
 21 20  1  0
 22 21  1  0
 23 25  2  0
 23 24  1  0
M  END
$$$$
