FGK.pdb
     RDKit          3D

 25 25  0  0  1  0  0  0  0  0999 V2000
    6.5607  -15.7599   23.1234 N   0  0  0  0  0  0  0  0  0  0  0  0
    6.9797  -14.9069   22.0259 C   0  0  1  0  0  0  0  0  0  0  0  0
    6.7418  -13.4761   22.4247 C   0  0  0  0  0  0  0  0  0  0  0  0
    7.0748  -13.1706   23.8242 C   0  0  0  0  0  0  0  0  0  0  0  0
    6.1743  -13.3624   24.8670 C   0  0  0  0  0  0  0  0  0  0  0  0
    6.5125  -13.0765   26.1703 C   0  0  0  0  0  0  0  0  0  0  0  0
    7.7410  -12.5935   26.5025 C   0  0  0  0  0  0  0  0  0  0  0  0
    8.6495  -12.3954   25.4884 C   0  0  0  0  0  0  0  0  0  0  0  0
    8.3227  -12.6791   24.1710 C   0  0  0  0  0  0  0  0  0  0  0  0
    8.4026  -15.1214   21.7293 C   0  0  0  0  0  0  0  0  0  0  0  0
    9.1028  -14.3137   21.0714 O   0  0  0  0  0  0  0  0  0  0  0  0
    9.1000  -16.3109   22.1918 N   0  0  0  0  0  0  0  0  0  0  0  0
   10.5082  -16.3968   22.0907 C   0  0  0  0  0  0  0  0  0  0  0  0
   11.1627  -16.3958   23.4044 C   0  0  0  0  0  0  0  0  0  0  0  0
   12.4463  -16.5084   23.4763 O   0  0  0  0  0  0  0  0  0  0  0  0
   10.5034  -16.2805   24.6261 N   0  0  0  0  0  0  0  0  0  0  0  0
   11.2759  -16.2848   25.8803 C   0  0  1  0  0  0  0  0  0  0  0  0
   10.3436  -16.0459   27.0108 C   0  0  0  0  0  0  0  0  0  0  0  0
   10.8781  -16.1744   28.3804 C   0  0  0  0  0  0  0  0  0  0  0  0
   10.2835  -15.2361   29.3846 C   0  0  0  0  0  0  0  0  0  0  0  0
   10.8533  -15.4973   30.7628 C   0  0  0  0  0  0  0  0  0  0  0  0
   10.1973  -14.5716   31.6792 N   0  0  0  0  0  0  0  0  0  0  0  0
   11.8539  -17.6440   25.9940 C   0  0  0  0  0  0  0  0  0  0  0  0
   11.2154  -18.7457   25.4985 O   0  0  0  0  0  0  0  0  0  0  0  0
   12.9542  -17.7844   26.5582 O   0  0  0  0  0  0  0  0  0  0  0  0
  2 10  1  0
  2  1  1  1
  3  2  1  0
  4  3  1  0
  5  4  2  0
  6  5  1  0
  7  8  1  0
  7  6  2  0
  8  9  2  0
  9  4  1  0
 10 12  1  0
 11 10  2  0
 12 13  1  0
 14 13  1  0
 14 15  2  0
 16 14  1  0
 17 16  1  0
 17 23  1  0
 17 18  1  1
 19 20  1  0
 19 18  1  0
 21 20  1  0
 22 21  1  0
 23 25  2  0
 23 24  1  0
M  END
$$$$
