EAR.pdb
     RDKit          3D

 26 25  0  0  1  0  0  0  0  0999 V2000
   26.6341  -18.9700  -18.4986 N   0  0  0  0  0  0  0  0  0  0  0  0
   25.4633  -19.8243  -18.5471 C   0  0  1  0  0  0  0  0  0  0  0  0
   25.7679  -21.2767  -18.3687 C   0  0  0  0  0  0  0  0  0  0  0  0
   26.3179  -21.6675  -17.0427 C   0  0  0  0  0  0  0  0  0  0  0  0
   25.8813  -22.9770  -16.5403 C   0  0  0  0  0  0  0  0  0  0  0  0
   25.1312  -23.7006  -17.2388 O   0  0  0  0  0  0  0  0  0  0  0  0
   24.4634  -19.4309  -17.5185 C   0  0  0  0  0  0  0  0  0  0  0  0
   24.8775  -19.2068  -16.3564 O   0  0  0  0  0  0  0  0  0  0  0  0
   26.2668  -23.4823  -15.2839 O   0  0  0  0  0  0  0  0  0  0  0  0
   20.8572  -18.3139  -17.4427 C   0  0  0  0  0  0  0  0  0  0  0  0
   22.0929  -18.8775  -16.8269 C   0  0  2  0  0  0  0  0  0  0  0  0
   23.0924  -19.2964  -17.7714 N   0  0  0  0  0  0  0  0  0  0  0  0
   21.7231  -20.0703  -15.9900 C   0  0  0  0  0  0  0  0  0  0  0  0
   21.6589  -21.2260  -16.5086 O   0  0  0  0  0  0  0  0  0  0  0  0
   26.0415  -21.3915  -10.1250 N   0  0  0  0  0  0  0  0  0  0  0  0
   26.3278  -21.1212  -11.5108 C   0  0  0  0  0  0  0  0  0  0  0  0
   27.4575  -21.4698  -12.0112 N   0  0  0  0  0  0  0  0  0  0  0  0
   25.3941  -20.4767  -12.3506 N   0  0  0  0  0  0  0  0  0  0  0  0
   24.0137  -20.2594  -11.9165 C   0  0  0  0  0  0  0  0  0  0  0  0
   23.2103  -21.4116  -12.4539 C   0  0  0  0  0  0  0  0  0  0  0  0
   21.7784  -21.0902  -12.4995 C   0  0  0  0  0  0  0  0  0  0  0  0
   21.0649  -21.1002  -13.7886 C   0  0  2  0  0  0  0  0  0  0  0  0
   21.4331  -19.9735  -14.6106 N   0  0  0  0  0  0  0  0  0  0  0  0
   19.6137  -21.3393  -13.7589 C   0  0  0  0  0  0  0  0  0  0  0  0
   18.7193  -20.3117  -14.0199 O   0  0  0  0  0  0  0  0  0  0  0  0
   19.0941  -22.4641  -13.5012 O   0  0  0  0  0  0  0  0  0  0  0  0
  2  1  1  1
  3  2  1  0
  4  3  1  0
  5  4  1  0
  5  6  2  0
  7  8  2  0
  7  2  1  0
  9  5  1  0
 11 10  1  6
 11 12  1  0
 12  7  1  0
 13 11  1  0
 14 13  2  0
 16 15  1  0
 16 18  1  0
 17 16  2  0
 19 18  1  0
 19 20  1  0
 20 21  1  0
 22 21  1  1
 22 23  1  0
 23 13  1  0
 24 22  1  0
 24 25  1  0
 26 24  2  0
M  END
$$$$
