EAR.pdb
     RDKit          3D

 26 25  0  0  1  0  0  0  0  0999 V2000
   22.6511   -5.9559  -17.6110 N   0  0  0  0  0  0  0  0  0  0  0  0
   22.1232   -6.6937  -16.4796 C   0  0  1  0  0  0  0  0  0  0  0  0
   20.9594   -6.0307  -15.8164 C   0  0  0  0  0  0  0  0  0  0  0  0
   21.2562   -4.7608  -15.1002 C   0  0  0  0  0  0  0  0  0  0  0  0
   22.0002   -4.9059  -13.8419 C   0  0  0  0  0  0  0  0  0  0  0  0
   21.8008   -5.9010  -13.1043 O   0  0  0  0  0  0  0  0  0  0  0  0
   21.7108   -8.0673  -16.8742 C   0  0  0  0  0  0  0  0  0  0  0  0
   20.8979   -8.1840  -17.8217 O   0  0  0  0  0  0  0  0  0  0  0  0
   22.9519   -3.9658  -13.4024 O   0  0  0  0  0  0  0  0  0  0  0  0
   22.6598  -11.6309  -15.9619 C   0  0  0  0  0  0  0  0  0  0  0  0
   21.8121  -10.5805  -16.5956 C   0  0  2  0  0  0  0  0  0  0  0  0
   22.1758   -9.2328  -16.2521 N   0  0  0  0  0  0  0  0  0  0  0  0
   20.3819  -10.7897  -16.1824 C   0  0  0  0  0  0  0  0  0  0  0  0
   19.9398  -10.2772  -15.1097 O   0  0  0  0  0  0  0  0  0  0  0  0
   12.7112  -10.6572  -20.3840 N   0  0  0  0  0  0  0  0  0  0  0  0
   12.4446  -11.1163  -19.0448 C   0  0  0  0  0  0  0  0  0  0  0  0
   11.2327  -11.2397  -18.6395 N   0  0  0  0  0  0  0  0  0  0  0  0
   13.4863  -11.4406  -18.1491 N   0  0  0  0  0  0  0  0  0  0  0  0
   14.8850  -11.1853  -18.4951 C   0  0  0  0  0  0  0  0  0  0  0  0
   15.7096  -11.6964  -17.3458 C   0  0  0  0  0  0  0  0  0  0  0  0
   17.1440  -11.4942  -17.5850 C   0  0  0  0  0  0  0  0  0  0  0  0
   18.1184  -11.8354  -16.5338 C   0  0  2  0  0  0  0  0  0  0  0  0
   19.4707  -11.5514  -16.9478 N   0  0  0  0  0  0  0  0  0  0  0  0
   17.9811  -13.1466  -15.8813 C   0  0  0  0  0  0  0  0  0  0  0  0
   18.8201  -14.1986  -16.2182 O   0  0  0  0  0  0  0  0  0  0  0  0
   17.1152  -13.4005  -14.9940 O   0  0  0  0  0  0  0  0  0  0  0  0
  2  1  1  6
  3  2  1  0
  4  3  1  0
  5  4  1  0
  5  6  2  0
  7  8  2  0
  7  2  1  0
  9  5  1  0
 11 10  1  1
 11 12  1  0
 12  7  1  0
 13 11  1  0
 14 13  2  0
 16 15  1  0
 16 18  1  0
 17 16  2  0
 19 18  1  0
 19 20  1  0
 20 21  1  0
 22 21  1  6
 22 23  1  0
 23 13  1  0
 24 22  1  0
 24 25  1  0
 26 24  2  0
M  END
$$$$
