EAR.pdb
     RDKit          3D

 26 25  0  0  1  0  0  0  0  0999 V2000
   27.5643  -19.4436  -14.3565 N   0  0  0  0  0  0  0  0  0  0  0  0
   27.7255  -18.3382  -15.2813 C   0  0  1  0  0  0  0  0  0  0  0  0
   27.8116  -18.7570  -16.7135 C   0  0  0  0  0  0  0  0  0  0  0  0
   28.1902  -20.1755  -16.9544 C   0  0  0  0  0  0  0  0  0  0  0  0
   28.3405  -20.5570  -18.3650 C   0  0  0  0  0  0  0  0  0  0  0  0
   28.0681  -19.7337  -19.2717 O   0  0  0  0  0  0  0  0  0  0  0  0
   26.6148  -17.3575  -15.1512 C   0  0  0  0  0  0  0  0  0  0  0  0
   25.4848  -17.7937  -14.8272 O   0  0  0  0  0  0  0  0  0  0  0  0
   28.7853  -21.8298  -18.7707 O   0  0  0  0  0  0  0  0  0  0  0  0
   26.1932  -13.5830  -15.3466 C   0  0  0  0  0  0  0  0  0  0  0  0
   25.7177  -14.9937  -15.2609 C   0  0  2  0  0  0  0  0  0  0  0  0
   26.7570  -15.9812  -15.3683 N   0  0  0  0  0  0  0  0  0  0  0  0
   24.7290  -15.2456  -16.3649 C   0  0  0  0  0  0  0  0  0  0  0  0
   25.0379  -15.9815  -17.3507 O   0  0  0  0  0  0  0  0  0  0  0  0
   18.8796  -20.9182  -16.8810 N   0  0  0  0  0  0  0  0  0  0  0  0
   18.7712  -19.8450  -15.9260 C   0  0  0  0  0  0  0  0  0  0  0  0
   17.7048  -19.7192  -15.2224 N   0  0  0  0  0  0  0  0  0  0  0  0
   19.8137  -18.9129  -15.7340 N   0  0  0  0  0  0  0  0  0  0  0  0
   20.9500  -18.8525  -16.6539 C   0  0  0  0  0  0  0  0  0  0  0  0
   20.9822  -17.4522  -17.2020 C   0  0  0  0  0  0  0  0  0  0  0  0
   22.1134  -16.6907  -16.6580 C   0  0  0  0  0  0  0  0  0  0  0  0
   22.3058  -15.2831  -17.0484 C   0  0  2  0  0  0  0  0  0  0  0  0
   23.4301  -14.6896  -16.3667 N   0  0  0  0  0  0  0  0  0  0  0  0
   21.1187  -14.4144  -17.0616 C   0  0  0  0  0  0  0  0  0  0  0  0
   21.1211  -13.1986  -16.3937 O   0  0  0  0  0  0  0  0  0  0  0  0
   20.0444  -14.7051  -17.6640 O   0  0  0  0  0  0  0  0  0  0  0  0
  2  1  1  1
  3  2  1  0
  4  3  1  0
  5  4  1  0
  5  6  2  0
  7  8  2  0
  7  2  1  0
  9  5  1  0
 11 10  1  6
 11 12  1  0
 12  7  1  0
 13 11  1  0
 14 13  2  0
 16 15  1  0
 16 18  1  0
 17 16  2  0
 19 18  1  0
 19 20  1  0
 20 21  1  0
 22 21  1  1
 22 23  1  0
 23 13  1  0
 24 22  1  0
 24 25  1  0
 26 24  2  0
M  END
$$$$
