EAR.pdb
     RDKit          3D

 26 25  0  0  1  0  0  0  0  0999 V2000
   19.3020  -14.7239  -18.0400 N   0  0  0  0  0  0  0  0  0  0  0  0
   18.5082  -13.6191  -17.5377 C   0  0  1  0  0  0  0  0  0  0  0  0
   18.0187  -13.8143  -16.1390 C   0  0  0  0  0  0  0  0  0  0  0  0
   17.1077  -14.9710  -15.9247 C   0  0  0  0  0  0  0  0  0  0  0  0
   16.6715  -15.1813  -14.5378 C   0  0  0  0  0  0  0  0  0  0  0  0
   17.2782  -15.9989  -13.8046 O   0  0  0  0  0  0  0  0  0  0  0  0
   19.2666  -12.3406  -17.5889 C   0  0  0  0  0  0  0  0  0  0  0  0
   20.5165  -12.3988  -17.5095 O   0  0  0  0  0  0  0  0  0  0  0  0
   15.5804  -14.4989  -13.9666 O   0  0  0  0  0  0  0  0  0  0  0  0
   18.4868   -8.6710  -18.1989 C   0  0  0  0  0  0  0  0  0  0  0  0
   19.3554   -9.8219  -17.8187 C   0  0  2  0  0  0  0  0  0  0  0  0
   18.6685  -11.0809  -17.7205 N   0  0  0  0  0  0  0  0  0  0  0  0
   19.9882   -9.5387  -16.4848 C   0  0  0  0  0  0  0  0  0  0  0  0
   19.4147   -9.8953  -15.4112 O   0  0  0  0  0  0  0  0  0  0  0  0
   28.0517  -11.2992  -15.5870 N   0  0  0  0  0  0  0  0  0  0  0  0
   26.9594  -12.1530  -15.9787 C   0  0  0  0  0  0  0  0  0  0  0  0
   27.1854  -13.3749  -16.3012 N   0  0  0  0  0  0  0  0  0  0  0  0
   25.6282  -11.6851  -16.0200 N   0  0  0  0  0  0  0  0  0  0  0  0
   25.2854  -10.3439  -15.5459 C   0  0  0  0  0  0  0  0  0  0  0  0
   23.7848  -10.2492  -15.5800 C   0  0  0  0  0  0  0  0  0  0  0  0
   23.3228   -8.9214  -15.1569 C   0  0  0  0  0  0  0  0  0  0  0  0
   21.8793   -8.6335  -15.0903 C   0  0  2  0  0  0  0  0  0  0  0  0
   21.2286   -8.8748  -16.3549 N   0  0  0  0  0  0  0  0  0  0  0  0
   21.4683   -7.3668  -14.4656 C   0  0  0  0  0  0  0  0  0  0  0  0
   21.5121   -7.2071  -13.0884 O   0  0  0  0  0  0  0  0  0  0  0  0
   21.0582   -6.3638  -15.1194 O   0  0  0  0  0  0  0  0  0  0  0  0
  2  1  1  1
  3  2  1  0
  4  3  1  0
  5  4  1  0
  5  6  2  0
  7  8  2  0
  7  2  1  0
  9  5  1  0
 11 10  1  1
 11 12  1  0
 12  7  1  0
 13 11  1  0
 14 13  2  0
 16 15  1  0
 16 18  1  0
 17 16  2  0
 19 18  1  0
 19 20  1  0
 20 21  1  0
 22 21  1  6
 22 23  1  0
 23 13  1  0
 24 22  1  0
 24 25  1  0
 26 24  2  0
M  END
$$$$
