EAR.pdb
     RDKit          3D

 26 25  0  0  1  0  0  0  0  0999 V2000
   25.9631  -20.8342  -13.7696 N   0  0  0  0  0  0  0  0  0  0  0  0
   24.8598  -21.0817  -14.6776 C   0  0  1  0  0  0  0  0  0  0  0  0
   24.9047  -22.4256  -15.3301 C   0  0  0  0  0  0  0  0  0  0  0  0
   24.5670  -23.5831  -14.4584 C   0  0  0  0  0  0  0  0  0  0  0  0
   24.6578  -24.9020  -15.0986 C   0  0  0  0  0  0  0  0  0  0  0  0
   24.4005  -25.9394  -14.4415 O   0  0  0  0  0  0  0  0  0  0  0  0
   23.5495  -20.9454  -13.9870 C   0  0  0  0  0  0  0  0  0  0  0  0
   23.5323  -21.0582  -12.7384 O   0  0  0  0  0  0  0  0  0  0  0  0
   25.0278  -25.0751  -16.4461 O   0  0  0  0  0  0  0  0  0  0  0  0
   20.1375  -19.6105  -14.8398 C   0  0  0  0  0  0  0  0  0  0  0  0
   21.0702  -20.4395  -14.0234 C   0  0  2  0  0  0  0  0  0  0  0  0
   22.3391  -20.6993  -14.6473 N   0  0  0  0  0  0  0  0  0  0  0  0
   20.4217  -21.7641  -13.7324 C   0  0  0  0  0  0  0  0  0  0  0  0
   20.7382  -22.7962  -14.3982 O   0  0  0  0  0  0  0  0  0  0  0  0
   16.8730  -24.1906   -6.3476 N   0  0  0  0  0  0  0  0  0  0  0  0
   18.0559  -24.6341   -7.0401 C   0  0  0  0  0  0  0  0  0  0  0  0
   19.0964  -24.9811   -6.3730 N   0  0  0  0  0  0  0  0  0  0  0  0
   18.1107  -24.7019   -8.4490 N   0  0  0  0  0  0  0  0  0  0  0  0
   16.9750  -24.2789   -9.2690 C   0  0  0  0  0  0  0  0  0  0  0  0
   17.4140  -24.4007  -10.7024 C   0  0  0  0  0  0  0  0  0  0  0  0
   18.2291  -23.2503  -11.1118 C   0  0  0  0  0  0  0  0  0  0  0  0
   18.7352  -23.1640  -12.4928 C   0  0  2  0  0  0  0  0  0  0  0  0
   19.4459  -21.9301  -12.7242 N   0  0  0  0  0  0  0  0  0  0  0  0
   17.8029  -23.5018  -13.5794 C   0  0  0  0  0  0  0  0  0  0  0  0
   17.7088  -24.8012  -14.0559 O   0  0  0  0  0  0  0  0  0  0  0  0
   17.0441  -22.6579  -14.1394 O   0  0  0  0  0  0  0  0  0  0  0  0
  2  1  1  1
  3  2  1  0
  4  3  1  0
  5  4  1  0
  5  6  2  0
  7  8  2  0
  7  2  1  0
  9  5  1  0
 11 10  1  6
 11 12  1  0
 12  7  1  0
 13 11  1  0
 14 13  2  0
 16 15  1  0
 16 18  1  0
 17 16  2  0
 19 18  1  0
 19 20  1  0
 20 21  1  0
 22 21  1  1
 22 23  1  0
 23 13  1  0
 24 22  1  0
 24 25  1  0
 26 24  2  0
M  END
$$$$
