EAR.pdb
     RDKit          3D

 26 25  0  0  1  0  0  0  0  0999 V2000
   16.6425   -8.7714  -18.7596 N   0  0  0  0  0  0  0  0  0  0  0  0
   16.5858   -7.4617  -18.1397 C   0  0  1  0  0  0  0  0  0  0  0  0
   15.8176   -7.4332  -16.8579 C   0  0  0  0  0  0  0  0  0  0  0  0
   14.3867   -7.8308  -16.9486 C   0  0  0  0  0  0  0  0  0  0  0  0
   13.9540   -8.8519  -15.9853 C   0  0  0  0  0  0  0  0  0  0  0  0
   14.7851   -9.3682  -15.1999 O   0  0  0  0  0  0  0  0  0  0  0  0
   17.9490   -6.9289  -17.8747 C   0  0  0  0  0  0  0  0  0  0  0  0
   18.8996   -7.7458  -17.8415 O   0  0  0  0  0  0  0  0  0  0  0  0
   12.6219   -9.2980  -15.8891 O   0  0  0  0  0  0  0  0  0  0  0  0
   19.5720   -3.5092  -17.5589 C   0  0  0  0  0  0  0  0  0  0  0  0
   19.5360   -4.9978  -17.4788 C   0  0  2  0  0  0  0  0  0  0  0  0
   18.2315   -5.5737  -17.6615 N   0  0  0  0  0  0  0  0  0  0  0  0
   20.0434   -5.4285  -16.1308 C   0  0  0  0  0  0  0  0  0  0  0  0
   19.2463   -5.5526  -15.1521 O   0  0  0  0  0  0  0  0  0  0  0  0
   25.7299  -11.4350  -16.3826 N   0  0  0  0  0  0  0  0  0  0  0  0
   24.3163  -11.5809  -16.6192 C   0  0  0  0  0  0  0  0  0  0  0  0
   23.8632  -12.6601  -17.1465 N   0  0  0  0  0  0  0  0  0  0  0  0
   23.3979  -10.5622  -16.2853 N   0  0  0  0  0  0  0  0  0  0  0  0
   23.8336   -9.3548  -15.5827 C   0  0  0  0  0  0  0  0  0  0  0  0
   22.6298   -8.4582  -15.4871 C   0  0  0  0  0  0  0  0  0  0  0  0
   22.9482   -7.2082  -14.7860 C   0  0  0  0  0  0  0  0  0  0  0  0
   21.9091   -6.1777  -14.6148 C   0  0  2  0  0  0  0  0  0  0  0  0
   21.4053   -5.7126  -15.8840 N   0  0  0  0  0  0  0  0  0  0  0  0
   22.1875   -5.0836  -13.6719 C   0  0  0  0  0  0  0  0  0  0  0  0
   22.1696   -5.3045  -12.3026 O   0  0  0  0  0  0  0  0  0  0  0  0
   22.4548   -3.8999  -14.0312 O   0  0  0  0  0  0  0  0  0  0  0  0
  2  1  1  1
  3  2  1  0
  4  3  1  0
  5  4  1  0
  5  6  2  0
  7  8  2  0
  7  2  1  0
  9  5  1  0
 11 10  1  1
 11 12  1  0
 12  7  1  0
 13 11  1  0
 14 13  2  0
 16 15  1  0
 16 18  1  0
 17 16  2  0
 19 18  1  0
 19 20  1  0
 20 21  1  0
 22 21  1  6
 22 23  1  0
 23 13  1  0
 24 22  1  0
 24 25  1  0
 26 24  2  0
M  END
$$$$
