EAR.pdb
     RDKit          3D

 26 25  0  0  1  0  0  0  0  0999 V2000
   27.7753  -21.6204  -15.9274 N   0  0  0  0  0  0  0  0  0  0  0  0
   27.2529  -20.6261  -15.0100 C   0  0  1  0  0  0  0  0  0  0  0  0
   26.5517  -19.4916  -15.6845 C   0  0  0  0  0  0  0  0  0  0  0  0
   27.3832  -18.6670  -16.6023 C   0  0  0  0  0  0  0  0  0  0  0  0
   26.6714  -17.5872  -17.2989 C   0  0  0  0  0  0  0  0  0  0  0  0
   26.0492  -16.7179  -16.6422 O   0  0  0  0  0  0  0  0  0  0  0  0
   26.3136  -21.2344  -14.0301 C   0  0  0  0  0  0  0  0  0  0  0  0
   25.7081  -22.2780  -14.3711 O   0  0  0  0  0  0  0  0  0  0  0  0
   26.6460  -17.4673  -18.7016 O   0  0  0  0  0  0  0  0  0  0  0  0
   25.5221  -20.8341  -10.3547 C   0  0  0  0  0  0  0  0  0  0  0  0
   25.2370  -21.3038  -11.7409 C   0  0  2  0  0  0  0  0  0  0  0  0
   26.0675  -20.7119  -12.7541 N   0  0  0  0  0  0  0  0  0  0  0  0
   23.8061  -20.9913  -12.0797 C   0  0  0  0  0  0  0  0  0  0  0  0
   23.3639  -19.8070  -11.9772 O   0  0  0  0  0  0  0  0  0  0  0  0
   19.4872  -24.5860   -7.2561 N   0  0  0  0  0  0  0  0  0  0  0  0
   18.8355  -24.7946   -8.5239 C   0  0  0  0  0  0  0  0  0  0  0  0
   17.9539  -25.7197   -8.6462 N   0  0  0  0  0  0  0  0  0  0  0  0
   19.1374  -24.0041   -9.6537 N   0  0  0  0  0  0  0  0  0  0  0  0
   19.0626  -22.5439   -9.5941 C   0  0  0  0  0  0  0  0  0  0  0  0
   19.4487  -22.0402  -10.9577 C   0  0  0  0  0  0  0  0  0  0  0  0
   20.8882  -22.1993  -11.1989 C   0  0  0  0  0  0  0  0  0  0  0  0
   21.4618  -21.8091  -12.4987 C   0  0  2  0  0  0  0  0  0  0  0  0
   22.8944  -21.9763  -12.5211 N   0  0  0  0  0  0  0  0  0  0  0  0
   21.0241  -20.5292  -13.0766 C   0  0  0  0  0  0  0  0  0  0  0  0
   20.4572  -20.4781  -14.3416 O   0  0  0  0  0  0  0  0  0  0  0  0
   21.1301  -19.4182  -12.4799 O   0  0  0  0  0  0  0  0  0  0  0  0
  2  1  1  6
  3  2  1  0
  4  3  1  0
  5  4  1  0
  5  6  2  0
  7  8  2  0
  7  2  1  0
  9  5  1  0
 11 10  1  1
 11 12  1  0
 12  7  1  0
 13 11  1  0
 14 13  2  0
 16 15  1  0
 16 18  1  0
 17 16  2  0
 19 18  1  0
 19 20  1  0
 20 21  1  0
 22 21  1  1
 22 23  1  0
 23 13  1  0
 24 22  1  0
 24 25  1  0
 26 24  2  0
M  END
$$$$
