EAR.pdb
     RDKit          3D

 26 25  0  0  1  0  0  0  0  0999 V2000
   27.2177  -23.7577  -16.8885 N   0  0  0  0  0  0  0  0  0  0  0  0
   26.5616  -22.6478  -17.5523 C   0  0  1  0  0  0  0  0  0  0  0  0
   25.5772  -23.0654  -18.5965 C   0  0  0  0  0  0  0  0  0  0  0  0
   26.1363  -23.8129  -19.7551 C   0  0  0  0  0  0  0  0  0  0  0  0
   26.7798  -22.9880  -20.7862 C   0  0  0  0  0  0  0  0  0  0  0  0
   26.7761  -21.7375  -20.6842 O   0  0  0  0  0  0  0  0  0  0  0  0
   25.8587  -21.7726  -16.5764 C   0  0  0  0  0  0  0  0  0  0  0  0
   25.1022  -22.3199  -15.7396 O   0  0  0  0  0  0  0  0  0  0  0  0
   27.4190  -23.5347  -21.9153 O   0  0  0  0  0  0  0  0  0  0  0  0
   25.6810  -18.0499  -15.7969 C   0  0  0  0  0  0  0  0  0  0  0  0
   25.3161  -19.4868  -15.6357 C   0  0  2  0  0  0  0  0  0  0  0  0
   25.9922  -20.3789  -16.5377 N   0  0  0  0  0  0  0  0  0  0  0  0
   23.8374  -19.6446  -15.8559 C   0  0  0  0  0  0  0  0  0  0  0  0
   23.3963  -20.5133  -16.6681 O   0  0  0  0  0  0  0  0  0  0  0  0
   19.1774  -24.6109  -12.3454 N   0  0  0  0  0  0  0  0  0  0  0  0
   18.1966  -23.9829  -13.1934 C   0  0  0  0  0  0  0  0  0  0  0  0
   16.9607  -24.3174  -13.0996 N   0  0  0  0  0  0  0  0  0  0  0  0
   18.5533  -22.9968  -14.1383 N   0  0  0  0  0  0  0  0  0  0  0  0
   19.9490  -22.5968  -14.3205 C   0  0  0  0  0  0  0  0  0  0  0  0
   19.9752  -21.0945  -14.2542 C   0  0  0  0  0  0  0  0  0  0  0  0
   21.3214  -20.5709  -14.5171 C   0  0  0  0  0  0  0  0  0  0  0  0
   21.4865  -19.2128  -15.0641 C   0  0  2  0  0  0  0  0  0  0  0  0
   22.8780  -18.8526  -15.1862 N   0  0  0  0  0  0  0  0  0  0  0  0
   20.6654  -18.1415  -14.4793 C   0  0  0  0  0  0  0  0  0  0  0  0
   21.1581  -17.3493  -13.4527 O   0  0  0  0  0  0  0  0  0  0  0  0
   19.4881  -17.8744  -14.8590 O   0  0  0  0  0  0  0  0  0  0  0  0
  2  1  1  1
  3  2  1  0
  4  3  1  0
  5  4  1  0
  5  6  2  0
  7  8  2  0
  7  2  1  0
  9  5  1  0
 11 10  1  6
 11 12  1  0
 12  7  1  0
 13 11  1  0
 14 13  2  0
 16 15  1  0
 16 18  1  0
 17 16  2  0
 19 18  1  0
 19 20  1  0
 20 21  1  0
 22 21  1  1
 22 23  1  0
 23 13  1  0
 24 22  1  0
 24 25  1  0
 26 24  2  0
M  END
$$$$
