EAR.pdb
     RDKit          3D

 26 25  0  0  1  0  0  0  0  0999 V2000
   23.5215  -14.3868  -22.3764 N   0  0  0  0  0  0  0  0  0  0  0  0
   23.7276  -13.8641  -21.0395 C   0  0  1  0  0  0  0  0  0  0  0  0
   25.1091  -13.3465  -20.7999 C   0  0  0  0  0  0  0  0  0  0  0  0
   25.4925  -12.1347  -21.5733 C   0  0  0  0  0  0  0  0  0  0  0  0
   26.8703  -11.6674  -21.3707 C   0  0  0  0  0  0  0  0  0  0  0  0
   27.1460  -10.4495  -21.4933 O   0  0  0  0  0  0  0  0  0  0  0  0
   22.7642  -12.7738  -20.7303 C   0  0  0  0  0  0  0  0  0  0  0  0
   23.0142  -11.6290  -21.1763 O   0  0  0  0  0  0  0  0  0  0  0  0
   27.9307  -12.5317  -21.0373 O   0  0  0  0  0  0  0  0  0  0  0  0
   19.1874  -12.4635  -19.8463 C   0  0  0  0  0  0  0  0  0  0  0  0
   20.5862  -11.9597  -19.7314 C   0  0  2  0  0  0  0  0  0  0  0  0
   21.5990  -12.9508  -19.9735 N   0  0  0  0  0  0  0  0  0  0  0  0
   20.7987  -11.4147  -18.3466 C   0  0  0  0  0  0  0  0  0  0  0  0
   21.3067  -12.1411  -17.4395 O   0  0  0  0  0  0  0  0  0  0  0  0
   22.5972   -3.3753  -15.6560 N   0  0  0  0  0  0  0  0  0  0  0  0
   21.4585   -3.8684  -14.9240 C   0  0  0  0  0  0  0  0  0  0  0  0
   20.7083   -3.0500  -14.2794 N   0  0  0  0  0  0  0  0  0  0  0  0
   21.1339   -5.2417  -14.8913 N   0  0  0  0  0  0  0  0  0  0  0  0
   22.0215   -6.2407  -15.4875 C   0  0  0  0  0  0  0  0  0  0  0  0
   21.3468   -7.5729  -15.3086 C   0  0  0  0  0  0  0  0  0  0  0  0
   21.2326   -8.2903  -16.5845 C   0  0  0  0  0  0  0  0  0  0  0  0
   20.5302   -9.5843  -16.6384 C   0  0  2  0  0  0  0  0  0  0  0  0
   20.4524  -10.0932  -17.9859 N   0  0  0  0  0  0  0  0  0  0  0  0
   19.2581   -9.6966  -15.9081 C   0  0  0  0  0  0  0  0  0  0  0  0
   19.2390   -9.7751  -14.5233 O   0  0  0  0  0  0  0  0  0  0  0  0
   18.1263   -9.7287  -16.4732 O   0  0  0  0  0  0  0  0  0  0  0  0
  2  1  1  6
  3  2  1  0
  4  3  1  0
  5  4  1  0
  5  6  2  0
  7  8  2  0
  7  2  1  0
  9  5  1  0
 11 10  1  1
 11 12  1  0
 12  7  1  0
 13 11  1  0
 14 13  2  0
 16 15  1  0
 16 18  1  0
 17 16  2  0
 19 18  1  0
 19 20  1  0
 20 21  1  0
 22 21  1  6
 22 23  1  0
 23 13  1  0
 24 22  1  0
 24 25  1  0
 26 24  2  0
M  END
$$$$
