MYV.pdb
     RDKit          3D

 28 28  0  0  1  0  0  0  0  0999 V2000
    8.4039  -12.8668   28.1021 C   0  0  0  0  0  0  0  0  0  0  0  0
    6.9891  -12.3008   27.1596 S   0  0  0  0  0  0  0  0  0  0  0  0
    6.6288  -13.3306   25.7263 C   0  0  0  0  0  0  0  0  0  0  0  0
    5.9894  -14.6502   26.1084 C   0  0  0  0  0  0  0  0  0  0  0  0
    5.7749  -15.4291   24.8302 C   0  0  2  0  0  0  0  0  0  0  0  0
    5.0722  -16.6439   25.1942 N   0  0  0  0  0  0  0  0  0  0  0  0
    7.0536  -15.8231   24.1913 C   0  0  0  0  0  0  0  0  0  0  0  0
    7.5441  -16.9536   24.3799 O   0  0  0  0  0  0  0  0  0  0  0  0
    6.9641  -14.0613   16.7199 O   0  0  0  0  0  0  0  0  0  0  0  0
    7.5715  -14.0453   17.9850 C   0  0  0  0  0  0  0  0  0  0  0  0
    7.6651  -12.8937   18.7331 C   0  0  0  0  0  0  0  0  0  0  0  0
    8.2698  -12.9164   19.9740 C   0  0  0  0  0  0  0  0  0  0  0  0
    8.8008  -14.0746   20.5155 C   0  0  0  0  0  0  0  0  0  0  0  0
    9.4468  -14.0902   21.8454 C   0  0  0  0  0  0  0  0  0  0  0  0
    8.9998  -15.3047   22.6662 C   0  0  2  0  0  0  0  0  0  0  0  0
    7.7812  -14.9379   23.3366 N   0  0  0  0  0  0  0  0  0  0  0  0
   10.0948  -15.6239   23.6212 C   0  0  0  0  0  0  0  0  0  0  0  0
   10.5648  -14.7081   24.3441 O   0  0  0  0  0  0  0  0  0  0  0  0
    8.7000  -15.2318   19.7497 C   0  0  0  0  0  0  0  0  0  0  0  0
    8.0961  -15.2024   18.5138 C   0  0  0  0  0  0  0  0  0  0  0  0
   11.4776  -19.5812   24.0752 C   0  0  0  0  0  0  0  0  0  0  0  0
   11.6321  -18.5839   25.2028 C   0  0  2  0  0  0  0  0  0  0  0  0
   10.4679  -18.7206   26.1304 C   0  0  0  0  0  0  0  0  0  0  0  0
   11.7466  -17.2072   24.5838 C   0  0  2  0  0  0  0  0  0  0  0  0
   10.6121  -16.9355   23.7273 N   0  0  0  0  0  0  0  0  0  0  0  0
   13.0316  -17.0199   23.8703 C   0  0  0  0  0  0  0  0  0  0  0  0
   13.1060  -16.8642   22.6283 O   0  0  0  0  0  0  0  0  0  0  0  0
   14.2031  -17.0168   24.6097 O   0  0  0  0  0  0  0  0  0  0  0  0
  1  2  1  0
  2  3  1  0
  4  3  1  0
  4  5  1  0
  5  6  1  1
  7  8  2  0
  7  5  1  0
  9 10  1  0
 10 11  2  0
 11 12  1  0
 13 14  1  0
 13 12  2  0
 15 14  1  6
 15 16  1  0
 16  7  1  0
 17 15  1  0
 18 17  2  0
 19 13  1  0
 20 19  2  0
 20 10  1  0
 22 24  1  0
 22 21  1  6
 23 22  1  0
 24 25  1  6
 25 17  1  0
 26 28  1  0
 26 24  1  0
 27 26  2  0
M  END
$$$$
