MYV.pdb
     RDKit          3D

 28 28  0  0  1  0  0  0  0  0999 V2000
   12.3756  -21.4041   22.4491 C   0  0  0  0  0  0  0  0  0  0  0  0
   12.2652  -21.2400   20.6683 S   0  0  0  0  0  0  0  0  0  0  0  0
   11.4979  -19.6982   20.1404 C   0  0  0  0  0  0  0  0  0  0  0  0
   11.4934  -18.6502   21.2349 C   0  0  0  0  0  0  0  0  0  0  0  0
   10.7913  -17.4303   20.6821 C   0  0  2  0  0  0  0  0  0  0  0  0
   11.7055  -16.8125   19.7415 N   0  0  0  0  0  0  0  0  0  0  0  0
   10.4865  -16.4322   21.7353 C   0  0  0  0  0  0  0  0  0  0  0  0
   11.3103  -15.5471   22.0388 O   0  0  0  0  0  0  0  0  0  0  0  0
    6.0723  -11.3532   27.4286 O   0  0  0  0  0  0  0  0  0  0  0  0
    6.4256  -12.3166   26.4711 C   0  0  0  0  0  0  0  0  0  0  0  0
    7.1147  -11.9865   25.3263 C   0  0  0  0  0  0  0  0  0  0  0  0
    7.4451  -12.9617   24.4066 C   0  0  0  0  0  0  0  0  0  0  0  0
    7.1064  -14.2919   24.5869 C   0  0  0  0  0  0  0  0  0  0  0  0
    7.4642  -15.3300   23.5969 C   0  0  0  0  0  0  0  0  0  0  0  0
    8.9768  -15.5752   23.5706 C   0  0  2  0  0  0  0  0  0  0  0  0
    9.2476  -16.4332   22.4483 N   0  0  0  0  0  0  0  0  0  0  0  0
    9.3480  -16.2062   24.8656 C   0  0  0  0  0  0  0  0  0  0  0  0
    9.2919  -17.4578   24.9765 O   0  0  0  0  0  0  0  0  0  0  0  0
    6.4101  -14.6127   25.7479 C   0  0  0  0  0  0  0  0  0  0  0  0
    6.0839  -13.6360   26.6606 C   0  0  0  0  0  0  0  0  0  0  0  0
    9.3881  -14.3805   28.6751 C   0  0  0  0  0  0  0  0  0  0  0  0
   10.6727  -15.0167   28.1901 C   0  0  2  0  0  0  0  0  0  0  0  0
   11.5728  -13.9452   27.6646 C   0  0  0  0  0  0  0  0  0  0  0  0
   10.3057  -16.0541   27.1507 C   0  0  2  0  0  0  0  0  0  0  0  0
    9.7608  -15.4228   25.9678 N   0  0  0  0  0  0  0  0  0  0  0  0
    9.3937  -17.0892   27.6912 C   0  0  0  0  0  0  0  0  0  0  0  0
    9.7067  -17.8454   28.6414 O   0  0  0  0  0  0  0  0  0  0  0  0
    8.1389  -17.2270   27.1206 O   0  0  0  0  0  0  0  0  0  0  0  0
  1  2  1  0
  2  3  1  0
  4  3  1  0
  4  5  1  0
  5  6  1  6
  7  8  2  0
  7  5  1  0
  9 10  1  0
 10 11  2  0
 11 12  1  0
 13 14  1  0
 13 12  2  0
 15 14  1  1
 15 16  1  0
 16  7  1  0
 17 15  1  0
 18 17  2  0
 19 13  1  0
 20 19  2  0
 20 10  1  0
 22 24  1  0
 22 21  1  6
 23 22  1  0
 24 25  1  6
 25 17  1  0
 26 28  1  0
 26 24  1  0
 27 26  2  0
M  END
$$$$
