MYV.pdb
     RDKit          3D

 28 28  0  0  1  0  0  0  0  0999 V2000
    7.5646  -17.7934   18.0730 C   0  0  0  0  0  0  0  0  0  0  0  0
    6.6857  -16.4396   17.2952 S   0  0  0  0  0  0  0  0  0  0  0  0
    6.8372  -14.8834   18.1898 C   0  0  0  0  0  0  0  0  0  0  0  0
    7.7449  -14.9969   19.3978 C   0  0  0  0  0  0  0  0  0  0  0  0
    7.6272  -13.7009   20.1680 C   0  0  2  0  0  0  0  0  0  0  0  0
    8.1746  -12.6599   19.3203 N   0  0  0  0  0  0  0  0  0  0  0  0
    8.4159  -13.7201   21.4235 C   0  0  0  0  0  0  0  0  0  0  0  0
    9.6194  -13.3955   21.4307 O   0  0  0  0  0  0  0  0  0  0  0  0
   10.1537  -14.7502   30.0942 O   0  0  0  0  0  0  0  0  0  0  0  0
    9.5159  -14.6274   28.8501 C   0  0  0  0  0  0  0  0  0  0  0  0
    9.0573  -15.7238   28.1558 C   0  0  0  0  0  0  0  0  0  0  0  0
    8.4345  -15.5640   26.9341 C   0  0  0  0  0  0  0  0  0  0  0  0
    8.2446  -14.3189   26.3593 C   0  0  0  0  0  0  0  0  0  0  0  0
    7.5764  -14.1566   25.0505 C   0  0  0  0  0  0  0  0  0  0  0  0
    8.5912  -14.1753   23.9022 C   0  0  2  0  0  0  0  0  0  0  0  0
    7.8439  -14.1071   22.6751 N   0  0  0  0  0  0  0  0  0  0  0  0
    9.3712  -15.4367   24.0182 C   0  0  0  0  0  0  0  0  0  0  0  0
    9.9769  -15.6870   25.0917 O   0  0  0  0  0  0  0  0  0  0  0  0
    8.7124  -13.2187   27.0709 C   0  0  0  0  0  0  0  0  0  0  0  0
    9.3323  -13.3848   28.2880 C   0  0  0  0  0  0  0  0  0  0  0  0
    8.4089  -18.8634   22.0377 C   0  0  0  0  0  0  0  0  0  0  0  0
    9.8825  -18.5318   21.9464 C   0  0  2  0  0  0  0  0  0  0  0  0
   10.6673  -19.8027   22.0050 C   0  0  0  0  0  0  0  0  0  0  0  0
   10.2070  -17.5747   23.0734 C   0  0  2  0  0  0  0  0  0  0  0  0
    9.4408  -16.3537   22.9442 N   0  0  0  0  0  0  0  0  0  0  0  0
   11.6600  -17.3038   23.1764 C   0  0  0  0  0  0  0  0  0  0  0  0
   12.2214  -16.3557   22.5778 O   0  0  0  0  0  0  0  0  0  0  0  0
   12.4323  -18.1362   23.9701 O   0  0  0  0  0  0  0  0  0  0  0  0
  1  2  1  0
  2  3  1  0
  4  3  1  0
  4  5  1  0
  5  6  1  6
  7  8  2  0
  7  5  1  0
  9 10  1  0
 10 11  2  0
 11 12  1  0
 13 14  1  0
 13 12  2  0
 15 14  1  1
 15 16  1  0
 16  7  1  0
 17 15  1  0
 18 17  2  0
 19 13  1  0
 20 19  2  0
 20 10  1  0
 22 24  1  0
 22 21  1  1
 23 22  1  0
 24 25  1  6
 25 17  1  0
 26 28  1  0
 26 24  1  0
 27 26  2  0
M  END
$$$$
