MYV.pdb
     RDKit          3D

 28 28  0  0  1  0  0  0  0  0999 V2000
    8.4254  -11.7494   19.4415 C   0  0  0  0  0  0  0  0  0  0  0  0
    7.8445  -12.8594   18.1606 S   0  0  0  0  0  0  0  0  0  0  0  0
    7.7828  -14.5820   18.6837 C   0  0  0  0  0  0  0  0  0  0  0  0
    7.2867  -14.7366   20.1072 C   0  0  0  0  0  0  0  0  0  0  0  0
    7.3191  -16.2128   20.4334 C   0  0  2  0  0  0  0  0  0  0  0  0
    6.2006  -16.8189   19.7378 N   0  0  0  0  0  0  0  0  0  0  0  0
    7.1417  -16.4718   21.8825 C   0  0  0  0  0  0  0  0  0  0  0  0
    6.0097  -16.4529   22.4042 O   0  0  0  0  0  0  0  0  0  0  0  0
    8.5631  -18.9668   30.2123 O   0  0  0  0  0  0  0  0  0  0  0  0
    8.7025  -18.7256   28.8368 C   0  0  0  0  0  0  0  0  0  0  0  0
    9.8929  -18.3052   28.2883 C   0  0  0  0  0  0  0  0  0  0  0  0
    9.9922  -18.0780   26.9302 C   0  0  0  0  0  0  0  0  0  0  0  0
    8.9216  -18.2581   26.0711 C   0  0  0  0  0  0  0  0  0  0  0  0
    9.0367  -18.0125   24.6177 C   0  0  0  0  0  0  0  0  0  0  0  0
    8.1291  -16.8596   24.1752 C   0  0  2  0  0  0  0  0  0  0  0  0
    8.2460  -16.7531   22.7455 N   0  0  0  0  0  0  0  0  0  0  0  0
    8.5973  -15.6318   24.8725 C   0  0  0  0  0  0  0  0  0  0  0  0
    9.7151  -15.1419   24.5683 O   0  0  0  0  0  0  0  0  0  0  0  0
    7.7241  -18.6832   26.6376 C   0  0  0  0  0  0  0  0  0  0  0  0
    7.6317  -18.9078   27.9919 C   0  0  0  0  0  0  0  0  0  0  0  0
    6.0290  -13.3832   27.3827 C   0  0  0  0  0  0  0  0  0  0  0  0
    7.1810  -12.7772   26.6110 C   0  0  2  0  0  0  0  0  0  0  0  0
    6.6862  -12.3409   25.2696 C   0  0  0  0  0  0  0  0  0  0  0  0
    8.2787  -13.8168   26.5357 C   0  0  2  0  0  0  0  0  0  0  0  0
    7.8075  -15.0109   25.8673 N   0  0  0  0  0  0  0  0  0  0  0  0
    8.8524  -14.1219   27.8673 C   0  0  0  0  0  0  0  0  0  0  0  0
    9.4455  -13.2667   28.5668 O   0  0  0  0  0  0  0  0  0  0  0  0
    8.7274  -15.4103   28.3607 O   0  0  0  0  0  0  0  0  0  0  0  0
  1  2  1  0
  2  3  1  0
  4  3  1  0
  4  5  1  0
  5  6  1  6
  7  8  2  0
  7  5  1  0
  9 10  1  0
 10 11  2  0
 11 12  1  0
 13 14  1  0
 13 12  2  0
 15 14  1  1
 15 16  1  0
 16  7  1  0
 17 15  1  0
 18 17  2  0
 19 13  1  0
 20 19  2  0
 20 10  1  0
 22 24  1  0
 22 21  1  1
 23 22  1  0
 24 25  1  1
 25 17  1  0
 26 28  1  0
 26 24  1  0
 27 26  2  0
M  END
$$$$
