MYV.pdb
     RDKit          3D

 28 28  0  0  1  0  0  0  0  0999 V2000
    6.8780  -20.6214   20.1420 C   0  0  0  0  0  0  0  0  0  0  0  0
    7.5802  -19.8247   18.6989 S   0  0  0  0  0  0  0  0  0  0  0  0
    8.0145  -18.0989   18.9777 C   0  0  0  0  0  0  0  0  0  0  0  0
    8.9032  -17.9150   20.1912 C   0  0  0  0  0  0  0  0  0  0  0  0
    9.0938  -16.4273   20.3837 C   0  0  2  0  0  0  0  0  0  0  0  0
    9.9651  -15.9762   19.3162 N   0  0  0  0  0  0  0  0  0  0  0  0
    9.7566  -16.1078   21.6710 C   0  0  0  0  0  0  0  0  0  0  0  0
   10.9990  -16.0526   21.7571 O   0  0  0  0  0  0  0  0  0  0  0  0
   10.4865  -14.5622   30.4113 O   0  0  0  0  0  0  0  0  0  0  0  0
   10.0298  -14.6469   29.0870 C   0  0  0  0  0  0  0  0  0  0  0  0
   10.2654  -13.6474   28.1704 C   0  0  0  0  0  0  0  0  0  0  0  0
    9.8004  -13.7658   26.8759 C   0  0  0  0  0  0  0  0  0  0  0  0
    9.0891  -14.8727   26.4451 C   0  0  0  0  0  0  0  0  0  0  0  0
    8.5947  -14.9915   25.0568 C   0  0  0  0  0  0  0  0  0  0  0  0
    9.6226  -15.6882   24.1585 C   0  0  2  0  0  0  0  0  0  0  0  0
    9.0144  -15.8500   22.8651 N   0  0  0  0  0  0  0  0  0  0  0  0
    9.9560  -16.9921   24.7921 C   0  0  0  0  0  0  0  0  0  0  0  0
    9.0303  -17.8042   25.0485 O   0  0  0  0  0  0  0  0  0  0  0  0
    8.8575  -15.8759   27.3809 C   0  0  0  0  0  0  0  0  0  0  0  0
    9.3237  -15.7517   28.6695 C   0  0  0  0  0  0  0  0  0  0  0  0
   13.9175  -18.4416   24.9397 C   0  0  0  0  0  0  0  0  0  0  0  0
   12.6847  -19.3185   24.9071 C   0  0  2  0  0  0  0  0  0  0  0  0
   12.3092  -19.5697   23.4822 C   0  0  0  0  0  0  0  0  0  0  0  0
   11.6017  -18.6152   25.6971 C   0  0  2  0  0  0  0  0  0  0  0  0
   11.2920  -17.3298   25.1085 N   0  0  0  0  0  0  0  0  0  0  0  0
   11.9463  -18.4938   27.1331 C   0  0  0  0  0  0  0  0  0  0  0  0
   12.1785  -17.3937   27.6884 O   0  0  0  0  0  0  0  0  0  0  0  0
   12.0147  -19.6483   27.8957 O   0  0  0  0  0  0  0  0  0  0  0  0
  1  2  1  0
  2  3  1  0
  4  3  1  0
  4  5  1  0
  5  6  1  6
  7  8  2  0
  7  5  1  0
  9 10  1  0
 10 11  2  0
 11 12  1  0
 13 14  1  0
 13 12  2  0
 15 14  1  1
 15 16  1  0
 16  7  1  0
 17 15  1  0
 18 17  2  0
 19 13  1  0
 20 19  2  0
 20 10  1  0
 22 24  1  0
 22 21  1  6
 23 22  1  0
 24 25  1  6
 25 17  1  0
 26 28  1  0
 26 24  1  0
 27 26  2  0
M  END
$$$$
