MYV.pdb
     RDKit          3D

 28 28  0  0  1  0  0  0  0  0999 V2000
    7.8717  -11.5789   18.4678 C   0  0  0  0  0  0  0  0  0  0  0  0
    7.0432  -13.0796   17.9463 S   0  0  0  0  0  0  0  0  0  0  0  0
    7.5373  -14.5319   18.8904 C   0  0  0  0  0  0  0  0  0  0  0  0
    8.4299  -14.1826   20.0639 C   0  0  0  0  0  0  0  0  0  0  0  0
    8.8321  -15.4834   20.7218 C   0  0  2  0  0  0  0  0  0  0  0  0
    7.6051  -16.1861   21.0426 N   0  0  0  0  0  0  0  0  0  0  0  0
    9.5713  -15.2671   21.9888 C   0  0  0  0  0  0  0  0  0  0  0  0
   10.7519  -14.8667   21.9829 O   0  0  0  0  0  0  0  0  0  0  0  0
   11.0676  -15.1386   30.7671 O   0  0  0  0  0  0  0  0  0  0  0  0
   10.4644  -15.1933   29.5010 C   0  0  0  0  0  0  0  0  0  0  0  0
   10.0107  -16.3754   28.9613 C   0  0  0  0  0  0  0  0  0  0  0  0
    9.4224  -16.3903   27.7124 C   0  0  0  0  0  0  0  0  0  0  0  0
    9.2631  -15.2409   26.9573 C   0  0  0  0  0  0  0  0  0  0  0  0
    8.6318  -15.2658   25.6207 C   0  0  0  0  0  0  0  0  0  0  0  0
    9.6840  -15.3628   24.5107 C   0  0  2  0  0  0  0  0  0  0  0  0
    8.9759  -15.5036   23.2666 N   0  0  0  0  0  0  0  0  0  0  0  0
   10.5388  -16.5430   24.8098 C   0  0  0  0  0  0  0  0  0  0  0  0
   11.1406  -16.6010   25.9127 O   0  0  0  0  0  0  0  0  0  0  0  0
    9.7257  -14.0526   27.5139 C   0  0  0  0  0  0  0  0  0  0  0  0
   10.3111  -14.0445   28.7590 C   0  0  0  0  0  0  0  0  0  0  0  0
   12.4503  -20.8581   23.4161 C   0  0  0  0  0  0  0  0  0  0  0  0
   11.5279  -19.7202   23.0360 C   0  0  2  0  0  0  0  0  0  0  0  0
   11.9472  -19.1836   21.7054 C   0  0  0  0  0  0  0  0  0  0  0  0
   11.5906  -18.6907   24.1441 C   0  0  2  0  0  0  0  0  0  0  0  0
   10.6835  -17.5952   23.8764 N   0  0  0  0  0  0  0  0  0  0  0  0
   12.9723  -18.2139   24.3869 C   0  0  0  0  0  0  0  0  0  0  0  0
   13.4511  -17.1975   23.8299 O   0  0  0  0  0  0  0  0  0  0  0  0
   13.7703  -18.9235   25.2693 O   0  0  0  0  0  0  0  0  0  0  0  0
  1  2  1  0
  2  3  1  0
  4  3  1  0
  4  5  1  0
  5  6  1  1
  7  8  2  0
  7  5  1  0
  9 10  1  0
 10 11  2  0
 11 12  1  0
 13 14  1  0
 13 12  2  0
 15 14  1  1
 15 16  1  0
 16  7  1  0
 17 15  1  0
 18 17  2  0
 19 13  1  0
 20 19  2  0
 20 10  1  0
 22 24  1  0
 22 21  1  1
 23 22  1  0
 24 25  1  6
 25 17  1  0
 26 28  1  0
 26 24  1  0
 27 26  2  0
M  END
$$$$
