MYV.pdb
     RDKit          3D

 28 28  0  0  1  0  0  0  0  0999 V2000
    5.9496  -19.7811   19.4879 C   0  0  0  0  0  0  0  0  0  0  0  0
    6.7137  -18.7973   18.2000 S   0  0  0  0  0  0  0  0  0  0  0  0
    6.9819  -17.0813   18.6776 C   0  0  0  0  0  0  0  0  0  0  0  0
    7.5393  -16.9521   20.0807 C   0  0  0  0  0  0  0  0  0  0  0  0
    7.6099  -15.4755   20.3989 C   0  0  2  0  0  0  0  0  0  0  0  0
    8.2003  -14.8271   19.2443 N   0  0  0  0  0  0  0  0  0  0  0  0
    8.4788  -15.1934   21.5668 C   0  0  0  0  0  0  0  0  0  0  0  0
    9.7202  -15.1760   21.4541 O   0  0  0  0  0  0  0  0  0  0  0  0
   10.5740  -14.5102   30.1946 O   0  0  0  0  0  0  0  0  0  0  0  0
    9.9048  -14.4710   28.9617 C   0  0  0  0  0  0  0  0  0  0  0  0
    9.8964  -13.3425   28.1736 C   0  0  0  0  0  0  0  0  0  0  0  0
    9.2270  -13.3412   26.9662 C   0  0  0  0  0  0  0  0  0  0  0  0
    8.5455  -14.4518   26.4985 C   0  0  0  0  0  0  0  0  0  0  0  0
    7.8312  -14.4419   25.2040 C   0  0  0  0  0  0  0  0  0  0  0  0
    8.7422  -14.9072   24.0629 C   0  0  2  0  0  0  0  0  0  0  0  0
    7.9444  -14.9302   22.8662 N   0  0  0  0  0  0  0  0  0  0  0  0
    9.2552  -16.2559   24.4248 C   0  0  0  0  0  0  0  0  0  0  0  0
    8.4365  -17.1851   24.6447 O   0  0  0  0  0  0  0  0  0  0  0  0
    8.5615  -15.5860   27.3040 C   0  0  0  0  0  0  0  0  0  0  0  0
    9.2306  -15.5808   28.5064 C   0  0  0  0  0  0  0  0  0  0  0  0
   13.2333  -17.3848   23.7009 C   0  0  0  0  0  0  0  0  0  0  0  0
   12.0623  -18.3403   23.7767 C   0  0  2  0  0  0  0  0  0  0  0  0
   11.4237  -18.4283   22.4281 C   0  0  0  0  0  0  0  0  0  0  0  0
   11.1253  -17.8315   24.8513 C   0  0  2  0  0  0  0  0  0  0  0  0
   10.6431  -16.5067   24.5243 N   0  0  0  0  0  0  0  0  0  0  0  0
   11.7420  -17.8755   26.1978 C   0  0  0  0  0  0  0  0  0  0  0  0
   11.9311  -16.8507   26.8954 O   0  0  0  0  0  0  0  0  0  0  0  0
   12.1268  -19.1045   26.7081 O   0  0  0  0  0  0  0  0  0  0  0  0
  1  2  1  0
  2  3  1  0
  4  3  1  0
  4  5  1  0
  5  6  1  6
  7  8  2  0
  7  5  1  0
  9 10  1  0
 10 11  2  0
 11 12  1  0
 13 14  1  0
 13 12  2  0
 15 14  1  1
 15 16  1  0
 16  7  1  0
 17 15  1  0
 18 17  2  0
 19 13  1  0
 20 19  2  0
 20 10  1  0
 22 24  1  0
 22 21  1  6
 23 22  1  0
 24 25  1  6
 25 17  1  0
 26 28  1  0
 26 24  1  0
 27 26  2  0
M  END
$$$$
