MYV.pdb
     RDKit          3D

 28 28  0  0  1  0  0  0  0  0999 V2000
    3.8505   -9.8515   27.5677 C   0  0  0  0  0  0  0  0  0  0  0  0
    5.4098  -10.5447   27.0216 S   0  0  0  0  0  0  0  0  0  0  0  0
    5.4315  -12.3459   27.0302 C   0  0  0  0  0  0  0  0  0  0  0  0
    6.7723  -12.9100   26.6058 C   0  0  0  0  0  0  0  0  0  0  0  0
    6.5189  -13.8282   25.4313 C   0  0  2  0  0  0  0  0  0  0  0  0
    6.0072  -15.0709   25.9753 N   0  0  0  0  0  0  0  0  0  0  0  0
    7.7612  -14.1413   24.6849 C   0  0  0  0  0  0  0  0  0  0  0  0
    8.4038  -13.2453   24.1032 O   0  0  0  0  0  0  0  0  0  0  0  0
   11.7107  -16.5952   29.7492 O   0  0  0  0  0  0  0  0  0  0  0  0
   11.2674  -16.7509   28.4268 C   0  0  0  0  0  0  0  0  0  0  0  0
   10.4049  -17.7597   28.0621 C   0  0  0  0  0  0  0  0  0  0  0  0
    9.9903  -17.8815   26.7509 C   0  0  0  0  0  0  0  0  0  0  0  0
   10.4130  -17.0130   25.7591 C   0  0  0  0  0  0  0  0  0  0  0  0
    9.9640  -17.1506   24.3571 C   0  0  0  0  0  0  0  0  0  0  0  0
    9.4334  -15.8208   23.8104 C   0  0  2  0  0  0  0  0  0  0  0  0
    8.2797  -15.4704   24.5947 N   0  0  0  0  0  0  0  0  0  0  0  0
    9.0979  -16.0314   22.3765 C   0  0  0  0  0  0  0  0  0  0  0  0
    8.4652  -17.0650   22.0397 O   0  0  0  0  0  0  0  0  0  0  0  0
   11.2845  -15.9977   26.1403 C   0  0  0  0  0  0  0  0  0  0  0  0
   11.6939  -15.8818   27.4488 C   0  0  0  0  0  0  0  0  0  0  0  0
    7.8694  -13.0898   20.3785 C   0  0  0  0  0  0  0  0  0  0  0  0
    8.7454  -13.8648   19.4182 C   0  0  2  0  0  0  0  0  0  0  0  0
    8.0616  -13.9344   18.0908 C   0  0  0  0  0  0  0  0  0  0  0  0
    9.0046  -15.2246   20.0308 C   0  0  2  0  0  0  0  0  0  0  0  0
    9.4781  -15.0907   21.3918 N   0  0  0  0  0  0  0  0  0  0  0  0
    9.9242  -16.0432   19.2065 C   0  0  0  0  0  0  0  0  0  0  0  0
   11.1634  -16.0763   19.3956 O   0  0  0  0  0  0  0  0  0  0  0  0
    9.3900  -16.8061   18.1811 O   0  0  0  0  0  0  0  0  0  0  0  0
  1  2  1  0
  2  3  1  0
  4  3  1  0
  4  5  1  0
  5  6  1  1
  7  8  2  0
  7  5  1  0
  9 10  1  0
 10 11  2  0
 11 12  1  0
 13 14  1  0
 13 12  2  0
 15 14  1  1
 15 16  1  0
 16  7  1  0
 17 15  1  0
 18 17  2  0
 19 13  1  0
 20 19  2  0
 20 10  1  0
 22 24  1  0
 22 21  1  1
 23 22  1  0
 24 25  1  1
 25 17  1  0
 26 28  1  0
 26 24  1  0
 27 26  2  0
M  END
$$$$
