MYV.pdb
     RDKit          3D

 28 28  0  0  1  0  0  0  0  0999 V2000
    6.9431  -17.9730   28.1503 C   0  0  0  0  0  0  0  0  0  0  0  0
    6.9442  -19.5488   27.2977 S   0  0  0  0  0  0  0  0  0  0  0  0
    7.1220  -19.3933   25.5119 C   0  0  0  0  0  0  0  0  0  0  0  0
    5.9651  -18.6472   24.8785 C   0  0  0  0  0  0  0  0  0  0  0  0
    6.3163  -18.4310   23.4236 C   0  0  2  0  0  0  0  0  0  0  0  0
    6.7751  -19.7071   22.9105 N   0  0  0  0  0  0  0  0  0  0  0  0
    7.4182  -17.4540   23.2510 C   0  0  0  0  0  0  0  0  0  0  0  0
    8.5988  -17.8336   23.1239 O   0  0  0  0  0  0  0  0  0  0  0  0
    7.7022  -14.1858   16.6703 O   0  0  0  0  0  0  0  0  0  0  0  0
    7.6883  -14.0896   18.0704 C   0  0  0  0  0  0  0  0  0  0  0  0
    8.6509  -13.3892   18.7615 C   0  0  0  0  0  0  0  0  0  0  0  0
    8.6045  -13.3165   20.1394 C   0  0  0  0  0  0  0  0  0  0  0  0
    7.6083  -13.9316   20.8783 C   0  0  0  0  0  0  0  0  0  0  0  0
    7.5661  -13.8486   22.3539 C   0  0  0  0  0  0  0  0  0  0  0  0
    8.2244  -15.0732   22.9985 C   0  0  2  0  0  0  0  0  0  0  0  0
    7.1865  -16.0437   23.2219 N   0  0  0  0  0  0  0  0  0  0  0  0
    8.8573  -14.6222   24.2670 C   0  0  0  0  0  0  0  0  0  0  0  0
   10.0033  -14.1049   24.2308 O   0  0  0  0  0  0  0  0  0  0  0  0
    6.6414  -14.6363   20.1682 C   0  0  0  0  0  0  0  0  0  0  0  0
    6.6933  -14.7049   18.7949 C   0  0  0  0  0  0  0  0  0  0  0  0
    6.6378  -13.5883   27.5909 C   0  0  0  0  0  0  0  0  0  0  0  0
    8.0457  -13.1187   27.2953 C   0  0  2  0  0  0  0  0  0  0  0  0
    7.9791  -11.9510   26.3645 C   0  0  0  0  0  0  0  0  0  0  0  0
    8.8107  -14.2950   26.7272 C   0  0  2  0  0  0  0  0  0  0  0  0
    8.1923  -14.7659   25.5064 N   0  0  0  0  0  0  0  0  0  0  0  0
    8.9752  -15.3856   27.7165 C   0  0  0  0  0  0  0  0  0  0  0  0
    8.5836  -16.5589   27.5100 O   0  0  0  0  0  0  0  0  0  0  0  0
    9.5894  -15.0951   28.9237 O   0  0  0  0  0  0  0  0  0  0  0  0
  1  2  1  0
  2  3  1  0
  4  3  1  0
  4  5  1  0
  5  6  1  1
  7  8  2  0
  7  5  1  0
  9 10  1  0
 10 11  2  0
 11 12  1  0
 13 14  1  0
 13 12  2  0
 15 14  1  1
 15 16  1  0
 16  7  1  0
 17 15  1  0
 18 17  2  0
 19 13  1  0
 20 19  2  0
 20 10  1  0
 22 24  1  0
 22 21  1  6
 23 22  1  0
 24 25  1  6
 25 17  1  0
 26 28  1  0
 26 24  1  0
 27 26  2  0
M  END
$$$$
