NCD.pdb
     RDKit          3D

 23 22  0  0  1  0  0  0  0  0999 V2000
   27.6421  -14.0043  -16.6263 N   0  0  0  0  0  0  0  0  0  0  0  0
   27.5311  -13.3790  -15.3548 C   0  0  0  0  0  0  0  0  0  0  0  0
   27.6349  -14.0763  -14.3393 O   0  0  0  0  0  0  0  0  0  0  0  0
   27.2983  -11.9348  -15.3016 C   0  0  0  0  0  0  0  0  0  0  0  0
   27.0275  -11.2622  -16.6110 C   0  0  2  0  0  0  0  0  0  0  0  0
   28.2458  -11.3644  -17.4113 N   0  0  0  0  0  0  0  0  0  0  0  0
   26.6851   -9.8304  -16.5129 C   0  0  0  0  0  0  0  0  0  0  0  0
   27.5684   -8.9136  -16.3495 O   0  0  0  0  0  0  0  0  0  0  0  0
   25.3206   -9.4382  -16.6021 N   0  0  0  0  0  0  0  0  0  0  0  0
   24.9218   -8.0516  -16.5927 C   0  0  1  0  0  0  0  0  0  0  0  0
   25.5956   -7.2842  -17.7365 C   0  0  0  0  0  0  0  0  0  0  0  0
   25.1599   -8.0826  -19.3211 S   0  0  0  0  0  0  0  0  0  0  0  0
   23.4644   -7.8719  -16.6191 C   0  0  0  0  0  0  0  0  0  0  0  0
   22.7050   -8.6340  -17.2728 O   0  0  0  0  0  0  0  0  0  0  0  0
   22.8568   -6.8136  -15.8945 N   0  0  0  0  0  0  0  0  0  0  0  0
   21.4098   -6.6695  -15.8789 C   0  0  1  0  0  0  0  0  0  0  0  0
   20.7808   -7.9388  -15.3575 C   0  0  0  0  0  0  0  0  0  0  0  0
   19.3235   -7.7741  -15.1851 C   0  0  0  0  0  0  0  0  0  0  0  0
   18.6200   -7.2081  -16.0298 O   0  0  0  0  0  0  0  0  0  0  0  0
   21.1257   -5.5050  -15.0086 C   0  0  0  0  0  0  0  0  0  0  0  0
   22.1987   -4.8166  -14.4506 O   0  0  0  0  0  0  0  0  0  0  0  0
   18.7323   -8.2734  -14.0357 O   0  0  0  0  0  0  0  0  0  0  0  0
   19.9373   -5.1081  -14.7491 O   0  0  0  0  0  0  0  0  0  0  0  0
  1  2  1  0
  2  4  1  0
  3  2  2  0
  4  5  1  0
  5  6  1  6
  5  7  1  0
  7  9  1  0
  7  8  2  0
  9 10  1  0
 10 13  1  0
 10 11  1  6
 11 12  1  0
 13 14  2  0
 15 13  1  0
 15 16  1  0
 16 20  1  0
 17 18  1  0
 16 17  1  1
 18 19  2  0
 20 21  1  0
 22 18  1  0
 23 20  2  0
M  END
$$$$
