NCD.pdb
     RDKit          3D

 23 22  0  0  1  0  0  0  0  0999 V2000
   15.2765  -13.1992   -9.6273 N   0  0  0  0  0  0  0  0  0  0  0  0
   14.7398  -12.8809  -10.9043 C   0  0  0  0  0  0  0  0  0  0  0  0
   14.4555  -13.8042  -11.6756 O   0  0  0  0  0  0  0  0  0  0  0  0
   14.5461  -11.4722  -11.2522 C   0  0  0  0  0  0  0  0  0  0  0  0
   14.8380  -10.4801  -10.1702 C   0  0  2  0  0  0  0  0  0  0  0  0
   13.7070  -10.5017   -9.2453 N   0  0  0  0  0  0  0  0  0  0  0  0
   15.0005   -9.0886  -10.6331 C   0  0  0  0  0  0  0  0  0  0  0  0
   14.0174   -8.3728  -11.0438 O   0  0  0  0  0  0  0  0  0  0  0  0
   16.2980   -8.5054  -10.6280 N   0  0  0  0  0  0  0  0  0  0  0  0
   16.5210   -7.1339  -11.0166 C   0  0  1  0  0  0  0  0  0  0  0  0
   15.7567   -6.1763  -10.0945 C   0  0  0  0  0  0  0  0  0  0  0  0
   16.3104   -6.4445   -8.3741 S   0  0  0  0  0  0  0  0  0  0  0  0
   17.9447   -6.7799  -11.0868 C   0  0  0  0  0  0  0  0  0  0  0  0
   18.8147   -7.3500  -10.3776 O   0  0  0  0  0  0  0  0  0  0  0  0
   18.3909   -5.7654  -11.9733 N   0  0  0  0  0  0  0  0  0  0  0  0
   19.8041   -5.6368  -12.2913 C   0  0  1  0  0  0  0  0  0  0  0  0
   20.3141   -6.9374  -12.8630 C   0  0  0  0  0  0  0  0  0  0  0  0
   21.7235   -6.8120  -13.2857 C   0  0  0  0  0  0  0  0  0  0  0  0
   22.5716   -6.2413  -12.5902 O   0  0  0  0  0  0  0  0  0  0  0  0
   19.9036   -4.5214  -13.2610 C   0  0  0  0  0  0  0  0  0  0  0  0
   21.1639   -4.0117  -13.5585 O   0  0  0  0  0  0  0  0  0  0  0  0
   22.1000   -7.3549  -14.5037 O   0  0  0  0  0  0  0  0  0  0  0  0
   18.8808   -4.0085  -13.8337 O   0  0  0  0  0  0  0  0  0  0  0  0
  1  2  1  0
  2  4  1  0
  3  2  2  0
  4  5  1  0
  5  6  1  1
  5  7  1  0
  7  9  1  0
  7  8  2  0
  9 10  1  0
 10 13  1  0
 10 11  1  1
 11 12  1  0
 13 14  2  0
 15 13  1  0
 15 16  1  0
 16 20  1  0
 17 18  1  0
 16 17  1  6
 18 19  2  0
 20 21  1  0
 22 18  1  0
 23 20  2  0
M  END
$$$$
