NCD.pdb
     RDKit          3D

 23 22  0  0  1  0  0  0  0  0999 V2000
   28.6862  -27.0113  -17.0167 N   0  0  0  0  0  0  0  0  0  0  0  0
   28.2087  -25.7296  -17.4035 C   0  0  0  0  0  0  0  0  0  0  0  0
   28.0670  -25.4874  -18.6074 O   0  0  0  0  0  0  0  0  0  0  0  0
   27.9047  -24.7501  -16.3589 C   0  0  0  0  0  0  0  0  0  0  0  0
   28.4095  -23.3604  -16.5917 C   0  0  2  0  0  0  0  0  0  0  0  0
   29.8685  -23.4131  -16.5304 N   0  0  0  0  0  0  0  0  0  0  0  0
   27.9637  -22.3649  -15.5981 C   0  0  0  0  0  0  0  0  0  0  0  0
   28.4604  -22.2903  -14.4169 O   0  0  0  0  0  0  0  0  0  0  0  0
   26.9402  -21.4433  -15.9542 N   0  0  0  0  0  0  0  0  0  0  0  0
   26.1946  -20.7083  -14.9615 C   0  0  1  0  0  0  0  0  0  0  0  0
   26.7430  -19.2840  -14.8137 C   0  0  0  0  0  0  0  0  0  0  0  0
   26.7863  -18.4934  -16.4603 S   0  0  0  0  0  0  0  0  0  0  0  0
   24.7489  -20.6961  -15.2202 C   0  0  0  0  0  0  0  0  0  0  0  0
   24.2750  -20.6544  -16.3858 O   0  0  0  0  0  0  0  0  0  0  0  0
   23.8250  -20.7318  -14.1435 N   0  0  0  0  0  0  0  0  0  0  0  0
   22.3945  -20.7614  -14.4031 C   0  0  1  0  0  0  0  0  0  0  0  0
   21.9409  -22.1911  -14.5728 C   0  0  0  0  0  0  0  0  0  0  0  0
   21.0232  -22.3213  -15.7225 C   0  0  0  0  0  0  0  0  0  0  0  0
   20.7035  -21.3539  -16.4230 O   0  0  0  0  0  0  0  0  0  0  0  0
   21.7553  -20.1053  -13.2389 C   0  0  0  0  0  0  0  0  0  0  0  0
   20.3773  -19.9126  -13.2601 O   0  0  0  0  0  0  0  0  0  0  0  0
   20.5078  -23.5727  -16.0197 O   0  0  0  0  0  0  0  0  0  0  0  0
   22.4170  -19.7090  -12.2180 O   0  0  0  0  0  0  0  0  0  0  0  0
  1  2  1  0
  2  4  1  0
  3  2  2  0
  4  5  1  0
  5  6  1  1
  5  7  1  0
  7  9  1  0
  7  8  2  0
  9 10  1  0
 10 13  1  0
 10 11  1  6
 11 12  1  0
 13 14  2  0
 15 13  1  0
 15 16  1  0
 16 20  1  0
 17 18  1  0
 16 17  1  1
 18 19  2  0
 20 21  1  0
 22 18  1  0
 23 20  2  0
M  END
$$$$
