NCD.pdb
     RDKit          3D

 23 22  0  0  1  0  0  0  0  0999 V2000
   17.5854  -12.2101  -13.0909 N   0  0  0  0  0  0  0  0  0  0  0  0
   17.6482  -10.9094  -13.6604 C   0  0  0  0  0  0  0  0  0  0  0  0
   18.3874  -10.7224  -14.6334 O   0  0  0  0  0  0  0  0  0  0  0  0
   16.8342   -9.8455  -13.0700 C   0  0  0  0  0  0  0  0  0  0  0  0
   16.0138  -10.2279  -11.8780 C   0  0  2  0  0  0  0  0  0  0  0  0
   14.9677  -11.1353  -12.3444 N   0  0  0  0  0  0  0  0  0  0  0  0
   15.3468   -9.1012  -11.1978 C   0  0  0  0  0  0  0  0  0  0  0  0
   14.3003   -8.5258  -11.6681 O   0  0  0  0  0  0  0  0  0  0  0  0
   15.8781   -8.6242   -9.9674 N   0  0  0  0  0  0  0  0  0  0  0  0
   15.3402   -7.4627   -9.3018 C   0  0  1  0  0  0  0  0  0  0  0  0
   15.3066   -7.6728   -7.7832 C   0  0  0  0  0  0  0  0  0  0  0  0
   14.5331   -6.2136   -7.0017 S   0  0  0  0  0  0  0  0  0  0  0  0
   16.0445   -6.2220   -9.6505 C   0  0  0  0  0  0  0  0  0  0  0  0
   17.2841   -6.0823   -9.4805 O   0  0  0  0  0  0  0  0  0  0  0  0
   15.3355   -5.1223  -10.2003 N   0  0  0  0  0  0  0  0  0  0  0  0
   16.0412   -3.9090  -10.5807 C   0  0  1  0  0  0  0  0  0  0  0  0
   15.8000   -3.6211  -12.0427 C   0  0  0  0  0  0  0  0  0  0  0  0
   16.4329   -2.3480  -12.4419 C   0  0  0  0  0  0  0  0  0  0  0  0
   15.8531   -1.2615  -12.3329 O   0  0  0  0  0  0  0  0  0  0  0  0
   15.5124   -2.8383   -9.7043 C   0  0  0  0  0  0  0  0  0  0  0  0
   14.5173   -3.1628   -8.7871 O   0  0  0  0  0  0  0  0  0  0  0  0
   17.7197   -2.3807  -12.9547 O   0  0  0  0  0  0  0  0  0  0  0  0
   15.9314   -1.6305   -9.7567 O   0  0  0  0  0  0  0  0  0  0  0  0
  1  2  1  0
  2  4  1  0
  3  2  2  0
  4  5  1  0
  5  6  1  6
  5  7  1  0
  7  9  1  0
  7  8  2  0
  9 10  1  0
 10 13  1  0
 10 11  1  1
 11 12  1  0
 13 14  2  0
 15 13  1  0
 15 16  1  0
 16 20  1  0
 17 18  1  0
 16 17  1  6
 18 19  2  0
 20 21  1  0
 22 18  1  0
 23 20  2  0
M  END
$$$$
