NCD.pdb
     RDKit          3D

 23 22  0  0  1  0  0  0  0  0999 V2000
   15.9008  -10.5628  -18.2640 N   0  0  0  0  0  0  0  0  0  0  0  0
   15.0815  -10.6448  -17.1055 C   0  0  0  0  0  0  0  0  0  0  0  0
   13.8550  -10.7040  -17.2488 O   0  0  0  0  0  0  0  0  0  0  0  0
   15.7251  -10.6556  -15.7908 C   0  0  0  0  0  0  0  0  0  0  0  0
   17.2214  -10.6197  -15.7893 C   0  0  2  0  0  0  0  0  0  0  0  0
   17.6884  -11.9918  -15.9750 N   0  0  0  0  0  0  0  0  0  0  0  0
   17.8277  -10.1142  -14.5427 C   0  0  0  0  0  0  0  0  0  0  0  0
   17.7941  -10.7672  -13.4382 O   0  0  0  0  0  0  0  0  0  0  0  0
   18.4800   -8.8501  -14.5544 N   0  0  0  0  0  0  0  0  0  0  0  0
   19.0368   -8.2664  -13.3581 C   0  0  1  0  0  0  0  0  0  0  0  0
   20.4605   -7.7571  -13.6133 C   0  0  0  0  0  0  0  0  0  0  0  0
   21.5702   -9.1914  -13.8361 S   0  0  0  0  0  0  0  0  0  0  0  0
   18.1906   -7.2117  -12.7849 C   0  0  0  0  0  0  0  0  0  0  0  0
   17.5511   -6.3989  -13.5026 O   0  0  0  0  0  0  0  0  0  0  0  0
   18.0658   -7.0747  -11.3778 N   0  0  0  0  0  0  0  0  0  0  0  0
   17.2297   -6.0277  -10.8126 C   0  0  1  0  0  0  0  0  0  0  0  0
   16.9551   -6.3294   -9.3592 C   0  0  0  0  0  0  0  0  0  0  0  0
   16.1345   -5.2663   -8.7450 C   0  0  0  0  0  0  0  0  0  0  0  0
   15.6436   -4.3463   -9.4092 O   0  0  0  0  0  0  0  0  0  0  0  0
   17.9828   -4.7646  -10.9899 C   0  0  0  0  0  0  0  0  0  0  0  0
   19.3320   -4.8379  -11.3229 O   0  0  0  0  0  0  0  0  0  0  0  0
   15.9117   -5.3087   -7.3780 O   0  0  0  0  0  0  0  0  0  0  0  0
   17.4450   -3.6121  -10.8489 O   0  0  0  0  0  0  0  0  0  0  0  0
  1  2  1  0
  2  4  1  0
  3  2  2  0
  4  5  1  0
  5  6  1  1
  5  7  1  0
  7  9  1  0
  7  8  2  0
  9 10  1  0
 10 13  1  0
 10 11  1  6
 11 12  1  0
 13 14  2  0
 15 13  1  0
 15 16  1  0
 16 20  1  0
 17 18  1  0
 16 17  1  1
 18 19  2  0
 20 21  1  0
 22 18  1  0
 23 20  2  0
M  END
$$$$
