NCD.pdb
     RDKit          3D

 23 22  0  0  1  0  0  0  0  0999 V2000
   14.7820  -11.0312  -12.0656 N   0  0  0  0  0  0  0  0  0  0  0  0
   14.5822   -9.6514  -11.7892 C   0  0  0  0  0  0  0  0  0  0  0  0
   13.4297   -9.2437  -11.6054 O   0  0  0  0  0  0  0  0  0  0  0  0
   15.7504   -8.7710  -11.7339 C   0  0  0  0  0  0  0  0  0  0  0  0
   17.0847   -9.4482  -11.6945 C   0  0  2  0  0  0  0  0  0  0  0  0
   17.2360  -10.0311  -10.3632 N   0  0  0  0  0  0  0  0  0  0  0  0
   18.2388   -8.5563  -11.9174 C   0  0  0  0  0  0  0  0  0  0  0  0
   18.4670   -7.5203  -11.1949 O   0  0  0  0  0  0  0  0  0  0  0  0
   19.1436   -8.8481  -12.9756 N   0  0  0  0  0  0  0  0  0  0  0  0
   20.3081   -8.0355  -13.2312 C   0  0  1  0  0  0  0  0  0  0  0  0
   21.3792   -8.8397  -13.9777 C   0  0  0  0  0  0  0  0  0  0  0  0
   22.3829   -9.7603  -12.7598 S   0  0  0  0  0  0  0  0  0  0  0  0
   19.9944   -6.7863  -13.9369 C   0  0  0  0  0  0  0  0  0  0  0  0
   18.9258   -6.6299  -14.5838 O   0  0  0  0  0  0  0  0  0  0  0  0
   20.9037   -5.6970  -13.9101 N   0  0  0  0  0  0  0  0  0  0  0  0
   20.5711   -4.4455  -14.5719 C   0  0  1  0  0  0  0  0  0  0  0  0
   19.2909   -3.8926  -13.9940 C   0  0  0  0  0  0  0  0  0  0  0  0
   19.0256   -2.5321  -14.5034 C   0  0  0  0  0  0  0  0  0  0  0  0
   19.5972   -2.0795  -15.5019 O   0  0  0  0  0  0  0  0  0  0  0  0
   21.7242   -3.5444  -14.3428 C   0  0  0  0  0  0  0  0  0  0  0  0
   22.5452   -3.7838  -13.2450 O   0  0  0  0  0  0  0  0  0  0  0  0
   18.1038   -1.7429  -13.8344 O   0  0  0  0  0  0  0  0  0  0  0  0
   21.9947   -2.5571  -15.1105 O   0  0  0  0  0  0  0  0  0  0  0  0
  1  2  1  0
  2  4  1  0
  3  2  2  0
  4  5  1  0
  5  6  1  1
  5  7  1  0
  7  9  1  0
  7  8  2  0
  9 10  1  0
 10 13  1  0
 10 11  1  6
 11 12  1  0
 13 14  2  0
 15 13  1  0
 15 16  1  0
 16 20  1  0
 17 18  1  0
 16 17  1  1
 18 19  2  0
 20 21  1  0
 22 18  1  0
 23 20  2  0
M  END
$$$$
