WWS.pdb
     RDKit          3D

 35 38  0  0  1  0  0  0  0  0999 V2000
   29.1704  -21.0531  -13.1375 N   0  0  0  0  0  0  0  0  0  0  0  0
   27.9132  -20.4758  -12.7965 C   0  0  1  0  0  0  0  0  0  0  0  0
   27.0042  -20.4346  -13.9993 C   0  0  0  0  0  0  0  0  0  0  0  0
   27.5448  -19.4269  -14.9536 C   0  0  0  0  0  0  0  0  0  0  0  0
   28.3010  -19.7248  -16.0995 C   0  0  0  0  0  0  0  0  0  0  0  0
   28.5859  -18.6000  -16.7519 N   0  0  0  0  0  0  0  0  0  0  0  0
   28.0462  -17.5654  -16.0789 C   0  0  0  0  0  0  0  0  0  0  0  0
   28.0522  -16.1999  -16.3167 C   0  0  0  0  0  0  0  0  0  0  0  0
   27.4140  -15.3850  -15.4309 C   0  0  0  0  0  0  0  0  0  0  0  0
   26.7648  -15.8557  -14.3120 C   0  0  0  0  0  0  0  0  0  0  0  0
   26.7589  -17.2069  -14.0783 C   0  0  0  0  0  0  0  0  0  0  0  0
   27.3907  -18.0736  -14.9476 C   0  0  0  0  0  0  0  0  0  0  0  0
   27.2950  -21.0636  -11.5962 C   0  0  0  0  0  0  0  0  0  0  0  0
   27.4174  -22.3005  -11.3777 O   0  0  0  0  0  0  0  0  0  0  0  0
   26.5769  -20.2254  -10.7107 N   0  0  0  0  0  0  0  0  0  0  0  0
   25.4600  -20.6936   -9.9385 C   0  0  1  0  0  0  0  0  0  0  0  0
   25.2969  -19.8533   -8.6898 C   0  0  0  0  0  0  0  0  0  0  0  0
   26.5800  -19.6526   -7.9858 C   0  0  0  0  0  0  0  0  0  0  0  0
   27.5542  -18.7215   -8.3699 C   0  0  0  0  0  0  0  0  0  0  0  0
   28.5687  -18.7776   -7.5076 N   0  0  0  0  0  0  0  0  0  0  0  0
   28.3369  -19.6870   -6.5706 C   0  0  0  0  0  0  0  0  0  0  0  0
   29.0681  -20.1154   -5.4836 C   0  0  0  0  0  0  0  0  0  0  0  0
   28.5961  -21.1102   -4.6431 C   0  0  0  0  0  0  0  0  0  0  0  0
   27.3686  -21.6510   -4.9409 C   0  0  0  0  0  0  0  0  0  0  0  0
   26.6343  -21.2179   -6.0360 C   0  0  0  0  0  0  0  0  0  0  0  0
   27.0974  -20.2407   -6.8593 C   0  0  0  0  0  0  0  0  0  0  0  0
   24.2211  -20.7008  -10.7487 C   0  0  0  0  0  0  0  0  0  0  0  0
   23.9941  -19.8641  -11.6573 O   0  0  0  0  0  0  0  0  0  0  0  0
   20.9319  -23.2768   -9.8452 O   0  0  0  0  0  0  0  0  0  0  0  0
   21.2473  -23.0098  -11.1769 C   0  0  0  0  0  0  0  0  0  0  0  0
   21.9898  -21.6924  -11.3121 C   0  0  2  0  0  0  0  0  0  0  0  0
   23.2034  -21.6907  -10.5221 N   0  0  0  0  0  0  0  0  0  0  0  0
   21.1356  -20.5577  -10.9421 C   0  0  0  0  0  0  0  0  0  0  0  0
   19.9387  -20.3538  -11.6113 O   0  0  0  0  0  0  0  0  0  0  0  0
   21.4276  -19.7388  -10.0344 O   0  0  0  0  0  0  0  0  0  0  0  0
  2  1  1  6
  3  2  1  0
  4  3  1  0
  5  4  2  0
  6  5  1  0
  7  6  1  0
  7 12  2  0
  8  7  1  0
  9  8  2  0
  9 10  1  0
 10 11  2  0
 11 12  1  0
 12  4  1  0
 13  2  1  0
 14 13  2  0
 15 13  1  0
 16 15  1  0
 16 27  1  0
 16 17  1  1
 18 17  1  0
 19 18  2  0
 20 19  1  0
 21 20  1  0
 21 26  2  0
 22 23  2  0
 22 21  1  0
 23 24  1  0
 24 25  2  0
 26 25  1  0
 26 18  1  0
 27 28  2  0
 30 29  1  0
 31 30  1  1
 32 27  1  0
 32 31  1  0
 33 34  1  0
 33 31  1  0
 35 33  2  0
M  END
$$$$
