WWS.pdb
     RDKit          3D

 35 38  0  0  1  0  0  0  0  0999 V2000
   22.1954  -19.3466  -11.4045 N   0  0  0  0  0  0  0  0  0  0  0  0
   23.0980  -20.3942  -11.7482 C   0  0  1  0  0  0  0  0  0  0  0  0
   22.7297  -20.9964  -13.0811 C   0  0  0  0  0  0  0  0  0  0  0  0
   21.2981  -21.4033  -13.0253 C   0  0  0  0  0  0  0  0  0  0  0  0
   20.2341  -20.6938  -13.6070 C   0  0  0  0  0  0  0  0  0  0  0  0
   19.0954  -21.3541  -13.4088 N   0  0  0  0  0  0  0  0  0  0  0  0
   19.3657  -22.4767  -12.7150 C   0  0  0  0  0  0  0  0  0  0  0  0
   18.5518  -23.4965  -12.2471 C   0  0  0  0  0  0  0  0  0  0  0  0
   19.1270  -24.5174  -11.5523 C   0  0  0  0  0  0  0  0  0  0  0  0
   20.4776  -24.5818  -11.2940 C   0  0  0  0  0  0  0  0  0  0  0  0
   21.2817  -23.5726  -11.7581 C   0  0  0  0  0  0  0  0  0  0  0  0
   20.7461  -22.5170  -12.4685 C   0  0  0  0  0  0  0  0  0  0  0  0
   24.5171  -20.0189  -11.6300 C   0  0  0  0  0  0  0  0  0  0  0  0
   24.9142  -18.9293  -12.1275 O   0  0  0  0  0  0  0  0  0  0  0  0
   25.4061  -20.8904  -10.9573 N   0  0  0  0  0  0  0  0  0  0  0  0
   26.8335  -20.7717  -11.0646 C   0  0  1  0  0  0  0  0  0  0  0  0
   27.5013  -21.3464   -9.8335 C   0  0  0  0  0  0  0  0  0  0  0  0
   27.2243  -20.5413   -8.6263 C   0  0  0  0  0  0  0  0  0  0  0  0
   26.3061  -19.4841   -8.5758 C   0  0  0  0  0  0  0  0  0  0  0  0
   26.2785  -18.9951   -7.3364 N   0  0  0  0  0  0  0  0  0  0  0  0
   27.1198  -19.6566   -6.5533 C   0  0  0  0  0  0  0  0  0  0  0  0
   27.4521  -19.5301   -5.2217 C   0  0  0  0  0  0  0  0  0  0  0  0
   28.3904  -20.3597   -4.6300 C   0  0  0  0  0  0  0  0  0  0  0  0
   28.9751  -21.3129   -5.4285 C   0  0  0  0  0  0  0  0  0  0  0  0
   28.6388  -21.4383   -6.7690 C   0  0  0  0  0  0  0  0  0  0  0  0
   27.7170  -20.6249   -7.3484 C   0  0  0  0  0  0  0  0  0  0  0  0
   27.3283  -21.4218  -12.2990 C   0  0  0  0  0  0  0  0  0  0  0  0
   27.5309  -22.6582  -12.3859 O   0  0  0  0  0  0  0  0  0  0  0  0
   28.0863  -19.0913  -15.6790 O   0  0  0  0  0  0  0  0  0  0  0  0
   27.5614  -20.3625  -15.9085 C   0  0  0  0  0  0  0  0  0  0  0  0
   27.8522  -21.2950  -14.7463 C   0  0  2  0  0  0  0  0  0  0  0  0
   27.6032  -20.6444  -13.4767 N   0  0  0  0  0  0  0  0  0  0  0  0
   29.2279  -21.8032  -14.8007 C   0  0  0  0  0  0  0  0  0  0  0  0
   30.0788  -21.5944  -13.7262 O   0  0  0  0  0  0  0  0  0  0  0  0
   29.6953  -22.4314  -15.7839 O   0  0  0  0  0  0  0  0  0  0  0  0
  2  1  1  6
  3  2  1  0
  4  3  1  0
  5  4  2  0
  6  5  1  0
  7  6  1  0
  7 12  2  0
  8  7  1  0
  9  8  2  0
  9 10  1  0
 10 11  2  0
 11 12  1  0
 12  4  1  0
 13  2  1  0
 14 13  2  0
 15 13  1  0
 16 15  1  0
 16 27  1  0
 16 17  1  1
 18 17  1  0
 19 18  2  0
 20 19  1  0
 21 20  1  0
 21 26  2  0
 22 23  2  0
 22 21  1  0
 23 24  1  0
 24 25  2  0
 26 25  1  0
 26 18  1  0
 27 28  2  0
 30 29  1  0
 31 30  1  6
 32 27  1  0
 32 31  1  0
 33 34  1  0
 33 31  1  0
 35 33  2  0
M  END
$$$$
