WWS.pdb
     RDKit          3D

 35 38  0  0  1  0  0  0  0  0999 V2000
   15.9564  -18.7908    2.4424 N   0  0  0  0  0  0  0  0  0  0  0  0
   16.4857  -19.3404    3.6457 C   0  0  1  0  0  0  0  0  0  0  0  0
   17.0107  -20.7340    3.4069 C   0  0  0  0  0  0  0  0  0  0  0  0
   15.8853  -21.5736    2.9099 C   0  0  0  0  0  0  0  0  0  0  0  0
   14.7773  -21.0947    2.1912 C   0  0  0  0  0  0  0  0  0  0  0  0
   13.9839  -22.1120    1.8628 N   0  0  0  0  0  0  0  0  0  0  0  0
   14.5258  -23.2495    2.3392 C   0  0  0  0  0  0  0  0  0  0  0  0
   14.1083  -24.5701    2.2835 C   0  0  0  0  0  0  0  0  0  0  0  0
   14.8811  -25.5198    2.8809 C   0  0  0  0  0  0  0  0  0  0  0  0
   16.0556  -25.2276    3.5366 C   0  0  0  0  0  0  0  0  0  0  0  0
   16.4679  -23.9209    3.5904 C   0  0  0  0  0  0  0  0  0  0  0  0
   15.7198  -22.9226    2.9990 C   0  0  0  0  0  0  0  0  0  0  0  0
   17.4339  -18.4518    4.3385 C   0  0  0  0  0  0  0  0  0  0  0  0
   18.4784  -18.0721    3.7407 O   0  0  0  0  0  0  0  0  0  0  0  0
   17.1506  -18.0406    5.6625 N   0  0  0  0  0  0  0  0  0  0  0  0
   17.9885  -17.1228    6.3825 C   0  0  1  0  0  0  0  0  0  0  0  0
   17.2137  -15.8702    6.7332 C   0  0  0  0  0  0  0  0  0  0  0  0
   18.0365  -14.6518    6.5903 C   0  0  0  0  0  0  0  0  0  0  0  0
   18.7450  -14.0500    7.6388 C   0  0  0  0  0  0  0  0  0  0  0  0
   19.4026  -12.9925    7.1644 N   0  0  0  0  0  0  0  0  0  0  0  0
   19.1798  -12.8468    5.8653 C   0  0  0  0  0  0  0  0  0  0  0  0
   19.6166  -11.9228    4.9405 C   0  0  0  0  0  0  0  0  0  0  0  0
   19.2223  -11.9873    3.6142 C   0  0  0  0  0  0  0  0  0  0  0  0
   18.3769  -13.0115    3.2616 C   0  0  0  0  0  0  0  0  0  0  0  0
   17.9386  -13.9406    4.1946 C   0  0  0  0  0  0  0  0  0  0  0  0
   18.3271  -13.8776    5.4954 C   0  0  0  0  0  0  0  0  0  0  0  0
   18.5575  -17.7605    7.5911 C   0  0  0  0  0  0  0  0  0  0  0  0
   17.9124  -18.5668    8.3060 O   0  0  0  0  0  0  0  0  0  0  0  0
   22.5366  -19.0846    8.5261 O   0  0  0  0  0  0  0  0  0  0  0  0
   21.9697  -18.0081    9.2072 C   0  0  0  0  0  0  0  0  0  0  0  0
   20.4537  -18.0881    9.1963 C   0  0  2  0  0  0  0  0  0  0  0  0
   19.9045  -17.4753    8.0047 N   0  0  0  0  0  0  0  0  0  0  0  0
   19.8780  -17.4755   10.3994 C   0  0  0  0  0  0  0  0  0  0  0  0
   20.1132  -18.0483   11.6398 O   0  0  0  0  0  0  0  0  0  0  0  0
   19.1678  -16.4388   10.3760 O   0  0  0  0  0  0  0  0  0  0  0  0
  2  1  1  6
  3  2  1  0
  4  3  1  0
  5  4  2  0
  6  5  1  0
  7  6  1  0
  7 12  2  0
  8  7  1  0
  9  8  2  0
  9 10  1  0
 10 11  2  0
 11 12  1  0
 12  4  1  0
 13  2  1  0
 14 13  2  0
 15 13  1  0
 16 15  1  0
 16 27  1  0
 16 17  1  1
 18 17  1  0
 19 18  2  0
 20 19  1  0
 21 20  1  0
 21 26  2  0
 22 23  2  0
 22 21  1  0
 23 24  1  0
 24 25  2  0
 26 25  1  0
 26 18  1  0
 27 28  2  0
 30 29  1  0
 31 30  1  1
 32 27  1  0
 32 31  1  0
 33 34  1  0
 33 31  1  0
 35 33  2  0
M  END
$$$$
