WWS.pdb
     RDKit          3D

 35 38  0  0  1  0  0  0  0  0999 V2000
   24.3025  -20.5329  -14.9761 N   0  0  0  0  0  0  0  0  0  0  0  0
   24.7421  -21.8380  -14.6105 C   0  0  1  0  0  0  0  0  0  0  0  0
   23.7260  -22.5110  -13.7220 C   0  0  0  0  0  0  0  0  0  0  0  0
   23.6267  -21.7293  -12.4580 C   0  0  0  0  0  0  0  0  0  0  0  0
   22.4758  -21.0582  -12.0124 C   0  0  0  0  0  0  0  0  0  0  0  0
   22.7150  -20.4986  -10.8285 N   0  0  0  0  0  0  0  0  0  0  0  0
   23.9847  -20.7739  -10.4727 C   0  0  0  0  0  0  0  0  0  0  0  0
   24.7306  -20.4296   -9.3562 C   0  0  0  0  0  0  0  0  0  0  0  0
   26.0222  -20.8566   -9.2828 C   0  0  0  0  0  0  0  0  0  0  0  0
   26.6191  -21.6131  -10.2659 C   0  0  0  0  0  0  0  0  0  0  0  0
   25.8800  -21.9536  -11.3696 C   0  0  0  0  0  0  0  0  0  0  0  0
   24.5665  -21.5457  -11.4894 C   0  0  0  0  0  0  0  0  0  0  0  0
   25.1798  -22.6594  -15.7517 C   0  0  0  0  0  0  0  0  0  0  0  0
   24.6346  -22.4972  -16.8782 O   0  0  0  0  0  0  0  0  0  0  0  0
   26.2067  -23.6138  -15.5594 N   0  0  0  0  0  0  0  0  0  0  0  0
   26.6431  -24.4998  -16.6023 C   0  0  1  0  0  0  0  0  0  0  0  0
   28.0071  -25.0673  -16.2713 C   0  0  0  0  0  0  0  0  0  0  0  0
   28.4728  -26.0236  -17.2963 C   0  0  0  0  0  0  0  0  0  0  0  0
   28.8824  -25.6612  -18.5863 C   0  0  0  0  0  0  0  0  0  0  0  0
   29.2669  -26.7565  -19.2409 N   0  0  0  0  0  0  0  0  0  0  0  0
   29.1407  -27.8297  -18.4722 C   0  0  0  0  0  0  0  0  0  0  0  0
   29.3946  -29.1674  -18.6867 C   0  0  0  0  0  0  0  0  0  0  0  0
   29.1648  -30.1127  -17.7006 C   0  0  0  0  0  0  0  0  0  0  0  0
   28.6725  -29.6588  -16.5008 C   0  0  0  0  0  0  0  0  0  0  0  0
   28.4177  -28.3114  -16.2873 C   0  0  0  0  0  0  0  0  0  0  0  0
   28.6448  -27.3843  -17.2548 C   0  0  0  0  0  0  0  0  0  0  0  0
   25.6532  -25.5760  -16.8325 C   0  0  0  0  0  0  0  0  0  0  0  0
   25.0520  -26.1624  -15.8987 O   0  0  0  0  0  0  0  0  0  0  0  0
   23.7509  -25.7776  -20.3485 O   0  0  0  0  0  0  0  0  0  0  0  0
   23.2405  -26.5581  -19.3119 C   0  0  0  0  0  0  0  0  0  0  0  0
   24.3471  -27.0403  -18.3912 C   0  0  2  0  0  0  0  0  0  0  0  0
   25.3326  -26.0031  -18.1673 N   0  0  0  0  0  0  0  0  0  0  0  0
   24.9882  -28.2519  -18.9158 C   0  0  0  0  0  0  0  0  0  0  0  0
   26.2494  -28.1682  -19.4856 O   0  0  0  0  0  0  0  0  0  0  0  0
   24.4533  -29.3887  -18.8804 O   0  0  0  0  0  0  0  0  0  0  0  0
  2  1  1  6
  3  2  1  0
  4  3  1  0
  5  4  2  0
  6  5  1  0
  7  6  1  0
  7 12  2  0
  8  7  1  0
  9  8  2  0
  9 10  1  0
 10 11  2  0
 11 12  1  0
 12  4  1  0
 13  2  1  0
 14 13  2  0
 15 13  1  0
 16 15  1  0
 16 27  1  0
 16 17  1  1
 18 17  1  0
 19 18  2  0
 20 19  1  0
 21 20  1  0
 21 26  2  0
 22 23  2  0
 22 21  1  0
 23 24  1  0
 24 25  2  0
 26 25  1  0
 26 18  1  0
 27 28  2  0
 30 29  1  0
 31 30  1  6
 32 27  1  0
 32 31  1  0
 33 34  1  0
 33 31  1  0
 35 33  2  0
M  END
$$$$
