WWS.pdb
     RDKit          3D

 35 38  0  0  1  0  0  0  0  0999 V2000
   25.2859  -20.9534  -14.4272 N   0  0  0  0  0  0  0  0  0  0  0  0
   24.7671  -20.3154  -13.2636 C   0  0  1  0  0  0  0  0  0  0  0  0
   23.2658  -20.1980  -13.3472 C   0  0  0  0  0  0  0  0  0  0  0  0
   22.9261  -19.5036  -14.6203 C   0  0  0  0  0  0  0  0  0  0  0  0
   22.3570  -20.1184  -15.7480 C   0  0  0  0  0  0  0  0  0  0  0  0
   22.1418  -19.2063  -16.6934 N   0  0  0  0  0  0  0  0  0  0  0  0
   22.5489  -18.0074  -16.2333 C   0  0  0  0  0  0  0  0  0  0  0  0
   22.5560  -16.7466  -16.8092 C   0  0  0  0  0  0  0  0  0  0  0  0
   23.0516  -15.7056  -16.0836 C   0  0  0  0  0  0  0  0  0  0  0  0
   23.5452  -15.8491  -14.8065 C   0  0  0  0  0  0  0  0  0  0  0  0
   23.5369  -17.0967  -14.2377 C   0  0  0  0  0  0  0  0  0  0  0  0
   23.0438  -18.1830  -14.9325 C   0  0  0  0  0  0  0  0  0  0  0  0
   25.2550  -20.8944  -12.0005 C   0  0  0  0  0  0  0  0  0  0  0  0
   25.2431  -22.1470  -11.8468 O   0  0  0  0  0  0  0  0  0  0  0  0
   25.7296  -20.0308  -10.9850 N   0  0  0  0  0  0  0  0  0  0  0  0
   26.1993  -20.5143   -9.7168 C   0  0  1  0  0  0  0  0  0  0  0  0
   27.0711  -19.4723   -9.0487 C   0  0  0  0  0  0  0  0  0  0  0  0
   27.8178  -20.0276   -7.9015 C   0  0  0  0  0  0  0  0  0  0  0  0
   28.4624  -21.2718   -7.9066 C   0  0  0  0  0  0  0  0  0  0  0  0
   29.0622  -21.4520   -6.7303 N   0  0  0  0  0  0  0  0  0  0  0  0
   28.8604  -20.4085   -5.9371 C   0  0  0  0  0  0  0  0  0  0  0  0
   29.2586  -20.1237   -4.6487 C   0  0  0  0  0  0  0  0  0  0  0  0
   28.8998  -18.9387   -4.0277 C   0  0  0  0  0  0  0  0  0  0  0  0
   28.1295  -18.0609   -4.7516 C   0  0  0  0  0  0  0  0  0  0  0  0
   27.7299  -18.3499   -6.0488 C   0  0  0  0  0  0  0  0  0  0  0  0
   28.0836  -19.5121   -6.6580 C   0  0  0  0  0  0  0  0  0  0  0  0
   25.0678  -20.9079   -8.8473 C   0  0  0  0  0  0  0  0  0  0  0  0
   24.0288  -20.2137   -8.7222 O   0  0  0  0  0  0  0  0  0  0  0  0
   23.1634  -24.2569   -5.8197 O   0  0  0  0  0  0  0  0  0  0  0  0
   24.2695  -23.8445   -6.5619 C   0  0  0  0  0  0  0  0  0  0  0  0
   24.0171  -22.5019   -7.2241 C   0  0  2  0  0  0  0  0  0  0  0  0
   25.1145  -22.1310   -8.0931 N   0  0  0  0  0  0  0  0  0  0  0  0
   23.7750  -21.4520   -6.2276 C   0  0  0  0  0  0  0  0  0  0  0  0
   22.4826  -21.2078   -5.7892 O   0  0  0  0  0  0  0  0  0  0  0  0
   24.6876  -20.7427   -5.7339 O   0  0  0  0  0  0  0  0  0  0  0  0
  2  1  1  6
  3  2  1  0
  4  3  1  0
  5  4  2  0
  6  5  1  0
  7  6  1  0
  7 12  2  0
  8  7  1  0
  9  8  2  0
  9 10  1  0
 10 11  2  0
 11 12  1  0
 12  4  1  0
 13  2  1  0
 14 13  2  0
 15 13  1  0
 16 15  1  0
 16 27  1  0
 16 17  1  1
 18 17  1  0
 19 18  2  0
 20 19  1  0
 21 20  1  0
 21 26  2  0
 22 23  2  0
 22 21  1  0
 23 24  1  0
 24 25  2  0
 26 25  1  0
 26 18  1  0
 27 28  2  0
 30 29  1  0
 31 30  1  1
 32 27  1  0
 32 31  1  0
 33 34  1  0
 33 31  1  0
 35 33  2  0
M  END
$$$$
