WWS.pdb
     RDKit          3D

 35 38  0  0  1  0  0  0  0  0999 V2000
   27.3571  -20.2147  -11.5210 N   0  0  0  0  0  0  0  0  0  0  0  0
   26.1879  -21.0265  -11.5842 C   0  0  1  0  0  0  0  0  0  0  0  0
   25.6341  -21.2685  -10.2023 C   0  0  0  0  0  0  0  0  0  0  0  0
   26.5510  -20.6291   -9.2180 C   0  0  0  0  0  0  0  0  0  0  0  0
   26.1602  -19.7108   -8.2293 C   0  0  0  0  0  0  0  0  0  0  0  0
   27.2158  -19.3705   -7.4931 N   0  0  0  0  0  0  0  0  0  0  0  0
   28.2941  -20.0299   -7.9589 C   0  0  0  0  0  0  0  0  0  0  0  0
   29.6228  -20.0311   -7.5640 C   0  0  0  0  0  0  0  0  0  0  0  0
   30.5026  -20.8115   -8.2516 C   0  0  0  0  0  0  0  0  0  0  0  0
   30.1323  -21.5974   -9.3194 C   0  0  0  0  0  0  0  0  0  0  0  0
   28.8174  -21.5960   -9.7087 C   0  0  0  0  0  0  0  0  0  0  0  0
   27.8878  -20.8227   -9.0425 C   0  0  0  0  0  0  0  0  0  0  0  0
   25.1886  -20.5550  -12.5577 C   0  0  0  0  0  0  0  0  0  0  0  0
   24.3129  -19.7223  -12.1940 O   0  0  0  0  0  0  0  0  0  0  0  0
   25.2341  -21.0462  -13.8840 N   0  0  0  0  0  0  0  0  0  0  0  0
   24.3298  -20.5974  -14.9056 C   0  0  1  0  0  0  0  0  0  0  0  0
   25.0973  -19.9425  -16.0344 C   0  0  0  0  0  0  0  0  0  0  0  0
   25.7989  -18.7204  -15.5913 C   0  0  0  0  0  0  0  0  0  0  0  0
   27.1010  -18.7009  -15.0741 C   0  0  0  0  0  0  0  0  0  0  0  0
   27.4389  -17.4408  -14.8026 N   0  0  0  0  0  0  0  0  0  0  0  0
   26.4464  -16.6146  -15.1043 C   0  0  0  0  0  0  0  0  0  0  0  0
   26.3058  -15.2472  -15.0030 C   0  0  0  0  0  0  0  0  0  0  0  0
   25.1364  -14.6116  -15.3869 C   0  0  0  0  0  0  0  0  0  0  0  0
   24.1237  -15.4035  -15.8719 C   0  0  0  0  0  0  0  0  0  0  0  0
   24.2677  -16.7801  -15.9730 C   0  0  0  0  0  0  0  0  0  0  0  0
   25.4159  -17.4029  -15.5975 C   0  0  0  0  0  0  0  0  0  0  0  0
   23.4921  -21.7133  -15.3999 C   0  0  0  0  0  0  0  0  0  0  0  0
   23.8379  -22.9175  -15.3130 O   0  0  0  0  0  0  0  0  0  0  0  0
   19.8421  -22.6085  -14.4115 O   0  0  0  0  0  0  0  0  0  0  0  0
   20.8895  -23.2727  -15.0488 C   0  0  0  0  0  0  0  0  0  0  0  0
   21.3123  -22.5463  -16.3131 C   0  0  2  0  0  0  0  0  0  0  0  0
   22.2179  -21.4565  -16.0140 N   0  0  0  0  0  0  0  0  0  0  0  0
   20.1491  -22.0555  -17.0613 C   0  0  0  0  0  0  0  0  0  0  0  0
   19.2430  -22.9611  -17.5914 O   0  0  0  0  0  0  0  0  0  0  0  0
   19.9162  -20.8359  -17.2569 O   0  0  0  0  0  0  0  0  0  0  0  0
  2  1  1  1
  3  2  1  0
  4  3  1  0
  5  4  2  0
  6  5  1  0
  7  6  1  0
  7 12  2  0
  8  7  1  0
  9  8  2  0
  9 10  1  0
 10 11  2  0
 11 12  1  0
 12  4  1  0
 13  2  1  0
 14 13  2  0
 15 13  1  0
 16 15  1  0
 16 27  1  0
 16 17  1  6
 18 17  1  0
 19 18  2  0
 20 19  1  0
 21 20  1  0
 21 26  2  0
 22 23  2  0
 22 21  1  0
 23 24  1  0
 24 25  2  0
 26 25  1  0
 26 18  1  0
 27 28  2  0
 30 29  1  0
 31 30  1  1
 32 27  1  0
 32 31  1  0
 33 34  1  0
 33 31  1  0
 35 33  2  0
M  END
$$$$
