WWS.pdb
     RDKit          3D

 35 38  0  0  1  0  0  0  0  0999 V2000
   28.2093  -20.4351   -9.5935 N   0  0  0  0  0  0  0  0  0  0  0  0
   26.7936  -20.5624   -9.4947 C   0  0  1  0  0  0  0  0  0  0  0  0
   26.2790  -19.8370   -8.2765 C   0  0  0  0  0  0  0  0  0  0  0  0
   27.4225  -19.6273   -7.3455 C   0  0  0  0  0  0  0  0  0  0  0  0
   28.4425  -18.6774   -7.5211 C   0  0  0  0  0  0  0  0  0  0  0  0
   29.2795  -18.7240   -6.4870 N   0  0  0  0  0  0  0  0  0  0  0  0
   28.8515  -19.6723   -5.6313 C   0  0  0  0  0  0  0  0  0  0  0  0
   29.3542  -20.1250   -4.4215 C   0  0  0  0  0  0  0  0  0  0  0  0
   28.6920  -21.1272   -3.7789 C   0  0  0  0  0  0  0  0  0  0  0  0
   27.5482  -21.7099   -4.2762 C   0  0  0  0  0  0  0  0  0  0  0  0
   27.0515  -21.2606   -5.4728 C   0  0  0  0  0  0  0  0  0  0  0  0
   27.6864  -20.2462   -6.1612 C   0  0  0  0  0  0  0  0  0  0  0  0
   26.0785  -20.2299  -10.7384 C   0  0  0  0  0  0  0  0  0  0  0  0
   26.1710  -19.0650  -11.2149 O   0  0  0  0  0  0  0  0  0  0  0  0
   25.3028  -21.2280  -11.3745 N   0  0  0  0  0  0  0  0  0  0  0  0
   24.5849  -20.9876  -12.5951 C   0  0  1  0  0  0  0  0  0  0  0  0
   25.2541  -21.7065  -13.7472 C   0  0  0  0  0  0  0  0  0  0  0  0
   26.5078  -21.0437  -14.1605 C   0  0  0  0  0  0  0  0  0  0  0  0
   27.7858  -21.5898  -13.9820 C   0  0  0  0  0  0  0  0  0  0  0  0
   28.6884  -20.7517  -14.4908 N   0  0  0  0  0  0  0  0  0  0  0  0
   28.0971  -19.6787  -14.9984 C   0  0  0  0  0  0  0  0  0  0  0  0
   28.5852  -18.5481  -15.6174 C   0  0  0  0  0  0  0  0  0  0  0  0
   27.7387  -17.5446  -16.0592 C   0  0  0  0  0  0  0  0  0  0  0  0
   26.3923  -17.7255  -15.8527 C   0  0  0  0  0  0  0  0  0  0  0  0
   25.9033  -18.8648  -15.2292 C   0  0  0  0  0  0  0  0  0  0  0  0
   26.7344  -19.8496  -14.7974 C   0  0  0  0  0  0  0  0  0  0  0  0
   23.1655  -21.3862  -12.4627 C   0  0  0  0  0  0  0  0  0  0  0  0
   22.8045  -22.4528  -11.9065 O   0  0  0  0  0  0  0  0  0  0  0  0
   20.1319  -19.0597  -14.2179 O   0  0  0  0  0  0  0  0  0  0  0  0
   19.8063  -19.7431  -13.0469 C   0  0  0  0  0  0  0  0  0  0  0  0
   20.7290  -20.9287  -12.8281 C   0  0  2  0  0  0  0  0  0  0  0  0
   22.1179  -20.5473  -12.9781 N   0  0  0  0  0  0  0  0  0  0  0  0
   20.4006  -22.0353  -13.7345 C   0  0  0  0  0  0  0  0  0  0  0  0
   19.2219  -22.7426  -13.5540 O   0  0  0  0  0  0  0  0  0  0  0  0
   21.1383  -22.3913  -14.6879 O   0  0  0  0  0  0  0  0  0  0  0  0
  2  1  1  6
  3  2  1  0
  4  3  1  0
  5  4  2  0
  6  5  1  0
  7  6  1  0
  7 12  2  0
  8  7  1  0
  9  8  2  0
  9 10  1  0
 10 11  2  0
 11 12  1  0
 12  4  1  0
 13  2  1  0
 14 13  2  0
 15 13  1  0
 16 15  1  0
 16 27  1  0
 16 17  1  6
 18 17  1  0
 19 18  2  0
 20 19  1  0
 21 20  1  0
 21 26  2  0
 22 23  2  0
 22 21  1  0
 23 24  1  0
 24 25  2  0
 26 25  1  0
 26 18  1  0
 27 28  2  0
 30 29  1  0
 31 30  1  6
 32 27  1  0
 32 31  1  0
 33 34  1  0
 33 31  1  0
 35 33  2  0
M  END
$$$$
