WWS.pdb
     RDKit          3D

 35 38  0  0  1  0  0  0  0  0999 V2000
   28.4094  -20.2429  -15.7656 N   0  0  0  0  0  0  0  0  0  0  0  0
   27.3923  -19.8641  -14.8425 C   0  0  1  0  0  0  0  0  0  0  0  0
   26.5171  -18.7853  -15.4299 C   0  0  0  0  0  0  0  0  0  0  0  0
   27.3116  -17.5269  -15.4907 C   0  0  0  0  0  0  0  0  0  0  0  0
   27.1166  -16.4085  -14.6632 C   0  0  0  0  0  0  0  0  0  0  0  0
   28.0226  -15.4765  -14.9506 N   0  0  0  0  0  0  0  0  0  0  0  0
   28.8118  -15.9365  -15.9406 C   0  0  0  0  0  0  0  0  0  0  0  0
   29.8873  -15.3713  -16.6079 C   0  0  0  0  0  0  0  0  0  0  0  0
   30.4905  -16.0932  -17.5933 C   0  0  0  0  0  0  0  0  0  0  0  0
   30.0806  -17.3564  -17.9559 C   0  0  0  0  0  0  0  0  0  0  0  0
   29.0170  -17.9146  -17.2945 C   0  0  0  0  0  0  0  0  0  0  0  0
   28.3735  -17.2231  -16.2877 C   0  0  0  0  0  0  0  0  0  0  0  0
   26.6465  -21.0023  -14.2794 C   0  0  0  0  0  0  0  0  0  0  0  0
   26.1754  -21.8797  -15.0544 O   0  0  0  0  0  0  0  0  0  0  0  0
   26.4763  -21.0880  -12.8772 N   0  0  0  0  0  0  0  0  0  0  0  0
   25.5272  -21.9768  -12.2671 C   0  0  1  0  0  0  0  0  0  0  0  0
   25.9973  -22.3769  -10.8847 C   0  0  0  0  0  0  0  0  0  0  0  0
   26.2166  -21.2045  -10.0133 C   0  0  0  0  0  0  0  0  0  0  0  0
   25.3082  -20.1476   -9.8681 C   0  0  0  0  0  0  0  0  0  0  0  0
   25.7989  -19.2742   -8.9893 N   0  0  0  0  0  0  0  0  0  0  0  0
   26.9783  -19.6778   -8.5368 C   0  0  0  0  0  0  0  0  0  0  0  0
   27.8707  -19.1326   -7.6390 C   0  0  0  0  0  0  0  0  0  0  0  0
   29.0667  -19.7629   -7.3372 C   0  0  0  0  0  0  0  0  0  0  0  0
   29.3242  -20.9540   -7.9720 C   0  0  0  0  0  0  0  0  0  0  0  0
   28.4239  -21.5010   -8.8754 C   0  0  0  0  0  0  0  0  0  0  0  0
   27.2500  -20.8827   -9.1700 C   0  0  0  0  0  0  0  0  0  0  0  0
   24.1803  -21.3644  -12.2220 C   0  0  0  0  0  0  0  0  0  0  0  0
   23.9869  -20.1606  -11.9208 O   0  0  0  0  0  0  0  0  0  0  0  0
   21.1153  -23.1974  -14.2597 O   0  0  0  0  0  0  0  0  0  0  0  0
   21.0789  -21.8280  -13.9996 C   0  0  0  0  0  0  0  0  0  0  0  0
   21.7171  -21.5060  -12.6602 C   0  0  2  0  0  0  0  0  0  0  0  0
   23.0111  -22.1426  -12.5291 N   0  0  0  0  0  0  0  0  0  0  0  0
   20.8421  -21.8892  -11.5459 C   0  0  0  0  0  0  0  0  0  0  0  0
   19.5532  -21.3826  -11.4809 O   0  0  0  0  0  0  0  0  0  0  0  0
   21.1958  -22.6669  -10.6240 O   0  0  0  0  0  0  0  0  0  0  0  0
  2  1  1  6
  3  2  1  0
  4  3  1  0
  5  4  2  0
  6  5  1  0
  7  6  1  0
  7 12  2  0
  8  7  1  0
  9  8  2  0
  9 10  1  0
 10 11  2  0
 11 12  1  0
 12  4  1  0
 13  2  1  0
 14 13  2  0
 15 13  1  0
 16 15  1  0
 16 27  1  0
 16 17  1  1
 18 17  1  0
 19 18  2  0
 20 19  1  0
 21 20  1  0
 21 26  2  0
 22 23  2  0
 22 21  1  0
 23 24  1  0
 24 25  2  0
 26 25  1  0
 26 18  1  0
 27 28  2  0
 30 29  1  0
 31 30  1  6
 32 27  1  0
 32 31  1  0
 33 34  1  0
 33 31  1  0
 35 33  2  0
M  END
$$$$
