WWS.pdb
     RDKit          3D

 35 38  0  0  1  0  0  0  0  0999 V2000
   27.1365  -21.8435  -10.4956 N   0  0  0  0  0  0  0  0  0  0  0  0
   26.3495  -20.6911  -10.2077 C   0  0  1  0  0  0  0  0  0  0  0  0
   27.2142  -19.5784   -9.6699 C   0  0  0  0  0  0  0  0  0  0  0  0
   28.1246  -20.1555   -8.6420 C   0  0  0  0  0  0  0  0  0  0  0  0
   29.3045  -20.8668   -8.9169 C   0  0  0  0  0  0  0  0  0  0  0  0
   29.9005  -21.2023   -7.7748 N   0  0  0  0  0  0  0  0  0  0  0  0
   29.1571  -20.7396   -6.7511 C   0  0  0  0  0  0  0  0  0  0  0  0
   29.3186  -20.8203   -5.3768 C   0  0  0  0  0  0  0  0  0  0  0  0
   28.3726  -20.2511   -4.5786 C   0  0  0  0  0  0  0  0  0  0  0  0
   27.2652  -19.6009   -5.0745 C   0  0  0  0  0  0  0  0  0  0  0  0
   27.1070  -19.5211   -6.4342 C   0  0  0  0  0  0  0  0  0  0  0  0
   28.0392  -20.0812   -7.2847 C   0  0  0  0  0  0  0  0  0  0  0  0
   25.4650  -20.2840  -11.3124 C   0  0  0  0  0  0  0  0  0  0  0  0
   25.5206  -19.1009  -11.7480 O   0  0  0  0  0  0  0  0  0  0  0  0
   24.5711  -21.2322  -11.8640 N   0  0  0  0  0  0  0  0  0  0  0  0
   23.3949  -20.8512  -12.5950 C   0  0  1  0  0  0  0  0  0  0  0  0
   23.6619  -20.9081  -14.0841 C   0  0  0  0  0  0  0  0  0  0  0  0
   24.7345  -19.9773  -14.4906 C   0  0  0  0  0  0  0  0  0  0  0  0
   26.1014  -20.2837  -14.4549 C   0  0  0  0  0  0  0  0  0  0  0  0
   26.7900  -19.2393  -14.9141 N   0  0  0  0  0  0  0  0  0  0  0  0
   25.9722  -18.2525  -15.2547 C   0  0  0  0  0  0  0  0  0  0  0  0
   26.1922  -16.9906  -15.7636 C   0  0  0  0  0  0  0  0  0  0  0  0
   25.1425  -16.1275  -16.0318 C   0  0  0  0  0  0  0  0  0  0  0  0
   23.8737  -16.5840  -15.7677 C   0  0  0  0  0  0  0  0  0  0  0  0
   23.6548  -17.8550  -15.2554 C   0  0  0  0  0  0  0  0  0  0  0  0
   24.6852  -18.7018  -14.9939 C   0  0  0  0  0  0  0  0  0  0  0  0
   22.2406  -21.6994  -12.2217 C   0  0  0  0  0  0  0  0  0  0  0  0
   22.3279  -22.9428  -12.0682 O   0  0  0  0  0  0  0  0  0  0  0  0
   18.7352  -20.0067  -10.7107 O   0  0  0  0  0  0  0  0  0  0  0  0
   19.0633  -21.3384  -10.4597 C   0  0  0  0  0  0  0  0  0  0  0  0
   19.8190  -21.9475  -11.6272 C   0  0  2  0  0  0  0  0  0  0  0  0
   20.9416  -21.1190  -12.0148 N   0  0  0  0  0  0  0  0  0  0  0  0
   18.9330  -22.1795  -12.7740 C   0  0  0  0  0  0  0  0  0  0  0  0
   19.2150  -21.5778  -13.9908 O   0  0  0  0  0  0  0  0  0  0  0  0
   17.9095  -22.9071  -12.7219 O   0  0  0  0  0  0  0  0  0  0  0  0
  2  1  1  6
  3  2  1  0
  4  3  1  0
  5  4  2  0
  6  5  1  0
  7  6  1  0
  7 12  2  0
  8  7  1  0
  9  8  2  0
  9 10  1  0
 10 11  2  0
 11 12  1  0
 12  4  1  0
 13  2  1  0
 14 13  2  0
 15 13  1  0
 16 15  1  0
 16 27  1  0
 16 17  1  6
 18 17  1  0
 19 18  2  0
 20 19  1  0
 21 20  1  0
 21 26  2  0
 22 23  2  0
 22 21  1  0
 23 24  1  0
 24 25  2  0
 26 25  1  0
 26 18  1  0
 27 28  2  0
 30 29  1  0
 31 30  1  1
 32 27  1  0
 32 31  1  0
 33 34  1  0
 33 31  1  0
 35 33  2  0
M  END
$$$$
