IQH.pdb
     RDKit          3D

 28 28  0  0  1  0  0  0  0  0999 V2000
   25.3978  -13.6166  -17.4631 C   0  0  0  0  0  0  0  0  0  0  0  0
   25.7230  -12.2447  -16.9743 C   0  0  0  0  0  0  0  0  0  0  0  0
   24.5445  -11.3066  -17.1740 C   0  0  2  0  0  0  0  0  0  0  0  0
   24.2041  -11.2419  -18.6455 C   0  0  0  0  0  0  0  0  0  0  0  0
   24.8704   -9.9263  -16.6722 C   0  0  2  0  0  0  0  0  0  0  0  0
   25.2447   -9.9756  -15.2618 N   0  0  0  0  0  0  0  0  0  0  0  0
   23.6045   -9.1104  -16.7084 C   0  0  0  0  0  0  0  0  0  0  0  0
   23.0633   -8.9058  -17.8470 O   0  0  0  0  0  0  0  0  0  0  0  0
   18.6083   -9.3467  -13.3435 N   0  0  0  0  0  0  0  0  0  0  0  0
   19.6687   -8.7905  -12.5740 C   0  0  0  0  0  0  0  0  0  0  0  0
   19.5436   -8.7502  -11.3336 O   0  0  0  0  0  0  0  0  0  0  0  0
   20.8537   -8.2986  -13.3023 C   0  0  0  0  0  0  0  0  0  0  0  0
   20.6948   -8.4015  -14.8008 C   0  0  0  0  0  0  0  0  0  0  0  0
   21.8474   -7.8029  -15.4903 C   0  0  2  0  0  0  0  0  0  0  0  0
   23.0374   -8.5998  -15.5354 N   0  0  0  0  0  0  0  0  0  0  0  0
   22.0741   -6.3473  -15.2505 C   0  0  0  0  0  0  0  0  0  0  0  0
   23.1447   -5.9768  -14.7434 O   0  0  0  0  0  0  0  0  0  0  0  0
   21.1353   -5.3393  -15.5676 N   0  0  0  0  0  0  0  0  0  0  0  0
   21.5838   -3.9691  -15.8713 C   0  0  1  0  0  0  0  0  0  0  0  0
   22.6730   -4.0140  -16.9293 C   0  0  0  0  0  0  0  0  0  0  0  0
   23.1256   -2.6228  -17.1766 C   0  0  0  0  0  0  0  0  0  0  0  0
   23.0098   -1.5473  -16.2817 C   0  0  0  0  0  0  0  0  0  0  0  0
   23.5264   -0.4503  -16.8494 N   0  0  0  0  0  0  0  0  0  0  0  0
   23.9668   -0.7816  -18.0691 C   0  0  0  0  0  0  0  0  0  0  0  0
   23.7233   -2.0892  -18.2605 N   0  0  0  0  0  0  0  0  0  0  0  0
   20.4284   -3.1308  -16.2711 C   0  0  0  0  0  0  0  0  0  0  0  0
   20.2982   -1.9207  -15.9778 O   0  0  0  0  0  0  0  0  0  0  0  0
   19.4207   -3.7232  -17.0211 O   0  0  0  0  0  0  0  0  0  0  0  0
  1  2  1  0
  3  2  1  0
  3  4  1  6
  5  3  1  0
  5  6  1  1
  7  8  2  0
  7  5  1  0
  9 10  1  0
 10 12  1  0
 11 10  2  0
 12 13  1  0
 14 13  1  1
 14 15  1  0
 15  7  1  0
 16 14  1  0
 16 17  2  0
 18 16  1  0
 19 18  1  0
 19 20  1  6
 20 21  1  0
 21 22  2  0
 21 25  1  0
 22 23  1  0
 23 24  1  0
 25 24  2  0
 26 19  1  0
 27 26  2  0
 28 26  1  0
M  END
$$$$
