IQH.pdb
     RDKit          3D

 28 28  0  0  1  0  0  0  0  0999 V2000
   25.1702  -13.1486  -14.9934 C   0  0  0  0  0  0  0  0  0  0  0  0
   25.4974  -13.9146  -16.2314 C   0  0  0  0  0  0  0  0  0  0  0  0
   25.4785  -15.4100  -15.9623 C   0  0  2  0  0  0  0  0  0  0  0  0
   26.5495  -15.7468  -14.9500 C   0  0  0  0  0  0  0  0  0  0  0  0
   25.7233  -16.1832  -17.2293 C   0  0  2  0  0  0  0  0  0  0  0  0
   24.6618  -15.9197  -18.1965 N   0  0  0  0  0  0  0  0  0  0  0  0
   25.5983  -17.6496  -16.9076 C   0  0  0  0  0  0  0  0  0  0  0  0
   24.4307  -18.1054  -16.6618 O   0  0  0  0  0  0  0  0  0  0  0  0
   29.8318  -22.8857  -16.7127 N   0  0  0  0  0  0  0  0  0  0  0  0
   28.5346  -23.0563  -17.2733 C   0  0  0  0  0  0  0  0  0  0  0  0
   28.3734  -23.9415  -18.1370 O   0  0  0  0  0  0  0  0  0  0  0  0
   27.4606  -22.1688  -16.7880 C   0  0  0  0  0  0  0  0  0  0  0  0
   27.7748  -20.7078  -17.0076 C   0  0  0  0  0  0  0  0  0  0  0  0
   26.7023  -19.8568  -16.4714 C   0  0  2  0  0  0  0  0  0  0  0  0
   26.7207  -18.4851  -16.8851 N   0  0  0  0  0  0  0  0  0  0  0  0
   26.3414  -20.0770  -15.0400 C   0  0  0  0  0  0  0  0  0  0  0  0
   26.7947  -19.3094  -14.1763 O   0  0  0  0  0  0  0  0  0  0  0  0
   25.5011  -21.1203  -14.5891 N   0  0  0  0  0  0  0  0  0  0  0  0
   25.1628  -21.2429  -13.1603 C   0  0  1  0  0  0  0  0  0  0  0  0
   25.8729  -20.1535  -12.3750 C   0  0  0  0  0  0  0  0  0  0  0  0
   25.4995  -20.3041  -10.9469 C   0  0  0  0  0  0  0  0  0  0  0  0
   24.6878  -21.3158  -10.4098 C   0  0  0  0  0  0  0  0  0  0  0  0
   24.5727  -21.1273   -9.0893 N   0  0  0  0  0  0  0  0  0  0  0  0
   25.2772  -20.0374   -8.7620 C   0  0  0  0  0  0  0  0  0  0  0  0
   25.8324  -19.5465   -9.8831 N   0  0  0  0  0  0  0  0  0  0  0  0
   23.6916  -21.2153  -12.9801 C   0  0  0  0  0  0  0  0  0  0  0  0
   22.9223  -20.4224  -13.5690 O   0  0  0  0  0  0  0  0  0  0  0  0
   23.1246  -22.1281  -12.1002 O   0  0  0  0  0  0  0  0  0  0  0  0
  1  2  1  0
  3  2  1  0
  3  4  1  1
  5  3  1  0
  5  6  1  6
  7  8  2  0
  7  5  1  0
  9 10  1  0
 10 12  1  0
 11 10  2  0
 12 13  1  0
 14 13  1  1
 14 15  1  0
 15  7  1  0
 16 14  1  0
 16 17  2  0
 18 16  1  0
 19 18  1  0
 19 20  1  1
 20 21  1  0
 21 22  2  0
 21 25  1  0
 22 23  1  0
 23 24  1  0
 25 24  2  0
 26 19  1  0
 27 26  2  0
 28 26  1  0
M  END
$$$$
