IQH.pdb
     RDKit          3D

 28 28  0  0  1  0  0  0  0  0999 V2000
   14.1165  -11.4036  -20.2015 C   0  0  0  0  0  0  0  0  0  0  0  0
   15.1523  -12.3649  -19.7224 C   0  0  0  0  0  0  0  0  0  0  0  0
   16.1476  -11.6740  -18.8055 C   0  0  2  0  0  0  0  0  0  0  0  0
   16.9223  -10.6453  -19.5972 C   0  0  0  0  0  0  0  0  0  0  0  0
   17.1022  -12.6706  -18.2065 C   0  0  2  0  0  0  0  0  0  0  0  0
   16.3797  -13.6235  -17.3688 N   0  0  0  0  0  0  0  0  0  0  0  0
   18.0084  -11.9305  -17.2576 C   0  0  0  0  0  0  0  0  0  0  0  0
   17.4801  -11.4103  -16.2175 O   0  0  0  0  0  0  0  0  0  0  0  0
   24.2165  -12.3584  -16.2153 N   0  0  0  0  0  0  0  0  0  0  0  0
   23.8512  -11.1863  -15.4950 C   0  0  0  0  0  0  0  0  0  0  0  0
   24.7123  -10.6381  -14.7782 O   0  0  0  0  0  0  0  0  0  0  0  0
   22.4688  -10.6948  -15.6495 C   0  0  0  0  0  0  0  0  0  0  0  0
   21.6204  -11.6129  -16.4974 C   0  0  0  0  0  0  0  0  0  0  0  0
   20.2861  -11.0357  -16.7174 C   0  0  2  0  0  0  0  0  0  0  0  0
   19.3818  -11.8219  -17.5030 N   0  0  0  0  0  0  0  0  0  0  0  0
   20.2403   -9.5683  -16.9865 C   0  0  0  0  0  0  0  0  0  0  0  0
   20.5620   -9.1483  -18.1093 O   0  0  0  0  0  0  0  0  0  0  0  0
   19.8474   -8.6025  -16.0320 N   0  0  0  0  0  0  0  0  0  0  0  0
   19.8643   -7.1683  -16.3695 C   0  0  1  0  0  0  0  0  0  0  0  0
   18.4385   -6.6564  -16.4825 C   0  0  0  0  0  0  0  0  0  0  0  0
   18.4981   -5.2061  -16.7901 C   0  0  0  0  0  0  0  0  0  0  0  0
   18.4659   -4.6337  -18.0716 C   0  0  0  0  0  0  0  0  0  0  0  0
   18.5400   -3.3019  -17.9560 N   0  0  0  0  0  0  0  0  0  0  0  0
   18.6180   -3.0013  -16.6541 C   0  0  0  0  0  0  0  0  0  0  0  0
   18.5924   -4.1503  -15.9577 N   0  0  0  0  0  0  0  0  0  0  0  0
   20.6666   -6.4191  -15.3732 C   0  0  0  0  0  0  0  0  0  0  0  0
   21.0528   -5.2375  -15.5212 O   0  0  0  0  0  0  0  0  0  0  0  0
   21.0154   -7.0674  -14.1955 O   0  0  0  0  0  0  0  0  0  0  0  0
  1  2  1  0
  3  2  1  0
  3  4  1  6
  5  3  1  0
  5  6  1  1
  7  8  2  0
  7  5  1  0
  9 10  1  0
 10 12  1  0
 11 10  2  0
 12 13  1  0
 14 13  1  6
 14 15  1  0
 15  7  1  0
 16 14  1  0
 16 17  2  0
 18 16  1  0
 19 18  1  0
 19 20  1  1
 20 21  1  0
 21 22  2  0
 21 25  1  0
 22 23  1  0
 23 24  1  0
 25 24  2  0
 26 19  1  0
 27 26  2  0
 28 26  1  0
M  END
$$$$
