IQH.pdb
     RDKit          3D

 28 28  0  0  1  0  0  0  0  0999 V2000
   28.5494  -13.0907  -15.4532 C   0  0  0  0  0  0  0  0  0  0  0  0
   27.2156  -13.7486  -15.3318 C   0  0  0  0  0  0  0  0  0  0  0  0
   26.1050  -12.7992  -15.7493 C   0  0  2  0  0  0  0  0  0  0  0  0
   26.0538  -11.6379  -14.7828 C   0  0  0  0  0  0  0  0  0  0  0  0
   24.7761  -13.5042  -15.7589 C   0  0  2  0  0  0  0  0  0  0  0  0
   24.8285  -14.6716  -16.6341 N   0  0  0  0  0  0  0  0  0  0  0  0
   23.7695  -12.5848  -16.4001 C   0  0  0  0  0  0  0  0  0  0  0  0
   23.8603  -12.3921  -17.6595 O   0  0  0  0  0  0  0  0  0  0  0  0
   20.0604  -12.1129  -19.1511 N   0  0  0  0  0  0  0  0  0  0  0  0
   19.3293  -11.0427  -18.5625 C   0  0  0  0  0  0  0  0  0  0  0  0
   18.6019  -10.3461  -19.2982 O   0  0  0  0  0  0  0  0  0  0  0  0
   19.4813  -10.8314  -17.1103 C   0  0  0  0  0  0  0  0  0  0  0  0
   20.4569  -11.7999  -16.4844 C   0  0  0  0  0  0  0  0  0  0  0  0
   21.7355  -11.1360  -16.1902 C   0  0  2  0  0  0  0  0  0  0  0  0
   22.7661  -11.9684  -15.6443 N   0  0  0  0  0  0  0  0  0  0  0  0
   21.6458   -9.7719  -15.5912 C   0  0  0  0  0  0  0  0  0  0  0  0
   21.5119   -9.6577  -14.3626 O   0  0  0  0  0  0  0  0  0  0  0  0
   21.7046   -8.5750  -16.3410 N   0  0  0  0  0  0  0  0  0  0  0  0
   21.6264   -7.2667  -15.6677 C   0  0  1  0  0  0  0  0  0  0  0  0
   21.9358   -6.1631  -16.6647 C   0  0  0  0  0  0  0  0  0  0  0  0
   22.0281   -4.8855  -15.9161 C   0  0  0  0  0  0  0  0  0  0  0  0
   21.9575   -4.7407  -14.5215 C   0  0  0  0  0  0  0  0  0  0  0  0
   22.0789   -3.4440  -14.2112 N   0  0  0  0  0  0  0  0  0  0  0  0
   22.2240   -2.7559  -15.3499 C   0  0  0  0  0  0  0  0  0  0  0  0
   22.1927   -3.6278  -16.3720 N   0  0  0  0  0  0  0  0  0  0  0  0
   20.3018   -7.1035  -15.0223 C   0  0  0  0  0  0  0  0  0  0  0  0
   19.2070   -7.3044  -15.5952 O   0  0  0  0  0  0  0  0  0  0  0  0
   20.2685   -6.7009  -13.6936 O   0  0  0  0  0  0  0  0  0  0  0  0
  1  2  1  0
  3  2  1  0
  3  4  1  1
  5  3  1  0
  5  6  1  6
  7  8  2  0
  7  5  1  0
  9 10  1  0
 10 12  1  0
 11 10  2  0
 12 13  1  0
 14 13  1  1
 14 15  1  0
 15  7  1  0
 16 14  1  0
 16 17  2  0
 18 16  1  0
 19 18  1  0
 19 20  1  6
 20 21  1  0
 21 22  2  0
 21 25  1  0
 22 23  1  0
 23 24  1  0
 25 24  2  0
 26 19  1  0
 27 26  2  0
 28 26  1  0
M  END
$$$$
