IQH.pdb
     RDKit          3D

 28 28  0  0  1  0  0  0  0  0999 V2000
   31.7392  -28.2962  -16.9751 C   0  0  0  0  0  0  0  0  0  0  0  0
   31.3197  -26.9413  -17.4388 C   0  0  0  0  0  0  0  0  0  0  0  0
   29.8050  -26.8342  -17.4937 C   0  0  2  0  0  0  0  0  0  0  0  0
   29.2670  -27.8756  -18.4484 C   0  0  0  0  0  0  0  0  0  0  0  0
   29.3833  -25.4652  -17.9533 C   0  0  2  0  0  0  0  0  0  0  0  0
   30.0373  -24.4372  -17.1489 N   0  0  0  0  0  0  0  0  0  0  0  0
   27.9140  -25.3107  -17.6585 C   0  0  0  0  0  0  0  0  0  0  0  0
   27.1302  -26.2412  -18.0474 O   0  0  0  0  0  0  0  0  0  0  0  0
   24.9542  -21.3882  -13.5845 N   0  0  0  0  0  0  0  0  0  0  0  0
   23.9071  -22.1471  -14.1791 C   0  0  0  0  0  0  0  0  0  0  0  0
   22.7643  -22.0699  -13.6853 O   0  0  0  0  0  0  0  0  0  0  0  0
   24.2477  -22.9774  -15.3501 C   0  0  0  0  0  0  0  0  0  0  0  0
   25.7366  -23.0490  -15.5943 C   0  0  0  0  0  0  0  0  0  0  0  0
   26.0375  -23.9337  -16.7295 C   0  0  2  0  0  0  0  0  0  0  0  0
   27.4253  -24.1906  -16.9769 N   0  0  0  0  0  0  0  0  0  0  0  0
   25.2062  -23.7389  -17.9537 C   0  0  0  0  0  0  0  0  0  0  0  0
   25.3609  -22.7121  -18.6336 O   0  0  0  0  0  0  0  0  0  0  0  0
   24.2346  -24.6619  -18.4032 N   0  0  0  0  0  0  0  0  0  0  0  0
   23.6896  -24.5676  -19.7689 C   0  0  1  0  0  0  0  0  0  0  0  0
   24.8278  -24.6124  -20.7741 C   0  0  0  0  0  0  0  0  0  0  0  0
   24.2448  -24.4579  -22.1297 C   0  0  0  0  0  0  0  0  0  0  0  0
   22.9276  -24.0695  -22.4207 C   0  0  0  0  0  0  0  0  0  0  0  0
   22.7652  -24.0401  -23.7493 N   0  0  0  0  0  0  0  0  0  0  0  0
   23.9243  -24.3937  -24.3177 C   0  0  0  0  0  0  0  0  0  0  0  0
   24.8104  -24.6438  -23.3389 N   0  0  0  0  0  0  0  0  0  0  0  0
   22.6838  -25.6336  -19.9917 C   0  0  0  0  0  0  0  0  0  0  0  0
   22.4590  -26.5712  -19.1931 O   0  0  0  0  0  0  0  0  0  0  0  0
   21.9389  -25.5935  -21.1632 O   0  0  0  0  0  0  0  0  0  0  0  0
  1  2  1  0
  3  2  1  0
  3  4  1  6
  5  3  1  0
  5  6  1  1
  7  8  2  0
  7  5  1  0
  9 10  1  0
 10 12  1  0
 11 10  2  0
 12 13  1  0
 14 13  1  1
 14 15  1  0
 15  7  1  0
 16 14  1  0
 16 17  2  0
 18 16  1  0
 19 18  1  0
 19 20  1  6
 20 21  1  0
 21 22  2  0
 21 25  1  0
 22 23  1  0
 23 24  1  0
 25 24  2  0
 26 19  1  0
 27 26  2  0
 28 26  1  0
M  END
$$$$
