IQH.pdb
     RDKit          3D

 28 28  0  0  1  0  0  0  0  0999 V2000
   17.8329  -16.3279    0.5305 C   0  0  0  0  0  0  0  0  0  0  0  0
   17.7033  -17.5474    1.3806 C   0  0  0  0  0  0  0  0  0  0  0  0
   17.9338  -17.2123    2.8446 C   0  0  2  0  0  0  0  0  0  0  0  0
   19.3262  -16.6481    3.0125 C   0  0  0  0  0  0  0  0  0  0  0  0
   17.7814  -18.4385    3.7029 C   0  0  2  0  0  0  0  0  0  0  0  0
   16.4143  -18.9449    3.6241 N   0  0  0  0  0  0  0  0  0  0  0  0
   17.9574  -18.0218    5.1399 C   0  0  0  0  0  0  0  0  0  0  0  0
   19.0993  -17.5694    5.4904 O   0  0  0  0  0  0  0  0  0  0  0  0
   13.6357  -16.4918    9.5131 N   0  0  0  0  0  0  0  0  0  0  0  0
   14.8418  -16.5649   10.2654 C   0  0  0  0  0  0  0  0  0  0  0  0
   14.8180  -16.2085   11.4604 O   0  0  0  0  0  0  0  0  0  0  0  0
   16.0462  -17.0643    9.5750 C   0  0  0  0  0  0  0  0  0  0  0  0
   15.7759  -17.4330    8.1354 C   0  0  0  0  0  0  0  0  0  0  0  0
   17.0186  -17.8271    7.4553 C   0  0  2  0  0  0  0  0  0  0  0  0
   16.9054  -18.1204    6.0574 N   0  0  0  0  0  0  0  0  0  0  0  0
   17.9257  -18.7354    8.2168 C   0  0  0  0  0  0  0  0  0  0  0  0
   18.2310  -19.8349    7.7285 O   0  0  0  0  0  0  0  0  0  0  0  0
   18.4738  -18.4244    9.4821 N   0  0  0  0  0  0  0  0  0  0  0  0
   19.4200  -19.3469   10.1338 C   0  0  1  0  0  0  0  0  0  0  0  0
   19.9090  -20.3705    9.1234 C   0  0  0  0  0  0  0  0  0  0  0  0
   19.0923  -21.5983    9.2868 C   0  0  0  0  0  0  0  0  0  0  0  0
   18.6145  -22.1143   10.5018 C   0  0  0  0  0  0  0  0  0  0  0  0
   17.9180  -23.2313   10.2572 N   0  0  0  0  0  0  0  0  0  0  0  0
   17.9317  -23.4489    8.9366 C   0  0  0  0  0  0  0  0  0  0  0  0
   18.6393  -22.4638    8.3581 N   0  0  0  0  0  0  0  0  0  0  0  0
   20.5260  -18.5845   10.7609 C   0  0  0  0  0  0  0  0  0  0  0  0
   20.5721  -17.3355   10.8318 O   0  0  0  0  0  0  0  0  0  0  0  0
   21.5837  -19.2996   11.3074 O   0  0  0  0  0  0  0  0  0  0  0  0
  1  2  1  0
  3  2  1  0
  3  4  1  6
  5  3  1  0
  5  6  1  1
  7  8  2  0
  7  5  1  0
  9 10  1  0
 10 12  1  0
 11 10  2  0
 12 13  1  0
 14 13  1  1
 14 15  1  0
 15  7  1  0
 16 14  1  0
 16 17  2  0
 18 16  1  0
 19 18  1  0
 19 20  1  6
 20 21  1  0
 21 22  2  0
 21 25  1  0
 22 23  1  0
 23 24  1  0
 25 24  2  0
 26 19  1  0
 27 26  2  0
 28 26  1  0
M  END
$$$$
