IQH.pdb
     RDKit          3D

 28 28  0  0  1  0  0  0  0  0999 V2000
   28.7979  -18.8977  -14.9976 C   0  0  0  0  0  0  0  0  0  0  0  0
   28.2475  -19.6281  -13.8186 C   0  0  0  0  0  0  0  0  0  0  0  0
   26.7427  -19.7985  -13.9430 C   0  0  2  0  0  0  0  0  0  0  0  0
   26.0921  -18.4358  -14.0153 C   0  0  0  0  0  0  0  0  0  0  0  0
   26.1925  -20.5564  -12.7657 C   0  0  2  0  0  0  0  0  0  0  0  0
   26.8930  -21.8279  -12.6099 N   0  0  0  0  0  0  0  0  0  0  0  0
   24.7695  -20.9350  -13.0836 C   0  0  0  0  0  0  0  0  0  0  0  0
   24.5744  -22.0213  -13.7266 O   0  0  0  0  0  0  0  0  0  0  0  0
   19.5502  -21.6046  -10.1122 N   0  0  0  0  0  0  0  0  0  0  0  0
   20.3170  -20.4517   -9.7820 C   0  0  0  0  0  0  0  0  0  0  0  0
   19.9790  -19.7795   -8.7872 O   0  0  0  0  0  0  0  0  0  0  0  0
   21.4700  -20.1305  -10.6444 C   0  0  0  0  0  0  0  0  0  0  0  0
   21.5932  -21.0721  -11.8190 C   0  0  0  0  0  0  0  0  0  0  0  0
   22.3192  -20.4331  -12.9265 C   0  0  2  0  0  0  0  0  0  0  0  0
   23.6980  -20.1289  -12.6830 N   0  0  0  0  0  0  0  0  0  0  0  0
   21.5707  -19.3910  -13.6892 C   0  0  0  0  0  0  0  0  0  0  0  0
   21.2662  -18.3288  -13.1240 O   0  0  0  0  0  0  0  0  0  0  0  0
   21.1763  -19.5317  -15.0393 N   0  0  0  0  0  0  0  0  0  0  0  0
   21.7911  -18.6994  -16.0882 C   0  0  1  0  0  0  0  0  0  0  0  0
   23.3026  -18.7286  -15.9387 C   0  0  0  0  0  0  0  0  0  0  0  0
   23.8819  -17.8654  -16.9973 C   0  0  0  0  0  0  0  0  0  0  0  0
   23.1580  -17.0726  -17.9018 C   0  0  0  0  0  0  0  0  0  0  0  0
   24.0168  -16.4352  -18.7071 N   0  0  0  0  0  0  0  0  0  0  0  0
   25.2585  -16.7886  -18.3537 C   0  0  0  0  0  0  0  0  0  0  0  0
   25.1712  -17.6489  -17.3250 N   0  0  0  0  0  0  0  0  0  0  0  0
   21.3372  -19.1472  -17.4265 C   0  0  0  0  0  0  0  0  0  0  0  0
   21.2569  -20.3452  -17.7812 O   0  0  0  0  0  0  0  0  0  0  0  0
   20.9758  -18.1765  -18.3516 O   0  0  0  0  0  0  0  0  0  0  0  0
  1  2  1  0
  3  2  1  0
  3  4  1  1
  5  3  1  0
  5  6  1  6
  7  8  2  0
  7  5  1  0
  9 10  1  0
 10 12  1  0
 11 10  2  0
 12 13  1  0
 14 13  1  1
 14 15  1  0
 15  7  1  0
 16 14  1  0
 16 17  2  0
 18 16  1  0
 19 18  1  0
 19 20  1  6
 20 21  1  0
 21 22  2  0
 21 25  1  0
 22 23  1  0
 23 24  1  0
 25 24  2  0
 26 19  1  0
 27 26  2  0
 28 26  1  0
M  END
$$$$
