IQH.pdb
     RDKit          3D

 28 28  0  0  1  0  0  0  0  0999 V2000
   29.4112  -11.9004  -16.7902 C   0  0  0  0  0  0  0  0  0  0  0  0
   28.1339  -12.6081  -16.4833 C   0  0  0  0  0  0  0  0  0  0  0  0
   26.9416  -11.6945  -16.7124 C   0  0  2  0  0  0  0  0  0  0  0  0
   26.9918  -10.5534  -15.7221 C   0  0  0  0  0  0  0  0  0  0  0  0
   25.6511  -12.4493  -16.5447 C   0  0  2  0  0  0  0  0  0  0  0  0
   25.6586  -13.6544  -17.3688 N   0  0  0  0  0  0  0  0  0  0  0  0
   24.5422  -11.6007  -17.1103 C   0  0  0  0  0  0  0  0  0  0  0  0
   24.8710  -10.5995  -17.8321 O   0  0  0  0  0  0  0  0  0  0  0  0
   18.7695  -13.5563  -17.4016 N   0  0  0  0  0  0  0  0  0  0  0  0
   19.8874  -13.9791  -18.1746 C   0  0  0  0  0  0  0  0  0  0  0  0
   19.8322  -15.0899  -18.7392 O   0  0  0  0  0  0  0  0  0  0  0  0
   21.0428  -13.0655  -18.2580 C   0  0  0  0  0  0  0  0  0  0  0  0
   20.8215  -11.7826  -17.4920 C   0  0  0  0  0  0  0  0  0  0  0  0
   22.0950  -11.0835  -17.2653 C   0  0  2  0  0  0  0  0  0  0  0  0
   23.1989  -11.9020  -16.8595 N   0  0  0  0  0  0  0  0  0  0  0  0
   22.0065   -9.7615  -16.5781 C   0  0  0  0  0  0  0  0  0  0  0  0
   22.7657   -9.5221  -15.6259 O   0  0  0  0  0  0  0  0  0  0  0  0
   21.0996   -8.7408  -16.9439 N   0  0  0  0  0  0  0  0  0  0  0  0
   21.2165   -7.3929  -16.3604 C   0  0  1  0  0  0  0  0  0  0  0  0
   22.6278   -6.8705  -16.5676 C   0  0  0  0  0  0  0  0  0  0  0  0
   22.6819   -5.4835  -16.0435 C   0  0  0  0  0  0  0  0  0  0  0  0
   21.6330   -4.8023  -15.4057 C   0  0  0  0  0  0  0  0  0  0  0  0
   22.0497   -3.5744  -15.0724 N   0  0  0  0  0  0  0  0  0  0  0  0
   23.3207   -3.4443  -15.4712 C   0  0  0  0  0  0  0  0  0  0  0  0
   23.6956   -4.5954  -16.0545 N   0  0  0  0  0  0  0  0  0  0  0  0
   20.1826   -6.4978  -16.9326 C   0  0  0  0  0  0  0  0  0  0  0  0
   19.8351   -6.4976  -18.1353 O   0  0  0  0  0  0  0  0  0  0  0  0
   19.5549   -5.5977  -16.0812 O   0  0  0  0  0  0  0  0  0  0  0  0
  1  2  1  0
  3  2  1  0
  3  4  1  1
  5  3  1  0
  5  6  1  6
  7  8  2  0
  7  5  1  0
  9 10  1  0
 10 12  1  0
 11 10  2  0
 12 13  1  0
 14 13  1  1
 14 15  1  0
 15  7  1  0
 16 14  1  0
 16 17  2  0
 18 16  1  0
 19 18  1  0
 19 20  1  6
 20 21  1  0
 21 22  2  0
 21 25  1  0
 22 23  1  0
 23 24  1  0
 25 24  2  0
 26 19  1  0
 27 26  2  0
 28 26  1  0
M  END
$$$$
