IQH.pdb
     RDKit          3D

 28 28  0  0  1  0  0  0  0  0999 V2000
   27.3854  -20.3787  -19.5789 C   0  0  0  0  0  0  0  0  0  0  0  0
   27.3467  -21.7386  -18.9660 C   0  0  0  0  0  0  0  0  0  0  0  0
   26.2705  -21.8187  -17.8963 C   0  0  2  0  0  0  0  0  0  0  0  0
   25.0103  -21.1589  -18.4081 C   0  0  0  0  0  0  0  0  0  0  0  0
   26.7201  -21.1331  -16.6349 C   0  0  2  0  0  0  0  0  0  0  0  0
   27.8711  -21.8269  -16.0642 N   0  0  0  0  0  0  0  0  0  0  0  0
   25.6274  -21.2883  -15.6096 C   0  0  0  0  0  0  0  0  0  0  0  0
   24.4732  -21.6471  -16.0227 O   0  0  0  0  0  0  0  0  0  0  0  0
   25.9261  -20.3817   -9.2532 N   0  0  0  0  0  0  0  0  0  0  0  0
   24.5898  -20.8124   -9.4878 C   0  0  0  0  0  0  0  0  0  0  0  0
   23.8432  -20.9916   -8.5049 O   0  0  0  0  0  0  0  0  0  0  0  0
   24.1758  -21.0158  -10.8891 C   0  0  0  0  0  0  0  0  0  0  0  0
   25.3166  -20.8303  -11.8615 C   0  0  0  0  0  0  0  0  0  0  0  0
   24.8491  -20.9740  -13.2482 C   0  0  2  0  0  0  0  0  0  0  0  0
   25.8692  -21.0542  -14.2513 N   0  0  0  0  0  0  0  0  0  0  0  0
   23.6565  -20.1608  -13.6279 C   0  0  0  0  0  0  0  0  0  0  0  0
   23.8179  -19.1177  -14.2808 O   0  0  0  0  0  0  0  0  0  0  0  0
   22.3275  -20.5030  -13.2894 N   0  0  0  0  0  0  0  0  0  0  0  0
   21.1957  -19.9511  -14.0546 C   0  0  1  0  0  0  0  0  0  0  0  0
   21.2958  -20.3980  -15.5030 C   0  0  0  0  0  0  0  0  0  0  0  0
   21.7785  -19.2455  -16.3031 C   0  0  0  0  0  0  0  0  0  0  0  0
   22.0498  -17.9583  -15.8130 C   0  0  0  0  0  0  0  0  0  0  0  0
   22.4653  -17.1854  -16.8243 N   0  0  0  0  0  0  0  0  0  0  0  0
   22.4702  -17.9264  -17.9389 C   0  0  0  0  0  0  0  0  0  0  0  0
   22.0563  -19.1644  -17.6195 N   0  0  0  0  0  0  0  0  0  0  0  0
   19.9132  -20.3398  -13.4205 C   0  0  0  0  0  0  0  0  0  0  0  0
   18.8904  -19.6184  -13.3948 O   0  0  0  0  0  0  0  0  0  0  0  0
   19.8369  -21.5866  -12.8134 O   0  0  0  0  0  0  0  0  0  0  0  0
  1  2  1  0
  3  2  1  0
  3  4  1  6
  5  3  1  0
  5  6  1  1
  7  8  2  0
  7  5  1  0
  9 10  1  0
 10 12  1  0
 11 10  2  0
 12 13  1  0
 14 13  1  1
 14 15  1  0
 15  7  1  0
 16 14  1  0
 16 17  2  0
 18 16  1  0
 19 18  1  0
 19 20  1  6
 20 21  1  0
 21 22  2  0
 21 25  1  0
 22 23  1  0
 23 24  1  0
 25 24  2  0
 26 19  1  0
 27 26  2  0
 28 26  1  0
M  END
$$$$
