GQH.pdb
     RDKit          3D

 24 24  0  0  1  0  0  0  0  0999 V2000
   22.3465  -15.3445  -19.5274 N   0  0  0  0  0  0  0  0  0  0  0  0
   22.1616  -14.5748  -18.3211 C   0  0  0  0  0  0  0  0  0  0  0  0
   20.7947  -14.0238  -18.2083 C   0  0  0  0  0  0  0  0  0  0  0  0
   20.2531  -13.5650  -19.2390 O   0  0  0  0  0  0  0  0  0  0  0  0
   16.2670  -15.4103  -14.1093 N   0  0  0  0  0  0  0  0  0  0  0  0
   16.3778  -15.9562  -15.4023 C   0  0  0  0  0  0  0  0  0  0  0  0
   15.7691  -17.0048  -15.7328 O   0  0  0  0  0  0  0  0  0  0  0  0
   17.2296  -15.3113  -16.4503 C   0  0  0  0  0  0  0  0  0  0  0  0
   17.9141  -14.1034  -15.9386 C   0  0  0  0  0  0  0  0  0  0  0  0
   18.7059  -13.3536  -16.9508 C   0  0  2  0  0  0  0  0  0  0  0  0
   20.0615  -13.9860  -16.9948 N   0  0  0  0  0  0  0  0  0  0  0  0
   18.8612  -11.9210  -16.6603 C   0  0  0  0  0  0  0  0  0  0  0  0
   19.8750  -11.5929  -15.9479 O   0  0  0  0  0  0  0  0  0  0  0  0
   18.0136  -10.8773  -17.0920 N   0  0  0  0  0  0  0  0  0  0  0  0
   18.3377   -9.4860  -16.7008 C   0  0  1  0  0  0  0  0  0  0  0  0
   18.3057   -8.6079  -17.9149 C   0  0  0  0  0  0  0  0  0  0  0  0
   19.4986   -8.7957  -18.7603 C   0  0  0  0  0  0  0  0  0  0  0  0
   20.8372   -8.8637  -18.4741 C   0  0  0  0  0  0  0  0  0  0  0  0
   21.5480   -9.1380  -19.6074 N   0  0  0  0  0  0  0  0  0  0  0  0
   20.6580   -9.2398  -20.5804 C   0  0  0  0  0  0  0  0  0  0  0  0
   19.4250   -9.0421  -20.1130 N   0  0  0  0  0  0  0  0  0  0  0  0
   17.2554   -9.0355  -15.7676 C   0  0  0  0  0  0  0  0  0  0  0  0
   17.3222   -7.7325  -15.2593 O   0  0  0  0  0  0  0  0  0  0  0  0
   16.2992   -9.7434  -15.4125 O   0  0  0  0  0  0  0  0  0  0  0  0
  1  2  1  0
  2  3  1  0
  3 11  1  0
  4  3  2  0
  6  7  2  0
  6  5  1  0
  8  6  1  0
  9  8  1  0
 10  9  1  1
 10 12  1  0
 11 10  1  0
 12 13  2  0
 12 14  1  0
 14 15  1  0
 15 16  1  6
 16 17  1  0
 17 18  2  0
 18 19  1  0
 20 19  1  0
 21 17  1  0
 21 20  2  0
 22 15  1  0
 22 23  1  0
 24 22  2  0
M  END
$$$$
