GQH.pdb
     RDKit          3D

 24 24  0  0  1  0  0  0  0  0999 V2000
   13.9956  -12.7822  -11.8250 N   0  0  0  0  0  0  0  0  0  0  0  0
   13.5210  -11.8220  -12.7919 C   0  0  0  0  0  0  0  0  0  0  0  0
   14.3215  -10.5795  -12.7916 C   0  0  0  0  0  0  0  0  0  0  0  0
   14.4424   -9.9513  -13.8671 O   0  0  0  0  0  0  0  0  0  0  0  0
   15.2728   -7.1344   -7.6821 N   0  0  0  0  0  0  0  0  0  0  0  0
   14.0892   -7.2303   -8.4383 C   0  0  0  0  0  0  0  0  0  0  0  0
   12.9764   -6.8756   -7.9745 O   0  0  0  0  0  0  0  0  0  0  0  0
   14.0991   -7.7617   -9.8374 C   0  0  0  0  0  0  0  0  0  0  0  0
   15.4584   -8.1567  -10.2681 C   0  0  0  0  0  0  0  0  0  0  0  0
   15.5495   -8.6826  -11.6569 C   0  0  2  0  0  0  0  0  0  0  0  0
   14.9614  -10.0586  -11.6379 N   0  0  0  0  0  0  0  0  0  0  0  0
   16.9180   -8.7601  -12.1880 C   0  0  0  0  0  0  0  0  0  0  0  0
   17.7434   -9.4840  -11.5266 O   0  0  0  0  0  0  0  0  0  0  0  0
   17.4073   -8.1259  -13.3510 N   0  0  0  0  0  0  0  0  0  0  0  0
   18.8184   -8.3450  -13.7439 C   0  0  1  0  0  0  0  0  0  0  0  0
   18.9207   -8.3666  -15.2389 C   0  0  0  0  0  0  0  0  0  0  0  0
   20.3130   -8.5380  -15.6920 C   0  0  0  0  0  0  0  0  0  0  0  0
   21.1416   -9.6281  -15.7520 C   0  0  0  0  0  0  0  0  0  0  0  0
   22.3273   -9.2871  -16.3373 N   0  0  0  0  0  0  0  0  0  0  0  0
   22.2302   -8.0022  -16.6361 C   0  0  0  0  0  0  0  0  0  0  0  0
   21.0427   -7.5215  -16.2665 N   0  0  0  0  0  0  0  0  0  0  0  0
   19.5963   -7.1686  -13.2377 C   0  0  0  0  0  0  0  0  0  0  0  0
   20.9644   -7.3380  -12.9921 O   0  0  0  0  0  0  0  0  0  0  0  0
   19.1069   -6.0485  -13.0197 O   0  0  0  0  0  0  0  0  0  0  0  0
  1  2  1  0
  2  3  1  0
  3 11  1  0
  4  3  2  0
  6  7  2  0
  6  5  1  0
  8  6  1  0
  9  8  1  0
 10  9  1  1
 10 12  1  0
 11 10  1  0
 12 13  2  0
 12 14  1  0
 14 15  1  0
 15 16  1  6
 16 17  1  0
 17 18  2  0
 18 19  1  0
 20 19  1  0
 21 17  1  0
 21 20  2  0
 22 15  1  0
 22 23  1  0
 24 22  2  0
M  END
$$$$
