GQH.pdb
     RDKit          3D

 24 24  0  0  1  0  0  0  0  0999 V2000
   25.9712  -33.3194  -12.4116 N   0  0  0  0  0  0  0  0  0  0  0  0
   24.8994  -34.0484  -11.7777 C   0  0  0  0  0  0  0  0  0  0  0  0
   24.5453  -33.4926  -10.4547 C   0  0  0  0  0  0  0  0  0  0  0  0
   25.1447  -32.4665  -10.0625 O   0  0  0  0  0  0  0  0  0  0  0  0
   19.7116  -31.8630   -8.1718 N   0  0  0  0  0  0  0  0  0  0  0  0
   20.2414  -32.1307   -6.8952 C   0  0  0  0  0  0  0  0  0  0  0  0
   19.8038  -31.5613   -5.8639 O   0  0  0  0  0  0  0  0  0  0  0  0
   21.3561  -33.1107   -6.7038 C   0  0  0  0  0  0  0  0  0  0  0  0
   21.8348  -33.6604   -7.9914 C   0  0  0  0  0  0  0  0  0  0  0  0
   23.2824  -33.4515   -8.2645 C   0  0  2  0  0  0  0  0  0  0  0  0
   23.5621  -34.0586   -9.6035 N   0  0  0  0  0  0  0  0  0  0  0  0
   24.1810  -34.0589   -7.2724 C   0  0  0  0  0  0  0  0  0  0  0  0
   24.3425  -35.3278   -7.3544 O   0  0  0  0  0  0  0  0  0  0  0  0
   24.8849  -33.3857   -6.2498 N   0  0  0  0  0  0  0  0  0  0  0  0
   25.7631  -34.1704   -5.3515 C   0  0  1  0  0  0  0  0  0  0  0  0
   26.5643  -33.2348   -4.4979 C   0  0  0  0  0  0  0  0  0  0  0  0
   27.4869  -33.9594   -3.6052 C   0  0  0  0  0  0  0  0  0  0  0  0
   27.8441  -35.2795   -3.5138 C   0  0  0  0  0  0  0  0  0  0  0  0
   28.8141  -35.4407   -2.5663 N   0  0  0  0  0  0  0  0  0  0  0  0
   29.0535  -34.2339   -2.0806 C   0  0  0  0  0  0  0  0  0  0  0  0
   28.2810  -33.3250   -2.6764 N   0  0  0  0  0  0  0  0  0  0  0  0
   24.8644  -34.9684   -4.4566 C   0  0  0  0  0  0  0  0  0  0  0  0
   25.3077  -36.2254   -4.0272 O   0  0  0  0  0  0  0  0  0  0  0  0
   23.7478  -34.5887   -4.0688 O   0  0  0  0  0  0  0  0  0  0  0  0
  1  2  1  0
  2  3  1  0
  3 11  1  0
  4  3  2  0
  6  7  2  0
  6  5  1  0
  8  6  1  0
  9  8  1  0
 10  9  1  1
 10 12  1  0
 11 10  1  0
 12 13  2  0
 12 14  1  0
 14 15  1  0
 15 16  1  1
 16 17  1  0
 17 18  2  0
 18 19  1  0
 20 19  1  0
 21 17  1  0
 21 20  2  0
 22 15  1  0
 22 23  1  0
 24 22  2  0
M  END
$$$$
