GQH.pdb
     RDKit          3D

 24 24  0  0  1  0  0  0  0  0999 V2000
   25.3645  -20.1315   -8.8686 N   0  0  0  0  0  0  0  0  0  0  0  0
   24.9857  -21.0847   -9.8835 C   0  0  0  0  0  0  0  0  0  0  0  0
   25.1797  -20.5585  -11.2511 C   0  0  0  0  0  0  0  0  0  0  0  0
   25.6290  -19.3979  -11.3820 O   0  0  0  0  0  0  0  0  0  0  0  0
   28.1202  -21.1329  -15.0684 N   0  0  0  0  0  0  0  0  0  0  0  0
   27.2591  -21.0856  -16.1813 C   0  0  0  0  0  0  0  0  0  0  0  0
   27.6610  -20.7201  -17.3145 O   0  0  0  0  0  0  0  0  0  0  0  0
   25.8172  -21.4699  -16.0679 C   0  0  0  0  0  0  0  0  0  0  0  0
   25.4550  -21.8521  -14.6852 C   0  0  0  0  0  0  0  0  0  0  0  0
   25.1608  -20.7127  -13.7748 C   0  0  2  0  0  0  0  0  0  0  0  0
   24.8845  -21.2973  -12.4252 N   0  0  0  0  0  0  0  0  0  0  0  0
   24.0097  -19.8934  -14.1804 C   0  0  0  0  0  0  0  0  0  0  0  0
   22.8513  -20.3582  -13.8891 O   0  0  0  0  0  0  0  0  0  0  0  0
   24.0545  -18.6497  -14.8479 N   0  0  0  0  0  0  0  0  0  0  0  0
   22.7828  -17.9458  -15.1326 C   0  0  1  0  0  0  0  0  0  0  0  0
   23.0803  -16.6011  -15.7235 C   0  0  0  0  0  0  0  0  0  0  0  0
   21.8492  -15.8444  -16.0147 C   0  0  0  0  0  0  0  0  0  0  0  0
   20.9091  -15.9483  -17.0067 C   0  0  0  0  0  0  0  0  0  0  0  0
   19.8949  -15.0599  -16.7897 N   0  0  0  0  0  0  0  0  0  0  0  0
   20.2052  -14.4172  -15.6761 C   0  0  0  0  0  0  0  0  0  0  0  0
   21.3637  -14.8585  -15.1852 N   0  0  0  0  0  0  0  0  0  0  0  0
   22.0583  -18.7600  -16.1610 C   0  0  0  0  0  0  0  0  0  0  0  0
   20.6628  -18.8398  -16.0765 O   0  0  0  0  0  0  0  0  0  0  0  0
   22.6146  -19.3720  -17.0870 O   0  0  0  0  0  0  0  0  0  0  0  0
  1  2  1  0
  2  3  1  0
  3 11  1  0
  4  3  2  0
  6  7  2  0
  6  5  1  0
  8  6  1  0
  9  8  1  0
 10  9  1  6
 10 12  1  0
 11 10  1  0
 12 13  2  0
 12 14  1  0
 14 15  1  0
 15 16  1  6
 16 17  1  0
 17 18  2  0
 18 19  1  0
 20 19  1  0
 21 17  1  0
 21 20  2  0
 22 15  1  0
 22 23  1  0
 24 22  2  0
M  END
$$$$
