GQH.pdb
     RDKit          3D

 24 24  0  0  1  0  0  0  0  0999 V2000
   12.9863  -11.7525   -9.5293 N   0  0  0  0  0  0  0  0  0  0  0  0
   14.3408  -11.5888   -9.9988 C   0  0  0  0  0  0  0  0  0  0  0  0
   14.5973  -10.2280  -10.5159 C   0  0  0  0  0  0  0  0  0  0  0  0
   14.1747   -9.9378  -11.6575 O   0  0  0  0  0  0  0  0  0  0  0  0
   15.3212   -4.8394   -7.3685 N   0  0  0  0  0  0  0  0  0  0  0  0
   14.1464   -5.5667   -7.6386 C   0  0  0  0  0  0  0  0  0  0  0  0
   13.0750   -5.3481   -7.0192 O   0  0  0  0  0  0  0  0  0  0  0  0
   14.1165   -6.6400   -8.6812 C   0  0  0  0  0  0  0  0  0  0  0  0
   15.4610   -6.9050   -9.2391 C   0  0  0  0  0  0  0  0  0  0  0  0
   15.4922   -7.8675  -10.3732 C   0  0  2  0  0  0  0  0  0  0  0  0
   15.2969   -9.2313   -9.7889 N   0  0  0  0  0  0  0  0  0  0  0  0
   16.7442   -7.8575  -11.1434 C   0  0  0  0  0  0  0  0  0  0  0  0
   17.8093   -8.1637  -10.4995 O   0  0  0  0  0  0  0  0  0  0  0  0
   16.8869   -7.5532  -12.5150 N   0  0  0  0  0  0  0  0  0  0  0  0
   18.2448   -7.5422  -13.1065 C   0  0  1  0  0  0  0  0  0  0  0  0
   18.2136   -8.2336  -14.4358 C   0  0  0  0  0  0  0  0  0  0  0  0
   17.7412   -9.6252  -14.3203 C   0  0  0  0  0  0  0  0  0  0  0  0
   16.5110  -10.2047  -14.4920 C   0  0  0  0  0  0  0  0  0  0  0  0
   16.6051  -11.5600  -14.3536 N   0  0  0  0  0  0  0  0  0  0  0  0
   17.8786  -11.8132  -14.1012 C   0  0  0  0  0  0  0  0  0  0  0  0
   18.5866  -10.6837  -14.0741 N   0  0  0  0  0  0  0  0  0  0  0  0
   18.6063   -6.1058  -13.3335 C   0  0  0  0  0  0  0  0  0  0  0  0
   19.8877   -5.8164  -13.8183 O   0  0  0  0  0  0  0  0  0  0  0  0
   17.8428   -5.1505  -13.1191 O   0  0  0  0  0  0  0  0  0  0  0  0
  1  2  1  0
  2  3  1  0
  3 11  1  0
  4  3  2  0
  6  7  2  0
  6  5  1  0
  8  6  1  0
  9  8  1  0
 10  9  1  1
 10 12  1  0
 11 10  1  0
 12 13  2  0
 12 14  1  0
 14 15  1  0
 15 16  1  6
 16 17  1  0
 17 18  2  0
 18 19  1  0
 20 19  1  0
 21 17  1  0
 21 20  2  0
 22 15  1  0
 22 23  1  0
 24 22  2  0
M  END
$$$$
