HWY.pdb
     RDKit          3D

 37 40  0  0  1  0  0  0  0  0999 V2000
   28.2392  -21.6229  -15.1127 N   0  0  0  0  0  0  0  0  0  0  0  0
   27.6965  -20.4409  -14.4099 C   0  0  1  0  0  0  0  0  0  0  0  0
   27.0266  -19.6047  -15.4515 C   0  0  0  0  0  0  0  0  0  0  0  0
   27.9549  -18.8937  -16.3305 C   0  0  0  0  0  0  0  0  0  0  0  0
   28.3525  -19.1939  -17.6205 C   0  0  0  0  0  0  0  0  0  0  0  0
   29.2366  -18.2594  -18.0007 N   0  0  0  0  0  0  0  0  0  0  0  0
   29.4129  -17.3818  -17.0027 C   0  0  0  0  0  0  0  0  0  0  0  0
   28.6368  -17.7740  -16.0035 N   0  0  0  0  0  0  0  0  0  0  0  0
   26.7681  -20.9498  -13.3874 C   0  0  0  0  0  0  0  0  0  0  0  0
   26.1251  -22.0381  -13.6030 O   0  0  0  0  0  0  0  0  0  0  0  0
   26.5304  -20.3156  -12.1520 N   0  0  0  0  0  0  0  0  0  0  0  0
   25.4689  -20.7806  -11.2468 C   0  0  1  0  0  0  0  0  0  0  0  0
   25.7783  -20.1431   -9.8904 C   0  0  0  0  0  0  0  0  0  0  0  0
   27.0429  -20.6277   -9.3078 C   0  0  0  0  0  0  0  0  0  0  0  0
   27.9596  -21.4453  -10.0044 C   0  0  0  0  0  0  0  0  0  0  0  0
   29.0146  -21.6907   -9.2364 N   0  0  0  0  0  0  0  0  0  0  0  0
   28.8827  -21.0933   -8.0513 C   0  0  0  0  0  0  0  0  0  0  0  0
   29.6766  -21.0499   -6.9358 C   0  0  0  0  0  0  0  0  0  0  0  0
   29.2839  -20.3441   -5.8057 C   0  0  0  0  0  0  0  0  0  0  0  0
   28.0726  -19.7023   -5.8696 C   0  0  0  0  0  0  0  0  0  0  0  0
   27.2506  -19.7323   -6.9908 C   0  0  0  0  0  0  0  0  0  0  0  0
   27.6583  -20.4346   -8.0969 C   0  0  0  0  0  0  0  0  0  0  0  0
   24.1526  -20.4415  -11.7524 C   0  0  0  0  0  0  0  0  0  0  0  0
   23.8966  -19.2493  -12.0853 O   0  0  0  0  0  0  0  0  0  0  0  0
   24.1903  -18.9359  -17.9679 O   0  0  0  0  0  0  0  0  0  0  0  0
   23.5185  -19.5871  -16.9191 C   0  0  0  0  0  0  0  0  0  0  0  0
   23.8739  -20.8667  -16.5508 C   0  0  0  0  0  0  0  0  0  0  0  0
   23.2338  -21.5428  -15.5196 C   0  0  0  0  0  0  0  0  0  0  0  0
   22.2075  -20.9362  -14.8276 C   0  0  0  0  0  0  0  0  0  0  0  0
   21.5037  -21.6334  -13.7221 C   0  0  0  0  0  0  0  0  0  0  0  0
   21.8151  -20.9800  -12.3666 C   0  0  2  0  0  0  0  0  0  0  0  0
   23.1060  -21.4278  -11.9012 N   0  0  0  0  0  0  0  0  0  0  0  0
   20.7295  -21.2251  -11.4116 C   0  0  0  0  0  0  0  0  0  0  0  0
   20.9742  -21.8179  -10.3362 O   0  0  0  0  0  0  0  0  0  0  0  0
   21.8536  -19.6563  -15.1976 C   0  0  0  0  0  0  0  0  0  0  0  0
   22.4915  -18.9818  -16.2255 C   0  0  0  0  0  0  0  0  0  0  0  0
   19.4276  -20.8211  -11.6564 O   0  0  0  0  0  0  0  0  0  0  0  0
  2  1  1  6
  3  4  1  0
  3  2  1  0
  4  5  2  0
  6  5  1  0
  7  6  1  0
  8  7  2  0
  8  4  1  0
  9  2  1  0
  9 11  1  0
 10  9  2  0
 12 11  1  0
 12 13  1  1
 14 13  1  0
 14 15  2  0
 16 15  1  0
 17 22  2  0
 17 16  1  0
 18 17  1  0
 19 20  1  0
 19 18  2  0
 20 21  2  0
 21 22  1  0
 22 14  1  0
 23 12  1  0
 24 23  2  0
 25 26  1  0
 26 27  2  0
 26 36  1  0
 27 28  1  0
 28 29  2  0
 29 30  1  0
 31 30  1  6
 31 32  1  0
 32 23  1  0
 33 37  1  0
 33 31  1  0
 34 33  2  0
 35 29  1  0
 36 35  2  0
M  END
$$$$
