HWY.pdb
     RDKit          3D

 37 40  0  0  1  0  0  0  0  0999 V2000
   27.8849  -26.0907  -16.0185 N   0  0  0  0  0  0  0  0  0  0  0  0
   27.9847  -24.9950  -17.0061 C   0  0  1  0  0  0  0  0  0  0  0  0
   27.2088  -25.4380  -18.2038 C   0  0  0  0  0  0  0  0  0  0  0  0
   27.2335  -24.4856  -19.3137 C   0  0  0  0  0  0  0  0  0  0  0  0
   28.1257  -24.3800  -20.3651 C   0  0  0  0  0  0  0  0  0  0  0  0
   27.7472  -23.3343  -21.1152 N   0  0  0  0  0  0  0  0  0  0  0  0
   26.6525  -22.7758  -20.5796 C   0  0  0  0  0  0  0  0  0  0  0  0
   26.3532  -23.4770  -19.4965 N   0  0  0  0  0  0  0  0  0  0  0  0
   27.4247  -23.7962  -16.3613 C   0  0  0  0  0  0  0  0  0  0  0  0
   26.4185  -23.9131  -15.5749 O   0  0  0  0  0  0  0  0  0  0  0  0
   27.9290  -22.4935  -16.5444 N   0  0  0  0  0  0  0  0  0  0  0  0
   27.3653  -21.3471  -15.8162 C   0  0  1  0  0  0  0  0  0  0  0  0
   28.3763  -20.2119  -15.9927 C   0  0  0  0  0  0  0  0  0  0  0  0
   27.9234  -18.9460  -15.3879 C   0  0  0  0  0  0  0  0  0  0  0  0
   27.7864  -18.7518  -13.9959 C   0  0  0  0  0  0  0  0  0  0  0  0
   27.3947  -17.5064  -13.7536 N   0  0  0  0  0  0  0  0  0  0  0  0
   27.2521  -16.8282  -14.8931 C   0  0  0  0  0  0  0  0  0  0  0  0
   26.8689  -15.5428  -15.1710 C   0  0  0  0  0  0  0  0  0  0  0  0
   26.7931  -15.0865  -16.4808 C   0  0  0  0  0  0  0  0  0  0  0  0
   27.1188  -15.9844  -17.4662 C   0  0  0  0  0  0  0  0  0  0  0  0
   27.5104  -17.2933  -17.2077 C   0  0  0  0  0  0  0  0  0  0  0  0
   27.5799  -17.7231  -15.9064 C   0  0  0  0  0  0  0  0  0  0  0  0
   26.0383  -21.0125  -16.2962 C   0  0  0  0  0  0  0  0  0  0  0  0
   25.6412  -21.4644  -17.4079 O   0  0  0  0  0  0  0  0  0  0  0  0
   18.8014  -24.2494  -13.3994 O   0  0  0  0  0  0  0  0  0  0  0  0
   20.0710  -23.7180  -13.6842 C   0  0  0  0  0  0  0  0  0  0  0  0
   20.4033  -22.4454  -13.2724 C   0  0  0  0  0  0  0  0  0  0  0  0
   21.6477  -21.8860  -13.5346 C   0  0  0  0  0  0  0  0  0  0  0  0
   22.5974  -22.6063  -14.2270 C   0  0  0  0  0  0  0  0  0  0  0  0
   23.9352  -22.0352  -14.5234 C   0  0  0  0  0  0  0  0  0  0  0  0
   23.8144  -20.6902  -15.2565 C   0  0  2  0  0  0  0  0  0  0  0  0
   25.1330  -20.1761  -15.5405 N   0  0  0  0  0  0  0  0  0  0  0  0
   22.9729  -19.7598  -14.4968 C   0  0  0  0  0  0  0  0  0  0  0  0
   21.7692  -20.0391  -14.2945 O   0  0  0  0  0  0  0  0  0  0  0  0
   22.2630  -23.8789  -14.6379 C   0  0  0  0  0  0  0  0  0  0  0  0
   21.0226  -24.4372  -14.3767 C   0  0  0  0  0  0  0  0  0  0  0  0
   23.4645  -18.5692  -13.9880 O   0  0  0  0  0  0  0  0  0  0  0  0
  2  1  1  1
  3  4  1  0
  3  2  1  0
  4  5  2  0
  6  5  1  0
  7  6  1  0
  8  7  2  0
  8  4  1  0
  9  2  1  0
  9 11  1  0
 10  9  2  0
 12 11  1  0
 12 13  1  6
 14 13  1  0
 14 15  2  0
 16 15  1  0
 17 22  2  0
 17 16  1  0
 18 17  1  0
 19 20  1  0
 19 18  2  0
 20 21  2  0
 21 22  1  0
 22 14  1  0
 23 12  1  0
 24 23  2  0
 25 26  1  0
 26 27  2  0
 26 36  1  0
 27 28  1  0
 28 29  2  0
 29 30  1  0
 31 30  1  1
 31 32  1  0
 32 23  1  0
 33 37  1  0
 33 31  1  0
 34 33  2  0
 35 29  1  0
 36 35  2  0
M  END
$$$$
