HWY.pdb
     RDKit          3D

 37 40  0  0  1  0  0  0  0  0999 V2000
   28.8095  -23.2939  -17.6169 N   0  0  0  0  0  0  0  0  0  0  0  0
   28.1010  -22.0153  -17.3958 C   0  0  1  0  0  0  0  0  0  0  0  0
   27.1133  -21.8851  -18.5095 C   0  0  0  0  0  0  0  0  0  0  0  0
   27.7136  -21.5464  -19.7998 C   0  0  0  0  0  0  0  0  0  0  0  0
   27.8252  -22.3095  -20.9476 C   0  0  0  0  0  0  0  0  0  0  0  0
   28.4751  -21.5743  -21.8623 N   0  0  0  0  0  0  0  0  0  0  0  0
   28.7779  -20.3782  -21.3380 C   0  0  0  0  0  0  0  0  0  0  0  0
   28.3148  -20.3735  -20.0970 N   0  0  0  0  0  0  0  0  0  0  0  0
   27.4716  -22.1080  -16.0685 C   0  0  0  0  0  0  0  0  0  0  0  0
   26.9185  -23.2068  -15.7065 O   0  0  0  0  0  0  0  0  0  0  0  0
   27.4352  -21.0515  -15.1372 N   0  0  0  0  0  0  0  0  0  0  0  0
   26.8801  -21.2411  -13.7887 C   0  0  1  0  0  0  0  0  0  0  0  0
   27.6045  -20.2269  -12.9007 C   0  0  0  0  0  0  0  0  0  0  0  0
   27.1598  -20.2788  -11.4961 C   0  0  0  0  0  0  0  0  0  0  0  0
   25.8734  -19.8818  -11.0702 C   0  0  0  0  0  0  0  0  0  0  0  0
   25.7559  -20.0727   -9.7614 N   0  0  0  0  0  0  0  0  0  0  0  0
   26.8827  -20.5769   -9.2567 C   0  0  0  0  0  0  0  0  0  0  0  0
   27.2584  -20.9333   -7.9886 C   0  0  0  0  0  0  0  0  0  0  0  0
   28.5284  -21.4350   -7.7334 C   0  0  0  0  0  0  0  0  0  0  0  0
   29.3729  -21.5511   -8.8088 C   0  0  0  0  0  0  0  0  0  0  0  0
   29.0132  -21.1960  -10.1042 C   0  0  0  0  0  0  0  0  0  0  0  0
   27.7532  -20.7037  -10.3344 C   0  0  0  0  0  0  0  0  0  0  0  0
   25.4384  -21.0835  -13.7801 C   0  0  0  0  0  0  0  0  0  0  0  0
   24.9053  -20.1528  -14.4490 O   0  0  0  0  0  0  0  0  0  0  0  0
   16.7870  -21.8450  -12.2297 O   0  0  0  0  0  0  0  0  0  0  0  0
   18.1664  -22.1067  -12.2945 C   0  0  0  0  0  0  0  0  0  0  0  0
   18.7751  -22.3464  -13.5075 C   0  0  0  0  0  0  0  0  0  0  0  0
   20.1354  -22.6086  -13.6119 C   0  0  0  0  0  0  0  0  0  0  0  0
   20.9230  -22.6353  -12.4809 C   0  0  0  0  0  0  0  0  0  0  0  0
   22.3790  -22.9138  -12.5603 C   0  0  0  0  0  0  0  0  0  0  0  0
   23.1581  -21.6692  -13.0132 C   0  0  2  0  0  0  0  0  0  0  0  0
   24.5707  -21.9656  -13.0323 N   0  0  0  0  0  0  0  0  0  0  0  0
   22.8127  -20.5110  -12.1825 C   0  0  0  0  0  0  0  0  0  0  0  0
   23.3543  -20.3699  -11.0624 O   0  0  0  0  0  0  0  0  0  0  0  0
   20.3122  -22.3953  -11.2686 C   0  0  0  0  0  0  0  0  0  0  0  0
   18.9561  -22.1338  -11.1640 C   0  0  0  0  0  0  0  0  0  0  0  0
   21.8992  -19.5551  -12.5944 O   0  0  0  0  0  0  0  0  0  0  0  0
  2  1  1  6
  3  4  1  0
  3  2  1  0
  4  5  2  0
  6  5  1  0
  7  6  1  0
  8  7  2  0
  8  4  1  0
  9  2  1  0
  9 11  1  0
 10  9  2  0
 12 11  1  0
 12 13  1  1
 14 13  1  0
 14 15  2  0
 16 15  1  0
 17 22  2  0
 17 16  1  0
 18 17  1  0
 19 20  1  0
 19 18  2  0
 20 21  2  0
 21 22  1  0
 22 14  1  0
 23 12  1  0
 24 23  2  0
 25 26  1  0
 26 27  2  0
 26 36  1  0
 27 28  1  0
 28 29  2  0
 29 30  1  0
 31 30  1  1
 31 32  1  0
 32 23  1  0
 33 37  1  0
 33 31  1  0
 34 33  2  0
 35 29  1  0
 36 35  2  0
M  END
$$$$
