HWY.pdb
     RDKit          3D

 37 40  0  0  1  0  0  0  0  0999 V2000
   16.4745  -31.2504    1.2511 N   0  0  0  0  0  0  0  0  0  0  0  0
   16.2849  -30.8649    2.6657 C   0  0  1  0  0  0  0  0  0  0  0  0
   16.2817  -32.1368    3.4500 C   0  0  0  0  0  0  0  0  0  0  0  0
   15.1116  -32.9809    3.2088 C   0  0  0  0  0  0  0  0  0  0  0  0
   15.0437  -34.2823    2.7461 C   0  0  0  0  0  0  0  0  0  0  0  0
   13.7474  -34.6181    2.6675 N   0  0  0  0  0  0  0  0  0  0  0  0
   12.9946  -33.5813    3.0618 C   0  0  0  0  0  0  0  0  0  0  0  0
   13.8265  -32.6024    3.3848 N   0  0  0  0  0  0  0  0  0  0  0  0
   17.4027  -29.9718    3.0111 C   0  0  0  0  0  0  0  0  0  0  0  0
   18.5885  -30.2626    2.6191 O   0  0  0  0  0  0  0  0  0  0  0  0
   17.2625  -28.7846    3.7565 N   0  0  0  0  0  0  0  0  0  0  0  0
   18.4144  -27.9106    4.0244 C   0  0  1  0  0  0  0  0  0  0  0  0
   18.0597  -26.5608    3.3967 C   0  0  0  0  0  0  0  0  0  0  0  0
   18.6772  -26.3682    2.0720 C   0  0  0  0  0  0  0  0  0  0  0  0
   18.0430  -26.7128    0.8583 C   0  0  0  0  0  0  0  0  0  0  0  0
   18.8279  -26.3935   -0.1640 N   0  0  0  0  0  0  0  0  0  0  0  0
   19.9661  -25.8497    0.2690 C   0  0  0  0  0  0  0  0  0  0  0  0
   21.0762  -25.3731   -0.3767 C   0  0  0  0  0  0  0  0  0  0  0  0
   22.1514  -24.8573    0.3356 C   0  0  0  0  0  0  0  0  0  0  0  0
   22.0398  -24.8530    1.7034 C   0  0  0  0  0  0  0  0  0  0  0  0
   20.9230  -25.3312    2.3800 C   0  0  0  0  0  0  0  0  0  0  0  0
   19.8714  -25.8353    1.6568 C   0  0  0  0  0  0  0  0  0  0  0  0
   18.6986  -27.8254    5.4440 C   0  0  0  0  0  0  0  0  0  0  0  0
   17.7841  -27.4841    6.2472 O   0  0  0  0  0  0  0  0  0  0  0  0
   16.7047  -33.3084    8.3756 O   0  0  0  0  0  0  0  0  0  0  0  0
   17.6981  -32.3177    8.2920 C   0  0  0  0  0  0  0  0  0  0  0  0
   18.5344  -32.2585    7.1983 C   0  0  0  0  0  0  0  0  0  0  0  0
   19.5276  -31.2942    7.0797 C   0  0  0  0  0  0  0  0  0  0  0  0
   19.7021  -30.3557    8.0741 C   0  0  0  0  0  0  0  0  0  0  0  0
   20.7552  -29.3140    7.9765 C   0  0  0  0  0  0  0  0  0  0  0  0
   20.1869  -28.0014    7.4150 C   0  0  2  0  0  0  0  0  0  0  0  0
   20.0034  -28.1270    5.9887 N   0  0  0  0  0  0  0  0  0  0  0  0
   21.0300  -26.8649    7.8004 C   0  0  0  0  0  0  0  0  0  0  0  0
   21.5126  -26.1244    6.9136 O   0  0  0  0  0  0  0  0  0  0  0  0
   18.8645  -30.4167    9.1672 C   0  0  0  0  0  0  0  0  0  0  0  0
   17.8742  -31.3778    9.2859 C   0  0  0  0  0  0  0  0  0  0  0  0
   21.3164  -26.5756    9.1241 O   0  0  0  0  0  0  0  0  0  0  0  0
  2  1  1  6
  3  4  1  0
  3  2  1  0
  4  5  2  0
  6  5  1  0
  7  6  1  0
  8  7  2  0
  8  4  1  0
  9  2  1  0
  9 11  1  0
 10  9  2  0
 12 11  1  0
 12 13  1  1
 14 13  1  0
 14 15  2  0
 16 15  1  0
 17 22  2  0
 17 16  1  0
 18 17  1  0
 19 20  1  0
 19 18  2  0
 20 21  2  0
 21 22  1  0
 22 14  1  0
 23 12  1  0
 24 23  2  0
 25 26  1  0
 26 27  2  0
 26 36  1  0
 27 28  1  0
 28 29  2  0
 29 30  1  0
 31 30  1  6
 31 32  1  0
 32 23  1  0
 33 37  1  0
 33 31  1  0
 34 33  2  0
 35 29  1  0
 36 35  2  0
M  END
$$$$
