HWY.pdb
     RDKit          3D

 37 40  0  0  1  0  0  0  0  0999 V2000
   29.6419  -22.4279  -17.2453 N   0  0  0  0  0  0  0  0  0  0  0  0
   28.3500  -21.7099  -17.2800 C   0  0  1  0  0  0  0  0  0  0  0  0
   27.5689  -22.3066  -18.4054 C   0  0  0  0  0  0  0  0  0  0  0  0
   27.8108  -21.6700  -19.7001 C   0  0  0  0  0  0  0  0  0  0  0  0
   28.6643  -20.6320  -20.0264 C   0  0  0  0  0  0  0  0  0  0  0  0
   28.5186  -20.3831  -21.3364 N   0  0  0  0  0  0  0  0  0  0  0  0
   27.6077  -21.2219  -21.8498 C   0  0  0  0  0  0  0  0  0  0  0  0
   27.1891  -21.9910  -20.8560 N   0  0  0  0  0  0  0  0  0  0  0  0
   27.7215  -21.9123  -15.9646 C   0  0  0  0  0  0  0  0  0  0  0  0
   27.8332  -23.0475  -15.3785 O   0  0  0  0  0  0  0  0  0  0  0  0
   26.9903  -20.9224  -15.2789 N   0  0  0  0  0  0  0  0  0  0  0  0
   26.5247  -21.1344  -13.9003 C   0  0  1  0  0  0  0  0  0  0  0  0
   27.2574  -20.0903  -13.0548 C   0  0  0  0  0  0  0  0  0  0  0  0
   26.9406  -20.1952  -11.6189 C   0  0  0  0  0  0  0  0  0  0  0  0
   25.6631  -19.9269  -11.0804 C   0  0  0  0  0  0  0  0  0  0  0  0
   25.6759  -20.1380   -9.7696 N   0  0  0  0  0  0  0  0  0  0  0  0
   26.8844  -20.5351   -9.3690 C   0  0  0  0  0  0  0  0  0  0  0  0
   27.3988  -20.8631   -8.1425 C   0  0  0  0  0  0  0  0  0  0  0  0
   28.7278  -21.2421   -8.0026 C   0  0  0  0  0  0  0  0  0  0  0  0
   29.4851  -21.2685   -9.1467 C   0  0  0  0  0  0  0  0  0  0  0  0
   28.9845  -20.9400  -10.4017 C   0  0  0  0  0  0  0  0  0  0  0  0
   27.6683  -20.5695  -10.5177 C   0  0  0  0  0  0  0  0  0  0  0  0
   25.0807  -21.0375  -13.8059 C   0  0  0  0  0  0  0  0  0  0  0  0
   24.4816  -20.0605  -14.3391 O   0  0  0  0  0  0  0  0  0  0  0  0
   16.5910  -22.1941  -11.6915 O   0  0  0  0  0  0  0  0  0  0  0  0
   17.9816  -22.3693  -11.7959 C   0  0  0  0  0  0  0  0  0  0  0  0
   18.5437  -22.8026  -12.9773 C   0  0  0  0  0  0  0  0  0  0  0  0
   19.9133  -22.9873  -13.1191 C   0  0  0  0  0  0  0  0  0  0  0  0
   20.7581  -22.7362  -12.0592 C   0  0  0  0  0  0  0  0  0  0  0  0
   22.2256  -22.9255  -12.1797 C   0  0  0  0  0  0  0  0  0  0  0  0
   22.8643  -21.7989  -13.0067 C   0  0  2  0  0  0  0  0  0  0  0  0
   24.2841  -22.0319  -13.1227 N   0  0  0  0  0  0  0  0  0  0  0  0
   22.5291  -20.4876  -12.4419 C   0  0  0  0  0  0  0  0  0  0  0  0
   23.0505  -20.1280  -11.3618 O   0  0  0  0  0  0  0  0  0  0  0  0
   20.1939  -22.3030  -10.8784 C   0  0  0  0  0  0  0  0  0  0  0  0
   18.8284  -22.1186  -10.7365 C   0  0  0  0  0  0  0  0  0  0  0  0
   21.6469  -19.6207  -13.0651 O   0  0  0  0  0  0  0  0  0  0  0  0
  2  1  1  1
  3  4  1  0
  3  2  1  0
  4  5  2  0
  6  5  1  0
  7  6  1  0
  8  7  2  0
  8  4  1  0
  9  2  1  0
  9 11  1  0
 10  9  2  0
 12 11  1  0
 12 13  1  1
 14 13  1  0
 14 15  2  0
 16 15  1  0
 17 22  2  0
 17 16  1  0
 18 17  1  0
 19 20  1  0
 19 18  2  0
 20 21  2  0
 21 22  1  0
 22 14  1  0
 23 12  1  0
 24 23  2  0
 25 26  1  0
 26 27  2  0
 26 36  1  0
 27 28  1  0
 28 29  2  0
 29 30  1  0
 31 30  1  1
 31 32  1  0
 32 23  1  0
 33 37  1  0
 33 31  1  0
 34 33  2  0
 35 29  1  0
 36 35  2  0
M  END
$$$$
