HWY.pdb
     RDKit          3D

 37 40  0  0  1  0  0  0  0  0999 V2000
   26.9883  -21.9979  -16.9784 N   0  0  0  0  0  0  0  0  0  0  0  0
   26.6656  -20.7496  -16.2550 C   0  0  1  0  0  0  0  0  0  0  0  0
   25.6867  -20.0112  -17.1090 C   0  0  0  0  0  0  0  0  0  0  0  0
   26.3017  -19.2529  -18.1983 C   0  0  0  0  0  0  0  0  0  0  0  0
   26.6811  -17.9238  -18.2428 C   0  0  0  0  0  0  0  0  0  0  0  0
   27.1775  -17.6840  -19.4657 N   0  0  0  0  0  0  0  0  0  0  0  0
   27.1266  -18.8080  -20.1946 C   0  0  0  0  0  0  0  0  0  0  0  0
   26.5978  -19.7446  -19.4215 N   0  0  0  0  0  0  0  0  0  0  0  0
   26.1131  -21.1506  -14.9511 C   0  0  0  0  0  0  0  0  0  0  0  0
   25.2664  -22.1120  -14.8920 O   0  0  0  0  0  0  0  0  0  0  0  0
   26.4587  -20.5438  -13.7275 N   0  0  0  0  0  0  0  0  0  0  0  0
   25.8561  -20.9833  -12.4602 C   0  0  1  0  0  0  0  0  0  0  0  0
   26.9404  -20.7824  -11.3991 C   0  0  0  0  0  0  0  0  0  0  0  0
   26.4357  -20.9663  -10.0263 C   0  0  0  0  0  0  0  0  0  0  0  0
   25.8297  -22.1578   -9.5712 C   0  0  0  0  0  0  0  0  0  0  0  0
   25.5096  -22.0362   -8.2883 N   0  0  0  0  0  0  0  0  0  0  0  0
   25.8569  -20.8332   -7.8290 C   0  0  0  0  0  0  0  0  0  0  0  0
   25.7355  -20.2326   -6.6039 C   0  0  0  0  0  0  0  0  0  0  0  0
   26.1826  -18.9338   -6.3969 C   0  0  0  0  0  0  0  0  0  0  0  0
   26.7444  -18.2960   -7.4743 C   0  0  0  0  0  0  0  0  0  0  0  0
   26.8781  -18.8858   -8.7264 C   0  0  0  0  0  0  0  0  0  0  0  0
   26.4309  -20.1702   -8.9089 C   0  0  0  0  0  0  0  0  0  0  0  0
   24.6328  -20.2590  -12.1736 C   0  0  0  0  0  0  0  0  0  0  0  0
   24.5304  -19.0442  -12.5077 O   0  0  0  0  0  0  0  0  0  0  0  0
   20.1726  -23.6903  -16.1326 O   0  0  0  0  0  0  0  0  0  0  0  0
   20.5911  -22.6571  -15.2767 C   0  0  0  0  0  0  0  0  0  0  0  0
   19.8973  -22.3876  -14.1168 C   0  0  0  0  0  0  0  0  0  0  0  0
   20.2802  -21.3751  -13.2458 C   0  0  0  0  0  0  0  0  0  0  0  0
   21.3855  -20.6014  -13.5284 C   0  0  0  0  0  0  0  0  0  0  0  0
   21.8185  -19.5118  -12.6180 C   0  0  0  0  0  0  0  0  0  0  0  0
   22.3299  -20.0746  -11.2827 C   0  0  2  0  0  0  0  0  0  0  0  0
   23.5041  -20.8805  -11.5178 N   0  0  0  0  0  0  0  0  0  0  0  0
   21.2601  -20.7878  -10.5773 C   0  0  0  0  0  0  0  0  0  0  0  0
   21.3748  -22.0155  -10.3594 O   0  0  0  0  0  0  0  0  0  0  0  0
   22.0780  -20.8726  -14.6890 C   0  0  0  0  0  0  0  0  0  0  0  0
   21.6968  -21.8820  -15.5576 C   0  0  0  0  0  0  0  0  0  0  0  0
   20.1135  -20.1478  -10.1373 O   0  0  0  0  0  0  0  0  0  0  0  0
  2  1  1  6
  3  4  1  0
  3  2  1  0
  4  5  2  0
  6  5  1  0
  7  6  1  0
  8  7  2  0
  8  4  1  0
  9  2  1  0
  9 11  1  0
 10  9  2  0
 12 11  1  0
 12 13  1  1
 14 13  1  0
 14 15  2  0
 16 15  1  0
 17 22  2  0
 17 16  1  0
 18 17  1  0
 19 20  1  0
 19 18  2  0
 20 21  2  0
 21 22  1  0
 22 14  1  0
 23 12  1  0
 24 23  2  0
 25 26  1  0
 26 27  2  0
 26 36  1  0
 27 28  1  0
 28 29  2  0
 29 30  1  0
 31 30  1  6
 31 32  1  0
 32 23  1  0
 33 37  1  0
 33 31  1  0
 34 33  2  0
 35 29  1  0
 36 35  2  0
M  END
$$$$
