HWY.pdb
     RDKit          3D

 37 40  0  0  1  0  0  0  0  0999 V2000
   26.0252  -34.1268  -17.0951 N   0  0  0  0  0  0  0  0  0  0  0  0
   26.0428  -33.5738  -15.7241 C   0  0  1  0  0  0  0  0  0  0  0  0
   26.4968  -32.1557  -15.8497 C   0  0  0  0  0  0  0  0  0  0  0  0
   27.9220  -32.0119  -16.1462 C   0  0  0  0  0  0  0  0  0  0  0  0
   28.5477  -31.2591  -17.1230 C   0  0  0  0  0  0  0  0  0  0  0  0
   29.8680  -31.4698  -17.0145 N   0  0  0  0  0  0  0  0  0  0  0  0
   30.1007  -32.3251  -16.0088 C   0  0  0  0  0  0  0  0  0  0  0  0
   28.9225  -32.6442  -15.4943 N   0  0  0  0  0  0  0  0  0  0  0  0
   24.6726  -33.7015  -15.2021 C   0  0  0  0  0  0  0  0  0  0  0  0
   23.6767  -33.5106  -15.9872 O   0  0  0  0  0  0  0  0  0  0  0  0
   24.3643  -34.0326  -13.8679 N   0  0  0  0  0  0  0  0  0  0  0  0
   22.9709  -34.1544  -13.4138 C   0  0  1  0  0  0  0  0  0  0  0  0
   22.9447  -35.3776  -12.4945 C   0  0  0  0  0  0  0  0  0  0  0  0
   22.8351  -36.6465  -13.2369 C   0  0  0  0  0  0  0  0  0  0  0  0
   23.8649  -37.1642  -14.0528 C   0  0  0  0  0  0  0  0  0  0  0  0
   23.4893  -38.3316  -14.5618 N   0  0  0  0  0  0  0  0  0  0  0  0
   22.2626  -38.6522  -14.1481 C   0  0  0  0  0  0  0  0  0  0  0  0
   21.4466  -39.7247  -14.3937 C   0  0  0  0  0  0  0  0  0  0  0  0
   20.1800  -39.8036  -13.8290 C   0  0  0  0  0  0  0  0  0  0  0  0
   19.7982  -38.7607  -13.0229 C   0  0  0  0  0  0  0  0  0  0  0  0
   20.6095  -37.6625  -12.7594 C   0  0  0  0  0  0  0  0  0  0  0  0
   21.8577  -37.6052  -13.3265 C   0  0  0  0  0  0  0  0  0  0  0  0
   22.5150  -32.9402  -12.7650 C   0  0  0  0  0  0  0  0  0  0  0  0
   23.3383  -32.0127  -12.5205 O   0  0  0  0  0  0  0  0  0  0  0  0
   19.0218  -25.3054  -11.2002 O   0  0  0  0  0  0  0  0  0  0  0  0
   19.5269  -26.5487  -11.6178 C   0  0  0  0  0  0  0  0  0  0  0  0
   18.7016  -27.4675  -12.2294 C   0  0  0  0  0  0  0  0  0  0  0  0
   19.1641  -28.7061  -12.6561 C   0  0  0  0  0  0  0  0  0  0  0  0
   20.4862  -29.0509  -12.4734 C   0  0  0  0  0  0  0  0  0  0  0  0
   21.0094  -30.3672  -12.9174 C   0  0  0  0  0  0  0  0  0  0  0  0
   20.7576  -31.4507  -11.8573 C   0  0  2  0  0  0  0  0  0  0  0  0
   21.1340  -32.7397  -12.3869 N   0  0  0  0  0  0  0  0  0  0  0  0
   19.3727  -31.3948  -11.3780 C   0  0  0  0  0  0  0  0  0  0  0  0
   18.9898  -30.4092  -10.7074 O   0  0  0  0  0  0  0  0  0  0  0  0
   21.3099  -28.1304  -11.8615 C   0  0  0  0  0  0  0  0  0  0  0  0
   20.8495  -26.8954  -11.4359 C   0  0  0  0  0  0  0  0  0  0  0  0
   18.4605  -32.4029  -11.6420 O   0  0  0  0  0  0  0  0  0  0  0  0
  2  1  1  6
  3  4  1  0
  3  2  1  0
  4  5  2  0
  6  5  1  0
  7  6  1  0
  8  7  2  0
  8  4  1  0
  9  2  1  0
  9 11  1  0
 10  9  2  0
 12 11  1  0
 12 13  1  1
 14 13  1  0
 14 15  2  0
 16 15  1  0
 17 22  2  0
 17 16  1  0
 18 17  1  0
 19 20  1  0
 19 18  2  0
 20 21  2  0
 21 22  1  0
 22 14  1  0
 23 12  1  0
 24 23  2  0
 25 26  1  0
 26 27  2  0
 26 36  1  0
 27 28  1  0
 28 29  2  0
 29 30  1  0
 31 30  1  6
 31 32  1  0
 32 23  1  0
 33 37  1  0
 33 31  1  0
 34 33  2  0
 35 29  1  0
 36 35  2  0
M  END
$$$$
