HWY.pdb
     RDKit          3D

 37 40  0  0  1  0  0  0  0  0999 V2000
   37.1002  -33.2175  -15.9481 N   0  0  0  0  0  0  0  0  0  0  0  0
   36.1963  -34.3272  -15.5775 C   0  0  1  0  0  0  0  0  0  0  0  0
   35.4448  -33.8703  -14.3695 C   0  0  0  0  0  0  0  0  0  0  0  0
   36.1519  -34.0960  -13.1090 C   0  0  0  0  0  0  0  0  0  0  0  0
   37.3756  -34.6980  -12.8801 C   0  0  0  0  0  0  0  0  0  0  0  0
   37.5898  -34.6919  -11.5560 N   0  0  0  0  0  0  0  0  0  0  0  0
   36.5506  -34.1105  -10.9401 C   0  0  0  0  0  0  0  0  0  0  0  0
   35.6922  -33.7563  -11.8846 N   0  0  0  0  0  0  0  0  0  0  0  0
   35.3309  -34.5709  -16.7429 C   0  0  0  0  0  0  0  0  0  0  0  0
   34.9621  -33.5839  -17.4739 O   0  0  0  0  0  0  0  0  0  0  0  0
   34.8686  -35.8443  -17.1297 N   0  0  0  0  0  0  0  0  0  0  0  0
   33.7631  -35.9970  -18.0873 C   0  0  1  0  0  0  0  0  0  0  0  0
   33.9326  -37.3933  -18.6901 C   0  0  0  0  0  0  0  0  0  0  0  0
   34.7508  -37.3894  -19.9164 C   0  0  0  0  0  0  0  0  0  0  0  0
   36.1581  -37.5066  -19.9153 C   0  0  0  0  0  0  0  0  0  0  0  0
   36.6088  -37.5047  -21.1643 N   0  0  0  0  0  0  0  0  0  0  0  0
   35.5992  -37.3927  -22.0285 C   0  0  0  0  0  0  0  0  0  0  0  0
   35.5447  -37.3368  -23.3960 C   0  0  0  0  0  0  0  0  0  0  0  0
   34.3310  -37.2045  -24.0585 C   0  0  0  0  0  0  0  0  0  0  0  0
   33.2059  -37.1335  -23.2758 C   0  0  0  0  0  0  0  0  0  0  0  0
   33.2372  -37.1884  -21.8868 C   0  0  0  0  0  0  0  0  0  0  0  0
   34.4469  -37.3207  -21.2525 C   0  0  0  0  0  0  0  0  0  0  0  0
   32.4758  -35.8008  -17.4489 C   0  0  0  0  0  0  0  0  0  0  0  0
   32.3025  -36.1825  -16.2564 O   0  0  0  0  0  0  0  0  0  0  0  0
   25.8414  -32.9629  -13.0497 O   0  0  0  0  0  0  0  0  0  0  0  0
   26.9844  -33.2261  -13.8241 C   0  0  0  0  0  0  0  0  0  0  0  0
   27.6543  -32.1979  -14.4514 C   0  0  0  0  0  0  0  0  0  0  0  0
   28.7873  -32.4184  -15.2246 C   0  0  0  0  0  0  0  0  0  0  0  0
   29.2767  -33.6970  -15.3850 C   0  0  0  0  0  0  0  0  0  0  0  0
   30.4843  -33.9643  -16.2060 C   0  0  0  0  0  0  0  0  0  0  0  0
   30.1647  -34.9154  -17.3698 C   0  0  2  0  0  0  0  0  0  0  0  0
   31.3664  -35.1696  -18.1280 N   0  0  0  0  0  0  0  0  0  0  0  0
   29.0600  -34.3909  -18.1792 C   0  0  0  0  0  0  0  0  0  0  0  0
   27.9519  -34.9739  -18.1647 O   0  0  0  0  0  0  0  0  0  0  0  0
   28.6051  -34.7239  -14.7567 C   0  0  0  0  0  0  0  0  0  0  0  0
   27.4755  -34.5047  -13.9857 C   0  0  0  0  0  0  0  0  0  0  0  0
   29.1967  -33.2614  -18.9688 O   0  0  0  0  0  0  0  0  0  0  0  0
  2  1  1  6
  3  4  1  0
  3  2  1  0
  4  5  2  0
  6  5  1  0
  7  6  1  0
  8  7  2  0
  8  4  1  0
  9  2  1  0
  9 11  1  0
 10  9  2  0
 12 11  1  0
 12 13  1  1
 14 13  1  0
 14 15  2  0
 16 15  1  0
 17 22  2  0
 17 16  1  0
 18 17  1  0
 19 20  1  0
 19 18  2  0
 20 21  2  0
 21 22  1  0
 22 14  1  0
 23 12  1  0
 24 23  2  0
 25 26  1  0
 26 27  2  0
 26 36  1  0
 27 28  1  0
 28 29  2  0
 29 30  1  0
 31 30  1  1
 31 32  1  0
 32 23  1  0
 33 37  1  0
 33 31  1  0
 34 33  2  0
 35 29  1  0
 36 35  2  0
M  END
$$$$
