TQY.pdb
     RDKit          3D

 29 29  0  0  1  0  0  0  0  0999 V2000
   22.3398  -16.6840  -17.5426 C   0  0  0  0  0  0  0  0  0  0  0  0
   22.3282  -15.1711  -17.5309 C   0  0  1  0  0  0  0  0  0  0  0  0
   23.5884  -14.6658  -17.8067 O   0  0  0  0  0  0  0  0  0  0  0  0
   21.3441  -14.6636  -18.5481 C   0  0  2  0  0  0  0  0  0  0  0  0
   21.7559  -15.0080  -19.8896 N   0  0  0  0  0  0  0  0  0  0  0  0
   21.2346  -13.1895  -18.4803 C   0  0  0  0  0  0  0  0  0  0  0  0
   21.6889  -12.4223  -19.3698 O   0  0  0  0  0  0  0  0  0  0  0  0
   16.1964  -10.3860  -16.6002 N   0  0  0  0  0  0  0  0  0  0  0  0
   17.0733   -9.2675  -16.8078 C   0  0  0  0  0  0  0  0  0  0  0  0
   16.6258   -8.0974  -16.7683 O   0  0  0  0  0  0  0  0  0  0  0  0
   18.5019   -9.4843  -17.0669 C   0  0  0  0  0  0  0  0  0  0  0  0
   18.9278  -10.9036  -17.1116 C   0  0  0  0  0  0  0  0  0  0  0  0
   20.4027  -11.1227  -17.3514 C   0  0  2  0  0  0  0  0  0  0  0  0
   20.5898  -12.5703  -17.3689 N   0  0  0  0  0  0  0  0  0  0  0  0
   21.1196  -10.4918  -16.2379 C   0  0  0  0  0  0  0  0  0  0  0  0
   21.0572  -10.9810  -15.0946 O   0  0  0  0  0  0  0  0  0  0  0  0
   27.3981  -12.5323  -17.1860 O   0  0  0  0  0  0  0  0  0  0  0  0
   26.5567  -11.4677  -16.8620 C   0  0  0  0  0  0  0  0  0  0  0  0
   25.5139  -11.1068  -17.6867 C   0  0  0  0  0  0  0  0  0  0  0  0
   24.6774  -10.0594  -17.3782 C   0  0  0  0  0  0  0  0  0  0  0  0
   24.8552   -9.3175  -16.2094 C   0  0  0  0  0  0  0  0  0  0  0  0
   23.9588   -8.1935  -15.8997 C   0  0  0  0  0  0  0  0  0  0  0  0
   22.6155   -8.6501  -15.3816 C   0  0  2  0  0  0  0  0  0  0  0  0
   21.8844   -9.3281  -16.4508 N   0  0  0  0  0  0  0  0  0  0  0  0
   21.8283   -7.5186  -14.8712 C   0  0  0  0  0  0  0  0  0  0  0  0
   22.1661   -6.9538  -13.6288 O   0  0  0  0  0  0  0  0  0  0  0  0
   25.9070   -9.6974  -15.3988 C   0  0  0  0  0  0  0  0  0  0  0  0
   26.7457  -10.7540  -15.7159 C   0  0  0  0  0  0  0  0  0  0  0  0
   20.8636   -6.9988  -15.4518 O   0  0  0  0  0  0  0  0  0  0  0  0
  2  1  1  6
  2  3  1  0
  4  2  1  0
  4  5  1  6
  6  7  2  0
  6  4  1  0
  9  8  1  0
 10  9  2  0
 11  9  1  0
 12 11  1  0
 13 12  1  1
 13 14  1  0
 14  6  1  0
 15 24  1  0
 15 13  1  0
 16 15  2  0
 18 19  2  0
 18 17  1  0
 20 19  1  0
 21 20  2  0
 22 21  1  0
 23 24  1  0
 23 22  1  6
 25 23  1  0
 26 25  1  0
 27 21  1  0
 27 28  2  0
 28 18  1  0
 29 25  2  0
M  END
$$$$
