TQY.pdb
     RDKit          3D

 29 29  0  0  1  0  0  0  0  0999 V2000
   29.2464  -20.5685  -17.7310 C   0  0  0  0  0  0  0  0  0  0  0  0
   27.9262  -20.6597  -16.9974 C   0  0  1  0  0  0  0  0  0  0  0  0
   26.8758  -20.8093  -17.8885 O   0  0  0  0  0  0  0  0  0  0  0  0
   27.9542  -21.8235  -16.0458 C   0  0  2  0  0  0  0  0  0  0  0  0
   28.0416  -23.0777  -16.7579 N   0  0  0  0  0  0  0  0  0  0  0  0
   26.7216  -21.8605  -15.2279 C   0  0  0  0  0  0  0  0  0  0  0  0
   25.7918  -22.6884  -15.4185 O   0  0  0  0  0  0  0  0  0  0  0  0
   26.1643  -21.7415   -9.7003 N   0  0  0  0  0  0  0  0  0  0  0  0
   24.8778  -21.1268   -9.8744 C   0  0  0  0  0  0  0  0  0  0  0  0
   23.9620  -21.3306   -9.0432 O   0  0  0  0  0  0  0  0  0  0  0  0
   24.6239  -20.2534  -11.0267 C   0  0  0  0  0  0  0  0  0  0  0  0
   25.6842  -20.2500  -12.0628 C   0  0  0  0  0  0  0  0  0  0  0  0
   25.3464  -21.0023  -13.3279 C   0  0  2  0  0  0  0  0  0  0  0  0
   26.5415  -20.9293  -14.1628 N   0  0  0  0  0  0  0  0  0  0  0  0
   24.2050  -20.3182  -13.9454 C   0  0  0  0  0  0  0  0  0  0  0  0
   24.3701  -19.2394  -14.5447 O   0  0  0  0  0  0  0  0  0  0  0  0
   17.4543  -18.5464  -18.9876 O   0  0  0  0  0  0  0  0  0  0  0  0
   18.5244  -19.0657  -18.2583 C   0  0  0  0  0  0  0  0  0  0  0  0
   19.6355  -18.3004  -17.9801 C   0  0  0  0  0  0  0  0  0  0  0  0
   20.6966  -18.8007  -17.2621 C   0  0  0  0  0  0  0  0  0  0  0  0
   20.6872  -20.1124  -16.7850 C   0  0  0  0  0  0  0  0  0  0  0  0
   21.8345  -20.6357  -16.0283 C   0  0  0  0  0  0  0  0  0  0  0  0
   21.7578  -20.3033  -14.5569 C   0  0  2  0  0  0  0  0  0  0  0  0
   22.9131  -20.8743  -13.8664 N   0  0  0  0  0  0  0  0  0  0  0  0
   20.5132  -20.8086  -13.9603 C   0  0  0  0  0  0  0  0  0  0  0  0
   20.4959  -22.0978  -13.3998 O   0  0  0  0  0  0  0  0  0  0  0  0
   19.5632  -20.8604  -17.0764 C   0  0  0  0  0  0  0  0  0  0  0  0
   18.4976  -20.3495  -17.8004 C   0  0  0  0  0  0  0  0  0  0  0  0
   19.4428  -20.1849  -13.9031 O   0  0  0  0  0  0  0  0  0  0  0  0
  2  1  1  6
  2  3  1  0
  4  2  1  0
  4  5  1  6
  6  7  2  0
  6  4  1  0
  9  8  1  0
 10  9  2  0
 11  9  1  0
 12 11  1  0
 13 12  1  1
 13 14  1  0
 14  6  1  0
 15 24  1  0
 15 13  1  0
 16 15  2  0
 18 19  2  0
 18 17  1  0
 20 19  1  0
 21 20  2  0
 22 21  1  0
 23 24  1  0
 23 22  1  6
 25 23  1  0
 26 25  1  0
 27 21  1  0
 27 28  2  0
 28 18  1  0
 29 25  2  0
M  END
$$$$
