TQY.pdb
     RDKit          3D

 29 29  0  0  1  0  0  0  0  0999 V2000
   18.4026  -15.7843  -14.9656 C   0  0  0  0  0  0  0  0  0  0  0  0
   18.5914  -14.4678  -15.6870 C   0  0  1  0  0  0  0  0  0  0  0  0
   19.2235  -14.6588  -16.9051 O   0  0  0  0  0  0  0  0  0  0  0  0
   17.2557  -13.8131  -15.9054 C   0  0  2  0  0  0  0  0  0  0  0  0
   16.4152  -14.6160  -16.7636 N   0  0  0  0  0  0  0  0  0  0  0  0
   17.4197  -12.4922  -16.5519 C   0  0  0  0  0  0  0  0  0  0  0  0
   17.1092  -12.2680  -17.7517 O   0  0  0  0  0  0  0  0  0  0  0  0
   14.7226   -7.7966  -17.3969 N   0  0  0  0  0  0  0  0  0  0  0  0
   14.7850   -8.4388  -16.1136 C   0  0  0  0  0  0  0  0  0  0  0  0
   13.9468   -8.1585  -15.2248 O   0  0  0  0  0  0  0  0  0  0  0  0
   15.8301   -9.4303  -15.8314 C   0  0  0  0  0  0  0  0  0  0  0  0
   16.8126   -9.6407  -16.9216 C   0  0  0  0  0  0  0  0  0  0  0  0
   18.1753  -10.1129  -16.4738 C   0  0  2  0  0  0  0  0  0  0  0  0
   17.9522  -11.3950  -15.8124 N   0  0  0  0  0  0  0  0  0  0  0  0
   18.6993   -9.1033  -15.5474 C   0  0  0  0  0  0  0  0  0  0  0  0
   18.3205   -9.0839  -14.3615 O   0  0  0  0  0  0  0  0  0  0  0  0
   24.4221  -12.1292  -15.3951 O   0  0  0  0  0  0  0  0  0  0  0  0
   23.7660  -10.8980  -15.4005 C   0  0  0  0  0  0  0  0  0  0  0  0
   23.5114  -10.2311  -16.5787 C   0  0  0  0  0  0  0  0  0  0  0  0
   22.8653   -9.0170  -16.5971 C   0  0  0  0  0  0  0  0  0  0  0  0
   22.4403   -8.4107  -15.4139 C   0  0  0  0  0  0  0  0  0  0  0  0
   21.7607   -7.1070  -15.4500 C   0  0  0  0  0  0  0  0  0  0  0  0
   20.2976   -7.2066  -15.0883 C   0  0  2  0  0  0  0  0  0  0  0  0
   19.6345   -8.1473  -15.9900 N   0  0  0  0  0  0  0  0  0  0  0  0
   19.6408   -5.8936  -15.1572 C   0  0  0  0  0  0  0  0  0  0  0  0
   19.9953   -4.9003  -14.2276 O   0  0  0  0  0  0  0  0  0  0  0  0
   22.7068   -9.0976  -14.2456 C   0  0  0  0  0  0  0  0  0  0  0  0
   23.3582  -10.3207  -14.2347 C   0  0  0  0  0  0  0  0  0  0  0  0
   18.7758   -5.5692  -15.9846 O   0  0  0  0  0  0  0  0  0  0  0  0
  2  1  1  6
  2  3  1  0
  4  2  1  0
  4  5  1  6
  6  7  2  0
  6  4  1  0
  9  8  1  0
 10  9  2  0
 11  9  1  0
 12 11  1  0
 13 12  1  1
 13 14  1  0
 14  6  1  0
 15 24  1  0
 15 13  1  0
 16 15  2  0
 18 19  2  0
 18 17  1  0
 20 19  1  0
 21 20  2  0
 22 21  1  0
 23 24  1  0
 23 22  1  6
 25 23  1  0
 26 25  1  0
 27 21  1  0
 27 28  2  0
 28 18  1  0
 29 25  2  0
M  END
$$$$
