TQY.pdb
     RDKit          3D

 29 29  0  0  1  0  0  0  0  0999 V2000
   21.2076   -8.7650  -20.8550 C   0  0  0  0  0  0  0  0  0  0  0  0
   22.6533   -9.1889  -20.9951 C   0  0  1  0  0  0  0  0  0  0  0  0
   22.7763  -10.2323  -21.8983 O   0  0  0  0  0  0  0  0  0  0  0  0
   23.4821   -8.0210  -21.4529 C   0  0  2  0  0  0  0  0  0  0  0  0
   24.8559   -8.4107  -21.6733 N   0  0  0  0  0  0  0  0  0  0  0  0
   23.4816   -6.9475  -20.4344 C   0  0  0  0  0  0  0  0  0  0  0  0
   24.3277   -6.8787  -19.5041 O   0  0  0  0  0  0  0  0  0  0  0  0
   20.3763   -1.4764  -21.1287 N   0  0  0  0  0  0  0  0  0  0  0  0
   20.8227   -1.4176  -19.7647 C   0  0  0  0  0  0  0  0  0  0  0  0
   20.6014   -0.3978  -19.0704 O   0  0  0  0  0  0  0  0  0  0  0  0
   21.5411   -2.5517  -19.1709 C   0  0  0  0  0  0  0  0  0  0  0  0
   21.7371   -3.7154  -20.0681 C   0  0  0  0  0  0  0  0  0  0  0  0
   22.4830   -4.8775  -19.4567 C   0  0  2  0  0  0  0  0  0  0  0  0
   22.4901   -5.9230  -20.4754 N   0  0  0  0  0  0  0  0  0  0  0  0
   21.7402   -5.2854  -18.2593 C   0  0  0  0  0  0  0  0  0  0  0  0
   20.6706   -5.9133  -18.3686 O   0  0  0  0  0  0  0  0  0  0  0  0
   19.9053   -8.4992  -10.4043 O   0  0  0  0  0  0  0  0  0  0  0  0
   20.5506   -7.9263  -11.5007 C   0  0  0  0  0  0  0  0  0  0  0  0
   20.6085   -6.5590  -11.6592 C   0  0  0  0  0  0  0  0  0  0  0  0
   21.2418   -5.9823  -12.7354 C   0  0  0  0  0  0  0  0  0  0  0  0
   21.8539   -6.7665  -13.7144 C   0  0  0  0  0  0  0  0  0  0  0  0
   22.5173   -6.1345  -14.8647 C   0  0  0  0  0  0  0  0  0  0  0  0
   21.5519   -5.3771  -15.7455 C   0  0  2  0  0  0  0  0  0  0  0  0
   22.2291   -4.9711  -16.9760 N   0  0  0  0  0  0  0  0  0  0  0  0
   21.0123   -4.1977  -15.0541 C   0  0  0  0  0  0  0  0  0  0  0  0
   19.7125   -4.2509  -14.5209 O   0  0  0  0  0  0  0  0  0  0  0  0
   21.7826   -8.1341  -13.5344 C   0  0  0  0  0  0  0  0  0  0  0  0
   21.1429   -8.7083  -12.4473 C   0  0  0  0  0  0  0  0  0  0  0  0
   21.6148   -3.1260  -14.8916 O   0  0  0  0  0  0  0  0  0  0  0  0
  2  1  1  6
  2  3  1  0
  4  2  1  0
  4  5  1  1
  6  7  2  0
  6  4  1  0
  9  8  1  0
 10  9  2  0
 11  9  1  0
 12 11  1  0
 13 12  1  6
 13 14  1  0
 14  6  1  0
 15 24  1  0
 15 13  1  0
 16 15  2  0
 18 19  2  0
 18 17  1  0
 20 19  1  0
 21 20  2  0
 22 21  1  0
 23 24  1  0
 23 22  1  1
 25 23  1  0
 26 25  1  0
 27 21  1  0
 27 28  2  0
 28 18  1  0
 29 25  2  0
M  END
$$$$
