TQY.pdb
     RDKit          3D

 29 29  0  0  1  0  0  0  0  0999 V2000
   23.6455  -10.1926  -19.5979 C   0  0  0  0  0  0  0  0  0  0  0  0
   24.2636  -11.1697  -18.6220 C   0  0  1  0  0  0  0  0  0  0  0  0
   25.2142  -11.9589  -19.2491 O   0  0  0  0  0  0  0  0  0  0  0  0
   24.8980  -10.4180  -17.4849 C   0  0  2  0  0  0  0  0  0  0  0  0
   25.5678  -11.3177  -16.5740 N   0  0  0  0  0  0  0  0  0  0  0  0
   23.8758   -9.6797  -16.7106 C   0  0  0  0  0  0  0  0  0  0  0  0
   23.0038  -10.2479  -16.0014 O   0  0  0  0  0  0  0  0  0  0  0  0
   23.5879   -3.2994  -16.5280 N   0  0  0  0  0  0  0  0  0  0  0  0
   22.4360   -3.7088  -15.7740 C   0  0  0  0  0  0  0  0  0  0  0  0
   21.6836   -2.8520  -15.2536 O   0  0  0  0  0  0  0  0  0  0  0  0
   22.1284   -5.1345  -15.6069 C   0  0  0  0  0  0  0  0  0  0  0  0
   23.1133   -6.0677  -16.2043 C   0  0  0  0  0  0  0  0  0  0  0  0
   22.7915   -7.5335  -16.0351 C   0  0  2  0  0  0  0  0  0  0  0  0
   23.8445   -8.2541  -16.7441 N   0  0  0  0  0  0  0  0  0  0  0  0
   21.4732   -7.7586  -16.6378 C   0  0  0  0  0  0  0  0  0  0  0  0
   21.3505   -7.8109  -17.8757 O   0  0  0  0  0  0  0  0  0  0  0  0
   13.5498  -10.6279  -18.6539 O   0  0  0  0  0  0  0  0  0  0  0  0
   14.8360  -10.3639  -18.1822 C   0  0  0  0  0  0  0  0  0  0  0  0
   15.2856  -10.9042  -16.9974 C   0  0  0  0  0  0  0  0  0  0  0  0
   16.5513  -10.6516  -16.5219 C   0  0  0  0  0  0  0  0  0  0  0  0
   17.4340   -9.8322  -17.2274 C   0  0  0  0  0  0  0  0  0  0  0  0
   18.7801   -9.5631  -16.6998 C   0  0  0  0  0  0  0  0  0  0  0  0
   18.9897   -8.1055  -16.3640 C   0  0  2  0  0  0  0  0  0  0  0  0
   20.3349   -7.9174  -15.8231 N   0  0  0  0  0  0  0  0  0  0  0  0
   17.9874   -7.6311  -15.3993 C   0  0  0  0  0  0  0  0  0  0  0  0
   18.4083   -7.2046  -14.1275 O   0  0  0  0  0  0  0  0  0  0  0  0
   16.9611   -9.3017  -18.4117 C   0  0  0  0  0  0  0  0  0  0  0  0
   15.6845   -9.5608  -18.8848 C   0  0  0  0  0  0  0  0  0  0  0  0
   16.7665   -7.5698  -15.6084 O   0  0  0  0  0  0  0  0  0  0  0  0
  2  1  1  6
  2  3  1  0
  4  2  1  0
  4  5  1  1
  6  7  2  0
  6  4  1  0
  9  8  1  0
 10  9  2  0
 11  9  1  0
 12 11  1  0
 13 12  1  6
 13 14  1  0
 14  6  1  0
 15 24  1  0
 15 13  1  0
 16 15  2  0
 18 19  2  0
 18 17  1  0
 20 19  1  0
 21 20  2  0
 22 21  1  0
 23 24  1  0
 23 22  1  1
 25 23  1  0
 26 25  1  0
 27 21  1  0
 27 28  2  0
 28 18  1  0
 29 25  2  0
M  END
$$$$
