TQY.pdb
     RDKit          3D

 29 29  0  0  1  0  0  0  0  0999 V2000
   24.4880  -13.1623  -16.6619 C   0  0  0  0  0  0  0  0  0  0  0  0
   24.0899  -14.0113  -17.8494 C   0  0  1  0  0  0  0  0  0  0  0  0
   24.8205  -15.1881  -17.8817 O   0  0  0  0  0  0  0  0  0  0  0  0
   22.6217  -14.3272  -17.7775 C   0  0  2  0  0  0  0  0  0  0  0  0
   22.2251  -15.2108  -18.8498 N   0  0  0  0  0  0  0  0  0  0  0  0
   21.8143  -13.0928  -17.8958 C   0  0  0  0  0  0  0  0  0  0  0  0
   21.9518  -12.2659  -18.8358 O   0  0  0  0  0  0  0  0  0  0  0  0
   18.0509  -13.8392  -14.4321 N   0  0  0  0  0  0  0  0  0  0  0  0
   17.4288  -13.7157  -15.7208 C   0  0  0  0  0  0  0  0  0  0  0  0
   16.5281  -14.5154  -16.0674 O   0  0  0  0  0  0  0  0  0  0  0  0
   17.8412  -12.6510  -16.6435 C   0  0  0  0  0  0  0  0  0  0  0  0
   18.8676  -11.7202  -16.1163 C   0  0  0  0  0  0  0  0  0  0  0  0
   20.0795  -11.5363  -16.9983 C   0  0  2  0  0  0  0  0  0  0  0  0
   20.8221  -12.7903  -16.9169 N   0  0  0  0  0  0  0  0  0  0  0  0
   20.8448  -10.4107  -16.4513 C   0  0  0  0  0  0  0  0  0  0  0  0
   21.5269  -10.5586  -15.4201 O   0  0  0  0  0  0  0  0  0  0  0  0
   24.2362   -2.1901  -16.0779 O   0  0  0  0  0  0  0  0  0  0  0  0
   23.6589   -3.3899  -16.4946 C   0  0  0  0  0  0  0  0  0  0  0  0
   22.3056   -3.4843  -16.7341 C   0  0  0  0  0  0  0  0  0  0  0  0
   21.7246   -4.6613  -17.1454 C   0  0  0  0  0  0  0  0  0  0  0  0
   22.4902   -5.8126  -17.3367 C   0  0  0  0  0  0  0  0  0  0  0  0
   21.8520   -7.0660  -17.7660 C   0  0  0  0  0  0  0  0  0  0  0  0
   21.5877   -8.0055  -16.6133 C   0  0  2  0  0  0  0  0  0  0  0  0
   20.8155   -9.1535  -17.0862 N   0  0  0  0  0  0  0  0  0  0  0  0
   20.8678   -7.3266  -15.5265 C   0  0  0  0  0  0  0  0  0  0  0  0
   21.5996   -6.7679  -14.4640 O   0  0  0  0  0  0  0  0  0  0  0  0
   23.8441   -5.6938  -17.0901 C   0  0  0  0  0  0  0  0  0  0  0  0
   24.4226   -4.5045  -16.6761 C   0  0  0  0  0  0  0  0  0  0  0  0
   19.6365   -7.1962  -15.4563 O   0  0  0  0  0  0  0  0  0  0  0  0
  2  1  1  1
  2  3  1  0
  4  2  1  0
  4  5  1  6
  6  7  2  0
  6  4  1  0
  9  8  1  0
 10  9  2  0
 11  9  1  0
 12 11  1  0
 13 12  1  1
 13 14  1  0
 14  6  1  0
 15 24  1  0
 15 13  1  0
 16 15  2  0
 18 19  2  0
 18 17  1  0
 20 19  1  0
 21 20  2  0
 22 21  1  0
 23 24  1  0
 23 22  1  6
 25 23  1  0
 26 25  1  0
 27 21  1  0
 27 28  2  0
 28 18  1  0
 29 25  2  0
M  END
$$$$
