TQY.pdb
     RDKit          3D

 29 29  0  0  1  0  0  0  0  0999 V2000
   23.1311  -10.5979  -14.5731 C   0  0  0  0  0  0  0  0  0  0  0  0
   22.9849  -11.2180  -15.9455 C   0  0  1  0  0  0  0  0  0  0  0  0
   23.4747  -12.5140  -15.9562 O   0  0  0  0  0  0  0  0  0  0  0  0
   21.5367  -11.2193  -16.3497 C   0  0  2  0  0  0  0  0  0  0  0  0
   21.3603  -11.8110  -17.6561 N   0  0  0  0  0  0  0  0  0  0  0  0
   21.0093   -9.8381  -16.4114 C   0  0  0  0  0  0  0  0  0  0  0  0
   21.2679   -9.0422  -17.3526 O   0  0  0  0  0  0  0  0  0  0  0  0
   15.5273   -8.0925  -14.2017 N   0  0  0  0  0  0  0  0  0  0  0  0
   15.9032   -8.6650  -15.4643 C   0  0  0  0  0  0  0  0  0  0  0  0
   15.0345   -9.1711  -16.2127 O   0  0  0  0  0  0  0  0  0  0  0  0
   17.3080   -8.6616  -15.8902 C   0  0  0  0  0  0  0  0  0  0  0  0
   18.2528   -8.0161  -14.9476 C   0  0  0  0  0  0  0  0  0  0  0  0
   19.6890   -7.9684  -15.4118 C   0  0  2  0  0  0  0  0  0  0  0  0
   20.1635   -9.3484  -15.3727 N   0  0  0  0  0  0  0  0  0  0  0  0
   20.4188   -7.1120  -14.4706 C   0  0  0  0  0  0  0  0  0  0  0  0
   20.6564   -7.5105  -13.3152 O   0  0  0  0  0  0  0  0  0  0  0  0
   23.5392   -2.9001  -19.7345 O   0  0  0  0  0  0  0  0  0  0  0  0
   23.4056   -3.3745  -18.4292 C   0  0  0  0  0  0  0  0  0  0  0  0
   23.3840   -2.5113  -17.3558 C   0  0  0  0  0  0  0  0  0  0  0  0
   23.2527   -2.9666  -16.0646 C   0  0  0  0  0  0  0  0  0  0  0  0
   23.1354   -4.3305  -15.7915 C   0  0  0  0  0  0  0  0  0  0  0  0
   23.0068   -4.8018  -14.4044 C   0  0  0  0  0  0  0  0  0  0  0  0
   21.5667   -4.9234  -13.9655 C   0  0  2  0  0  0  0  0  0  0  0  0
   20.8573   -5.8324  -14.8643 N   0  0  0  0  0  0  0  0  0  0  0  0
   20.9025   -3.6123  -13.9467 C   0  0  0  0  0  0  0  0  0  0  0  0
   21.3334   -2.6388  -13.0285 O   0  0  0  0  0  0  0  0  0  0  0  0
   23.1600   -5.1763  -16.8832 C   0  0  0  0  0  0  0  0  0  0  0  0
   23.2925   -4.7104  -18.1816 C   0  0  0  0  0  0  0  0  0  0  0  0
   19.9680   -3.2733  -14.6883 O   0  0  0  0  0  0  0  0  0  0  0  0
  2  1  1  1
  2  3  1  0
  4  2  1  0
  4  5  1  6
  6  7  2  0
  6  4  1  0
  9  8  1  0
 10  9  2  0
 11  9  1  0
 12 11  1  0
 13 12  1  1
 13 14  1  0
 14  6  1  0
 15 24  1  0
 15 13  1  0
 16 15  2  0
 18 19  2  0
 18 17  1  0
 20 19  1  0
 21 20  2  0
 22 21  1  0
 23 24  1  0
 23 22  1  6
 25 23  1  0
 26 25  1  0
 27 21  1  0
 27 28  2  0
 28 18  1  0
 29 25  2  0
M  END
$$$$
