STY.pdb
     RDKit          3D

 26 26  0  0  1  0  0  0  0  0999 V2000
   18.5819    2.8939  -10.2914 O   0  0  0  0  0  0  0  0  0  0  0  0
   18.3158    1.8133  -11.1638 C   0  0  0  0  0  0  0  0  0  0  0  0
   18.0978    2.3655  -12.5785 C   0  0  2  0  0  0  0  0  0  0  0  0
   16.7974    2.9931  -12.6033 N   0  0  0  0  0  0  0  0  0  0  0  0
   18.0372    1.1573  -13.4642 C   0  0  0  0  0  0  0  0  0  0  0  0
   17.0012    0.4609  -13.5548 O   0  0  0  0  0  0  0  0  0  0  0  0
   20.9952    0.6582  -16.5826 C   0  0  0  0  0  0  0  0  0  0  0  0
   19.6689   -0.0919  -16.5455 C   0  0  1  0  0  0  0  0  0  0  0  0
   19.6640   -1.1849  -17.3823 O   0  0  0  0  0  0  0  0  0  0  0  0
   19.1983   -0.3281  -15.1685 C   0  0  2  0  0  0  0  0  0  0  0  0
   19.1382    0.7271  -14.2502 N   0  0  0  0  0  0  0  0  0  0  0  0
   20.0322   -1.4165  -14.5688 C   0  0  0  0  0  0  0  0  0  0  0  0
   20.9646   -1.0612  -13.8054 O   0  0  0  0  0  0  0  0  0  0  0  0
   23.3069   -9.4764  -13.0464 O   0  0  0  0  0  0  0  0  0  0  0  0
   22.4592   -8.3871  -13.2406 C   0  0  0  0  0  0  0  0  0  0  0  0
   21.9312   -8.1247  -14.4865 C   0  0  0  0  0  0  0  0  0  0  0  0
   21.0948   -7.0487  -14.6740 C   0  0  0  0  0  0  0  0  0  0  0  0
   20.7479   -6.1855  -13.6244 C   0  0  0  0  0  0  0  0  0  0  0  0
   19.8729   -5.0284  -13.8767 C   0  0  0  0  0  0  0  0  0  0  0  0
   20.6701   -3.8468  -14.2908 C   0  0  2  0  0  0  0  0  0  0  0  0
   19.8278   -2.7759  -14.8121 N   0  0  0  0  0  0  0  0  0  0  0  0
   21.6243   -4.2045  -15.3511 C   0  0  0  0  0  0  0  0  0  0  0  0
   22.9068   -4.6121  -15.0560 O   0  0  0  0  0  0  0  0  0  0  0  0
   21.3079   -6.4962  -12.3926 C   0  0  0  0  0  0  0  0  0  0  0  0
   22.1431   -7.5650  -12.1892 C   0  0  0  0  0  0  0  0  0  0  0  0
   21.2727   -4.1384  -16.5795 O   0  0  0  0  0  0  0  0  0  0  0  0
  2  1  1  0
  3  4  1  1
  3  2  1  0
  5  3  1  0
  6  5  2  0
  8  7  1  1
  8 10  1  0
  9  8  1  0
 10 12  1  0
 10 11  1  1
 11  5  1  0
 12 21  1  0
 13 12  2  0
 15 14  1  0
 16 15  2  0
 17 16  1  0
 18 17  2  0
 18 24  1  0
 19 18  1  0
 20 19  1  6
 20 22  1  0
 21 20  1  0
 22 26  2  0
 22 23  1  0
 24 25  2  0
 25 15  1  0
M  END
$$$$
