STY.pdb
     RDKit          3D

 26 26  0  0  1  0  0  0  0  0999 V2000
   18.2137  -12.2479  -19.4274 O   0  0  0  0  0  0  0  0  0  0  0  0
   18.6667  -11.6926  -18.2084 C   0  0  0  0  0  0  0  0  0  0  0  0
   20.0167  -12.3275  -17.8504 C   0  0  2  0  0  0  0  0  0  0  0  0
   19.7618  -13.6913  -17.4496 N   0  0  0  0  0  0  0  0  0  0  0  0
   20.4918  -11.5789  -16.6413 C   0  0  0  0  0  0  0  0  0  0  0  0
   20.0282  -11.8098  -15.5019 O   0  0  0  0  0  0  0  0  0  0  0  0
   23.7992  -11.4224  -14.7335 C   0  0  0  0  0  0  0  0  0  0  0  0
   23.5194  -10.0584  -15.3534 C   0  0  1  0  0  0  0  0  0  0  0  0
   24.4000   -9.7554  -16.3670 O   0  0  0  0  0  0  0  0  0  0  0  0
   22.0899   -9.8649  -15.6577 C   0  0  2  0  0  0  0  0  0  0  0  0
   21.4879  -10.5697  -16.7071 N   0  0  0  0  0  0  0  0  0  0  0  0
   21.8531   -8.4048  -15.8850 C   0  0  0  0  0  0  0  0  0  0  0  0
   21.8627   -8.0075  -17.0769 O   0  0  0  0  0  0  0  0  0  0  0  0
   20.1206    0.1140  -15.7042 O   0  0  0  0  0  0  0  0  0  0  0  0
   20.1334   -1.2710  -15.5482 C   0  0  0  0  0  0  0  0  0  0  0  0
   19.6143   -1.8519  -14.4110 C   0  0  0  0  0  0  0  0  0  0  0  0
   19.6287   -3.2193  -14.2609 C   0  0  0  0  0  0  0  0  0  0  0  0
   20.1627   -4.0689  -15.2407 C   0  0  0  0  0  0  0  0  0  0  0  0
   20.1842   -5.5253  -15.0251 C   0  0  0  0  0  0  0  0  0  0  0  0
   21.5770   -6.0384  -15.0398 C   0  0  2  0  0  0  0  0  0  0  0  0
   21.6274   -7.4851  -14.8594 N   0  0  0  0  0  0  0  0  0  0  0  0
   22.3678   -5.4372  -13.9554 C   0  0  0  0  0  0  0  0  0  0  0  0
   23.1178   -4.2995  -14.1586 O   0  0  0  0  0  0  0  0  0  0  0  0
   20.6717   -3.4309  -16.3639 C   0  0  0  0  0  0  0  0  0  0  0  0
   20.6647   -2.0693  -16.5288 C   0  0  0  0  0  0  0  0  0  0  0  0
   22.3728   -5.9715  -12.7929 O   0  0  0  0  0  0  0  0  0  0  0  0
  2  1  1  0
  3  4  1  1
  3  2  1  0
  5  3  1  0
  6  5  2  0
  8  7  1  6
  8 10  1  0
  9  8  1  0
 10 12  1  0
 10 11  1  6
 11  5  1  0
 12 21  1  0
 13 12  2  0
 15 14  1  0
 16 15  2  0
 17 16  1  0
 18 17  2  0
 18 24  1  0
 19 18  1  0
 20 19  1  1
 20 22  1  0
 21 20  1  0
 22 26  2  0
 22 23  1  0
 24 25  2  0
 25 15  1  0
M  END
$$$$
