STY.pdb
     RDKit          3D

 26 26  0  0  1  0  0  0  0  0999 V2000
   20.2222  -14.1971  -22.9603 O   0  0  0  0  0  0  0  0  0  0  0  0
   20.8923  -13.3437  -22.0536 C   0  0  0  0  0  0  0  0  0  0  0  0
   22.0428  -12.6476  -22.7922 C   0  0  2  0  0  0  0  0  0  0  0  0
   23.0356  -13.6522  -23.0933 N   0  0  0  0  0  0  0  0  0  0  0  0
   22.6379  -11.7058  -21.7888 C   0  0  0  0  0  0  0  0  0  0  0  0
   23.4741  -12.0919  -20.9412 O   0  0  0  0  0  0  0  0  0  0  0  0
   24.1734   -8.0273  -22.6010 C   0  0  0  0  0  0  0  0  0  0  0  0
   23.1215   -7.9869  -21.4989 C   0  0  1  0  0  0  0  0  0  0  0  0
   22.0175   -7.2473  -21.8581 O   0  0  0  0  0  0  0  0  0  0  0  0
   22.8512   -9.3217  -20.9343 C   0  0  2  0  0  0  0  0  0  0  0  0
   22.2966  -10.3290  -21.7332 N   0  0  0  0  0  0  0  0  0  0  0  0
   21.9787   -9.1530  -19.7302 C   0  0  0  0  0  0  0  0  0  0  0  0
   20.7697   -9.4702  -19.8570 O   0  0  0  0  0  0  0  0  0  0  0  0
   18.6551   -8.5351  -11.6958 O   0  0  0  0  0  0  0  0  0  0  0  0
   19.4784   -8.7459  -12.8006 C   0  0  0  0  0  0  0  0  0  0  0  0
   20.7564   -8.2304  -12.8294 C   0  0  0  0  0  0  0  0  0  0  0  0
   21.5659   -8.4408  -13.9216 C   0  0  0  0  0  0  0  0  0  0  0  0
   21.1349   -9.1765  -15.0352 C   0  0  0  0  0  0  0  0  0  0  0  0
   22.0246   -9.3520  -16.1953 C   0  0  0  0  0  0  0  0  0  0  0  0
   21.5962   -8.4859  -17.3221 C   0  0  2  0  0  0  0  0  0  0  0  0
   22.4342   -8.6711  -18.5018 N   0  0  0  0  0  0  0  0  0  0  0  0
   21.6767   -7.0653  -16.9504 C   0  0  0  0  0  0  0  0  0  0  0  0
   20.6367   -6.4309  -16.3068 O   0  0  0  0  0  0  0  0  0  0  0  0
   19.8405   -9.6717  -14.9528 C   0  0  0  0  0  0  0  0  0  0  0  0
   19.0211   -9.4709  -13.8714 C   0  0  0  0  0  0  0  0  0  0  0  0
   22.7270   -6.3886  -17.2260 O   0  0  0  0  0  0  0  0  0  0  0  0
  2  1  1  0
  3  4  1  1
  3  2  1  0
  5  3  1  0
  6  5  2  0
  8  7  1  6
  8 10  1  0
  9  8  1  0
 10 12  1  0
 10 11  1  6
 11  5  1  0
 12 21  1  0
 13 12  2  0
 15 14  1  0
 16 15  2  0
 17 16  1  0
 18 17  2  0
 18 24  1  0
 19 18  1  0
 20 19  1  1
 20 22  1  0
 21 20  1  0
 22 26  2  0
 22 23  1  0
 24 25  2  0
 25 15  1  0
M  END
$$$$
