STY.pdb
     RDKit          3D

 26 26  0  0  1  0  0  0  0  0999 V2000
   26.5281  -19.8965  -18.6556 O   0  0  0  0  0  0  0  0  0  0  0  0
   26.4010  -18.7447  -17.8453 C   0  0  0  0  0  0  0  0  0  0  0  0
   25.7700  -17.6230  -18.6804 C   0  0  2  0  0  0  0  0  0  0  0  0
   26.8447  -16.8000  -19.1836 N   0  0  0  0  0  0  0  0  0  0  0  0
   24.9868  -16.8007  -17.7014 C   0  0  0  0  0  0  0  0  0  0  0  0
   25.5316  -15.9170  -17.0023 O   0  0  0  0  0  0  0  0  0  0  0  0
   22.9351  -13.9256  -17.6656 C   0  0  0  0  0  0  0  0  0  0  0  0
   21.9988  -15.0617  -17.2711 C   0  0  1  0  0  0  0  0  0  0  0  0
   21.0835  -15.3501  -18.2580 O   0  0  0  0  0  0  0  0  0  0  0  0
   22.7243  -16.2131  -16.7039 C   0  0  2  0  0  0  0  0  0  0  0  0
   23.5910  -16.9674  -17.5040 N   0  0  0  0  0  0  0  0  0  0  0  0
   21.7224  -17.1462  -16.0996 C   0  0  0  0  0  0  0  0  0  0  0  0
   21.4190  -18.1643  -16.7703 O   0  0  0  0  0  0  0  0  0  0  0  0
   15.4940  -20.6436  -10.9528 O   0  0  0  0  0  0  0  0  0  0  0  0
   16.5145  -19.8273  -11.4374 C   0  0  0  0  0  0  0  0  0  0  0  0
   16.2276  -18.5860  -11.9636 C   0  0  0  0  0  0  0  0  0  0  0  0
   17.2377  -17.7833  -12.4407 C   0  0  0  0  0  0  0  0  0  0  0  0
   18.5814  -18.1847  -12.4138 C   0  0  0  0  0  0  0  0  0  0  0  0
   19.6273  -17.3054  -12.9625 C   0  0  0  0  0  0  0  0  0  0  0  0
   20.0884  -17.7986  -14.2845 C   0  0  2  0  0  0  0  0  0  0  0  0
   21.1233  -16.9434  -14.8551 N   0  0  0  0  0  0  0  0  0  0  0  0
   18.9764  -17.8363  -15.2461 C   0  0  0  0  0  0  0  0  0  0  0  0
   18.5858  -16.7103  -15.9374 O   0  0  0  0  0  0  0  0  0  0  0  0
   18.8127  -19.4428  -11.8741 C   0  0  0  0  0  0  0  0  0  0  0  0
   17.8171  -20.2549  -11.3942 C   0  0  0  0  0  0  0  0  0  0  0  0
   18.3456  -18.9296  -15.4549 O   0  0  0  0  0  0  0  0  0  0  0  0
  2  1  1  0
  3  4  1  1
  3  2  1  0
  5  3  1  0
  6  5  2  0
  8  7  1  6
  8 10  1  0
  9  8  1  0
 10 12  1  0
 10 11  1  6
 11  5  1  0
 12 21  1  0
 13 12  2  0
 15 14  1  0
 16 15  2  0
 17 16  1  0
 18 17  2  0
 18 24  1  0
 19 18  1  0
 20 19  1  1
 20 22  1  0
 21 20  1  0
 22 26  2  0
 22 23  1  0
 24 25  2  0
 25 15  1  0
M  END
$$$$
