STY.pdb
     RDKit          3D

 26 26  0  0  1  0  0  0  0  0999 V2000
   29.0517  -23.4968  -18.2323 O   0  0  0  0  0  0  0  0  0  0  0  0
   29.3836  -22.3838  -17.4258 C   0  0  0  0  0  0  0  0  0  0  0  0
   28.5742  -21.1713  -17.9038 C   0  0  2  0  0  0  0  0  0  0  0  0
   29.4550  -20.3480  -18.6988 N   0  0  0  0  0  0  0  0  0  0  0  0
   28.2402  -20.4086  -16.6569 C   0  0  0  0  0  0  0  0  0  0  0  0
   28.9437  -19.4504  -16.2651 O   0  0  0  0  0  0  0  0  0  0  0  0
   24.2464  -19.8593  -15.6397 C   0  0  0  0  0  0  0  0  0  0  0  0
   25.4073  -19.1189  -14.9864 C   0  0  1  0  0  0  0  0  0  0  0  0
   25.0065  -18.3751  -13.8997 O   0  0  0  0  0  0  0  0  0  0  0  0
   26.5797  -19.9884  -14.7792 C   0  0  2  0  0  0  0  0  0  0  0  0
   27.1168  -20.7186  -15.8464 N   0  0  0  0  0  0  0  0  0  0  0  0
   26.2620  -20.9479  -13.6756 C   0  0  0  0  0  0  0  0  0  0  0  0
   25.9295  -22.1113  -14.0137 O   0  0  0  0  0  0  0  0  0  0  0  0
   27.6056  -18.0384   -6.1865 O   0  0  0  0  0  0  0  0  0  0  0  0
   27.4295  -18.9741   -7.2043 C   0  0  0  0  0  0  0  0  0  0  0  0
   26.2467  -19.6733   -7.3151 C   0  0  0  0  0  0  0  0  0  0  0  0
   26.0768  -20.5959   -8.3212 C   0  0  0  0  0  0  0  0  0  0  0  0
   27.0814  -20.8621   -9.2629 C   0  0  0  0  0  0  0  0  0  0  0  0
   26.8674  -21.8795  -10.3056 C   0  0  0  0  0  0  0  0  0  0  0  0
   25.7977  -21.4548  -11.2429 C   0  0  2  0  0  0  0  0  0  0  0  0
   26.3164  -20.6188  -12.3200 N   0  0  0  0  0  0  0  0  0  0  0  0
   24.7682  -20.6723  -10.5425 C   0  0  0  0  0  0  0  0  0  0  0  0
   23.9027  -21.2619   -9.6473 O   0  0  0  0  0  0  0  0  0  0  0  0
   28.2506  -20.1304   -9.1041 C   0  0  0  0  0  0  0  0  0  0  0  0
   28.4357  -19.2071   -8.1068 C   0  0  0  0  0  0  0  0  0  0  0  0
   24.6587  -19.4163  -10.7600 O   0  0  0  0  0  0  0  0  0  0  0  0
  2  1  1  0
  3  4  1  6
  3  2  1  0
  5  3  1  0
  6  5  2  0
  8  7  1  1
  8 10  1  0
  9  8  1  0
 10 12  1  0
 10 11  1  6
 11  5  1  0
 12 21  1  0
 13 12  2  0
 15 14  1  0
 16 15  2  0
 17 16  1  0
 18 17  2  0
 18 24  1  0
 19 18  1  0
 20 19  1  1
 20 22  1  0
 21 20  1  0
 22 26  2  0
 22 23  1  0
 24 25  2  0
 25 15  1  0
M  END
$$$$
