STY.pdb
     RDKit          3D

 26 26  0  0  1  0  0  0  0  0999 V2000
   26.6615  -23.0732  -18.5613 O   0  0  0  0  0  0  0  0  0  0  0  0
   28.0304  -23.4192  -18.6363 C   0  0  0  0  0  0  0  0  0  0  0  0
   28.6841  -23.1376  -17.2772 C   0  0  2  0  0  0  0  0  0  0  0  0
   28.5894  -21.7167  -17.0367 N   0  0  0  0  0  0  0  0  0  0  0  0
   30.1336  -23.4721  -17.4643 C   0  0  0  0  0  0  0  0  0  0  0  0
   30.9127  -22.7013  -18.0687 O   0  0  0  0  0  0  0  0  0  0  0  0
   32.2536  -25.7575  -14.6313 C   0  0  0  0  0  0  0  0  0  0  0  0
   32.8885  -25.0231  -15.8062 C   0  0  1  0  0  0  0  0  0  0  0  0
   34.2151  -25.3511  -15.9712 O   0  0  0  0  0  0  0  0  0  0  0  0
   32.0518  -25.0788  -17.0188 C   0  0  2  0  0  0  0  0  0  0  0  0
   30.7128  -24.6718  -16.9741 N   0  0  0  0  0  0  0  0  0  0  0  0
   32.0931  -26.4763  -17.5525 C   0  0  0  0  0  0  0  0  0  0  0  0
   31.0713  -27.1839  -17.3689 O   0  0  0  0  0  0  0  0  0  0  0  0
   28.2535  -27.0217  -22.3891 O   0  0  0  0  0  0  0  0  0  0  0  0
   29.5008  -27.3578  -21.8658 C   0  0  0  0  0  0  0  0  0  0  0  0
   29.7458  -28.6338  -21.4055 C   0  0  0  0  0  0  0  0  0  0  0  0
   30.9782  -28.9617  -20.8899 C   0  0  0  0  0  0  0  0  0  0  0  0
   32.0227  -28.0290  -20.8108 C   0  0  0  0  0  0  0  0  0  0  0  0
   33.3168  -28.4153  -20.2241 C   0  0  0  0  0  0  0  0  0  0  0  0
   33.2527  -28.3821  -18.7415 C   0  0  2  0  0  0  0  0  0  0  0  0
   33.1877  -27.0180  -18.2287 N   0  0  0  0  0  0  0  0  0  0  0  0
   34.4436  -29.0119  -18.1518 C   0  0  0  0  0  0  0  0  0  0  0  0
   34.7873  -30.3136  -18.4443 O   0  0  0  0  0  0  0  0  0  0  0  0
   31.7210  -26.7605  -21.2878 C   0  0  0  0  0  0  0  0  0  0  0  0
   30.4977  -26.4178  -21.8048 C   0  0  0  0  0  0  0  0  0  0  0  0
   35.1857  -28.3516  -17.3454 O   0  0  0  0  0  0  0  0  0  0  0  0
  2  1  1  0
  3  4  1  6
  3  2  1  0
  5  3  1  0
  6  5  2  0
  8  7  1  1
  8 10  1  0
  9  8  1  0
 10 12  1  0
 10 11  1  1
 11  5  1  0
 12 21  1  0
 13 12  2  0
 15 14  1  0
 16 15  2  0
 17 16  1  0
 18 17  2  0
 18 24  1  0
 19 18  1  0
 20 19  1  6
 20 22  1  0
 21 20  1  0
 22 26  2  0
 22 23  1  0
 24 25  2  0
 25 15  1  0
M  END
$$$$
