FFE.pdb
     RDKit          3D

 32 33  0  0  1  0  0  0  0  0999 V2000
   11.0212  -17.2250   19.9042 N   0  0  0  0  0  0  0  0  0  0  0  0
   10.1811  -16.1917   20.4336 C   0  0  1  0  0  0  0  0  0  0  0  0
    8.8324  -16.1483   19.7186 C   0  0  0  0  0  0  0  0  0  0  0  0
    8.0549  -14.9611   20.1908 C   0  0  0  0  0  0  0  0  0  0  0  0
    6.9480  -15.1229   20.9987 C   0  0  0  0  0  0  0  0  0  0  0  0
    6.2263  -14.0197   21.4352 C   0  0  0  0  0  0  0  0  0  0  0  0
    6.6035  -12.7531   21.0695 C   0  0  0  0  0  0  0  0  0  0  0  0
    7.7051  -12.5949   20.2658 C   0  0  0  0  0  0  0  0  0  0  0  0
    8.4304  -13.6823   19.8255 C   0  0  0  0  0  0  0  0  0  0  0  0
   10.0017  -16.2637   21.9035 C   0  0  0  0  0  0  0  0  0  0  0  0
   10.2286  -17.3236   22.4999 O   0  0  0  0  0  0  0  0  0  0  0  0
    9.5720  -15.1375   22.6520 N   0  0  0  0  0  0  0  0  0  0  0  0
    9.5984  -14.9991   24.0522 C   0  0  1  0  0  0  0  0  0  0  0  0
    8.6511  -13.9913   24.6636 C   0  0  0  0  0  0  0  0  0  0  0  0
    8.7944  -13.8415   26.1177 C   0  0  0  0  0  0  0  0  0  0  0  0
    8.0683  -14.6890   26.9653 C   0  0  0  0  0  0  0  0  0  0  0  0
    8.1631  -14.5817   28.3312 C   0  0  0  0  0  0  0  0  0  0  0  0
    8.9724  -13.6405   28.9258 C   0  0  0  0  0  0  0  0  0  0  0  0
    9.6928  -12.7993   28.0825 C   0  0  0  0  0  0  0  0  0  0  0  0
    9.5890  -12.9169   26.7009 C   0  0  0  0  0  0  0  0  0  0  0  0
    9.4147  -16.2876   24.7464 C   0  0  0  0  0  0  0  0  0  0  0  0
    8.3847  -16.9933   24.4785 O   0  0  0  0  0  0  0  0  0  0  0  0
   10.3006  -16.8107   25.6987 N   0  0  0  0  0  0  0  0  0  0  0  0
   10.2150  -18.2248   26.1827 C   0  0  1  0  0  0  0  0  0  0  0  0
   10.3825  -19.1367   25.0411 C   0  0  0  0  0  0  0  0  0  0  0  0
   10.4475  -20.5775   25.3969 C   0  0  0  0  0  0  0  0  0  0  0  0
   10.6691  -21.5002   24.2631 C   0  0  0  0  0  0  0  0  0  0  0  0
   10.4858  -22.7516   24.3755 O   0  0  0  0  0  0  0  0  0  0  0  0
   11.0158  -18.3522   27.3592 C   0  0  0  0  0  0  0  0  0  0  0  0
   11.0074  -19.4736   27.9938 O   0  0  0  0  0  0  0  0  0  0  0  0
   11.0884  -21.0662   22.9890 O   0  0  0  0  0  0  0  0  0  0  0  0
   11.8526  -17.4072   27.9517 O   0  0  0  0  0  0  0  0  0  0  0  0
  2  1  1  6
  3  4  1  0
  3  2  1  0
  4  5  2  0
  5  6  1  0
  7  6  2  0
  8  7  1  0
  9  8  2  0
  9  4  1  0
 10  2  1  0
 10 11  2  0
 12 10  1  0
 13 12  1  0
 13 21  1  0
 13 14  1  1
 15 14  1  0
 16 15  2  0
 17 16  1  0
 18 17  2  0
 18 19  1  0
 19 20  2  0
 20 15  1  0
 21 23  1  0
 22 21  2  0
 23 24  1  0
 24 29  1  0
 25 26  1  0
 24 25  1  6
 27 26  1  0
 27 28  2  0
 29 30  2  0
 29 32  1  0
 31 27  1  0
M  END
$$$$
