FFE.pdb
     RDKit          3D

 32 33  0  0  1  0  0  0  0  0999 V2000
    9.1705  -16.6648   20.5488 N   0  0  0  0  0  0  0  0  0  0  0  0
    8.8380  -15.7440   21.5954 C   0  0  1  0  0  0  0  0  0  0  0  0
    7.3867  -15.2803   21.4902 C   0  0  0  0  0  0  0  0  0  0  0  0
    7.1102  -14.2613   22.5494 C   0  0  0  0  0  0  0  0  0  0  0  0
    7.4140  -12.9316   22.3406 C   0  0  0  0  0  0  0  0  0  0  0  0
    7.1579  -11.9867   23.3256 C   0  0  0  0  0  0  0  0  0  0  0  0
    6.5991  -12.3617   24.5203 C   0  0  0  0  0  0  0  0  0  0  0  0
    6.2978  -13.6852   24.7254 C   0  0  0  0  0  0  0  0  0  0  0  0
    6.5471  -14.6334   23.7554 C   0  0  0  0  0  0  0  0  0  0  0  0
    9.1361  -16.2540   22.9551 C   0  0  0  0  0  0  0  0  0  0  0  0
    9.5895  -17.3962   23.0984 O   0  0  0  0  0  0  0  0  0  0  0  0
    8.9125  -15.4586   24.1087 N   0  0  0  0  0  0  0  0  0  0  0  0
    9.5942  -15.5483   25.3365 C   0  0  1  0  0  0  0  0  0  0  0  0
    9.0206  -14.7740   26.5020 C   0  0  0  0  0  0  0  0  0  0  0  0
    9.8090  -14.8804   27.7366 C   0  0  0  0  0  0  0  0  0  0  0  0
    9.6500  -16.0089   28.5522 C   0  0  0  0  0  0  0  0  0  0  0  0
   10.3590  -16.1492   29.7200 C   0  0  0  0  0  0  0  0  0  0  0  0
   11.2538  -15.1912   30.1395 C   0  0  0  0  0  0  0  0  0  0  0  0
   11.4106  -14.0708   29.3284 C   0  0  0  0  0  0  0  0  0  0  0  0
   10.6873  -13.9392   28.1481 C   0  0  0  0  0  0  0  0  0  0  0  0
    9.7974  -16.9454   25.7641 C   0  0  0  0  0  0  0  0  0  0  0  0
    8.7765  -17.6861   25.9633 O   0  0  0  0  0  0  0  0  0  0  0  0
   11.0505  -17.5379   25.9743 N   0  0  0  0  0  0  0  0  0  0  0  0
   11.2015  -18.9626   26.4088 C   0  0  1  0  0  0  0  0  0  0  0  0
   11.9818  -19.6948   25.4001 C   0  0  0  0  0  0  0  0  0  0  0  0
   11.8268  -19.1978   24.0088 C   0  0  0  0  0  0  0  0  0  0  0  0
   12.7519  -19.7889   23.0185 C   0  0  0  0  0  0  0  0  0  0  0  0
   13.6049  -20.6708   23.3456 O   0  0  0  0  0  0  0  0  0  0  0  0
   11.5690  -18.9806   27.7895 C   0  0  0  0  0  0  0  0  0  0  0  0
   11.8526  -17.8647   28.3679 O   0  0  0  0  0  0  0  0  0  0  0  0
   12.7527  -19.4281   21.6557 O   0  0  0  0  0  0  0  0  0  0  0  0
   11.6649  -20.0714   28.6528 O   0  0  0  0  0  0  0  0  0  0  0  0
  2  1  1  6
  3  4  1  0
  3  2  1  0
  4  5  2  0
  5  6  1  0
  7  6  2  0
  8  7  1  0
  9  8  2  0
  9  4  1  0
 10  2  1  0
 10 11  2  0
 12 10  1  0
 13 12  1  0
 13 21  1  0
 13 14  1  1
 15 14  1  0
 16 15  2  0
 17 16  1  0
 18 17  2  0
 18 19  1  0
 19 20  2  0
 20 15  1  0
 21 23  1  0
 22 21  2  0
 23 24  1  0
 24 29  1  0
 25 26  1  0
 24 25  1  6
 27 26  1  0
 27 28  2  0
 29 30  2  0
 29 32  1  0
 31 27  1  0
M  END
$$$$
