FFE.pdb
     RDKit          3D

 32 33  0  0  1  0  0  0  0  0999 V2000
    8.2133  -17.7574   20.6860 N   0  0  0  0  0  0  0  0  0  0  0  0
    9.4272  -16.9957   20.6943 C   0  0  1  0  0  0  0  0  0  0  0  0
    9.5849  -16.1837   19.4106 C   0  0  0  0  0  0  0  0  0  0  0  0
    8.5385  -15.1160   19.3635 C   0  0  0  0  0  0  0  0  0  0  0  0
    7.6196  -14.9882   20.3850 C   0  0  0  0  0  0  0  0  0  0  0  0
    6.6477  -13.9974   20.3392 C   0  0  0  0  0  0  0  0  0  0  0  0
    6.5872  -13.1313   19.2778 C   0  0  0  0  0  0  0  0  0  0  0  0
    7.5026  -13.2607   18.2630 C   0  0  0  0  0  0  0  0  0  0  0  0
    8.4727  -14.2404   18.2964 C   0  0  0  0  0  0  0  0  0  0  0  0
    9.5823  -16.1343   21.8909 C   0  0  0  0  0  0  0  0  0  0  0  0
   10.5855  -15.4199   22.0090 O   0  0  0  0  0  0  0  0  0  0  0  0
    8.6005  -16.1073   22.9149 N   0  0  0  0  0  0  0  0  0  0  0  0
    8.6074  -15.2960   24.0648 C   0  0  1  0  0  0  0  0  0  0  0  0
    7.3149  -15.1912   24.8426 C   0  0  0  0  0  0  0  0  0  0  0  0
    7.3062  -14.1190   25.8464 C   0  0  0  0  0  0  0  0  0  0  0  0
    6.4715  -13.0101   25.6527 C   0  0  0  0  0  0  0  0  0  0  0  0
    6.4351  -11.9792   26.5592 C   0  0  0  0  0  0  0  0  0  0  0  0
    7.2139  -11.9893   27.6941 C   0  0  0  0  0  0  0  0  0  0  0  0
    8.0426  -13.0914   27.8850 C   0  0  0  0  0  0  0  0  0  0  0  0
    8.0715  -14.1295   26.9604 C   0  0  0  0  0  0  0  0  0  0  0  0
    9.6842  -15.6634   25.0036 C   0  0  0  0  0  0  0  0  0  0  0  0
   10.7126  -14.9114   25.0905 O   0  0  0  0  0  0  0  0  0  0  0  0
    9.6681  -16.7983   25.8265 N   0  0  0  0  0  0  0  0  0  0  0  0
   10.7884  -17.1252   26.7644 C   0  0  1  0  0  0  0  0  0  0  0  0
   10.2756  -17.9712   27.8525 C   0  0  0  0  0  0  0  0  0  0  0  0
   10.3966  -19.4330   27.6172 C   0  0  0  0  0  0  0  0  0  0  0  0
    9.7171  -20.2924   28.6101 C   0  0  0  0  0  0  0  0  0  0  0  0
   10.0839  -20.3265   29.8252 O   0  0  0  0  0  0  0  0  0  0  0  0
   11.9274  -17.5143   25.9944 C   0  0  0  0  0  0  0  0  0  0  0  0
   11.7507  -17.8811   24.7719 O   0  0  0  0  0  0  0  0  0  0  0  0
    8.6234  -21.1217   28.2887 O   0  0  0  0  0  0  0  0  0  0  0  0
   13.2678  -17.5523   26.3771 O   0  0  0  0  0  0  0  0  0  0  0  0
  2  1  1  6
  3  4  1  0
  3  2  1  0
  4  5  2  0
  5  6  1  0
  7  6  2  0
  8  7  1  0
  9  8  2  0
  9  4  1  0
 10  2  1  0
 10 11  2  0
 12 10  1  0
 13 12  1  0
 13 21  1  0
 13 14  1  1
 15 14  1  0
 16 15  2  0
 17 16  1  0
 18 17  2  0
 18 19  1  0
 19 20  2  0
 20 15  1  0
 21 23  1  0
 22 21  2  0
 23 24  1  0
 24 29  1  0
 25 26  1  0
 24 25  1  1
 27 26  1  0
 27 28  2  0
 29 30  2  0
 29 32  1  0
 31 27  1  0
M  END
$$$$
