FFE.pdb
     RDKit          3D

 32 33  0  0  1  0  0  0  0  0999 V2000
    8.8135  -17.6922   19.7520 N   0  0  0  0  0  0  0  0  0  0  0  0
    8.3447  -17.9157   21.0877 C   0  0  1  0  0  0  0  0  0  0  0  0
    8.7961  -19.2752   21.6171 C   0  0  0  0  0  0  0  0  0  0  0  0
    8.0102  -20.3576   20.9479 C   0  0  0  0  0  0  0  0  0  0  0  0
    6.6670  -20.5198   21.2192 C   0  0  0  0  0  0  0  0  0  0  0  0
    5.9388  -21.5261   20.5982 C   0  0  0  0  0  0  0  0  0  0  0  0
    6.5444  -22.3733   19.7062 C   0  0  0  0  0  0  0  0  0  0  0  0
    7.8808  -22.2097   19.4382 C   0  0  0  0  0  0  0  0  0  0  0  0
    8.6152  -21.2143   20.0481 C   0  0  0  0  0  0  0  0  0  0  0  0
    8.7011  -16.8316   22.0340 C   0  0  0  0  0  0  0  0  0  0  0  0
    9.8769  -16.4584   22.1278 O   0  0  0  0  0  0  0  0  0  0  0  0
    7.7191  -16.2042   22.8435 N   0  0  0  0  0  0  0  0  0  0  0  0
    7.9510  -15.3088   23.9041 C   0  0  1  0  0  0  0  0  0  0  0  0
    6.7389  -14.6752   24.5493 C   0  0  0  0  0  0  0  0  0  0  0  0
    7.0570  -13.7805   25.6698 C   0  0  0  0  0  0  0  0  0  0  0  0
    7.4836  -12.4734   25.3990 C   0  0  0  0  0  0  0  0  0  0  0  0
    7.8001  -11.6031   26.4131 C   0  0  0  0  0  0  0  0  0  0  0  0
    7.7127  -11.9746   27.7355 C   0  0  0  0  0  0  0  0  0  0  0  0
    7.2889  -13.2734   28.0029 C   0  0  0  0  0  0  0  0  0  0  0  0
    6.9712  -14.1462   26.9681 C   0  0  0  0  0  0  0  0  0  0  0  0
    8.7839  -15.9024   24.9670 C   0  0  0  0  0  0  0  0  0  0  0  0
    8.4775  -17.0557   25.4216 O   0  0  0  0  0  0  0  0  0  0  0  0
    9.9104  -15.2871   25.5308 N   0  0  0  0  0  0  0  0  0  0  0  0
   10.9243  -16.0465   26.3287 C   0  0  1  0  0  0  0  0  0  0  0  0
   12.1828  -16.1141   25.5711 C   0  0  0  0  0  0  0  0  0  0  0  0
   13.2821  -16.8470   26.2501 C   0  0  0  0  0  0  0  0  0  0  0  0
   14.5459  -16.9403   25.4885 C   0  0  0  0  0  0  0  0  0  0  0  0
   15.5079  -16.1367   25.6909 O   0  0  0  0  0  0  0  0  0  0  0  0
   10.8924  -15.5706   27.6757 C   0  0  0  0  0  0  0  0  0  0  0  0
   11.5830  -16.1934   28.5674 O   0  0  0  0  0  0  0  0  0  0  0  0
   14.7772  -17.9177   24.4992 O   0  0  0  0  0  0  0  0  0  0  0  0
   10.2022  -14.4777   28.1988 O   0  0  0  0  0  0  0  0  0  0  0  0
  2  1  1  6
  3  4  1  0
  3  2  1  0
  4  5  2  0
  5  6  1  0
  7  6  2  0
  8  7  1  0
  9  8  2  0
  9  4  1  0
 10  2  1  0
 10 11  2  0
 12 10  1  0
 13 12  1  0
 13 21  1  0
 13 14  1  1
 15 14  1  0
 16 15  2  0
 17 16  1  0
 18 17  2  0
 18 19  1  0
 19 20  2  0
 20 15  1  0
 21 23  1  0
 22 21  2  0
 23 24  1  0
 24 29  1  0
 25 26  1  0
 24 25  1  6
 27 26  1  0
 27 28  2  0
 29 30  2  0
 29 32  1  0
 31 27  1  0
M  END
$$$$
