FFE.pdb
     RDKit          3D

 32 33  0  0  1  0  0  0  0  0999 V2000
   10.0006  -16.6243   19.3273 N   0  0  0  0  0  0  0  0  0  0  0  0
    9.0259  -16.8536   20.3526 C   0  0  1  0  0  0  0  0  0  0  0  0
    8.8661  -18.3436   20.6470 C   0  0  0  0  0  0  0  0  0  0  0  0
    8.1492  -19.0027   19.5118 C   0  0  0  0  0  0  0  0  0  0  0  0
    6.8898  -19.5370   19.6925 C   0  0  0  0  0  0  0  0  0  0  0  0
    6.2260  -20.1500   18.6380 C   0  0  0  0  0  0  0  0  0  0  0  0
    6.8127  -20.2331   17.4014 C   0  0  0  0  0  0  0  0  0  0  0  0
    8.0656  -19.7006   17.2244 C   0  0  0  0  0  0  0  0  0  0  0  0
    8.7355  -19.0893   18.2635 C   0  0  0  0  0  0  0  0  0  0  0  0
    9.2793  -16.0897   21.5977 C   0  0  0  0  0  0  0  0  0  0  0  0
   10.4255  -16.0275   22.0590 O   0  0  0  0  0  0  0  0  0  0  0  0
    8.2309  -15.4214   22.2814 N   0  0  0  0  0  0  0  0  0  0  0  0
    8.3369  -14.7051   23.4881 C   0  0  1  0  0  0  0  0  0  0  0  0
    7.1293  -13.9063   23.9243 C   0  0  0  0  0  0  0  0  0  0  0  0
    7.2841  -13.2538   25.2310 C   0  0  0  0  0  0  0  0  0  0  0  0
    8.4848  -13.4146   25.9356 C   0  0  0  0  0  0  0  0  0  0  0  0
    8.6732  -12.8308   27.1643 C   0  0  0  0  0  0  0  0  0  0  0  0
    7.6947  -12.0647   27.7560 C   0  0  0  0  0  0  0  0  0  0  0  0
    6.5025  -11.9060   27.0550 C   0  0  0  0  0  0  0  0  0  0  0  0
    6.3227  -12.5019   25.8116 C   0  0  0  0  0  0  0  0  0  0  0  0
    8.7563  -15.5617   24.6134 C   0  0  0  0  0  0  0  0  0  0  0  0
    8.0591  -16.5926   24.8995 O   0  0  0  0  0  0  0  0  0  0  0  0
    9.8847  -15.3286   25.4120 N   0  0  0  0  0  0  0  0  0  0  0  0
   10.6658  -16.4402   26.0412 C   0  0  1  0  0  0  0  0  0  0  0  0
   11.8757  -16.6913   25.2440 C   0  0  0  0  0  0  0  0  0  0  0  0
   11.9081  -18.0072   24.5554 C   0  0  0  0  0  0  0  0  0  0  0  0
   13.0858  -18.2416   23.6928 C   0  0  0  0  0  0  0  0  0  0  0  0
   14.2355  -17.7975   23.9980 O   0  0  0  0  0  0  0  0  0  0  0  0
   10.7388  -16.2049   27.4487 C   0  0  0  0  0  0  0  0  0  0  0  0
   11.4279  -17.0154   28.1756 O   0  0  0  0  0  0  0  0  0  0  0  0
   13.0233  -18.9702   22.4875 O   0  0  0  0  0  0  0  0  0  0  0  0
   10.1580  -15.1788   28.1931 O   0  0  0  0  0  0  0  0  0  0  0  0
  2  1  1  6
  3  4  1  0
  3  2  1  0
  4  5  2  0
  5  6  1  0
  7  6  2  0
  8  7  1  0
  9  8  2  0
  9  4  1  0
 10  2  1  0
 10 11  2  0
 12 10  1  0
 13 12  1  0
 13 21  1  0
 13 14  1  1
 15 14  1  0
 16 15  2  0
 17 16  1  0
 18 17  2  0
 18 19  1  0
 19 20  2  0
 20 15  1  0
 21 23  1  0
 22 21  2  0
 23 24  1  0
 24 29  1  0
 25 26  1  0
 24 25  1  6
 27 26  1  0
 27 28  2  0
 29 30  2  0
 29 32  1  0
 31 27  1  0
M  END
$$$$
