FFE.pdb
     RDKit          3D

 32 33  0  0  1  0  0  0  0  0999 V2000
    9.3630  -17.3075   19.6878 N   0  0  0  0  0  0  0  0  0  0  0  0
    8.7524  -17.5884   20.9534 C   0  0  1  0  0  0  0  0  0  0  0  0
    9.1584  -18.9651   21.4752 C   0  0  0  0  0  0  0  0  0  0  0  0
    8.6275  -20.0224   20.5603 C   0  0  0  0  0  0  0  0  0  0  0  0
    7.3361  -20.4880   20.7004 C   0  0  0  0  0  0  0  0  0  0  0  0
    6.8449  -21.4707   19.8510 C   0  0  0  0  0  0  0  0  0  0  0  0
    7.6364  -21.9927   18.8604 C   0  0  0  0  0  0  0  0  0  0  0  0
    8.9207  -21.5275   18.7232 C   0  0  0  0  0  0  0  0  0  0  0  0
    9.4205  -20.5520   19.5601 C   0  0  0  0  0  0  0  0  0  0  0  0
    8.9897  -16.5411   21.9756 C   0  0  0  0  0  0  0  0  0  0  0  0
   10.1169  -16.0465   22.0996 O   0  0  0  0  0  0  0  0  0  0  0  0
    7.9474  -16.0864   22.8242 N   0  0  0  0  0  0  0  0  0  0  0  0
    8.0638  -15.1571   23.8745 C   0  0  1  0  0  0  0  0  0  0  0  0
    6.7870  -14.5228   24.3788 C   0  0  0  0  0  0  0  0  0  0  0  0
    6.9740  -13.6452   25.5416 C   0  0  0  0  0  0  0  0  0  0  0  0
    7.4833  -12.3542   25.3467 C   0  0  0  0  0  0  0  0  0  0  0  0
    7.6831  -11.5004   26.4037 C   0  0  0  0  0  0  0  0  0  0  0  0
    7.3931  -11.8735   27.6964 C   0  0  0  0  0  0  0  0  0  0  0  0
    6.8875  -13.1562   27.8884 C   0  0  0  0  0  0  0  0  0  0  0  0
    6.6893  -14.0123   26.8108 C   0  0  0  0  0  0  0  0  0  0  0  0
    8.7956  -15.7071   25.0312 C   0  0  0  0  0  0  0  0  0  0  0  0
    8.3784  -16.7867   25.5707 O   0  0  0  0  0  0  0  0  0  0  0  0
    9.9382  -15.1256   25.5983 N   0  0  0  0  0  0  0  0  0  0  0  0
   10.8709  -15.8897   26.4858 C   0  0  1  0  0  0  0  0  0  0  0  0
   12.2493  -15.7106   26.0056 C   0  0  0  0  0  0  0  0  0  0  0  0
   12.8407  -16.9029   25.3457 C   0  0  0  0  0  0  0  0  0  0  0  0
   14.2325  -16.7402   24.8739 C   0  0  0  0  0  0  0  0  0  0  0  0
   15.1958  -17.3731   25.4065 O   0  0  0  0  0  0  0  0  0  0  0  0
   10.5184  -15.6313   27.8462 C   0  0  0  0  0  0  0  0  0  0  0  0
   10.1858  -14.4324   28.1811 O   0  0  0  0  0  0  0  0  0  0  0  0
   14.5889  -15.8877   23.8092 O   0  0  0  0  0  0  0  0  0  0  0  0
   10.4681  -16.5210   28.9187 O   0  0  0  0  0  0  0  0  0  0  0  0
  2  1  1  6
  3  4  1  0
  3  2  1  0
  4  5  2  0
  5  6  1  0
  7  6  2  0
  8  7  1  0
  9  8  2  0
  9  4  1  0
 10  2  1  0
 10 11  2  0
 12 10  1  0
 13 12  1  0
 13 21  1  0
 13 14  1  1
 15 14  1  0
 16 15  2  0
 17 16  1  0
 18 17  2  0
 18 19  1  0
 19 20  2  0
 20 15  1  0
 21 23  1  0
 22 21  2  0
 23 24  1  0
 24 29  1  0
 25 26  1  0
 24 25  1  1
 27 26  1  0
 27 28  2  0
 29 30  2  0
 29 32  1  0
 31 27  1  0
M  END
$$$$
