FFE.pdb
     RDKit          3D

 32 33  0  0  1  0  0  0  0  0999 V2000
    7.4997  -17.7159   21.9503 N   0  0  0  0  0  0  0  0  0  0  0  0
    7.8994  -16.3534   21.7569 C   0  0  1  0  0  0  0  0  0  0  0  0
    6.6906  -15.4377   21.5766 C   0  0  0  0  0  0  0  0  0  0  0  0
    7.1376  -14.1256   21.0149 C   0  0  0  0  0  0  0  0  0  0  0  0
    7.4837  -14.0132   19.6838 C   0  0  0  0  0  0  0  0  0  0  0  0
    7.8999  -12.7946   19.1639 C   0  0  0  0  0  0  0  0  0  0  0  0
    7.9728  -11.6849   19.9662 C   0  0  0  0  0  0  0  0  0  0  0  0
    7.6279  -11.7995   21.2900 C   0  0  0  0  0  0  0  0  0  0  0  0
    7.2131  -13.0039   21.8186 C   0  0  0  0  0  0  0  0  0  0  0  0
    8.8016  -15.8406   22.8157 C   0  0  0  0  0  0  0  0  0  0  0  0
    9.8348  -15.2355   22.5040 O   0  0  0  0  0  0  0  0  0  0  0  0
    8.5086  -16.0278   24.1914 N   0  0  0  0  0  0  0  0  0  0  0  0
    9.3762  -15.7953   25.2747 C   0  0  1  0  0  0  0  0  0  0  0  0
    8.7424  -15.4591   26.6059 C   0  0  0  0  0  0  0  0  0  0  0  0
    8.0007  -14.1914   26.6119 C   0  0  0  0  0  0  0  0  0  0  0  0
    6.6043  -14.2177   26.4965 C   0  0  0  0  0  0  0  0  0  0  0  0
    5.8684  -13.0582   26.4891 C   0  0  0  0  0  0  0  0  0  0  0  0
    6.4675  -11.8235   26.5942 C   0  0  0  0  0  0  0  0  0  0  0  0
    7.8546  -11.7990   26.7085 C   0  0  0  0  0  0  0  0  0  0  0  0
    8.5897  -12.9793   26.7148 C   0  0  0  0  0  0  0  0  0  0  0  0
   10.3252  -16.9057   25.4811 C   0  0  0  0  0  0  0  0  0  0  0  0
   11.0185  -16.9357   26.5530 O   0  0  0  0  0  0  0  0  0  0  0  0
   10.5313  -17.9540   24.5735 N   0  0  0  0  0  0  0  0  0  0  0  0
   11.5251  -19.0460   24.8212 C   0  0  1  0  0  0  0  0  0  0  0  0
   11.5531  -19.9461   23.6587 C   0  0  0  0  0  0  0  0  0  0  0  0
   12.5603  -21.0353   23.7362 C   0  0  0  0  0  0  0  0  0  0  0  0
   12.6599  -21.8921   22.5354 C   0  0  0  0  0  0  0  0  0  0  0  0
   13.2684  -21.5070   21.4895 O   0  0  0  0  0  0  0  0  0  0  0  0
   12.7225  -18.4625   25.3384 C   0  0  0  0  0  0  0  0  0  0  0  0
   13.1332  -18.8259   26.5044 O   0  0  0  0  0  0  0  0  0  0  0  0
   12.1007  -23.1842   22.4641 O   0  0  0  0  0  0  0  0  0  0  0  0
   13.5614  -17.5205   24.7441 O   0  0  0  0  0  0  0  0  0  0  0  0
  2  1  1  1
  3  4  1  0
  3  2  1  0
  4  5  2  0
  5  6  1  0
  7  6  2  0
  8  7  1  0
  9  8  2  0
  9  4  1  0
 10  2  1  0
 10 11  2  0
 12 10  1  0
 13 12  1  0
 13 21  1  0
 13 14  1  1
 15 14  1  0
 16 15  2  0
 17 16  1  0
 18 17  2  0
 18 19  1  0
 19 20  2  0
 20 15  1  0
 21 23  1  0
 22 21  2  0
 23 24  1  0
 24 29  1  0
 25 26  1  0
 24 25  1  6
 27 26  1  0
 27 28  2  0
 29 30  2  0
 29 32  1  0
 31 27  1  0
M  END
$$$$
