FFE.pdb
     RDKit          3D

 32 33  0  0  1  0  0  0  0  0999 V2000
    7.7613  -17.5749   20.5532 N   0  0  0  0  0  0  0  0  0  0  0  0
    9.0936  -17.0671   20.6970 C   0  0  1  0  0  0  0  0  0  0  0  0
    9.4694  -16.1502   19.5349 C   0  0  0  0  0  0  0  0  0  0  0  0
    8.7678  -14.8382   19.6870 C   0  0  0  0  0  0  0  0  0  0  0  0
    9.4860  -13.6619   19.7550 C   0  0  0  0  0  0  0  0  0  0  0  0
    8.8333  -12.4444   19.8976 C   0  0  0  0  0  0  0  0  0  0  0  0
    7.4651  -12.3938   19.9730 C   0  0  0  0  0  0  0  0  0  0  0  0
    6.7531  -13.5655   19.9051 C   0  0  0  0  0  0  0  0  0  0  0  0
    7.3892  -14.7810   19.7635 C   0  0  0  0  0  0  0  0  0  0  0  0
    9.3415  -16.4036   21.9994 C   0  0  0  0  0  0  0  0  0  0  0  0
   10.4587  -15.9336   22.2478 O   0  0  0  0  0  0  0  0  0  0  0  0
    8.3208  -16.2923   22.9787 N   0  0  0  0  0  0  0  0  0  0  0  0
    8.4186  -15.6461   24.2250 C   0  0  1  0  0  0  0  0  0  0  0  0
    7.1522  -15.0432   24.7904 C   0  0  0  0  0  0  0  0  0  0  0  0
    7.3722  -14.1681   25.9492 C   0  0  0  0  0  0  0  0  0  0  0  0
    7.1418  -12.7920   25.8181 C   0  0  0  0  0  0  0  0  0  0  0  0
    7.3414  -11.9330   26.8709 C   0  0  0  0  0  0  0  0  0  0  0  0
    7.7750  -12.3839   28.0970 C   0  0  0  0  0  0  0  0  0  0  0  0
    8.0036  -13.7510   28.2256 C   0  0  0  0  0  0  0  0  0  0  0  0
    7.7984  -14.6115   27.1528 C   0  0  0  0  0  0  0  0  0  0  0  0
    9.0217  -16.5091   25.2581 C   0  0  0  0  0  0  0  0  0  0  0  0
    8.4390  -17.6021   25.5686 O   0  0  0  0  0  0  0  0  0  0  0  0
   10.2105  -16.2181   25.9419 N   0  0  0  0  0  0  0  0  0  0  0  0
   10.9357  -17.2401   26.7610 C   0  0  1  0  0  0  0  0  0  0  0  0
   12.2900  -17.4217   26.2177 C   0  0  0  0  0  0  0  0  0  0  0  0
   12.4986  -18.6886   25.4704 C   0  0  0  0  0  0  0  0  0  0  0  0
   13.8425  -18.8606   24.8785 C   0  0  0  0  0  0  0  0  0  0  0  0
   14.0003  -19.1189   23.6453 O   0  0  0  0  0  0  0  0  0  0  0  0
   10.7224  -16.9495   28.1437 C   0  0  0  0  0  0  0  0  0  0  0  0
   10.2789  -15.7843   28.4688 O   0  0  0  0  0  0  0  0  0  0  0  0
   15.0323  -18.7465   25.6259 O   0  0  0  0  0  0  0  0  0  0  0  0
   10.9220  -17.7750   29.2497 O   0  0  0  0  0  0  0  0  0  0  0  0
  2  1  1  6
  3  4  1  0
  3  2  1  0
  4  5  2  0
  5  6  1  0
  7  6  2  0
  8  7  1  0
  9  8  2  0
  9  4  1  0
 10  2  1  0
 10 11  2  0
 12 10  1  0
 13 12  1  0
 13 21  1  0
 13 14  1  1
 15 14  1  0
 16 15  2  0
 17 16  1  0
 18 17  2  0
 18 19  1  0
 19 20  2  0
 20 15  1  0
 21 23  1  0
 22 21  2  0
 23 24  1  0
 24 29  1  0
 25 26  1  0
 24 25  1  1
 27 26  1  0
 27 28  2  0
 29 30  2  0
 29 32  1  0
 31 27  1  0
M  END
$$$$
