PGK.pdb
     RDKit          3D

 21 21  0  0  1  0  0  0  0  0999 V2000
   25.6996  -18.0231  -16.0937 N   0  0  0  0  0  0  0  0  0  0  0  0
   26.3739  -16.7971  -15.7980 C   0  0  0  0  0  0  0  0  0  0  0  0
   27.8409  -17.1062  -15.6222 C   0  0  0  0  0  0  0  0  0  0  0  0
   27.9483  -18.4501  -16.3389 C   0  0  0  0  0  0  0  0  0  0  0  0
   26.6531  -19.1027  -15.9477 C   0  0  1  0  0  0  0  0  0  0  0  0
   26.6364  -19.5251  -14.5167 C   0  0  0  0  0  0  0  0  0  0  0  0
   27.4126  -20.4249  -14.0726 O   0  0  0  0  0  0  0  0  0  0  0  0
   25.7500  -18.9438  -13.5686 N   0  0  0  0  0  0  0  0  0  0  0  0
   25.1104  -19.7102  -12.5481 C   0  0  0  0  0  0  0  0  0  0  0  0
   23.6497  -19.8653  -12.7686 C   0  0  0  0  0  0  0  0  0  0  0  0
   22.9723  -20.4345  -11.8793 O   0  0  0  0  0  0  0  0  0  0  0  0
   23.0442  -19.3799  -13.9563 N   0  0  0  0  0  0  0  0  0  0  0  0
   21.6034  -19.4903  -14.1903 C   0  0  1  0  0  0  0  0  0  0  0  0
   21.2242  -18.4713  -15.2366 C   0  0  0  0  0  0  0  0  0  0  0  0
   19.8962  -17.8402  -14.9836 C   0  0  0  0  0  0  0  0  0  0  0  0
   19.5894  -16.8919  -16.1332 C   0  0  0  0  0  0  0  0  0  0  0  0
   18.2821  -16.1822  -15.8013 C   0  0  0  0  0  0  0  0  0  0  0  0
   17.9010  -15.2324  -16.8014 N   0  0  0  0  0  0  0  0  0  0  0  0
   21.2615  -20.8290  -14.7317 C   0  0  0  0  0  0  0  0  0  0  0  0
   22.0694  -21.5305  -15.3818 O   0  0  0  0  0  0  0  0  0  0  0  0
   19.9926  -21.3232  -14.5076 O   0  0  0  0  0  0  0  0  0  0  0  0
  1  2  1  0
  1  5  1  0
  2  3  1  0
  3  4  1  0
  5  4  1  0
  5  6  1  1
  6  7  2  0
  8  6  1  0
  9  8  1  0
  9 10  1  0
 10 12  1  0
 11 10  2  0
 12 13  1  0
 13 19  1  0
 13 14  1  6
 14 15  1  0
 16 17  1  0
 16 15  1  0
 18 17  1  0
 19 20  2  0
 19 21  1  0
M  END
$$$$
