PGK.pdb
     RDKit          3D

 21 21  0  0  1  0  0  0  0  0999 V2000
   27.3588  -19.5459  -14.3783 N   0  0  0  0  0  0  0  0  0  0  0  0
   28.6581  -20.0596  -14.0736 C   0  0  0  0  0  0  0  0  0  0  0  0
   28.7480  -21.4564  -14.6386 C   0  0  0  0  0  0  0  0  0  0  0  0
   27.6259  -21.4299  -15.6737 C   0  0  0  0  0  0  0  0  0  0  0  0
   26.5811  -20.6183  -14.9623 C   0  0  1  0  0  0  0  0  0  0  0  0
   25.9404  -21.3685  -13.8427 C   0  0  0  0  0  0  0  0  0  0  0  0
   25.2306  -22.4004  -14.0447 O   0  0  0  0  0  0  0  0  0  0  0  0
   26.0885  -20.9705  -12.4855 N   0  0  0  0  0  0  0  0  0  0  0  0
   25.0965  -21.2416  -11.4954 C   0  0  0  0  0  0  0  0  0  0  0  0
   23.7906  -20.5986  -11.7913 C   0  0  0  0  0  0  0  0  0  0  0  0
   23.7437  -19.3461  -11.8427 O   0  0  0  0  0  0  0  0  0  0  0  0
   22.6315  -21.3874  -12.0090 N   0  0  0  0  0  0  0  0  0  0  0  0
   21.3636  -20.7958  -12.4393 C   0  0  1  0  0  0  0  0  0  0  0  0
   21.5775  -20.1798  -13.8000 C   0  0  0  0  0  0  0  0  0  0  0  0
   22.2398  -21.1065  -14.7637 C   0  0  0  0  0  0  0  0  0  0  0  0
   21.1600  -21.7993  -15.5816 C   0  0  0  0  0  0  0  0  0  0  0  0
   21.8618  -22.6674  -16.6194 C   0  0  0  0  0  0  0  0  0  0  0  0
   20.9540  -23.5027  -17.3442 N   0  0  0  0  0  0  0  0  0  0  0  0
   20.3205  -21.8412  -12.5857 C   0  0  0  0  0  0  0  0  0  0  0  0
   19.1317  -21.5842  -12.8824 O   0  0  0  0  0  0  0  0  0  0  0  0
   20.6789  -23.1587  -12.3852 O   0  0  0  0  0  0  0  0  0  0  0  0
  1  2  1  0
  1  5  1  0
  2  3  1  0
  3  4  1  0
  5  4  1  0
  5  6  1  1
  6  7  2  0
  8  6  1  0
  9  8  1  0
  9 10  1  0
 10 12  1  0
 11 10  2  0
 12 13  1  0
 13 19  1  0
 13 14  1  6
 14 15  1  0
 16 17  1  0
 16 15  1  0
 18 17  1  0
 19 20  2  0
 19 21  1  0
M  END
$$$$
