PGK.pdb
     RDKit          3D

 21 21  0  0  1  0  0  0  0  0999 V2000
   17.8767  -10.7746  -13.6869 N   0  0  0  0  0  0  0  0  0  0  0  0
   16.5005  -10.6081  -14.0379 C   0  0  0  0  0  0  0  0  0  0  0  0
   16.3531   -9.2641  -14.7091 C   0  0  0  0  0  0  0  0  0  0  0  0
   17.7933   -8.9851  -15.1325 C   0  0  0  0  0  0  0  0  0  0  0  0
   18.5607   -9.5283  -13.9610 C   0  0  1  0  0  0  0  0  0  0  0  0
   18.4319   -8.6700  -12.7471 C   0  0  0  0  0  0  0  0  0  0  0  0
   18.7314   -7.4373  -12.7610 O   0  0  0  0  0  0  0  0  0  0  0  0
   17.9665   -9.1839  -11.5055 N   0  0  0  0  0  0  0  0  0  0  0  0
   17.8444   -8.3715  -10.3380 C   0  0  0  0  0  0  0  0  0  0  0  0
   16.5879   -7.5798  -10.3109 C   0  0  0  0  0  0  0  0  0  0  0  0
   16.3393   -6.8274  -11.2834 O   0  0  0  0  0  0  0  0  0  0  0  0
   15.6977   -7.6776   -9.2105 N   0  0  0  0  0  0  0  0  0  0  0  0
   14.4439   -6.9239   -9.1612 C   0  0  1  0  0  0  0  0  0  0  0  0
   13.6242   -7.4620   -8.0143 C   0  0  0  0  0  0  0  0  0  0  0  0
   12.3013   -6.7865   -7.8737 C   0  0  0  0  0  0  0  0  0  0  0  0
   11.5456   -7.4460   -6.7297 C   0  0  0  0  0  0  0  0  0  0  0  0
   10.1656   -6.8022   -6.6648 C   0  0  0  0  0  0  0  0  0  0  0  0
    9.3811   -7.2887   -5.5716 N   0  0  0  0  0  0  0  0  0  0  0  0
   14.7051   -5.4897   -8.8839 C   0  0  0  0  0  0  0  0  0  0  0  0
   15.6337   -5.0944   -8.1430 O   0  0  0  0  0  0  0  0  0  0  0  0
   13.8850   -4.5476   -9.4710 O   0  0  0  0  0  0  0  0  0  0  0  0
  1  2  1  0
  1  5  1  0
  2  3  1  0
  3  4  1  0
  5  4  1  0
  5  6  1  1
  6  7  2  0
  8  6  1  0
  9  8  1  0
  9 10  1  0
 10 12  1  0
 11 10  2  0
 12 13  1  0
 13 19  1  0
 13 14  1  1
 14 15  1  0
 16 17  1  0
 16 15  1  0
 18 17  1  0
 19 20  2  0
 19 21  1  0
M  END
$$$$
