PGK.pdb
     RDKit          3D

 21 21  0  0  1  0  0  0  0  0999 V2000
   25.4862  -22.3708  -16.4304 N   0  0  0  0  0  0  0  0  0  0  0  0
   26.5416  -22.8217  -15.5773 C   0  0  0  0  0  0  0  0  0  0  0  0
   26.0638  -24.0649  -14.8669 C   0  0  0  0  0  0  0  0  0  0  0  0
   24.9180  -24.5034  -15.7758 C   0  0  0  0  0  0  0  0  0  0  0  0
   24.3173  -23.1812  -16.1599 C   0  0  1  0  0  0  0  0  0  0  0  0
   23.5791  -22.5408  -15.0323 C   0  0  0  0  0  0  0  0  0  0  0  0
   22.6136  -23.1191  -14.4468 O   0  0  0  0  0  0  0  0  0  0  0  0
   23.9150  -21.2462  -14.5491 N   0  0  0  0  0  0  0  0  0  0  0  0
   23.1192  -20.5590  -13.5835 C   0  0  0  0  0  0  0  0  0  0  0  0
   21.6815  -20.9266  -13.6490 C   0  0  0  0  0  0  0  0  0  0  0  0
   21.0936  -20.8290  -14.7529 O   0  0  0  0  0  0  0  0  0  0  0  0
   20.9985  -21.3753  -12.4893 N   0  0  0  0  0  0  0  0  0  0  0  0
   19.5828  -21.7462  -12.5209 C   0  0  1  0  0  0  0  0  0  0  0  0
   19.2610  -22.4583  -11.2301 C   0  0  0  0  0  0  0  0  0  0  0  0
   18.8017  -23.8628  -11.4361 C   0  0  0  0  0  0  0  0  0  0  0  0
   18.5551  -24.4911  -10.0725 C   0  0  0  0  0  0  0  0  0  0  0  0
   18.1955  -25.9541  -10.3039 C   0  0  0  0  0  0  0  0  0  0  0  0
   18.0847  -26.6941   -9.0843 N   0  0  0  0  0  0  0  0  0  0  0  0
   18.7255  -20.5366  -12.5848 C   0  0  0  0  0  0  0  0  0  0  0  0
   19.0522  -19.4392  -12.0783 O   0  0  0  0  0  0  0  0  0  0  0  0
   17.5106  -20.6265  -13.2333 O   0  0  0  0  0  0  0  0  0  0  0  0
  1  2  1  0
  1  5  1  0
  2  3  1  0
  3  4  1  0
  5  4  1  0
  5  6  1  1
  6  7  2  0
  8  6  1  0
  9  8  1  0
  9 10  1  0
 10 12  1  0
 11 10  2  0
 12 13  1  0
 13 19  1  0
 13 14  1  1
 14 15  1  0
 16 17  1  0
 16 15  1  0
 18 17  1  0
 19 20  2  0
 19 21  1  0
M  END
$$$$
