PGK.pdb
     RDKit          3D

 21 21  0  0  1  0  0  0  0  0999 V2000
   26.5392  -21.0850  -14.6576 N   0  0  0  0  0  0  0  0  0  0  0  0
   26.6552  -19.7292  -15.0973 C   0  0  0  0  0  0  0  0  0  0  0  0
   27.7871  -19.0890  -14.3308 C   0  0  0  0  0  0  0  0  0  0  0  0
   28.5572  -20.3195  -13.8573 C   0  0  0  0  0  0  0  0  0  0  0  0
   27.4380  -21.2689  -13.5375 C   0  0  1  0  0  0  0  0  0  0  0  0
   26.6978  -20.8825  -12.3008 C   0  0  0  0  0  0  0  0  0  0  0  0
   27.2988  -20.5699  -11.2281 O   0  0  0  0  0  0  0  0  0  0  0  0
   25.2771  -20.8424  -12.2530 N   0  0  0  0  0  0  0  0  0  0  0  0
   24.5611  -20.4476  -11.0829 C   0  0  0  0  0  0  0  0  0  0  0  0
   23.0914  -20.3966  -11.2917 C   0  0  0  0  0  0  0  0  0  0  0  0
   22.3730  -19.9738  -10.3543 O   0  0  0  0  0  0  0  0  0  0  0  0
   22.5228  -20.8169  -12.5217 N   0  0  0  0  0  0  0  0  0  0  0  0
   21.0997  -20.6411  -12.8156 C   0  0  1  0  0  0  0  0  0  0  0  0
   20.9679  -20.2898  -14.2771 C   0  0  0  0  0  0  0  0  0  0  0  0
   21.7862  -19.1056  -14.6697 C   0  0  0  0  0  0  0  0  0  0  0  0
   21.6422  -18.8998  -16.1704 C   0  0  0  0  0  0  0  0  0  0  0  0
   22.5290  -17.7215  -16.5553 C   0  0  0  0  0  0  0  0  0  0  0  0
   22.4857  -17.4335  -17.9562 N   0  0  0  0  0  0  0  0  0  0  0  0
   20.3589  -21.9082  -12.5965 C   0  0  0  0  0  0  0  0  0  0  0  0
   20.9244  -23.0181  -12.4712 O   0  0  0  0  0  0  0  0  0  0  0  0
   18.9814  -21.8597  -12.5277 O   0  0  0  0  0  0  0  0  0  0  0  0
  1  2  1  0
  1  5  1  0
  2  3  1  0
  3  4  1  0
  5  4  1  0
  5  6  1  1
  6  7  2  0
  8  6  1  0
  9  8  1  0
  9 10  1  0
 10 12  1  0
 11 10  2  0
 12 13  1  0
 13 19  1  0
 13 14  1  6
 14 15  1  0
 16 17  1  0
 16 15  1  0
 18 17  1  0
 19 20  2  0
 19 21  1  0
M  END
$$$$
