EVL.pdb
     RDKit          3D

 25 24  0  0  1  0  0  0  0  0999 V2000
    9.7055  -17.7776   18.7109 N   0  0  0  0  0  0  0  0  0  0  0  0
   10.6991  -17.7445   19.7848 C   0  0  1  0  0  0  0  0  0  0  0  0
   12.0668  -17.8195   19.1655 C   0  0  0  0  0  0  0  0  0  0  0  0
   13.0950  -18.4874   20.0005 C   0  0  0  0  0  0  0  0  0  0  0  0
   14.4561  -18.4946   19.4452 C   0  0  0  0  0  0  0  0  0  0  0  0
   14.6568  -18.7204   18.2346 O   0  0  0  0  0  0  0  0  0  0  0  0
   10.5170  -16.5065   20.6221 C   0  0  0  0  0  0  0  0  0  0  0  0
   11.1950  -15.4960   20.3691 O   0  0  0  0  0  0  0  0  0  0  0  0
   15.5596  -18.2518   20.2435 O   0  0  0  0  0  0  0  0  0  0  0  0
    7.5912  -14.5955   20.9989 C   0  0  0  0  0  0  0  0  0  0  0  0
    7.8123  -15.0480   22.4475 C   0  0  1  0  0  0  0  0  0  0  0  0
    6.9405  -16.3344   22.4987 C   0  0  0  0  0  0  0  0  0  0  0  0
    9.2425  -15.5111   22.6143 C   0  0  2  0  0  0  0  0  0  0  0  0
    9.5823  -16.5543   21.6565 N   0  0  0  0  0  0  0  0  0  0  0  0
    9.6453  -15.9037   23.9588 C   0  0  0  0  0  0  0  0  0  0  0  0
    9.1534  -17.0229   24.3786 O   0  0  0  0  0  0  0  0  0  0  0  0
   10.6595  -13.8617   29.1592 C   0  0  0  0  0  0  0  0  0  0  0  0
    9.4606  -13.8719   28.2409 C   0  0  1  0  0  0  0  0  0  0  0  0
    8.7899  -12.5007   28.4316 C   0  0  0  0  0  0  0  0  0  0  0  0
    9.7643  -13.9983   26.7998 C   0  0  0  0  0  0  0  0  0  0  0  0
   10.3200  -15.2787   26.3119 C   0  0  2  0  0  0  0  0  0  0  0  0
   10.4878  -15.2519   24.8591 N   0  0  0  0  0  0  0  0  0  0  0  0
    9.6546  -16.4969   26.7689 C   0  0  0  0  0  0  0  0  0  0  0  0
   10.3658  -17.4148   27.5272 O   0  0  0  0  0  0  0  0  0  0  0  0
    8.4523  -16.7876   26.5208 O   0  0  0  0  0  0  0  0  0  0  0  0
  2  1  1  6
  2  3  1  0
  3  4  1  0
  5  6  2  0
  5  4  1  0
  7  8  2  0
  7  2  1  0
  9  5  1  0
 11 10  1  6
 11 13  1  0
 12 11  1  0
 13 14  1  6
 14  7  1  0
 15 22  1  0
 15 13  1  0
 16 15  2  0
 18 17  1  1
 18 20  1  0
 19 18  1  0
 21 20  1  6
 21 23  1  0
 21 22  1  0
 23 24  1  0
 25 23  2  0
M  END
$$$$
