EVL.pdb
     RDKit          3D

 25 24  0  0  1  0  0  0  0  0999 V2000
   10.1242  -19.2622   20.1724 N   0  0  0  0  0  0  0  0  0  0  0  0
   11.3560  -18.4914   20.3462 C   0  0  1  0  0  0  0  0  0  0  0  0
   11.9008  -18.1582   18.9854 C   0  0  0  0  0  0  0  0  0  0  0  0
   13.1949  -17.4332   18.9910 C   0  0  0  0  0  0  0  0  0  0  0  0
   14.0536  -17.6596   17.8195 C   0  0  0  0  0  0  0  0  0  0  0  0
   14.8706  -18.6024   17.7920 O   0  0  0  0  0  0  0  0  0  0  0  0
   11.0863  -17.2615   21.1717 C   0  0  0  0  0  0  0  0  0  0  0  0
   12.0222  -16.4860   21.4314 O   0  0  0  0  0  0  0  0  0  0  0  0
   13.9862  -16.8374   16.7089 O   0  0  0  0  0  0  0  0  0  0  0  0
    7.2945  -14.5619   23.0306 C   0  0  0  0  0  0  0  0  0  0  0  0
    7.7989  -15.6921   22.1250 C   0  0  1  0  0  0  0  0  0  0  0  0
    7.7442  -15.0083   20.7296 C   0  0  0  0  0  0  0  0  0  0  0  0
    9.2640  -15.9421   22.4055 C   0  0  2  0  0  0  0  0  0  0  0  0
    9.7796  -17.0487   21.6114 N   0  0  0  0  0  0  0  0  0  0  0  0
    9.6391  -16.1016   23.8048 C   0  0  0  0  0  0  0  0  0  0  0  0
    9.5993  -17.3133   24.2532 O   0  0  0  0  0  0  0  0  0  0  0  0
   10.8535  -12.9026   29.0625 C   0  0  0  0  0  0  0  0  0  0  0  0
   10.6816  -14.2278   28.3588 C   0  0  1  0  0  0  0  0  0  0  0  0
    9.4532  -14.8810   29.0152 C   0  0  0  0  0  0  0  0  0  0  0  0
   10.3955  -14.1466   26.9109 C   0  0  0  0  0  0  0  0  0  0  0  0
   10.2713  -15.4088   26.1508 C   0  0  2  0  0  0  0  0  0  0  0  0
   10.0396  -15.1396   24.7318 N   0  0  0  0  0  0  0  0  0  0  0  0
    9.3432  -16.4042   26.6830 C   0  0  0  0  0  0  0  0  0  0  0  0
    9.8456  -17.5159   27.3427 O   0  0  0  0  0  0  0  0  0  0  0  0
    8.0875  -16.3305   26.5866 O   0  0  0  0  0  0  0  0  0  0  0  0
  2  1  1  6
  2  3  1  0
  3  4  1  0
  5  6  2  0
  5  4  1  0
  7  8  2  0
  7  2  1  0
  9  5  1  0
 11 10  1  1
 11 13  1  0
 12 11  1  0
 13 14  1  6
 14  7  1  0
 15 22  1  0
 15 13  1  0
 16 15  2  0
 18 17  1  1
 18 20  1  0
 19 18  1  0
 21 20  1  1
 21 23  1  0
 21 22  1  0
 23 24  1  0
 25 23  2  0
M  END
$$$$
