EVL.pdb
     RDKit          3D

 25 24  0  0  1  0  0  0  0  0999 V2000
   12.4950  -18.0947   19.4717 N   0  0  0  0  0  0  0  0  0  0  0  0
   11.7651  -18.0569   20.7396 C   0  0  1  0  0  0  0  0  0  0  0  0
   12.7558  -18.2109   21.8598 C   0  0  0  0  0  0  0  0  0  0  0  0
   13.5582  -19.4578   21.8171 C   0  0  0  0  0  0  0  0  0  0  0  0
   14.5970  -19.5789   22.8502 C   0  0  0  0  0  0  0  0  0  0  0  0
   15.3323  -20.5853   22.9096 O   0  0  0  0  0  0  0  0  0  0  0  0
   10.9752  -16.7796   20.8456 C   0  0  0  0  0  0  0  0  0  0  0  0
   11.4250  -15.7417   20.3306 O   0  0  0  0  0  0  0  0  0  0  0  0
   14.7954  -18.5838   23.7906 O   0  0  0  0  0  0  0  0  0  0  0  0
    6.7658  -17.1623   21.6115 C   0  0  0  0  0  0  0  0  0  0  0  0
    7.5172  -15.9854   20.9773 C   0  0  1  0  0  0  0  0  0  0  0  0
    6.5810  -14.7983   21.3402 C   0  0  0  0  0  0  0  0  0  0  0  0
    8.8029  -15.7449   21.7369 C   0  0  2  0  0  0  0  0  0  0  0  0
    9.7585  -16.8236   21.5266 N   0  0  0  0  0  0  0  0  0  0  0  0
    8.6718  -15.4509   23.1584 C   0  0  0  0  0  0  0  0  0  0  0  0
    8.5588  -16.4831   23.9283 O   0  0  0  0  0  0  0  0  0  0  0  0
    7.8593  -12.0629   27.6809 C   0  0  0  0  0  0  0  0  0  0  0  0
    6.8277  -12.5866   26.7101 C   0  0  1  0  0  0  0  0  0  0  0  0
    5.8101  -11.4453   26.5422 C   0  0  0  0  0  0  0  0  0  0  0  0
    7.3319  -12.9072   25.3581 C   0  0  0  0  0  0  0  0  0  0  0  0
    8.2768  -14.0352   25.2133 C   0  0  2  0  0  0  0  0  0  0  0  0
    8.6550  -14.2192   23.8124 N   0  0  0  0  0  0  0  0  0  0  0  0
    7.8966  -15.2930   25.8527 C   0  0  0  0  0  0  0  0  0  0  0  0
    6.7843  -15.9801   25.3902 O   0  0  0  0  0  0  0  0  0  0  0  0
    8.5166  -15.8169   26.8185 O   0  0  0  0  0  0  0  0  0  0  0  0
  2  1  1  6
  2  3  1  0
  3  4  1  0
  5  6  2  0
  5  4  1  0
  7  8  2  0
  7  2  1  0
  9  5  1  0
 11 10  1  1
 11 13  1  0
 12 11  1  0
 13 14  1  1
 14  7  1  0
 15 22  1  0
 15 13  1  0
 16 15  2  0
 18 17  1  1
 18 20  1  0
 19 18  1  0
 21 20  1  6
 21 23  1  0
 21 22  1  0
 23 24  1  0
 25 23  2  0
M  END
$$$$
