EVL.pdb
     RDKit          3D

 25 24  0  0  1  0  0  0  0  0999 V2000
   11.3224  -18.2032   19.4853 N   0  0  0  0  0  0  0  0  0  0  0  0
   10.0684  -18.1015   20.2327 C   0  0  1  0  0  0  0  0  0  0  0  0
    9.9731  -19.2821   21.1584 C   0  0  0  0  0  0  0  0  0  0  0  0
   11.0143  -19.3342   22.2136 C   0  0  0  0  0  0  0  0  0  0  0  0
   10.9073  -20.4582   23.1550 C   0  0  0  0  0  0  0  0  0  0  0  0
   10.0310  -21.3353   23.0142 O   0  0  0  0  0  0  0  0  0  0  0  0
   10.0086  -16.7900   20.9697 C   0  0  0  0  0  0  0  0  0  0  0  0
   11.0469  -16.3263   21.4713 O   0  0  0  0  0  0  0  0  0  0  0  0
   11.7723  -20.5828   24.2274 O   0  0  0  0  0  0  0  0  0  0  0  0
    7.2615  -12.6866   21.2794 C   0  0  0  0  0  0  0  0  0  0  0  0
    7.3696  -14.1475   20.8255 C   0  0  1  0  0  0  0  0  0  0  0  0
    7.9084  -13.9749   19.3773 C   0  0  0  0  0  0  0  0  0  0  0  0
    8.4750  -14.8314   21.5989 C   0  0  2  0  0  0  0  0  0  0  0  0
    8.7724  -16.1493   21.0551 N   0  0  0  0  0  0  0  0  0  0  0  0
    8.3071  -14.9035   23.0449 C   0  0  0  0  0  0  0  0  0  0  0  0
    7.3847  -15.7110   23.4547 O   0  0  0  0  0  0  0  0  0  0  0  0
    5.4494  -12.0595   25.6451 C   0  0  0  0  0  0  0  0  0  0  0  0
    6.8770  -12.4508   25.3454 C   0  0  1  0  0  0  0  0  0  0  0  0
    7.7427  -11.5565   26.2493 C   0  0  0  0  0  0  0  0  0  0  0  0
    7.2337  -13.8491   25.6658 C   0  0  0  0  0  0  0  0  0  0  0  0
    8.6358  -14.2755   25.4699 C   0  0  2  0  0  0  0  0  0  0  0  0
    8.9984  -14.2326   24.0535 N   0  0  0  0  0  0  0  0  0  0  0  0
    9.0323  -15.5311   26.1039 C   0  0  0  0  0  0  0  0  0  0  0  0
    9.3727  -16.6149   25.3085 O   0  0  0  0  0  0  0  0  0  0  0  0
    9.0902  -15.7119   27.3511 O   0  0  0  0  0  0  0  0  0  0  0  0
  2  1  1  1
  2  3  1  0
  3  4  1  0
  5  6  2  0
  5  4  1  0
  7  8  2  0
  7  2  1  0
  9  5  1  0
 11 10  1  1
 11 13  1  0
 12 11  1  0
 13 14  1  6
 14  7  1  0
 15 22  1  0
 15 13  1  0
 16 15  2  0
 18 17  1  1
 18 20  1  0
 19 18  1  0
 21 20  1  6
 21 23  1  0
 21 22  1  0
 23 24  1  0
 25 23  2  0
M  END
$$$$
