EVL.pdb
     RDKit          3D

 25 24  0  0  1  0  0  0  0  0999 V2000
   10.6234  -18.9360   21.1959 N   0  0  0  0  0  0  0  0  0  0  0  0
   10.4317  -17.8013   20.2919 C   0  0  1  0  0  0  0  0  0  0  0  0
    9.9935  -18.3310   18.9551 C   0  0  0  0  0  0  0  0  0  0  0  0
   10.0611  -17.3521   17.8426 C   0  0  0  0  0  0  0  0  0  0  0  0
    9.8097  -17.8984   16.5012 C   0  0  0  0  0  0  0  0  0  0  0  0
   10.5441  -18.7842   16.0182 O   0  0  0  0  0  0  0  0  0  0  0  0
    9.4381  -16.8334   20.8776 C   0  0  0  0  0  0  0  0  0  0  0  0
    9.2149  -15.7610   20.2902 O   0  0  0  0  0  0  0  0  0  0  0  0
    8.7526  -17.4510   15.7290 O   0  0  0  0  0  0  0  0  0  0  0  0
    6.0650  -17.8783   21.6869 C   0  0  0  0  0  0  0  0  0  0  0  0
    6.5509  -17.3174   23.0290 C   0  0  1  0  0  0  0  0  0  0  0  0
    7.0558  -18.6094   23.7314 C   0  0  0  0  0  0  0  0  0  0  0  0
    7.7790  -16.4647   22.7999 C   0  0  2  0  0  0  0  0  0  0  0  0
    8.8069  -17.1925   22.0686 N   0  0  0  0  0  0  0  0  0  0  0  0
    8.3504  -15.8201   23.9755 C   0  0  0  0  0  0  0  0  0  0  0  0
    9.6355  -15.9078   24.0843 O   0  0  0  0  0  0  0  0  0  0  0  0
    5.8434  -11.7025   26.6390 C   0  0  0  0  0  0  0  0  0  0  0  0
    6.8184  -12.6146   25.9332 C   0  0  1  0  0  0  0  0  0  0  0  0
    7.8320  -11.6788   25.2526 C   0  0  0  0  0  0  0  0  0  0  0  0
    7.5958  -13.5153   26.8104 C   0  0  0  0  0  0  0  0  0  0  0  0
    8.3971  -14.5858   26.1794 C   0  0  2  0  0  0  0  0  0  0  0  0
    7.7156  -15.1177   24.9995 N   0  0  0  0  0  0  0  0  0  0  0  0
    8.8831  -15.6451   27.0611 C   0  0  0  0  0  0  0  0  0  0  0  0
    8.4471  -16.9465   26.8624 O   0  0  0  0  0  0  0  0  0  0  0  0
    9.6890  -15.4642   28.0148 O   0  0  0  0  0  0  0  0  0  0  0  0
  2  1  1  1
  2  3  1  0
  3  4  1  0
  5  6  2  0
  5  4  1  0
  7  8  2  0
  7  2  1  0
  9  5  1  0
 11 10  1  6
 11 13  1  0
 12 11  1  0
 13 14  1  1
 14  7  1  0
 15 22  1  0
 15 13  1  0
 16 15  2  0
 18 17  1  1
 18 20  1  0
 19 18  1  0
 21 20  1  1
 21 23  1  0
 21 22  1  0
 23 24  1  0
 25 23  2  0
M  END
$$$$
