EVL.pdb
     RDKit          3D

 25 24  0  0  1  0  0  0  0  0999 V2000
   12.0840  -17.9496   19.4598 N   0  0  0  0  0  0  0  0  0  0  0  0
   12.0527  -17.5356   20.8631 C   0  0  1  0  0  0  0  0  0  0  0  0
   13.4597  -17.2342   21.2983 C   0  0  0  0  0  0  0  0  0  0  0  0
   13.5898  -16.7329   22.6883 C   0  0  0  0  0  0  0  0  0  0  0  0
   14.9611  -16.4440   23.1323 C   0  0  0  0  0  0  0  0  0  0  0  0
   15.7304  -17.3605   23.4861 O   0  0  0  0  0  0  0  0  0  0  0  0
   11.1349  -16.3545   21.0353 C   0  0  0  0  0  0  0  0  0  0  0  0
   11.4807  -15.2459   20.5922 O   0  0  0  0  0  0  0  0  0  0  0  0
   15.4457  -15.1488   23.1735 O   0  0  0  0  0  0  0  0  0  0  0  0
    7.8756  -16.3130   19.7260 C   0  0  0  0  0  0  0  0  0  0  0  0
    7.5712  -16.0548   21.2068 C   0  0  1  0  0  0  0  0  0  0  0  0
    7.2810  -17.4965   21.7115 C   0  0  0  0  0  0  0  0  0  0  0  0
    8.8376  -15.6181   21.9092 C   0  0  2  0  0  0  0  0  0  0  0  0
    9.9229  -16.5649   21.6932 N   0  0  0  0  0  0  0  0  0  0  0  0
    8.7167  -15.2969   23.3257 C   0  0  0  0  0  0  0  0  0  0  0  0
    9.2314  -16.1635   24.1350 O   0  0  0  0  0  0  0  0  0  0  0  0
    7.5295  -11.9629   27.9298 C   0  0  0  0  0  0  0  0  0  0  0  0
    6.5483  -12.6975   27.0474 C   0  0  1  0  0  0  0  0  0  0  0  0
    5.3062  -11.7926   26.9784 C   0  0  0  0  0  0  0  0  0  0  0  0
    6.9888  -12.9197   25.6540 C   0  0  0  0  0  0  0  0  0  0  0  0
    7.8329  -14.0992   25.3672 C   0  0  2  0  0  0  0  0  0  0  0  0
    8.1311  -14.1891   23.9380 N   0  0  0  0  0  0  0  0  0  0  0  0
    7.3828  -15.3754   25.9189 C   0  0  0  0  0  0  0  0  0  0  0  0
    6.3263  -16.0407   25.3152 O   0  0  0  0  0  0  0  0  0  0  0  0
    7.8927  -15.9342   26.9285 O   0  0  0  0  0  0  0  0  0  0  0  0
  2  1  1  6
  2  3  1  0
  3  4  1  0
  5  6  2  0
  5  4  1  0
  7  8  2  0
  7  2  1  0
  9  5  1  0
 11 10  1  6
 11 13  1  0
 12 11  1  0
 13 14  1  1
 14  7  1  0
 15 22  1  0
 15 13  1  0
 16 15  2  0
 18 17  1  1
 18 20  1  0
 19 18  1  0
 21 20  1  6
 21 23  1  0
 21 22  1  0
 23 24  1  0
 25 23  2  0
M  END
$$$$
