EVL.pdb
     RDKit          3D

 25 24  0  0  1  0  0  0  0  0999 V2000
    9.2053  -19.0010   19.3302 N   0  0  0  0  0  0  0  0  0  0  0  0
    8.6722  -18.4657   20.5835 C   0  0  1  0  0  0  0  0  0  0  0  0
    9.0920  -19.3769   21.7030 C   0  0  0  0  0  0  0  0  0  0  0  0
   10.5582  -19.5303   21.8671 C   0  0  0  0  0  0  0  0  0  0  0  0
   10.9859  -20.3548   23.0066 C   0  0  0  0  0  0  0  0  0  0  0  0
   10.1514  -20.9248   23.7386 O   0  0  0  0  0  0  0  0  0  0  0  0
    9.1476  -17.0518   20.7876 C   0  0  0  0  0  0  0  0  0  0  0  0
   10.3670  -16.8264   20.8727 O   0  0  0  0  0  0  0  0  0  0  0  0
   12.3253  -20.5274   23.3067 O   0  0  0  0  0  0  0  0  0  0  0  0
    7.5268  -12.3165   20.7266 C   0  0  0  0  0  0  0  0  0  0  0  0
    7.2863  -13.8038   20.4400 C   0  0  1  0  0  0  0  0  0  0  0  0
    7.5603  -13.8651   18.9108 C   0  0  0  0  0  0  0  0  0  0  0  0
    8.3806  -14.6218   21.0891 C   0  0  2  0  0  0  0  0  0  0  0  0
    8.1823  -16.0483   20.8724 N   0  0  0  0  0  0  0  0  0  0  0  0
    8.6442  -14.3526   22.4969 C   0  0  0  0  0  0  0  0  0  0  0  0
    9.2974  -13.2636   22.7387 O   0  0  0  0  0  0  0  0  0  0  0  0
    8.0534  -11.9659   26.8626 C   0  0  0  0  0  0  0  0  0  0  0  0
    7.0537  -13.0620   26.5797 C   0  0  1  0  0  0  0  0  0  0  0  0
    5.6762  -12.3788   26.6265 C   0  0  0  0  0  0  0  0  0  0  0  0
    7.1665  -13.6978   25.2500 C   0  0  0  0  0  0  0  0  0  0  0  0
    8.3247  -14.5801   24.9928 C   0  0  2  0  0  0  0  0  0  0  0  0
    8.2915  -15.0946   23.6239 N   0  0  0  0  0  0  0  0  0  0  0  0
    8.5744  -15.6344   25.9734 C   0  0  0  0  0  0  0  0  0  0  0  0
    8.6749  -16.9496   25.5449 O   0  0  0  0  0  0  0  0  0  0  0  0
    8.7085  -15.4375   27.2123 O   0  0  0  0  0  0  0  0  0  0  0  0
  2  1  1  6
  2  3  1  0
  3  4  1  0
  5  6  2  0
  5  4  1  0
  7  8  2  0
  7  2  1  0
  9  5  1  0
 11 10  1  1
 11 13  1  0
 12 11  1  0
 13 14  1  1
 14  7  1  0
 15 22  1  0
 15 13  1  0
 16 15  2  0
 18 17  1  6
 18 20  1  0
 19 18  1  0
 21 20  1  1
 21 23  1  0
 21 22  1  0
 23 24  1  0
 25 23  2  0
M  END
$$$$
