HRV.pdb
     RDKit          3D

 29 29  0  0  1  0  0  0  0  0999 V2000
   28.3316  -21.7810  -17.9687 N   0  0  0  0  0  0  0  0  0  0  0  0
   27.6961  -22.2793  -16.7732 C   0  0  1  0  0  0  0  0  0  0  0  0
   28.4575  -23.5250  -16.3516 C   0  0  0  0  0  0  0  0  0  0  0  0
   27.8819  -24.6849  -17.0787 C   0  0  0  0  0  0  0  0  0  0  0  0
   26.8542  -25.5238  -16.7464 C   0  0  0  0  0  0  0  0  0  0  0  0
   26.6735  -26.4508  -17.7195 N   0  0  0  0  0  0  0  0  0  0  0  0
   27.5905  -26.1976  -18.6717 C   0  0  0  0  0  0  0  0  0  0  0  0
   28.3200  -25.1360  -18.2906 N   0  0  0  0  0  0  0  0  0  0  0  0
   27.6986  -21.2490  -15.7181 C   0  0  0  0  0  0  0  0  0  0  0  0
   28.7704  -20.7010  -15.3932 O   0  0  0  0  0  0  0  0  0  0  0  0
   26.6111  -17.1654  -18.3324 N   0  0  0  0  0  0  0  0  0  0  0  0
   25.2842  -17.4355  -17.9318 C   0  0  0  0  0  0  0  0  0  0  0  0
   24.4662  -18.0782  -18.6830 N   0  0  0  0  0  0  0  0  0  0  0  0
   24.8382  -16.9873  -16.6673 N   0  0  0  0  0  0  0  0  0  0  0  0
   25.8260  -16.4765  -15.7366 C   0  0  0  0  0  0  0  0  0  0  0  0
   26.5922  -17.6520  -15.1894 C   0  0  0  0  0  0  0  0  0  0  0  0
   25.7650  -18.6386  -14.4602 C   0  0  0  0  0  0  0  0  0  0  0  0
   26.5524  -19.8256  -13.9826 C   0  0  2  0  0  0  0  0  0  0  0  0
   26.5197  -20.8577  -15.0571 N   0  0  0  0  0  0  0  0  0  0  0  0
   25.8740  -20.4367  -12.8114 C   0  0  0  0  0  0  0  0  0  0  0  0
   24.8642  -21.2075  -13.0225 O   0  0  0  0  0  0  0  0  0  0  0  0
   23.4817  -18.2642  -18.3328 C   0  0  0  0  0  0  0  0  0  0  0  0
   25.8760  -19.0311   -8.7768 C   0  0  2  0  0  0  0  0  0  0  0  0
   25.9559  -20.5170   -9.0386 C   0  0  0  0  0  0  0  0  0  0  0  0
   25.1938  -21.2030   -7.9234 C   0  0  1  0  0  0  0  0  0  0  0  0
   25.4053  -20.8120  -10.3870 N   0  0  0  0  0  0  0  0  0  0  0  0
   26.2174  -20.2711  -11.4641 C   0  0  0  0  0  0  0  0  0  0  0  0
   23.9958  -20.3788  -10.4654 O   0  0  0  0  0  0  0  0  0  0  0  0
   23.0893  -21.0743   -9.9545 O   0  0  0  0  0  0  0  0  0  0  0  0
  2  1  1  6
  3  4  1  0
  3  2  1  0
  4  8  1  0
  5  4  2  0
  5  6  1  0
  6  7  1  0
  8  7  2  0
  9  2  1  0
  9 19  1  0
 10  9  2  0
 11 12  1  0
 12 14  1  0
 13 12  2  0
 14 15  1  0
 16 17  1  0
 16 15  1  0
 18 19  1  0
 18 17  1  6
 20 18  1  0
 21 20  2  0
 23 22  1  1
 23 24  1  0
 23 25  1  0
 25 27  1  0
 25 26  1  1
 26 20  1  0
 27 29  1  0
 28 27  2  0
M  END
$$$$
