HRV.pdb
     RDKit          3D

 29 29  0  0  1  0  0  0  0  0999 V2000
   24.9995  -14.3228  -19.7093 N   0  0  0  0  0  0  0  0  0  0  0  0
   24.5691  -14.3981  -18.3344 C   0  0  1  0  0  0  0  0  0  0  0  0
   23.1662  -13.8171  -18.2756 C   0  0  0  0  0  0  0  0  0  0  0  0
   23.2530  -12.3700  -18.5975 C   0  0  0  0  0  0  0  0  0  0  0  0
   22.7947  -11.6688  -19.6785 C   0  0  0  0  0  0  0  0  0  0  0  0
   23.1021  -10.3545  -19.5484 N   0  0  0  0  0  0  0  0  0  0  0  0
   23.7576  -10.2232  -18.3802 C   0  0  0  0  0  0  0  0  0  0  0  0
   23.8509  -11.4332  -17.8044 N   0  0  0  0  0  0  0  0  0  0  0  0
   24.6083  -15.7924  -17.8556 C   0  0  0  0  0  0  0  0  0  0  0  0
   24.2792  -16.7180  -18.6235 O   0  0  0  0  0  0  0  0  0  0  0  0
   25.7616  -20.0219  -10.4175 N   0  0  0  0  0  0  0  0  0  0  0  0
   26.0488  -20.9935  -11.4011 C   0  0  0  0  0  0  0  0  0  0  0  0
   26.1561  -22.2393  -11.1131 N   0  0  0  0  0  0  0  0  0  0  0  0
   26.2245  -20.5880  -12.7440 N   0  0  0  0  0  0  0  0  0  0  0  0
   25.8928  -19.2200  -13.0931 C   0  0  0  0  0  0  0  0  0  0  0  0
   26.3528  -18.9829  -14.5075 C   0  0  0  0  0  0  0  0  0  0  0  0
   26.1288  -17.6069  -15.0037 C   0  0  0  0  0  0  0  0  0  0  0  0
   25.1185  -17.5407  -16.1135 C   0  0  2  0  0  0  0  0  0  0  0  0
   25.0086  -16.1191  -16.5469 N   0  0  0  0  0  0  0  0  0  0  0  0
   23.7784  -17.9112  -15.5920 C   0  0  0  0  0  0  0  0  0  0  0  0
   23.2412  -17.1590  -14.6953 O   0  0  0  0  0  0  0  0  0  0  0  0
   26.3590  -22.9327  -11.8906 C   0  0  0  0  0  0  0  0  0  0  0  0
   19.3496  -19.8841  -15.7621 C   0  0  2  0  0  0  0  0  0  0  0  0
   20.6642  -19.5753  -16.4397 C   0  0  0  0  0  0  0  0  0  0  0  0
   20.4122  -18.4183  -17.3847 C   0  0  1  0  0  0  0  0  0  0  0  0
   21.6922  -19.2726  -15.4102 N   0  0  0  0  0  0  0  0  0  0  0  0
   23.0055  -19.0138  -15.9762 C   0  0  0  0  0  0  0  0  0  0  0  0
   21.7141  -20.3368  -14.3867 O   0  0  0  0  0  0  0  0  0  0  0  0
   21.0897  -20.1953  -13.3112 O   0  0  0  0  0  0  0  0  0  0  0  0
  2  1  1  6
  3  4  1  0
  3  2  1  0
  4  8  1  0
  5  4  2  0
  5  6  1  0
  6  7  1  0
  8  7  2  0
  9  2  1  0
  9 19  1  0
 10  9  2  0
 11 12  1  0
 12 14  1  0
 13 12  2  0
 14 15  1  0
 16 17  1  0
 16 15  1  0
 18 19  1  0
 18 17  1  1
 20 18  1  0
 21 20  2  0
 23 22  1  6
 23 24  1  0
 23 25  1  0
 25 27  1  0
 25 26  1  6
 26 20  1  0
 27 29  1  0
 28 27  2  0
M  END
$$$$
