HRV.pdb
     RDKit          3D

 29 29  0  0  1  0  0  0  0  0999 V2000
   22.1456  -21.3286  -12.2190 N   0  0  0  0  0  0  0  0  0  0  0  0
   22.6273  -20.3731  -11.2514 C   0  0  1  0  0  0  0  0  0  0  0  0
   21.4929  -20.1225  -10.2717 C   0  0  0  0  0  0  0  0  0  0  0  0
   20.4407  -19.3453  -10.9745 C   0  0  0  0  0  0  0  0  0  0  0  0
   19.1463  -19.6681  -11.2759 C   0  0  0  0  0  0  0  0  0  0  0  0
   18.5489  -18.6428  -11.9321 N   0  0  0  0  0  0  0  0  0  0  0  0
   19.4688  -17.6669  -12.0465 C   0  0  0  0  0  0  0  0  0  0  0  0
   20.6086  -18.0849  -11.4718 N   0  0  0  0  0  0  0  0  0  0  0  0
   23.8349  -20.8842  -10.5765 C   0  0  0  0  0  0  0  0  0  0  0  0
   23.8054  -21.9994  -10.0197 O   0  0  0  0  0  0  0  0  0  0  0  0
   30.2173  -20.2196  -15.3058 N   0  0  0  0  0  0  0  0  0  0  0  0
   29.2149  -21.2037  -15.4497 C   0  0  0  0  0  0  0  0  0  0  0  0
   29.0752  -21.8764  -16.5335 N   0  0  0  0  0  0  0  0  0  0  0  0
   28.3366  -21.4599  -14.3719 N   0  0  0  0  0  0  0  0  0  0  0  0
   28.5177  -20.7022  -13.1487 C   0  0  0  0  0  0  0  0  0  0  0  0
   27.4358  -21.1178  -12.1869 C   0  0  0  0  0  0  0  0  0  0  0  0
   27.4134  -20.3536  -10.9201 C   0  0  0  0  0  0  0  0  0  0  0  0
   26.2876  -20.7576  -10.0110 C   0  0  2  0  0  0  0  0  0  0  0  0
   25.0338  -20.1487  -10.5382 N   0  0  0  0  0  0  0  0  0  0  0  0
   26.4938  -20.1631   -8.6659 C   0  0  0  0  0  0  0  0  0  0  0  0
   26.0129  -18.9911   -8.4345 O   0  0  0  0  0  0  0  0  0  0  0  0
   28.3531  -22.6534  -16.5687 C   0  0  0  0  0  0  0  0  0  0  0  0
   29.4999  -21.0497   -5.6569 C   0  0  2  0  0  0  0  0  0  0  0  0
   28.0419  -20.8785   -5.2994 C   0  0  0  0  0  0  0  0  0  0  0  0
   27.9965  -20.2612   -3.9166 C   0  0  1  0  0  0  0  0  0  0  0  0
   27.3743  -20.0436   -6.3316 N   0  0  0  0  0  0  0  0  0  0  0  0
   27.1664  -20.7478   -7.5858 C   0  0  0  0  0  0  0  0  0  0  0  0
   28.1058  -18.7730   -6.5077 O   0  0  0  0  0  0  0  0  0  0  0  0
   28.9789  -18.6620   -7.3975 O   0  0  0  0  0  0  0  0  0  0  0  0
  2  1  1  6
  3  4  1  0
  3  2  1  0
  4  8  1  0
  5  4  2  0
  5  6  1  0
  6  7  1  0
  8  7  2  0
  9  2  1  0
  9 19  1  0
 10  9  2  0
 11 12  1  0
 12 14  1  0
 13 12  2  0
 14 15  1  0
 16 17  1  0
 16 15  1  0
 18 19  1  0
 18 17  1  6
 20 18  1  0
 21 20  2  0
 23 22  1  1
 23 24  1  0
 23 25  1  0
 25 27  1  0
 25 26  1  1
 26 20  1  0
 27 29  1  0
 28 27  2  0
M  END
$$$$
