HRV.pdb
     RDKit          3D

 29 29  0  0  1  0  0  0  0  0999 V2000
   20.3995  -17.4465  -17.1316 N   0  0  0  0  0  0  0  0  0  0  0  0
   21.3415  -18.5189  -16.9220 C   0  0  1  0  0  0  0  0  0  0  0  0
   22.4592  -18.3327  -17.9346 C   0  0  0  0  0  0  0  0  0  0  0  0
   21.9024  -18.5877  -19.2875 C   0  0  0  0  0  0  0  0  0  0  0  0
   21.4895  -17.7185  -20.2593 C   0  0  0  0  0  0  0  0  0  0  0  0
   21.0491  -18.4036  -21.3435 N   0  0  0  0  0  0  0  0  0  0  0  0
   21.1837  -19.7117  -21.0569 C   0  0  0  0  0  0  0  0  0  0  0  0
   21.6968  -19.8276  -19.8209 N   0  0  0  0  0  0  0  0  0  0  0  0
   21.8455  -18.5015  -15.5362 C   0  0  0  0  0  0  0  0  0  0  0  0
   22.2242  -17.4264  -15.0308 O   0  0  0  0  0  0  0  0  0  0  0  0
   20.3465  -22.4706   -8.7829 N   0  0  0  0  0  0  0  0  0  0  0  0
   21.1428  -21.4785   -8.1699 C   0  0  0  0  0  0  0  0  0  0  0  0
   21.7152  -21.6718   -7.0378 N   0  0  0  0  0  0  0  0  0  0  0  0
   21.3182  -20.2341   -8.8174 N   0  0  0  0  0  0  0  0  0  0  0  0
   20.6983  -20.0461  -10.1148 C   0  0  0  0  0  0  0  0  0  0  0  0
   21.6063  -20.6558  -11.1501 C   0  0  0  0  0  0  0  0  0  0  0  0
   21.2160  -20.3774  -12.5500 C   0  0  0  0  0  0  0  0  0  0  0  0
   22.2563  -19.6004  -13.3057 C   0  0  2  0  0  0  0  0  0  0  0  0
   21.9150  -19.6694  -14.7546 N   0  0  0  0  0  0  0  0  0  0  0  0
   23.5762  -20.2667  -13.1669 C   0  0  0  0  0  0  0  0  0  0  0  0
   23.6954  -21.4807  -13.5796 O   0  0  0  0  0  0  0  0  0  0  0  0
   22.3554  -20.9200   -6.6486 C   0  0  0  0  0  0  0  0  0  0  0  0
   28.4315  -20.4467  -12.7767 C   0  0  2  0  0  0  0  0  0  0  0  0
   27.1798  -19.6061  -12.8743 C   0  0  0  0  0  0  0  0  0  0  0  0
   27.1476  -19.0236  -14.2724 C   0  0  1  0  0  0  0  0  0  0  0  0
   25.9940  -20.4472  -12.5667 N   0  0  0  0  0  0  0  0  0  0  0  0
   24.7427  -19.7106  -12.6276 C   0  0  0  0  0  0  0  0  0  0  0  0
   26.1838  -21.1394  -11.2762 O   0  0  0  0  0  0  0  0  0  0  0  0
   27.0996  -21.9809  -11.1366 O   0  0  0  0  0  0  0  0  0  0  0  0
  2  1  1  1
  3  4  1  0
  3  2  1  0
  4  8  1  0
  5  4  2  0
  5  6  1  0
  6  7  1  0
  8  7  2  0
  9  2  1  0
  9 19  1  0
 10  9  2  0
 11 12  1  0
 12 14  1  0
 13 12  2  0
 14 15  1  0
 16 17  1  0
 16 15  1  0
 18 19  1  0
 18 17  1  1
 20 18  1  0
 21 20  2  0
 23 22  1  1
 23 24  1  0
 23 25  1  0
 25 27  1  0
 25 26  1  1
 26 20  1  0
 27 29  1  0
 28 27  2  0
M  END
$$$$
