HRV.pdb
     RDKit          3D

 29 29  0  0  1  0  0  0  0  0999 V2000
   20.0807  -19.4790  -16.1692 N   0  0  0  0  0  0  0  0  0  0  0  0
   21.2440  -18.7159  -15.7875 C   0  0  1  0  0  0  0  0  0  0  0  0
   20.8849  -17.9642  -14.5165 C   0  0  0  0  0  0  0  0  0  0  0  0
   19.9723  -16.8512  -14.8820 C   0  0  0  0  0  0  0  0  0  0  0  0
   18.6312  -16.6914  -14.6667 C   0  0  0  0  0  0  0  0  0  0  0  0
   18.2129  -15.5071  -15.1779 N   0  0  0  0  0  0  0  0  0  0  0  0
   19.2936  -14.9147  -15.7190 C   0  0  0  0  0  0  0  0  0  0  0  0
   20.3546  -15.7196  -15.5434 N   0  0  0  0  0  0  0  0  0  0  0  0
   22.4046  -19.6048  -15.5921 C   0  0  0  0  0  0  0  0  0  0  0  0
   22.2843  -20.6329  -14.8971 O   0  0  0  0  0  0  0  0  0  0  0  0
   28.0504  -24.0414  -18.1740 N   0  0  0  0  0  0  0  0  0  0  0  0
   28.8433  -23.6055  -17.0899 C   0  0  0  0  0  0  0  0  0  0  0  0
   30.0182  -24.0754  -16.8766 N   0  0  0  0  0  0  0  0  0  0  0  0
   28.3335  -22.6229  -16.2106 N   0  0  0  0  0  0  0  0  0  0  0  0
   27.0179  -22.0779  -16.4847 C   0  0  0  0  0  0  0  0  0  0  0  0
   27.1665  -20.5907  -16.6696 C   0  0  0  0  0  0  0  0  0  0  0  0
   25.8959  -19.8715  -16.9102 C   0  0  0  0  0  0  0  0  0  0  0  0
   24.8298  -20.2128  -15.9082 C   0  0  2  0  0  0  0  0  0  0  0  0
   23.6579  -19.3302  -16.1695 N   0  0  0  0  0  0  0  0  0  0  0  0
   25.3001  -19.8701  -14.5419 C   0  0  0  0  0  0  0  0  0  0  0  0
   25.4626  -18.6277  -14.2443 O   0  0  0  0  0  0  0  0  0  0  0  0
   30.6018  -23.6672  -16.0896 C   0  0  0  0  0  0  0  0  0  0  0  0
   26.5296  -20.5534   -9.8680 C   0  0  1  0  0  0  0  0  0  0  0  0
   25.8251  -21.0977  -11.0888 C   0  0  0  0  0  0  0  0  0  0  0  0
   24.3374  -20.9711  -10.8324 C   0  0  1  0  0  0  0  0  0  0  0  0
   26.2738  -20.3511  -12.2927 N   0  0  0  0  0  0  0  0  0  0  0  0
   25.5921  -20.7669  -13.5070 C   0  0  0  0  0  0  0  0  0  0  0  0
   27.7438  -20.4202  -12.4140 O   0  0  0  0  0  0  0  0  0  0  0  0
   28.2753  -21.1636  -13.2693 O   0  0  0  0  0  0  0  0  0  0  0  0
  2  1  1  1
  3  4  1  0
  3  2  1  0
  4  8  1  0
  5  4  2  0
  5  6  1  0
  6  7  1  0
  8  7  2  0
  9  2  1  0
  9 19  1  0
 10  9  2  0
 11 12  1  0
 12 14  1  0
 13 12  2  0
 14 15  1  0
 16 17  1  0
 16 15  1  0
 18 19  1  0
 18 17  1  6
 20 18  1  0
 21 20  2  0
 23 22  1  1
 23 24  1  0
 23 25  1  0
 25 27  1  0
 25 26  1  1
 26 20  1  0
 27 29  1  0
 28 27  2  0
M  END
$$$$
