HRV.pdb
     RDKit          3D

 29 29  0  0  1  0  0  0  0  0999 V2000
   23.4629  -26.9756  -18.5331 N   0  0  0  0  0  0  0  0  0  0  0  0
   22.9932  -26.9200  -17.1702 C   0  0  1  0  0  0  0  0  0  0  0  0
   21.8984  -25.8673  -17.1201 C   0  0  0  0  0  0  0  0  0  0  0  0
   22.5308  -24.5361  -17.3019 C   0  0  0  0  0  0  0  0  0  0  0  0
   23.2793  -23.7804  -16.4421 C   0  0  0  0  0  0  0  0  0  0  0  0
   23.6518  -22.6218  -17.0402 N   0  0  0  0  0  0  0  0  0  0  0  0
   23.1371  -22.6441  -18.2836 C   0  0  0  0  0  0  0  0  0  0  0  0
   22.4618  -23.7939  -18.4458 N   0  0  0  0  0  0  0  0  0  0  0  0
   22.5056  -28.2426  -16.7366 C   0  0  0  0  0  0  0  0  0  0  0  0
   21.5827  -28.7967  -17.3658 O   0  0  0  0  0  0  0  0  0  0  0  0
   27.5382  -31.5882  -18.1565 N   0  0  0  0  0  0  0  0  0  0  0  0
   27.6891  -31.0715  -16.8510 C   0  0  0  0  0  0  0  0  0  0  0  0
   28.5982  -30.2132  -16.5619 N   0  0  0  0  0  0  0  0  0  0  0  0
   26.8163  -31.5088  -15.8284 N   0  0  0  0  0  0  0  0  0  0  0  0
   25.7160  -32.3791  -16.1957 C   0  0  0  0  0  0  0  0  0  0  0  0
   24.4863  -31.5236  -16.3511 C   0  0  0  0  0  0  0  0  0  0  0  0
   23.8495  -31.1260  -15.0760 C   0  0  0  0  0  0  0  0  0  0  0  0
   22.6165  -30.2903  -15.2716 C   0  0  2  0  0  0  0  0  0  0  0  0
   23.0517  -28.9094  -15.6246 N   0  0  0  0  0  0  0  0  0  0  0  0
   21.8856  -30.1694  -13.9845 C   0  0  0  0  0  0  0  0  0  0  0  0
   22.3637  -29.3869  -13.0803 O   0  0  0  0  0  0  0  0  0  0  0  0
   28.6859  -29.8723  -15.5606 C   0  0  0  0  0  0  0  0  0  0  0  0
   18.2941  -29.2184  -13.3240 C   0  0  2  0  0  0  0  0  0  0  0  0
   18.5826  -30.4232  -12.4591 C   0  0  0  0  0  0  0  0  0  0  0  0
   17.8813  -31.6037  -13.0991 C   0  0  2  0  0  0  0  0  0  0  0  0
   20.0524  -30.6106  -12.3464 N   0  0  0  0  0  0  0  0  0  0  0  0
   20.6991  -30.8233  -13.6304 C   0  0  0  0  0  0  0  0  0  0  0  0
   20.3546  -31.6799  -11.3738 O   0  0  0  0  0  0  0  0  0  0  0  0
   20.8502  -32.7636  -11.7565 O   0  0  0  0  0  0  0  0  0  0  0  0
  2  1  1  6
  3  4  1  0
  3  2  1  0
  4  8  1  0
  5  4  2  0
  5  6  1  0
  6  7  1  0
  8  7  2  0
  9  2  1  0
  9 19  1  0
 10  9  2  0
 11 12  1  0
 12 14  1  0
 13 12  2  0
 14 15  1  0
 16 17  1  0
 16 15  1  0
 18 19  1  0
 18 17  1  1
 20 18  1  0
 21 20  2  0
 23 22  1  1
 23 24  1  0
 23 25  1  0
 25 27  1  0
 25 26  1  1
 26 20  1  0
 27 29  1  0
 28 27  2  0
M  END
$$$$
