HRV.pdb
     RDKit          3D

 29 29  0  0  1  0  0  0  0  0999 V2000
   22.9114  -17.0311  -18.1045 N   0  0  0  0  0  0  0  0  0  0  0  0
   23.8623  -17.8692  -17.4156 C   0  0  1  0  0  0  0  0  0  0  0  0
   25.1384  -17.0587  -17.2605 C   0  0  0  0  0  0  0  0  0  0  0  0
   25.8685  -17.0971  -18.5530 C   0  0  0  0  0  0  0  0  0  0  0  0
   26.7097  -18.0417  -19.0734 C   0  0  0  0  0  0  0  0  0  0  0  0
   27.1502  -17.6536  -20.2957 N   0  0  0  0  0  0  0  0  0  0  0  0
   26.5856  -16.4586  -20.5502 C   0  0  0  0  0  0  0  0  0  0  0  0
   25.8136  -16.1196  -19.5046 N   0  0  0  0  0  0  0  0  0  0  0  0
   23.3227  -18.3013  -16.1129 C   0  0  0  0  0  0  0  0  0  0  0  0
   22.7791  -17.4669  -15.3627 O   0  0  0  0  0  0  0  0  0  0  0  0
   18.4438  -22.6713  -12.2079 N   0  0  0  0  0  0  0  0  0  0  0  0
   18.5171  -22.7126  -13.6175 C   0  0  0  0  0  0  0  0  0  0  0  0
   17.4870  -22.5142  -14.3566 N   0  0  0  0  0  0  0  0  0  0  0  0
   19.7587  -22.9801  -14.2385 N   0  0  0  0  0  0  0  0  0  0  0  0
   20.9119  -23.2078  -13.3891 C   0  0  0  0  0  0  0  0  0  0  0  0
   21.6431  -21.8989  -13.2473 C   0  0  0  0  0  0  0  0  0  0  0  0
   22.0499  -21.2805  -14.5286 C   0  0  0  0  0  0  0  0  0  0  0  0
   22.8798  -20.0418  -14.3448 C   0  0  2  0  0  0  0  0  0  0  0  0
   23.4005  -19.6383  -15.6815 N   0  0  0  0  0  0  0  0  0  0  0  0
   24.0747  -20.3585  -13.5219 C   0  0  0  0  0  0  0  0  0  0  0  0
   25.0171  -21.0561  -14.0545 O   0  0  0  0  0  0  0  0  0  0  0  0
   17.5860  -22.5907  -15.4105 C   0  0  0  0  0  0  0  0  0  0  0  0
   24.4562  -20.8662   -9.3269 C   0  0  2  0  0  0  0  0  0  0  0  0
   25.4649  -19.9930  -10.0359 C   0  0  0  0  0  0  0  0  0  0  0  0
   26.7923  -20.1932   -9.3338 C   0  0  1  0  0  0  0  0  0  0  0  0
   25.5077  -20.3562  -11.4762 N   0  0  0  0  0  0  0  0  0  0  0  0
   24.3052  -19.9716  -12.1961 C   0  0  0  0  0  0  0  0  0  0  0  0
   25.8275  -21.7898  -11.6288 O   0  0  0  0  0  0  0  0  0  0  0  0
   24.9221  -22.6190  -11.8720 O   0  0  0  0  0  0  0  0  0  0  0  0
  2  1  1  1
  3  4  1  0
  3  2  1  0
  4  8  1  0
  5  4  2  0
  5  6  1  0
  6  7  1  0
  8  7  2  0
  9  2  1  0
  9 19  1  0
 10  9  2  0
 11 12  1  0
 12 14  1  0
 13 12  2  0
 14 15  1  0
 16 17  1  0
 16 15  1  0
 18 19  1  0
 18 17  1  6
 20 18  1  0
 21 20  2  0
 23 22  1  1
 23 24  1  0
 23 25  1  0
 25 27  1  0
 25 26  1  1
 26 20  1  0
 27 29  1  0
 28 27  2  0
M  END
$$$$
