HRV.pdb
     RDKit          3D

 29 29  0  0  1  0  0  0  0  0999 V2000
   18.5822  -12.7086  -16.7769 N   0  0  0  0  0  0  0  0  0  0  0  0
   19.0594  -11.4623  -17.3249 C   0  0  1  0  0  0  0  0  0  0  0  0
   17.8362  -10.6127  -17.6273 C   0  0  0  0  0  0  0  0  0  0  0  0
   17.1157  -11.2323  -18.7685 C   0  0  0  0  0  0  0  0  0  0  0  0
   15.9458  -11.9399  -18.8050 C   0  0  0  0  0  0  0  0  0  0  0  0
   15.6663  -12.3166  -20.0773 N   0  0  0  0  0  0  0  0  0  0  0  0
   16.6632  -11.8456  -20.8493 C   0  0  0  0  0  0  0  0  0  0  0  0
   17.5377  -11.1925  -20.0663 N   0  0  0  0  0  0  0  0  0  0  0  0
   19.9719  -10.7961  -16.3771 C   0  0  0  0  0  0  0  0  0  0  0  0
   19.6410  -10.6788  -15.1808 O   0  0  0  0  0  0  0  0  0  0  0  0
   28.4064  -10.8602  -16.2690 N   0  0  0  0  0  0  0  0  0  0  0  0
   27.2115  -11.5123  -16.6444 C   0  0  0  0  0  0  0  0  0  0  0  0
   27.2157  -12.5758  -17.3624 N   0  0  0  0  0  0  0  0  0  0  0  0
   25.9713  -10.9829  -16.2198 N   0  0  0  0  0  0  0  0  0  0  0  0
   25.9643   -9.6702  -15.6034 C   0  0  0  0  0  0  0  0  0  0  0  0
   24.5346   -9.3201  -15.2852 C   0  0  0  0  0  0  0  0  0  0  0  0
   23.5319  -10.0001  -16.1347 C   0  0  0  0  0  0  0  0  0  0  0  0
   22.1198   -9.6093  -15.8028 C   0  0  2  0  0  0  0  0  0  0  0  0
   21.2180  -10.2818  -16.7802 N   0  0  0  0  0  0  0  0  0  0  0  0
   21.9405   -8.1514  -16.0209 C   0  0  0  0  0  0  0  0  0  0  0  0
   22.0998   -7.6865  -17.2113 O   0  0  0  0  0  0  0  0  0  0  0  0
   26.2901  -12.9911  -17.6744 C   0  0  0  0  0  0  0  0  0  0  0  0
   19.2806   -5.9821  -16.3405 C   0  0  2  0  0  0  0  0  0  0  0  0
   20.1252   -5.2572  -15.3187 C   0  0  0  0  0  0  0  0  0  0  0  0
   19.4615   -5.4621  -13.9724 C   0  0  2  0  0  0  0  0  0  0  0  0
   21.5160   -5.7784  -15.3673 N   0  0  0  0  0  0  0  0  0  0  0  0
   21.6040   -7.1950  -15.0551 C   0  0  0  0  0  0  0  0  0  0  0  0
   22.3971   -4.9532  -14.5169 O   0  0  0  0  0  0  0  0  0  0  0  0
   22.8418   -5.4052  -13.4378 O   0  0  0  0  0  0  0  0  0  0  0  0
  2  1  1  1
  3  4  1  0
  3  2  1  0
  4  8  1  0
  5  4  2  0
  5  6  1  0
  6  7  1  0
  8  7  2  0
  9  2  1  0
  9 19  1  0
 10  9  2  0
 11 12  1  0
 12 14  1  0
 13 12  2  0
 14 15  1  0
 16 17  1  0
 16 15  1  0
 18 19  1  0
 18 17  1  6
 20 18  1  0
 21 20  2  0
 23 22  1  6
 23 24  1  0
 23 25  1  0
 25 27  1  0
 25 26  1  6
 26 20  1  0
 27 29  1  0
 28 27  2  0
M  END
$$$$
