LMS.pdb
     RDKit          3D

 23 22  0  0  1  0  0  0  0  0999 V2000
    8.0235  -12.6882   18.6648 C   0  0  0  0  0  0  0  0  0  0  0  0
    7.8544  -13.8764   19.5871 C   0  0  2  0  0  0  0  0  0  0  0  0
    6.9662  -13.4674   20.7202 C   0  0  0  0  0  0  0  0  0  0  0  0
    9.2323  -14.3189   20.0685 C   0  0  0  0  0  0  0  0  0  0  0  0
    9.0269  -15.5638   20.8892 C   0  0  2  0  0  0  0  0  0  0  0  0
    7.7450  -16.1260   20.5741 N   0  0  0  0  0  0  0  0  0  0  0  0
    9.1418  -15.3176   22.3447 C   0  0  0  0  0  0  0  0  0  0  0  0
   10.2567  -14.9560   22.8353 O   0  0  0  0  0  0  0  0  0  0  0  0
    8.6542  -12.3171   27.7887 C   0  0  0  0  0  0  0  0  0  0  0  0
    7.0535  -12.7761   27.0710 S   0  0  0  0  0  0  0  0  0  0  0  0
    6.9931  -14.5811   26.7508 C   0  0  0  0  0  0  0  0  0  0  0  0
    6.9408  -14.7488   25.2550 C   0  0  0  0  0  0  0  0  0  0  0  0
    8.2020  -15.3162   24.6763 C   0  0  2  0  0  0  0  0  0  0  0  0
    8.0682  -15.4620   23.2425 N   0  0  0  0  0  0  0  0  0  0  0  0
    8.6031  -16.5906   25.3255 C   0  0  0  0  0  0  0  0  0  0  0  0
    7.8327  -17.5816   25.4079 O   0  0  0  0  0  0  0  0  0  0  0  0
   12.5255  -17.7698   25.6498 O   0  0  0  0  0  0  0  0  0  0  0  0
   11.4338  -18.6295   25.6804 C   0  0  0  0  0  0  0  0  0  0  0  0
   10.3493  -17.9686   26.5131 C   0  0  2  0  0  0  0  0  0  0  0  0
    9.8996  -16.7401   25.8891 N   0  0  0  0  0  0  0  0  0  0  0  0
   10.7482  -17.7824   27.9111 C   0  0  0  0  0  0  0  0  0  0  0  0
   11.1129  -18.8771   28.6664 O   0  0  0  0  0  0  0  0  0  0  0  0
   10.7612  -16.6551   28.4204 O   0  0  0  0  0  0  0  0  0  0  0  0
  2  1  1  6
  2  3  1  0
  4  5  1  0
  4  2  1  0
  5  6  1  1
  7  8  2  0
  7  5  1  0
 10  9  1  0
 10 11  1  0
 11 12  1  0
 13 12  1  1
 13 14  1  0
 14  7  1  0
 15 20  1  0
 15 13  1  0
 16 15  2  0
 17 18  1  0
 19 18  1  6
 19 20  1  0
 19 21  1  0
 21 22  1  0
 23 21  2  0
M  END
$$$$
