LMS.pdb
     RDKit          3D

 23 22  0  0  1  0  0  0  0  0999 V2000
    7.9092  -14.4419   18.2821 C   0  0  0  0  0  0  0  0  0  0  0  0
    7.5148  -13.7203   19.5528 C   0  0  2  0  0  0  0  0  0  0  0  0
    7.1139  -12.3237   19.1936 C   0  0  0  0  0  0  0  0  0  0  0  0
    8.6973  -13.7485   20.5158 C   0  0  0  0  0  0  0  0  0  0  0  0
    8.6769  -15.0940   21.1900 C   0  0  2  0  0  0  0  0  0  0  0  0
    7.3984  -15.7077   20.9717 N   0  0  0  0  0  0  0  0  0  0  0  0
    8.9739  -15.0152   22.6384 C   0  0  0  0  0  0  0  0  0  0  0  0
   10.1161  -14.6151   23.0252 O   0  0  0  0  0  0  0  0  0  0  0  0
    7.1260  -11.7560   27.8958 C   0  0  0  0  0  0  0  0  0  0  0  0
    6.0350  -12.3809   26.5891 S   0  0  0  0  0  0  0  0  0  0  0  0
    7.0152  -13.2348   25.2951 C   0  0  0  0  0  0  0  0  0  0  0  0
    7.2758  -14.6277   25.8052 C   0  0  0  0  0  0  0  0  0  0  0  0
    8.3579  -15.3428   25.0535 C   0  0  2  0  0  0  0  0  0  0  0  0
    8.0489  -15.3639   23.6396 N   0  0  0  0  0  0  0  0  0  0  0  0
    8.6125  -16.7071   25.5829 C   0  0  0  0  0  0  0  0  0  0  0  0
    7.7014  -17.5645   25.7148 O   0  0  0  0  0  0  0  0  0  0  0  0
   11.8673  -18.7082   24.7841 O   0  0  0  0  0  0  0  0  0  0  0  0
   10.7348  -19.3122   25.3175 C   0  0  0  0  0  0  0  0  0  0  0  0
   10.2333  -18.4333   26.4500 C   0  0  2  0  0  0  0  0  0  0  0  0
    9.9227  -17.1021   25.9681 N   0  0  0  0  0  0  0  0  0  0  0  0
   11.1426  -18.4232   27.5994 C   0  0  0  0  0  0  0  0  0  0  0  0
   11.6133  -17.2210   28.0844 O   0  0  0  0  0  0  0  0  0  0  0  0
   11.4920  -19.4801   28.1388 O   0  0  0  0  0  0  0  0  0  0  0  0
  2  1  1  6
  2  3  1  0
  4  5  1  0
  4  2  1  0
  5  6  1  1
  7  8  2  0
  7  5  1  0
 10  9  1  0
 10 11  1  0
 11 12  1  0
 13 12  1  1
 13 14  1  0
 14  7  1  0
 15 20  1  0
 15 13  1  0
 16 15  2  0
 17 18  1  0
 19 18  1  6
 19 20  1  0
 19 21  1  0
 21 22  1  0
 23 21  2  0
M  END
$$$$
