LMS.pdb
     RDKit          3D

 23 22  0  0  1  0  0  0  0  0999 V2000
    8.4203  -14.2458   17.8735 C   0  0  0  0  0  0  0  0  0  0  0  0
    7.8368  -13.6699   19.1459 C   0  0  2  0  0  0  0  0  0  0  0  0
    7.2802  -12.3158   18.8353 C   0  0  0  0  0  0  0  0  0  0  0  0
    8.9356  -13.6106   20.2020 C   0  0  0  0  0  0  0  0  0  0  0  0
    8.8663  -14.9006   20.9744 C   0  0  2  0  0  0  0  0  0  0  0  0
    7.5835  -15.5066   20.7594 N   0  0  0  0  0  0  0  0  0  0  0  0
    9.1173  -14.7175   22.4221 C   0  0  0  0  0  0  0  0  0  0  0  0
   10.2397  -14.2692   22.8139 O   0  0  0  0  0  0  0  0  0  0  0  0
    6.8797  -11.0580   27.1505 C   0  0  0  0  0  0  0  0  0  0  0  0
    6.3563  -12.7396   27.5824 S   0  0  0  0  0  0  0  0  0  0  0  0
    7.5911  -13.9618   26.9944 C   0  0  0  0  0  0  0  0  0  0  0  0
    7.3869  -14.0954   25.5083 C   0  0  0  0  0  0  0  0  0  0  0  0
    8.4426  -14.9200   24.8353 C   0  0  2  0  0  0  0  0  0  0  0  0
    8.1684  -15.0155   23.4173 N   0  0  0  0  0  0  0  0  0  0  0  0
    8.6017  -16.2592   25.4578 C   0  0  0  0  0  0  0  0  0  0  0  0
    7.6462  -17.0684   25.5796 O   0  0  0  0  0  0  0  0  0  0  0  0
   12.2483  -18.1425   25.6636 O   0  0  0  0  0  0  0  0  0  0  0  0
   11.0341  -18.8170   25.7143 C   0  0  0  0  0  0  0  0  0  0  0  0
   10.0790  -17.9850   26.5522 C   0  0  2  0  0  0  0  0  0  0  0  0
    9.8661  -16.6843   25.9490 N   0  0  0  0  0  0  0  0  0  0  0  0
   10.4905  -17.8993   27.9563 C   0  0  0  0  0  0  0  0  0  0  0  0
   10.6354  -19.0549   28.6949 O   0  0  0  0  0  0  0  0  0  0  0  0
   10.7092  -16.8028   28.4855 O   0  0  0  0  0  0  0  0  0  0  0  0
  2  1  1  6
  2  3  1  0
  4  5  1  0
  4  2  1  0
  5  6  1  1
  7  8  2  0
  7  5  1  0
 10  9  1  0
 10 11  1  0
 11 12  1  0
 13 12  1  1
 13 14  1  0
 14  7  1  0
 15 20  1  0
 15 13  1  0
 16 15  2  0
 17 18  1  0
 19 18  1  6
 19 20  1  0
 19 21  1  0
 21 22  1  0
 23 21  2  0
M  END
$$$$
