LMS.pdb
     RDKit          3D

 23 22  0  0  1  0  0  0  0  0999 V2000
    7.9947  -12.4996   27.6672 C   0  0  0  0  0  0  0  0  0  0  0  0
    7.2294  -12.8367   26.4056 C   0  0  2  0  0  0  0  0  0  0  0  0
    6.1610  -11.8058   26.2161 C   0  0  0  0  0  0  0  0  0  0  0  0
    6.6531  -14.2418   26.5465 C   0  0  0  0  0  0  0  0  0  0  0  0
    7.6314  -15.1805   25.8930 C   0  0  2  0  0  0  0  0  0  0  0  0
    8.9183  -14.5487   25.8338 N   0  0  0  0  0  0  0  0  0  0  0  0
    7.2014  -15.6092   24.5425 C   0  0  0  0  0  0  0  0  0  0  0  0
    6.1040  -16.2336   24.4007 O   0  0  0  0  0  0  0  0  0  0  0  0
    7.8471  -12.7279   18.8415 C   0  0  0  0  0  0  0  0  0  0  0  0
    7.9631  -12.0424   20.5163 S   0  0  0  0  0  0  0  0  0  0  0  0
    7.4537  -13.2962   21.7544 C   0  0  0  0  0  0  0  0  0  0  0  0
    7.6215  -14.6404   21.0961 C   0  0  0  0  0  0  0  0  0  0  0  0
    7.5321  -15.7877   22.0569 C   0  0  2  0  0  0  0  0  0  0  0  0
    7.9492  -15.3634   23.3763 N   0  0  0  0  0  0  0  0  0  0  0  0
    8.2912  -16.9777   21.5944 C   0  0  0  0  0  0  0  0  0  0  0  0
    7.9128  -17.6910   20.6298 O   0  0  0  0  0  0  0  0  0  0  0  0
   12.0379  -17.6736   19.6588 O   0  0  0  0  0  0  0  0  0  0  0  0
   10.9915  -17.0523   20.3300 C   0  0  0  0  0  0  0  0  0  0  0  0
   10.6293  -17.9194   21.5231 C   0  0  2  0  0  0  0  0  0  0  0  0
    9.4987  -17.3622   22.2387 N   0  0  0  0  0  0  0  0  0  0  0  0
   11.7775  -18.1857   22.3944 C   0  0  0  0  0  0  0  0  0  0  0  0
   12.8609  -18.8807   21.8992 O   0  0  0  0  0  0  0  0  0  0  0  0
   11.7852  -17.7944   23.5678 O   0  0  0  0  0  0  0  0  0  0  0  0
  2  1  1  1
  2  3  1  0
  4  5  1  0
  4  2  1  0
  5  6  1  6
  7  8  2  0
  7  5  1  0
 10  9  1  0
 10 11  1  0
 11 12  1  0
 13 12  1  6
 13 14  1  0
 14  7  1  0
 15 20  1  0
 15 13  1  0
 16 15  2  0
 17 18  1  0
 19 18  1  6
 19 20  1  0
 19 21  1  0
 21 22  1  0
 23 21  2  0
M  END
$$$$
