LMS.pdb
     RDKit          3D

 23 22  0  0  1  0  0  0  0  0999 V2000
    6.9303  -14.0082   19.0551 C   0  0  0  0  0  0  0  0  0  0  0  0
    7.6866  -13.4906   20.2597 C   0  0  2  0  0  0  0  0  0  0  0  0
    7.7775  -12.0006   20.1514 C   0  0  0  0  0  0  0  0  0  0  0  0
    9.0620  -14.1490   20.2908 C   0  0  0  0  0  0  0  0  0  0  0  0
    8.9063  -15.4461   21.0384 C   0  0  2  0  0  0  0  0  0  0  0  0
    7.5114  -15.6861   21.2739 N   0  0  0  0  0  0  0  0  0  0  0  0
    9.6589  -15.4680   22.3134 C   0  0  0  0  0  0  0  0  0  0  0  0
   10.9169  -15.2903   22.3042 O   0  0  0  0  0  0  0  0  0  0  0  0
   10.0163  -13.7142   29.8655 C   0  0  0  0  0  0  0  0  0  0  0  0
    9.1009  -13.8458   28.3057 S   0  0  0  0  0  0  0  0  0  0  0  0
    9.9251  -15.0384   27.1821 C   0  0  0  0  0  0  0  0  0  0  0  0
    9.1819  -14.9774   25.8737 C   0  0  0  0  0  0  0  0  0  0  0  0
    9.8016  -15.8186   24.7986 C   0  0  2  0  0  0  0  0  0  0  0  0
    9.0549  -15.6783   23.5667 N   0  0  0  0  0  0  0  0  0  0  0  0
    9.9420  -17.2420   25.1995 C   0  0  0  0  0  0  0  0  0  0  0  0
    8.9731  -18.0443   25.2033 O   0  0  0  0  0  0  0  0  0  0  0  0
   11.9238  -20.7070   23.6016 O   0  0  0  0  0  0  0  0  0  0  0  0
   11.4854  -19.4061   23.8191 C   0  0  0  0  0  0  0  0  0  0  0  0
   11.6297  -19.1127   25.3022 C   0  0  2  0  0  0  0  0  0  0  0  0
   11.2030  -17.7604   25.6022 N   0  0  0  0  0  0  0  0  0  0  0  0
   12.9736  -19.4091   25.8064 C   0  0  0  0  0  0  0  0  0  0  0  0
   13.7661  -18.3827   26.2757 O   0  0  0  0  0  0  0  0  0  0  0  0
   13.4042  -20.5687   25.8156 O   0  0  0  0  0  0  0  0  0  0  0  0
  2  1  1  6
  2  3  1  0
  4  5  1  0
  4  2  1  0
  5  6  1  1
  7  8  2  0
  7  5  1  0
 10  9  1  0
 10 11  1  0
 11 12  1  0
 13 12  1  1
 13 14  1  0
 14  7  1  0
 15 20  1  0
 15 13  1  0
 16 15  2  0
 17 18  1  0
 19 18  1  6
 19 20  1  0
 19 21  1  0
 21 22  1  0
 23 21  2  0
M  END
$$$$
