LMS.pdb
     RDKit          3D

 23 22  0  0  1  0  0  0  0  0999 V2000
    8.7871  -17.7226   18.6406 C   0  0  0  0  0  0  0  0  0  0  0  0
    8.0793  -18.0707   19.9325 C   0  0  2  0  0  0  0  0  0  0  0  0
    7.5648  -19.4718   19.8222 C   0  0  0  0  0  0  0  0  0  0  0  0
    6.9571  -17.0631   20.1595 C   0  0  0  0  0  0  0  0  0  0  0  0
    7.5943  -15.6995   20.1781 C   0  0  2  0  0  0  0  0  0  0  0  0
    8.6234  -15.6501   19.1795 N   0  0  0  0  0  0  0  0  0  0  0  0
    8.1421  -15.3396   21.5058 C   0  0  0  0  0  0  0  0  0  0  0  0
    9.3863  -15.4682   21.7285 O   0  0  0  0  0  0  0  0  0  0  0  0
    7.3969  -11.4331   28.1201 C   0  0  0  0  0  0  0  0  0  0  0  0
    6.7950  -11.9413   26.4868 S   0  0  0  0  0  0  0  0  0  0  0  0
    7.2593  -13.6836   26.1506 C   0  0  0  0  0  0  0  0  0  0  0  0
    6.7999  -13.9860   24.7486 C   0  0  0  0  0  0  0  0  0  0  0  0
    7.8719  -14.5842   23.8882 C   0  0  2  0  0  0  0  0  0  0  0  0
    7.3531  -14.8519   22.5637 N   0  0  0  0  0  0  0  0  0  0  0  0
    8.4811  -15.7945   24.4970 C   0  0  0  0  0  0  0  0  0  0  0  0
    7.8852  -16.9011   24.5483 O   0  0  0  0  0  0  0  0  0  0  0  0
   12.4909  -18.1283   25.5149 O   0  0  0  0  0  0  0  0  0  0  0  0
   11.8647  -17.0258   24.9455 C   0  0  0  0  0  0  0  0  0  0  0  0
   10.4760  -16.9204   25.5512 C   0  0  2  0  0  0  0  0  0  0  0  0
    9.7874  -15.7452   25.0557 N   0  0  0  0  0  0  0  0  0  0  0  0
   10.4933  -16.9934   27.0149 C   0  0  0  0  0  0  0  0  0  0  0  0
   11.0742  -18.0795   27.6354 O   0  0  0  0  0  0  0  0  0  0  0  0
    9.9930  -16.0925   27.6991 O   0  0  0  0  0  0  0  0  0  0  0  0
  2  1  1  6
  2  3  1  0
  4  5  1  0
  4  2  1  0
  5  6  1  6
  7  8  2  0
  7  5  1  0
 10  9  1  0
 10 11  1  0
 11 12  1  0
 13 12  1  1
 13 14  1  0
 14  7  1  0
 15 20  1  0
 15 13  1  0
 16 15  2  0
 17 18  1  0
 19 18  1  1
 19 20  1  0
 19 21  1  0
 21 22  1  0
 23 21  2  0
M  END
$$$$
