PVI.pdb
     RDKit          3D

 23 23  0  0  1  0  0  0  0  0999 V2000
   25.7297  -16.3258  -16.6386 N   0  0  0  0  0  0  0  0  0  0  0  0
   24.9591  -15.2104  -16.1665 C   0  0  0  0  0  0  0  0  0  0  0  0
   25.4793  -14.7972  -14.8317 C   0  0  0  0  0  0  0  0  0  0  0  0
   26.7922  -15.5277  -14.6789 C   0  0  0  0  0  0  0  0  0  0  0  0
   26.6352  -16.7037  -15.5809 C   0  0  1  0  0  0  0  0  0  0  0  0
   26.1176  -17.9196  -14.8433 C   0  0  0  0  0  0  0  0  0  0  0  0
   24.8942  -18.1028  -14.6904 O   0  0  0  0  0  0  0  0  0  0  0  0
   26.3645  -21.0489  -16.0653 C   0  0  0  0  0  0  0  0  0  0  0  0
   26.9240  -21.2926  -14.6722 C   0  0  2  0  0  0  0  0  0  0  0  0
   26.4330  -22.6285  -14.2289 C   0  0  0  0  0  0  0  0  0  0  0  0
   26.6734  -20.1233  -13.8166 C   0  0  2  0  0  0  0  0  0  0  0  0
   27.0468  -18.8430  -14.3311 N   0  0  0  0  0  0  0  0  0  0  0  0
   26.9281  -20.3049  -12.3614 C   0  0  0  0  0  0  0  0  0  0  0  0
   28.1013  -20.4666  -11.9372 O   0  0  0  0  0  0  0  0  0  0  0  0
   27.2927  -17.6798   -8.2418 C   0  0  0  0  0  0  0  0  0  0  0  0
   27.3193  -18.8531   -9.1936 C   0  0  0  0  0  0  0  0  0  0  0  0
   26.1311  -19.7580   -9.0785 C   0  0  2  0  0  0  0  0  0  0  0  0
   25.9686  -20.3060   -7.6768 C   0  0  0  0  0  0  0  0  0  0  0  0
   26.0973  -20.8985  -10.0531 C   0  0  2  0  0  0  0  0  0  0  0  0
   25.9182  -20.3148  -11.3922 N   0  0  0  0  0  0  0  0  0  0  0  0
   24.9221  -21.7450   -9.7057 C   0  0  0  0  0  0  0  0  0  0  0  0
   24.9216  -22.7296   -8.7530 O   0  0  0  0  0  0  0  0  0  0  0  0
   23.8538  -21.5397  -10.3338 O   0  0  0  0  0  0  0  0  0  0  0  0
  1  5  1  0
  1  2  1  0
  2  3  1  0
  3  4  1  0
  5  4  1  0
  6  7  2  0
  5  6  1  1
  9  8  1  6
  9 11  1  0
 10  9  1  0
 11 12  1  6
 12  6  1  0
 13 20  1  0
 13 11  1  0
 14 13  2  0
 15 16  1  0
 17 16  1  0
 17 19  1  0
 17 18  1  1
 19 20  1  6
 19 21  1  0
 21 22  1  0
 23 21  2  0
M  END
$$$$
