PVI.pdb
     RDKit          3D

 23 23  0  0  1  0  0  0  0  0999 V2000
   20.7937  -10.6056  -18.3377 N   0  0  0  0  0  0  0  0  0  0  0  0
   20.7417  -10.0032  -19.6397 C   0  0  0  0  0  0  0  0  0  0  0  0
   21.7301   -8.8882  -19.6933 C   0  0  0  0  0  0  0  0  0  0  0  0
   22.5845   -9.0615  -18.4602 C   0  0  0  0  0  0  0  0  0  0  0  0
   21.6960   -9.8181  -17.5332 C   0  0  1  0  0  0  0  0  0  0  0  0
   20.9254   -8.8996  -16.6096 C   0  0  0  0  0  0  0  0  0  0  0  0
   19.9147   -8.2901  -17.0102 O   0  0  0  0  0  0  0  0  0  0  0  0
   19.0849   -9.4766  -13.6141 C   0  0  0  0  0  0  0  0  0  0  0  0
   20.1109   -8.4427  -13.1764 C   0  0  2  0  0  0  0  0  0  0  0  0
   19.4380   -7.5436  -12.1959 C   0  0  0  0  0  0  0  0  0  0  0  0
   20.7630   -7.8498  -14.3534 C   0  0  2  0  0  0  0  0  0  0  0  0
   21.3730   -8.7459  -15.2851 N   0  0  0  0  0  0  0  0  0  0  0  0
   21.5170   -6.5873  -14.1229 C   0  0  0  0  0  0  0  0  0  0  0  0
   22.7494   -6.6200  -13.8731 O   0  0  0  0  0  0  0  0  0  0  0  0
   23.3021   -2.4511  -17.3620 C   0  0  0  0  0  0  0  0  0  0  0  0
   22.8713   -2.6047  -15.9218 C   0  0  0  0  0  0  0  0  0  0  0  0
   22.1572   -3.8896  -15.6333 C   0  0  2  0  0  0  0  0  0  0  0  0
   20.9662   -4.0942  -16.5450 C   0  0  0  0  0  0  0  0  0  0  0  0
   21.7171   -4.0727  -14.2104 C   0  0  2  0  0  0  0  0  0  0  0  0
   20.9316   -5.3163  -14.1598 N   0  0  0  0  0  0  0  0  0  0  0  0
   20.8537   -2.9109  -13.8595 C   0  0  0  0  0  0  0  0  0  0  0  0
   21.3045   -1.7383  -13.3130 O   0  0  0  0  0  0  0  0  0  0  0  0
   19.6218   -3.0162  -14.0814 O   0  0  0  0  0  0  0  0  0  0  0  0
  1  5  1  0
  1  2  1  0
  2  3  1  0
  3  4  1  0
  5  4  1  0
  6  7  2  0
  5  6  1  6
  9  8  1  6
  9 11  1  0
 10  9  1  0
 11 12  1  1
 12  6  1  0
 13 20  1  0
 13 11  1  0
 14 13  2  0
 15 16  1  0
 17 16  1  0
 17 19  1  0
 17 18  1  6
 19 20  1  6
 19 21  1  0
 21 22  1  0
 23 21  2  0
M  END
$$$$
