PVI.pdb
     RDKit          3D

 23 23  0  0  1  0  0  0  0  0999 V2000
   26.9396  -19.4063  -18.0618 N   0  0  0  0  0  0  0  0  0  0  0  0
   25.5848  -19.4303  -18.5360 C   0  0  0  0  0  0  0  0  0  0  0  0
   24.7532  -18.5565  -17.6596 C   0  0  0  0  0  0  0  0  0  0  0  0
   25.7445  -17.7742  -16.8315 C   0  0  0  0  0  0  0  0  0  0  0  0
   26.9551  -18.6432  -16.8375 C   0  0  1  0  0  0  0  0  0  0  0  0
   27.0003  -19.5619  -15.6357 C   0  0  0  0  0  0  0  0  0  0  0  0
   26.3217  -20.6069  -15.6029 O   0  0  0  0  0  0  0  0  0  0  0  0
   30.0640  -20.9879  -13.9438 C   0  0  0  0  0  0  0  0  0  0  0  0
   29.2501  -20.3129  -12.8505 C   0  0  2  0  0  0  0  0  0  0  0  0
   29.3773  -21.1530  -11.6257 C   0  0  0  0  0  0  0  0  0  0  0  0
   27.9071  -19.9851  -13.3514 C   0  0  2  0  0  0  0  0  0  0  0  0
   27.8260  -19.2131  -14.5517 N   0  0  0  0  0  0  0  0  0  0  0  0
   26.8861  -19.6426  -12.3239 C   0  0  0  0  0  0  0  0  0  0  0  0
   26.8329  -18.4811  -11.8437 O   0  0  0  0  0  0  0  0  0  0  0  0
   21.9040  -20.6942  -12.9748 C   0  0  0  0  0  0  0  0  0  0  0  0
   23.1936  -20.0944  -12.4643 C   0  0  0  0  0  0  0  0  0  0  0  0
   23.6563  -20.6654  -11.1590 C   0  0  2  0  0  0  0  0  0  0  0  0
   22.6776  -20.3859  -10.0385 C   0  0  0  0  0  0  0  0  0  0  0  0
   25.0278  -20.2400  -10.7236 C   0  0  2  0  0  0  0  0  0  0  0  0
   25.9471  -20.5551  -11.8290 N   0  0  0  0  0  0  0  0  0  0  0  0
   25.3822  -21.0454   -9.5219 C   0  0  0  0  0  0  0  0  0  0  0  0
   26.0366  -22.2486   -9.5520 O   0  0  0  0  0  0  0  0  0  0  0  0
   25.0559  -20.5861   -8.3992 O   0  0  0  0  0  0  0  0  0  0  0  0
  1  5  1  0
  1  2  1  0
  2  3  1  0
  3  4  1  0
  5  4  1  0
  6  7  2  0
  5  6  1  1
  9  8  1  6
  9 11  1  0
 10  9  1  0
 11 12  1  6
 12  6  1  0
 13 20  1  0
 13 11  1  0
 14 13  2  0
 15 16  1  0
 17 16  1  0
 17 19  1  0
 17 18  1  1
 19 20  1  6
 19 21  1  0
 21 22  1  0
 23 21  2  0
M  END
$$$$
