PVI.pdb
     RDKit          3D

 23 23  0  0  1  0  0  0  0  0999 V2000
   25.1628  -19.4150  -17.9715 N   0  0  0  0  0  0  0  0  0  0  0  0
   23.7496  -19.1648  -18.0043 C   0  0  0  0  0  0  0  0  0  0  0  0
   23.4232  -18.1176  -16.9943 C   0  0  0  0  0  0  0  0  0  0  0  0
   24.7568  -17.5428  -16.5801 C   0  0  0  0  0  0  0  0  0  0  0  0
   25.7122  -18.6461  -16.8814 C   0  0  1  0  0  0  0  0  0  0  0  0
   25.9591  -19.5280  -15.6765 C   0  0  0  0  0  0  0  0  0  0  0  0
   25.2328  -20.5143  -15.4455 O   0  0  0  0  0  0  0  0  0  0  0  0
   29.2355  -21.1568  -14.8061 C   0  0  0  0  0  0  0  0  0  0  0  0
   28.7904  -20.4108  -13.5576 C   0  0  2  0  0  0  0  0  0  0  0  0
   29.2017  -21.2332  -12.3842 C   0  0  0  0  0  0  0  0  0  0  0  0
   27.3817  -20.0093  -13.6855 C   0  0  2  0  0  0  0  0  0  0  0  0
   27.0280  -19.2125  -14.8183 N   0  0  0  0  0  0  0  0  0  0  0  0
   26.6855  -19.6368  -12.4238 C   0  0  0  0  0  0  0  0  0  0  0  0
   26.6907  -18.4441  -12.0237 O   0  0  0  0  0  0  0  0  0  0  0  0
   21.8037  -20.9407  -11.8292 C   0  0  0  0  0  0  0  0  0  0  0  0
   23.1500  -20.2703  -11.6830 C   0  0  0  0  0  0  0  0  0  0  0  0
   23.9129  -20.6948  -10.4657 C   0  0  2  0  0  0  0  0  0  0  0  0
   23.1757  -20.3571   -9.1874 C   0  0  0  0  0  0  0  0  0  0  0  0
   25.3148  -20.1678  -10.3720 C   0  0  2  0  0  0  0  0  0  0  0  0
   26.0030  -20.5527  -11.6147 N   0  0  0  0  0  0  0  0  0  0  0  0
   25.9616  -20.8311   -9.2058 C   0  0  0  0  0  0  0  0  0  0  0  0
   26.1788  -20.2380   -7.9900 O   0  0  0  0  0  0  0  0  0  0  0  0
   26.3352  -22.0217   -9.3497 O   0  0  0  0  0  0  0  0  0  0  0  0
  1  5  1  0
  1  2  1  0
  2  3  1  0
  3  4  1  0
  5  4  1  0
  6  7  2  0
  5  6  1  1
  9  8  1  6
  9 11  1  0
 10  9  1  0
 11 12  1  6
 12  6  1  0
 13 20  1  0
 13 11  1  0
 14 13  2  0
 15 16  1  0
 17 16  1  0
 17 19  1  0
 17 18  1  1
 19 20  1  6
 19 21  1  0
 21 22  1  0
 23 21  2  0
M  END
$$$$
