PVI.pdb
     RDKit          3D

 23 23  0  0  1  0  0  0  0  0999 V2000
   27.9602  -17.5759  -16.4662 N   0  0  0  0  0  0  0  0  0  0  0  0
   27.1106  -16.7796  -17.3058 C   0  0  0  0  0  0  0  0  0  0  0  0
   26.1926  -15.9825  -16.4426 C   0  0  0  0  0  0  0  0  0  0  0  0
   26.7514  -16.1171  -15.0462 C   0  0  0  0  0  0  0  0  0  0  0  0
   27.5146  -17.3958  -15.1059 C   0  0  1  0  0  0  0  0  0  0  0  0
   26.6808  -18.5760  -14.6560 C   0  0  0  0  0  0  0  0  0  0  0  0
   26.0636  -19.2758  -15.4823 O   0  0  0  0  0  0  0  0  0  0  0  0
   27.7657  -21.1743  -11.9604 C   0  0  0  0  0  0  0  0  0  0  0  0
   26.3652  -20.6883  -11.6202 C   0  0  2  0  0  0  0  0  0  0  0  0
   25.6059  -21.8626  -11.1036 C   0  0  0  0  0  0  0  0  0  0  0  0
   25.8101  -19.9221  -12.7458 C   0  0  2  0  0  0  0  0  0  0  0  0
   26.6150  -18.8696  -13.2820 N   0  0  0  0  0  0  0  0  0  0  0  0
   24.3544  -19.6183  -12.6818 C   0  0  0  0  0  0  0  0  0  0  0  0
   23.9296  -18.6989  -11.9357 O   0  0  0  0  0  0  0  0  0  0  0  0
   21.8615  -18.4660  -16.9184 C   0  0  0  0  0  0  0  0  0  0  0  0
   22.2667  -18.6468  -15.4740 C   0  0  0  0  0  0  0  0  0  0  0  0
   21.4980  -19.7122  -14.7543 C   0  0  2  0  0  0  0  0  0  0  0  0
   20.0107  -19.4304  -14.7444 C   0  0  0  0  0  0  0  0  0  0  0  0
   21.9492  -19.9907  -13.3506 C   0  0  2  0  0  0  0  0  0  0  0  0
   23.3842  -20.3109  -13.4156 N   0  0  0  0  0  0  0  0  0  0  0  0
   21.1855  -21.1736  -12.8649 C   0  0  0  0  0  0  0  0  0  0  0  0
   20.1228  -21.1180  -12.0019 O   0  0  0  0  0  0  0  0  0  0  0  0
   21.5438  -22.3045  -13.2777 O   0  0  0  0  0  0  0  0  0  0  0  0
  1  5  1  0
  1  2  1  0
  2  3  1  0
  3  4  1  0
  5  4  1  0
  6  7  2  0
  5  6  1  6
  9  8  1  6
  9 11  1  0
 10  9  1  0
 11 12  1  1
 12  6  1  0
 13 20  1  0
 13 11  1  0
 14 13  2  0
 15 16  1  0
 17 16  1  0
 17 19  1  0
 17 18  1  1
 19 20  1  6
 19 21  1  0
 21 22  1  0
 23 21  2  0
M  END
$$$$
