PVI.pdb
     RDKit          3D

 23 23  0  0  1  0  0  0  0  0999 V2000
   29.2631  -22.1207  -18.4359 N   0  0  0  0  0  0  0  0  0  0  0  0
   30.4649  -22.4071  -17.7048 C   0  0  0  0  0  0  0  0  0  0  0  0
   30.1461  -23.3748  -16.6162 C   0  0  0  0  0  0  0  0  0  0  0  0
   28.7594  -23.8808  -16.9345 C   0  0  0  0  0  0  0  0  0  0  0  0
   28.1762  -22.7832  -17.7568 C   0  0  1  0  0  0  0  0  0  0  0  0
   27.3924  -21.7989  -16.9159 C   0  0  0  0  0  0  0  0  0  0  0  0
   27.9126  -20.7370  -16.5218 O   0  0  0  0  0  0  0  0  0  0  0  0
   24.6611  -19.8602  -17.8696 C   0  0  0  0  0  0  0  0  0  0  0  0
   24.1042  -20.5891  -16.6564 C   0  0  2  0  0  0  0  0  0  0  0  0
   23.1789  -19.6472  -15.9643 C   0  0  0  0  0  0  0  0  0  0  0  0
   25.1992  -21.2017  -15.8898 C   0  0  2  0  0  0  0  0  0  0  0  0
   26.0600  -22.1061  -16.5857 N   0  0  0  0  0  0  0  0  0  0  0  0
   24.8820  -21.6001  -14.4912 C   0  0  0  0  0  0  0  0  0  0  0  0
   24.3052  -22.6933  -14.2573 O   0  0  0  0  0  0  0  0  0  0  0  0
   28.3783  -20.6617  -10.4755 C   0  0  0  0  0  0  0  0  0  0  0  0
   27.3024  -21.2388  -11.3659 C   0  0  0  0  0  0  0  0  0  0  0  0
   25.9354  -20.6827  -11.1084 C   0  0  2  0  0  0  0  0  0  0  0  0
   25.5155  -20.8548   -9.6642 C   0  0  0  0  0  0  0  0  0  0  0  0
   24.8494  -21.2144  -11.9969 C   0  0  2  0  0  0  0  0  0  0  0  0
   25.1852  -20.8145  -13.3730 N   0  0  0  0  0  0  0  0  0  0  0  0
   23.5751  -20.5685  -11.5761 C   0  0  0  0  0  0  0  0  0  0  0  0
   22.6231  -21.1578  -10.7865 O   0  0  0  0  0  0  0  0  0  0  0  0
   23.3589  -19.3975  -11.9759 O   0  0  0  0  0  0  0  0  0  0  0  0
  1  5  1  0
  1  2  1  0
  2  3  1  0
  3  4  1  0
  5  4  1  0
  6  7  2  0
  5  6  1  1
  9  8  1  6
  9 11  1  0
 10  9  1  0
 11 12  1  6
 12  6  1  0
 13 20  1  0
 13 11  1  0
 14 13  2  0
 15 16  1  0
 17 16  1  0
 17 19  1  0
 17 18  1  1
 19 20  1  6
 19 21  1  0
 21 22  1  0
 23 21  2  0
M  END
$$$$
