PVI.pdb
     RDKit          3D

 23 23  0  0  1  0  0  0  0  0999 V2000
   21.9946  -20.5357  -14.2423 N   0  0  0  0  0  0  0  0  0  0  0  0
   20.5599  -20.5265  -14.1954 C   0  0  0  0  0  0  0  0  0  0  0  0
   20.0393  -20.0337  -15.5028 C   0  0  0  0  0  0  0  0  0  0  0  0
   21.2317  -20.0450  -16.4294 C   0  0  0  0  0  0  0  0  0  0  0  0
   22.3895  -19.9422  -15.4966 C   0  0  1  0  0  0  0  0  0  0  0  0
   22.8298  -18.5084  -15.2943 C   0  0  0  0  0  0  0  0  0  0  0  0
   22.2423  -17.7668  -14.4828 O   0  0  0  0  0  0  0  0  0  0  0  0
   26.2078  -17.4280  -14.4059 C   0  0  0  0  0  0  0  0  0  0  0  0
   25.8483  -16.5418  -15.5886 C   0  0  2  0  0  0  0  0  0  0  0  0
   26.3780  -15.1798  -15.2943 C   0  0  0  0  0  0  0  0  0  0  0  0
   24.4234  -16.6945  -15.9182 C   0  0  2  0  0  0  0  0  0  0  0  0
   23.9189  -18.0262  -16.0424 N   0  0  0  0  0  0  0  0  0  0  0  0
   23.8674  -15.7266  -16.9028 C   0  0  0  0  0  0  0  0  0  0  0  0
   23.9532  -15.9557  -18.1367 O   0  0  0  0  0  0  0  0  0  0  0  0
   19.0255  -14.8906  -17.6535 C   0  0  0  0  0  0  0  0  0  0  0  0
   20.5266  -14.8863  -17.8272 C   0  0  0  0  0  0  0  0  0  0  0  0
   21.1887  -13.6212  -17.3744 C   0  0  2  0  0  0  0  0  0  0  0  0
   20.5994  -12.3999  -18.0472 C   0  0  0  0  0  0  0  0  0  0  0  0
   22.6810  -13.5883  -17.5284 C   0  0  2  0  0  0  0  0  0  0  0  0
   23.2360  -14.5302  -16.5430 N   0  0  0  0  0  0  0  0  0  0  0  0
   23.1294  -12.2027  -17.2163 C   0  0  0  0  0  0  0  0  0  0  0  0
   23.4626  -11.2591  -18.1520 O   0  0  0  0  0  0  0  0  0  0  0  0
   23.2074  -11.8775  -16.0055 O   0  0  0  0  0  0  0  0  0  0  0  0
  1  5  1  0
  1  2  1  0
  2  3  1  0
  3  4  1  0
  5  4  1  0
  6  7  2  0
  5  6  1  1
  9  8  1  1
  9 11  1  0
 10  9  1  0
 11 12  1  6
 12  6  1  0
 13 20  1  0
 13 11  1  0
 14 13  2  0
 15 16  1  0
 17 16  1  0
 17 19  1  0
 17 18  1  6
 19 20  1  1
 19 21  1  0
 21 22  1  0
 23 21  2  0
M  END
$$$$
