SCP.pdb
     RDKit          3D

 20 20  0  0  1  0  0  0  0  0999 V2000
    9.6036  -17.5098   22.2229 O   0  0  0  0  0  0  0  0  0  0  0  0
    8.4020  -17.0591   21.6942 C   0  0  0  0  0  0  0  0  0  0  0  0
    8.5340  -15.5689   21.4462 C   0  0  2  0  0  0  0  0  0  0  0  0
    9.6658  -15.3148   20.5489 N   0  0  0  0  0  0  0  0  0  0  0  0
    8.7692  -14.8693   22.7401 C   0  0  0  0  0  0  0  0  0  0  0  0
    9.9572  -14.7322   23.1555 O   0  0  0  0  0  0  0  0  0  0  0  0
    7.7476  -14.3328   23.5602 N   0  0  0  0  0  0  0  0  0  0  0  0
    7.9769  -13.8775   24.9166 C   0  0  1  0  0  0  0  0  0  0  0  0
    6.6623  -13.3050   25.3997 C   0  0  0  0  0  0  0  0  0  0  0  0
    6.6540  -13.3209   27.1964 S   0  0  0  0  0  0  0  0  0  0  0  0
    8.4754  -14.9849   25.7372 C   0  0  0  0  0  0  0  0  0  0  0  0
    8.2786  -16.1852   25.3699 O   0  0  0  0  0  0  0  0  0  0  0  0
    9.1827  -14.8012   26.9476 N   0  0  0  0  0  0  0  0  0  0  0  0
    9.0103  -13.7267   27.9358 C   0  0  0  0  0  0  0  0  0  0  0  0
   10.3383  -13.5456   28.6014 C   0  0  0  0  0  0  0  0  0  0  0  0
   11.2391  -14.5462   27.9101 C   0  0  0  0  0  0  0  0  0  0  0  0
   10.2434  -15.6154   27.5110 C   0  0  1  0  0  0  0  0  0  0  0  0
    9.7820  -16.3465   28.7222 C   0  0  0  0  0  0  0  0  0  0  0  0
   10.5757  -17.1986   29.4567 O   0  0  0  0  0  0  0  0  0  0  0  0
    8.5984  -16.1746   29.0945 O   0  0  0  0  0  0  0  0  0  0  0  0
  1  2  1  0
  2  3  1  0
  3  4  1  6
  5  3  1  0
  6  5  2  0
  7  5  1  0
  8 11  1  0
  8  7  1  0
  9 10  1  0
  8  9  1  1
 11 12  2  0
 13 11  1  0
 13 14  1  0
 15 14  1  0
 16 17  1  0
 16 15  1  0
 17 18  1  1
 17 13  1  0
 18 19  1  0
 20 18  2  0
M  END
$$$$
