SCP.pdb
     RDKit          3D

 20 20  0  0  1  0  0  0  0  0999 V2000
   10.5073  -13.3648   20.0539 O   0  0  0  0  0  0  0  0  0  0  0  0
    9.7205  -14.4585   19.7202 C   0  0  0  0  0  0  0  0  0  0  0  0
    8.2690  -14.0254   19.7928 C   0  0  2  0  0  0  0  0  0  0  0  0
    8.1377  -12.6499   19.3015 N   0  0  0  0  0  0  0  0  0  0  0  0
    7.8031  -14.0864   21.2064 C   0  0  0  0  0  0  0  0  0  0  0  0
    7.7554  -13.0172   21.8826 O   0  0  0  0  0  0  0  0  0  0  0  0
    7.3996  -15.2708   21.8685 N   0  0  0  0  0  0  0  0  0  0  0  0
    6.9391  -15.2936   23.2422 C   0  0  1  0  0  0  0  0  0  0  0  0
    6.3471  -16.6676   23.4683 C   0  0  0  0  0  0  0  0  0  0  0  0
    6.0445  -16.8810   25.2265 S   0  0  0  0  0  0  0  0  0  0  0  0
    8.0479  -14.9729   24.1456 C   0  0  0  0  0  0  0  0  0  0  0  0
    9.2459  -15.1888   23.7811 O   0  0  0  0  0  0  0  0  0  0  0  0
    7.8681  -14.4223   25.4354 N   0  0  0  0  0  0  0  0  0  0  0  0
    6.6005  -14.1237   26.1171 C   0  0  0  0  0  0  0  0  0  0  0  0
    6.8777  -12.9857   27.0486 C   0  0  0  0  0  0  0  0  0  0  0  0
    8.3388  -12.6654   26.8182 C   0  0  0  0  0  0  0  0  0  0  0  0
    8.8761  -14.0176   26.3976 C   0  0  1  0  0  0  0  0  0  0  0  0
    8.9047  -14.9318   27.5714 C   0  0  0  0  0  0  0  0  0  0  0  0
    8.0819  -16.0262   27.7156 O   0  0  0  0  0  0  0  0  0  0  0  0
    9.7288  -14.6888   28.4828 O   0  0  0  0  0  0  0  0  0  0  0  0
  1  2  1  0
  2  3  1  0
  3  4  1  1
  5  3  1  0
  6  5  2  0
  7  5  1  0
  8 11  1  0
  8  7  1  0
  9 10  1  0
  8  9  1  1
 11 12  2  0
 13 11  1  0
 13 14  1  0
 15 14  1  0
 16 17  1  0
 16 15  1  0
 17 18  1  1
 17 13  1  0
 18 19  1  0
 20 18  2  0
M  END
$$$$
