SCP.pdb
     RDKit          3D

 20 20  0  0  1  0  0  0  0  0999 V2000
    9.6817  -17.3337   21.5191 O   0  0  0  0  0  0  0  0  0  0  0  0
    8.3840  -16.9488   21.8262 C   0  0  0  0  0  0  0  0  0  0  0  0
    8.2496  -15.4727   21.5055 C   0  0  2  0  0  0  0  0  0  0  0  0
    9.2034  -15.1059   20.4537 N   0  0  0  0  0  0  0  0  0  0  0  0
    8.5373  -14.6711   22.7277 C   0  0  0  0  0  0  0  0  0  0  0  0
    9.7371  -14.3661   22.9921 O   0  0  0  0  0  0  0  0  0  0  0  0
    7.5539  -14.2123   23.6369 N   0  0  0  0  0  0  0  0  0  0  0  0
    7.8605  -13.7844   24.9870 C   0  0  1  0  0  0  0  0  0  0  0  0
    6.5594  -13.2909   25.5812 C   0  0  0  0  0  0  0  0  0  0  0  0
    6.8030  -13.0009   27.3375 S   0  0  0  0  0  0  0  0  0  0  0  0
    8.4691  -14.8887   25.7343 C   0  0  0  0  0  0  0  0  0  0  0  0
    8.3608  -16.0801   25.3062 O   0  0  0  0  0  0  0  0  0  0  0  0
    9.1912  -14.7114   26.9369 N   0  0  0  0  0  0  0  0  0  0  0  0
    9.0094  -13.6605   27.9485 C   0  0  0  0  0  0  0  0  0  0  0  0
   10.3433  -13.4606   28.5968 C   0  0  0  0  0  0  0  0  0  0  0  0
   11.2562  -14.4258   27.8720 C   0  0  0  0  0  0  0  0  0  0  0  0
   10.2797  -15.5108   27.4677 C   0  0  1  0  0  0  0  0  0  0  0  0
    9.8551  -16.2758   28.6714 C   0  0  0  0  0  0  0  0  0  0  0  0
   10.6688  -17.1523   29.3536 O   0  0  0  0  0  0  0  0  0  0  0  0
    8.6854  -16.1106   29.0876 O   0  0  0  0  0  0  0  0  0  0  0  0
  1  2  1  0
  2  3  1  0
  3  4  1  6
  5  3  1  0
  6  5  2  0
  7  5  1  0
  8 11  1  0
  8  7  1  0
  9 10  1  0
  8  9  1  1
 11 12  2  0
 13 11  1  0
 13 14  1  0
 15 14  1  0
 16 17  1  0
 16 15  1  0
 17 18  1  1
 17 13  1  0
 18 19  1  0
 20 18  2  0
M  END
$$$$
