SCP.pdb
     RDKit          3D

 20 20  0  0  1  0  0  0  0  0999 V2000
    7.9228  -17.5655   22.5972 O   0  0  0  0  0  0  0  0  0  0  0  0
    8.7415  -17.0594   21.5971 C   0  0  0  0  0  0  0  0  0  0  0  0
    8.4472  -15.5779   21.4618 C   0  0  2  0  0  0  0  0  0  0  0  0
    9.3370  -14.9862   20.4574 N   0  0  0  0  0  0  0  0  0  0  0  0
    8.6729  -14.9055   22.7717 C   0  0  0  0  0  0  0  0  0  0  0  0
    9.8603  -14.7301   23.1740 O   0  0  0  0  0  0  0  0  0  0  0  0
    7.6424  -14.4356   23.6211 N   0  0  0  0  0  0  0  0  0  0  0  0
    7.8808  -13.9619   24.9696 C   0  0  1  0  0  0  0  0  0  0  0  0
    6.5813  -13.3446   25.4382 C   0  0  0  0  0  0  0  0  0  0  0  0
    6.6712  -13.0952   27.2153 S   0  0  0  0  0  0  0  0  0  0  0  0
    8.3464  -15.0674   25.8119 C   0  0  0  0  0  0  0  0  0  0  0  0
    8.1071  -16.2681   25.4721 O   0  0  0  0  0  0  0  0  0  0  0  0
    9.0665  -14.8814   27.0143 N   0  0  0  0  0  0  0  0  0  0  0  0
    8.8835  -13.8227   28.0176 C   0  0  0  0  0  0  0  0  0  0  0  0
   10.2164  -13.6186   28.6667 C   0  0  0  0  0  0  0  0  0  0  0  0
   11.1300  -14.5898   27.9509 C   0  0  0  0  0  0  0  0  0  0  0  0
   10.1536  -15.6772   27.5531 C   0  0  1  0  0  0  0  0  0  0  0  0
    9.7265  -16.4328   28.7619 C   0  0  0  0  0  0  0  0  0  0  0  0
   10.5304  -17.3231   29.4378 O   0  0  0  0  0  0  0  0  0  0  0  0
    8.5639  -16.2458   29.1888 O   0  0  0  0  0  0  0  0  0  0  0  0
  1  2  1  0
  2  3  1  0
  3  4  1  6
  5  3  1  0
  6  5  2  0
  7  5  1  0
  8 11  1  0
  8  7  1  0
  9 10  1  0
  8  9  1  1
 11 12  2  0
 13 11  1  0
 13 14  1  0
 15 14  1  0
 16 17  1  0
 16 15  1  0
 17 18  1  1
 17 13  1  0
 18 19  1  0
 20 18  2  0
M  END
$$$$
