SCP.pdb
     RDKit          3D

 20 20  0  0  1  0  0  0  0  0999 V2000
    8.2098  -18.1244   20.9738 O   0  0  0  0  0  0  0  0  0  0  0  0
    8.6985  -17.3226   21.9960 C   0  0  0  0  0  0  0  0  0  0  0  0
    8.5304  -15.8763   21.5720 C   0  0  2  0  0  0  0  0  0  0  0  0
    9.5479  -15.5317   20.5738 N   0  0  0  0  0  0  0  0  0  0  0  0
    8.6892  -14.9897   22.7584 C   0  0  0  0  0  0  0  0  0  0  0  0
    9.8478  -14.5874   23.0721 O   0  0  0  0  0  0  0  0  0  0  0  0
    7.6240  -14.5505   23.5810 N   0  0  0  0  0  0  0  0  0  0  0  0
    7.8138  -14.0705   24.9350 C   0  0  1  0  0  0  0  0  0  0  0  0
    6.4588  -13.5928   25.4094 C   0  0  0  0  0  0  0  0  0  0  0  0
    6.5551  -13.2473   27.1700 S   0  0  0  0  0  0  0  0  0  0  0  0
    8.3888  -15.1329   25.7651 C   0  0  0  0  0  0  0  0  0  0  0  0
    8.2561  -16.3488   25.4208 O   0  0  0  0  0  0  0  0  0  0  0  0
    9.1034  -14.8877   26.9601 N   0  0  0  0  0  0  0  0  0  0  0  0
    8.8875  -13.8055   27.9312 C   0  0  0  0  0  0  0  0  0  0  0  0
   10.2137  -13.5396   28.5716 C   0  0  0  0  0  0  0  0  0  0  0  0
   11.1573  -14.5025   27.8840 C   0  0  0  0  0  0  0  0  0  0  0  0
   10.2157  -15.6319   27.5209 C   0  0  1  0  0  0  0  0  0  0  0  0
    9.8137  -16.3638   28.7527 C   0  0  0  0  0  0  0  0  0  0  0  0
   10.6372  -17.2282   29.4385 O   0  0  0  0  0  0  0  0  0  0  0  0
    8.6546  -16.1806   29.1906 O   0  0  0  0  0  0  0  0  0  0  0  0
  1  2  1  0
  2  3  1  0
  3  4  1  6
  5  3  1  0
  6  5  2  0
  7  5  1  0
  8 11  1  0
  8  7  1  0
  9 10  1  0
  8  9  1  1
 11 12  2  0
 13 11  1  0
 13 14  1  0
 15 14  1  0
 16 17  1  0
 16 15  1  0
 17 18  1  1
 17 13  1  0
 18 19  1  0
 20 18  2  0
M  END
$$$$
