SCP.pdb
     RDKit          3D

 20 20  0  0  1  0  0  0  0  0999 V2000
   10.6283  -17.0450   15.0148 O   0  0  0  0  0  0  0  0  0  0  0  0
    9.8063  -18.1367   15.2577 C   0  0  0  0  0  0  0  0  0  0  0  0
    8.3711  -17.6915   15.0537 C   0  0  2  0  0  0  0  0  0  0  0  0
    8.2777  -16.8578   13.8509 N   0  0  0  0  0  0  0  0  0  0  0  0
    7.9248  -16.8993   16.2337 C   0  0  0  0  0  0  0  0  0  0  0  0
    8.0524  -15.6401   16.2101 O   0  0  0  0  0  0  0  0  0  0  0  0
    7.3559  -17.4546   17.4050 N   0  0  0  0  0  0  0  0  0  0  0  0
    6.9980  -16.6630   18.5647 C   0  0  1  0  0  0  0  0  0  0  0  0
    6.1927  -17.5723   19.4669 C   0  0  0  0  0  0  0  0  0  0  0  0
    5.9343  -16.7407   21.0385 S   0  0  0  0  0  0  0  0  0  0  0  0
    8.2076  -16.1267   19.1954 C   0  0  0  0  0  0  0  0  0  0  0  0
    9.3037  -16.7635   19.1089 O   0  0  0  0  0  0  0  0  0  0  0  0
    8.2372  -14.9104   19.9157 N   0  0  0  0  0  0  0  0  0  0  0  0
    7.1305  -13.9683   20.1358 C   0  0  0  0  0  0  0  0  0  0  0  0
    7.7504  -12.6156   20.2949 C   0  0  0  0  0  0  0  0  0  0  0  0
    9.2331  -12.8645   20.1218 C   0  0  0  0  0  0  0  0  0  0  0  0
    9.3528  -14.2936   20.6089 C   0  0  1  0  0  0  0  0  0  0  0  0
    9.1661  -14.3365   22.0847 C   0  0  0  0  0  0  0  0  0  0  0  0
    8.9961  -15.4967   22.8062 O   0  0  0  0  0  0  0  0  0  0  0  0
    9.1639  -13.2491   22.7064 O   0  0  0  0  0  0  0  0  0  0  0  0
  1  2  1  0
  2  3  1  0
  3  4  1  6
  5  3  1  0
  6  5  2  0
  7  5  1  0
  8 11  1  0
  8  7  1  0
  9 10  1  0
  8  9  1  1
 11 12  2  0
 13 11  1  0
 13 14  1  0
 15 14  1  0
 16 17  1  0
 16 15  1  0
 17 18  1  1
 17 13  1  0
 18 19  1  0
 20 18  2  0
M  END
$$$$
