SCP.pdb
     RDKit          3D

 20 20  0  0  1  0  0  0  0  0999 V2000
    9.3377  -17.3129   22.2056 O   0  0  0  0  0  0  0  0  0  0  0  0
    7.9935  -16.9896   22.0823 C   0  0  0  0  0  0  0  0  0  0  0  0
    7.8980  -15.5036   21.7957 C   0  0  2  0  0  0  0  0  0  0  0  0
    8.8978  -15.1281   20.7907 N   0  0  0  0  0  0  0  0  0  0  0  0
    8.1529  -14.7391   23.0485 C   0  0  0  0  0  0  0  0  0  0  0  0
    9.2963  -14.2276   23.2323 O   0  0  0  0  0  0  0  0  0  0  0  0
    7.1972  -14.5337   24.0724 N   0  0  0  0  0  0  0  0  0  0  0  0
    7.4590  -13.7350   25.2528 C   0  0  1  0  0  0  0  0  0  0  0  0
    6.1289  -13.1472   25.6707 C   0  0  0  0  0  0  0  0  0  0  0  0
    6.3824  -12.1331   27.1321 S   0  0  0  0  0  0  0  0  0  0  0  0
    8.0890  -14.5626   26.2855 C   0  0  0  0  0  0  0  0  0  0  0  0
    8.5254  -14.0246   27.3507 O   0  0  0  0  0  0  0  0  0  0  0  0
    8.2485  -15.9629   26.1724 N   0  0  0  0  0  0  0  0  0  0  0  0
    7.9961  -16.8044   24.9939 C   0  0  0  0  0  0  0  0  0  0  0  0
    7.6245  -18.1585   25.5115 C   0  0  0  0  0  0  0  0  0  0  0  0
    7.6586  -18.0024   27.0164 C   0  0  0  0  0  0  0  0  0  0  0  0
    8.6945  -16.9093   27.1778 C   0  0  1  0  0  0  0  0  0  0  0  0
   10.0441  -17.4475   26.8566 C   0  0  0  0  0  0  0  0  0  0  0  0
   10.7937  -18.2134   27.7210 O   0  0  0  0  0  0  0  0  0  0  0  0
   10.5257  -17.1866   25.7302 O   0  0  0  0  0  0  0  0  0  0  0  0
  1  2  1  0
  2  3  1  0
  3  4  1  6
  5  3  1  0
  6  5  2  0
  7  5  1  0
  8 11  1  0
  8  7  1  0
  9 10  1  0
  8  9  1  1
 11 12  2  0
 13 11  1  0
 13 14  1  0
 15 14  1  0
 16 17  1  0
 16 15  1  0
 17 18  1  6
 17 13  1  0
 18 19  1  0
 20 18  2  0
M  END
$$$$
