SCP.pdb
     RDKit          3D

 20 20  0  0  1  0  0  0  0  0999 V2000
    8.1126  -16.6996   21.5754 O   0  0  0  0  0  0  0  0  0  0  0  0
    6.9725  -15.9253   21.4103 C   0  0  0  0  0  0  0  0  0  0  0  0
    7.3946  -14.4688   21.4243 C   0  0  2  0  0  0  0  0  0  0  0  0
    8.4749  -14.2573   20.4554 N   0  0  0  0  0  0  0  0  0  0  0  0
    7.8801  -14.1059   22.7850 C   0  0  0  0  0  0  0  0  0  0  0  0
    9.1201  -14.1726   23.0312 O   0  0  0  0  0  0  0  0  0  0  0  0
    7.0471  -13.6821   23.8482 N   0  0  0  0  0  0  0  0  0  0  0  0
    7.5338  -13.4522   25.1936 C   0  0  1  0  0  0  0  0  0  0  0  0
    6.3602  -12.9152   25.9832 C   0  0  0  0  0  0  0  0  0  0  0  0
    6.8623  -12.7182   27.6971 S   0  0  0  0  0  0  0  0  0  0  0  0
    8.0950  -14.6912   25.7397 C   0  0  0  0  0  0  0  0  0  0  0  0
    7.7767  -15.8106   25.2298 O   0  0  0  0  0  0  0  0  0  0  0  0
    8.9949  -14.7252   26.8298 N   0  0  0  0  0  0  0  0  0  0  0  0
    9.2770  -13.6546   27.7967 C   0  0  0  0  0  0  0  0  0  0  0  0
   10.6852  -13.8611   28.2592 C   0  0  0  0  0  0  0  0  0  0  0  0
   11.1583  -15.0687   27.4792 C   0  0  0  0  0  0  0  0  0  0  0  0
    9.8557  -15.8104   27.2620 C   0  0  1  0  0  0  0  0  0  0  0  0
    9.3907  -16.3927   28.5500 C   0  0  0  0  0  0  0  0  0  0  0  0
    8.6131  -17.5247   28.6475 O   0  0  0  0  0  0  0  0  0  0  0  0
    9.7286  -15.8159   29.6093 O   0  0  0  0  0  0  0  0  0  0  0  0
  1  2  1  0
  2  3  1  0
  3  4  1  6
  5  3  1  0
  6  5  2  0
  7  5  1  0
  8 11  1  0
  8  7  1  0
  9 10  1  0
  8  9  1  1
 11 12  2  0
 13 11  1  0
 13 14  1  0
 15 14  1  0
 16 17  1  0
 16 15  1  0
 17 18  1  1
 17 13  1  0
 18 19  1  0
 20 18  2  0
M  END
$$$$
