MCM.pdb
     RDKit          3D

 23 22  0  0  1  0  0  0  0  0999 V2000
    8.6524  -19.9450   25.3215 C   0  0  0  0  0  0  0  0  0  0  0  0
    6.8755  -20.1595   25.3998 S   0  0  0  0  0  0  0  0  0  0  0  0
    6.1160  -20.3501   23.7800 C   0  0  0  0  0  0  0  0  0  0  0  0
    6.6103  -19.3068   22.7922 C   0  0  0  0  0  0  0  0  0  0  0  0
    5.6838  -18.1161   22.9195 C   0  0  2  0  0  0  0  0  0  0  0  0
    4.6610  -18.2037   21.8976 N   0  0  0  0  0  0  0  0  0  0  0  0
    6.3983  -16.8332   22.7522 C   0  0  0  0  0  0  0  0  0  0  0  0
    6.9062  -16.5315   21.6448 O   0  0  0  0  0  0  0  0  0  0  0  0
    6.5329  -15.9211   23.8066 N   0  0  0  0  0  0  0  0  0  0  0  0
    7.4941  -14.8179   23.8171 C   0  0  1  0  0  0  0  0  0  0  0  0
    6.8773  -13.6329   24.5664 C   0  0  0  0  0  0  0  0  0  0  0  0
    6.1116  -14.1960   26.0872 S   0  0  0  0  0  0  0  0  0  0  0  0
    8.6398  -15.3027   24.6320 C   0  0  0  0  0  0  0  0  0  0  0  0
    8.4360  -16.0121   25.6756 O   0  0  0  0  0  0  0  0  0  0  0  0
    9.8674  -13.3337   29.2375 C   0  0  0  0  0  0  0  0  0  0  0  0
   11.0804  -14.6481   29.3333 S   0  0  0  0  0  0  0  0  0  0  0  0
   11.4698  -15.3869   27.7477 C   0  0  0  0  0  0  0  0  0  0  0  0
   10.4072  -15.1203   26.7058 C   0  0  0  0  0  0  0  0  0  0  0  0
   11.0432  -15.3229   25.3263 C   0  0  2  0  0  0  0  0  0  0  0  0
    9.9980  -15.0430   24.3470 N   0  0  0  0  0  0  0  0  0  0  0  0
   11.4913  -16.7232   25.2018 C   0  0  0  0  0  0  0  0  0  0  0  0
   10.6858  -17.6137   24.8646 O   0  0  0  0  0  0  0  0  0  0  0  0
   12.8032  -17.0417   25.4597 O   0  0  0  0  0  0  0  0  0  0  0  0
  2  1  1  0
  3  2  1  0
  4  3  1  0
  5  6  1  6
  5  4  1  0
  7  5  1  0
  8  7  2  0
  9  7  1  0
 10  9  1  0
 10 13  1  0
 10 11  1  1
 12 11  1  0
 13 20  1  0
 14 13  2  0
 16 15  1  0
 17 16  1  0
 18 17  1  0
 19 18  1  1
 19 21  1  0
 20 19  1  0
 21 22  2  0
 21 23  1  0
M  END
$$$$
