MCM.pdb
     RDKit          3D

 23 22  0  0  1  0  0  0  0  0999 V2000
    8.0248  -11.7961   20.0392 C   0  0  0  0  0  0  0  0  0  0  0  0
    7.9859  -12.9094   18.6363 S   0  0  0  0  0  0  0  0  0  0  0  0
    7.7331  -14.6276   19.1061 C   0  0  0  0  0  0  0  0  0  0  0  0
    8.1959  -14.9044   20.5266 C   0  0  0  0  0  0  0  0  0  0  0  0
    7.7506  -16.3123   20.8609 C   0  0  2  0  0  0  0  0  0  0  0  0
    6.6270  -16.6638   20.0171 N   0  0  0  0  0  0  0  0  0  0  0  0
    7.3303  -16.4440   22.2718 C   0  0  0  0  0  0  0  0  0  0  0  0
    6.2086  -16.0183   22.6403 O   0  0  0  0  0  0  0  0  0  0  0  0
    8.1553  -17.0393   23.2345 N   0  0  0  0  0  0  0  0  0  0  0  0
    7.7877  -17.1994   24.6417 C   0  0  1  0  0  0  0  0  0  0  0  0
    7.8487  -18.6869   25.0016 C   0  0  0  0  0  0  0  0  0  0  0  0
    6.4241  -19.5434   24.3283 S   0  0  0  0  0  0  0  0  0  0  0  0
    8.8644  -16.5187   25.4090 C   0  0  0  0  0  0  0  0  0  0  0  0
   10.0877  -16.6519   25.0628 O   0  0  0  0  0  0  0  0  0  0  0  0
    6.0017  -12.4605   26.5232 C   0  0  0  0  0  0  0  0  0  0  0  0
    7.5390  -11.8121   27.1749 S   0  0  0  0  0  0  0  0  0  0  0  0
    8.9627  -12.8420   26.8229 C   0  0  0  0  0  0  0  0  0  0  0  0
    9.2468  -13.8370   27.9251 C   0  0  0  0  0  0  0  0  0  0  0  0
    9.7739  -15.1198   27.2731 C   0  0  2  0  0  0  0  0  0  0  0  0
    8.6533  -15.6971   26.5376 N   0  0  0  0  0  0  0  0  0  0  0  0
   10.2197  -16.0500   28.3280 C   0  0  0  0  0  0  0  0  0  0  0  0
    9.5411  -17.0594   28.6045 O   0  0  0  0  0  0  0  0  0  0  0  0
   11.3887  -15.7983   29.0056 O   0  0  0  0  0  0  0  0  0  0  0  0
  2  1  1  0
  3  2  1  0
  4  3  1  0
  5  6  1  6
  5  4  1  0
  7  5  1  0
  8  7  2  0
  9  7  1  0
 10  9  1  0
 10 13  1  0
 10 11  1  1
 12 11  1  0
 13 20  1  0
 14 13  2  0
 16 15  1  0
 17 16  1  0
 18 17  1  0
 19 18  1  1
 19 21  1  0
 20 19  1  0
 21 22  2  0
 21 23  1  0
M  END
$$$$
