MCM.pdb
     RDKit          3D

 23 22  0  0  1  0  0  0  0  0999 V2000
    8.5187  -12.1052   19.7087 C   0  0  0  0  0  0  0  0  0  0  0  0
    8.0504  -13.1781   18.3527 S   0  0  0  0  0  0  0  0  0  0  0  0
    7.9399  -14.9095   18.8288 C   0  0  0  0  0  0  0  0  0  0  0  0
    7.2058  -15.0928   20.1465 C   0  0  0  0  0  0  0  0  0  0  0  0
    7.2006  -16.5788   20.4366 C   0  0  2  0  0  0  0  0  0  0  0  0
    6.2924  -17.2348   19.5185 N   0  0  0  0  0  0  0  0  0  0  0  0
    6.7610  -16.8760   21.8160 C   0  0  0  0  0  0  0  0  0  0  0  0
    5.6079  -16.5568   22.1953 O   0  0  0  0  0  0  0  0  0  0  0  0
    7.6017  -17.5149   22.7364 N   0  0  0  0  0  0  0  0  0  0  0  0
    7.2814  -17.6899   24.1533 C   0  0  1  0  0  0  0  0  0  0  0  0
    7.6873  -19.1038   24.5802 C   0  0  0  0  0  0  0  0  0  0  0  0
    7.5990  -19.2586   26.3647 S   0  0  0  0  0  0  0  0  0  0  0  0
    8.1698  -16.7421   24.8770 C   0  0  0  0  0  0  0  0  0  0  0  0
    9.4306  -16.7494   24.6664 O   0  0  0  0  0  0  0  0  0  0  0  0
    5.6086  -11.9441   26.4834 C   0  0  0  0  0  0  0  0  0  0  0  0
    7.1025  -11.4059   27.3121 S   0  0  0  0  0  0  0  0  0  0  0  0
    8.3945  -12.6472   27.3479 C   0  0  0  0  0  0  0  0  0  0  0  0
    7.8477  -14.0517   27.4668 C   0  0  0  0  0  0  0  0  0  0  0  0
    8.6814  -14.9573   26.5539 C   0  0  2  0  0  0  0  0  0  0  0  0
    7.7312  -15.7864   25.8192 N   0  0  0  0  0  0  0  0  0  0  0  0
    9.5570  -15.8060   27.3843 C   0  0  0  0  0  0  0  0  0  0  0  0
    9.1106  -16.8448   27.9110 O   0  0  0  0  0  0  0  0  0  0  0  0
   10.8697  -15.4457   27.5747 O   0  0  0  0  0  0  0  0  0  0  0  0
  2  1  1  0
  3  2  1  0
  4  3  1  0
  5  6  1  6
  5  4  1  0
  7  5  1  0
  8  7  2  0
  9  7  1  0
 10  9  1  0
 10 13  1  0
 10 11  1  1
 12 11  1  0
 13 20  1  0
 14 13  2  0
 16 15  1  0
 17 16  1  0
 18 17  1  0
 19 18  1  1
 19 21  1  0
 20 19  1  0
 21 22  2  0
 21 23  1  0
M  END
$$$$
