MCM.pdb
     RDKit          3D

 23 22  0  0  1  0  0  0  0  0999 V2000
    8.0759  -11.6903   20.4687 C   0  0  0  0  0  0  0  0  0  0  0  0
    7.4853  -12.6442   19.0721 S   0  0  0  0  0  0  0  0  0  0  0  0
    7.7989  -14.4079   19.2392 C   0  0  0  0  0  0  0  0  0  0  0  0
    7.9874  -14.8185   20.6899 C   0  0  0  0  0  0  0  0  0  0  0  0
    8.3114  -16.2975   20.6831 C   0  0  2  0  0  0  0  0  0  0  0  0
    7.1633  -17.0289   20.1883 N   0  0  0  0  0  0  0  0  0  0  0  0
    8.6372  -16.8032   22.0331 C   0  0  0  0  0  0  0  0  0  0  0  0
    7.7194  -17.1052   22.8342 O   0  0  0  0  0  0  0  0  0  0  0  0
    9.9613  -16.9617   22.4615 N   0  0  0  0  0  0  0  0  0  0  0  0
   10.3397  -17.4412   23.7911 C   0  0  1  0  0  0  0  0  0  0  0  0
   11.8016  -17.8968   23.7539 C   0  0  0  0  0  0  0  0  0  0  0  0
   12.8518  -16.5549   23.1945 S   0  0  0  0  0  0  0  0  0  0  0  0
   10.2761  -16.2454   24.6729 C   0  0  0  0  0  0  0  0  0  0  0  0
   10.6158  -15.0960   24.2284 O   0  0  0  0  0  0  0  0  0  0  0  0
    7.0732  -11.6624   25.4781 C   0  0  0  0  0  0  0  0  0  0  0  0
    7.5035  -11.8357   27.2081 S   0  0  0  0  0  0  0  0  0  0  0  0
    8.8257  -13.0075   27.5085 C   0  0  0  0  0  0  0  0  0  0  0  0
    8.7486  -14.2153   26.6025 C   0  0  0  0  0  0  0  0  0  0  0  0
    9.9870  -15.0784   26.8669 C   0  0  2  0  0  0  0  0  0  0  0  0
    9.8531  -16.2593   26.0199 N   0  0  0  0  0  0  0  0  0  0  0  0
   10.0054  -15.4746   28.2880 C   0  0  0  0  0  0  0  0  0  0  0  0
    9.6720  -16.6286   28.6237 O   0  0  0  0  0  0  0  0  0  0  0  0
   10.3926  -14.5638   29.2418 O   0  0  0  0  0  0  0  0  0  0  0  0
  2  1  1  0
  3  2  1  0
  4  3  1  0
  5  6  1  1
  5  4  1  0
  7  5  1  0
  8  7  2  0
  9  7  1  0
 10  9  1  0
 10 13  1  0
 10 11  1  6
 12 11  1  0
 13 20  1  0
 14 13  2  0
 16 15  1  0
 17 16  1  0
 18 17  1  0
 19 18  1  1
 19 21  1  0
 20 19  1  0
 21 22  2  0
 21 23  1  0
M  END
$$$$
