MCM.pdb
     RDKit          3D

 23 22  0  0  1  0  0  0  0  0999 V2000
    6.0401  -19.5738   25.9366 C   0  0  0  0  0  0  0  0  0  0  0  0
    7.2575  -20.6682   25.2090 S   0  0  0  0  0  0  0  0  0  0  0  0
    7.6176  -20.2792   23.4898 C   0  0  0  0  0  0  0  0  0  0  0  0
    6.3520  -20.0803   22.6729 C   0  0  0  0  0  0  0  0  0  0  0  0
    6.7919  -19.6460   21.2908 C   0  0  2  0  0  0  0  0  0  0  0  0
    7.6219  -20.6831   20.7132 N   0  0  0  0  0  0  0  0  0  0  0  0
    7.5722  -18.3912   21.3227 C   0  0  0  0  0  0  0  0  0  0  0  0
    8.8233  -18.4215   21.2269 O   0  0  0  0  0  0  0  0  0  0  0  0
    6.9541  -17.1417   21.4588 N   0  0  0  0  0  0  0  0  0  0  0  0
    7.6705  -15.8663   21.4285 C   0  0  1  0  0  0  0  0  0  0  0  0
    6.7896  -14.8217   20.7365 C   0  0  0  0  0  0  0  0  0  0  0  0
    7.6193  -13.2318   20.7151 S   0  0  0  0  0  0  0  0  0  0  0  0
    7.8014  -15.4551   22.8516 C   0  0  0  0  0  0  0  0  0  0  0  0
    6.9728  -15.8821   23.7263 O   0  0  0  0  0  0  0  0  0  0  0  0
    5.3982  -11.3957   26.5425 C   0  0  0  0  0  0  0  0  0  0  0  0
    7.0853  -11.8872   26.8889 S   0  0  0  0  0  0  0  0  0  0  0  0
    7.3881  -13.6384   26.6583 C   0  0  0  0  0  0  0  0  0  0  0  0
    7.3856  -14.0415   25.2012 C   0  0  0  0  0  0  0  0  0  0  0  0
    8.8430  -14.2222   24.7632 C   0  0  2  0  0  0  0  0  0  0  0  0
    8.8046  -14.5977   23.3534 N   0  0  0  0  0  0  0  0  0  0  0  0
    9.4560  -15.3034   25.5582 C   0  0  0  0  0  0  0  0  0  0  0  0
    9.7133  -15.1278   26.7660 O   0  0  0  0  0  0  0  0  0  0  0  0
    9.7424  -16.5073   24.9602 O   0  0  0  0  0  0  0  0  0  0  0  0
  2  1  1  0
  3  2  1  0
  4  3  1  0
  5  6  1  1
  5  4  1  0
  7  5  1  0
  8  7  2  0
  9  7  1  0
 10  9  1  0
 10 13  1  0
 10 11  1  6
 12 11  1  0
 13 20  1  0
 14 13  2  0
 16 15  1  0
 17 16  1  0
 18 17  1  0
 19 18  1  1
 19 21  1  0
 20 19  1  0
 21 22  2  0
 21 23  1  0
M  END
$$$$
