LDL.pdb
     RDKit          3D

 25 24  0  0  1  0  0  0  0  0999 V2000
    8.9414  -12.2091   18.8642 C   0  0  0  0  0  0  0  0  0  0  0  0
    7.8557  -13.2270   18.7518 C   0  0  2  0  0  0  0  0  0  0  0  0
    6.5398  -12.4931   18.5544 C   0  0  0  0  0  0  0  0  0  0  0  0
    7.7219  -14.0421   20.0163 C   0  0  0  0  0  0  0  0  0  0  0  0
    9.0188  -14.6753   20.4537 C   0  0  2  0  0  0  0  0  0  0  0  0
    9.5646  -15.5249   19.4280 N   0  0  0  0  0  0  0  0  0  0  0  0
    8.9088  -15.4237   21.7067 C   0  0  0  0  0  0  0  0  0  0  0  0
    7.9212  -15.2493   22.4837 O   0  0  0  0  0  0  0  0  0  0  0  0
    9.8687  -16.3835   22.1521 N   0  0  0  0  0  0  0  0  0  0  0  0
    9.8252  -17.0472   23.4037 C   0  0  1  0  0  0  0  0  0  0  0  0
   10.7927  -18.1875   23.4224 C   0  0  0  0  0  0  0  0  0  0  0  0
   10.1385  -19.5108   23.5240 C   0  0  0  0  0  0  0  0  0  0  0  0
    9.2563  -19.8190   24.3621 O   0  0  0  0  0  0  0  0  0  0  0  0
    9.9535  -16.1512   24.5731 C   0  0  0  0  0  0  0  0  0  0  0  0
   11.0754  -15.6537   24.8770 O   0  0  0  0  0  0  0  0  0  0  0  0
   10.5158  -20.5257   22.6213 O   0  0  0  0  0  0  0  0  0  0  0  0
    8.7091  -12.3814   25.9209 C   0  0  0  0  0  0  0  0  0  0  0  0
    7.8060  -12.9049   26.9995 C   0  0  1  0  0  0  0  0  0  0  0  0
    6.4047  -12.3900   26.6794 C   0  0  0  0  0  0  0  0  0  0  0  0
    7.7227  -14.3915   27.0708 C   0  0  0  0  0  0  0  0  0  0  0  0
    8.9872  -15.1031   26.6674 C   0  0  2  0  0  0  0  0  0  0  0  0
    8.8612  -15.7987   25.4089 N   0  0  0  0  0  0  0  0  0  0  0  0
    9.5900  -15.9069   27.7322 C   0  0  0  0  0  0  0  0  0  0  0  0
    9.3228  -17.1191   27.8312 O   0  0  0  0  0  0  0  0  0  0  0  0
   10.4596  -15.3552   28.6454 O   0  0  0  0  0  0  0  0  0  0  0  0
  2  1  1  1
  2  3  1  0
  4  5  1  0
  4  2  1  0
  5  6  1  6
  7  5  1  0
  7  8  2  0
  9  7  1  0
 10  9  1  0
 10 11  1  6
 12 11  1  0
 13 12  2  0
 14 10  1  0
 15 14  2  0
 16 12  1  0
 18 19  1  6
 18 17  1  0
 20 18  1  0
 21 20  1  1
 21 22  1  0
 22 14  1  0
 23 21  1  0
 24 23  2  0
 25 23  1  0
M  END
$$$$
