LDL.pdb
     RDKit          3D

 25 24  0  0  1  0  0  0  0  0999 V2000
    9.5544  -12.9253   18.7812 C   0  0  0  0  0  0  0  0  0  0  0  0
    8.1043  -13.2049   18.9968 C   0  0  2  0  0  0  0  0  0  0  0  0
    7.4118  -11.8890   19.3099 C   0  0  0  0  0  0  0  0  0  0  0  0
    7.8815  -14.1146   20.1817 C   0  0  0  0  0  0  0  0  0  0  0  0
    8.5929  -15.4384   20.0550 C   0  0  2  0  0  0  0  0  0  0  0  0
    7.9540  -16.2913   19.0875 N   0  0  0  0  0  0  0  0  0  0  0  0
    8.7294  -16.1508   21.3263 C   0  0  0  0  0  0  0  0  0  0  0  0
    7.7522  -16.7908   21.8214 O   0  0  0  0  0  0  0  0  0  0  0  0
    9.9318  -16.1888   22.0968 N   0  0  0  0  0  0  0  0  0  0  0  0
   10.0801  -16.8756   23.3278 C   0  0  1  0  0  0  0  0  0  0  0  0
   11.2670  -17.7840   23.2777 C   0  0  0  0  0  0  0  0  0  0  0  0
   11.4508  -18.5784   24.5125 C   0  0  0  0  0  0  0  0  0  0  0  0
   10.5579  -19.2583   25.0746 O   0  0  0  0  0  0  0  0  0  0  0  0
   10.0624  -16.0003   24.5196 C   0  0  0  0  0  0  0  0  0  0  0  0
   11.0710  -15.2953   24.8097 O   0  0  0  0  0  0  0  0  0  0  0  0
   12.7186  -18.5916   25.1288 O   0  0  0  0  0  0  0  0  0  0  0  0
    6.1698  -12.6672   25.8758 C   0  0  0  0  0  0  0  0  0  0  0  0
    7.5144  -13.3319   25.8186 C   0  0  1  0  0  0  0  0  0  0  0  0
    8.5517  -12.2291   26.0163 C   0  0  0  0  0  0  0  0  0  0  0  0
    7.7478  -14.3508   26.8813 C   0  0  0  0  0  0  0  0  0  0  0  0
    8.9672  -15.2070   26.6618 C   0  0  2  0  0  0  0  0  0  0  0  0
    8.9477  -15.8942   25.3927 N   0  0  0  0  0  0  0  0  0  0  0  0
    9.3104  -16.0659   27.7968 C   0  0  0  0  0  0  0  0  0  0  0  0
    9.3261  -17.3040   27.6645 O   0  0  0  0  0  0  0  0  0  0  0  0
    9.6223  -15.5387   29.0293 O   0  0  0  0  0  0  0  0  0  0  0  0
  2  1  1  1
  2  3  1  0
  4  5  1  0
  4  2  1  0
  5  6  1  6
  7  5  1  0
  7  8  2  0
  9  7  1  0
 10  9  1  0
 10 11  1  6
 12 11  1  0
 13 12  2  0
 14 10  1  0
 15 14  2  0
 16 12  1  0
 18 19  1  1
 18 17  1  0
 20 18  1  0
 21 20  1  1
 21 22  1  0
 22 14  1  0
 23 21  1  0
 24 23  2  0
 25 23  1  0
M  END
$$$$
