LDL.pdb
     RDKit          3D

 25 24  0  0  1  0  0  0  0  0999 V2000
    6.4567  -13.8756   20.1456 C   0  0  0  0  0  0  0  0  0  0  0  0
    7.8733  -13.5064   20.4361 C   0  0  2  0  0  0  0  0  0  0  0  0
    8.0552  -12.0352   20.1018 C   0  0  0  0  0  0  0  0  0  0  0  0
    8.8402  -14.2793   19.5707 C   0  0  0  0  0  0  0  0  0  0  0  0
    8.7232  -15.7734   19.7395 C   0  0  2  0  0  0  0  0  0  0  0  0
    7.5131  -16.2792   19.1466 N   0  0  0  0  0  0  0  0  0  0  0  0
    8.8094  -16.2111   21.1335 C   0  0  0  0  0  0  0  0  0  0  0  0
    7.7699  -16.5616   21.7706 O   0  0  0  0  0  0  0  0  0  0  0  0
   10.0279  -16.2808   21.8761 N   0  0  0  0  0  0  0  0  0  0  0  0
   10.1682  -16.9077   23.1395 C   0  0  1  0  0  0  0  0  0  0  0  0
   11.3943  -17.7637   23.1630 C   0  0  0  0  0  0  0  0  0  0  0  0
   11.2429  -18.9838   23.9863 C   0  0  0  0  0  0  0  0  0  0  0  0
   11.1036  -19.0017   25.2337 O   0  0  0  0  0  0  0  0  0  0  0  0
   10.0765  -15.9845   24.2911 C   0  0  0  0  0  0  0  0  0  0  0  0
   11.0263  -15.1918   24.5519 O   0  0  0  0  0  0  0  0  0  0  0  0
   11.2520  -20.2399   23.3467 O   0  0  0  0  0  0  0  0  0  0  0  0
    6.1464  -12.5939   26.0471 C   0  0  0  0  0  0  0  0  0  0  0  0
    7.4522  -13.3029   25.8344 C   0  0  1  0  0  0  0  0  0  0  0  0
    8.5504  -12.3096   26.2067 C   0  0  0  0  0  0  0  0  0  0  0  0
    7.6465  -14.5122   26.6840 C   0  0  0  0  0  0  0  0  0  0  0  0
    8.9361  -15.2474   26.4298 C   0  0  2  0  0  0  0  0  0  0  0  0
    8.9520  -15.9260   25.1560 N   0  0  0  0  0  0  0  0  0  0  0  0
    9.3858  -16.0763   27.5497 C   0  0  0  0  0  0  0  0  0  0  0  0
   10.2460  -15.6480   28.3416 O   0  0  0  0  0  0  0  0  0  0  0  0
    8.8786  -17.3386   27.7595 O   0  0  0  0  0  0  0  0  0  0  0  0
  2  1  1  6
  2  3  1  0
  4  5  1  0
  4  2  1  0
  5  6  1  1
  7  5  1  0
  7  8  2  0
  9  7  1  0
 10  9  1  0
 10 11  1  6
 12 11  1  0
 13 12  2  0
 14 10  1  0
 15 14  2  0
 16 12  1  0
 18 19  1  1
 18 17  1  0
 20 18  1  0
 21 20  1  1
 21 22  1  0
 22 14  1  0
 23 21  1  0
 24 23  2  0
 25 23  1  0
M  END
$$$$
