LDL.pdb
     RDKit          3D

 25 24  0  0  1  0  0  0  0  0999 V2000
    9.1619  -13.2578   18.8037 C   0  0  0  0  0  0  0  0  0  0  0  0
    7.7594  -13.3009   19.3124 C   0  0  2  0  0  0  0  0  0  0  0  0
    7.3037  -11.8726   19.5607 C   0  0  0  0  0  0  0  0  0  0  0  0
    7.6665  -14.0302   20.6318 C   0  0  0  0  0  0  0  0  0  0  0  0
    8.1266  -15.4641   20.5504 C   0  0  2  0  0  0  0  0  0  0  0  0
    7.1709  -16.2874   19.8571 N   0  0  0  0  0  0  0  0  0  0  0  0
    8.4306  -16.0538   21.8550 C   0  0  0  0  0  0  0  0  0  0  0  0
    7.5002  -16.4187   22.6365 O   0  0  0  0  0  0  0  0  0  0  0  0
    9.7545  -16.2643   22.3488 N   0  0  0  0  0  0  0  0  0  0  0  0
   10.0651  -16.8584   23.5976 C   0  0  1  0  0  0  0  0  0  0  0  0
   11.3110  -17.6783   23.4889 C   0  0  0  0  0  0  0  0  0  0  0  0
   11.4975  -18.6156   24.6186 C   0  0  0  0  0  0  0  0  0  0  0  0
   10.6937  -18.7701   25.5703 O   0  0  0  0  0  0  0  0  0  0  0  0
   10.0839  -15.9125   24.7342 C   0  0  0  0  0  0  0  0  0  0  0  0
   10.9801  -15.0240   24.8114 O   0  0  0  0  0  0  0  0  0  0  0  0
   12.6607  -19.4110   24.6559 O   0  0  0  0  0  0  0  0  0  0  0  0
    6.1852  -12.6795   26.2726 C   0  0  0  0  0  0  0  0  0  0  0  0
    7.5281  -13.3308   26.1125 C   0  0  1  0  0  0  0  0  0  0  0  0
    8.5663  -12.2172   26.2265 C   0  0  0  0  0  0  0  0  0  0  0  0
    7.8538  -14.3443   27.1559 C   0  0  0  0  0  0  0  0  0  0  0  0
    9.1577  -15.0647   26.9345 C   0  0  2  0  0  0  0  0  0  0  0  0
    9.1280  -15.9354   25.7838 N   0  0  0  0  0  0  0  0  0  0  0  0
    9.7108  -15.6894   28.1376 C   0  0  0  0  0  0  0  0  0  0  0  0
    9.8399  -16.9263   28.1995 O   0  0  0  0  0  0  0  0  0  0  0  0
   10.1000  -14.9388   29.2237 O   0  0  0  0  0  0  0  0  0  0  0  0
  2  1  1  1
  2  3  1  0
  4  5  1  0
  4  2  1  0
  5  6  1  1
  7  5  1  0
  7  8  2  0
  9  7  1  0
 10  9  1  0
 10 11  1  6
 12 11  1  0
 13 12  2  0
 14 10  1  0
 15 14  2  0
 16 12  1  0
 18 19  1  1
 18 17  1  0
 20 18  1  0
 21 20  1  1
 21 22  1  0
 22 14  1  0
 23 21  1  0
 24 23  2  0
 25 23  1  0
M  END
$$$$
