LDL.pdb
     RDKit          3D

 25 24  0  0  1  0  0  0  0  0999 V2000
    9.1235  -13.3175   18.3888 C   0  0  0  0  0  0  0  0  0  0  0  0
    7.6899  -13.4573   18.7799 C   0  0  2  0  0  0  0  0  0  0  0  0
    7.1552  -12.0746   19.1136 C   0  0  0  0  0  0  0  0  0  0  0  0
    7.5298  -14.3044   20.0200 C   0  0  0  0  0  0  0  0  0  0  0  0
    8.1066  -15.6898   19.8704 C   0  0  2  0  0  0  0  0  0  0  0  0
    7.2051  -16.5647   19.1679 N   0  0  0  0  0  0  0  0  0  0  0  0
    8.4946  -16.3003   21.1428 C   0  0  0  0  0  0  0  0  0  0  0  0
    7.6210  -16.7847   21.9249 O   0  0  0  0  0  0  0  0  0  0  0  0
    9.8433  -16.4023   21.6027 N   0  0  0  0  0  0  0  0  0  0  0  0
   10.2246  -16.8522   22.8916 C   0  0  1  0  0  0  0  0  0  0  0  0
   11.6430  -17.3262   22.8794 C   0  0  0  0  0  0  0  0  0  0  0  0
   12.0557  -17.9760   24.1430 C   0  0  0  0  0  0  0  0  0  0  0  0
   11.3142  -18.1553   25.1398 O   0  0  0  0  0  0  0  0  0  0  0  0
    9.9366  -15.8945   23.9809 C   0  0  0  0  0  0  0  0  0  0  0  0
   10.2196  -14.6696   23.8464 O   0  0  0  0  0  0  0  0  0  0  0  0
   13.3809  -18.4407   24.2662 O   0  0  0  0  0  0  0  0  0  0  0  0
    8.4622  -12.2560   26.9482 C   0  0  0  0  0  0  0  0  0  0  0  0
    7.4723  -13.3745   26.7993 C   0  0  1  0  0  0  0  0  0  0  0  0
    6.1677  -12.7384   26.3254 C   0  0  0  0  0  0  0  0  0  0  0  0
    7.8499  -14.4064   25.7920 C   0  0  0  0  0  0  0  0  0  0  0  0
    8.9388  -15.3438   26.2435 C   0  0  2  0  0  0  0  0  0  0  0  0
    9.3414  -16.2715   25.2136 N   0  0  0  0  0  0  0  0  0  0  0  0
    8.6914  -15.9704   27.5433 C   0  0  0  0  0  0  0  0  0  0  0  0
    8.5868  -15.2702   28.5677 O   0  0  0  0  0  0  0  0  0  0  0  0
    8.5683  -17.3352   27.6721 O   0  0  0  0  0  0  0  0  0  0  0  0
  2  1  1  1
  2  3  1  0
  4  5  1  0
  4  2  1  0
  5  6  1  1
  7  5  1  0
  7  8  2  0
  9  7  1  0
 10  9  1  0
 10 11  1  6
 12 11  1  0
 13 12  2  0
 14 10  1  0
 15 14  2  0
 16 12  1  0
 18 19  1  6
 18 17  1  0
 20 18  1  0
 21 20  1  6
 21 22  1  0
 22 14  1  0
 23 21  1  0
 24 23  2  0
 25 23  1  0
M  END
$$$$
