LDL.pdb
     RDKit          3D

 25 24  0  0  1  0  0  0  0  0999 V2000
    9.0052  -12.0869   18.9038 C   0  0  0  0  0  0  0  0  0  0  0  0
    8.0420  -13.1461   18.4820 C   0  0  2  0  0  0  0  0  0  0  0  0
    6.6711  -12.5064   18.3377 C   0  0  0  0  0  0  0  0  0  0  0  0
    7.9156  -14.2323   19.5237 C   0  0  0  0  0  0  0  0  0  0  0  0
    9.2391  -14.6355   20.1237 C   0  0  2  0  0  0  0  0  0  0  0  0
   10.0771  -15.2977   19.1587 N   0  0  0  0  0  0  0  0  0  0  0  0
    9.1074  -15.4712   21.3181 C   0  0  0  0  0  0  0  0  0  0  0  0
    8.0931  -15.3709   22.0734 O   0  0  0  0  0  0  0  0  0  0  0  0
   10.0741  -16.4405   21.7267 N   0  0  0  0  0  0  0  0  0  0  0  0
   10.0183  -17.1751   22.9376 C   0  0  1  0  0  0  0  0  0  0  0  0
   11.0986  -18.2087   22.9700 C   0  0  0  0  0  0  0  0  0  0  0  0
   10.9596  -19.2366   21.9147 C   0  0  0  0  0  0  0  0  0  0  0  0
    9.9704  -19.9957   21.7705 O   0  0  0  0  0  0  0  0  0  0  0  0
    9.9716  -16.3384   24.1560 C   0  0  0  0  0  0  0  0  0  0  0  0
   10.9919  -15.6892   24.5249 O   0  0  0  0  0  0  0  0  0  0  0  0
   12.0051  -19.3989   20.9832 O   0  0  0  0  0  0  0  0  0  0  0  0
    8.6638  -12.5100   27.4506 C   0  0  0  0  0  0  0  0  0  0  0  0
    7.5405  -13.4934   27.2947 C   0  0  1  0  0  0  0  0  0  0  0  0
    6.2618  -12.6716   27.1513 C   0  0  0  0  0  0  0  0  0  0  0  0
    7.6416  -14.3637   26.0886 C   0  0  0  0  0  0  0  0  0  0  0  0
    8.7392  -15.3926   26.1572 C   0  0  2  0  0  0  0  0  0  0  0  0
    8.8153  -16.2100   24.9700 N   0  0  0  0  0  0  0  0  0  0  0  0
    8.7701  -16.1557   27.4063 C   0  0  0  0  0  0  0  0  0  0  0  0
    9.1463  -15.6147   28.4629 O   0  0  0  0  0  0  0  0  0  0  0  0
    8.3894  -17.4776   27.4513 O   0  0  0  0  0  0  0  0  0  0  0  0
  2  1  1  1
  2  3  1  0
  4  5  1  0
  4  2  1  0
  5  6  1  6
  7  5  1  0
  7  8  2  0
  9  7  1  0
 10  9  1  0
 10 11  1  1
 12 11  1  0
 13 12  2  0
 14 10  1  0
 15 14  2  0
 16 12  1  0
 18 19  1  6
 18 17  1  0
 20 18  1  0
 21 20  1  6
 21 22  1  0
 22 14  1  0
 23 21  1  0
 24 23  2  0
 25 23  1  0
M  END
$$$$
