LDL.pdb
     RDKit          3D

 25 24  0  0  1  0  0  0  0  0999 V2000
    9.3876  -13.5084   18.6230 C   0  0  0  0  0  0  0  0  0  0  0  0
    7.9345  -13.4754   18.9619 C   0  0  2  0  0  0  0  0  0  0  0  0
    7.5258  -12.0232   19.1451 C   0  0  0  0  0  0  0  0  0  0  0  0
    7.6494  -14.1827   20.2656 C   0  0  0  0  0  0  0  0  0  0  0  0
    8.0571  -15.6346   20.2541 C   0  0  2  0  0  0  0  0  0  0  0  0
    7.1496  -16.4323   19.4718 N   0  0  0  0  0  0  0  0  0  0  0  0
    8.1937  -16.2124   21.5919 C   0  0  0  0  0  0  0  0  0  0  0  0
    7.1934  -16.7156   22.1882 O   0  0  0  0  0  0  0  0  0  0  0  0
    9.4214  -16.2603   22.3209 N   0  0  0  0  0  0  0  0  0  0  0  0
    9.5762  -16.8442   23.6031 C   0  0  1  0  0  0  0  0  0  0  0  0
   10.6147  -17.9197   23.5637 C   0  0  0  0  0  0  0  0  0  0  0  0
   10.7685  -18.6347   24.8500 C   0  0  0  0  0  0  0  0  0  0  0  0
    9.8253  -19.0940   25.5394 O   0  0  0  0  0  0  0  0  0  0  0  0
    9.7841  -15.8692   24.6953 C   0  0  0  0  0  0  0  0  0  0  0  0
   10.8213  -15.1466   24.7181 O   0  0  0  0  0  0  0  0  0  0  0  0
   12.0652  -18.8305   25.3671 O   0  0  0  0  0  0  0  0  0  0  0  0
    5.8886  -12.6725   26.6673 C   0  0  0  0  0  0  0  0  0  0  0  0
    7.2102  -13.2699   26.2808 C   0  0  1  0  0  0  0  0  0  0  0  0
    8.1486  -12.0994   25.9969 C   0  0  0  0  0  0  0  0  0  0  0  0
    7.8497  -14.0990   27.3418 C   0  0  0  0  0  0  0  0  0  0  0  0
    9.0928  -14.8237   26.8969 C   0  0  2  0  0  0  0  0  0  0  0  0
    8.8633  -15.6828   25.7600 N   0  0  0  0  0  0  0  0  0  0  0  0
    9.8367  -15.4632   27.9837 C   0  0  0  0  0  0  0  0  0  0  0  0
   10.0125  -16.6959   27.9832 O   0  0  0  0  0  0  0  0  0  0  0  0
   10.3581  -14.7315   29.0264 O   0  0  0  0  0  0  0  0  0  0  0  0
  2  1  1  1
  2  3  1  0
  4  5  1  0
  4  2  1  0
  5  6  1  6
  7  5  1  0
  7  8  2  0
  9  7  1  0
 10  9  1  0
 10 11  1  6
 12 11  1  0
 13 12  2  0
 14 10  1  0
 15 14  2  0
 16 12  1  0
 18 19  1  1
 18 17  1  0
 20 18  1  0
 21 20  1  1
 21 22  1  0
 22 14  1  0
 23 21  1  0
 24 23  2  0
 25 23  1  0
M  END
$$$$
