LDL.pdb
     RDKit          3D

 25 24  0  0  1  0  0  0  0  0999 V2000
    6.9789  -12.4429   21.3683 C   0  0  0  0  0  0  0  0  0  0  0  0
    7.9190  -13.5691   21.0937 C   0  0  2  0  0  0  0  0  0  0  0  0
    8.7753  -13.1876   19.8977 C   0  0  0  0  0  0  0  0  0  0  0  0
    7.1815  -14.8342   20.7239 C   0  0  0  0  0  0  0  0  0  0  0  0
    8.0833  -16.0389   20.6248 C   0  0  2  0  0  0  0  0  0  0  0  0
    7.3848  -17.1796   20.0932 N   0  0  0  0  0  0  0  0  0  0  0  0
    8.7189  -16.3973   21.8936 C   0  0  0  0  0  0  0  0  0  0  0  0
    8.0367  -16.8747   22.8507 O   0  0  0  0  0  0  0  0  0  0  0  0
   10.1145  -16.2474   22.1595 N   0  0  0  0  0  0  0  0  0  0  0  0
   10.7563  -16.6543   23.3559 C   0  0  1  0  0  0  0  0  0  0  0  0
   12.2291  -16.7922   23.1361 C   0  0  0  0  0  0  0  0  0  0  0  0
   12.5789  -17.8209   22.1317 C   0  0  0  0  0  0  0  0  0  0  0  0
   13.2911  -17.6275   21.1162 O   0  0  0  0  0  0  0  0  0  0  0  0
   10.4150  -15.8354   24.5390 C   0  0  0  0  0  0  0  0  0  0  0  0
   10.7938  -14.6315   24.6138 O   0  0  0  0  0  0  0  0  0  0  0  0
   12.0879  -19.1312   22.3024 O   0  0  0  0  0  0  0  0  0  0  0  0
    6.5185  -13.0718   26.0368 C   0  0  0  0  0  0  0  0  0  0  0  0
    7.8882  -13.6855   26.0512 C   0  0  1  0  0  0  0  0  0  0  0  0
    8.8059  -12.6812   26.7444 C   0  0  0  0  0  0  0  0  0  0  0  0
    7.9858  -14.9658   26.8084 C   0  0  0  0  0  0  0  0  0  0  0  0
    9.3652  -15.5699   26.8294 C   0  0  2  0  0  0  0  0  0  0  0  0
    9.6626  -16.3281   25.6377 N   0  0  0  0  0  0  0  0  0  0  0  0
    9.6976  -16.2654   28.0740 C   0  0  0  0  0  0  0  0  0  0  0  0
    9.5767  -17.5022   28.1532 O   0  0  0  0  0  0  0  0  0  0  0  0
   10.1482  -15.5830   29.1812 O   0  0  0  0  0  0  0  0  0  0  0  0
  2  1  1  6
  2  3  1  0
  4  5  1  0
  4  2  1  0
  5  6  1  1
  7  5  1  0
  7  8  2  0
  9  7  1  0
 10  9  1  0
 10 11  1  6
 12 11  1  0
 13 12  2  0
 14 10  1  0
 15 14  2  0
 16 12  1  0
 18 19  1  1
 18 17  1  0
 20 18  1  0
 21 20  1  1
 21 22  1  0
 22 14  1  0
 23 21  1  0
 24 23  2  0
 25 23  1  0
M  END
$$$$
