YRL.pdb
     RDKit          3D

 32 32  0  0  1  0  0  0  0  0999 V2000
   20.0932  -12.1584  -17.6808 O   0  0  0  0  0  0  0  0  0  0  0  0
   20.4752  -13.3612  -17.0936 C   0  0  0  0  0  0  0  0  0  0  0  0
   19.5684  -14.2680  -16.5961 C   0  0  0  0  0  0  0  0  0  0  0  0
   19.9427  -15.4557  -16.0161 C   0  0  0  0  0  0  0  0  0  0  0  0
   21.2819  -15.7877  -15.9106 C   0  0  0  0  0  0  0  0  0  0  0  0
   21.7776  -17.0459  -15.3004 C   0  0  0  0  0  0  0  0  0  0  0  0
   22.1357  -18.0063  -16.3804 C   0  0  2  0  0  0  0  0  0  0  0  0
   20.9424  -18.3821  -17.1058 N   0  0  0  0  0  0  0  0  0  0  0  0
   22.9005  -19.1678  -15.9133 C   0  0  0  0  0  0  0  0  0  0  0  0
   22.4324  -20.0609  -15.1602 O   0  0  0  0  0  0  0  0  0  0  0  0
   22.1972  -14.8562  -16.4210 C   0  0  0  0  0  0  0  0  0  0  0  0
   21.8046  -13.6767  -16.9959 C   0  0  0  0  0  0  0  0  0  0  0  0
   29.9118  -22.8686  -17.4985 N   0  0  0  0  0  0  0  0  0  0  0  0
   29.2258  -23.9180  -16.7856 C   0  0  0  0  0  0  0  0  0  0  0  0
   29.8717  -24.8887  -16.2330 N   0  0  0  0  0  0  0  0  0  0  0  0
   27.8110  -23.9183  -16.6688 N   0  0  0  0  0  0  0  0  0  0  0  0
   27.0061  -22.7945  -17.0039 C   0  0  0  0  0  0  0  0  0  0  0  0
   27.2683  -21.5521  -16.1954 C   0  0  0  0  0  0  0  0  0  0  0  0
   26.3472  -20.4341  -16.6312 C   0  0  0  0  0  0  0  0  0  0  0  0
   25.0837  -20.3983  -15.8363 C   0  0  2  0  0  0  0  0  0  0  0  0
   24.2528  -19.3106  -16.3260 N   0  0  0  0  0  0  0  0  0  0  0  0
   25.2942  -20.2186  -14.3937 C   0  0  0  0  0  0  0  0  0  0  0  0
   25.3473  -19.0243  -13.9343 O   0  0  0  0  0  0  0  0  0  0  0  0
   29.3085  -25.6218  -15.7515 C   0  0  0  0  0  0  0  0  0  0  0  0
   24.4305  -21.3412   -9.2236 C   0  0  1  0  0  0  0  0  0  0  0  0
   24.2836  -20.2152  -10.1815 C   0  0  0  0  0  0  0  0  0  0  0  0
   22.8587  -19.6353  -10.0088 C   0  0  0  0  0  0  0  0  0  0  0  0
   24.4590  -20.4731  -11.6148 C   0  0  1  0  0  0  0  0  0  0  0  0
   25.7177  -21.1015  -12.1273 N   0  0  0  0  0  0  0  0  0  0  0  0
   25.4315  -21.3400  -13.5572 C   0  0  0  0  0  0  0  0  0  0  0  0
   26.1015  -22.3956  -11.5507 O   0  0  0  0  0  0  0  0  0  0  0  0
   25.6198  -23.4836  -11.9113 O   0  0  0  0  0  0  0  0  0  0  0  0
  2  1  1  0
  3  2  2  0
  4  3  1  0
  5  4  2  0
  5 11  1  0
  6  5  1  0
  7  9  1  0
  7  8  1  1
  7  6  1  0
  9 10  2  0
 11 12  2  0
 12  2  1  0
 14 13  1  0
 15 14  2  0
 16 14  1  0
 17 16  1  0
 18 17  1  0
 19 18  1  0
 20 19  1  6
 20 22  1  0
 21  9  1  0
 21 20  1  0
 22 29  1  0
 22 23  2  0
 25 24  1  1
 26 25  1  0
 27 25  1  0
 28 27  1  6
 28 30  1  0
 29 28  1  0
 30 31  2  0
 30 32  1  0
M  END
$$$$
