YRL.pdb
     RDKit          3D

 32 32  0  0  1  0  0  0  0  0999 V2000
   21.9973  -22.3115   -7.5697 O   0  0  0  0  0  0  0  0  0  0  0  0
   22.1194  -22.0036   -8.9217 C   0  0  0  0  0  0  0  0  0  0  0  0
   21.1152  -22.2372   -9.8322 C   0  0  0  0  0  0  0  0  0  0  0  0
   21.2331  -21.9343  -11.1670 C   0  0  0  0  0  0  0  0  0  0  0  0
   22.3988  -21.3683  -11.6524 C   0  0  0  0  0  0  0  0  0  0  0  0
   22.6147  -21.0090  -13.0756 C   0  0  0  0  0  0  0  0  0  0  0  0
   22.5431  -19.5291  -13.2235 C   0  0  2  0  0  0  0  0  0  0  0  0
   21.1640  -19.1026  -13.1368 N   0  0  0  0  0  0  0  0  0  0  0  0
   23.2166  -19.0185  -14.4226 C   0  0  0  0  0  0  0  0  0  0  0  0
   22.6263  -18.7579  -15.5031 O   0  0  0  0  0  0  0  0  0  0  0  0
   23.4155  -21.1346  -10.7156 C   0  0  0  0  0  0  0  0  0  0  0  0
   23.2793  -21.4436   -9.3883 C   0  0  0  0  0  0  0  0  0  0  0  0
   27.0513  -16.9721  -19.4248 N   0  0  0  0  0  0  0  0  0  0  0  0
   28.4246  -17.3948  -19.3015 C   0  0  0  0  0  0  0  0  0  0  0  0
   29.3222  -17.0198  -20.1492 N   0  0  0  0  0  0  0  0  0  0  0  0
   28.8361  -18.2422  -18.2393 N   0  0  0  0  0  0  0  0  0  0  0  0
   27.9903  -18.5810  -17.1471 C   0  0  0  0  0  0  0  0  0  0  0  0
   27.5525  -17.4237  -16.2899 C   0  0  0  0  0  0  0  0  0  0  0  0
   26.7180  -17.9135  -15.1272 C   0  0  0  0  0  0  0  0  0  0  0  0
   25.3497  -18.3364  -15.5500 C   0  0  2  0  0  0  0  0  0  0  0  0
   24.6199  -18.7979  -14.3805 N   0  0  0  0  0  0  0  0  0  0  0  0
   25.3431  -19.4019  -16.5611 C   0  0  0  0  0  0  0  0  0  0  0  0
   25.7190  -20.5740  -16.2073 O   0  0  0  0  0  0  0  0  0  0  0  0
   30.2991  -17.3422  -19.9817 C   0  0  0  0  0  0  0  0  0  0  0  0
   21.6299  -21.1074  -20.7828 C   0  0  1  0  0  0  0  0  0  0  0  0
   22.9315  -21.2817  -20.0884 C   0  0  0  0  0  0  0  0  0  0  0  0
   22.7061  -22.2567  -18.9073 C   0  0  0  0  0  0  0  0  0  0  0  0
   23.6057  -20.1027  -19.5341 C   0  0  2  0  0  0  0  0  0  0  0  0
   24.9301  -20.2348  -18.8482 N   0  0  0  0  0  0  0  0  0  0  0  0
   24.9320  -19.1222  -17.8759 C   0  0  0  0  0  0  0  0  0  0  0  0
   26.1309  -20.0749  -19.6770 O   0  0  0  0  0  0  0  0  0  0  0  0
   26.5880  -18.9730  -20.0272 O   0  0  0  0  0  0  0  0  0  0  0  0
  2  1  1  0
  3  2  2  0
  4  3  1  0
  5  4  2  0
  5 11  1  0
  6  5  1  0
  7  9  1  0
  7  8  1  6
  7  6  1  0
  9 10  2  0
 11 12  2  0
 12  2  1  0
 14 13  1  0
 15 14  2  0
 16 14  1  0
 17 16  1  0
 18 17  1  0
 19 18  1  0
 20 19  1  1
 20 22  1  0
 21  9  1  0
 21 20  1  0
 22 29  1  0
 22 23  2  0
 25 24  1  6
 26 25  1  0
 27 25  1  0
 28 27  1  1
 28 30  1  0
 29 28  1  0
 30 31  2  0
 30 32  1  0
M  END
$$$$
