YRL.pdb
     RDKit          3D

 32 32  0  0  1  0  0  0  0  0999 V2000
   16.5899  -16.3458  -13.5727 O   0  0  0  0  0  0  0  0  0  0  0  0
   17.6434  -17.1636  -13.1740 C   0  0  0  0  0  0  0  0  0  0  0  0
   17.4988  -18.1606  -12.2375 C   0  0  0  0  0  0  0  0  0  0  0  0
   18.5368  -18.9691  -11.8423 C   0  0  0  0  0  0  0  0  0  0  0  0
   19.7969  -18.8019  -12.3889 C   0  0  0  0  0  0  0  0  0  0  0  0
   20.9745  -19.6267  -12.0227 C   0  0  0  0  0  0  0  0  0  0  0  0
   21.3024  -20.5409  -13.1513 C   0  0  2  0  0  0  0  0  0  0  0  0
   20.2342  -21.5013  -13.3189 N   0  0  0  0  0  0  0  0  0  0  0  0
   22.6194  -21.1770  -13.0375 C   0  0  0  0  0  0  0  0  0  0  0  0
   22.9020  -22.0606  -12.1871 O   0  0  0  0  0  0  0  0  0  0  0  0
   19.9327  -17.7828  -13.3424 C   0  0  0  0  0  0  0  0  0  0  0  0
   18.8855  -16.9867  -13.7237 C   0  0  0  0  0  0  0  0  0  0  0  0
   29.6014  -24.5775  -15.7748 N   0  0  0  0  0  0  0  0  0  0  0  0
   28.8723  -24.1720  -16.9512 C   0  0  0  0  0  0  0  0  0  0  0  0
   29.4351  -24.1353  -18.1117 N   0  0  0  0  0  0  0  0  0  0  0  0
   27.5054  -23.7969  -16.8707 N   0  0  0  0  0  0  0  0  0  0  0  0
   26.8674  -23.4536  -15.6467 C   0  0  0  0  0  0  0  0  0  0  0  0
   26.9504  -22.0001  -15.2641 C   0  0  0  0  0  0  0  0  0  0  0  0
   25.5704  -21.3812  -15.2378 C   0  0  0  0  0  0  0  0  0  0  0  0
   24.9767  -21.3777  -13.8676 C   0  0  2  0  0  0  0  0  0  0  0  0
   23.6508  -20.7852  -13.9332 N   0  0  0  0  0  0  0  0  0  0  0  0
   25.7736  -20.6424  -12.8768 C   0  0  0  0  0  0  0  0  0  0  0  0
   25.8337  -19.3668  -12.9748 O   0  0  0  0  0  0  0  0  0  0  0  0
   28.8256  -23.9207  -18.9295 C   0  0  0  0  0  0  0  0  0  0  0  0
   28.4264  -21.5405   -7.4139 C   0  0  1  0  0  0  0  0  0  0  0  0
   28.3151  -20.7556   -8.6703 C   0  0  0  0  0  0  0  0  0  0  0  0
   27.7511  -19.3613   -8.3039 C   0  0  0  0  0  0  0  0  0  0  0  0
   27.4791  -21.2715   -9.7597 C   0  0  2  0  0  0  0  0  0  0  0  0
   27.4946  -20.6178  -11.1067 N   0  0  0  0  0  0  0  0  0  0  0  0
   26.4448  -21.3384  -11.8563 C   0  0  0  0  0  0  0  0  0  0  0  0
   28.7298  -20.7330  -11.8913 O   0  0  0  0  0  0  0  0  0  0  0  0
   28.9417  -21.6361  -12.7192 O   0  0  0  0  0  0  0  0  0  0  0  0
  2  1  1  0
  3  2  2  0
  4  3  1  0
  5  4  2  0
  5 11  1  0
  6  5  1  0
  7  9  1  0
  7  8  1  1
  7  6  1  0
  9 10  2  0
 11 12  2  0
 12  2  1  0
 14 13  1  0
 15 14  2  0
 16 14  1  0
 17 16  1  0
 18 17  1  0
 19 18  1  0
 20 19  1  6
 20 22  1  0
 21  9  1  0
 21 20  1  0
 22 29  1  0
 22 23  2  0
 25 24  1  1
 26 25  1  0
 27 25  1  0
 28 27  1  1
 28 30  1  0
 29 28  1  0
 30 31  2  0
 30 32  1  0
M  END
$$$$
