YRL.pdb
     RDKit          3D

 32 32  0  0  1  0  0  0  0  0999 V2000
   16.6035  -22.6163  -11.9380 O   0  0  0  0  0  0  0  0  0  0  0  0
   17.9141  -22.1840  -12.1195 C   0  0  0  0  0  0  0  0  0  0  0  0
   18.2909  -20.8689  -11.9760 C   0  0  0  0  0  0  0  0  0  0  0  0
   19.5836  -20.4395  -12.1546 C   0  0  0  0  0  0  0  0  0  0  0  0
   20.5765  -21.3415  -12.4941 C   0  0  0  0  0  0  0  0  0  0  0  0
   21.9966  -20.9687  -12.7067 C   0  0  0  0  0  0  0  0  0  0  0  0
   22.1138  -20.1844  -13.9671 C   0  0  2  0  0  0  0  0  0  0  0  0
   21.5572  -20.9472  -15.0624 N   0  0  0  0  0  0  0  0  0  0  0  0
   23.4727  -19.7071  -14.2459 C   0  0  0  0  0  0  0  0  0  0  0  0
   24.2056  -19.1374  -13.3961 O   0  0  0  0  0  0  0  0  0  0  0  0
   20.1811  -22.6791  -12.6376 C   0  0  0  0  0  0  0  0  0  0  0  0
   18.8867  -23.0882  -12.4555 C   0  0  0  0  0  0  0  0  0  0  0  0
   25.6486  -23.2947  -13.1787 N   0  0  0  0  0  0  0  0  0  0  0  0
   26.2429  -22.2400  -12.3948 C   0  0  0  0  0  0  0  0  0  0  0  0
   26.0072  -22.1270  -11.1313 N   0  0  0  0  0  0  0  0  0  0  0  0
   27.1097  -21.2862  -12.9903 N   0  0  0  0  0  0  0  0  0  0  0  0
   27.4416  -21.2989  -14.3733 C   0  0  0  0  0  0  0  0  0  0  0  0
   26.3572  -21.7980  -15.2901 C   0  0  0  0  0  0  0  0  0  0  0  0
   26.0750  -20.7834  -16.3761 C   0  0  0  0  0  0  0  0  0  0  0  0
   25.3953  -19.5629  -15.8487 C   0  0  2  0  0  0  0  0  0  0  0  0
   24.0112  -19.8906  -15.5481 N   0  0  0  0  0  0  0  0  0  0  0  0
   25.4198  -18.4225  -16.7742 C   0  0  0  0  0  0  0  0  0  0  0  0
   24.4846  -18.3292  -17.6442 O   0  0  0  0  0  0  0  0  0  0  0  0
   26.5229  -21.3822  -10.6158 C   0  0  0  0  0  0  0  0  0  0  0  0
   24.7892  -13.9690  -16.1043 C   0  0  2  0  0  0  0  0  0  0  0  0
   26.0938  -14.5742  -15.7322 C   0  0  0  0  0  0  0  0  0  0  0  0
   26.9546  -13.4670  -15.0766 C   0  0  0  0  0  0  0  0  0  0  0  0
   26.9213  -15.1811  -16.7804 C   0  0  2  0  0  0  0  0  0  0  0  0
   26.3942  -16.3126  -17.6073 N   0  0  0  0  0  0  0  0  0  0  0  0
   26.4506  -17.4703  -16.6910 C   0  0  0  0  0  0  0  0  0  0  0  0
   27.1619  -16.6809  -18.8029 O   0  0  0  0  0  0  0  0  0  0  0  0
   28.0105  -17.5892  -18.8272 O   0  0  0  0  0  0  0  0  0  0  0  0
  2  1  1  0
  3  2  2  0
  4  3  1  0
  5  4  2  0
  5 11  1  0
  6  5  1  0
  7  9  1  0
  7  8  1  6
  7  6  1  0
  9 10  2  0
 11 12  2  0
 12  2  1  0
 14 13  1  0
 15 14  2  0
 16 14  1  0
 17 16  1  0
 18 17  1  0
 19 18  1  0
 20 19  1  6
 20 22  1  0
 21  9  1  0
 21 20  1  0
 22 29  1  0
 22 23  2  0
 25 24  1  1
 26 25  1  0
 27 25  1  0
 28 27  1  1
 28 30  1  0
 29 28  1  0
 30 31  2  0
 30 32  1  0
M  END
$$$$
