YRL.pdb
     RDKit          3D

 32 32  0  0  1  0  0  0  0  0999 V2000
   28.8598  -20.2506   -3.8876 O   0  0  0  0  0  0  0  0  0  0  0  0
   28.3791  -20.0959   -5.1847 C   0  0  0  0  0  0  0  0  0  0  0  0
   27.1104  -20.4738   -5.5586 C   0  0  0  0  0  0  0  0  0  0  0  0
   26.6335  -20.3223   -6.8380 C   0  0  0  0  0  0  0  0  0  0  0  0
   27.4366  -19.7689   -7.8197 C   0  0  0  0  0  0  0  0  0  0  0  0
   27.0066  -19.5676   -9.2252 C   0  0  0  0  0  0  0  0  0  0  0  0
   27.0460  -20.8726   -9.9413 C   0  0  2  0  0  0  0  0  0  0  0  0
   28.4112  -21.3450  -10.0065 N   0  0  0  0  0  0  0  0  0  0  0  0
   26.3943  -20.8492  -11.2555 C   0  0  0  0  0  0  0  0  0  0  0  0
   26.9229  -20.3733  -12.2937 O   0  0  0  0  0  0  0  0  0  0  0  0
   28.7275  -19.3874   -7.4273 C   0  0  0  0  0  0  0  0  0  0  0  0
   29.1853  -19.5466   -6.1463 C   0  0  0  0  0  0  0  0  0  0  0  0
   28.2951  -21.9573  -14.9707 N   0  0  0  0  0  0  0  0  0  0  0  0
   27.8255  -23.0248  -15.8191 C   0  0  0  0  0  0  0  0  0  0  0  0
   28.6466  -23.7692  -16.4798 N   0  0  0  0  0  0  0  0  0  0  0  0
   26.4381  -23.2923  -15.9571 N   0  0  0  0  0  0  0  0  0  0  0  0
   25.4537  -22.7436  -15.0894 C   0  0  0  0  0  0  0  0  0  0  0  0
   25.2271  -23.5054  -13.8111 C   0  0  0  0  0  0  0  0  0  0  0  0
   24.1178  -22.8666  -13.0051 C   0  0  0  0  0  0  0  0  0  0  0  0
   24.4099  -21.4414  -12.6688 C   0  0  2  0  0  0  0  0  0  0  0  0
   25.0876  -21.3927  -11.3836 N   0  0  0  0  0  0  0  0  0  0  0  0
   23.2152  -20.5892  -12.6048 C   0  0  0  0  0  0  0  0  0  0  0  0
   22.5978  -20.4959  -11.4865 O   0  0  0  0  0  0  0  0  0  0  0  0
   28.2352  -24.5182  -17.0765 C   0  0  0  0  0  0  0  0  0  0  0  0
   19.3604  -17.3309  -15.1017 C   0  0  1  0  0  0  0  0  0  0  0  0
   20.7765  -16.9458  -14.8711 C   0  0  0  0  0  0  0  0  0  0  0  0
   21.2435  -16.1210  -16.0951 C   0  0  0  0  0  0  0  0  0  0  0  0
   21.7770  -17.9999  -14.6712 C   0  0  1  0  0  0  0  0  0  0  0  0
   21.5740  -19.0547  -13.6281 N   0  0  0  0  0  0  0  0  0  0  0  0
   22.7775  -19.9031  -13.7510 C   0  0  0  0  0  0  0  0  0  0  0  0
   20.4139  -19.9395  -13.7892 O   0  0  0  0  0  0  0  0  0  0  0  0
   20.3628  -20.8700  -14.6122 O   0  0  0  0  0  0  0  0  0  0  0  0
  2  1  1  0
  3  2  2  0
  4  3  1  0
  5  4  2  0
  5 11  1  0
  6  5  1  0
  7  9  1  0
  7  8  1  6
  7  6  1  0
  9 10  2  0
 11 12  2  0
 12  2  1  0
 14 13  1  0
 15 14  2  0
 16 14  1  0
 17 16  1  0
 18 17  1  0
 19 18  1  0
 20 19  1  1
 20 22  1  0
 21  9  1  0
 21 20  1  0
 22 29  1  0
 22 23  2  0
 25 24  1  1
 26 25  1  0
 27 25  1  0
 28 27  1  1
 28 30  1  0
 29 28  1  0
 30 31  2  0
 30 32  1  0
M  END
$$$$
