YRL.pdb
     RDKit          3D

 32 32  0  0  1  0  0  0  0  0999 V2000
   18.3451  -15.6588  -16.4796 O   0  0  0  0  0  0  0  0  0  0  0  0
   19.2111  -16.4588  -15.7395 C   0  0  0  0  0  0  0  0  0  0  0  0
   20.5791  -16.3887  -15.8639 C   0  0  0  0  0  0  0  0  0  0  0  0
   21.4359  -17.1772  -15.1348 C   0  0  0  0  0  0  0  0  0  0  0  0
   20.9363  -18.0932  -14.2259 C   0  0  0  0  0  0  0  0  0  0  0  0
   21.7846  -18.9845  -13.3971 C   0  0  0  0  0  0  0  0  0  0  0  0
   22.4983  -19.9449  -14.2834 C   0  0  2  0  0  0  0  0  0  0  0  0
   21.5599  -20.9222  -14.7889 N   0  0  0  0  0  0  0  0  0  0  0  0
   23.6764  -20.5622  -13.6643 C   0  0  0  0  0  0  0  0  0  0  0  0
   23.6273  -21.3184  -12.6596 O   0  0  0  0  0  0  0  0  0  0  0  0
   19.5405  -18.1560  -14.1074 C   0  0  0  0  0  0  0  0  0  0  0  0
   18.7023  -17.3614  -14.8433 C   0  0  0  0  0  0  0  0  0  0  0  0
   30.8793  -20.2473  -12.2386 N   0  0  0  0  0  0  0  0  0  0  0  0
   31.1512  -21.6386  -12.5040 C   0  0  0  0  0  0  0  0  0  0  0  0
   32.0890  -22.2707  -11.8829 N   0  0  0  0  0  0  0  0  0  0  0  0
   30.3935  -22.3616  -13.4625 N   0  0  0  0  0  0  0  0  0  0  0  0
   29.4846  -21.7378  -14.3613 C   0  0  0  0  0  0  0  0  0  0  0  0
   28.6543  -20.6301  -13.7702 C   0  0  0  0  0  0  0  0  0  0  0  0
   27.3295  -20.5202  -14.4920 C   0  0  0  0  0  0  0  0  0  0  0  0
   26.1703  -20.8110  -13.5967 C   0  0  2  0  0  0  0  0  0  0  0  0
   24.9588  -20.3028  -14.2189 N   0  0  0  0  0  0  0  0  0  0  0  0
   26.2936  -20.2246  -12.2556 C   0  0  0  0  0  0  0  0  0  0  0  0
   26.2360  -18.9500  -12.1450 O   0  0  0  0  0  0  0  0  0  0  0  0
   32.2826  -23.2498  -12.1832 C   0  0  0  0  0  0  0  0  0  0  0  0
   26.8312  -18.9575   -7.3033 C   0  0  1  0  0  0  0  0  0  0  0  0
   25.7116  -19.8609   -7.6736 C   0  0  0  0  0  0  0  0  0  0  0  0
   25.7008  -21.0332   -6.6627 C   0  0  0  0  0  0  0  0  0  0  0  0
   25.6955  -20.4624   -9.0114 C   0  0  1  0  0  0  0  0  0  0  0  0
   26.9176  -20.4302   -9.8757 N   0  0  0  0  0  0  0  0  0  0  0  0
   26.4699  -21.0570  -11.1366 C   0  0  0  0  0  0  0  0  0  0  0  0
   28.0832  -21.1937   -9.4139 O   0  0  0  0  0  0  0  0  0  0  0  0
   28.2930  -22.3826   -9.7107 O   0  0  0  0  0  0  0  0  0  0  0  0
  2  1  1  0
  3  2  2  0
  4  3  1  0
  5  4  2  0
  5 11  1  0
  6  5  1  0
  7  9  1  0
  7  8  1  1
  7  6  1  0
  9 10  2  0
 11 12  2  0
 12  2  1  0
 14 13  1  0
 15 14  2  0
 16 14  1  0
 17 16  1  0
 18 17  1  0
 19 18  1  0
 20 19  1  6
 20 22  1  0
 21  9  1  0
 21 20  1  0
 22 29  1  0
 22 23  2  0
 25 24  1  1
 26 25  1  0
 27 25  1  0
 28 27  1  6
 28 30  1  0
 29 28  1  0
 30 31  2  0
 30 32  1  0
M  END
$$$$
