YRL.pdb
     RDKit          3D

 32 32  0  0  1  0  0  0  0  0999 V2000
   23.9599  -13.2140  -20.1023 O   0  0  0  0  0  0  0  0  0  0  0  0
   23.4186  -13.9045  -19.0216 C   0  0  0  0  0  0  0  0  0  0  0  0
   23.9653  -15.0679  -18.5321 C   0  0  0  0  0  0  0  0  0  0  0  0
   23.4331  -15.7513  -17.4658 C   0  0  0  0  0  0  0  0  0  0  0  0
   22.2979  -15.2780  -16.8317 C   0  0  0  0  0  0  0  0  0  0  0  0
   21.6548  -15.9489  -15.6752 C   0  0  0  0  0  0  0  0  0  0  0  0
   21.0969  -17.2573  -16.1159 C   0  0  2  0  0  0  0  0  0  0  0  0
   19.7333  -17.0739  -16.5609 N   0  0  0  0  0  0  0  0  0  0  0  0
   21.2254  -18.3246  -15.1176 C   0  0  0  0  0  0  0  0  0  0  0  0
   20.5710  -18.3646  -14.0434 O   0  0  0  0  0  0  0  0  0  0  0  0
   21.7494  -14.0915  -17.3389 C   0  0  0  0  0  0  0  0  0  0  0  0
   22.2944  -13.4242  -18.4035 C   0  0  0  0  0  0  0  0  0  0  0  0
   19.6463  -25.2820  -13.6455 N   0  0  0  0  0  0  0  0  0  0  0  0
   18.5712  -24.3261  -13.5446 C   0  0  0  0  0  0  0  0  0  0  0  0
   17.3470  -24.7045  -13.3932 N   0  0  0  0  0  0  0  0  0  0  0  0
   18.8252  -22.9308  -13.6099 N   0  0  0  0  0  0  0  0  0  0  0  0
   20.1332  -22.3871  -13.7386 C   0  0  0  0  0  0  0  0  0  0  0  0
   20.6175  -22.2051  -15.1522 C   0  0  0  0  0  0  0  0  0  0  0  0
   22.0672  -21.7731  -15.1625 C   0  0  0  0  0  0  0  0  0  0  0  0
   22.2818  -20.4911  -14.4274 C   0  0  2  0  0  0  0  0  0  0  0  0
   22.1382  -19.3861  -15.3611 N   0  0  0  0  0  0  0  0  0  0  0  0
   23.5951  -20.3918  -13.7771 C   0  0  0  0  0  0  0  0  0  0  0  0
   24.6243  -20.2093  -14.5172 O   0  0  0  0  0  0  0  0  0  0  0  0
   16.6135  -23.9646  -13.4197 C   0  0  0  0  0  0  0  0  0  0  0  0
   25.6195  -20.8630   -7.9240 C   0  0  1  0  0  0  0  0  0  0  0  0
   25.9090  -20.6387   -9.3637 C   0  0  0  0  0  0  0  0  0  0  0  0
   26.6561  -19.2885   -9.4871 C   0  0  0  0  0  0  0  0  0  0  0  0
   24.7929  -20.5871  -10.3142 C   0  0  2  0  0  0  0  0  0  0  0  0
   25.0487  -20.4396  -11.7821 N   0  0  0  0  0  0  0  0  0  0  0  0
   23.6983  -20.4969  -12.3791 C   0  0  0  0  0  0  0  0  0  0  0  0
   25.8435  -21.4893  -12.4309 O   0  0  0  0  0  0  0  0  0  0  0  0
   25.3784  -22.5830  -12.7958 O   0  0  0  0  0  0  0  0  0  0  0  0
  2  1  1  0
  3  2  2  0
  4  3  1  0
  5  4  2  0
  5 11  1  0
  6  5  1  0
  7  9  1  0
  7  8  1  1
  7  6  1  0
  9 10  2  0
 11 12  2  0
 12  2  1  0
 14 13  1  0
 15 14  2  0
 16 14  1  0
 17 16  1  0
 18 17  1  0
 19 18  1  0
 20 19  1  6
 20 22  1  0
 21  9  1  0
 21 20  1  0
 22 29  1  0
 22 23  2  0
 25 24  1  1
 26 25  1  0
 27 25  1  0
 28 27  1  1
 28 30  1  0
 29 28  1  0
 30 31  2  0
 30 32  1  0
M  END
$$$$
