WQE.pdb
     RDKit          3D

 33 34  0  0  1  0  0  0  0  0999 V2000
   26.3035  -22.7932  -13.0107 N   0  0  0  0  0  0  0  0  0  0  0  0
   25.5669  -21.8894  -12.1510 C   0  0  1  0  0  0  0  0  0  0  0  0
   26.2487  -20.5477  -12.0274 C   0  0  0  0  0  0  0  0  0  0  0  0
   27.4484  -20.5975  -11.1653 C   0  0  0  0  0  0  0  0  0  0  0  0
   28.7378  -20.8443  -11.5730 C   0  0  0  0  0  0  0  0  0  0  0  0
   29.5343  -20.8023  -10.4785 N   0  0  0  0  0  0  0  0  0  0  0  0
   28.8287  -20.5403   -9.3761 C   0  0  0  0  0  0  0  0  0  0  0  0
   29.1562  -20.3964   -8.0499 C   0  0  0  0  0  0  0  0  0  0  0  0
   28.1893  -20.1174   -7.0947 C   0  0  0  0  0  0  0  0  0  0  0  0
   26.8886  -19.9900   -7.5247 C   0  0  0  0  0  0  0  0  0  0  0  0
   26.5617  -20.1356   -8.8620 C   0  0  0  0  0  0  0  0  0  0  0  0
   27.5041  -20.4093   -9.8052 C   0  0  0  0  0  0  0  0  0  0  0  0
   24.2550  -21.6305  -12.8323 C   0  0  0  0  0  0  0  0  0  0  0  0
   24.1816  -21.5572  -14.0921 O   0  0  0  0  0  0  0  0  0  0  0  0
   18.8171  -23.7467  -10.6098 N   0  0  0  0  0  0  0  0  0  0  0  0
   18.6347  -22.3127  -10.5913 C   0  0  0  0  0  0  0  0  0  0  0  0
   17.6793  -21.9122   -9.9227 O   0  0  0  0  0  0  0  0  0  0  0  0
   19.5925  -21.5110  -11.3594 C   0  0  0  0  0  0  0  0  0  0  0  0
   20.7207  -22.2020  -12.0058 C   0  0  0  0  0  0  0  0  0  0  0  0
   21.7331  -21.3895  -12.7267 C   0  0  2  0  0  0  0  0  0  0  0  0
   23.0429  -21.4564  -12.1152 N   0  0  0  0  0  0  0  0  0  0  0  0
   21.3267  -20.0502  -13.1738 C   0  0  0  0  0  0  0  0  0  0  0  0
   21.8529  -19.0646  -12.5712 O   0  0  0  0  0  0  0  0  0  0  0  0
   20.4146  -19.7843  -14.2007 N   0  0  0  0  0  0  0  0  0  0  0  0
   20.2306  -18.4638  -14.8188 C   0  0  1  0  0  0  0  0  0  0  0  0
   21.0843  -18.3150  -16.0202 C   0  0  0  0  0  0  0  0  0  0  0  0
   20.9769  -16.9480  -16.6193 C   0  0  0  0  0  0  0  0  0  0  0  0
   20.0477  -16.8369  -17.7557 C   0  0  0  0  0  0  0  0  0  0  0  0
   19.5555  -17.7922  -18.3968 O   0  0  0  0  0  0  0  0  0  0  0  0
   18.8012  -18.3771  -15.1844 C   0  0  0  0  0  0  0  0  0  0  0  0
   18.2327  -19.3972  -15.6886 O   0  0  0  0  0  0  0  0  0  0  0  0
   19.6533  -15.5560  -18.1906 O   0  0  0  0  0  0  0  0  0  0  0  0
   18.0676  -17.2220  -14.9913 O   0  0  0  0  0  0  0  0  0  0  0  0
  2  1  1  6
  3  2  1  0
  4  3  1  0
  4  5  2  0
  6  5  1  0
  7 12  2  0
  7  6  1  0
  8  7  1  0
  9 10  1  0
  9  8  2  0
 10 11  2  0
 11 12  1  0
 12  4  1  0
 13 14  2  0
 13  2  1  0
 15 16  1  0
 16 17  2  0
 18 19  1  0
 18 16  1  0
 20 19  1  1
 20 21  1  0
 21 13  1  0
 22 20  1  0
 23 22  2  0
 24 22  1  0
 25 26  1  6
 25 24  1  0
 26 27  1  0
 27 28  1  0
 28 29  2  0
 28 32  1  0
 30 25  1  0
 31 30  2  0
 33 30  1  0
M  END
$$$$
