WQE.pdb
     RDKit          3D

 33 34  0  0  1  0  0  0  0  0999 V2000
   14.9813  -14.4857    6.2753 N   0  0  0  0  0  0  0  0  0  0  0  0
   16.2038  -15.1598    5.8888 C   0  0  1  0  0  0  0  0  0  0  0  0
   17.2567  -15.0808    6.9685 C   0  0  0  0  0  0  0  0  0  0  0  0
   18.2849  -14.0573    6.6853 C   0  0  0  0  0  0  0  0  0  0  0  0
   18.0599  -12.7660    6.2709 C   0  0  0  0  0  0  0  0  0  0  0  0
   19.2631  -12.1614    6.1254 N   0  0  0  0  0  0  0  0  0  0  0  0
   20.2625  -12.9941    6.4242 C   0  0  0  0  0  0  0  0  0  0  0  0
   21.6306  -12.8712    6.4364 C   0  0  0  0  0  0  0  0  0  0  0  0
   22.4467  -13.9326    6.8005 C   0  0  0  0  0  0  0  0  0  0  0  0
   21.8350  -15.1145    7.1494 C   0  0  0  0  0  0  0  0  0  0  0  0
   20.4560  -15.2354    7.1362 C   0  0  0  0  0  0  0  0  0  0  0  0
   19.6484  -14.1991    6.7803 C   0  0  0  0  0  0  0  0  0  0  0  0
   15.8598  -16.6136    5.7459 C   0  0  0  0  0  0  0  0  0  0  0  0
   15.1824  -17.2099    6.6310 O   0  0  0  0  0  0  0  0  0  0  0  0
   16.3761  -20.4256    0.6056 N   0  0  0  0  0  0  0  0  0  0  0  0
   16.2954  -21.3840    1.6849 C   0  0  0  0  0  0  0  0  0  0  0  0
   16.2531  -22.5661    1.3370 O   0  0  0  0  0  0  0  0  0  0  0  0
   16.2728  -20.8479    3.0494 C   0  0  0  0  0  0  0  0  0  0  0  0
   16.2787  -19.3859    3.2250 C   0  0  0  0  0  0  0  0  0  0  0  0
   16.2931  -18.8357    4.6040 C   0  0  2  0  0  0  0  0  0  0  0  0
   16.2673  -17.3891    4.6295 N   0  0  0  0  0  0  0  0  0  0  0  0
   17.2147  -19.4552    5.5661 C   0  0  0  0  0  0  0  0  0  0  0  0
   18.2667  -18.8030    5.8479 O   0  0  0  0  0  0  0  0  0  0  0  0
   17.0214  -20.6942    6.1861 N   0  0  0  0  0  0  0  0  0  0  0  0
   17.9664  -21.2973    7.1363 C   0  0  1  0  0  0  0  0  0  0  0  0
   17.4568  -21.2060    8.5242 C   0  0  0  0  0  0  0  0  0  0  0  0
   18.3343  -21.9336    9.4934 C   0  0  0  0  0  0  0  0  0  0  0  0
   18.8788  -21.1069   10.5830 C   0  0  0  0  0  0  0  0  0  0  0  0
   18.8693  -19.8565   10.6301 O   0  0  0  0  0  0  0  0  0  0  0  0
   18.1122  -22.7106    6.7294 C   0  0  0  0  0  0  0  0  0  0  0  0
   18.9551  -23.4421    7.3396 O   0  0  0  0  0  0  0  0  0  0  0  0
   19.4725  -21.7444   11.6906 O   0  0  0  0  0  0  0  0  0  0  0  0
   17.3579  -23.2574    5.7087 O   0  0  0  0  0  0  0  0  0  0  0  0
  2  1  1  1
  3  2  1  0
  4  3  1  0
  4  5  2  0
  6  5  1  0
  7 12  2  0
  7  6  1  0
  8  7  1  0
  9 10  1  0
  9  8  2  0
 10 11  2  0
 11 12  1  0
 12  4  1  0
 13 14  2  0
 13  2  1  0
 15 16  1  0
 16 17  2  0
 18 19  1  0
 18 16  1  0
 20 19  1  6
 20 21  1  0
 21 13  1  0
 22 20  1  0
 23 22  2  0
 24 22  1  0
 25 26  1  1
 25 24  1  0
 26 27  1  0
 27 28  1  0
 28 29  2  0
 28 32  1  0
 30 25  1  0
 31 30  2  0
 33 30  1  0
M  END
$$$$
