WQE.pdb
     RDKit          3D

 33 34  0  0  1  0  0  0  0  0999 V2000
   26.9054  -22.5590  -11.3536 N   0  0  0  0  0  0  0  0  0  0  0  0
   26.3528  -21.2600  -11.0289 C   0  0  1  0  0  0  0  0  0  0  0  0
   27.4191  -20.1924  -10.9704 C   0  0  0  0  0  0  0  0  0  0  0  0
   28.4013  -20.4291   -9.8914 C   0  0  0  0  0  0  0  0  0  0  0  0
   29.6745  -20.9258  -10.0400 C   0  0  0  0  0  0  0  0  0  0  0  0
   30.2413  -20.9887   -8.8116 N   0  0  0  0  0  0  0  0  0  0  0  0
   29.4011  -20.5578   -7.8682 C   0  0  0  0  0  0  0  0  0  0  0  0
   29.4912  -20.4250   -6.5040 C   0  0  0  0  0  0  0  0  0  0  0  0
   28.4306  -19.9349   -5.7557 C   0  0  0  0  0  0  0  0  0  0  0  0
   27.2835  -19.5863   -6.4306 C   0  0  0  0  0  0  0  0  0  0  0  0
   27.1957  -19.7213   -7.8056 C   0  0  0  0  0  0  0  0  0  0  0  0
   28.2315  -20.2012   -8.5469 C   0  0  0  0  0  0  0  0  0  0  0  0
   25.4494  -20.8865  -12.1676 C   0  0  0  0  0  0  0  0  0  0  0  0
   25.9134  -20.6940  -13.3275 O   0  0  0  0  0  0  0  0  0  0  0  0
   22.5051  -23.0968  -16.3079 N   0  0  0  0  0  0  0  0  0  0  0  0
   23.0331  -23.7014  -15.1056 C   0  0  0  0  0  0  0  0  0  0  0  0
   23.0244  -24.9342  -15.0888 O   0  0  0  0  0  0  0  0  0  0  0  0
   23.5107  -22.7922  -14.0590 C   0  0  0  0  0  0  0  0  0  0  0  0
   23.3657  -21.3428  -14.2744 C   0  0  0  0  0  0  0  0  0  0  0  0
   23.1275  -20.4695  -13.0973 C   0  0  2  0  0  0  0  0  0  0  0  0
   24.0476  -20.7308  -12.0114 N   0  0  0  0  0  0  0  0  0  0  0  0
   21.7323  -20.2568  -12.6886 C   0  0  0  0  0  0  0  0  0  0  0  0
   21.3482  -20.8593  -11.6395 O   0  0  0  0  0  0  0  0  0  0  0  0
   20.8083  -19.4503  -13.3614 N   0  0  0  0  0  0  0  0  0  0  0  0
   19.4782  -19.1078  -12.8386 C   0  0  1  0  0  0  0  0  0  0  0  0
   19.0771  -17.7444  -13.2565 C   0  0  0  0  0  0  0  0  0  0  0  0
   18.9674  -17.6227  -14.7438 C   0  0  0  0  0  0  0  0  0  0  0  0
   17.9811  -16.6378  -15.2173 C   0  0  0  0  0  0  0  0  0  0  0  0
   17.2148  -15.9616  -14.4952 O   0  0  0  0  0  0  0  0  0  0  0  0
   18.5479  -20.1143  -13.3914 C   0  0  0  0  0  0  0  0  0  0  0  0
   18.8965  -20.7728  -14.4223 O   0  0  0  0  0  0  0  0  0  0  0  0
   17.8590  -16.4075  -16.6022 O   0  0  0  0  0  0  0  0  0  0  0  0
   17.3145  -20.3602  -12.8184 O   0  0  0  0  0  0  0  0  0  0  0  0
  2  1  1  6
  3  2  1  0
  4  3  1  0
  4  5  2  0
  6  5  1  0
  7 12  2  0
  7  6  1  0
  8  7  1  0
  9 10  1  0
  9  8  2  0
 10 11  2  0
 11 12  1  0
 12  4  1  0
 13 14  2  0
 13  2  1  0
 15 16  1  0
 16 17  2  0
 18 19  1  0
 18 16  1  0
 20 19  1  6
 20 21  1  0
 21 13  1  0
 22 20  1  0
 23 22  2  0
 24 22  1  0
 25 26  1  6
 25 24  1  0
 26 27  1  0
 27 28  1  0
 28 29  2  0
 28 32  1  0
 30 25  1  0
 31 30  2  0
 33 30  1  0
M  END
$$$$
