WQE.pdb
     RDKit          3D

 33 34  0  0  1  0  0  0  0  0999 V2000
   28.4968  -20.9119  -10.2205 N   0  0  0  0  0  0  0  0  0  0  0  0
   27.1435  -20.7694   -9.7238 C   0  0  1  0  0  0  0  0  0  0  0  0
   26.9571  -19.4821   -8.9567 C   0  0  0  0  0  0  0  0  0  0  0  0
   27.9154  -19.3427   -7.8399 C   0  0  0  0  0  0  0  0  0  0  0  0
   29.0976  -18.6414   -7.8605 C   0  0  0  0  0  0  0  0  0  0  0  0
   29.6745  -18.7649   -6.6414 N   0  0  0  0  0  0  0  0  0  0  0  0
   28.9274  -19.5121   -5.8258 C   0  0  0  0  0  0  0  0  0  0  0  0
   29.0648  -19.9250   -4.5230 C   0  0  0  0  0  0  0  0  0  0  0  0
   28.1042  -20.7192   -3.9132 C   0  0  0  0  0  0  0  0  0  0  0  0
   27.0075  -21.0787   -4.6621 C   0  0  0  0  0  0  0  0  0  0  0  0
   26.8719  -20.6610   -5.9750 C   0  0  0  0  0  0  0  0  0  0  0  0
   27.8096  -19.8819   -6.5804 C   0  0  0  0  0  0  0  0  0  0  0  0
   26.2570  -20.6691  -10.9306 C   0  0  0  0  0  0  0  0  0  0  0  0
   26.6009  -19.9796  -11.9326 O   0  0  0  0  0  0  0  0  0  0  0  0
   24.4050  -23.2457  -15.5729 N   0  0  0  0  0  0  0  0  0  0  0  0
   25.5097  -23.5648  -14.6968 C   0  0  0  0  0  0  0  0  0  0  0  0
   26.5140  -24.0099  -15.2566 O   0  0  0  0  0  0  0  0  0  0  0  0
   25.3115  -23.3264  -13.2636 C   0  0  0  0  0  0  0  0  0  0  0  0
   24.0679  -22.6670  -12.8313 C   0  0  0  0  0  0  0  0  0  0  0  0
   24.1577  -21.3313  -12.1891 C   0  0  2  0  0  0  0  0  0  0  0  0
   25.0043  -21.3304  -11.0156 N   0  0  0  0  0  0  0  0  0  0  0  0
   22.9117  -20.5646  -12.0538 C   0  0  0  0  0  0  0  0  0  0  0  0
   22.2791  -20.6943  -10.9610 O   0  0  0  0  0  0  0  0  0  0  0  0
   22.3777  -19.7138  -13.0275 N   0  0  0  0  0  0  0  0  0  0  0  0
   21.1065  -18.9906  -12.8833 C   0  0  1  0  0  0  0  0  0  0  0  0
   20.8262  -18.1634  -14.0797 C   0  0  0  0  0  0  0  0  0  0  0  0
   19.4813  -17.5113  -14.0088 C   0  0  0  0  0  0  0  0  0  0  0  0
   19.1308  -16.6779  -15.1705 C   0  0  0  0  0  0  0  0  0  0  0  0
   19.4280  -16.9183  -16.3621 O   0  0  0  0  0  0  0  0  0  0  0  0
   20.0637  -20.0236  -12.7112 C   0  0  0  0  0  0  0  0  0  0  0  0
   19.0619  -19.7683  -11.9701 O   0  0  0  0  0  0  0  0  0  0  0  0
   18.3946  -15.4944  -14.9628 O   0  0  0  0  0  0  0  0  0  0  0  0
   20.1463  -21.2545  -13.3341 O   0  0  0  0  0  0  0  0  0  0  0  0
  2  1  1  6
  3  2  1  0
  4  3  1  0
  4  5  2  0
  6  5  1  0
  7 12  2  0
  7  6  1  0
  8  7  1  0
  9 10  1  0
  9  8  2  0
 10 11  2  0
 11 12  1  0
 12  4  1  0
 13 14  2  0
 13  2  1  0
 15 16  1  0
 16 17  2  0
 18 19  1  0
 18 16  1  0
 20 19  1  1
 20 21  1  0
 21 13  1  0
 22 20  1  0
 23 22  2  0
 24 22  1  0
 25 26  1  6
 25 24  1  0
 26 27  1  0
 27 28  1  0
 28 29  2  0
 28 32  1  0
 30 25  1  0
 31 30  2  0
 33 30  1  0
M  END
$$$$
