WQE.pdb
     RDKit          3D

 33 34  0  0  1  0  0  0  0  0999 V2000
   22.4263  -10.6465  -16.1322 N   0  0  0  0  0  0  0  0  0  0  0  0
   21.0605  -10.1892  -16.2874 C   0  0  1  0  0  0  0  0  0  0  0  0
   20.0791  -11.0959  -15.5839 C   0  0  0  0  0  0  0  0  0  0  0  0
   19.8575  -12.3646  -16.3092 C   0  0  0  0  0  0  0  0  0  0  0  0
   20.8281  -13.2127  -16.7874 C   0  0  0  0  0  0  0  0  0  0  0  0
   20.2080  -14.2566  -17.3874 N   0  0  0  0  0  0  0  0  0  0  0  0
   18.8806  -14.1322  -17.3246 C   0  0  0  0  0  0  0  0  0  0  0  0
   17.8320  -14.8999  -17.7694 C   0  0  0  0  0  0  0  0  0  0  0  0
   16.5159  -14.5151  -17.5576 C   0  0  0  0  0  0  0  0  0  0  0  0
   16.2988  -13.3347  -16.8849 C   0  0  0  0  0  0  0  0  0  0  0  0
   17.3577  -12.5631  -16.4379 C   0  0  0  0  0  0  0  0  0  0  0  0
   18.6515  -12.9335  -16.6416 C   0  0  0  0  0  0  0  0  0  0  0  0
   20.9759   -8.8619  -15.5921 C   0  0  0  0  0  0  0  0  0  0  0  0
   21.8374   -8.5247  -14.7307 O   0  0  0  0  0  0  0  0  0  0  0  0
   23.6884   -4.6574  -15.0491 N   0  0  0  0  0  0  0  0  0  0  0  0
   22.5604   -3.9352  -14.5052 C   0  0  0  0  0  0  0  0  0  0  0  0
   22.8261   -2.8351  -14.0157 O   0  0  0  0  0  0  0  0  0  0  0  0
   21.2489   -4.5847  -14.5962 C   0  0  0  0  0  0  0  0  0  0  0  0
   21.1660   -5.9007  -15.2514 C   0  0  0  0  0  0  0  0  0  0  0  0
   19.8609   -6.6087  -15.2616 C   0  0  2  0  0  0  0  0  0  0  0  0
   19.9431   -7.9253  -15.8564 N   0  0  0  0  0  0  0  0  0  0  0  0
   18.6757   -5.8295  -15.6450 C   0  0  0  0  0  0  0  0  0  0  0  0
   18.4802   -5.6648  -16.8884 O   0  0  0  0  0  0  0  0  0  0  0  0
   17.7591   -5.2629  -14.7529 N   0  0  0  0  0  0  0  0  0  0  0  0
   16.3112   -5.1893  -14.9941 C   0  0  1  0  0  0  0  0  0  0  0  0
   15.6184   -6.3757  -14.4402 C   0  0  0  0  0  0  0  0  0  0  0  0
   14.1306   -6.2570  -14.5458 C   0  0  0  0  0  0  0  0  0  0  0  0
   13.4789   -7.2956  -15.3606 C   0  0  0  0  0  0  0  0  0  0  0  0
   12.5462   -7.1117  -16.1743 O   0  0  0  0  0  0  0  0  0  0  0  0
   15.8455   -3.9570  -14.3242 C   0  0  0  0  0  0  0  0  0  0  0  0
   16.4983   -3.5159  -13.3256 O   0  0  0  0  0  0  0  0  0  0  0  0
   13.9170   -8.6296  -15.2416 O   0  0  0  0  0  0  0  0  0  0  0  0
   14.7248   -3.2720  -14.7540 O   0  0  0  0  0  0  0  0  0  0  0  0
  2  1  1  1
  3  2  1  0
  4  3  1  0
  4  5  2  0
  6  5  1  0
  7 12  2  0
  7  6  1  0
  8  7  1  0
  9 10  1  0
  9  8  2  0
 10 11  2  0
 11 12  1  0
 12  4  1  0
 13 14  2  0
 13  2  1  0
 15 16  1  0
 16 17  2  0
 18 19  1  0
 18 16  1  0
 20 19  1  6
 20 21  1  0
 21 13  1  0
 22 20  1  0
 23 22  2  0
 24 22  1  0
 25 26  1  1
 25 24  1  0
 26 27  1  0
 27 28  1  0
 28 29  2  0
 28 32  1  0
 30 25  1  0
 31 30  2  0
 33 30  1  0
M  END
$$$$
