WQE.pdb
     RDKit          3D

 33 34  0  0  1  0  0  0  0  0999 V2000
   15.4208  -15.0429    5.6934 N   0  0  0  0  0  0  0  0  0  0  0  0
   16.6011  -15.8405    5.4302 C   0  0  1  0  0  0  0  0  0  0  0  0
   17.7791  -15.3963    6.2640 C   0  0  0  0  0  0  0  0  0  0  0  0
   18.3274  -14.0956    5.8249 C   0  0  0  0  0  0  0  0  0  0  0  0
   17.7789  -13.2521    4.8882 C   0  0  0  0  0  0  0  0  0  0  0  0
   18.5883  -12.1719    4.7781 N   0  0  0  0  0  0  0  0  0  0  0  0
   19.6383  -12.2683    5.5967 C   0  0  0  0  0  0  0  0  0  0  0  0
   20.7182  -11.4602    5.8564 C   0  0  0  0  0  0  0  0  0  0  0  0
   21.6833  -11.8229    6.7850 C   0  0  0  0  0  0  0  0  0  0  0  0
   21.5191  -13.0232    7.4371 C   0  0  0  0  0  0  0  0  0  0  0  0
   20.4296  -13.8355    7.1731 C   0  0  0  0  0  0  0  0  0  0  0  0
   19.4786  -13.4870    6.2638 C   0  0  0  0  0  0  0  0  0  0  0  0
   16.2772  -17.2369    5.8747 C   0  0  0  0  0  0  0  0  0  0  0  0
   15.6342  -17.4450    6.9428 O   0  0  0  0  0  0  0  0  0  0  0  0
   14.0928  -21.0987    2.7632 N   0  0  0  0  0  0  0  0  0  0  0  0
   15.4469  -20.9179    2.2905 C   0  0  0  0  0  0  0  0  0  0  0  0
   15.5935  -21.0008    1.0690 O   0  0  0  0  0  0  0  0  0  0  0  0
   16.4757  -20.6614    3.3032 C   0  0  0  0  0  0  0  0  0  0  0  0
   16.0876  -20.7193    4.7224 C   0  0  0  0  0  0  0  0  0  0  0  0
   16.6771  -19.7317    5.6615 C   0  0  2  0  0  0  0  0  0  0  0  0
   16.6667  -18.3838    5.1352 N   0  0  0  0  0  0  0  0  0  0  0  0
   17.9151  -20.1165    6.3529 C   0  0  0  0  0  0  0  0  0  0  0  0
   18.9968  -19.6373    5.8928 O   0  0  0  0  0  0  0  0  0  0  0  0
   17.9891  -20.9609    7.4657 N   0  0  0  0  0  0  0  0  0  0  0  0
   19.2353  -21.2840    8.1744 C   0  0  1  0  0  0  0  0  0  0  0  0
   19.2073  -20.7679    9.5626 C   0  0  0  0  0  0  0  0  0  0  0  0
   18.1389  -21.4201   10.3825 C   0  0  0  0  0  0  0  0  0  0  0  0
   18.1167  -21.0293   11.8016 C   0  0  0  0  0  0  0  0  0  0  0  0
   18.7292  -21.6027   12.7300 O   0  0  0  0  0  0  0  0  0  0  0  0
   19.3391  -22.7583    8.1714 C   0  0  0  0  0  0  0  0  0  0  0  0
   18.3605  -23.4425    7.7330 O   0  0  0  0  0  0  0  0  0  0  0  0
   17.3477  -19.9139   12.1892 O   0  0  0  0  0  0  0  0  0  0  0  0
   20.4683  -23.4111    8.6282 O   0  0  0  0  0  0  0  0  0  0  0  0
  2  1  1  1
  3  2  1  0
  4  3  1  0
  4  5  2  0
  6  5  1  0
  7 12  2  0
  7  6  1  0
  8  7  1  0
  9 10  1  0
  9  8  2  0
 10 11  2  0
 11 12  1  0
 12  4  1  0
 13 14  2  0
 13  2  1  0
 15 16  1  0
 16 17  2  0
 18 19  1  0
 18 16  1  0
 20 19  1  6
 20 21  1  0
 21 13  1  0
 22 20  1  0
 23 22  2  0
 24 22  1  0
 25 26  1  1
 25 24  1  0
 26 27  1  0
 27 28  1  0
 28 29  2  0
 28 32  1  0
 30 25  1  0
 31 30  2  0
 33 30  1  0
M  END
$$$$
