WQE.pdb
     RDKit          3D

 33 34  0  0  1  0  0  0  0  0999 V2000
   26.7968  -18.8686   -8.3986 N   0  0  0  0  0  0  0  0  0  0  0  0
   26.7541  -20.2370   -8.8718 C   0  0  1  0  0  0  0  0  0  0  0  0
   26.0691  -21.1532   -7.8861 C   0  0  0  0  0  0  0  0  0  0  0  0
   26.4363  -20.8567   -6.4852 C   0  0  0  0  0  0  0  0  0  0  0  0
   25.6119  -20.9438   -5.3886 C   0  0  0  0  0  0  0  0  0  0  0  0
   26.3325  -20.5877   -4.2986 N   0  0  0  0  0  0  0  0  0  0  0  0
   27.5867  -20.2724   -4.6292 C   0  0  0  0  0  0  0  0  0  0  0  0
   28.6833  -19.8594   -3.9125 C   0  0  0  0  0  0  0  0  0  0  0  0
   29.8948  -19.5966   -4.5358 C   0  0  0  0  0  0  0  0  0  0  0  0
   29.9579  -19.7649   -5.8998 C   0  0  0  0  0  0  0  0  0  0  0  0
   28.8509  -20.1812   -6.6194 C   0  0  0  0  0  0  0  0  0  0  0  0
   27.6590  -20.4411   -6.0156 C   0  0  0  0  0  0  0  0  0  0  0  0
   25.8975  -20.2334  -10.1041 C   0  0  0  0  0  0  0  0  0  0  0  0
   24.8294  -19.5590  -10.1496 O   0  0  0  0  0  0  0  0  0  0  0  0
   27.1826  -20.3345  -16.2616 N   0  0  0  0  0  0  0  0  0  0  0  0
   27.9185  -21.3349  -15.5217 C   0  0  0  0  0  0  0  0  0  0  0  0
   28.5490  -22.1407  -16.2097 O   0  0  0  0  0  0  0  0  0  0  0  0
   27.8314  -21.2776  -14.0591 C   0  0  0  0  0  0  0  0  0  0  0  0
   27.0194  -20.2110  -13.4497 C   0  0  0  0  0  0  0  0  0  0  0  0
   25.8540  -20.5947  -12.6134 C   0  0  2  0  0  0  0  0  0  0  0  0
   26.2307  -20.9729  -11.2684 N   0  0  0  0  0  0  0  0  0  0  0  0
   24.8331  -21.4501  -13.2338 C   0  0  0  0  0  0  0  0  0  0  0  0
   25.0074  -22.7040  -13.1402 O   0  0  0  0  0  0  0  0  0  0  0  0
   23.6986  -20.9911  -13.9113 N   0  0  0  0  0  0  0  0  0  0  0  0
   22.5882  -21.8535  -14.3391 C   0  0  1  0  0  0  0  0  0  0  0  0
   21.2945  -21.1371  -14.2538 C   0  0  0  0  0  0  0  0  0  0  0  0
   20.1498  -21.9901  -14.7020 C   0  0  0  0  0  0  0  0  0  0  0  0
   19.2172  -22.3919  -13.6362 C   0  0  0  0  0  0  0  0  0  0  0  0
   19.1882  -21.9289  -12.4740 O   0  0  0  0  0  0  0  0  0  0  0  0
   22.8790  -22.2341  -15.7373 C   0  0  0  0  0  0  0  0  0  0  0  0
   23.5293  -21.4248  -16.4721 O   0  0  0  0  0  0  0  0  0  0  0  0
   18.2555  -23.3845  -13.9108 O   0  0  0  0  0  0  0  0  0  0  0  0
   22.4667  -23.4430  -16.2651 O   0  0  0  0  0  0  0  0  0  0  0  0
  2  1  1  1
  3  2  1  0
  4  3  1  0
  4  5  2  0
  6  5  1  0
  7 12  2  0
  7  6  1  0
  8  7  1  0
  9 10  1  0
  9  8  2  0
 10 11  2  0
 11 12  1  0
 12  4  1  0
 13 14  2  0
 13  2  1  0
 15 16  1  0
 16 17  2  0
 18 19  1  0
 18 16  1  0
 20 19  1  6
 20 21  1  0
 21 13  1  0
 22 20  1  0
 23 22  2  0
 24 22  1  0
 25 26  1  6
 25 24  1  0
 26 27  1  0
 27 28  1  0
 28 29  2  0
 28 32  1  0
 30 25  1  0
 31 30  2  0
 33 30  1  0
M  END
$$$$
