TLG.pdb
     RDKit          3D

 20 19  0  0  1  0  0  0  0  0999 V2000
   18.8229  -12.3328  -19.0883 C   0  0  0  0  0  0  0  0  0  0  0  0
   19.3649  -11.2909  -18.1599 C   0  0  1  0  0  0  0  0  0  0  0  0
   18.2942  -10.7676  -17.4317 O   0  0  0  0  0  0  0  0  0  0  0  0
   20.3380  -11.8674  -17.1626 C   0  0  2  0  0  0  0  0  0  0  0  0
   19.6881  -12.8658  -16.3594 N   0  0  0  0  0  0  0  0  0  0  0  0
   20.9740  -10.8718  -16.3066 C   0  0  0  0  0  0  0  0  0  0  0  0
   20.5221  -10.6447  -15.1631 O   0  0  0  0  0  0  0  0  0  0  0  0
   26.3570  -10.0465  -15.4051 C   0  0  0  0  0  0  0  0  0  0  0  0
   25.0222   -9.4681  -14.9581 C   0  0  2  0  0  0  0  0  0  0  0  0
   24.3265  -10.4671  -14.0711 C   0  0  0  0  0  0  0  0  0  0  0  0
   24.2029   -9.0721  -16.1446 C   0  0  0  0  0  0  0  0  0  0  0  0
   22.7265   -9.0876  -15.9489 C   0  0  2  0  0  0  0  0  0  0  0  0
   22.1067  -10.1452  -16.7434 N   0  0  0  0  0  0  0  0  0  0  0  0
   22.1210   -7.8075  -16.3990 C   0  0  0  0  0  0  0  0  0  0  0  0
   22.2661   -7.3459  -17.5749 O   0  0  0  0  0  0  0  0  0  0  0  0
   21.3289   -7.0080  -15.5252 N   0  0  0  0  0  0  0  0  0  0  0  0
   20.7647   -5.7628  -15.9907 C   0  0  0  0  0  0  0  0  0  0  0  0
   19.9982   -5.0887  -14.9115 C   0  0  0  0  0  0  0  0  0  0  0  0
   19.7602   -5.6972  -13.8581 O   0  0  0  0  0  0  0  0  0  0  0  0
   19.5316   -3.7882  -15.0366 O   0  0  0  0  0  0  0  0  0  0  0  0
  2  3  1  0
  2  1  1  6
  4  2  1  0
  4  5  1  1
  6  4  1  0
  6  7  2  0
  9 11  1  0
  9  8  1  6
 10  9  1  0
 12 11  1  6
 12 13  1  0
 13  6  1  0
 14 12  1  0
 15 14  2  0
 16 14  1  0
 17 16  1  0
 18 20  1  0
 18 17  1  0
 19 18  2  0
M  END
$$$$
