TLG.pdb
     RDKit          3D

 20 19  0  0  1  0  0  0  0  0999 V2000
   16.9101  -12.5280  -17.7234 C   0  0  0  0  0  0  0  0  0  0  0  0
   17.8764  -12.0188  -16.6996 C   0  0  1  0  0  0  0  0  0  0  0  0
   19.0895  -12.6850  -16.8871 O   0  0  0  0  0  0  0  0  0  0  0  0
   18.1521  -10.5450  -16.8598 C   0  0  2  0  0  0  0  0  0  0  0  0
   18.7250  -10.2877  -18.1520 N   0  0  0  0  0  0  0  0  0  0  0  0
   18.9992   -9.9801  -15.8148 C   0  0  0  0  0  0  0  0  0  0  0  0
   18.6668  -10.0799  -14.6136 O   0  0  0  0  0  0  0  0  0  0  0  0
   22.7189  -10.6511  -13.5976 C   0  0  0  0  0  0  0  0  0  0  0  0
   22.9540  -10.3312  -15.0667 C   0  0  2  0  0  0  0  0  0  0  0  0
   24.4093  -10.5473  -15.3895 C   0  0  0  0  0  0  0  0  0  0  0  0
   22.4872   -8.9453  -15.3788 C   0  0  0  0  0  0  0  0  0  0  0  0
   21.0461   -8.6718  -15.1211 C   0  0  2  0  0  0  0  0  0  0  0  0
   20.2057   -9.3119  -16.1301 N   0  0  0  0  0  0  0  0  0  0  0  0
   20.7639   -7.2149  -15.1950 C   0  0  0  0  0  0  0  0  0  0  0  0
   21.3410   -6.3571  -14.4547 O   0  0  0  0  0  0  0  0  0  0  0  0
   19.8142   -6.6838  -16.1148 N   0  0  0  0  0  0  0  0  0  0  0  0
   19.5980   -5.2581  -16.1943 C   0  0  0  0  0  0  0  0  0  0  0  0
   18.5812   -4.8174  -15.2050 C   0  0  0  0  0  0  0  0  0  0  0  0
   18.2830   -3.6167  -15.1273 O   0  0  0  0  0  0  0  0  0  0  0  0
   17.9434   -5.7074  -14.3530 O   0  0  0  0  0  0  0  0  0  0  0  0
  2  3  1  0
  2  1  1  6
  4  2  1  0
  4  5  1  6
  6  4  1  0
  6  7  2  0
  9 11  1  0
  9  8  1  1
 10  9  1  0
 12 11  1  6
 12 13  1  0
 13  6  1  0
 14 12  1  0
 15 14  2  0
 16 14  1  0
 17 16  1  0
 18 20  1  0
 18 17  1  0
 19 18  2  0
M  END
$$$$
