TLG.pdb
     RDKit          3D

 20 19  0  0  1  0  0  0  0  0999 V2000
   19.2963  -12.4002  -20.0631 C   0  0  0  0  0  0  0  0  0  0  0  0
   19.7446  -12.0780  -18.6715 C   0  0  1  0  0  0  0  0  0  0  0  0
   21.0907  -12.4333  -18.5623 O   0  0  0  0  0  0  0  0  0  0  0  0
   19.6507  -10.6035  -18.3698 C   0  0  2  0  0  0  0  0  0  0  0  0
   20.3981   -9.8527  -19.3404 N   0  0  0  0  0  0  0  0  0  0  0  0
   20.0759  -10.2428  -17.0217 C   0  0  0  0  0  0  0  0  0  0  0  0
   19.5441  -10.7849  -16.0284 O   0  0  0  0  0  0  0  0  0  0  0  0
   23.2063  -11.0735  -14.0516 C   0  0  0  0  0  0  0  0  0  0  0  0
   23.6401  -10.3904  -15.3404 C   0  0  2  0  0  0  0  0  0  0  0  0
   25.1441  -10.4060  -15.4223 C   0  0  0  0  0  0  0  0  0  0  0  0
   23.0664   -9.0117  -15.4173 C   0  0  0  0  0  0  0  0  0  0  0  0
   21.5805   -8.9287  -15.4750 C   0  0  2  0  0  0  0  0  0  0  0  0
   21.0902   -9.2805  -16.8054 N   0  0  0  0  0  0  0  0  0  0  0  0
   21.1184   -7.5427  -15.2045 C   0  0  0  0  0  0  0  0  0  0  0  0
   21.4012   -6.9119  -14.1373 O   0  0  0  0  0  0  0  0  0  0  0  0
   20.3176   -6.8264  -16.1403 N   0  0  0  0  0  0  0  0  0  0  0  0
   19.7859   -5.5279  -15.7982 C   0  0  0  0  0  0  0  0  0  0  0  0
   20.7057   -4.4447  -16.2309 C   0  0  0  0  0  0  0  0  0  0  0  0
   21.7783   -4.7355  -16.7799 O   0  0  0  0  0  0  0  0  0  0  0  0
   20.4086   -3.1026  -16.0428 O   0  0  0  0  0  0  0  0  0  0  0  0
  2  3  1  0
  2  1  1  6
  4  2  1  0
  4  5  1  6
  6  4  1  0
  6  7  2  0
  9 11  1  0
  9  8  1  1
 10  9  1  0
 12 11  1  6
 12 13  1  0
 13  6  1  0
 14 12  1  0
 15 14  2  0
 16 14  1  0
 17 16  1  0
 18 20  1  0
 18 17  1  0
 19 18  2  0
M  END
$$$$
