TLG.pdb
     RDKit          3D

 20 19  0  0  1  0  0  0  0  0999 V2000
   18.5036   -8.1968  -18.9252 C   0  0  0  0  0  0  0  0  0  0  0  0
   18.1305   -9.6287  -18.6971 C   0  0  1  0  0  0  0  0  0  0  0  0
   17.8288  -10.1953  -19.9374 O   0  0  0  0  0  0  0  0  0  0  0  0
   19.2677  -10.4272  -18.1113 C   0  0  2  0  0  0  0  0  0  0  0  0
   18.9586  -11.8297  -18.1526 N   0  0  0  0  0  0  0  0  0  0  0  0
   19.6347  -10.0347  -16.7549 C   0  0  0  0  0  0  0  0  0  0  0  0
   18.9365  -10.3998  -15.7840 O   0  0  0  0  0  0  0  0  0  0  0  0
   22.2938  -11.2117  -13.5922 C   0  0  0  0  0  0  0  0  0  0  0  0
   22.9919  -10.6245  -14.8103 C   0  0  2  0  0  0  0  0  0  0  0  0
   24.4735  -10.8694  -14.6926 C   0  0  0  0  0  0  0  0  0  0  0  0
   22.6504   -9.1763  -14.9582 C   0  0  0  0  0  0  0  0  0  0  0  0
   21.2077   -8.8664  -15.1601 C   0  0  2  0  0  0  0  0  0  0  0  0
   20.7780   -9.2395  -16.5055 N   0  0  0  0  0  0  0  0  0  0  0  0
   20.9568   -7.4084  -15.0228 C   0  0  0  0  0  0  0  0  0  0  0  0
   21.2442   -6.7497  -13.9738 O   0  0  0  0  0  0  0  0  0  0  0  0
   20.3694   -6.6492  -16.0758 N   0  0  0  0  0  0  0  0  0  0  0  0
   20.1962   -5.2224  -15.9341 C   0  0  0  0  0  0  0  0  0  0  0  0
   18.7797   -4.8841  -15.6417 C   0  0  0  0  0  0  0  0  0  0  0  0
   17.9499   -5.7939  -15.4996 O   0  0  0  0  0  0  0  0  0  0  0  0
   18.3420   -3.5732  -15.5195 O   0  0  0  0  0  0  0  0  0  0  0  0
  2  3  1  0
  2  1  1  6
  4  2  1  0
  4  5  1  1
  6  4  1  0
  6  7  2  0
  9 11  1  0
  9  8  1  1
 10  9  1  0
 12 11  1  6
 12 13  1  0
 13  6  1  0
 14 12  1  0
 15 14  2  0
 16 14  1  0
 17 16  1  0
 18 20  1  0
 18 17  1  0
 19 18  2  0
M  END
$$$$
