TLG.pdb
     RDKit          3D

 20 19  0  0  1  0  0  0  0  0999 V2000
   20.5730  -12.1632  -20.5125 C   0  0  0  0  0  0  0  0  0  0  0  0
   20.9638  -11.3641  -19.3083 C   0  0  1  0  0  0  0  0  0  0  0  0
   19.8375  -11.2416  -18.4917 O   0  0  0  0  0  0  0  0  0  0  0  0
   22.0297  -12.0498  -18.4911 C   0  0  2  0  0  0  0  0  0  0  0  0
   21.5773  -13.3505  -18.0817 N   0  0  0  0  0  0  0  0  0  0  0  0
   22.4744  -11.2858  -17.3305 C   0  0  0  0  0  0  0  0  0  0  0  0
   22.0955  -11.6073  -16.1832 O   0  0  0  0  0  0  0  0  0  0  0  0
   26.1725  -10.9289  -15.1136 C   0  0  0  0  0  0  0  0  0  0  0  0
   26.2066  -10.2466  -16.4734 C   0  0  2  0  0  0  0  0  0  0  0  0
   27.6280   -9.8679  -16.7973 C   0  0  0  0  0  0  0  0  0  0  0  0
   25.2732   -9.0786  -16.4933 C   0  0  0  0  0  0  0  0  0  0  0  0
   23.8276   -9.3995  -16.3337 C   0  0  2  0  0  0  0  0  0  0  0  0
   23.3368  -10.1731  -17.4715 N   0  0  0  0  0  0  0  0  0  0  0  0
   23.0138   -8.1574  -16.2816 C   0  0  0  0  0  0  0  0  0  0  0  0
   22.6944   -7.4921  -17.3171 O   0  0  0  0  0  0  0  0  0  0  0  0
   22.5353   -7.6293  -15.0478 N   0  0  0  0  0  0  0  0  0  0  0  0
   21.6025   -6.5267  -15.0421 C   0  0  0  0  0  0  0  0  0  0  0  0
   22.3096   -5.2298  -15.1985 C   0  0  0  0  0  0  0  0  0  0  0  0
   23.5407   -5.2175  -15.3429 O   0  0  0  0  0  0  0  0  0  0  0  0
   21.6388   -4.0154  -15.1894 O   0  0  0  0  0  0  0  0  0  0  0  0
  2  3  1  0
  2  1  1  6
  4  2  1  0
  4  5  1  1
  6  4  1  0
  6  7  2  0
  9 11  1  0
  9  8  1  1
 10  9  1  0
 12 11  1  6
 12 13  1  0
 13  6  1  0
 14 12  1  0
 15 14  2  0
 16 14  1  0
 17 16  1  0
 18 20  1  0
 18 17  1  0
 19 18  2  0
M  END
$$$$
