FET.pdb
     RDKit          3D

 28 28  0  0  1  0  0  0  0  0999 V2000
   25.2448  -11.0146  -17.9354 N   0  0  0  0  0  0  0  0  0  0  0  0
   24.9048  -10.4373  -16.6735 C   0  0  1  0  0  0  0  0  0  0  0  0
   26.1093   -9.8405  -16.0248 C   0  0  0  0  0  0  0  0  0  0  0  0
   27.1474  -10.9112  -15.9515 C   0  0  0  0  0  0  0  0  0  0  0  0
   28.3000  -10.8814  -16.7068 C   0  0  0  0  0  0  0  0  0  0  0  0
   29.2553  -11.8793  -16.6348 C   0  0  0  0  0  0  0  0  0  0  0  0
   29.0843  -12.9628  -15.7865 C   0  0  0  0  0  0  0  0  0  0  0  0
   27.9338  -12.9993  -15.0280 C   0  0  0  0  0  0  0  0  0  0  0  0
   26.9761  -11.9944  -15.1030 C   0  0  0  0  0  0  0  0  0  0  0  0
   23.7314   -9.5398  -16.7428 C   0  0  0  0  0  0  0  0  0  0  0  0
   23.3578   -9.1285  -17.8718 O   0  0  0  0  0  0  0  0  0  0  0  0
   23.0052   -9.1192  -15.5973 N   0  0  0  0  0  0  0  0  0  0  0  0
   21.8314   -8.2819  -15.6292 C   0  0  1  0  0  0  0  0  0  0  0  0
   20.5728   -8.9424  -15.2203 C   0  0  0  0  0  0  0  0  0  0  0  0
   19.3183   -8.1619  -15.3260 C   0  0  0  0  0  0  0  0  0  0  0  0
   18.0950   -8.7800  -14.8505 C   0  0  0  0  0  0  0  0  0  0  0  0
   18.1251   -9.9090  -14.3138 O   0  0  0  0  0  0  0  0  0  0  0  0
   22.0902   -6.9527  -15.0250 C   0  0  0  0  0  0  0  0  0  0  0  0
   22.6344   -6.9251  -13.8999 O   0  0  0  0  0  0  0  0  0  0  0  0
   16.8628   -8.1631  -14.9665 O   0  0  0  0  0  0  0  0  0  0  0  0
   23.5970   -3.9543  -17.0226 C   0  0  0  0  0  0  0  0  0  0  0  0
   22.3377   -3.4508  -16.3034 C   0  0  1  0  0  0  0  0  0  0  0  0
   21.3602   -3.3985  -17.3060 O   0  0  0  0  0  0  0  0  0  0  0  0
   22.0004   -4.4110  -15.2268 C   0  0  2  0  0  0  0  0  0  0  0  0
   21.7541   -5.7437  -15.6574 N   0  0  0  0  0  0  0  0  0  0  0  0
   20.9345   -3.8752  -14.3383 C   0  0  0  0  0  0  0  0  0  0  0  0
   21.0428   -2.6502  -13.7044 O   0  0  0  0  0  0  0  0  0  0  0  0
   19.8895   -4.5295  -14.1394 O   0  0  0  0  0  0  0  0  0  0  0  0
  2  3  1  0
  2  1  1  6
  3  4  1  0
  4  9  2  0
  5  4  1  0
  5  6  2  0
  6  7  1  0
  7  8  2  0
  9  8  1  0
 10 12  1  0
 10  2  1  0
 11 10  2  0
 13 12  1  0
 13 14  1  1
 14 15  1  0
 15 16  1  0
 16 20  1  0
 17 16  2  0
 18 19  2  0
 18 13  1  0
 22 21  1  6
 22 24  1  0
 23 22  1  0
 24 26  1  0
 24 25  1  6
 25 18  1  0
 26 27  1  0
 28 26  2  0
M  END
$$$$
