FET.pdb
     RDKit          3D

 28 28  0  0  1  0  0  0  0  0999 V2000
   25.5902  -10.7055  -18.4023 N   0  0  0  0  0  0  0  0  0  0  0  0
   25.1290  -10.3527  -17.0968 C   0  0  1  0  0  0  0  0  0  0  0  0
   26.2777  -10.0188  -16.2040 C   0  0  0  0  0  0  0  0  0  0  0  0
   27.1493  -11.2292  -16.1348 C   0  0  0  0  0  0  0  0  0  0  0  0
   26.7718  -12.3798  -15.4765 C   0  0  0  0  0  0  0  0  0  0  0  0
   27.5869  -13.4958  -15.4149 C   0  0  0  0  0  0  0  0  0  0  0  0
   28.8332  -13.4963  -16.0230 C   0  0  0  0  0  0  0  0  0  0  0  0
   29.2174  -12.3488  -16.6832 C   0  0  0  0  0  0  0  0  0  0  0  0
   28.3953  -11.2293  -16.7431 C   0  0  0  0  0  0  0  0  0  0  0  0
   24.0475   -9.3442  -17.1158 C   0  0  0  0  0  0  0  0  0  0  0  0
   23.9903   -8.5456  -18.0866 O   0  0  0  0  0  0  0  0  0  0  0  0
   23.0697   -9.2329  -16.0920 N   0  0  0  0  0  0  0  0  0  0  0  0
   21.9104   -8.3773  -16.1514 C   0  0  1  0  0  0  0  0  0  0  0  0
   20.6101   -9.0627  -15.9873 C   0  0  0  0  0  0  0  0  0  0  0  0
   20.5527  -10.5130  -16.2828 C   0  0  0  0  0  0  0  0  0  0  0  0
   19.7528  -11.3503  -15.4089 C   0  0  0  0  0  0  0  0  0  0  0  0
   18.7449  -10.8827  -14.8350 O   0  0  0  0  0  0  0  0  0  0  0  0
   22.0976   -7.1447  -15.3486 C   0  0  0  0  0  0  0  0  0  0  0  0
   22.5046   -7.2761  -14.1739 O   0  0  0  0  0  0  0  0  0  0  0  0
   20.0607  -12.6777  -15.1732 O   0  0  0  0  0  0  0  0  0  0  0  0
   23.9199   -4.0421  -16.6791 C   0  0  0  0  0  0  0  0  0  0  0  0
   22.5967   -3.5359  -16.0880 C   0  0  1  0  0  0  0  0  0  0  0  0
   21.7923   -3.2745  -17.2053 O   0  0  0  0  0  0  0  0  0  0  0  0
   22.0383   -4.5975  -15.2184 C   0  0  2  0  0  0  0  0  0  0  0  0
   21.8408   -5.8568  -15.8485 N   0  0  0  0  0  0  0  0  0  0  0  0
   20.8402   -4.1169  -14.4794 C   0  0  0  0  0  0  0  0  0  0  0  0
   20.8823   -3.0308  -13.6233 O   0  0  0  0  0  0  0  0  0  0  0  0
   19.7400   -4.6914  -14.6175 O   0  0  0  0  0  0  0  0  0  0  0  0
  2  3  1  0
  2  1  1  6
  3  4  1  0
  4  9  2  0
  5  4  1  0
  5  6  2  0
  6  7  1  0
  7  8  2  0
  9  8  1  0
 10 12  1  0
 10  2  1  0
 11 10  2  0
 13 12  1  0
 13 14  1  1
 14 15  1  0
 15 16  1  0
 16 20  1  0
 17 16  2  0
 18 19  2  0
 18 13  1  0
 22 21  1  6
 22 24  1  0
 23 22  1  0
 24 26  1  0
 24 25  1  6
 25 18  1  0
 26 27  1  0
 28 26  2  0
M  END
$$$$
