FET.pdb
     RDKit          3D

 28 28  0  0  1  0  0  0  0  0999 V2000
   27.1804  -10.1866  -17.5091 N   0  0  0  0  0  0  0  0  0  0  0  0
   25.9552  -10.3106  -16.7847 C   0  0  1  0  0  0  0  0  0  0  0  0
   26.2211  -10.5398  -15.3339 C   0  0  0  0  0  0  0  0  0  0  0  0
   26.6150  -11.9715  -15.1781 C   0  0  0  0  0  0  0  0  0  0  0  0
   25.6943  -12.9780  -14.9804 C   0  0  0  0  0  0  0  0  0  0  0  0
   26.0683  -14.3018  -14.8340 C   0  0  0  0  0  0  0  0  0  0  0  0
   27.4046  -14.6691  -14.8817 C   0  0  0  0  0  0  0  0  0  0  0  0
   28.3311  -13.6676  -15.0792 C   0  0  0  0  0  0  0  0  0  0  0  0
   27.9513  -12.3384  -15.2259 C   0  0  0  0  0  0  0  0  0  0  0  0
   24.9972   -9.2214  -17.0730 C   0  0  0  0  0  0  0  0  0  0  0  0
   25.4326   -8.0427  -17.1386 O   0  0  0  0  0  0  0  0  0  0  0  0
   23.6095   -9.4406  -17.2798 N   0  0  0  0  0  0  0  0  0  0  0  0
   22.6480   -8.4062  -17.5717 C   0  0  1  0  0  0  0  0  0  0  0  0
   21.7856   -8.6584  -18.7465 C   0  0  0  0  0  0  0  0  0  0  0  0
   20.7660   -7.6387  -19.0853 C   0  0  0  0  0  0  0  0  0  0  0  0
   19.9150   -7.8884  -20.2334 C   0  0  0  0  0  0  0  0  0  0  0  0
   19.0617   -7.0437  -20.5828 O   0  0  0  0  0  0  0  0  0  0  0  0
   21.9527   -7.9433  -16.3466 C   0  0  0  0  0  0  0  0  0  0  0  0
   21.4982   -8.8156  -15.5750 O   0  0  0  0  0  0  0  0  0  0  0  0
   20.0047   -9.0488  -20.9804 O   0  0  0  0  0  0  0  0  0  0  0  0
   23.1975   -4.8282  -14.2265 C   0  0  0  0  0  0  0  0  0  0  0  0
   21.6893   -4.6861  -14.4755 C   0  0  1  0  0  0  0  0  0  0  0  0
   21.5919   -3.7239  -15.4895 O   0  0  0  0  0  0  0  0  0  0  0  0
   21.1587   -6.0063  -14.8882 C   0  0  2  0  0  0  0  0  0  0  0  0
   21.7885   -6.5855  -16.0239 N   0  0  0  0  0  0  0  0  0  0  0  0
   19.6746   -5.9860  -14.9871 C   0  0  0  0  0  0  0  0  0  0  0  0
   18.8635   -5.6630  -13.9138 O   0  0  0  0  0  0  0  0  0  0  0  0
   19.1093   -6.2626  -16.0658 O   0  0  0  0  0  0  0  0  0  0  0  0
  2  3  1  0
  2  1  1  6
  3  4  1  0
  4  9  2  0
  5  4  1  0
  5  6  2  0
  6  7  1  0
  7  8  2  0
  9  8  1  0
 10 12  1  0
 10  2  1  0
 11 10  2  0
 13 12  1  0
 13 14  1  6
 14 15  1  0
 15 16  1  0
 16 20  1  0
 17 16  2  0
 18 19  2  0
 18 13  1  0
 22 21  1  6
 22 24  1  0
 23 22  1  0
 24 26  1  0
 24 25  1  6
 25 18  1  0
 26 27  1  0
 28 26  2  0
M  END
$$$$
