FET.pdb
     RDKit          3D

 28 28  0  0  1  0  0  0  0  0999 V2000
   23.1639  -10.2066  -14.6119 N   0  0  0  0  0  0  0  0  0  0  0  0
   22.0992   -9.5810  -15.3305 C   0  0  1  0  0  0  0  0  0  0  0  0
   20.9933  -10.5508  -15.5849 C   0  0  0  0  0  0  0  0  0  0  0  0
   21.4056  -11.3962  -16.7444 C   0  0  0  0  0  0  0  0  0  0  0  0
   21.2664  -10.9828  -18.0519 C   0  0  0  0  0  0  0  0  0  0  0  0
   21.6484  -11.7739  -19.1205 C   0  0  0  0  0  0  0  0  0  0  0  0
   22.1937  -13.0315  -18.9107 C   0  0  0  0  0  0  0  0  0  0  0  0
   22.3358  -13.4516  -17.6055 C   0  0  0  0  0  0  0  0  0  0  0  0
   21.9508  -12.6536  -16.5342 C   0  0  0  0  0  0  0  0  0  0  0  0
   21.6708   -8.2977  -14.7332 C   0  0  0  0  0  0  0  0  0  0  0  0
   22.3042   -7.8591  -13.7383 O   0  0  0  0  0  0  0  0  0  0  0  0
   20.5793   -7.5356  -15.2276 N   0  0  0  0  0  0  0  0  0  0  0  0
   20.2609   -6.1911  -14.8146 C   0  0  1  0  0  0  0  0  0  0  0  0
   21.4133   -5.2684  -14.7235 C   0  0  0  0  0  0  0  0  0  0  0  0
   21.1480   -3.8725  -14.3050 C   0  0  0  0  0  0  0  0  0  0  0  0
   22.2735   -2.9594  -14.2427 C   0  0  0  0  0  0  0  0  0  0  0  0
   22.2791   -1.9159  -14.9318 O   0  0  0  0  0  0  0  0  0  0  0  0
   19.0683   -5.6682  -15.5238 C   0  0  0  0  0  0  0  0  0  0  0  0
   19.2363   -5.2022  -16.6717 O   0  0  0  0  0  0  0  0  0  0  0  0
   23.3715   -3.1949  -13.4357 O   0  0  0  0  0  0  0  0  0  0  0  0
   15.4535   -7.3740  -15.5462 C   0  0  0  0  0  0  0  0  0  0  0  0
   15.3406   -5.9130  -15.0887 C   0  0  1  0  0  0  0  0  0  0  0  0
   15.2247   -5.9915  -13.6944 O   0  0  0  0  0  0  0  0  0  0  0  0
   16.5616   -5.1937  -15.5205 C   0  0  2  0  0  0  0  0  0  0  0  0
   17.7786   -5.6767  -14.9660 N   0  0  0  0  0  0  0  0  0  0  0  0
   16.3986   -3.7214  -15.3848 C   0  0  0  0  0  0  0  0  0  0  0  0
   15.3618   -3.0307  -15.9866 O   0  0  0  0  0  0  0  0  0  0  0  0
   17.2090   -3.0558  -14.7065 O   0  0  0  0  0  0  0  0  0  0  0  0
  2  3  1  0
  2  1  1  1
  3  4  1  0
  4  9  2  0
  5  4  1  0
  5  6  2  0
  6  7  1  0
  7  8  2  0
  9  8  1  0
 10 12  1  0
 10  2  1  0
 11 10  2  0
 13 12  1  0
 13 14  1  6
 14 15  1  0
 15 16  1  0
 16 20  1  0
 17 16  2  0
 18 19  2  0
 18 13  1  0
 22 21  1  6
 22 24  1  0
 23 22  1  0
 24 26  1  0
 24 25  1  1
 25 18  1  0
 26 27  1  0
 28 26  2  0
M  END
$$$$
