FET.pdb
     RDKit          3D

 28 28  0  0  1  0  0  0  0  0999 V2000
   25.1589  -11.4749  -18.3499 N   0  0  0  0  0  0  0  0  0  0  0  0
   24.7370  -11.1678  -17.0199 C   0  0  1  0  0  0  0  0  0  0  0  0
   25.9141  -10.9022  -16.1412 C   0  0  0  0  0  0  0  0  0  0  0  0
   26.7124  -12.1625  -16.0798 C   0  0  0  0  0  0  0  0  0  0  0  0
   26.2715  -13.2897  -15.4204 C   0  0  0  0  0  0  0  0  0  0  0  0
   27.0191  -14.4525  -15.3660 C   0  0  0  0  0  0  0  0  0  0  0  0
   28.2588  -14.5262  -15.9829 C   0  0  0  0  0  0  0  0  0  0  0  0
   28.7061  -13.4025  -16.6443 C   0  0  0  0  0  0  0  0  0  0  0  0
   27.9519  -12.2359  -16.6969 C   0  0  0  0  0  0  0  0  0  0  0  0
   23.6821  -10.1325  -16.9697 C   0  0  0  0  0  0  0  0  0  0  0  0
   23.6979   -9.2189  -17.8347 O   0  0  0  0  0  0  0  0  0  0  0  0
   22.6514  -10.1191  -15.9929 N   0  0  0  0  0  0  0  0  0  0  0  0
   21.5723   -9.1634  -15.9489 C   0  0  1  0  0  0  0  0  0  0  0  0
   20.2300   -9.7365  -15.7097 C   0  0  0  0  0  0  0  0  0  0  0  0
   19.0858   -8.8000  -15.6217 C   0  0  0  0  0  0  0  0  0  0  0  0
   17.7731   -9.3586  -15.3583 C   0  0  0  0  0  0  0  0  0  0  0  0
   17.6401  -10.5823  -15.1375 O   0  0  0  0  0  0  0  0  0  0  0  0
   21.9241   -7.9773  -15.1316 C   0  0  0  0  0  0  0  0  0  0  0  0
   22.4490   -8.1795  -14.0150 O   0  0  0  0  0  0  0  0  0  0  0  0
   16.6299   -8.5808  -15.3397 O   0  0  0  0  0  0  0  0  0  0  0  0
   23.9322   -4.9275  -16.3237 C   0  0  0  0  0  0  0  0  0  0  0  0
   22.6104   -4.3908  -15.7566 C   0  0  1  0  0  0  0  0  0  0  0  0
   21.8322   -4.1125  -16.8883 O   0  0  0  0  0  0  0  0  0  0  0  0
   22.0128   -5.4384  -14.8963 C   0  0  2  0  0  0  0  0  0  0  0  0
   21.6954   -6.6574  -15.5561 N   0  0  0  0  0  0  0  0  0  0  0  0
   20.8866   -4.8979  -14.0888 C   0  0  0  0  0  0  0  0  0  0  0  0
   21.0509   -3.8638  -13.1844 O   0  0  0  0  0  0  0  0  0  0  0  0
   19.7373   -5.3712  -14.2108 O   0  0  0  0  0  0  0  0  0  0  0  0
  2  3  1  0
  2  1  1  6
  3  4  1  0
  4  9  2  0
  5  4  1  0
  5  6  2  0
  6  7  1  0
  7  8  2  0
  9  8  1  0
 10 12  1  0
 10  2  1  0
 11 10  2  0
 13 12  1  0
 13 14  1  1
 14 15  1  0
 15 16  1  0
 16 20  1  0
 17 16  2  0
 18 19  2  0
 18 13  1  0
 22 21  1  6
 22 24  1  0
 23 22  1  0
 24 26  1  0
 24 25  1  6
 25 18  1  0
 26 27  1  0
 28 26  2  0
M  END
$$$$
