FET.pdb
     RDKit          3D

 28 28  0  0  1  0  0  0  0  0999 V2000
   25.3150  -21.3104   -7.0198 N   0  0  0  0  0  0  0  0  0  0  0  0
   26.0381  -20.6040   -8.0295 C   0  0  1  0  0  0  0  0  0  0  0  0
   27.5061  -20.8316   -7.8837 C   0  0  0  0  0  0  0  0  0  0  0  0
   27.9393  -20.1338   -6.6368 C   0  0  0  0  0  0  0  0  0  0  0  0
   27.6826  -18.7996   -6.4048 C   0  0  0  0  0  0  0  0  0  0  0  0
   28.0903  -18.1601   -5.2478 C   0  0  0  0  0  0  0  0  0  0  0  0
   28.7831  -18.8501   -4.2645 C   0  0  0  0  0  0  0  0  0  0  0  0
   29.0434  -20.1849   -4.4898 C   0  0  0  0  0  0  0  0  0  0  0  0
   28.6319  -20.8240   -5.6538 C   0  0  0  0  0  0  0  0  0  0  0  0
   25.5091  -20.8342   -9.3913 C   0  0  0  0  0  0  0  0  0  0  0  0
   25.3137  -22.0196   -9.7654 O   0  0  0  0  0  0  0  0  0  0  0  0
   25.2105  -19.7827  -10.2977 N   0  0  0  0  0  0  0  0  0  0  0  0
   24.8199  -19.9688  -11.6734 C   0  0  1  0  0  0  0  0  0  0  0  0
   23.5044  -19.4005  -12.0392 C   0  0  0  0  0  0  0  0  0  0  0  0
   23.0480  -19.5627  -13.4390 C   0  0  0  0  0  0  0  0  0  0  0  0
   22.5147  -20.8536  -13.8314 C   0  0  0  0  0  0  0  0  0  0  0  0
   22.2248  -21.7071  -12.9647 O   0  0  0  0  0  0  0  0  0  0  0  0
   25.9347  -19.6703  -12.6044 C   0  0  0  0  0  0  0  0  0  0  0  0
   26.6263  -18.6550  -12.3718 O   0  0  0  0  0  0  0  0  0  0  0  0
   22.3066  -21.1949  -15.1553 O   0  0  0  0  0  0  0  0  0  0  0  0
   28.7445  -21.9255  -13.6061 C   0  0  0  0  0  0  0  0  0  0  0  0
   28.1048  -21.4988  -14.9347 C   0  0  1  0  0  0  0  0  0  0  0  0
   27.3514  -22.6112  -15.3328 O   0  0  0  0  0  0  0  0  0  0  0  0
   27.2679  -20.3019  -14.6860 C   0  0  2  0  0  0  0  0  0  0  0  0
   26.2397  -20.4708  -13.7183 N   0  0  0  0  0  0  0  0  0  0  0  0
   26.7826  -19.7068  -15.9599 C   0  0  0  0  0  0  0  0  0  0  0  0
   27.6284  -19.4292  -17.0191 O   0  0  0  0  0  0  0  0  0  0  0  0
   25.5723  -19.4392  -16.1117 O   0  0  0  0  0  0  0  0  0  0  0  0
  2  3  1  0
  2  1  1  1
  3  4  1  0
  4  9  2  0
  5  4  1  0
  5  6  2  0
  6  7  1  0
  7  8  2  0
  9  8  1  0
 10 12  1  0
 10  2  1  0
 11 10  2  0
 13 12  1  0
 13 14  1  6
 14 15  1  0
 15 16  1  0
 16 20  1  0
 17 16  2  0
 18 19  2  0
 18 13  1  0
 22 21  1  1
 22 24  1  0
 23 22  1  0
 24 26  1  0
 24 25  1  1
 25 18  1  0
 26 27  1  0
 28 26  2  0
M  END
$$$$
