FET.pdb
     RDKit          3D

 28 28  0  0  1  0  0  0  0  0999 V2000
   20.8937  -12.0394  -15.6283 N   0  0  0  0  0  0  0  0  0  0  0  0
   19.7756  -11.1611  -15.7685 C   0  0  1  0  0  0  0  0  0  0  0  0
   18.4935  -11.9140  -15.6361 C   0  0  0  0  0  0  0  0  0  0  0  0
   18.4228  -12.8699  -16.7809 C   0  0  0  0  0  0  0  0  0  0  0  0
   18.0674  -12.4793  -18.0540 C   0  0  0  0  0  0  0  0  0  0  0  0
   18.0016  -13.3723  -19.1085 C   0  0  0  0  0  0  0  0  0  0  0  0
   18.2955  -14.7141  -18.9188 C   0  0  0  0  0  0  0  0  0  0  0  0
   18.6518  -15.1120  -17.6480 C   0  0  0  0  0  0  0  0  0  0  0  0
   18.7169  -14.2116  -16.5909 C   0  0  0  0  0  0  0  0  0  0  0  0
   19.8745   -9.9548  -14.9186 C   0  0  0  0  0  0  0  0  0  0  0  0
   20.2854  -10.0869  -13.7366 O   0  0  0  0  0  0  0  0  0  0  0  0
   19.5288   -8.6540  -15.3713 N   0  0  0  0  0  0  0  0  0  0  0  0
   19.6462   -7.4511  -14.5844 C   0  0  1  0  0  0  0  0  0  0  0  0
   20.8085   -6.5956  -14.9076 C   0  0  0  0  0  0  0  0  0  0  0  0
   21.0099   -5.3711  -14.0988 C   0  0  0  0  0  0  0  0  0  0  0  0
   22.1342   -4.5172  -14.4325 C   0  0  0  0  0  0  0  0  0  0  0  0
   23.0525   -4.3297  -13.6046 O   0  0  0  0  0  0  0  0  0  0  0  0
   18.3449   -6.7521  -14.4550 C   0  0  0  0  0  0  0  0  0  0  0  0
   17.7638   -6.4121  -15.5085 O   0  0  0  0  0  0  0  0  0  0  0  0
   22.2415   -3.8824  -15.6564 O   0  0  0  0  0  0  0  0  0  0  0  0
   15.7604   -7.5675  -11.4130 C   0  0  0  0  0  0  0  0  0  0  0  0
   15.9523   -6.0555  -11.5968 C   0  0  1  0  0  0  0  0  0  0  0  0
   16.8378   -5.6890  -10.5745 O   0  0  0  0  0  0  0  0  0  0  0  0
   16.5105   -5.8174  -12.9482 C   0  0  2  0  0  0  0  0  0  0  0  0
   17.7489   -6.4629  -13.2157 N   0  0  0  0  0  0  0  0  0  0  0  0
   16.5203   -4.3679  -13.2818 C   0  0  0  0  0  0  0  0  0  0  0  0
   15.3820   -3.5839  -13.2190 O   0  0  0  0  0  0  0  0  0  0  0  0
   17.5799   -3.8071  -13.6318 O   0  0  0  0  0  0  0  0  0  0  0  0
  2  3  1  0
  2  1  1  1
  3  4  1  0
  4  9  2  0
  5  4  1  0
  5  6  2  0
  6  7  1  0
  7  8  2  0
  9  8  1  0
 10 12  1  0
 10  2  1  0
 11 10  2  0
 13 12  1  0
 13 14  1  6
 14 15  1  0
 15 16  1  0
 16 20  1  0
 17 16  2  0
 18 19  2  0
 18 13  1  0
 22 21  1  6
 22 24  1  0
 23 22  1  0
 24 26  1  0
 24 25  1  1
 25 18  1  0
 26 27  1  0
 28 26  2  0
M  END
$$$$
