FET.pdb
     RDKit          3D

 28 28  0  0  1  0  0  0  0  0999 V2000
   24.8339  -19.8624  -18.0875 N   0  0  0  0  0  0  0  0  0  0  0  0
   24.3580  -18.9693  -17.0789 C   0  0  1  0  0  0  0  0  0  0  0  0
   24.5884  -17.5500  -17.4797 C   0  0  0  0  0  0  0  0  0  0  0  0
   26.0577  -17.3826  -17.6859 C   0  0  0  0  0  0  0  0  0  0  0  0
   26.5970  -16.9669  -18.8843 C   0  0  0  0  0  0  0  0  0  0  0  0
   27.9600  -16.8172  -19.0677 C   0  0  0  0  0  0  0  0  0  0  0  0
   28.8465  -17.0846  -18.0354 C   0  0  0  0  0  0  0  0  0  0  0  0
   28.3141  -17.5008  -16.8339 C   0  0  0  0  0  0  0  0  0  0  0  0
   26.9438  -17.6500  -16.6535 C   0  0  0  0  0  0  0  0  0  0  0  0
   22.9784  -19.2714  -16.6398 C   0  0  0  0  0  0  0  0  0  0  0  0
   22.1076  -19.5030  -17.5180 O   0  0  0  0  0  0  0  0  0  0  0  0
   22.5882  -19.3132  -15.2751 N   0  0  0  0  0  0  0  0  0  0  0  0
   21.2535  -19.5988  -14.8096 C   0  0  1  0  0  0  0  0  0  0  0  0
   21.1372  -19.8909  -13.3645 C   0  0  0  0  0  0  0  0  0  0  0  0
   19.7991  -20.2466  -12.8380 C   0  0  0  0  0  0  0  0  0  0  0  0
   19.7000  -20.6229  -11.4405 C   0  0  0  0  0  0  0  0  0  0  0  0
   19.8597  -19.7669  -10.5430 O   0  0  0  0  0  0  0  0  0  0  0  0
   20.2653  -18.6381  -15.3568 C   0  0  0  0  0  0  0  0  0  0  0  0
   20.4843  -17.4199  -15.1803 O   0  0  0  0  0  0  0  0  0  0  0  0
   19.4306  -21.9196  -11.0424 O   0  0  0  0  0  0  0  0  0  0  0  0
   16.8904  -19.9247  -17.9322 C   0  0  0  0  0  0  0  0  0  0  0  0
   17.7129  -18.6320  -18.0276 C   0  0  1  0  0  0  0  0  0  0  0  0
   16.8469  -17.7108  -18.6318 O   0  0  0  0  0  0  0  0  0  0  0  0
   18.1092  -18.2296  -16.6580 C   0  0  2  0  0  0  0  0  0  0  0  0
   19.1127  -19.0365  -16.0548 N   0  0  0  0  0  0  0  0  0  0  0  0
   16.9196  -18.0252  -15.7886 C   0  0  0  0  0  0  0  0  0  0  0  0
   15.9658  -17.0580  -16.0511 O   0  0  0  0  0  0  0  0  0  0  0  0
   16.7448  -18.7389  -14.7788 O   0  0  0  0  0  0  0  0  0  0  0  0
  2  3  1  0
  2  1  1  6
  3  4  1  0
  4  9  2  0
  5  4  1  0
  5  6  2  0
  6  7  1  0
  7  8  2  0
  9  8  1  0
 10 12  1  0
 10  2  1  0
 11 10  2  0
 13 12  1  0
 13 14  1  1
 14 15  1  0
 15 16  1  0
 16 20  1  0
 17 16  2  0
 18 19  2  0
 18 13  1  0
 22 21  1  1
 22 24  1  0
 23 22  1  0
 24 26  1  0
 24 25  1  1
 25 18  1  0
 26 27  1  0
 28 26  2  0
M  END
$$$$
