FET.pdb
     RDKit          3D

 28 28  0  0  1  0  0  0  0  0999 V2000
   24.9064   -9.7073  -18.3504 N   0  0  0  0  0  0  0  0  0  0  0  0
   24.4469   -9.0312  -17.1787 C   0  0  1  0  0  0  0  0  0  0  0  0
   25.5278   -8.1765  -16.6049 C   0  0  0  0  0  0  0  0  0  0  0  0
   26.6940   -9.0666  -16.3274 C   0  0  0  0  0  0  0  0  0  0  0  0
   27.8933   -8.9499  -16.9967 C   0  0  0  0  0  0  0  0  0  0  0  0
   28.9679   -9.7809  -16.7354 C   0  0  0  0  0  0  0  0  0  0  0  0
   28.8751  -10.7770  -15.7752 C   0  0  0  0  0  0  0  0  0  0  0  0
   27.6785  -10.8995  -15.1017 C   0  0  0  0  0  0  0  0  0  0  0  0
   26.6008  -10.0624  -15.3671 C   0  0  0  0  0  0  0  0  0  0  0  0
   23.1530   -8.3425  -17.3753 C   0  0  0  0  0  0  0  0  0  0  0  0
   22.9005   -7.8540  -18.5071 O   0  0  0  0  0  0  0  0  0  0  0  0
   22.1810   -8.2054  -16.3492 N   0  0  0  0  0  0  0  0  0  0  0  0
   20.8842   -7.5982  -16.5205 C   0  0  1  0  0  0  0  0  0  0  0  0
   19.7653   -8.2989  -15.8537 C   0  0  0  0  0  0  0  0  0  0  0  0
   19.4456   -9.6732  -16.3044 C   0  0  0  0  0  0  0  0  0  0  0  0
   18.8784   -9.8358  -17.6297 C   0  0  0  0  0  0  0  0  0  0  0  0
   19.3559  -10.6772  -18.4221 O   0  0  0  0  0  0  0  0  0  0  0  0
   20.9368   -6.1295  -16.3233 C   0  0  0  0  0  0  0  0  0  0  0  0
   21.4552   -5.7061  -15.2673 O   0  0  0  0  0  0  0  0  0  0  0  0
   17.8055   -9.0832  -18.0710 O   0  0  0  0  0  0  0  0  0  0  0  0
   22.3467   -3.7490  -18.9373 C   0  0  0  0  0  0  0  0  0  0  0  0
   20.9583   -3.2049  -18.5726 C   0  0  1  0  0  0  0  0  0  0  0  0
   20.1347   -3.6118  -19.6307 O   0  0  0  0  0  0  0  0  0  0  0  0
   20.5532   -3.7936  -17.2749 C   0  0  2  0  0  0  0  0  0  0  0  0
   20.4363   -5.2107  -17.2613 N   0  0  0  0  0  0  0  0  0  0  0  0
   19.3615   -3.1013  -16.7152 C   0  0  0  0  0  0  0  0  0  0  0  0
   19.3469   -1.7428  -16.4539 O   0  0  0  0  0  0  0  0  0  0  0  0
   18.3188   -3.7413  -16.4642 O   0  0  0  0  0  0  0  0  0  0  0  0
  2  3  1  0
  2  1  1  6
  3  4  1  0
  4  9  2  0
  5  4  1  0
  5  6  2  0
  6  7  1  0
  7  8  2  0
  9  8  1  0
 10 12  1  0
 10  2  1  0
 11 10  2  0
 13 12  1  0
 13 14  1  1
 14 15  1  0
 15 16  1  0
 16 20  1  0
 17 16  2  0
 18 19  2  0
 18 13  1  0
 22 21  1  6
 22 24  1  0
 23 22  1  0
 24 26  1  0
 24 25  1  6
 25 18  1  0
 26 27  1  0
 28 26  2  0
M  END
$$$$
