FET.pdb
     RDKit          3D

 28 28  0  0  1  0  0  0  0  0999 V2000
   20.9874  -12.0307  -17.5627 N   0  0  0  0  0  0  0  0  0  0  0  0
   20.6779  -10.7230  -18.0478 C   0  0  1  0  0  0  0  0  0  0  0  0
   19.6953  -10.7953  -19.1691 C   0  0  0  0  0  0  0  0  0  0  0  0
   18.5443  -11.6197  -18.6950 C   0  0  0  0  0  0  0  0  0  0  0  0
   17.4339  -11.0684  -18.0926 C   0  0  0  0  0  0  0  0  0  0  0  0
   16.3731  -11.8400  -17.6535 C   0  0  0  0  0  0  0  0  0  0  0  0
   16.3896  -13.2182  -17.8062 C   0  0  0  0  0  0  0  0  0  0  0  0
   17.4970  -13.7766  -18.4079 C   0  0  0  0  0  0  0  0  0  0  0  0
   18.5611  -12.9977  -18.8480 C   0  0  0  0  0  0  0  0  0  0  0  0
   20.3191   -9.7741  -16.9717 C   0  0  0  0  0  0  0  0  0  0  0  0
   19.8098  -10.2310  -15.9157 O   0  0  0  0  0  0  0  0  0  0  0  0
   20.5214   -8.3721  -17.0716 N   0  0  0  0  0  0  0  0  0  0  0  0
   20.1355   -7.4118  -16.0673 C   0  0  1  0  0  0  0  0  0  0  0  0
   21.1969   -6.4683  -15.6542 C   0  0  0  0  0  0  0  0  0  0  0  0
   20.9005   -5.5429  -14.5362 C   0  0  0  0  0  0  0  0  0  0  0  0
   21.9818   -4.7124  -14.0406 C   0  0  0  0  0  0  0  0  0  0  0  0
   21.8408   -3.4724  -13.9622 O   0  0  0  0  0  0  0  0  0  0  0  0
   18.8142   -6.8085  -16.3653 C   0  0  0  0  0  0  0  0  0  0  0  0
   18.6012   -6.4335  -17.5388 O   0  0  0  0  0  0  0  0  0  0  0  0
   23.1952   -5.2415  -13.6403 O   0  0  0  0  0  0  0  0  0  0  0  0
   15.3275   -8.1382  -15.8305 C   0  0  0  0  0  0  0  0  0  0  0  0
   15.3917   -6.8321  -15.0263 C   0  0  1  0  0  0  0  0  0  0  0  0
   15.5649   -7.2472  -13.6992 O   0  0  0  0  0  0  0  0  0  0  0  0
   16.5329   -6.0316  -15.5278 C   0  0  2  0  0  0  0  0  0  0  0  0
   17.8088   -6.6456  -15.3971 N   0  0  0  0  0  0  0  0  0  0  0  0
   16.4935   -4.6422  -14.9980 C   0  0  0  0  0  0  0  0  0  0  0  0
   15.3881   -3.8231  -15.1445 O   0  0  0  0  0  0  0  0  0  0  0  0
   17.4770   -4.1692  -14.3909 O   0  0  0  0  0  0  0  0  0  0  0  0
  2  3  1  0
  2  1  1  1
  3  4  1  0
  4  9  2  0
  5  4  1  0
  5  6  2  0
  6  7  1  0
  7  8  2  0
  9  8  1  0
 10 12  1  0
 10  2  1  0
 11 10  2  0
 13 12  1  0
 13 14  1  6
 14 15  1  0
 15 16  1  0
 16 20  1  0
 17 16  2  0
 18 19  2  0
 18 13  1  0
 22 21  1  6
 22 24  1  0
 23 22  1  0
 24 26  1  0
 24 25  1  1
 25 18  1  0
 26 27  1  0
 28 26  2  0
M  END
$$$$
