FET.pdb
     RDKit          3D

 28 28  0  0  1  0  0  0  0  0999 V2000
   28.5418  -20.9360   -8.8742 N   0  0  0  0  0  0  0  0  0  0  0  0
   27.1780  -20.5251   -8.7619 C   0  0  1  0  0  0  0  0  0  0  0  0
   27.0599  -19.3228   -7.8852 C   0  0  0  0  0  0  0  0  0  0  0  0
   27.7460  -19.6452   -6.5989 C   0  0  0  0  0  0  0  0  0  0  0  0
   27.1621  -20.4191   -5.6192 C   0  0  0  0  0  0  0  0  0  0  0  0
   27.8039  -20.7106   -4.4289 C   0  0  0  0  0  0  0  0  0  0  0  0
   29.0783  -20.2264   -4.1750 C   0  0  0  0  0  0  0  0  0  0  0  0
   29.6685  -19.4516   -5.1505 C   0  0  0  0  0  0  0  0  0  0  0  0
   29.0203  -19.1610   -6.3455 C   0  0  0  0  0  0  0  0  0  0  0  0
   26.4978  -20.4058  -10.0696 C   0  0  0  0  0  0  0  0  0  0  0  0
   26.9195  -19.5481  -10.8881 O   0  0  0  0  0  0  0  0  0  0  0  0
   25.3917  -21.2123  -10.4474 N   0  0  0  0  0  0  0  0  0  0  0  0
   24.7383  -21.1626  -11.7321 C   0  0  1  0  0  0  0  0  0  0  0  0
   25.2414  -22.1266  -12.7346 C   0  0  0  0  0  0  0  0  0  0  0  0
   24.7286  -22.0123  -14.1195 C   0  0  0  0  0  0  0  0  0  0  0  0
   25.2741  -22.9110  -15.1192 C   0  0  0  0  0  0  0  0  0  0  0  0
   24.5129  -23.6156  -15.8177 O   0  0  0  0  0  0  0  0  0  0  0  0
   23.2641  -21.0833  -11.5940 C   0  0  0  0  0  0  0  0  0  0  0  0
   22.7592  -21.5061  -10.5313 O   0  0  0  0  0  0  0  0  0  0  0  0
   26.6337  -23.0293  -15.3423 O   0  0  0  0  0  0  0  0  0  0  0  0
   20.8302  -18.3642  -11.3157 C   0  0  0  0  0  0  0  0  0  0  0  0
   20.4944  -19.0500  -12.6474 C   0  0  1  0  0  0  0  0  0  0  0  0
   21.1385  -18.2678  -13.6153 O   0  0  0  0  0  0  0  0  0  0  0  0
   21.0099  -20.4381  -12.5998 C   0  0  2  0  0  0  0  0  0  0  0  0
   22.4266  -20.5596  -12.5936 N   0  0  0  0  0  0  0  0  0  0  0  0
   20.3522  -21.2949  -13.6225 C   0  0  0  0  0  0  0  0  0  0  0  0
   18.9872  -21.5204  -13.6353 O   0  0  0  0  0  0  0  0  0  0  0  0
   21.0288  -21.8425  -14.5180 O   0  0  0  0  0  0  0  0  0  0  0  0
  2  3  1  0
  2  1  1  6
  3  4  1  0
  4  9  2  0
  5  4  1  0
  5  6  2  0
  6  7  1  0
  7  8  2  0
  9  8  1  0
 10 12  1  0
 10  2  1  0
 11 10  2  0
 13 12  1  0
 13 14  1  6
 14 15  1  0
 15 16  1  0
 16 20  1  0
 17 16  2  0
 18 19  2  0
 18 13  1  0
 22 21  1  1
 22 24  1  0
 23 22  1  0
 24 26  1  0
 24 25  1  6
 25 18  1  0
 26 27  1  0
 28 26  2  0
M  END
$$$$
