FET.pdb
     RDKit          3D

 28 28  0  0  1  0  0  0  0  0999 V2000
   24.5048  -17.2006  -17.8589 N   0  0  0  0  0  0  0  0  0  0  0  0
   24.4245  -18.1065  -16.7570 C   0  0  1  0  0  0  0  0  0  0  0  0
   25.1963  -17.5870  -15.5897 C   0  0  0  0  0  0  0  0  0  0  0  0
   26.6264  -17.4997  -16.0097 C   0  0  0  0  0  0  0  0  0  0  0  0
   27.2255  -16.3099  -16.3633 C   0  0  0  0  0  0  0  0  0  0  0  0
   28.5506  -16.2385  -16.7541 C   0  0  0  0  0  0  0  0  0  0  0  0
   29.3360  -17.3802  -16.8049 C   0  0  0  0  0  0  0  0  0  0  0  0
   28.7433  -18.5740  -16.4525 C   0  0  0  0  0  0  0  0  0  0  0  0
   27.4114  -18.6416  -16.0602 C   0  0  0  0  0  0  0  0  0  0  0  0
   23.0395  -18.5222  -16.4466 C   0  0  0  0  0  0  0  0  0  0  0  0
   22.1790  -17.6286  -16.2361 O   0  0  0  0  0  0  0  0  0  0  0  0
   22.6329  -19.8809  -16.3749 N   0  0  0  0  0  0  0  0  0  0  0  0
   21.2740  -20.3236  -16.1819 C   0  0  1  0  0  0  0  0  0  0  0  0
   20.6944  -21.0923  -17.3046 C   0  0  0  0  0  0  0  0  0  0  0  0
   20.2808  -20.3425  -18.5132 C   0  0  0  0  0  0  0  0  0  0  0  0
   19.7997  -21.1043  -19.6503 C   0  0  0  0  0  0  0  0  0  0  0  0
   19.7770  -22.3539  -19.6093 O   0  0  0  0  0  0  0  0  0  0  0  0
   21.0726  -20.9006  -14.8309 C   0  0  0  0  0  0  0  0  0  0  0  0
   21.9829  -21.6222  -14.3687 O   0  0  0  0  0  0  0  0  0  0  0  0
   19.3533  -20.4974  -20.8099 O   0  0  0  0  0  0  0  0  0  0  0  0
   21.3779  -19.8172  -11.8084 C   0  0  0  0  0  0  0  0  0  0  0  0
   19.9248  -20.2829  -11.6408 C   0  0  1  0  0  0  0  0  0  0  0  0
   19.1758  -19.0986  -11.6441 O   0  0  0  0  0  0  0  0  0  0  0  0
   19.5875  -21.1748  -12.7746 C   0  0  2  0  0  0  0  0  0  0  0  0
   19.9187  -20.6711  -14.0624 N   0  0  0  0  0  0  0  0  0  0  0  0
   18.1864  -21.6651  -12.6790 C   0  0  0  0  0  0  0  0  0  0  0  0
   17.7432  -22.4456  -11.6261 O   0  0  0  0  0  0  0  0  0  0  0  0
   17.3540  -21.3762  -13.5641 O   0  0  0  0  0  0  0  0  0  0  0  0
  2  3  1  0
  2  1  1  6
  3  4  1  0
  4  9  2  0
  5  4  1  0
  5  6  2  0
  6  7  1  0
  7  8  2  0
  9  8  1  0
 10 12  1  0
 10  2  1  0
 11 10  2  0
 13 12  1  0
 13 14  1  6
 14 15  1  0
 15 16  1  0
 16 20  1  0
 17 16  2  0
 18 19  2  0
 18 13  1  0
 22 21  1  6
 22 24  1  0
 23 22  1  0
 24 26  1  0
 24 25  1  6
 25 18  1  0
 26 27  1  0
 28 26  2  0
M  END
$$$$
