FET.pdb
     RDKit          3D

 28 28  0  0  1  0  0  0  0  0999 V2000
   29.0587  -20.0634  -12.2389 N   0  0  0  0  0  0  0  0  0  0  0  0
   28.0032  -20.9695  -11.9129 C   0  0  1  0  0  0  0  0  0  0  0  0
   27.8876  -21.1345  -10.4339 C   0  0  0  0  0  0  0  0  0  0  0  0
   29.2309  -21.5473   -9.9295 C   0  0  0  0  0  0  0  0  0  0  0  0
   30.1421  -22.2242  -10.7113 C   0  0  0  0  0  0  0  0  0  0  0  0
   31.3837  -22.6056  -10.2350 C   0  0  0  0  0  0  0  0  0  0  0  0
   31.7615  -22.3158   -8.9326 C   0  0  0  0  0  0  0  0  0  0  0  0
   30.8551  -21.6389   -8.1448 C   0  0  0  0  0  0  0  0  0  0  0  0
   29.6084  -21.2572   -8.6272 C   0  0  0  0  0  0  0  0  0  0  0  0
   26.7328  -20.6528  -12.6007 C   0  0  0  0  0  0  0  0  0  0  0  0
   26.4055  -19.4444  -12.7276 O   0  0  0  0  0  0  0  0  0  0  0  0
   25.8638  -21.6458  -13.1254 N   0  0  0  0  0  0  0  0  0  0  0  0
   24.6851  -21.3754  -13.9111 C   0  0  1  0  0  0  0  0  0  0  0  0
   24.7273  -21.8698  -15.3044 C   0  0  0  0  0  0  0  0  0  0  0  0
   24.9806  -23.3137  -15.5166 C   0  0  0  0  0  0  0  0  0  0  0  0
   24.9552  -23.8119  -16.8789 C   0  0  0  0  0  0  0  0  0  0  0  0
   26.0211  -24.0989  -17.4664 O   0  0  0  0  0  0  0  0  0  0  0  0
   23.4438  -21.6731  -13.1566 C   0  0  0  0  0  0  0  0  0  0  0  0
   23.4069  -22.7366  -12.5005 O   0  0  0  0  0  0  0  0  0  0  0  0
   23.7755  -23.9889  -17.5784 O   0  0  0  0  0  0  0  0  0  0  0  0
   21.7723  -19.6579  -10.5426 C   0  0  0  0  0  0  0  0  0  0  0  0
   20.6834  -19.8541  -11.6067 C   0  0  1  0  0  0  0  0  0  0  0  0
   20.6388  -18.6317  -12.2904 O   0  0  0  0  0  0  0  0  0  0  0  0
   21.0829  -20.9823  -12.4798 C   0  0  2  0  0  0  0  0  0  0  0  0
   22.3268  -20.8205  -13.1495 N   0  0  0  0  0  0  0  0  0  0  0  0
   19.9751  -21.3818  -13.3885 C   0  0  0  0  0  0  0  0  0  0  0  0
   18.7404  -21.7923  -12.9179 O   0  0  0  0  0  0  0  0  0  0  0  0
   20.1323  -21.3535  -14.6271 O   0  0  0  0  0  0  0  0  0  0  0  0
  2  3  1  0
  2  1  1  1
  3  4  1  0
  4  9  2  0
  5  4  1  0
  5  6  2  0
  6  7  1  0
  7  8  2  0
  9  8  1  0
 10 12  1  0
 10  2  1  0
 11 10  2  0
 13 12  1  0
 13 14  1  6
 14 15  1  0
 15 16  1  0
 16 20  1  0
 17 16  2  0
 18 19  2  0
 18 13  1  0
 22 21  1  1
 22 24  1  0
 23 22  1  0
 24 26  1  0
 24 25  1  6
 25 18  1  0
 26 27  1  0
 28 26  2  0
M  END
$$$$
