FET.pdb
     RDKit          3D

 28 28  0  0  1  0  0  0  0  0999 V2000
   25.1032  -11.6435  -18.2784 N   0  0  0  0  0  0  0  0  0  0  0  0
   24.8228  -11.1735  -16.9587 C   0  0  1  0  0  0  0  0  0  0  0  0
   26.0715  -10.7021  -16.2902 C   0  0  0  0  0  0  0  0  0  0  0  0
   26.9825  -11.8795  -16.1761 C   0  0  0  0  0  0  0  0  0  0  0  0
   28.1566  -11.9824  -16.8908 C   0  0  0  0  0  0  0  0  0  0  0  0
   28.9935  -13.0784  -16.7812 C   0  0  0  0  0  0  0  0  0  0  0  0
   28.6757  -14.1296  -15.9345 C   0  0  0  0  0  0  0  0  0  0  0  0
   27.5028  -14.0335  -15.2165 C   0  0  0  0  0  0  0  0  0  0  0  0
   26.6644  -12.9304  -15.3293 C   0  0  0  0  0  0  0  0  0  0  0  0
   23.6966  -10.2161  -16.9102 C   0  0  0  0  0  0  0  0  0  0  0  0
   23.5813   -9.3793  -17.8428 O   0  0  0  0  0  0  0  0  0  0  0  0
   22.7383  -10.1951  -15.8624 N   0  0  0  0  0  0  0  0  0  0  0  0
   21.6179   -9.2899  -15.7906 C   0  0  1  0  0  0  0  0  0  0  0  0
   20.3488   -9.8908  -15.3262 C   0  0  0  0  0  0  0  0  0  0  0  0
   19.1545   -9.0168  -15.2623 C   0  0  0  0  0  0  0  0  0  0  0  0
   17.9111   -9.6033  -14.7992 C   0  0  0  0  0  0  0  0  0  0  0  0
   17.8785  -10.2536  -13.7316 O   0  0  0  0  0  0  0  0  0  0  0  0
   21.9937   -8.0026  -15.1578 C   0  0  0  0  0  0  0  0  0  0  0  0
   22.6543   -8.0506  -14.0975 O   0  0  0  0  0  0  0  0  0  0  0  0
   16.7272   -9.4745  -15.5023 O   0  0  0  0  0  0  0  0  0  0  0  0
   23.8742   -5.2280  -16.7897 C   0  0  0  0  0  0  0  0  0  0  0  0
   22.5945   -4.5642  -16.2623 C   0  0  1  0  0  0  0  0  0  0  0  0
   21.7822   -4.4223  -17.3952 O   0  0  0  0  0  0  0  0  0  0  0  0
   21.9965   -5.4526  -15.2386 C   0  0  2  0  0  0  0  0  0  0  0  0
   21.6430   -6.7522  -15.6946 N   0  0  0  0  0  0  0  0  0  0  0  0
   20.8977   -4.7694  -14.5046 C   0  0  0  0  0  0  0  0  0  0  0  0
   21.0960   -3.6006  -13.7913 O   0  0  0  0  0  0  0  0  0  0  0  0
   19.7414   -5.2411  -14.5158 O   0  0  0  0  0  0  0  0  0  0  0  0
  2  3  1  0
  2  1  1  6
  3  4  1  0
  4  9  2  0
  5  4  1  0
  5  6  2  0
  6  7  1  0
  7  8  2  0
  9  8  1  0
 10 12  1  0
 10  2  1  0
 11 10  2  0
 13 12  1  0
 13 14  1  1
 14 15  1  0
 15 16  1  0
 16 20  1  0
 17 16  2  0
 18 19  2  0
 18 13  1  0
 22 21  1  6
 22 24  1  0
 23 22  1  0
 24 26  1  0
 24 25  1  6
 25 18  1  0
 26 27  1  0
 28 26  2  0
M  END
$$$$
