FET.pdb
     RDKit          3D

 28 28  0  0  1  0  0  0  0  0999 V2000
   27.4328  -22.0767  -11.6381 N   0  0  0  0  0  0  0  0  0  0  0  0
   26.3930  -21.1440  -11.3380 C   0  0  1  0  0  0  0  0  0  0  0  0
   26.9655  -19.8113  -10.9856 C   0  0  0  0  0  0  0  0  0  0  0  0
   27.3606  -19.8670   -9.5468 C   0  0  0  0  0  0  0  0  0  0  0  0
   26.4463  -19.7625   -8.5208 C   0  0  0  0  0  0  0  0  0  0  0  0
   26.8214  -19.8122   -7.1902 C   0  0  0  0  0  0  0  0  0  0  0  0
   28.1526  -19.9713   -6.8358 C   0  0  0  0  0  0  0  0  0  0  0  0
   29.0728  -20.0765   -7.8569 C   0  0  0  0  0  0  0  0  0  0  0  0
   28.6918  -20.0262   -9.1929 C   0  0  0  0  0  0  0  0  0  0  0  0
   25.3304  -21.1081  -12.3660 C   0  0  0  0  0  0  0  0  0  0  0  0
   25.6694  -21.1048  -13.5778 O   0  0  0  0  0  0  0  0  0  0  0  0
   23.9458  -21.0775  -12.0526 N   0  0  0  0  0  0  0  0  0  0  0  0
   22.8812  -21.1437  -13.0232 C   0  0  1  0  0  0  0  0  0  0  0  0
   21.7615  -22.0442  -12.6725 C   0  0  0  0  0  0  0  0  0  0  0  0
   20.6295  -22.1399  -13.6231 C   0  0  0  0  0  0  0  0  0  0  0  0
   19.5580  -23.0658  -13.3081 C   0  0  0  0  0  0  0  0  0  0  0  0
   19.2262  -23.9503  -14.1274 O   0  0  0  0  0  0  0  0  0  0  0  0
   22.4992  -19.7962  -13.5101 C   0  0  0  0  0  0  0  0  0  0  0  0
   22.2623  -18.9174  -12.6530 O   0  0  0  0  0  0  0  0  0  0  0  0
   18.8663  -23.0148  -12.1117 O   0  0  0  0  0  0  0  0  0  0  0  0
   24.2451  -17.6702  -16.3455 C   0  0  0  0  0  0  0  0  0  0  0  0
   22.7710  -17.8931  -16.7113 C   0  0  1  0  0  0  0  0  0  0  0  0
   22.7960  -18.9450  -17.6368 O   0  0  0  0  0  0  0  0  0  0  0  0
   22.0309  -18.2378  -15.4751 C   0  0  2  0  0  0  0  0  0  0  0  0
   22.3959  -19.4737  -14.8739 N   0  0  0  0  0  0  0  0  0  0  0  0
   20.5631  -18.0881  -15.6636 C   0  0  0  0  0  0  0  0  0  0  0  0
   19.9889  -16.9137  -16.1167 O   0  0  0  0  0  0  0  0  0  0  0  0
   19.7937  -19.0402  -15.4159 O   0  0  0  0  0  0  0  0  0  0  0  0
  2  3  1  0
  2  1  1  6
  3  4  1  0
  4  9  2  0
  5  4  1  0
  5  6  2  0
  6  7  1  0
  7  8  2  0
  9  8  1  0
 10 12  1  0
 10  2  1  0
 11 10  2  0
 13 12  1  0
 13 14  1  1
 14 15  1  0
 15 16  1  0
 16 20  1  0
 17 16  2  0
 18 19  2  0
 18 13  1  0
 22 21  1  1
 22 24  1  0
 23 22  1  0
 24 26  1  0
 24 25  1  6
 25 18  1  0
 26 27  1  0
 28 26  2  0
M  END
$$$$
