NWT.pdb
     RDKit          3D

 30 31  0  0  1  0  0  0  0  0999 V2000
   32.7637  -24.9822  -18.6173 N   0  0  0  0  0  0  0  0  0  0  0  0
   32.7778  -24.8201  -17.2366 C   0  0  0  0  0  0  0  0  0  0  0  0
   33.8468  -25.0872  -16.5920 O   0  0  0  0  0  0  0  0  0  0  0  0
   31.5995  -24.3413  -16.4631 C   0  0  0  0  0  0  0  0  0  0  0  0
   30.4621  -24.1000  -17.5132 C   0  0  2  0  0  0  0  0  0  0  0  0
   30.8657  -22.9746  -18.2793 N   0  0  0  0  0  0  0  0  0  0  0  0
   29.1945  -23.8904  -16.7234 C   0  0  0  0  0  0  0  0  0  0  0  0
   28.8007  -24.7882  -15.9939 O   0  0  0  0  0  0  0  0  0  0  0  0
   28.4749  -22.6586  -16.8466 N   0  0  0  0  0  0  0  0  0  0  0  0
   27.2694  -22.2521  -16.3164 C   0  0  1  0  0  0  0  0  0  0  0  0
   26.8677  -20.8582  -15.9826 C   0  0  0  0  0  0  0  0  0  0  0  0
   25.5280  -20.5498  -15.5202 C   0  0  0  0  0  0  0  0  0  0  0  0
   25.0429  -20.6473  -14.1951 C   0  0  0  0  0  0  0  0  0  0  0  0
   23.7980  -20.1809  -14.1375 N   0  0  0  0  0  0  0  0  0  0  0  0
   23.4414  -19.7761  -15.3969 C   0  0  0  0  0  0  0  0  0  0  0  0
   22.2467  -19.2585  -15.8879 C   0  0  0  0  0  0  0  0  0  0  0  0
   22.1440  -18.9868  -17.2179 C   0  0  0  0  0  0  0  0  0  0  0  0
   23.1711  -19.1991  -18.0833 C   0  0  0  0  0  0  0  0  0  0  0  0
   24.3710  -19.7143  -17.5990 C   0  0  0  0  0  0  0  0  0  0  0  0
   24.4940  -20.0048  -16.2269 C   0  0  0  0  0  0  0  0  0  0  0  0
   26.0822  -22.8241  -17.0939 C   0  0  0  0  0  0  0  0  0  0  0  0
   26.0843  -22.5527  -18.3156 O   0  0  0  0  0  0  0  0  0  0  0  0
   24.3605  -26.2008  -15.9771 C   0  0  0  0  0  0  0  0  0  0  0  0
   24.2148  -25.6781  -17.4249 C   0  0  1  0  0  0  0  0  0  0  0  0
   23.1738  -26.3610  -18.0363 O   0  0  0  0  0  0  0  0  0  0  0  0
   23.9981  -24.2024  -17.3241 C   0  0  2  0  0  0  0  0  0  0  0  0
   25.0760  -23.5910  -16.5237 N   0  0  0  0  0  0  0  0  0  0  0  0
   22.7029  -23.9817  -16.5912 C   0  0  0  0  0  0  0  0  0  0  0  0
   21.5956  -24.1526  -17.1867 O   0  0  0  0  0  0  0  0  0  0  0  0
   22.6835  -23.5942  -15.2706 O   0  0  0  0  0  0  0  0  0  0  0  0
  2  1  1  0
  2  3  2  0
  4  2  1  0
  5  7  1  0
  5  4  1  0
  5  6  1  1
  7  8  2  0
  9 10  1  0
  9  7  1  0
 10 21  1  0
 11 12  1  0
 10 11  1  6
 12 13  2  0
 14 13  1  0
 15 14  1  0
 16 15  2  0
 17 16  1  0
 18 19  1  0
 18 17  2  0
 19 20  2  0
 20 15  1  0
 20 12  1  0
 21 22  2  0
 24 23  1  1
 24 25  1  0
 24 26  1  0
 26 28  1  0
 26 27  1  1
 27 21  1  0
 28 29  2  0
 28 30  1  0
M  END
$$$$
