NWT.pdb
     RDKit          3D

 30 31  0  0  1  0  0  0  0  0999 V2000
   27.8651  -21.3011  -19.1261 N   0  0  0  0  0  0  0  0  0  0  0  0
   27.6027  -20.6765  -17.9121 C   0  0  0  0  0  0  0  0  0  0  0  0
   28.0375  -19.4922  -17.7177 O   0  0  0  0  0  0  0  0  0  0  0  0
   26.8285  -21.3225  -16.8170 C   0  0  0  0  0  0  0  0  0  0  0  0
   27.8687  -21.6667  -15.6971 C   0  0  2  0  0  0  0  0  0  0  0  0
   28.6019  -22.7865  -16.1712 N   0  0  0  0  0  0  0  0  0  0  0  0
   27.0704  -21.9327  -14.4454 C   0  0  0  0  0  0  0  0  0  0  0  0
   26.9821  -23.0811  -14.0370 O   0  0  0  0  0  0  0  0  0  0  0  0
   26.4274  -20.8476  -13.7677 N   0  0  0  0  0  0  0  0  0  0  0  0
   25.7078  -20.8071  -12.5929 C   0  0  1  0  0  0  0  0  0  0  0  0
   26.1187  -20.1568  -11.3184 C   0  0  0  0  0  0  0  0  0  0  0  0
   27.2563  -20.6387  -10.5587 C   0  0  0  0  0  0  0  0  0  0  0  0
   28.4448  -21.2056  -11.0754 C   0  0  0  0  0  0  0  0  0  0  0  0
   29.3025  -21.4314  -10.0834 N   0  0  0  0  0  0  0  0  0  0  0  0
   28.7105  -21.0289   -8.9153 C   0  0  0  0  0  0  0  0  0  0  0  0
   29.1545  -21.0848   -7.5976 C   0  0  0  0  0  0  0  0  0  0  0  0
   28.3266  -20.6577   -6.6051 C   0  0  0  0  0  0  0  0  0  0  0  0
   27.0813  -20.1730   -6.8571 C   0  0  0  0  0  0  0  0  0  0  0  0
   26.6308  -20.1113   -8.1736 C   0  0  0  0  0  0  0  0  0  0  0  0
   27.4722  -20.5523   -9.2128 C   0  0  0  0  0  0  0  0  0  0  0  0
   24.2682  -20.3419  -12.8212 C   0  0  0  0  0  0  0  0  0  0  0  0
   24.1515  -19.1199  -13.0648 O   0  0  0  0  0  0  0  0  0  0  0  0
   22.1678  -21.4603  -15.5197 C   0  0  0  0  0  0  0  0  0  0  0  0
   21.3017  -21.6816  -14.2583 C   0  0  1  0  0  0  0  0  0  0  0  0
   21.3752  -23.0206  -13.9037 O   0  0  0  0  0  0  0  0  0  0  0  0
   21.8234  -20.7466  -13.2151 C   0  0  2  0  0  0  0  0  0  0  0  0
   23.1637  -21.1809  -12.7778 N   0  0  0  0  0  0  0  0  0  0  0  0
   20.9047  -20.8322  -12.0268 C   0  0  0  0  0  0  0  0  0  0  0  0
   21.3228  -21.3154  -10.9305 O   0  0  0  0  0  0  0  0  0  0  0  0
   19.6020  -20.3932  -12.0947 O   0  0  0  0  0  0  0  0  0  0  0  0
  2  1  1  0
  2  3  2  0
  4  2  1  0
  5  7  1  0
  5  4  1  0
  5  6  1  6
  7  8  2  0
  9 10  1  0
  9  7  1  0
 10 21  1  0
 11 12  1  0
 10 11  1  1
 12 13  2  0
 14 13  1  0
 15 14  1  0
 16 15  2  0
 17 16  1  0
 18 19  1  0
 18 17  2  0
 19 20  2  0
 20 15  1  0
 20 12  1  0
 21 22  2  0
 24 23  1  6
 24 25  1  0
 24 26  1  0
 26 28  1  0
 26 27  1  1
 27 21  1  0
 28 29  2  0
 28 30  1  0
M  END
$$$$
