NWT.pdb
     RDKit          3D

 30 31  0  0  1  0  0  0  0  0999 V2000
   29.3889  -20.8234  -17.1295 N   0  0  0  0  0  0  0  0  0  0  0  0
   28.1891  -20.1404  -16.9659 C   0  0  0  0  0  0  0  0  0  0  0  0
   27.8998  -19.1940  -17.7721 O   0  0  0  0  0  0  0  0  0  0  0  0
   27.2115  -20.4623  -15.8905 C   0  0  0  0  0  0  0  0  0  0  0  0
   27.8579  -21.6156  -15.0497 C   0  0  2  0  0  0  0  0  0  0  0  0
   27.8410  -22.7665  -15.8814 N   0  0  0  0  0  0  0  0  0  0  0  0
   27.0274  -21.7430  -13.7973 C   0  0  0  0  0  0  0  0  0  0  0  0
   26.0258  -22.4425  -13.8244 O   0  0  0  0  0  0  0  0  0  0  0  0
   27.4167  -21.0419  -12.6111 N   0  0  0  0  0  0  0  0  0  0  0  0
   26.8043  -20.9228  -11.3822 C   0  0  1  0  0  0  0  0  0  0  0  0
   27.3882  -20.3259  -10.1498 C   0  0  0  0  0  0  0  0  0  0  0  0
   26.7054  -20.4134   -8.8732 C   0  0  0  0  0  0  0  0  0  0  0  0
   25.3662  -20.8110   -8.6513 C   0  0  0  0  0  0  0  0  0  0  0  0
   25.1261  -20.8688   -7.3437 N   0  0  0  0  0  0  0  0  0  0  0  0
   26.2765  -20.5161   -6.6885 C   0  0  0  0  0  0  0  0  0  0  0  0
   26.5503  -20.3749   -5.3315 C   0  0  0  0  0  0  0  0  0  0  0  0
   27.7863  -19.9513   -4.9496 C   0  0  0  0  0  0  0  0  0  0  0  0
   28.7655  -19.6658   -5.8490 C   0  0  0  0  0  0  0  0  0  0  0  0
   28.5000  -19.8072   -7.2088 C   0  0  0  0  0  0  0  0  0  0  0  0
   27.2258  -20.2408   -7.6223 C   0  0  0  0  0  0  0  0  0  0  0  0
   25.4127  -20.2972  -11.4964 C   0  0  0  0  0  0  0  0  0  0  0  0
   25.4150  -19.0589  -11.6774 O   0  0  0  0  0  0  0  0  0  0  0  0
   21.0088  -20.6963  -13.3400 C   0  0  0  0  0  0  0  0  0  0  0  0
   22.4072  -21.2672  -13.0103 C   0  0  1  0  0  0  0  0  0  0  0  0
   23.1886  -21.2050  -14.1546 O   0  0  0  0  0  0  0  0  0  0  0  0
   22.9365  -20.4617  -11.8676 C   0  0  2  0  0  0  0  0  0  0  0  0
   24.2281  -21.0160  -11.4195 N   0  0  0  0  0  0  0  0  0  0  0  0
   21.9626  -20.5931  -10.7285 C   0  0  0  0  0  0  0  0  0  0  0  0
   22.0202  -21.5950   -9.9521 O   0  0  0  0  0  0  0  0  0  0  0  0
   20.9950  -19.6415  -10.4992 O   0  0  0  0  0  0  0  0  0  0  0  0
  2  1  1  0
  2  3  2  0
  4  2  1  0
  5  7  1  0
  5  4  1  0
  5  6  1  6
  7  8  2  0
  9 10  1  0
  9  7  1  0
 10 21  1  0
 11 12  1  0
 10 11  1  1
 12 13  2  0
 14 13  1  0
 15 14  1  0
 16 15  2  0
 17 16  1  0
 18 19  1  0
 18 17  2  0
 19 20  2  0
 20 15  1  0
 20 12  1  0
 21 22  2  0
 24 23  1  6
 24 25  1  0
 24 26  1  0
 26 28  1  0
 26 27  1  1
 27 21  1  0
 28 29  2  0
 28 30  1  0
M  END
$$$$
