NWT.pdb
     RDKit          3D

 30 31  0  0  1  0  0  0  0  0999 V2000
   28.4248  -21.4175  -18.6698 N   0  0  0  0  0  0  0  0  0  0  0  0
   28.2201  -20.8154  -17.4335 C   0  0  0  0  0  0  0  0  0  0  0  0
   28.8252  -19.7232  -17.1682 O   0  0  0  0  0  0  0  0  0  0  0  0
   27.3184  -21.3823  -16.3936 C   0  0  0  0  0  0  0  0  0  0  0  0
   28.1401  -21.3773  -15.0596 C   0  0  2  0  0  0  0  0  0  0  0  0
   29.2037  -22.2989  -15.2487 N   0  0  0  0  0  0  0  0  0  0  0  0
   27.1744  -21.7603  -13.9663 C   0  0  0  0  0  0  0  0  0  0  0  0
   26.8538  -22.9336  -13.8491 O   0  0  0  0  0  0  0  0  0  0  0  0
   26.6467  -20.7517  -13.0976 N   0  0  0  0  0  0  0  0  0  0  0  0
   25.8136  -20.8385  -12.0031 C   0  0  1  0  0  0  0  0  0  0  0  0
   26.1004  -20.3553  -10.6246 C   0  0  0  0  0  0  0  0  0  0  0  0
   27.2954  -20.7688   -9.9142 C   0  0  0  0  0  0  0  0  0  0  0  0
   28.3945  -21.4841  -10.4444 C   0  0  0  0  0  0  0  0  0  0  0  0
   29.3480  -21.5898   -9.5222 N   0  0  0  0  0  0  0  0  0  0  0  0
   28.9074  -20.9618   -8.3871 C   0  0  0  0  0  0  0  0  0  0  0  0
   29.4934  -20.8209   -7.1329 C   0  0  0  0  0  0  0  0  0  0  0  0
   28.7999  -20.1842   -6.1497 C   0  0  0  0  0  0  0  0  0  0  0  0
   27.5549  -19.6760   -6.3523 C   0  0  0  0  0  0  0  0  0  0  0  0
   26.9628  -19.8107   -7.6057 C   0  0  0  0  0  0  0  0  0  0  0  0
   27.6639  -20.4696   -8.6335 C   0  0  0  0  0  0  0  0  0  0  0  0
   24.4081  -20.3195  -12.3133 C   0  0  0  0  0  0  0  0  0  0  0  0
   24.3636  -19.1152  -12.6507 O   0  0  0  0  0  0  0  0  0  0  0  0
   22.4901  -20.8835  -15.0353 C   0  0  0  0  0  0  0  0  0  0  0  0
   21.5102  -21.3113  -13.9186 C   0  0  1  0  0  0  0  0  0  0  0  0
   21.5409  -22.6940  -13.8126 O   0  0  0  0  0  0  0  0  0  0  0  0
   21.9410  -20.5965  -12.6784 C   0  0  2  0  0  0  0  0  0  0  0  0
   23.2597  -21.0957  -12.2446 N   0  0  0  0  0  0  0  0  0  0  0  0
   20.9492  -20.9250  -11.5960 C   0  0  0  0  0  0  0  0  0  0  0  0
   21.3070  -21.6083  -10.5884 O   0  0  0  0  0  0  0  0  0  0  0  0
   19.6427  -20.4979  -11.6671 O   0  0  0  0  0  0  0  0  0  0  0  0
  2  1  1  0
  2  3  2  0
  4  2  1  0
  5  7  1  0
  5  4  1  0
  5  6  1  6
  7  8  2  0
  9 10  1  0
  9  7  1  0
 10 21  1  0
 11 12  1  0
 10 11  1  1
 12 13  2  0
 14 13  1  0
 15 14  1  0
 16 15  2  0
 17 16  1  0
 18 19  1  0
 18 17  2  0
 19 20  2  0
 20 15  1  0
 20 12  1  0
 21 22  2  0
 24 23  1  6
 24 25  1  0
 24 26  1  0
 26 28  1  0
 26 27  1  1
 27 21  1  0
 28 29  2  0
 28 30  1  0
M  END
$$$$
