NWT.pdb
     RDKit          3D

 30 31  0  0  1  0  0  0  0  0999 V2000
   28.8980  -17.5009  -16.4352 N   0  0  0  0  0  0  0  0  0  0  0  0
   29.5086  -18.7066  -16.1091 C   0  0  0  0  0  0  0  0  0  0  0  0
   30.6399  -18.9889  -16.6287 O   0  0  0  0  0  0  0  0  0  0  0  0
   28.9071  -19.6940  -15.1715 C   0  0  0  0  0  0  0  0  0  0  0  0
   27.4881  -19.1374  -14.8092 C   0  0  2  0  0  0  0  0  0  0  0  0
   27.7013  -18.1036  -13.8593 N   0  0  0  0  0  0  0  0  0  0  0  0
   26.6955  -20.3083  -14.2844 C   0  0  0  0  0  0  0  0  0  0  0  0
   26.7240  -21.3621  -14.9024 O   0  0  0  0  0  0  0  0  0  0  0  0
   25.9228  -20.1651  -13.0875 N   0  0  0  0  0  0  0  0  0  0  0  0
   25.0463  -21.0254  -12.4620 C   0  0  1  0  0  0  0  0  0  0  0  0
   25.0982  -21.4743  -11.0437 C   0  0  0  0  0  0  0  0  0  0  0  0
   26.0987  -20.9623  -10.1269 C   0  0  0  0  0  0  0  0  0  0  0  0
   25.8744  -20.1477   -8.9925 C   0  0  0  0  0  0  0  0  0  0  0  0
   27.0183  -19.9655   -8.3377 N   0  0  0  0  0  0  0  0  0  0  0  0
   28.0017  -20.6398   -9.0124 C   0  0  0  0  0  0  0  0  0  0  0  0
   29.3698  -20.7386   -8.7780 C   0  0  0  0  0  0  0  0  0  0  0  0
   30.1387  -21.4427   -9.6533 C   0  0  0  0  0  0  0  0  0  0  0  0
   29.6149  -22.0578  -10.7472 C   0  0  0  0  0  0  0  0  0  0  0  0
   28.2461  -21.9657  -10.9871 C   0  0  0  0  0  0  0  0  0  0  0  0
   27.4360  -21.2384  -10.0944 C   0  0  0  0  0  0  0  0  0  0  0  0
   23.5887  -20.6195  -12.6892 C   0  0  0  0  0  0  0  0  0  0  0  0
   23.2939  -19.4834  -12.2550 O   0  0  0  0  0  0  0  0  0  0  0  0
   21.9743  -20.2167  -15.9189 C   0  0  0  0  0  0  0  0  0  0  0  0
   21.0437  -21.1712  -15.1359 C   0  0  1  0  0  0  0  0  0  0  0  0
   21.3036  -22.4713  -15.5436 O   0  0  0  0  0  0  0  0  0  0  0  0
   21.3058  -20.9248  -13.6849 C   0  0  2  0  0  0  0  0  0  0  0  0
   22.6497  -21.4174  -13.3277 N   0  0  0  0  0  0  0  0  0  0  0  0
   20.3022  -21.7239  -12.8991 C   0  0  0  0  0  0  0  0  0  0  0  0
   20.6745  -22.7369  -12.2319 O   0  0  0  0  0  0  0  0  0  0  0  0
   18.9691  -21.3817  -12.8813 O   0  0  0  0  0  0  0  0  0  0  0  0
  2  1  1  0
  2  3  2  0
  4  2  1  0
  5  7  1  0
  5  4  1  0
  5  6  1  1
  7  8  2  0
  9 10  1  0
  9  7  1  0
 10 21  1  0
 11 12  1  0
 10 11  1  1
 12 13  2  0
 14 13  1  0
 15 14  1  0
 16 15  2  0
 17 16  1  0
 18 19  1  0
 18 17  2  0
 19 20  2  0
 20 15  1  0
 20 12  1  0
 21 22  2  0
 24 23  1  6
 24 25  1  0
 24 26  1  0
 26 28  1  0
 26 27  1  1
 27 21  1  0
 28 29  2  0
 28 30  1  0
M  END
$$$$
