NWT.pdb
     RDKit          3D

 30 31  0  0  1  0  0  0  0  0999 V2000
   28.3452  -19.4364  -18.0092 N   0  0  0  0  0  0  0  0  0  0  0  0
   28.3310  -20.7644  -17.5980 C   0  0  0  0  0  0  0  0  0  0  0  0
   29.2470  -21.5513  -18.0120 O   0  0  0  0  0  0  0  0  0  0  0  0
   27.2945  -21.3211  -16.6861 C   0  0  0  0  0  0  0  0  0  0  0  0
   27.7883  -21.0137  -15.2313 C   0  0  2  0  0  0  0  0  0  0  0  0
   29.0034  -21.7302  -15.0682 N   0  0  0  0  0  0  0  0  0  0  0  0
   26.6804  -21.4524  -14.3068 C   0  0  0  0  0  0  0  0  0  0  0  0
   25.9124  -22.3257  -14.6821 O   0  0  0  0  0  0  0  0  0  0  0  0
   26.5420  -20.8384  -13.0208 N   0  0  0  0  0  0  0  0  0  0  0  0
   25.6770  -21.0942  -11.9787 C   0  0  1  0  0  0  0  0  0  0  0  0
   25.8860  -20.7568  -10.5440 C   0  0  0  0  0  0  0  0  0  0  0  0
   27.1478  -21.0272   -9.8820 C   0  0  0  0  0  0  0  0  0  0  0  0
   28.2454  -21.7487  -10.4069 C   0  0  0  0  0  0  0  0  0  0  0  0
   29.2643  -21.6999   -9.5525 N   0  0  0  0  0  0  0  0  0  0  0  0
   28.8690  -20.9628   -8.4674 C   0  0  0  0  0  0  0  0  0  0  0  0
   29.5313  -20.6471   -7.2850 C   0  0  0  0  0  0  0  0  0  0  0  0
   28.8731  -19.9311   -6.3325 C   0  0  0  0  0  0  0  0  0  0  0  0
   27.5912  -19.5088   -6.4987 C   0  0  0  0  0  0  0  0  0  0  0  0
   26.9226  -19.8184   -7.6805 C   0  0  0  0  0  0  0  0  0  0  0  0
   27.5865  -20.5614   -8.6753 C   0  0  0  0  0  0  0  0  0  0  0  0
   24.2555  -20.6197  -12.2875 C   0  0  0  0  0  0  0  0  0  0  0  0
   24.1500  -19.3864  -12.4721 O   0  0  0  0  0  0  0  0  0  0  0  0
   20.1297  -21.3604  -14.6035 C   0  0  0  0  0  0  0  0  0  0  0  0
   21.5570  -21.7736  -14.1766 C   0  0  1  0  0  0  0  0  0  0  0  0
   22.4252  -21.5019  -15.2237 O   0  0  0  0  0  0  0  0  0  0  0  0
   21.8610  -21.0183  -12.9228 C   0  0  2  0  0  0  0  0  0  0  0  0
   23.1556  -21.4618  -12.3719 N   0  0  0  0  0  0  0  0  0  0  0  0
   20.7954  -21.3586  -11.9169 C   0  0  0  0  0  0  0  0  0  0  0  0
   20.7916  -22.4942  -11.3508 O   0  0  0  0  0  0  0  0  0  0  0  0
   19.8082  -20.4584  -11.5859 O   0  0  0  0  0  0  0  0  0  0  0  0
  2  1  1  0
  2  3  2  0
  4  2  1  0
  5  7  1  0
  5  4  1  0
  5  6  1  1
  7  8  2  0
  9 10  1  0
  9  7  1  0
 10 21  1  0
 11 12  1  0
 10 11  1  1
 12 13  2  0
 14 13  1  0
 15 14  1  0
 16 15  2  0
 17 16  1  0
 18 19  1  0
 18 17  2  0
 19 20  2  0
 20 15  1  0
 20 12  1  0
 21 22  2  0
 24 23  1  6
 24 25  1  0
 24 26  1  0
 26 28  1  0
 26 27  1  1
 27 21  1  0
 28 29  2  0
 28 30  1  0
M  END
$$$$
