NWT.pdb
     RDKit          3D

 30 31  0  0  1  0  0  0  0  0999 V2000
   19.4643  -10.7255  -20.3419 N   0  0  0  0  0  0  0  0  0  0  0  0
   18.6657  -10.1136  -19.3824 C   0  0  0  0  0  0  0  0  0  0  0  0
   17.6846   -9.3906  -19.7620 O   0  0  0  0  0  0  0  0  0  0  0  0
   18.8952  -10.2634  -17.9192 C   0  0  0  0  0  0  0  0  0  0  0  0
   20.1416  -11.2010  -17.7709 C   0  0  2  0  0  0  0  0  0  0  0  0
   19.6296  -12.5187  -17.6375 N   0  0  0  0  0  0  0  0  0  0  0  0
   20.9024  -10.7061  -16.5664 C   0  0  0  0  0  0  0  0  0  0  0  0
   20.4593  -10.9434  -15.4526 O   0  0  0  0  0  0  0  0  0  0  0  0
   22.1148   -9.9657  -16.7456 N   0  0  0  0  0  0  0  0  0  0  0  0
   23.0248   -9.4755  -15.8339 C   0  0  1  0  0  0  0  0  0  0  0  0
   24.4735   -9.8084  -15.7542 C   0  0  0  0  0  0  0  0  0  0  0  0
   24.9233  -11.1690  -15.5301 C   0  0  0  0  0  0  0  0  0  0  0  0
   24.1210  -12.2851  -15.1963 C   0  0  0  0  0  0  0  0  0  0  0  0
   24.8694  -13.3851  -15.1742 N   0  0  0  0  0  0  0  0  0  0  0  0
   26.1547  -13.0261  -15.4842 C   0  0  0  0  0  0  0  0  0  0  0  0
   27.3232  -13.7784  -15.5555 C   0  0  0  0  0  0  0  0  0  0  0  0
   28.4962  -13.1479  -15.8378 C   0  0  0  0  0  0  0  0  0  0  0  0
   28.5650  -11.8077  -16.0577 C   0  0  0  0  0  0  0  0  0  0  0  0
   27.3994  -11.0484  -15.9907 C   0  0  0  0  0  0  0  0  0  0  0  0
   26.1777  -11.6832  -15.6963 C   0  0  0  0  0  0  0  0  0  0  0  0
   22.9697   -7.9496  -15.7367 C   0  0  0  0  0  0  0  0  0  0  0  0
   23.5747   -7.3502  -16.6538 O   0  0  0  0  0  0  0  0  0  0  0  0
   19.7963   -6.1226  -14.5344 C   0  0  0  0  0  0  0  0  0  0  0  0
   20.8955   -5.3642  -15.3135 C   0  0  1  0  0  0  0  0  0  0  0  0
   20.6448   -4.0035  -15.2153 O   0  0  0  0  0  0  0  0  0  0  0  0
   22.2026   -5.7860  -14.7234 C   0  0  2  0  0  0  0  0  0  0  0  0
   22.3055   -7.2576  -14.7337 N   0  0  0  0  0  0  0  0  0  0  0  0
   22.2199   -5.3366  -13.2878 C   0  0  0  0  0  0  0  0  0  0  0  0
   22.1283   -6.1880  -12.3514 O   0  0  0  0  0  0  0  0  0  0  0  0
   22.3354   -4.0062  -12.9544 O   0  0  0  0  0  0  0  0  0  0  0  0
  2  1  1  0
  2  3  2  0
  4  2  1  0
  5  7  1  0
  5  4  1  0
  5  6  1  1
  7  8  2  0
  9 10  1  0
  9  7  1  0
 10 21  1  0
 11 12  1  0
 10 11  1  6
 12 13  2  0
 14 13  1  0
 15 14  1  0
 16 15  2  0
 17 16  1  0
 18 19  1  0
 18 17  2  0
 19 20  2  0
 20 15  1  0
 20 12  1  0
 21 22  2  0
 24 23  1  1
 24 25  1  0
 24 26  1  0
 26 28  1  0
 26 27  1  1
 27 21  1  0
 28 29  2  0
 28 30  1  0
M  END
$$$$
