NWT.pdb
     RDKit          3D

 30 31  0  0  1  0  0  0  0  0999 V2000
   29.1313  -22.0804  -19.4998 N   0  0  0  0  0  0  0  0  0  0  0  0
   27.9402  -22.7325  -19.2016 C   0  0  0  0  0  0  0  0  0  0  0  0
   27.2125  -23.1622  -20.1583 O   0  0  0  0  0  0  0  0  0  0  0  0
   27.4667  -22.9622  -17.8092 C   0  0  0  0  0  0  0  0  0  0  0  0
   28.5550  -22.3341  -16.8733 C   0  0  2  0  0  0  0  0  0  0  0  0
   29.7210  -23.1279  -17.0372 N   0  0  0  0  0  0  0  0  0  0  0  0
   27.9792  -22.3577  -15.4796 C   0  0  0  0  0  0  0  0  0  0  0  0
   28.5119  -23.0622  -14.6350 O   0  0  0  0  0  0  0  0  0  0  0  0
   26.8238  -21.5693  -15.1737 N   0  0  0  0  0  0  0  0  0  0  0  0
   26.2147  -21.2754  -13.9728 C   0  0  1  0  0  0  0  0  0  0  0  0
   26.6772  -20.2907  -12.9567 C   0  0  0  0  0  0  0  0  0  0  0  0
   27.6230  -20.6629  -11.9220 C   0  0  0  0  0  0  0  0  0  0  0  0
   29.0040  -20.9208  -12.0860 C   0  0  0  0  0  0  0  0  0  0  0  0
   29.5657  -21.1292  -10.8978 N   0  0  0  0  0  0  0  0  0  0  0  0
   28.5880  -21.0179   -9.9446 C   0  0  0  0  0  0  0  0  0  0  0  0
   28.6327  -21.1847   -8.5638 C   0  0  0  0  0  0  0  0  0  0  0  0
   27.4805  -21.0667   -7.8485 C   0  0  0  0  0  0  0  0  0  0  0  0
   26.2869  -20.7861   -8.4365 C   0  0  0  0  0  0  0  0  0  0  0  0
   26.2345  -20.6151   -9.8177 C   0  0  0  0  0  0  0  0  0  0  0  0
   27.4158  -20.7372  -10.5740 C   0  0  0  0  0  0  0  0  0  0  0  0
   24.7225  -20.9849  -14.1459 C   0  0  0  0  0  0  0  0  0  0  0  0
   24.4673  -20.0138  -14.8929 O   0  0  0  0  0  0  0  0  0  0  0  0
   20.0587  -22.5469  -13.9050 C   0  0  0  0  0  0  0  0  0  0  0  0
   21.5469  -22.8276  -13.5938 C   0  0  1  0  0  0  0  0  0  0  0  0
   21.9479  -23.9353  -14.3261 O   0  0  0  0  0  0  0  0  0  0  0  0
   22.2938  -21.5760  -13.9257 C   0  0  2  0  0  0  0  0  0  0  0  0
   23.7118  -21.7230  -13.5462 N   0  0  0  0  0  0  0  0  0  0  0  0
   21.7112  -20.4647  -13.0956 C   0  0  0  0  0  0  0  0  0  0  0  0
   22.2145  -20.1807  -11.9660 O   0  0  0  0  0  0  0  0  0  0  0  0
   20.6305  -19.7336  -13.5336 O   0  0  0  0  0  0  0  0  0  0  0  0
  2  1  1  0
  2  3  2  0
  4  2  1  0
  5  7  1  0
  5  4  1  0
  5  6  1  1
  7  8  2  0
  9 10  1  0
  9  7  1  0
 10 21  1  0
 11 12  1  0
 10 11  1  6
 12 13  2  0
 14 13  1  0
 15 14  1  0
 16 15  2  0
 17 16  1  0
 18 19  1  0
 18 17  2  0
 19 20  2  0
 20 15  1  0
 20 12  1  0
 21 22  2  0
 24 23  1  6
 24 25  1  0
 24 26  1  0
 26 28  1  0
 26 27  1  1
 27 21  1  0
 28 29  2  0
 28 30  1  0
M  END
$$$$
