NWT.pdb
     RDKit          3D

 30 31  0  0  1  0  0  0  0  0999 V2000
   21.9136  -25.0872  -14.4026 N   0  0  0  0  0  0  0  0  0  0  0  0
   22.0461  -23.7033  -14.4064 C   0  0  0  0  0  0  0  0  0  0  0  0
   21.4036  -23.0168  -13.5431 O   0  0  0  0  0  0  0  0  0  0  0  0
   22.9116  -22.9730  -15.3725 C   0  0  0  0  0  0  0  0  0  0  0  0
   24.0160  -22.2661  -14.5149 C   0  0  2  0  0  0  0  0  0  0  0  0
   23.3552  -21.2380  -13.7919 N   0  0  0  0  0  0  0  0  0  0  0  0
   25.0552  -21.7701  -15.4889 C   0  0  0  0  0  0  0  0  0  0  0  0
   24.6915  -21.3754  -16.5867 O   0  0  0  0  0  0  0  0  0  0  0  0
   26.4384  -21.7783  -15.1189 N   0  0  0  0  0  0  0  0  0  0  0  0
   27.5477  -21.2379  -15.7329 C   0  0  1  0  0  0  0  0  0  0  0  0
   28.3289  -20.0545  -15.2800 C   0  0  0  0  0  0  0  0  0  0  0  0
   27.7182  -18.7430  -15.1755 C   0  0  0  0  0  0  0  0  0  0  0  0
   26.8695  -18.2807  -14.1427 C   0  0  0  0  0  0  0  0  0  0  0  0
   26.5905  -16.9937  -14.3335 N   0  0  0  0  0  0  0  0  0  0  0  0
   27.2337  -16.5880  -15.4731 C   0  0  0  0  0  0  0  0  0  0  0  0
   27.2401  -15.3633  -16.1338 C   0  0  0  0  0  0  0  0  0  0  0  0
   27.9346  -15.2472  -17.2988 C   0  0  0  0  0  0  0  0  0  0  0  0
   28.6273  -16.2861  -17.8374 C   0  0  0  0  0  0  0  0  0  0  0  0
   28.6280  -17.5142  -17.1806 C   0  0  0  0  0  0  0  0  0  0  0  0
   27.9120  -17.6537  -15.9763 C   0  0  0  0  0  0  0  0  0  0  0  0
   28.6007  -22.3024  -16.0481 C   0  0  0  0  0  0  0  0  0  0  0  0
   29.2161  -22.7340  -15.0475 O   0  0  0  0  0  0  0  0  0  0  0  0
   28.6936  -25.6950  -16.7340 C   0  0  0  0  0  0  0  0  0  0  0  0
   29.3046  -25.0689  -18.0088 C   0  0  1  0  0  0  0  0  0  0  0  0
   28.3014  -24.9356  -18.9574 O   0  0  0  0  0  0  0  0  0  0  0  0
   29.9233  -23.7736  -17.5916 C   0  0  2  0  0  0  0  0  0  0  0  0
   28.8685  -22.7775  -17.3242 N   0  0  0  0  0  0  0  0  0  0  0  0
   30.7460  -23.2696  -18.7458 C   0  0  0  0  0  0  0  0  0  0  0  0
   30.3680  -22.2519  -19.4026 O   0  0  0  0  0  0  0  0  0  0  0  0
   31.9175  -23.8901  -19.1160 O   0  0  0  0  0  0  0  0  0  0  0  0
  2  1  1  0
  2  3  2  0
  4  2  1  0
  5  7  1  0
  5  4  1  0
  5  6  1  6
  7  8  2  0
  9 10  1  0
  9  7  1  0
 10 21  1  0
 11 12  1  0
 10 11  1  1
 12 13  2  0
 14 13  1  0
 15 14  1  0
 16 15  2  0
 17 16  1  0
 18 19  1  0
 18 17  2  0
 19 20  2  0
 20 15  1  0
 20 12  1  0
 21 22  2  0
 24 23  1  1
 24 25  1  0
 24 26  1  0
 26 28  1  0
 26 27  1  6
 27 21  1  0
 28 29  2  0
 28 30  1  0
M  END
$$$$
