NIK.pdb
     RDKit          3D

 26 25  0  0  1  0  0  0  0  0999 V2000
   19.4465  -14.6449  -17.8782 N   0  0  0  0  0  0  0  0  0  0  0  0
   18.6946  -13.5002  -17.4998 C   0  0  0  0  0  0  0  0  0  0  0  0
   17.5114  -13.4230  -17.9150 O   0  0  0  0  0  0  0  0  0  0  0  0
   19.3308  -12.4750  -16.6512 C   0  0  0  0  0  0  0  0  0  0  0  0
   20.7828  -12.7880  -16.3658 C   0  0  2  0  0  0  0  0  0  0  0  0
   20.9408  -13.9320  -15.5082 N   0  0  0  0  0  0  0  0  0  0  0  0
   21.3939  -11.5767  -15.7708 C   0  0  0  0  0  0  0  0  0  0  0  0
   21.0965  -11.2517  -14.5957 O   0  0  0  0  0  0  0  0  0  0  0  0
   26.4341  -11.1945  -15.2893 C   0  0  0  0  0  0  0  0  0  0  0  0
   24.9994  -10.9149  -15.2669 C   0  0  0  0  0  0  0  0  0  0  0  0
   24.4093   -9.7617  -15.9228 C   0  0  2  0  0  0  0  0  0  0  0  0
   25.1930   -8.4689  -15.7085 C   0  0  0  0  0  0  0  0  0  0  0  0
   22.9527   -9.5702  -15.8459 C   0  0  2  0  0  0  0  0  0  0  0  0
   22.3038  -10.7715  -16.4850 N   0  0  0  0  0  0  0  0  0  0  0  0
   22.3044   -8.3813  -16.3815 C   0  0  0  0  0  0  0  0  0  0  0  0
   22.1722   -8.2458  -17.6740 O   0  0  0  0  0  0  0  0  0  0  0  0
   21.7462   -7.2839  -15.6881 N   0  0  0  0  0  0  0  0  0  0  0  0
   21.0657   -6.1874  -16.3824 C   0  0  1  0  0  0  0  0  0  0  0  0
   19.7612   -6.7122  -16.9210 C   0  0  0  0  0  0  0  0  0  0  0  0
   18.9808   -5.6838  -17.6513 C   0  0  0  0  0  0  0  0  0  0  0  0
   17.6910   -6.2929  -18.2464 C   0  0  0  0  0  0  0  0  0  0  0  0
   17.0237   -5.1469  -19.0125 C   0  0  0  0  0  0  0  0  0  0  0  0
   15.9269   -5.6716  -19.8017 N   0  0  0  0  0  0  0  0  0  0  0  0
   20.8151   -5.0969  -15.4422 C   0  0  0  0  0  0  0  0  0  0  0  0
   20.6900   -3.7545  -15.7501 O   0  0  0  0  0  0  0  0  0  0  0  0
   20.6945   -5.3679  -14.2067 O   0  0  0  0  0  0  0  0  0  0  0  0
  1  2  1  0
  2  3  2  0
  4  5  1  0
  4  2  1  0
  5  7  1  0
  5  6  1  1
  7 14  1  0
  7  8  2  0
 10 11  1  0
 10  9  1  0
 11 13  1  0
 11 12  1  1
 13 15  1  0
 13 14  1  6
 15 16  2  0
 17 18  1  0
 17 15  1  0
 18 24  1  0
 18 19  1  1
 20 19  1  0
 21 20  1  0
 22 21  1  0
 23 22  1  0
 24 25  1  0
 26 24  2  0
M  END
$$$$
