NIK.pdb
     RDKit          3D

 26 25  0  0  1  0  0  0  0  0999 V2000
   17.1154   -9.5219  -18.2146 N   0  0  0  0  0  0  0  0  0  0  0  0
   16.2986  -10.1618  -17.2439 C   0  0  0  0  0  0  0  0  0  0  0  0
   15.1097  -10.4123  -17.5637 O   0  0  0  0  0  0  0  0  0  0  0  0
   16.8780  -10.4951  -15.9290 C   0  0  0  0  0  0  0  0  0  0  0  0
   18.3153  -10.0409  -15.8046 C   0  0  2  0  0  0  0  0  0  0  0  0
   19.2488  -11.0413  -16.2485 N   0  0  0  0  0  0  0  0  0  0  0  0
   18.5483   -9.6732  -14.3886 C   0  0  0  0  0  0  0  0  0  0  0  0
   18.5990  -10.5766  -13.5189 O   0  0  0  0  0  0  0  0  0  0  0  0
   21.7402   -5.2396  -13.1969 C   0  0  0  0  0  0  0  0  0  0  0  0
   20.5125   -6.0325  -13.2300 C   0  0  0  0  0  0  0  0  0  0  0  0
   20.3922   -7.3288  -12.5868 C   0  0  2  0  0  0  0  0  0  0  0  0
   21.5331   -8.2864  -12.9229 C   0  0  0  0  0  0  0  0  0  0  0  0
   19.0773   -7.9881  -12.5604 C   0  0  2  0  0  0  0  0  0  0  0  0
   18.7157   -8.3340  -13.9824 N   0  0  0  0  0  0  0  0  0  0  0  0
   17.9144   -7.3594  -11.9498 C   0  0  0  0  0  0  0  0  0  0  0  0
   17.1613   -6.5658  -12.6633 O   0  0  0  0  0  0  0  0  0  0  0  0
   17.4263   -7.4846  -10.6296 N   0  0  0  0  0  0  0  0  0  0  0  0
   16.2111   -6.8003  -10.1795 C   0  0  1  0  0  0  0  0  0  0  0  0
   15.3351   -7.8096   -9.4856 C   0  0  0  0  0  0  0  0  0  0  0  0
   14.1156   -7.2077   -8.8936 C   0  0  0  0  0  0  0  0  0  0  0  0
   13.2540   -8.2852   -8.1969 C   0  0  0  0  0  0  0  0  0  0  0  0
   12.0308   -7.5351   -7.6614 C   0  0  0  0  0  0  0  0  0  0  0  0
   11.1783   -8.4596   -6.9405 N   0  0  0  0  0  0  0  0  0  0  0  0
   16.5703   -5.7296   -9.2520 C   0  0  0  0  0  0  0  0  0  0  0  0
   15.8182   -4.6074   -8.9561 O   0  0  0  0  0  0  0  0  0  0  0  0
   17.6790   -5.7988   -8.6352 O   0  0  0  0  0  0  0  0  0  0  0  0
  1  2  1  0
  2  3  2  0
  4  5  1  0
  4  2  1  0
  5  7  1  0
  5  6  1  1
  7 14  1  0
  7  8  2  0
 10 11  1  0
 10  9  1  0
 11 13  1  0
 11 12  1  6
 13 15  1  0
 13 14  1  6
 15 16  2  0
 17 18  1  0
 17 15  1  0
 18 24  1  0
 18 19  1  1
 20 19  1  0
 21 20  1  0
 22 21  1  0
 23 22  1  0
 24 25  1  0
 26 24  2  0
M  END
$$$$
