NIK.pdb
     RDKit          3D

 26 25  0  0  1  0  0  0  0  0999 V2000
   18.1785  -28.8984   -4.0771 N   0  0  0  0  0  0  0  0  0  0  0  0
   18.2101  -28.3357   -2.7728 C   0  0  0  0  0  0  0  0  0  0  0  0
   18.7022  -29.0360   -1.8532 O   0  0  0  0  0  0  0  0  0  0  0  0
   17.6719  -26.9779   -2.5663 C   0  0  0  0  0  0  0  0  0  0  0  0
   17.1388  -26.3723   -3.8457 C   0  0  2  0  0  0  0  0  0  0  0  0
   18.1380  -26.2991   -4.8779 N   0  0  0  0  0  0  0  0  0  0  0  0
   16.6007  -25.0319   -3.5169 C   0  0  0  0  0  0  0  0  0  0  0  0
   17.1545  -24.0124   -3.9954 O   0  0  0  0  0  0  0  0  0  0  0  0
   11.5427  -22.2304   -4.1481 C   0  0  0  0  0  0  0  0  0  0  0  0
   12.7513  -22.3416   -3.3334 C   0  0  0  0  0  0  0  0  0  0  0  0
   13.6059  -23.5155   -3.3446 C   0  0  2  0  0  0  0  0  0  0  0  0
   12.8367  -24.8326   -3.2735 C   0  0  0  0  0  0  0  0  0  0  0  0
   14.8226  -23.5150   -2.5175 C   0  0  2  0  0  0  0  0  0  0  0  0
   15.4803  -24.8617   -2.6788 N   0  0  0  0  0  0  0  0  0  0  0  0
   14.7840  -23.2104   -1.0939 C   0  0  0  0  0  0  0  0  0  0  0  0
   14.7304  -24.1860   -0.2270 O   0  0  0  0  0  0  0  0  0  0  0  0
   14.8099  -21.9515   -0.4527 N   0  0  0  0  0  0  0  0  0  0  0  0
   14.8488  -21.8203    1.0063 C   0  0  1  0  0  0  0  0  0  0  0  0
   15.6001  -20.5596    1.3432 C   0  0  0  0  0  0  0  0  0  0  0  0
   15.6627  -20.2952    2.8014 C   0  0  0  0  0  0  0  0  0  0  0  0
   16.4054  -18.9704    3.0880 C   0  0  0  0  0  0  0  0  0  0  0  0
   16.3931  -18.8265    4.6127 C   0  0  0  0  0  0  0  0  0  0  0  0
   17.0351  -17.5806    4.9824 N   0  0  0  0  0  0  0  0  0  0  0  0
   13.4846  -21.7421    1.5246 C   0  0  0  0  0  0  0  0  0  0  0  0
   13.0691  -22.0583    2.8052 O   0  0  0  0  0  0  0  0  0  0  0  0
   12.5563  -21.3489    0.7513 O   0  0  0  0  0  0  0  0  0  0  0  0
  1  2  1  0
  2  3  2  0
  4  5  1  0
  4  2  1  0
  5  7  1  0
  5  6  1  6
  7 14  1  0
  7  8  2  0
 10 11  1  0
 10  9  1  0
 11 13  1  0
 11 12  1  1
 13 15  1  0
 13 14  1  1
 15 16  2  0
 17 18  1  0
 17 15  1  0
 18 24  1  0
 18 19  1  6
 20 19  1  0
 21 20  1  0
 22 21  1  0
 23 22  1  0
 24 25  1  0
 26 24  2  0
M  END
$$$$
