AIL.pdb
     RDKit          3D

 22 21  0  0  1  0  0  0  0  0999 V2000
   23.0377  -10.1512  -20.4582 C   0  0  0  0  0  0  0  0  0  0  0  0
   22.9529  -10.2177  -18.9628 C   0  0  2  0  0  0  0  0  0  0  0  0
   23.0467  -11.5628  -18.4468 N   0  0  0  0  0  0  0  0  0  0  0  0
   21.6841   -9.5509  -18.5468 C   0  0  0  0  0  0  0  0  0  0  0  0
   21.5593   -8.3395  -18.8683 O   0  0  0  0  0  0  0  0  0  0  0  0
   17.9320  -12.6279  -18.4070 C   0  0  0  0  0  0  0  0  0  0  0  0
   17.9288  -11.1279  -18.6553 C   0  0  0  0  0  0  0  0  0  0  0  0
   18.2814  -10.4654  -17.3489 C   0  0  2  0  0  0  0  0  0  0  0  0
   17.0847   -9.7920  -16.7654 C   0  0  0  0  0  0  0  0  0  0  0  0
   19.4733   -9.5431  -17.4752 C   0  0  2  0  0  0  0  0  0  0  0  0
   20.6743  -10.2430  -17.8289 N   0  0  0  0  0  0  0  0  0  0  0  0
   19.6976   -8.8792  -16.1602 C   0  0  0  0  0  0  0  0  0  0  0  0
   20.3552   -9.4387  -15.2479 O   0  0  0  0  0  0  0  0  0  0  0  0
   22.1037   -6.3339  -12.8154 C   0  0  0  0  0  0  0  0  0  0  0  0
   21.5079   -5.4780  -13.9409 C   0  0  1  0  0  0  0  0  0  0  0  0
   22.6389   -4.6066  -14.4413 C   0  0  0  0  0  0  0  0  0  0  0  0
   21.0443   -6.4411  -14.9913 C   0  0  0  0  0  0  0  0  0  0  0  0
   19.5608   -6.7178  -14.8465 C   0  0  2  0  0  0  0  0  0  0  0  0
   19.1655   -7.6030  -15.9316 N   0  0  0  0  0  0  0  0  0  0  0  0
   18.7684   -5.4763  -14.8364 C   0  0  0  0  0  0  0  0  0  0  0  0
   18.4333   -4.9259  -15.9045 O   0  0  0  0  0  0  0  0  0  0  0  0
   18.3895   -4.9110  -13.6388 O   0  0  0  0  0  0  0  0  0  0  0  0
  2  1  1  6
  2  3  1  0
  4  2  1  0
  4  5  2  0
  6  7  1  0
  7  8  1  0
  8 10  1  0
  8  9  1  6
 10 11  1  1
 10 12  1  0
 11  4  1  0
 12 19  1  0
 13 12  2  0
 15 14  1  1
 15 16  1  0
 17 15  1  0
 18 17  1  6
 19 18  1  0
 20 22  1  0
 20 18  1  0
 21 20  2  0
M  END
$$$$
