AIL.pdb
     RDKit          3D

 22 21  0  0  1  0  0  0  0  0999 V2000
   29.8443  -20.0246  -13.8924 C   0  0  0  0  0  0  0  0  0  0  0  0
   28.4331  -20.4052  -14.2260 C   0  0  2  0  0  0  0  0  0  0  0  0
   28.0084  -19.9347  -15.5232 N   0  0  0  0  0  0  0  0  0  0  0  0
   27.5519  -19.8951  -13.1347 C   0  0  0  0  0  0  0  0  0  0  0  0
   27.2820  -18.6652  -13.1650 O   0  0  0  0  0  0  0  0  0  0  0  0
   23.1149  -20.0536  -13.8559 C   0  0  0  0  0  0  0  0  0  0  0  0
   24.4915  -19.7491  -13.2870 C   0  0  0  0  0  0  0  0  0  0  0  0
   24.6104  -20.5111  -11.9925 C   0  0  2  0  0  0  0  0  0  0  0  0
   23.4532  -20.2085  -11.1006 C   0  0  0  0  0  0  0  0  0  0  0  0
   25.9465  -20.2942  -11.3183 C   0  0  2  0  0  0  0  0  0  0  0  0
   27.0462  -20.7481  -12.1195 N   0  0  0  0  0  0  0  0  0  0  0  0
   25.9603  -21.0608  -10.0407 C   0  0  0  0  0  0  0  0  0  0  0  0
   25.8441  -22.3115  -10.0262 O   0  0  0  0  0  0  0  0  0  0  0  0
   28.3690  -18.5165   -5.7917 C   0  0  0  0  0  0  0  0  0  0  0  0
   27.9917  -19.5953   -6.8156 C   0  0  1  0  0  0  0  0  0  0  0  0
   28.9501  -20.7421   -6.5808 C   0  0  0  0  0  0  0  0  0  0  0  0
   26.5777  -19.9828   -6.5055 C   0  0  0  0  0  0  0  0  0  0  0  0
   26.0678  -20.9967   -7.5108 C   0  0  2  0  0  0  0  0  0  0  0  0
   26.1058  -20.3764   -8.8264 N   0  0  0  0  0  0  0  0  0  0  0  0
   24.7176  -21.4770   -7.1707 C   0  0  0  0  0  0  0  0  0  0  0  0
   24.5562  -22.3712   -6.3161 O   0  0  0  0  0  0  0  0  0  0  0  0
   23.6166  -20.9379   -7.7988 O   0  0  0  0  0  0  0  0  0  0  0  0
  2  1  1  1
  2  3  1  0
  4  2  1  0
  4  5  2  0
  6  7  1  0
  7  8  1  0
  8 10  1  0
  8  9  1  1
 10 11  1  6
 10 12  1  0
 11  4  1  0
 12 19  1  0
 13 12  2  0
 15 14  1  1
 15 16  1  0
 17 15  1  0
 18 17  1  1
 19 18  1  0
 20 22  1  0
 20 18  1  0
 21 20  2  0
M  END
$$$$
