AIL.pdb
     RDKit          3D

 22 21  0  0  1  0  0  0  0  0999 V2000
   23.7665  -20.8197  -14.5629 C   0  0  0  0  0  0  0  0  0  0  0  0
   22.6395  -21.1068  -15.5090 C   0  0  2  0  0  0  0  0  0  0  0  0
   22.9154  -22.2035  -16.4065 N   0  0  0  0  0  0  0  0  0  0  0  0
   22.3321  -19.8477  -16.2493 C   0  0  0  0  0  0  0  0  0  0  0  0
   23.0089  -19.6332  -17.2897 O   0  0  0  0  0  0  0  0  0  0  0  0
   17.4904  -18.4840  -16.1417 C   0  0  0  0  0  0  0  0  0  0  0  0
   18.6608  -18.3395  -17.1013 C   0  0  0  0  0  0  0  0  0  0  0  0
   19.6093  -17.3409  -16.4903 C   0  0  2  0  0  0  0  0  0  0  0  0
   19.3716  -15.9812  -17.0567 C   0  0  0  0  0  0  0  0  0  0  0  0
   21.0527  -17.7793  -16.5966 C   0  0  2  0  0  0  0  0  0  0  0  0
   21.3331  -18.9426  -15.8058 N   0  0  0  0  0  0  0  0  0  0  0  0
   21.9199  -16.6704  -16.1081 C   0  0  0  0  0  0  0  0  0  0  0  0
   22.2577  -16.5864  -14.9012 O   0  0  0  0  0  0  0  0  0  0  0  0
   26.6525  -16.7517  -15.6558 C   0  0  0  0  0  0  0  0  0  0  0  0
   25.3011  -16.0460  -15.4820 C   0  0  1  0  0  0  0  0  0  0  0  0
   25.6052  -14.7326  -14.7956 C   0  0  0  0  0  0  0  0  0  0  0  0
   24.7633  -15.8368  -16.8650 C   0  0  0  0  0  0  0  0  0  0  0  0
   23.5738  -14.8971  -16.8403 C   0  0  2  0  0  0  0  0  0  0  0  0
   22.3709  -15.6978  -17.0107 N   0  0  0  0  0  0  0  0  0  0  0  0
   23.6819  -13.8461  -17.8666 C   0  0  0  0  0  0  0  0  0  0  0  0
   23.4359  -14.0970  -19.0634 O   0  0  0  0  0  0  0  0  0  0  0  0
   24.0582  -12.5704  -17.5085 O   0  0  0  0  0  0  0  0  0  0  0  0
  2  1  1  1
  2  3  1  0
  4  2  1  0
  4  5  2  0
  6  7  1  0
  7  8  1  0
  8 10  1  0
  8  9  1  6
 10 11  1  1
 10 12  1  0
 11  4  1  0
 12 19  1  0
 13 12  2  0
 15 14  1  6
 15 16  1  0
 17 15  1  0
 18 17  1  6
 19 18  1  0
 20 22  1  0
 20 18  1  0
 21 20  2  0
M  END
$$$$
