AIL.pdb
     RDKit          3D

 22 21  0  0  1  0  0  0  0  0999 V2000
   25.5566  -12.4511  -22.1273 C   0  0  0  0  0  0  0  0  0  0  0  0
   25.0765  -13.0716  -20.8498 C   0  0  2  0  0  0  0  0  0  0  0  0
   23.6374  -13.1415  -20.7569 N   0  0  0  0  0  0  0  0  0  0  0  0
   25.6690  -12.3018  -19.7167 C   0  0  0  0  0  0  0  0  0  0  0  0
   25.0986  -11.2189  -19.4196 O   0  0  0  0  0  0  0  0  0  0  0  0
   26.1616  -14.2898  -15.0361 C   0  0  0  0  0  0  0  0  0  0  0  0
   25.9595  -13.3738  -16.2326 C   0  0  0  0  0  0  0  0  0  0  0  0
   27.3178  -12.8468  -16.6168 C   0  0  2  0  0  0  0  0  0  0  0  0
   27.9421  -12.1268  -15.4688 C   0  0  0  0  0  0  0  0  0  0  0  0
   27.2761  -12.0169  -17.8803 C   0  0  2  0  0  0  0  0  0  0  0  0
   26.8116  -12.7641  -19.0132 N   0  0  0  0  0  0  0  0  0  0  0  0
   28.6562  -11.5403  -18.1776 C   0  0  0  0  0  0  0  0  0  0  0  0
   29.5877  -12.3455  -18.4265 O   0  0  0  0  0  0  0  0  0  0  0  0
   29.3809   -7.7674  -21.6825 C   0  0  0  0  0  0  0  0  0  0  0  0
   29.6210   -8.9888  -20.7854 C   0  0  1  0  0  0  0  0  0  0  0  0
   30.7451   -9.7652  -21.4353 C   0  0  0  0  0  0  0  0  0  0  0  0
   30.0236   -8.4463  -19.4477 C   0  0  0  0  0  0  0  0  0  0  0  0
   30.2265   -9.5719  -18.4526 C   0  0  2  0  0  0  0  0  0  0  0  0
   28.9260  -10.1650  -18.1808 N   0  0  0  0  0  0  0  0  0  0  0  0
   30.8834   -9.1042  -17.2199 C   0  0  0  0  0  0  0  0  0  0  0  0
   30.2091   -8.6715  -16.2639 O   0  0  0  0  0  0  0  0  0  0  0  0
   32.2562   -9.1421  -17.1145 O   0  0  0  0  0  0  0  0  0  0  0  0
  2  1  1  6
  2  3  1  0
  4  2  1  0
  4  5  2  0
  6  7  1  0
  7  8  1  0
  8 10  1  0
  8  9  1  1
 10 11  1  6
 10 12  1  0
 11  4  1  0
 12 19  1  0
 13 12  2  0
 15 14  1  6
 15 16  1  0
 17 15  1  0
 18 17  1  6
 19 18  1  0
 20 22  1  0
 20 18  1  0
 21 20  2  0
M  END
$$$$
