AIL.pdb
     RDKit          3D

 22 21  0  0  1  0  0  0  0  0999 V2000
   19.6783  -13.5763  -17.0038 C   0  0  0  0  0  0  0  0  0  0  0  0
   19.8065  -12.1056  -17.2654 C   0  0  2  0  0  0  0  0  0  0  0  0
   20.1714  -11.7998  -18.6284 N   0  0  0  0  0  0  0  0  0  0  0  0
   20.7911  -11.5520  -16.2898 C   0  0  0  0  0  0  0  0  0  0  0  0
   20.5325  -11.7366  -15.0710 O   0  0  0  0  0  0  0  0  0  0  0  0
   26.5238  -10.5646  -15.0172 C   0  0  0  0  0  0  0  0  0  0  0  0
   25.1176  -10.0269  -14.8054 C   0  0  0  0  0  0  0  0  0  0  0  0
   24.2370  -10.6803  -15.8389 C   0  0  2  0  0  0  0  0  0  0  0  0
   24.7962  -10.4740  -17.2067 C   0  0  0  0  0  0  0  0  0  0  0  0
   22.7931  -10.2464  -15.7211 C   0  0  2  0  0  0  0  0  0  0  0  0
   21.9538  -10.8562  -16.7116 N   0  0  0  0  0  0  0  0  0  0  0  0
   22.7274   -8.7695  -15.9079 C   0  0  0  0  0  0  0  0  0  0  0  0
   23.0114   -8.2355  -17.0089 O   0  0  0  0  0  0  0  0  0  0  0  0
   21.1606   -4.4485  -16.9261 C   0  0  0  0  0  0  0  0  0  0  0  0
   20.4287   -4.8463  -15.6375 C   0  0  1  0  0  0  0  0  0  0  0  0
   18.9615   -4.5836  -15.8969 C   0  0  0  0  0  0  0  0  0  0  0  0
   20.7036   -6.3062  -15.4401 C   0  0  0  0  0  0  0  0  0  0  0  0
   22.1113   -6.5202  -14.9195 C   0  0  2  0  0  0  0  0  0  0  0  0
   22.3410   -7.9545  -14.8353 N   0  0  0  0  0  0  0  0  0  0  0  0
   22.3253   -5.8544  -13.6232 C   0  0  0  0  0  0  0  0  0  0  0  0
   22.0903   -6.4521  -12.5539 O   0  0  0  0  0  0  0  0  0  0  0  0
   22.7895   -4.5582  -13.5834 O   0  0  0  0  0  0  0  0  0  0  0  0
  2  1  1  6
  2  3  1  0
  4  2  1  0
  4  5  2  0
  6  7  1  0
  7  8  1  0
  8 10  1  0
  8  9  1  6
 10 11  1  6
 10 12  1  0
 11  4  1  0
 12 19  1  0
 13 12  2  0
 15 14  1  6
 15 16  1  0
 17 15  1  0
 18 17  1  1
 19 18  1  0
 20 22  1  0
 20 18  1  0
 21 20  2  0
M  END
$$$$
