AIL.pdb
     RDKit          3D

 22 21  0  0  1  0  0  0  0  0999 V2000
   29.2309  -18.8676  -14.9012 C   0  0  0  0  0  0  0  0  0  0  0  0
   27.7859  -19.0325  -15.2652 C   0  0  2  0  0  0  0  0  0  0  0  0
   27.3218  -18.0469  -16.2127 N   0  0  0  0  0  0  0  0  0  0  0  0
   26.9905  -19.0062  -14.0026 C   0  0  0  0  0  0  0  0  0  0  0  0
   26.9221  -17.8970  -13.4097 O   0  0  0  0  0  0  0  0  0  0  0  0
   22.0949  -20.0264  -14.1515 C   0  0  0  0  0  0  0  0  0  0  0  0
   23.4684  -19.4818  -13.7930 C   0  0  0  0  0  0  0  0  0  0  0  0
   24.0320  -20.3806  -12.7231 C   0  0  2  0  0  0  0  0  0  0  0  0
   23.1338  -20.4007  -11.5319 C   0  0  0  0  0  0  0  0  0  0  0  0
   25.4627  -20.0345  -12.3764 C   0  0  2  0  0  0  0  0  0  0  0  0
   26.3470  -20.1660  -13.4981 N   0  0  0  0  0  0  0  0  0  0  0  0
   25.9287  -20.9661  -11.3109 C   0  0  0  0  0  0  0  0  0  0  0  0
   26.0873  -22.1917  -11.5362 O   0  0  0  0  0  0  0  0  0  0  0  0
   28.5755  -19.3976   -6.3627 C   0  0  0  0  0  0  0  0  0  0  0  0
   27.2604  -19.8688   -6.9973 C   0  0  1  0  0  0  0  0  0  0  0  0
   26.5611  -18.6167   -7.4790 C   0  0  0  0  0  0  0  0  0  0  0  0
   27.6481  -20.7603   -8.1378 C   0  0  0  0  0  0  0  0  0  0  0  0
   26.4165  -21.2891   -8.8465 C   0  0  2  0  0  0  0  0  0  0  0  0
   26.1970  -20.4693  -10.0283 N   0  0  0  0  0  0  0  0  0  0  0  0
   25.2377  -21.3035   -7.9634 C   0  0  0  0  0  0  0  0  0  0  0  0
   24.3316  -20.4567   -8.0970 O   0  0  0  0  0  0  0  0  0  0  0  0
   25.1278  -22.2590   -6.9774 O   0  0  0  0  0  0  0  0  0  0  0  0
  2  1  1  1
  2  3  1  0
  4  2  1  0
  4  5  2  0
  6  7  1  0
  7  8  1  0
  8 10  1  0
  8  9  1  1
 10 11  1  6
 10 12  1  0
 11  4  1  0
 12 19  1  0
 13 12  2  0
 15 14  1  6
 15 16  1  0
 17 15  1  0
 18 17  1  1
 19 18  1  0
 20 22  1  0
 20 18  1  0
 21 20  2  0
M  END
$$$$
