AIL.pdb
     RDKit          3D

 22 21  0  0  1  0  0  0  0  0999 V2000
   17.4262  -12.1150  -15.3472 C   0  0  0  0  0  0  0  0  0  0  0  0
   16.5598  -11.1390  -16.0851 C   0  0  2  0  0  0  0  0  0  0  0  0
   15.8910  -11.7204  -17.2250 N   0  0  0  0  0  0  0  0  0  0  0  0
   17.4104   -9.9760  -16.4744 C   0  0  0  0  0  0  0  0  0  0  0  0
   18.3167  -10.2057  -17.3183 O   0  0  0  0  0  0  0  0  0  0  0  0
   15.4646   -5.2723  -17.8529 C   0  0  0  0  0  0  0  0  0  0  0  0
   16.3095   -6.5345  -17.7850 C   0  0  0  0  0  0  0  0  0  0  0  0
   17.2909   -6.3463  -16.6574 C   0  0  2  0  0  0  0  0  0  0  0  0
   18.1770   -5.1764  -16.9266 C   0  0  0  0  0  0  0  0  0  0  0  0
   18.0615   -7.6103  -16.3488 C   0  0  2  0  0  0  0  0  0  0  0  0
   17.2094   -8.6833  -15.9244 N   0  0  0  0  0  0  0  0  0  0  0  0
   19.0211   -7.3207  -15.2463 C   0  0  0  0  0  0  0  0  0  0  0  0
   18.6235   -6.9758  -14.1058 O   0  0  0  0  0  0  0  0  0  0  0  0
   23.5173  -10.2860  -15.0203 C   0  0  0  0  0  0  0  0  0  0  0  0
   22.2820   -9.4845  -14.5890 C   0  0  1  0  0  0  0  0  0  0  0  0
   22.0859   -9.7853  -13.1193 C   0  0  0  0  0  0  0  0  0  0  0  0
   22.6235   -8.0436  -14.8187 C   0  0  0  0  0  0  0  0  0  0  0  0
   21.4366   -7.1551  -14.5018 C   0  0  2  0  0  0  0  0  0  0  0  0
   20.3980   -7.4342  -15.4819 N   0  0  0  0  0  0  0  0  0  0  0  0
   21.8058   -5.7293  -14.4862 C   0  0  0  0  0  0  0  0  0  0  0  0
   21.6371   -5.0167  -15.4959 O   0  0  0  0  0  0  0  0  0  0  0  0
   22.3435   -5.1698  -13.3481 O   0  0  0  0  0  0  0  0  0  0  0  0
  2  1  1  6
  2  3  1  0
  4  2  1  0
  4  5  2  0
  6  7  1  0
  7  8  1  0
  8 10  1  0
  8  9  1  6
 10 11  1  1
 10 12  1  0
 11  4  1  0
 12 19  1  0
 13 12  2  0
 15 14  1  1
 15 16  1  0
 17 15  1  0
 18 17  1  6
 19 18  1  0
 20 22  1  0
 20 18  1  0
 21 20  2  0
M  END
$$$$
