AIL.pdb
     RDKit          3D

 22 21  0  0  1  0  0  0  0  0999 V2000
   24.8797  -15.2674  -15.3013 C   0  0  0  0  0  0  0  0  0  0  0  0
   25.5565  -16.2158  -16.2448 C   0  0  2  0  0  0  0  0  0  0  0  0
   25.0555  -16.1287  -17.5960 N   0  0  0  0  0  0  0  0  0  0  0  0
   25.4147  -17.5934  -15.6881 C   0  0  0  0  0  0  0  0  0  0  0  0
   24.3411  -18.1951  -15.9557 O   0  0  0  0  0  0  0  0  0  0  0  0
   29.2555  -21.1791  -16.2312 C   0  0  0  0  0  0  0  0  0  0  0  0
   27.9142  -20.4661  -16.1665 C   0  0  0  0  0  0  0  0  0  0  0  0
   27.5365  -20.3717  -14.7109 C   0  0  2  0  0  0  0  0  0  0  0  0
   27.4613  -21.7317  -14.1020 C   0  0  0  0  0  0  0  0  0  0  0  0
   26.2797  -19.5590  -14.4947 C   0  0  2  0  0  0  0  0  0  0  0  0
   26.4327  -18.1920  -14.9012 N   0  0  0  0  0  0  0  0  0  0  0  0
   25.9528  -19.5733  -13.0410 C   0  0  0  0  0  0  0  0  0  0  0  0
   26.6682  -18.9702  -12.2030 O   0  0  0  0  0  0  0  0  0  0  0  0
   20.7120  -20.7945  -12.0486 C   0  0  0  0  0  0  0  0  0  0  0  0
   22.0531  -20.0504  -12.0030 C   0  0  1  0  0  0  0  0  0  0  0  0
   21.7733  -18.7349  -11.3101 C   0  0  0  0  0  0  0  0  0  0  0  0
   22.9776  -20.9139  -11.1995 C   0  0  0  0  0  0  0  0  0  0  0  0
   24.3835  -20.3467  -11.2092 C   0  0  2  0  0  0  0  0  0  0  0  0
   24.8239  -20.2732  -12.5941 N   0  0  0  0  0  0  0  0  0  0  0  0
   25.3047  -21.1462  -10.3835 C   0  0  0  0  0  0  0  0  0  0  0  0
   25.5867  -20.7936   -9.2207 O   0  0  0  0  0  0  0  0  0  0  0  0
   25.8645  -22.2966  -10.8938 O   0  0  0  0  0  0  0  0  0  0  0  0
  2  1  1  1
  2  3  1  0
  4  2  1  0
  4  5  2  0
  6  7  1  0
  7  8  1  0
  8 10  1  0
  8  9  1  6
 10 11  1  1
 10 12  1  0
 11  4  1  0
 12 19  1  0
 13 12  2  0
 15 14  1  1
 15 16  1  0
 17 15  1  0
 18 17  1  6
 19 18  1  0
 20 22  1  0
 20 18  1  0
 21 20  2  0
M  END
$$$$
