SWS.pdb
     RDKit          3D

 27 28  0  0  1  0  0  0  0  0999 V2000
   22.8384  -36.3568  -15.7233 O   0  0  0  0  0  0  0  0  0  0  0  0
   22.1973  -35.2247  -15.1985 C   0  0  0  0  0  0  0  0  0  0  0  0
   23.0747  -34.0364  -15.4957 C   0  0  2  0  0  0  0  0  0  0  0  0
   24.3757  -34.3905  -15.9650 N   0  0  0  0  0  0  0  0  0  0  0  0
   23.1515  -33.0910  -14.3576 C   0  0  0  0  0  0  0  0  0  0  0  0
   24.2656  -32.9411  -13.7626 O   0  0  0  0  0  0  0  0  0  0  0  0
   22.0629  -32.3377  -13.8828 N   0  0  0  0  0  0  0  0  0  0  0  0
   22.1738  -31.3818  -12.7522 C   0  0  1  0  0  0  0  0  0  0  0  0
   21.0203  -30.4732  -12.9148 C   0  0  0  0  0  0  0  0  0  0  0  0
   20.9008  -29.3311  -12.0011 C   0  0  0  0  0  0  0  0  0  0  0  0
   21.8725  -28.4149  -11.6493 C   0  0  0  0  0  0  0  0  0  0  0  0
   21.3702  -27.5218  -10.7785 N   0  0  0  0  0  0  0  0  0  0  0  0
   20.0813  -27.8233  -10.5418 C   0  0  0  0  0  0  0  0  0  0  0  0
   19.1381  -27.2074   -9.7452 C   0  0  0  0  0  0  0  0  0  0  0  0
   17.8639  -27.7260   -9.7030 C   0  0  0  0  0  0  0  0  0  0  0  0
   17.5110  -28.8525  -10.4432 C   0  0  0  0  0  0  0  0  0  0  0  0
   18.4973  -29.4314  -11.2254 C   0  0  0  0  0  0  0  0  0  0  0  0
   19.7835  -28.9424  -11.2947 C   0  0  0  0  0  0  0  0  0  0  0  0
   22.3514  -32.0780  -11.4924 C   0  0  0  0  0  0  0  0  0  0  0  0
   21.7156  -33.1601  -11.2453 O   0  0  0  0  0  0  0  0  0  0  0  0
   24.8454  -30.6841   -8.4145 O   0  0  0  0  0  0  0  0  0  0  0  0
   24.7216  -32.0332   -8.6357 C   0  0  0  0  0  0  0  0  0  0  0  0
   23.3279  -32.3822   -9.2259 C   0  0  2  0  0  0  0  0  0  0  0  0
   23.2295  -31.6253  -10.4705 N   0  0  0  0  0  0  0  0  0  0  0  0
   22.2822  -32.0385   -8.2544 C   0  0  0  0  0  0  0  0  0  0  0  0
   21.3934  -30.9846   -8.4899 O   0  0  0  0  0  0  0  0  0  0  0  0
   22.1218  -32.6520   -7.1762 O   0  0  0  0  0  0  0  0  0  0  0  0
  2  1  1  0
  3  2  1  0
  3  4  1  1
  5  3  1  0
  6  5  2  0
  7  5  1  0
  8  7  1  0
  9 10  1  0
  8  9  1  1
 10 18  1  0
 11 12  1  0
 11 10  2  0
 12 13  1  0
 13 18  2  0
 13 14  1  0
 14 15  2  0
 15 16  1  0
 17 16  2  0
 18 17  1  0
 19 24  1  0
 19  8  1  0
 20 19  2  0
 22 21  1  0
 23 24  1  0
 23 22  1  1
 25 23  1  0
 26 25  1  0
 27 25  2  0
M  END
$$$$
