SWS.pdb
     RDKit          3D

 27 28  0  0  1  0  0  0  0  0999 V2000
   24.7556  -35.6363  -13.3456 O   0  0  0  0  0  0  0  0  0  0  0  0
   23.6132  -34.8949  -13.6822 C   0  0  0  0  0  0  0  0  0  0  0  0
   24.0487  -33.4653  -13.8738 C   0  0  2  0  0  0  0  0  0  0  0  0
   25.2046  -33.3265  -14.7001 N   0  0  0  0  0  0  0  0  0  0  0  0
   24.2161  -32.7476  -12.5886 C   0  0  0  0  0  0  0  0  0  0  0  0
   25.3648  -32.2911  -12.2893 O   0  0  0  0  0  0  0  0  0  0  0  0
   23.1785  -32.5334  -11.6636 N   0  0  0  0  0  0  0  0  0  0  0  0
   23.3581  -31.7504  -10.4150 C   0  0  1  0  0  0  0  0  0  0  0  0
   22.0616  -31.0733  -10.2071 C   0  0  0  0  0  0  0  0  0  0  0  0
   21.7564  -29.8910  -11.0209 C   0  0  0  0  0  0  0  0  0  0  0  0
   22.2391  -29.5707  -12.2747 C   0  0  0  0  0  0  0  0  0  0  0  0
   21.7255  -28.3959  -12.6800 N   0  0  0  0  0  0  0  0  0  0  0  0
   20.9085  -27.9250  -11.7213 C   0  0  0  0  0  0  0  0  0  0  0  0
   20.1415  -26.7795  -11.6666 C   0  0  0  0  0  0  0  0  0  0  0  0
   19.3687  -26.5506  -10.5510 C   0  0  0  0  0  0  0  0  0  0  0  0
   19.3464  -27.4463   -9.4839 C   0  0  0  0  0  0  0  0  0  0  0  0
   20.1360  -28.5798   -9.5913 C   0  0  0  0  0  0  0  0  0  0  0  0
   20.9228  -28.8447  -10.6909 C   0  0  0  0  0  0  0  0  0  0  0  0
   23.9020  -32.5747   -9.3529 C   0  0  0  0  0  0  0  0  0  0  0  0
   23.4571  -33.7559   -9.1458 O   0  0  0  0  0  0  0  0  0  0  0  0
   27.2311  -33.1015   -5.8369 O   0  0  0  0  0  0  0  0  0  0  0  0
   26.6737  -32.3434   -6.8364 C   0  0  0  0  0  0  0  0  0  0  0  0
   25.4275  -33.0422   -7.4458 C   0  0  2  0  0  0  0  0  0  0  0  0
   24.9486  -32.1444   -8.4927 N   0  0  0  0  0  0  0  0  0  0  0  0
   24.4349  -33.2846   -6.3915 C   0  0  0  0  0  0  0  0  0  0  0  0
   24.3541  -34.5216   -5.7439 O   0  0  0  0  0  0  0  0  0  0  0  0
   23.6146  -32.4198   -6.0123 O   0  0  0  0  0  0  0  0  0  0  0  0
  2  1  1  0
  3  2  1  0
  3  4  1  1
  5  3  1  0
  6  5  2  0
  7  5  1  0
  8  7  1  0
  9 10  1  0
  8  9  1  1
 10 18  1  0
 11 12  1  0
 11 10  2  0
 12 13  1  0
 13 18  2  0
 13 14  1  0
 14 15  2  0
 15 16  1  0
 17 16  2  0
 18 17  1  0
 19 24  1  0
 19  8  1  0
 20 19  2  0
 22 21  1  0
 23 24  1  0
 23 22  1  1
 25 23  1  0
 26 25  1  0
 27 25  2  0
M  END
$$$$
