SWS.pdb
     RDKit          3D

 27 28  0  0  1  0  0  0  0  0999 V2000
   28.4801  -18.7462  -15.9078 O   0  0  0  0  0  0  0  0  0  0  0  0
   27.4834  -19.2783  -15.0763 C   0  0  0  0  0  0  0  0  0  0  0  0
   28.0465  -20.5254  -14.4455 C   0  0  2  0  0  0  0  0  0  0  0  0
   28.1985  -21.6098  -15.3615 N   0  0  0  0  0  0  0  0  0  0  0  0
   27.2916  -20.9403  -13.2402 C   0  0  0  0  0  0  0  0  0  0  0  0
   26.2817  -21.7000  -13.3837 O   0  0  0  0  0  0  0  0  0  0  0  0
   27.6185  -20.5466  -11.9301 N   0  0  0  0  0  0  0  0  0  0  0  0
   26.7432  -20.8196  -10.7623 C   0  0  1  0  0  0  0  0  0  0  0  0
   27.5509  -20.4286   -9.5887 C   0  0  0  0  0  0  0  0  0  0  0  0
   26.9505  -20.5612   -8.2563 C   0  0  0  0  0  0  0  0  0  0  0  0
   25.7256  -21.1051   -7.9230 C   0  0  0  0  0  0  0  0  0  0  0  0
   25.5361  -21.0339   -6.5936 N   0  0  0  0  0  0  0  0  0  0  0  0
   26.6111  -20.4532   -6.0319 C   0  0  0  0  0  0  0  0  0  0  0  0
   26.9035  -20.1716   -4.7134 C   0  0  0  0  0  0  0  0  0  0  0  0
   28.1088  -19.5790   -4.4126 C   0  0  0  0  0  0  0  0  0  0  0  0
   29.0319  -19.2602   -5.4064 C   0  0  0  0  0  0  0  0  0  0  0  0
   28.6867  -19.5644   -6.7133 C   0  0  0  0  0  0  0  0  0  0  0  0
   27.4908  -20.1573   -7.0548 C   0  0  0  0  0  0  0  0  0  0  0  0
   25.4299  -20.2314  -10.9426 C   0  0  0  0  0  0  0  0  0  0  0  0
   25.2958  -18.9764  -11.1499 O   0  0  0  0  0  0  0  0  0  0  0  0
   22.6862  -22.0332  -12.8367 O   0  0  0  0  0  0  0  0  0  0  0  0
   22.5604  -20.6849  -12.6114 C   0  0  0  0  0  0  0  0  0  0  0  0
   22.9539  -20.3176  -11.1544 C   0  0  2  0  0  0  0  0  0  0  0  0
   24.2275  -20.9890  -10.9121 N   0  0  0  0  0  0  0  0  0  0  0  0
   21.8906  -20.7430  -10.2357 C   0  0  0  0  0  0  0  0  0  0  0  0
   20.5774  -20.2860  -10.3871 O   0  0  0  0  0  0  0  0  0  0  0  0
   22.0855  -21.5244   -9.2786 O   0  0  0  0  0  0  0  0  0  0  0  0
  2  1  1  0
  3  2  1  0
  3  4  1  6
  5  3  1  0
  6  5  2  0
  7  5  1  0
  8  7  1  0
  9 10  1  0
  8  9  1  1
 10 18  1  0
 11 12  1  0
 11 10  2  0
 12 13  1  0
 13 18  2  0
 13 14  1  0
 14 15  2  0
 15 16  1  0
 17 16  2  0
 18 17  1  0
 19 24  1  0
 19  8  1  0
 20 19  2  0
 22 21  1  0
 23 24  1  0
 23 22  1  6
 25 23  1  0
 26 25  1  0
 27 25  2  0
M  END
$$$$
