SWS.pdb
     RDKit          3D

 27 28  0  0  1  0  0  0  0  0999 V2000
   27.1521  -17.8166  -15.2016 O   0  0  0  0  0  0  0  0  0  0  0  0
   28.3844  -17.9829  -14.5520 C   0  0  0  0  0  0  0  0  0  0  0  0
   28.7559  -19.4388  -14.6645 C   0  0  2  0  0  0  0  0  0  0  0  0
   28.8253  -19.9079  -16.0110 N   0  0  0  0  0  0  0  0  0  0  0  0
   27.8906  -20.3092  -13.8348 C   0  0  0  0  0  0  0  0  0  0  0  0
   27.0574  -21.0743  -14.4162 O   0  0  0  0  0  0  0  0  0  0  0  0
   27.9270  -20.3488  -12.4294 N   0  0  0  0  0  0  0  0  0  0  0  0
   27.0391  -21.2234  -11.6225 C   0  0  1  0  0  0  0  0  0  0  0  0
   27.7057  -21.3239  -10.3079 C   0  0  0  0  0  0  0  0  0  0  0  0
   27.0022  -20.8032   -9.1301 C   0  0  0  0  0  0  0  0  0  0  0  0
   25.6633  -20.4877   -9.0066 C   0  0  0  0  0  0  0  0  0  0  0  0
   25.4097  -20.0316   -7.7673 N   0  0  0  0  0  0  0  0  0  0  0  0
   26.5533  -20.0366   -7.0600 C   0  0  0  0  0  0  0  0  0  0  0  0
   26.8114  -19.6809   -5.7521 C   0  0  0  0  0  0  0  0  0  0  0  0
   28.0948  -19.8063   -5.2710 C   0  0  0  0  0  0  0  0  0  0  0  0
   29.1303  -20.2814   -6.0731 C   0  0  0  0  0  0  0  0  0  0  0  0
   28.8153  -20.6234   -7.3783 C   0  0  0  0  0  0  0  0  0  0  0  0
   27.5437  -20.5126   -7.8969 C   0  0  0  0  0  0  0  0  0  0  0  0
   25.6624  -20.7713  -11.6827 C   0  0  0  0  0  0  0  0  0  0  0  0
   25.3759  -19.5275  -11.6000 O   0  0  0  0  0  0  0  0  0  0  0  0
   21.2374  -21.9564  -13.2432 O   0  0  0  0  0  0  0  0  0  0  0  0
   22.5717  -22.2225  -13.0609 C   0  0  0  0  0  0  0  0  0  0  0  0
   23.2587  -21.1110  -12.2211 C   0  0  2  0  0  0  0  0  0  0  0  0
   24.5601  -21.6543  -11.8432 N   0  0  0  0  0  0  0  0  0  0  0  0
   22.4148  -20.7733  -11.0682 C   0  0  0  0  0  0  0  0  0  0  0  0
   22.5331  -21.4636   -9.8575 O   0  0  0  0  0  0  0  0  0  0  0  0
   21.5536  -19.8665  -11.0929 O   0  0  0  0  0  0  0  0  0  0  0  0
  2  1  1  0
  3  2  1  0
  3  4  1  6
  5  3  1  0
  6  5  2  0
  7  5  1  0
  8  7  1  0
  9 10  1  0
  8  9  1  1
 10 18  1  0
 11 12  1  0
 11 10  2  0
 12 13  1  0
 13 18  2  0
 13 14  1  0
 14 15  2  0
 15 16  1  0
 17 16  2  0
 18 17  1  0
 19 24  1  0
 19  8  1  0
 20 19  2  0
 22 21  1  0
 23 24  1  0
 23 22  1  6
 25 23  1  0
 26 25  1  0
 27 25  2  0
M  END
$$$$
