SWS.pdb
     RDKit          3D

 27 28  0  0  1  0  0  0  0  0999 V2000
   29.3390  -34.2843  -17.0825 O   0  0  0  0  0  0  0  0  0  0  0  0
   27.9963  -34.0217  -16.7722 C   0  0  0  0  0  0  0  0  0  0  0  0
   27.9851  -33.1021  -15.5786 C   0  0  2  0  0  0  0  0  0  0  0  0
   29.0633  -32.1664  -15.5689 N   0  0  0  0  0  0  0  0  0  0  0  0
   27.9006  -33.8398  -14.2967 C   0  0  0  0  0  0  0  0  0  0  0  0
   28.8583  -33.7332  -13.4666 O   0  0  0  0  0  0  0  0  0  0  0  0
   26.8200  -34.6615  -13.9289 N   0  0  0  0  0  0  0  0  0  0  0  0
   26.7332  -35.3405  -12.6115 C   0  0  1  0  0  0  0  0  0  0  0  0
   25.3670  -35.0510  -12.1297 C   0  0  0  0  0  0  0  0  0  0  0  0
   25.0841  -33.7095  -11.6065 C   0  0  0  0  0  0  0  0  0  0  0  0
   24.6318  -32.6024  -12.2974 C   0  0  0  0  0  0  0  0  0  0  0  0
   24.5036  -31.5577  -11.4606 N   0  0  0  0  0  0  0  0  0  0  0  0
   24.8610  -31.9453  -10.2236 C   0  0  0  0  0  0  0  0  0  0  0  0
   24.8874  -31.2544   -9.0297 C   0  0  0  0  0  0  0  0  0  0  0  0
   25.2850  -31.9145   -7.8892 C   0  0  0  0  0  0  0  0  0  0  0  0
   25.6588  -33.2564   -7.9172 C   0  0  0  0  0  0  0  0  0  0  0  0
   25.6143  -33.9014   -9.1427 C   0  0  0  0  0  0  0  0  0  0  0  0
   25.2220  -33.2759  -10.3059 C   0  0  0  0  0  0  0  0  0  0  0  0
   27.1716  -36.7199  -12.7027 C   0  0  0  0  0  0  0  0  0  0  0  0
   26.8009  -37.4634  -13.6752 O   0  0  0  0  0  0  0  0  0  0  0  0
   30.7700  -39.3114  -11.5985 O   0  0  0  0  0  0  0  0  0  0  0  0
   29.6220  -38.9358  -10.9463 C   0  0  0  0  0  0  0  0  0  0  0  0
   28.4539  -38.7111  -11.9451 C   0  0  2  0  0  0  0  0  0  0  0  0
   28.0309  -37.3278  -11.7473 N   0  0  0  0  0  0  0  0  0  0  0  0
   27.3882  -39.6862  -11.6828 C   0  0  0  0  0  0  0  0  0  0  0  0
   26.3127  -39.3753  -10.8444 O   0  0  0  0  0  0  0  0  0  0  0  0
   27.3729  -40.8335  -12.1808 O   0  0  0  0  0  0  0  0  0  0  0  0
  2  1  1  0
  3  2  1  0
  3  4  1  1
  5  3  1  0
  6  5  2  0
  7  5  1  0
  8  7  1  0
  9 10  1  0
  8  9  1  6
 10 18  1  0
 11 12  1  0
 11 10  2  0
 12 13  1  0
 13 18  2  0
 13 14  1  0
 14 15  2  0
 15 16  1  0
 17 16  2  0
 18 17  1  0
 19 24  1  0
 19  8  1  0
 20 19  2  0
 22 21  1  0
 23 24  1  0
 23 22  1  1
 25 23  1  0
 26 25  1  0
 27 25  2  0
M  END
$$$$
