SWS.pdb
     RDKit          3D

 27 28  0  0  1  0  0  0  0  0999 V2000
   14.4602  -12.7303    7.6275 O   0  0  0  0  0  0  0  0  0  0  0  0
   14.4599  -14.0556    7.1675 C   0  0  0  0  0  0  0  0  0  0  0  0
   14.2117  -14.0129    5.6820 C   0  0  2  0  0  0  0  0  0  0  0  0
   12.8333  -13.8736    5.3373 N   0  0  0  0  0  0  0  0  0  0  0  0
   14.8317  -15.1555    4.9716 C   0  0  0  0  0  0  0  0  0  0  0  0
   14.2128  -16.2663    4.9447 O   0  0  0  0  0  0  0  0  0  0  0  0
   16.0746  -15.0965    4.3159 N   0  0  0  0  0  0  0  0  0  0  0  0
   16.7074  -16.2774    3.6762 C   0  0  1  0  0  0  0  0  0  0  0  0
   17.7113  -15.7105    2.7524 C   0  0  0  0  0  0  0  0  0  0  0  0
   18.4428  -16.6288    1.8720 C   0  0  0  0  0  0  0  0  0  0  0  0
   18.0004  -17.8151    1.3202 C   0  0  0  0  0  0  0  0  0  0  0  0
   18.9737  -18.3680    0.5751 N   0  0  0  0  0  0  0  0  0  0  0  0
   20.0580  -17.5738    0.6180 C   0  0  0  0  0  0  0  0  0  0  0  0
   21.2925  -17.6924    0.0135 C   0  0  0  0  0  0  0  0  0  0  0  0
   22.2289  -16.7043    0.2168 C   0  0  0  0  0  0  0  0  0  0  0  0
   21.9563  -15.5955    1.0153 C   0  0  0  0  0  0  0  0  0  0  0  0
   20.7013  -15.5275    1.5984 C   0  0  0  0  0  0  0  0  0  0  0  0
   19.7372  -16.4954    1.4192 C   0  0  0  0  0  0  0  0  0  0  0  0
   17.1297  -17.2475    4.6681 C   0  0  0  0  0  0  0  0  0  0  0  0
   17.8489  -16.8957    5.6656 O   0  0  0  0  0  0  0  0  0  0  0  0
   15.5985  -19.0815    7.1954 O   0  0  0  0  0  0  0  0  0  0  0  0
   16.1359  -20.0728    6.4125 C   0  0  0  0  0  0  0  0  0  0  0  0
   17.3429  -19.5479    5.5877 C   0  0  2  0  0  0  0  0  0  0  0  0
   16.7762  -18.6232    4.6104 N   0  0  0  0  0  0  0  0  0  0  0  0
   18.0483  -20.6796    4.9736 C   0  0  0  0  0  0  0  0  0  0  0  0
   17.8799  -20.9893    3.6202 O   0  0  0  0  0  0  0  0  0  0  0  0
   18.8285  -21.4245    5.6069 O   0  0  0  0  0  0  0  0  0  0  0  0
  2  1  1  0
  3  2  1  0
  3  4  1  1
  5  3  1  0
  6  5  2  0
  7  5  1  0
  8  7  1  0
  9 10  1  0
  8  9  1  1
 10 18  1  0
 11 12  1  0
 11 10  2  0
 12 13  1  0
 13 18  2  0
 13 14  1  0
 14 15  2  0
 15 16  1  0
 17 16  2  0
 18 17  1  0
 19 24  1  0
 19  8  1  0
 20 19  2  0
 22 21  1  0
 23 24  1  0
 23 22  1  6
 25 23  1  0
 26 25  1  0
 27 25  2  0
M  END
$$$$
