SWS.pdb
     RDKit          3D

 27 28  0  0  1  0  0  0  0  0999 V2000
   27.1323  -20.5562  -18.1744 O   0  0  0  0  0  0  0  0  0  0  0  0
   28.3048  -20.1516  -17.5188 C   0  0  0  0  0  0  0  0  0  0  0  0
   28.8010  -21.3305  -16.7225 C   0  0  2  0  0  0  0  0  0  0  0  0
   29.0456  -22.4925  -17.5151 N   0  0  0  0  0  0  0  0  0  0  0  0
   27.9275  -21.6409  -15.5669 C   0  0  0  0  0  0  0  0  0  0  0  0
   27.2680  -22.7283  -15.5747 O   0  0  0  0  0  0  0  0  0  0  0  0
   27.7747  -20.8047  -14.4464 N   0  0  0  0  0  0  0  0  0  0  0  0
   26.9220  -21.1595  -13.2838 C   0  0  1  0  0  0  0  0  0  0  0  0
   27.5401  -20.4609  -12.1383 C   0  0  0  0  0  0  0  0  0  0  0  0
   26.8078  -20.4275  -10.8670 C   0  0  0  0  0  0  0  0  0  0  0  0
   25.4509  -20.2638  -10.6684 C   0  0  0  0  0  0  0  0  0  0  0  0
   25.1722  -20.2824   -9.3530 N   0  0  0  0  0  0  0  0  0  0  0  0
   26.3167  -20.4558   -8.6687 C   0  0  0  0  0  0  0  0  0  0  0  0
   26.5558  -20.5580   -7.3138 C   0  0  0  0  0  0  0  0  0  0  0  0
   27.8470  -20.7566   -6.8805 C   0  0  0  0  0  0  0  0  0  0  0  0
   28.9091  -20.8552   -7.7770 C   0  0  0  0  0  0  0  0  0  0  0  0
   28.6124  -20.7447   -9.1259 C   0  0  0  0  0  0  0  0  0  0  0  0
   27.3337  -20.5460   -9.5990 C   0  0  0  0  0  0  0  0  0  0  0  0
   25.5191  -20.9339  -13.5744 C   0  0  0  0  0  0  0  0  0  0  0  0
   25.1108  -19.7974  -13.9959 O   0  0  0  0  0  0  0  0  0  0  0  0
   21.2775  -23.0339  -13.0995 O   0  0  0  0  0  0  0  0  0  0  0  0
   22.4071  -22.9749  -13.8772 C   0  0  0  0  0  0  0  0  0  0  0  0
   23.1305  -21.6096  -13.7183 C   0  0  2  0  0  0  0  0  0  0  0  0
   24.5227  -21.9366  -13.4246 N   0  0  0  0  0  0  0  0  0  0  0  0
   22.4819  -20.8301  -12.6567 C   0  0  0  0  0  0  0  0  0  0  0  0
   21.4528  -19.9283  -12.9465 O   0  0  0  0  0  0  0  0  0  0  0  0
   22.8005  -20.9192  -11.4504 O   0  0  0  0  0  0  0  0  0  0  0  0
  2  1  1  0
  3  2  1  0
  3  4  1  6
  5  3  1  0
  6  5  2  0
  7  5  1  0
  8  7  1  0
  9 10  1  0
  8  9  1  1
 10 18  1  0
 11 12  1  0
 11 10  2  0
 12 13  1  0
 13 18  2  0
 13 14  1  0
 14 15  2  0
 15 16  1  0
 17 16  2  0
 18 17  1  0
 19 24  1  0
 19  8  1  0
 20 19  2  0
 22 21  1  0
 23 24  1  0
 23 22  1  1
 25 23  1  0
 26 25  1  0
 27 25  2  0
M  END
$$$$
