SWS.pdb
     RDKit          3D

 27 28  0  0  1  0  0  0  0  0999 V2000
   27.4293  -18.8335  -15.3447 O   0  0  0  0  0  0  0  0  0  0  0  0
   28.7145  -18.9970  -14.8066 C   0  0  0  0  0  0  0  0  0  0  0  0
   28.8925  -20.4641  -14.5129 C   0  0  2  0  0  0  0  0  0  0  0  0
   28.7911  -21.2944  -15.6698 N   0  0  0  0  0  0  0  0  0  0  0  0
   27.9985  -20.9370  -13.4304 C   0  0  0  0  0  0  0  0  0  0  0  0
   27.0550  -21.7377  -13.7239 O   0  0  0  0  0  0  0  0  0  0  0  0
   28.1222  -20.5565  -12.0821 N   0  0  0  0  0  0  0  0  0  0  0  0
   27.1811  -21.0070  -11.0258 C   0  0  1  0  0  0  0  0  0  0  0  0
   27.8599  -20.6809   -9.7548 C   0  0  0  0  0  0  0  0  0  0  0  0
   27.0483  -20.5964   -8.5351 C   0  0  0  0  0  0  0  0  0  0  0  0
   25.6949  -20.8321   -8.3931 C   0  0  0  0  0  0  0  0  0  0  0  0
   25.3256  -20.6413   -7.1142 N   0  0  0  0  0  0  0  0  0  0  0  0
   26.4063  -20.2831   -6.3987 C   0  0  0  0  0  0  0  0  0  0  0  0
   26.5503  -19.9959   -5.0569 C   0  0  0  0  0  0  0  0  0  0  0  0
   27.7989  -19.6708   -4.5778 C   0  0  0  0  0  0  0  0  0  0  0  0
   28.9116  -19.6261   -5.4153 C   0  0  0  0  0  0  0  0  0  0  0  0
   28.7099  -19.9227   -6.7536 C   0  0  0  0  0  0  0  0  0  0  0  0
   27.4765  -20.2527   -7.2714 C   0  0  0  0  0  0  0  0  0  0  0  0
   25.8441  -20.4974  -11.2627 C   0  0  0  0  0  0  0  0  0  0  0  0
   25.6479  -19.2566  -11.5035 O   0  0  0  0  0  0  0  0  0  0  0  0
   23.4399  -21.5401  -13.9042 O   0  0  0  0  0  0  0  0  0  0  0  0
   22.8049  -21.6954  -12.6972 C   0  0  0  0  0  0  0  0  0  0  0  0
   23.3960  -20.7425  -11.6224 C   0  0  2  0  0  0  0  0  0  0  0  0
   24.6851  -21.3203  -11.2539 N   0  0  0  0  0  0  0  0  0  0  0  0
   22.4641  -20.6369  -10.4928 C   0  0  0  0  0  0  0  0  0  0  0  0
   21.2126  -20.0304  -10.6411 O   0  0  0  0  0  0  0  0  0  0  0  0
   22.7232  -21.0724   -9.3492 O   0  0  0  0  0  0  0  0  0  0  0  0
  2  1  1  0
  3  2  1  0
  3  4  1  6
  5  3  1  0
  6  5  2  0
  7  5  1  0
  8  7  1  0
  9 10  1  0
  8  9  1  1
 10 18  1  0
 11 12  1  0
 11 10  2  0
 12 13  1  0
 13 18  2  0
 13 14  1  0
 14 15  2  0
 15 16  1  0
 17 16  2  0
 18 17  1  0
 19 24  1  0
 19  8  1  0
 20 19  2  0
 22 21  1  0
 23 24  1  0
 23 22  1  6
 25 23  1  0
 26 25  1  0
 27 25  2  0
M  END
$$$$
