KHM.pdb
     RDKit          3D

 28 28  0  0  1  0  0  0  0  0999 V2000
    7.7696  -14.7497   17.8269 N   0  0  0  0  0  0  0  0  0  0  0  0
    8.6224  -14.7830   18.9817 C   0  0  1  0  0  0  0  0  0  0  0  0
    9.1726  -13.4318   19.2909 C   0  0  0  0  0  0  0  0  0  0  0  0
   10.5908  -13.3228   19.6753 C   0  0  0  0  0  0  0  0  0  0  0  0
   11.3879  -14.5403   19.3400 C   0  0  0  0  0  0  0  0  0  0  0  0
   12.7945  -14.4332   19.8362 C   0  0  0  0  0  0  0  0  0  0  0  0
   13.6689  -13.7906   18.8631 N   0  0  0  0  0  0  0  0  0  0  0  0
    7.8701  -15.2145   20.2177 C   0  0  0  0  0  0  0  0  0  0  0  0
    6.8103  -14.6827   20.5680 O   0  0  0  0  0  0  0  0  0  0  0  0
    8.4167  -16.2541   20.9722 N   0  0  0  0  0  0  0  0  0  0  0  0
    7.7861  -16.7475   22.2101 C   0  0  1  0  0  0  0  0  0  0  0  0
    8.0655  -18.2153   22.2653 C   0  0  0  0  0  0  0  0  0  0  0  0
    7.6023  -18.8738   23.4903 C   0  0  0  0  0  0  0  0  0  0  0  0
    6.9106  -18.2070   24.5017 C   0  0  0  0  0  0  0  0  0  0  0  0
    6.6582  -19.1458   25.4554 N   0  0  0  0  0  0  0  0  0  0  0  0
    7.1495  -20.3277   25.0871 C   0  0  0  0  0  0  0  0  0  0  0  0
    7.7270  -20.1538   23.8813 N   0  0  0  0  0  0  0  0  0  0  0  0
    8.3268  -15.9826   23.3409 C   0  0  0  0  0  0  0  0  0  0  0  0
    9.5776  -15.8122   23.3931 O   0  0  0  0  0  0  0  0  0  0  0  0
    6.1739  -10.3896   28.3911 C   0  0  0  0  0  0  0  0  0  0  0  0
    5.7219  -11.6217   27.1633 S   0  0  0  0  0  0  0  0  0  0  0  0
    7.2363  -12.5631   26.7361 C   0  0  0  0  0  0  0  0  0  0  0  0
    6.8364  -13.5661   25.6959 C   0  0  0  0  0  0  0  0  0  0  0  0
    8.0455  -14.3499   25.2574 C   0  0  2  0  0  0  0  0  0  0  0  0
    7.5384  -15.4316   24.3644 N   0  0  0  0  0  0  0  0  0  0  0  0
    8.6279  -15.0383   26.4197 C   0  0  0  0  0  0  0  0  0  0  0  0
    9.2181  -14.3635   27.2998 O   0  0  0  0  0  0  0  0  0  0  0  0
    8.5811  -16.3990   26.6394 O   0  0  0  0  0  0  0  0  0  0  0  0
  2  1  1  6
  2  3  1  0
  3  4  1  0
  5  4  1  0
  5  6  1  0
  7  6  1  0
  8  9  2  0
  8  2  1  0
 10  8  1  0
 11 10  1  0
 11 12  1  1
 12 13  1  0
 13 17  1  0
 13 14  2  0
 14 15  1  0
 16 15  1  0
 17 16  2  0
 18 25  1  0
 18 11  1  0
 19 18  2  0
 20 21  1  0
 21 22  1  0
 23 22  1  0
 24 23  1  1
 24 25  1  0
 26 28  1  0
 26 24  1  0
 27 26  2  0
M  END
$$$$
