KHM.pdb
     RDKit          3D

 28 28  0  0  1  0  0  0  0  0999 V2000
    4.8596  -18.8783   22.6020 N   0  0  0  0  0  0  0  0  0  0  0  0
    6.0158  -19.3196   23.3304 C   0  0  1  0  0  0  0  0  0  0  0  0
    6.3051  -20.7594   23.0715 C   0  0  0  0  0  0  0  0  0  0  0  0
    5.2027  -21.6265   22.6200 C   0  0  0  0  0  0  0  0  0  0  0  0
    5.2099  -22.9734   23.2647 C   0  0  0  0  0  0  0  0  0  0  0  0
    4.1646  -23.8701   22.6820 C   0  0  0  0  0  0  0  0  0  0  0  0
    4.1935  -25.2004   23.2769 N   0  0  0  0  0  0  0  0  0  0  0  0
    7.2573  -18.5682   22.9134 C   0  0  0  0  0  0  0  0  0  0  0  0
    8.3963  -18.9860   23.1519 O   0  0  0  0  0  0  0  0  0  0  0  0
    7.0801  -17.3604   22.2361 N   0  0  0  0  0  0  0  0  0  0  0  0
    8.2097  -16.4842   21.8759 C   0  0  1  0  0  0  0  0  0  0  0  0
    7.8961  -15.9334   20.5216 C   0  0  0  0  0  0  0  0  0  0  0  0
    8.1167  -16.8746   19.4197 C   0  0  0  0  0  0  0  0  0  0  0  0
    8.6344  -18.1571   19.6020 C   0  0  0  0  0  0  0  0  0  0  0  0
    8.6876  -18.7124   18.3597 N   0  0  0  0  0  0  0  0  0  0  0  0
    8.2386  -17.8536   17.4460 C   0  0  0  0  0  0  0  0  0  0  0  0
    7.8902  -16.7289   18.1027 N   0  0  0  0  0  0  0  0  0  0  0  0
    8.3598  -15.4684   22.9256 C   0  0  0  0  0  0  0  0  0  0  0  0
    8.0289  -14.2809   22.6485 O   0  0  0  0  0  0  0  0  0  0  0  0
    6.7051  -10.9838   27.6778 C   0  0  0  0  0  0  0  0  0  0  0  0
    6.4593  -12.1579   26.3396 S   0  0  0  0  0  0  0  0  0  0  0  0
    7.1338  -13.7732   26.8858 C   0  0  0  0  0  0  0  0  0  0  0  0
    7.2970  -14.6074   25.6507 C   0  0  0  0  0  0  0  0  0  0  0  0
    8.7601  -14.7384   25.3182 C   0  0  2  0  0  0  0  0  0  0  0  0
    8.8479  -15.7379   24.2147 N   0  0  0  0  0  0  0  0  0  0  0  0
    9.4664  -15.3450   26.4571 C   0  0  0  0  0  0  0  0  0  0  0  0
    9.5713  -14.6978   27.5288 O   0  0  0  0  0  0  0  0  0  0  0  0
   10.0391  -16.5996   26.4565 O   0  0  0  0  0  0  0  0  0  0  0  0
  2  1  1  6
  2  3  1  0
  3  4  1  0
  5  4  1  0
  5  6  1  0
  7  6  1  0
  8  9  2  0
  8  2  1  0
 10  8  1  0
 11 10  1  0
 11 12  1  6
 12 13  1  0
 13 17  1  0
 13 14  2  0
 14 15  1  0
 16 15  1  0
 17 16  2  0
 18 25  1  0
 18 11  1  0
 19 18  2  0
 20 21  1  0
 21 22  1  0
 23 22  1  0
 24 23  1  1
 24 25  1  0
 26 28  1  0
 26 24  1  0
 27 26  2  0
M  END
$$$$
