KHM.pdb
     RDKit          3D

 28 28  0  0  1  0  0  0  0  0999 V2000
    7.0573  -16.3496   19.6678 N   0  0  0  0  0  0  0  0  0  0  0  0
    8.1198  -15.6148   20.2947 C   0  0  1  0  0  0  0  0  0  0  0  0
    7.7008  -14.2201   20.6162 C   0  0  0  0  0  0  0  0  0  0  0  0
    7.9541  -13.1641   19.6203 C   0  0  0  0  0  0  0  0  0  0  0  0
    7.7704  -13.6254   18.2120 C   0  0  0  0  0  0  0  0  0  0  0  0
    8.0604  -12.5344   17.2313 C   0  0  0  0  0  0  0  0  0  0  0  0
    7.7613  -12.9371   15.8628 N   0  0  0  0  0  0  0  0  0  0  0  0
    8.5271  -16.2362   21.6091 C   0  0  0  0  0  0  0  0  0  0  0  0
    7.7009  -16.6382   22.4364 O   0  0  0  0  0  0  0  0  0  0  0  0
    9.8938  -16.3465   21.8714 N   0  0  0  0  0  0  0  0  0  0  0  0
   10.4146  -17.0045   23.0835 C   0  0  1  0  0  0  0  0  0  0  0  0
   11.7966  -17.4661   22.7477 C   0  0  0  0  0  0  0  0  0  0  0  0
   11.8519  -18.7575   22.0564 C   0  0  0  0  0  0  0  0  0  0  0  0
   10.7177  -19.5093   21.7495 C   0  0  0  0  0  0  0  0  0  0  0  0
   11.1759  -20.6254   21.1178 N   0  0  0  0  0  0  0  0  0  0  0  0
   12.5042  -20.5955   21.0244 C   0  0  0  0  0  0  0  0  0  0  0  0
   12.9122  -19.4476   21.6018 N   0  0  0  0  0  0  0  0  0  0  0  0
   10.3465  -16.0470   24.1947 C   0  0  0  0  0  0  0  0  0  0  0  0
   10.4248  -14.8167   23.9185 O   0  0  0  0  0  0  0  0  0  0  0  0
    7.1835  -11.2692   26.9930 C   0  0  0  0  0  0  0  0  0  0  0  0
    6.7000  -12.9881   26.7891 S   0  0  0  0  0  0  0  0  0  0  0  0
    8.0562  -14.0297   27.4509 C   0  0  0  0  0  0  0  0  0  0  0  0
    8.5116  -14.9055   26.3223 C   0  0  0  0  0  0  0  0  0  0  0  0
    9.8988  -15.4181   26.6076 C   0  0  2  0  0  0  0  0  0  0  0  0
   10.2003  -16.4170   25.5418 N   0  0  0  0  0  0  0  0  0  0  0  0
    9.8885  -16.1768   27.8679 C   0  0  0  0  0  0  0  0  0  0  0  0
    9.7635  -17.4263   27.8304 O   0  0  0  0  0  0  0  0  0  0  0  0
   10.0102  -15.6245   29.1257 O   0  0  0  0  0  0  0  0  0  0  0  0
  2  1  1  1
  2  3  1  0
  3  4  1  0
  5  4  1  0
  5  6  1  0
  7  6  1  0
  8  9  2  0
  8  2  1  0
 10  8  1  0
 11 10  1  0
 11 12  1  6
 12 13  1  0
 13 17  1  0
 13 14  2  0
 14 15  1  0
 16 15  1  0
 17 16  2  0
 18 25  1  0
 18 11  1  0
 19 18  2  0
 20 21  1  0
 21 22  1  0
 23 22  1  0
 24 23  1  6
 24 25  1  0
 26 28  1  0
 26 24  1  0
 27 26  2  0
M  END
$$$$
