KHM.pdb
     RDKit          3D

 28 28  0  0  1  0  0  0  0  0999 V2000
   11.2146  -19.1038   19.7754 N   0  0  0  0  0  0  0  0  0  0  0  0
   12.1382  -18.0065   19.8437 C   0  0  1  0  0  0  0  0  0  0  0  0
   12.3778  -17.4125   18.4970 C   0  0  0  0  0  0  0  0  0  0  0  0
   12.9532  -18.2685   17.4447 C   0  0  0  0  0  0  0  0  0  0  0  0
   13.0455  -17.5902   16.1176 C   0  0  0  0  0  0  0  0  0  0  0  0
   13.5652  -18.5122   15.0612 C   0  0  0  0  0  0  0  0  0  0  0  0
   13.7033  -17.8437   13.7733 N   0  0  0  0  0  0  0  0  0  0  0  0
   11.6063  -16.8831   20.7010 C   0  0  0  0  0  0  0  0  0  0  0  0
   12.2183  -15.8198   20.8545 O   0  0  0  0  0  0  0  0  0  0  0  0
   10.3766  -17.0825   21.3308 N   0  0  0  0  0  0  0  0  0  0  0  0
    9.7810  -16.0817   22.2348 C   0  0  1  0  0  0  0  0  0  0  0  0
    8.3255  -16.0266   21.8968 C   0  0  0  0  0  0  0  0  0  0  0  0
    7.9859  -15.0707   20.8387 C   0  0  0  0  0  0  0  0  0  0  0  0
    7.6268  -15.4560   19.5470 C   0  0  0  0  0  0  0  0  0  0  0  0
    7.3895  -14.2984   18.8703 N   0  0  0  0  0  0  0  0  0  0  0  0
    7.5809  -13.2467   19.6649 C   0  0  0  0  0  0  0  0  0  0  0  0
    7.9463  -13.7274   20.8703 N   0  0  0  0  0  0  0  0  0  0  0  0
   10.0692  -16.4794   23.6187 C   0  0  0  0  0  0  0  0  0  0  0  0
   10.5776  -17.6199   23.8107 O   0  0  0  0  0  0  0  0  0  0  0  0
    9.9573  -14.2765   31.1838 C   0  0  0  0  0  0  0  0  0  0  0  0
    9.5015  -13.9266   29.4809 S   0  0  0  0  0  0  0  0  0  0  0  0
   10.1697  -15.2781   28.4372 C   0  0  0  0  0  0  0  0  0  0  0  0
    9.8124  -14.9402   27.0208 C   0  0  0  0  0  0  0  0  0  0  0  0
   10.2811  -16.0399   26.1046 C   0  0  2  0  0  0  0  0  0  0  0  0
    9.8137  -15.6696   24.7375 N   0  0  0  0  0  0  0  0  0  0  0  0
    9.5754  -17.2866   26.4387 C   0  0  0  0  0  0  0  0  0  0  0  0
    8.4598  -17.5203   25.9103 O   0  0  0  0  0  0  0  0  0  0  0  0
   10.0428  -18.2537   27.3037 O   0  0  0  0  0  0  0  0  0  0  0  0
  2  1  1  6
  2  3  1  0
  3  4  1  0
  5  4  1  0
  5  6  1  0
  7  6  1  0
  8  9  2  0
  8  2  1  0
 10  8  1  0
 11 10  1  0
 11 12  1  1
 12 13  1  0
 13 17  1  0
 13 14  2  0
 14 15  1  0
 16 15  1  0
 17 16  2  0
 18 25  1  0
 18 11  1  0
 19 18  2  0
 20 21  1  0
 21 22  1  0
 23 22  1  0
 24 23  1  1
 24 25  1  0
 26 28  1  0
 26 24  1  0
 27 26  2  0
M  END
$$$$
