KHM.pdb
     RDKit          3D

 28 28  0  0  1  0  0  0  0  0999 V2000
    9.5489  -17.7479   18.7210 N   0  0  0  0  0  0  0  0  0  0  0  0
   10.1028  -18.3007   19.9250 C   0  0  1  0  0  0  0  0  0  0  0  0
   11.4939  -17.8158   20.1565 C   0  0  0  0  0  0  0  0  0  0  0  0
   12.0090  -16.7290   19.3052 C   0  0  0  0  0  0  0  0  0  0  0  0
   13.2788  -17.0816   18.6029 C   0  0  0  0  0  0  0  0  0  0  0  0
   13.8386  -15.9140   17.8549 C   0  0  0  0  0  0  0  0  0  0  0  0
   15.1628  -16.1959   17.3149 N   0  0  0  0  0  0  0  0  0  0  0  0
    9.3135  -17.8855   21.1434 C   0  0  0  0  0  0  0  0  0  0  0  0
    8.5442  -16.9176   21.1365 O   0  0  0  0  0  0  0  0  0  0  0  0
    9.4802  -18.6415   22.3051 N   0  0  0  0  0  0  0  0  0  0  0  0
    8.6657  -18.4214   23.5140 C   0  0  1  0  0  0  0  0  0  0  0  0
    8.7175  -19.6977   24.2912 C   0  0  0  0  0  0  0  0  0  0  0  0
    8.0952  -19.6249   25.6164 C   0  0  0  0  0  0  0  0  0  0  0  0
    8.7899  -19.8680   26.8014 C   0  0  0  0  0  0  0  0  0  0  0  0
    7.8802  -19.7041   27.8014 N   0  0  0  0  0  0  0  0  0  0  0  0
    6.6897  -19.3800   27.2996 C   0  0  0  0  0  0  0  0  0  0  0  0
    6.8286  -19.3332   25.9595 N   0  0  0  0  0  0  0  0  0  0  0  0
    9.2011  -17.2539   24.2258 C   0  0  0  0  0  0  0  0  0  0  0  0
   10.4519  -17.0765   24.2103 O   0  0  0  0  0  0  0  0  0  0  0  0
    5.4515  -12.6214   26.6410 C   0  0  0  0  0  0  0  0  0  0  0  0
    7.0570  -11.8141   26.6626 S   0  0  0  0  0  0  0  0  0  0  0  0
    8.3335  -13.1187   26.8377 C   0  0  0  0  0  0  0  0  0  0  0  0
    7.8279  -14.3142   26.0872 C   0  0  0  0  0  0  0  0  0  0  0  0
    8.9928  -15.1244   25.5821 C   0  0  2  0  0  0  0  0  0  0  0  0
    8.4077  -16.3264   24.9207 N   0  0  0  0  0  0  0  0  0  0  0  0
    9.7615  -15.6385   26.7262 C   0  0  0  0  0  0  0  0  0  0  0  0
   10.6289  -14.9044   27.2618 O   0  0  0  0  0  0  0  0  0  0  0  0
    9.6098  -16.8910   27.2834 O   0  0  0  0  0  0  0  0  0  0  0  0
  2  1  1  6
  2  3  1  0
  3  4  1  0
  5  4  1  0
  5  6  1  0
  7  6  1  0
  8  9  2  0
  8  2  1  0
 10  8  1  0
 11 10  1  0
 11 12  1  1
 12 13  1  0
 13 17  1  0
 13 14  2  0
 14 15  1  0
 16 15  1  0
 17 16  2  0
 18 25  1  0
 18 11  1  0
 19 18  2  0
 20 21  1  0
 21 22  1  0
 23 22  1  0
 24 23  1  1
 24 25  1  0
 26 28  1  0
 26 24  1  0
 27 26  2  0
M  END
$$$$
