KHM.pdb
     RDKit          3D

 28 28  0  0  1  0  0  0  0  0999 V2000
    5.5429  -17.7920   21.1682 N   0  0  0  0  0  0  0  0  0  0  0  0
    6.8171  -18.3742   20.8533 C   0  0  1  0  0  0  0  0  0  0  0  0
    6.7791  -19.0926   19.5470 C   0  0  0  0  0  0  0  0  0  0  0  0
    5.5337  -19.0533   18.7605 C   0  0  0  0  0  0  0  0  0  0  0  0
    5.5925  -19.8842   17.5211 C   0  0  0  0  0  0  0  0  0  0  0  0
    4.3478  -19.7458   16.7040 C   0  0  0  0  0  0  0  0  0  0  0  0
    4.4366  -20.4772   15.4464 N   0  0  0  0  0  0  0  0  0  0  0  0
    7.8913  -17.3222   20.7140 C   0  0  0  0  0  0  0  0  0  0  0  0
    9.0536  -17.5997   20.3968 O   0  0  0  0  0  0  0  0  0  0  0  0
    7.5280  -15.9968   20.9594 N   0  0  0  0  0  0  0  0  0  0  0  0
    8.4957  -14.8868   20.8884 C   0  0  1  0  0  0  0  0  0  0  0  0
    7.9408  -13.9109   19.9008 C   0  0  0  0  0  0  0  0  0  0  0  0
    8.2273  -14.2378   18.5009 C   0  0  0  0  0  0  0  0  0  0  0  0
    8.9950  -15.3365   18.1142 C   0  0  0  0  0  0  0  0  0  0  0  0
    9.0307  -15.2997   16.7533 N   0  0  0  0  0  0  0  0  0  0  0  0
    8.3388  -14.2569   16.2972 C   0  0  0  0  0  0  0  0  0  0  0  0
    7.8490  -13.6102   17.3739 N   0  0  0  0  0  0  0  0  0  0  0  0
    8.6783  -14.3456   22.2412 C   0  0  0  0  0  0  0  0  0  0  0  0
    8.6182  -13.0922   22.3878 O   0  0  0  0  0  0  0  0  0  0  0  0
    6.4779  -11.3525   28.1546 C   0  0  0  0  0  0  0  0  0  0  0  0
    6.2551  -12.4654   26.7611 S   0  0  0  0  0  0  0  0  0  0  0  0
    7.8563  -13.3066   26.4595 C   0  0  0  0  0  0  0  0  0  0  0  0
    7.7920  -13.8606   25.0677 C   0  0  0  0  0  0  0  0  0  0  0  0
    9.0942  -14.5392   24.7327 C   0  0  2  0  0  0  0  0  0  0  0  0
    8.9153  -15.1362   23.3776 N   0  0  0  0  0  0  0  0  0  0  0  0
    9.2985  -15.6777   25.6416 C   0  0  0  0  0  0  0  0  0  0  0  0
    8.9528  -16.8274   25.2717 O   0  0  0  0  0  0  0  0  0  0  0  0
    9.8552  -15.5957   26.9007 O   0  0  0  0  0  0  0  0  0  0  0  0
  2  1  1  6
  2  3  1  0
  3  4  1  0
  5  4  1  0
  5  6  1  0
  7  6  1  0
  8  9  2  0
  8  2  1  0
 10  8  1  0
 11 10  1  0
 11 12  1  6
 12 13  1  0
 13 17  1  0
 13 14  2  0
 14 15  1  0
 16 15  1  0
 17 16  2  0
 18 25  1  0
 18 11  1  0
 19 18  2  0
 20 21  1  0
 21 22  1  0
 23 22  1  0
 24 23  1  1
 24 25  1  0
 26 28  1  0
 26 24  1  0
 27 26  2  0
M  END
$$$$
