KHM.pdb
     RDKit          3D

 28 28  0  0  1  0  0  0  0  0999 V2000
   10.1709  -15.1004   18.3446 N   0  0  0  0  0  0  0  0  0  0  0  0
    9.3286  -14.0883   18.9174 C   0  0  1  0  0  0  0  0  0  0  0  0
    8.3527  -13.5637   17.9192 C   0  0  0  0  0  0  0  0  0  0  0  0
    8.6956  -13.6527   16.4889 C   0  0  0  0  0  0  0  0  0  0  0  0
    7.6267  -14.2920   15.6651 C   0  0  0  0  0  0  0  0  0  0  0  0
    8.0348  -14.4168   14.2318 C   0  0  0  0  0  0  0  0  0  0  0  0
    8.5147  -15.7563   13.9157 N   0  0  0  0  0  0  0  0  0  0  0  0
    8.5005  -14.6319   20.0570 C   0  0  0  0  0  0  0  0  0  0  0  0
    7.6250  -13.9631   20.6180 O   0  0  0  0  0  0  0  0  0  0  0  0
    8.7568  -15.9406   20.4701 N   0  0  0  0  0  0  0  0  0  0  0  0
    8.0797  -16.5495   21.6295 C   0  0  1  0  0  0  0  0  0  0  0  0
    8.3299  -18.0205   21.5347 C   0  0  0  0  0  0  0  0  0  0  0  0
    7.8934  -18.7853   22.7066 C   0  0  0  0  0  0  0  0  0  0  0  0
    8.7730  -19.2655   23.6769 C   0  0  0  0  0  0  0  0  0  0  0  0
    7.9967  -19.9138   24.5888 N   0  0  0  0  0  0  0  0  0  0  0  0
    6.7143  -19.8561   24.2336 C   0  0  0  0  0  0  0  0  0  0  0  0
    6.6581  -19.1628   23.0787 N   0  0  0  0  0  0  0  0  0  0  0  0
    8.5998  -15.9216   22.8507 C   0  0  0  0  0  0  0  0  0  0  0  0
    9.8131  -15.5695   22.8618 O   0  0  0  0  0  0  0  0  0  0  0  0
    6.3943  -10.9284   28.3291 C   0  0  0  0  0  0  0  0  0  0  0  0
    5.9417  -12.1525   27.0936 S   0  0  0  0  0  0  0  0  0  0  0  0
    7.4535  -13.0990   26.6682 C   0  0  0  0  0  0  0  0  0  0  0  0
    7.1026  -13.9573   25.4900 C   0  0  0  0  0  0  0  0  0  0  0  0
    8.2957  -14.7875   25.0955 C   0  0  2  0  0  0  0  0  0  0  0  0
    7.8310  -15.6906   24.0032 N   0  0  0  0  0  0  0  0  0  0  0  0
    8.6631  -15.6737   26.2107 C   0  0  0  0  0  0  0  0  0  0  0  0
    9.2064  -15.1822   27.2312 O   0  0  0  0  0  0  0  0  0  0  0  0
    8.4562  -17.0369   26.2401 O   0  0  0  0  0  0  0  0  0  0  0  0
  2  1  1  6
  2  3  1  0
  3  4  1  0
  5  4  1  0
  5  6  1  0
  7  6  1  0
  8  9  2  0
  8  2  1  0
 10  8  1  0
 11 10  1  0
 11 12  1  1
 12 13  1  0
 13 17  1  0
 13 14  2  0
 14 15  1  0
 16 15  1  0
 17 16  2  0
 18 25  1  0
 18 11  1  0
 19 18  2  0
 20 21  1  0
 21 22  1  0
 23 22  1  0
 24 23  1  1
 24 25  1  0
 26 28  1  0
 26 24  1  0
 27 26  2  0
M  END
$$$$
