KHM.pdb
     RDKit          3D

 28 28  0  0  1  0  0  0  0  0999 V2000
    7.5357  -18.2259   20.4289 N   0  0  0  0  0  0  0  0  0  0  0  0
    8.9628  -18.2211   20.2700 C   0  0  1  0  0  0  0  0  0  0  0  0
    9.3513  -18.3797   18.8389 C   0  0  0  0  0  0  0  0  0  0  0  0
    8.3929  -17.9610   17.8010 C   0  0  0  0  0  0  0  0  0  0  0  0
    8.7949  -18.3777   16.4246 C   0  0  0  0  0  0  0  0  0  0  0  0
    7.8000  -17.9332   15.4005 C   0  0  0  0  0  0  0  0  0  0  0  0
    8.1862  -18.3358   14.0538 N   0  0  0  0  0  0  0  0  0  0  0  0
    9.5691  -16.9132   20.7191 C   0  0  0  0  0  0  0  0  0  0  0  0
   10.7766  -16.6708   20.6111 O   0  0  0  0  0  0  0  0  0  0  0  0
    8.7092  -15.9633   21.2732 N   0  0  0  0  0  0  0  0  0  0  0  0
    9.1653  -14.6158   21.6602 C   0  0  1  0  0  0  0  0  0  0  0  0
    8.2794  -13.6512   20.9387 C   0  0  0  0  0  0  0  0  0  0  0  0
    8.3733  -13.7201   19.4774 C   0  0  0  0  0  0  0  0  0  0  0  0
    7.4012  -13.1986   18.6237 C   0  0  0  0  0  0  0  0  0  0  0  0
    7.8439  -13.4552   17.3617 N   0  0  0  0  0  0  0  0  0  0  0  0
    9.0124  -14.0935   17.3988 C   0  0  0  0  0  0  0  0  0  0  0  0
    9.3311  -14.2526   18.6990 N   0  0  0  0  0  0  0  0  0  0  0  0
    9.1119  -14.5124   23.1240 C   0  0  0  0  0  0  0  0  0  0  0  0
    9.0669  -13.3566   23.6321 O   0  0  0  0  0  0  0  0  0  0  0  0
    6.3687  -11.2827   26.4455 C   0  0  0  0  0  0  0  0  0  0  0  0
    6.0453  -13.0073   26.8338 S   0  0  0  0  0  0  0  0  0  0  0  0
    7.6521  -13.8908   26.8234 C   0  0  0  0  0  0  0  0  0  0  0  0
    7.5935  -14.8702   25.6896 C   0  0  0  0  0  0  0  0  0  0  0  0
    8.9580  -15.4670   25.4656 C   0  0  2  0  0  0  0  0  0  0  0  0
    9.1083  -15.6187   23.9894 N   0  0  0  0  0  0  0  0  0  0  0  0
    8.9871  -16.8342   26.0077 C   0  0  0  0  0  0  0  0  0  0  0  0
    8.8218  -17.0087   27.2407 O   0  0  0  0  0  0  0  0  0  0  0  0
    9.1824  -17.9778   25.2618 O   0  0  0  0  0  0  0  0  0  0  0  0
  2  1  1  6
  2  3  1  0
  3  4  1  0
  5  4  1  0
  5  6  1  0
  7  6  1  0
  8  9  2  0
  8  2  1  0
 10  8  1  0
 11 10  1  0
 11 12  1  6
 12 13  1  0
 13 17  1  0
 13 14  2  0
 14 15  1  0
 16 15  1  0
 17 16  2  0
 18 25  1  0
 18 11  1  0
 19 18  2  0
 20 21  1  0
 21 22  1  0
 23 22  1  0
 24 23  1  6
 24 25  1  0
 26 28  1  0
 26 24  1  0
 27 26  2  0
M  END
$$$$
