KHM.pdb
     RDKit          3D

 28 28  0  0  1  0  0  0  0  0999 V2000
   10.2775  -16.8382   19.3062 N   0  0  0  0  0  0  0  0  0  0  0  0
   10.4102  -15.4112   19.3954 C   0  0  1  0  0  0  0  0  0  0  0  0
    9.6639  -14.7260   18.3011 C   0  0  0  0  0  0  0  0  0  0  0  0
    9.7970  -15.2455   16.9287 C   0  0  0  0  0  0  0  0  0  0  0  0
    8.4844  -15.5323   16.2769 C   0  0  0  0  0  0  0  0  0  0  0  0
    8.6618  -16.1329   14.9190 C   0  0  0  0  0  0  0  0  0  0  0  0
    7.3876  -16.5002   14.3141 N   0  0  0  0  0  0  0  0  0  0  0  0
    9.8335  -14.8775   20.6847 C   0  0  0  0  0  0  0  0  0  0  0  0
    9.7912  -13.6688   20.9415 O   0  0  0  0  0  0  0  0  0  0  0  0
    9.3385  -15.8075   21.6006 N   0  0  0  0  0  0  0  0  0  0  0  0
    8.8250  -15.4146   22.9254 C   0  0  1  0  0  0  0  0  0  0  0  0
    7.4301  -15.9468   23.0079 C   0  0  0  0  0  0  0  0  0  0  0  0
    6.7399  -15.6431   24.2649 C   0  0  0  0  0  0  0  0  0  0  0  0
    6.4012  -14.3480   24.6573 C   0  0  0  0  0  0  0  0  0  0  0  0
    5.7819  -14.4790   25.8630 N   0  0  0  0  0  0  0  0  0  0  0  0
    5.7256  -15.7607   26.2209 C   0  0  0  0  0  0  0  0  0  0  0  0
    6.3147  -16.4689   25.2366 N   0  0  0  0  0  0  0  0  0  0  0  0
    9.7375  -15.9395   23.9492 C   0  0  0  0  0  0  0  0  0  0  0  0
   10.6531  -16.7258   23.5755 O   0  0  0  0  0  0  0  0  0  0  0  0
    9.4133  -11.2874   27.9986 C   0  0  0  0  0  0  0  0  0  0  0  0
    9.6185  -12.9915   28.5313 S   0  0  0  0  0  0  0  0  0  0  0  0
   10.4843  -13.8933   27.1898 C   0  0  0  0  0  0  0  0  0  0  0  0
   10.4474  -15.3460   27.5590 C   0  0  0  0  0  0  0  0  0  0  0  0
   10.5983  -16.1872   26.3189 C   0  0  2  0  0  0  0  0  0  0  0  0
    9.6526  -15.6205   25.3144 N   0  0  0  0  0  0  0  0  0  0  0  0
   10.1143  -17.5493   26.5919 C   0  0  0  0  0  0  0  0  0  0  0  0
   10.7697  -18.2891   27.3673 O   0  0  0  0  0  0  0  0  0  0  0  0
    8.9693  -18.1043   26.0598 O   0  0  0  0  0  0  0  0  0  0  0  0
  2  1  1  1
  2  3  1  0
  3  4  1  0
  5  4  1  0
  5  6  1  0
  7  6  1  0
  8  9  2  0
  8  2  1  0
 10  8  1  0
 11 10  1  0
 11 12  1  1
 12 13  1  0
 13 17  1  0
 13 14  2  0
 14 15  1  0
 16 15  1  0
 17 16  2  0
 18 25  1  0
 18 11  1  0
 19 18  2  0
 20 21  1  0
 21 22  1  0
 23 22  1  0
 24 23  1  1
 24 25  1  0
 26 28  1  0
 26 24  1  0
 27 26  2  0
M  END
$$$$
