NHG.pdb
     RDKit          3D

 23 23  0  0  1  0  0  0  0  0999 V2000
   16.1287  -28.5286   30.0182 N   0  0  0  0  0  0  0  0  0  0  0  0
   16.9610  -28.4047   31.1601 C   0  0  0  0  0  0  0  0  0  0  0  0
   18.0331  -29.0623   31.2143 O   0  0  0  0  0  0  0  0  0  0  0  0
   16.6470  -27.5348   32.3184 C   0  0  0  0  0  0  0  0  0  0  0  0
   15.3074  -26.8239   32.0856 C   0  0  2  0  0  0  0  0  0  0  0  0
   15.4361  -26.1371   30.8176 N   0  0  0  0  0  0  0  0  0  0  0  0
   15.1146  -25.8370   33.1786 C   0  0  0  0  0  0  0  0  0  0  0  0
   14.5879  -26.2320   34.2725 O   0  0  0  0  0  0  0  0  0  0  0  0
   15.4931  -24.4753   33.0522 N   0  0  0  0  0  0  0  0  0  0  0  0
   15.2764  -23.5500   34.1345 C   0  0  1  0  0  0  0  0  0  0  0  0
   16.5785  -22.8226   34.3810 C   0  0  0  0  0  0  0  0  0  0  0  0
   17.5470  -23.6832   35.0991 C   0  0  0  0  0  0  0  0  0  0  0  0
   17.3409  -24.9004   35.7040 C   0  0  0  0  0  0  0  0  0  0  0  0
   18.4874  -25.3481   36.2450 N   0  0  0  0  0  0  0  0  0  0  0  0
   19.4210  -24.4200   35.9860 C   0  0  0  0  0  0  0  0  0  0  0  0
   18.8485  -23.4103   35.2905 N   0  0  0  0  0  0  0  0  0  0  0  0
   14.1814  -22.5916   33.8340 C   0  0  0  0  0  0  0  0  0  0  0  0
   13.9179  -21.6681   34.6437 O   0  0  0  0  0  0  0  0  0  0  0  0
   13.4026  -22.6669   32.6566 N   0  0  0  0  0  0  0  0  0  0  0  0
   12.3852  -21.6718   32.3590 C   0  0  0  0  0  0  0  0  0  0  0  0
   12.4830  -21.1816   30.9720 C   0  0  0  0  0  0  0  0  0  0  0  0
   11.5560  -20.2932   30.4747 O   0  0  0  0  0  0  0  0  0  0  0  0
   13.4137  -21.5745   30.2415 O   0  0  0  0  0  0  0  0  0  0  0  0
  2  1  1  0
  2  3  2  0
  4  5  1  0
  4  2  1  0
  5  7  1  0
  5  6  1  6
  7  8  2  0
  9  7  1  0
  9 10  1  0
 10 17  1  0
 10 11  1  6
 12 11  1  0
 12 16  1  0
 13 14  1  0
 13 12  2  0
 14 15  1  0
 15 16  2  0
 17 19  1  0
 18 17  2  0
 19 20  1  0
 20 21  1  0
 21 23  2  0
 21 22  1  0
M  END
$$$$
