NHG.pdb
     RDKit          3D

 23 23  0  0  1  0  0  0  0  0999 V2000
    4.8853  -20.0490   17.0831 N   0  0  0  0  0  0  0  0  0  0  0  0
    4.1377  -20.2049   18.2784 C   0  0  0  0  0  0  0  0  0  0  0  0
    3.0824  -20.8910   18.2588 O   0  0  0  0  0  0  0  0  0  0  0  0
    4.5232  -19.6019   19.5763 C   0  0  0  0  0  0  0  0  0  0  0  0
    5.8034  -20.2676   20.0981 C   0  0  2  0  0  0  0  0  0  0  0  0
    5.4826  -21.6691   20.2681 N   0  0  0  0  0  0  0  0  0  0  0  0
    6.1340  -19.6610   21.4128 C   0  0  0  0  0  0  0  0  0  0  0  0
    6.3869  -18.4106   21.4624 O   0  0  0  0  0  0  0  0  0  0  0  0
    6.1790  -20.4178   22.6123 N   0  0  0  0  0  0  0  0  0  0  0  0
    6.5657  -19.8009   23.8551 C   0  0  1  0  0  0  0  0  0  0  0  0
    6.1237  -20.7145   24.9755 C   0  0  0  0  0  0  0  0  0  0  0  0
    6.5390  -20.1855   26.2954 C   0  0  0  0  0  0  0  0  0  0  0  0
    7.0252  -18.9399   26.6147 C   0  0  0  0  0  0  0  0  0  0  0  0
    7.2824  -18.8676   27.9324 N   0  0  0  0  0  0  0  0  0  0  0  0
    6.9615  -20.0625   28.4512 C   0  0  0  0  0  0  0  0  0  0  0  0
    6.5105  -20.8611   27.4563 N   0  0  0  0  0  0  0  0  0  0  0  0
    8.0292  -19.5520   23.9189 C   0  0  0  0  0  0  0  0  0  0  0  0
    8.4670  -18.5439   24.5271 O   0  0  0  0  0  0  0  0  0  0  0  0
    8.9767  -20.4110   23.3166 N   0  0  0  0  0  0  0  0  0  0  0  0
   10.4016  -20.1303   23.3849 C   0  0  0  0  0  0  0  0  0  0  0  0
   11.1978  -21.1442   22.6695 C   0  0  0  0  0  0  0  0  0  0  0  0
   12.1170  -21.9177   23.3425 O   0  0  0  0  0  0  0  0  0  0  0  0
   11.0381  -21.3038   21.4434 O   0  0  0  0  0  0  0  0  0  0  0  0
  2  1  1  0
  2  3  2  0
  4  5  1  0
  4  2  1  0
  5  7  1  0
  5  6  1  1
  7  8  2  0
  9  7  1  0
  9 10  1  0
 10 17  1  0
 10 11  1  1
 12 11  1  0
 12 16  1  0
 13 14  1  0
 13 12  2  0
 14 15  1  0
 15 16  2  0
 17 19  1  0
 18 17  2  0
 19 20  1  0
 20 21  1  0
 21 23  2  0
 21 22  1  0
M  END
$$$$
