NHG.pdb
     RDKit          3D

 23 23  0  0  1  0  0  0  0  0999 V2000
   14.1279  -15.7473   15.5686 N   0  0  0  0  0  0  0  0  0  0  0  0
   12.7144  -15.6402   15.6200 C   0  0  0  0  0  0  0  0  0  0  0  0
   12.0573  -15.6499   14.5463 O   0  0  0  0  0  0  0  0  0  0  0  0
   11.9425  -15.5151   16.8791 C   0  0  0  0  0  0  0  0  0  0  0  0
   12.8976  -15.5524   18.0793 C   0  0  2  0  0  0  0  0  0  0  0  0
   13.0869  -16.9528   18.3942 N   0  0  0  0  0  0  0  0  0  0  0  0
   12.2349  -14.8631   19.2158 C   0  0  0  0  0  0  0  0  0  0  0  0
   12.6919  -13.7331   19.5954 O   0  0  0  0  0  0  0  0  0  0  0  0
   11.1157  -15.4128   19.8933 N   0  0  0  0  0  0  0  0  0  0  0  0
   10.5021  -14.7073   20.9888 C   0  0  1  0  0  0  0  0  0  0  0  0
    9.0038  -14.8156   20.8199 C   0  0  0  0  0  0  0  0  0  0  0  0
    8.5396  -14.0499   19.6399 C   0  0  0  0  0  0  0  0  0  0  0  0
    9.2616  -13.2434   18.7924 C   0  0  0  0  0  0  0  0  0  0  0  0
    8.4579  -12.7323   17.8436 N   0  0  0  0  0  0  0  0  0  0  0  0
    7.2280  -13.2110   18.0851 C   0  0  0  0  0  0  0  0  0  0  0  0
    7.2795  -14.0105   19.1756 N   0  0  0  0  0  0  0  0  0  0  0  0
   10.9285  -15.2485   22.3054 C   0  0  0  0  0  0  0  0  0  0  0  0
   10.4054  -14.8124   23.3608 O   0  0  0  0  0  0  0  0  0  0  0  0
   11.9155  -16.2523   22.4347 N   0  0  0  0  0  0  0  0  0  0  0  0
   12.2742  -16.7960   23.7346 C   0  0  0  0  0  0  0  0  0  0  0  0
   13.2961  -17.8533   23.6267 C   0  0  0  0  0  0  0  0  0  0  0  0
   13.7209  -18.5353   24.7448 O   0  0  0  0  0  0  0  0  0  0  0  0
   13.7809  -18.1333   22.5128 O   0  0  0  0  0  0  0  0  0  0  0  0
  2  1  1  0
  2  3  2  0
  4  5  1  0
  4  2  1  0
  5  7  1  0
  5  6  1  1
  7  8  2  0
  9  7  1  0
  9 10  1  0
 10 17  1  0
 10 11  1  6
 12 11  1  0
 12 16  1  0
 13 14  1  0
 13 12  2  0
 14 15  1  0
 15 16  2  0
 17 19  1  0
 18 17  2  0
 19 20  1  0
 20 21  1  0
 21 23  2  0
 21 22  1  0
M  END
$$$$
