NHG.pdb
     RDKit          3D

 23 23  0  0  1  0  0  0  0  0999 V2000
   12.7518  -18.9208   19.0614 N   0  0  0  0  0  0  0  0  0  0  0  0
   12.3449  -17.7309   18.4052 C   0  0  0  0  0  0  0  0  0  0  0  0
   12.6746  -17.5471   17.2043 O   0  0  0  0  0  0  0  0  0  0  0  0
   11.5408  -16.6668   19.0517 C   0  0  0  0  0  0  0  0  0  0  0  0
   11.2052  -17.0729   20.4927 C   0  0  2  0  0  0  0  0  0  0  0  0
   10.1804  -18.0905   20.3914 N   0  0  0  0  0  0  0  0  0  0  0  0
   10.6658  -15.8793   21.1930 C   0  0  0  0  0  0  0  0  0  0  0  0
   11.4558  -14.9074   21.4407 O   0  0  0  0  0  0  0  0  0  0  0  0
    9.3088  -15.7797   21.5956 N   0  0  0  0  0  0  0  0  0  0  0  0
    8.8334  -14.6110   22.2904 C   0  0  1  0  0  0  0  0  0  0  0  0
    7.4814  -14.2559   21.7149 C   0  0  0  0  0  0  0  0  0  0  0  0
    7.5541  -14.0714   20.2469 C   0  0  0  0  0  0  0  0  0  0  0  0
    7.8590  -12.9381   19.5309 C   0  0  0  0  0  0  0  0  0  0  0  0
    7.8143  -13.1978   18.2126 N   0  0  0  0  0  0  0  0  0  0  0  0
    7.4822  -14.4918   18.0883 C   0  0  0  0  0  0  0  0  0  0  0  0
    7.3247  -15.0204   19.3240 N   0  0  0  0  0  0  0  0  0  0  0  0
    8.7441  -14.8353   23.7565 C   0  0  0  0  0  0  0  0  0  0  0  0
    8.0620  -14.0572   24.4686 O   0  0  0  0  0  0  0  0  0  0  0  0
    9.4024  -15.9041   24.4068 N   0  0  0  0  0  0  0  0  0  0  0  0
    9.2845  -16.1025   25.8423 C   0  0  0  0  0  0  0  0  0  0  0  0
    9.0860  -17.5219   26.1879 C   0  0  0  0  0  0  0  0  0  0  0  0
    8.9962  -17.9180   27.5035 O   0  0  0  0  0  0  0  0  0  0  0  0
    8.9984  -18.3728   25.2809 O   0  0  0  0  0  0  0  0  0  0  0  0
  2  1  1  0
  2  3  2  0
  4  5  1  0
  4  2  1  0
  5  7  1  0
  5  6  1  6
  7  8  2  0
  9  7  1  0
  9 10  1  0
 10 17  1  0
 10 11  1  6
 12 11  1  0
 12 16  1  0
 13 14  1  0
 13 12  2  0
 14 15  1  0
 15 16  2  0
 17 19  1  0
 18 17  2  0
 19 20  1  0
 20 21  1  0
 21 23  2  0
 21 22  1  0
M  END
$$$$
