NHG.pdb
     RDKit          3D

 23 23  0  0  1  0  0  0  0  0999 V2000
   15.5401  -15.3843   17.6466 N   0  0  0  0  0  0  0  0  0  0  0  0
   14.3877  -14.7079   17.1704 C   0  0  0  0  0  0  0  0  0  0  0  0
   14.4326  -14.1268   16.0547 O   0  0  0  0  0  0  0  0  0  0  0  0
   13.1073  -14.6377   17.9137 C   0  0  0  0  0  0  0  0  0  0  0  0
   13.2207  -15.4352   19.2195 C   0  0  2  0  0  0  0  0  0  0  0  0
   12.7581  -16.7720   18.9112 N   0  0  0  0  0  0  0  0  0  0  0  0
   12.3220  -14.8071   20.2214 C   0  0  0  0  0  0  0  0  0  0  0  0
   12.6551  -13.6796   20.7190 O   0  0  0  0  0  0  0  0  0  0  0  0
   11.1103  -15.4123   20.6446 N   0  0  0  0  0  0  0  0  0  0  0  0
   10.2895  -14.7868   21.6493 C   0  0  1  0  0  0  0  0  0  0  0  0
    8.8512  -14.8954   21.1967 C   0  0  0  0  0  0  0  0  0  0  0  0
    8.6124  -14.0996   19.9703 C   0  0  0  0  0  0  0  0  0  0  0  0
    7.5033  -14.0720   19.1585 C   0  0  0  0  0  0  0  0  0  0  0  0
    7.6937  -13.2103   18.1442 N   0  0  0  0  0  0  0  0  0  0  0  0
    8.9196  -12.6904   18.3086 C   0  0  0  0  0  0  0  0  0  0  0  0
    9.4757  -13.2312   19.4173 N   0  0  0  0  0  0  0  0  0  0  0  0
   10.4745  -15.4116   22.9846 C   0  0  0  0  0  0  0  0  0  0  0  0
    9.7272  -15.0823   23.9390 O   0  0  0  0  0  0  0  0  0  0  0  0
   11.4713  -16.3803   23.2427 N   0  0  0  0  0  0  0  0  0  0  0  0
   11.6805  -16.9111   24.5801 C   0  0  0  0  0  0  0  0  0  0  0  0
   11.3740  -18.3512   24.6554 C   0  0  0  0  0  0  0  0  0  0  0  0
   11.5237  -19.0396   25.8385 O   0  0  0  0  0  0  0  0  0  0  0  0
   10.9755  -18.9526   23.6387 O   0  0  0  0  0  0  0  0  0  0  0  0
  2  1  1  0
  2  3  2  0
  4  5  1  0
  4  2  1  0
  5  7  1  0
  5  6  1  6
  7  8  2  0
  9  7  1  0
  9 10  1  0
 10 17  1  0
 10 11  1  6
 12 11  1  0
 12 16  1  0
 13 14  1  0
 13 12  2  0
 14 15  1  0
 15 16  2  0
 17 19  1  0
 18 17  2  0
 19 20  1  0
 20 21  1  0
 21 23  2  0
 21 22  1  0
M  END
$$$$
