NHG.pdb
     RDKit          3D

 23 23  0  0  1  0  0  0  0  0999 V2000
    9.6851  -18.0881   18.9195 N   0  0  0  0  0  0  0  0  0  0  0  0
    9.8027  -19.1562   19.8456 C   0  0  0  0  0  0  0  0  0  0  0  0
   10.5876  -20.1070   19.5916 O   0  0  0  0  0  0  0  0  0  0  0  0
    9.0478  -19.2297   21.1190 C   0  0  0  0  0  0  0  0  0  0  0  0
    8.5092  -20.6520   21.3217 C   0  0  2  0  0  0  0  0  0  0  0  0
    7.4546  -20.8216   20.3445 N   0  0  0  0  0  0  0  0  0  0  0  0
    7.9469  -20.7395   22.6936 C   0  0  0  0  0  0  0  0  0  0  0  0
    7.1131  -19.8491   23.0701 O   0  0  0  0  0  0  0  0  0  0  0  0
    8.3015  -21.7734   23.5986 N   0  0  0  0  0  0  0  0  0  0  0  0
    7.8164  -21.7596   24.9548 C   0  0  1  0  0  0  0  0  0  0  0  0
    6.8966  -22.9474   25.1229 C   0  0  0  0  0  0  0  0  0  0  0  0
    5.6595  -22.7862   24.3242 C   0  0  0  0  0  0  0  0  0  0  0  0
    4.5876  -21.9548   24.5468 C   0  0  0  0  0  0  0  0  0  0  0  0
    3.6677  -22.1170   23.5798 N   0  0  0  0  0  0  0  0  0  0  0  0
    4.1513  -23.0483   22.7437 C   0  0  0  0  0  0  0  0  0  0  0  0
    5.3602  -23.4532   23.1971 N   0  0  0  0  0  0  0  0  0  0  0  0
    8.9267  -21.8040   25.9414 C   0  0  0  0  0  0  0  0  0  0  0  0
    9.7244  -22.7743   25.9431 O   0  0  0  0  0  0  0  0  0  0  0  0
    9.1367  -20.7870   26.9006 N   0  0  0  0  0  0  0  0  0  0  0  0
   10.2444  -20.8518   27.8401 C   0  0  0  0  0  0  0  0  0  0  0  0
   10.2738  -19.6833   28.7387 C   0  0  0  0  0  0  0  0  0  0  0  0
   11.1648  -19.6264   29.7869 O   0  0  0  0  0  0  0  0  0  0  0  0
    9.4848  -18.7370   28.5486 O   0  0  0  0  0  0  0  0  0  0  0  0
  2  1  1  0
  2  3  2  0
  4  5  1  0
  4  2  1  0
  5  7  1  0
  5  6  1  6
  7  8  2  0
  9  7  1  0
  9 10  1  0
 10 17  1  0
 10 11  1  6
 12 11  1  0
 12 16  1  0
 13 14  1  0
 13 12  2  0
 14 15  1  0
 15 16  2  0
 17 19  1  0
 18 17  2  0
 19 20  1  0
 20 21  1  0
 21 23  2  0
 21 22  1  0
M  END
$$$$
