NHG.pdb
     RDKit          3D

 23 23  0  0  1  0  0  0  0  0999 V2000
   14.2577  -15.1442   14.7440 N   0  0  0  0  0  0  0  0  0  0  0  0
   13.0925  -15.5501   15.4439 C   0  0  0  0  0  0  0  0  0  0  0  0
   12.4930  -16.5973   15.0853 O   0  0  0  0  0  0  0  0  0  0  0  0
   12.5213  -14.8088   16.5932 C   0  0  0  0  0  0  0  0  0  0  0  0
   12.9062  -15.5069   17.9042 C   0  0  2  0  0  0  0  0  0  0  0  0
   12.3983  -16.8586   17.7997 N   0  0  0  0  0  0  0  0  0  0  0  0
   12.2294  -14.7966   19.0192 C   0  0  0  0  0  0  0  0  0  0  0  0
   12.6479  -13.6361   19.3479 O   0  0  0  0  0  0  0  0  0  0  0  0
   11.1377  -15.3587   19.7306 N   0  0  0  0  0  0  0  0  0  0  0  0
   10.6007  -14.6980   20.8923 C   0  0  1  0  0  0  0  0  0  0  0  0
    9.0954  -14.6834   20.7544 C   0  0  0  0  0  0  0  0  0  0  0  0
    8.6809  -14.1121   19.4520 C   0  0  0  0  0  0  0  0  0  0  0  0
    8.4919  -12.7953   19.1052 C   0  0  0  0  0  0  0  0  0  0  0  0
    8.1142  -12.7056   17.8180 N   0  0  0  0  0  0  0  0  0  0  0  0
    8.0624  -13.9604   17.3458 C   0  0  0  0  0  0  0  0  0  0  0  0
    8.4067  -14.8127   18.3389 N   0  0  0  0  0  0  0  0  0  0  0  0
   11.0120  -15.3700   22.1522 C   0  0  0  0  0  0  0  0  0  0  0  0
   10.1538  -15.9548   22.8589 O   0  0  0  0  0  0  0  0  0  0  0  0
   12.3502  -15.3856   22.6074 N   0  0  0  0  0  0  0  0  0  0  0  0
   12.7205  -16.0589   23.8417 C   0  0  0  0  0  0  0  0  0  0  0  0
   14.1746  -16.0120   24.0802 C   0  0  0  0  0  0  0  0  0  0  0  0
   14.7133  -16.5309   25.2362 O   0  0  0  0  0  0  0  0  0  0  0  0
   14.9248  -15.4977   23.2276 O   0  0  0  0  0  0  0  0  0  0  0  0
  2  1  1  0
  2  3  2  0
  4  5  1  0
  4  2  1  0
  5  7  1  0
  5  6  1  6
  7  8  2  0
  9  7  1  0
  9 10  1  0
 10 17  1  0
 10 11  1  6
 12 11  1  0
 12 16  1  0
 13 14  1  0
 13 12  2  0
 14 15  1  0
 15 16  2  0
 17 19  1  0
 18 17  2  0
 19 20  1  0
 20 21  1  0
 21 23  2  0
 21 22  1  0
M  END
$$$$
