NHG.pdb
     RDKit          3D

 23 23  0  0  1  0  0  0  0  0999 V2000
   10.1654  -16.4969   13.8554 N   0  0  0  0  0  0  0  0  0  0  0  0
   11.3869  -16.4561   14.5754 C   0  0  0  0  0  0  0  0  0  0  0  0
   12.3719  -17.1169   14.1537 O   0  0  0  0  0  0  0  0  0  0  0  0
   11.5861  -15.6714   15.8169 C   0  0  0  0  0  0  0  0  0  0  0  0
   11.9880  -16.6078   16.9640 C   0  0  2  0  0  0  0  0  0  0  0  0
   11.0317  -17.6945   16.9447 N   0  0  0  0  0  0  0  0  0  0  0  0
   11.8700  -15.8521   18.2371 C   0  0  0  0  0  0  0  0  0  0  0  0
   12.7046  -14.9147   18.4708 O   0  0  0  0  0  0  0  0  0  0  0  0
   10.8667  -16.1330   19.2005 N   0  0  0  0  0  0  0  0  0  0  0  0
   10.8385  -15.4294   20.4570 C   0  0  1  0  0  0  0  0  0  0  0  0
    9.3944  -15.1091   20.7687 C   0  0  0  0  0  0  0  0  0  0  0  0
    8.8523  -14.1018   19.8275 C   0  0  0  0  0  0  0  0  0  0  0  0
    9.4935  -13.4324   18.8122 C   0  0  0  0  0  0  0  0  0  0  0  0
    8.6374  -12.6004   18.1938 N   0  0  0  0  0  0  0  0  0  0  0  0
    7.4548  -12.7388   18.8123 C   0  0  0  0  0  0  0  0  0  0  0  0
    7.5872  -13.6504   19.8036 N   0  0  0  0  0  0  0  0  0  0  0  0
   11.4544  -16.2237   21.5513 C   0  0  0  0  0  0  0  0  0  0  0  0
   11.4851  -17.4771   21.4745 O   0  0  0  0  0  0  0  0  0  0  0  0
   12.0207  -15.6281   22.7015 N   0  0  0  0  0  0  0  0  0  0  0  0
   12.7726  -16.4137   23.6666 C   0  0  0  0  0  0  0  0  0  0  0  0
   11.8938  -17.0415   24.6702 C   0  0  0  0  0  0  0  0  0  0  0  0
   12.4248  -17.7777   25.7056 O   0  0  0  0  0  0  0  0  0  0  0  0
   10.6577  -16.9053   24.5815 O   0  0  0  0  0  0  0  0  0  0  0  0
  2  1  1  0
  2  3  2  0
  4  5  1  0
  4  2  1  0
  5  7  1  0
  5  6  1  1
  7  8  2  0
  9  7  1  0
  9 10  1  0
 10 17  1  0
 10 11  1  1
 12 11  1  0
 12 16  1  0
 13 14  1  0
 13 12  2  0
 14 15  1  0
 15 16  2  0
 17 19  1  0
 18 17  2  0
 19 20  1  0
 20 21  1  0
 21 23  2  0
 21 22  1  0
M  END
$$$$
