AAE.pdb
     RDKit          3D

 20 19  0  0  1  0  0  0  0  0999 V2000
   22.3267  -14.1032  -19.1983 C   0  0  0  0  0  0  0  0  0  0  0  0
   21.2335  -13.0821  -19.4321 C   0  0  2  0  0  0  0  0  0  0  0  0
   21.0319  -12.7421  -20.8094 N   0  0  0  0  0  0  0  0  0  0  0  0
   21.5597  -11.8274  -18.6649 C   0  0  0  0  0  0  0  0  0  0  0  0
   21.2418  -11.7352  -17.4515 O   0  0  0  0  0  0  0  0  0  0  0  0
   23.5344   -8.6564  -19.1670 C   0  0  0  0  0  0  0  0  0  0  0  0
   22.5368   -9.5725  -18.5051 C   0  0  2  0  0  0  0  0  0  0  0  0
   22.2191  -10.7449  -19.2849 N   0  0  0  0  0  0  0  0  0  0  0  0
   21.2790   -8.8583  -18.1241 C   0  0  0  0  0  0  0  0  0  0  0  0
   20.3430   -8.6928  -18.9539 O   0  0  0  0  0  0  0  0  0  0  0  0
   21.1157   -8.3514  -16.8100 N   0  0  0  0  0  0  0  0  0  0  0  0
   19.9003   -7.6295  -16.3875 C   0  0  1  0  0  0  0  0  0  0  0  0
   19.0856   -8.6585  -15.6423 C   0  0  0  0  0  0  0  0  0  0  0  0
   17.8252   -8.1414  -15.0341 C   0  0  0  0  0  0  0  0  0  0  0  0
   17.1342   -9.2448  -14.3442 C   0  0  0  0  0  0  0  0  0  0  0  0
   17.2123  -10.4044  -14.7837 O   0  0  0  0  0  0  0  0  0  0  0  0
   20.3177   -6.5321  -15.4593 C   0  0  0  0  0  0  0  0  0  0  0  0
   19.4208   -5.5329  -15.1667 O   0  0  0  0  0  0  0  0  0  0  0  0
   16.3999   -8.9898  -13.2084 O   0  0  0  0  0  0  0  0  0  0  0  0
   21.4746   -6.5045  -14.9405 O   0  0  0  0  0  0  0  0  0  0  0  0
  2  1  1  6
  2  3  1  0
  4  8  1  0
  4  2  1  0
  5  4  2  0
  7  6  1  6
  7  9  1  0
  7  8  1  0
  9 11  1  0
 10  9  2  0
 11 12  1  0
 12 13  1  1
 13 14  1  0
 14 15  1  0
 15 19  1  0
 15 16  2  0
 17 12  1  0
 17 18  1  0
 20 17  2  0
M  END
$$$$
