AAE.pdb
     RDKit          3D

 20 19  0  0  1  0  0  0  0  0999 V2000
   19.5790  -14.9373  -15.9616 C   0  0  0  0  0  0  0  0  0  0  0  0
   18.4832  -14.2738  -16.7687 C   0  0  2  0  0  0  0  0  0  0  0  0
   18.6253  -14.4231  -18.1867 N   0  0  0  0  0  0  0  0  0  0  0  0
   18.4477  -12.8050  -16.4362 C   0  0  0  0  0  0  0  0  0  0  0  0
   19.4083  -12.0644  -16.7694 O   0  0  0  0  0  0  0  0  0  0  0  0
   15.8317  -10.2956  -15.6042 C   0  0  0  0  0  0  0  0  0  0  0  0
   17.2508  -10.8028  -15.6467 C   0  0  2  0  0  0  0  0  0  0  0  0
   17.3508  -12.2389  -15.7527 N   0  0  0  0  0  0  0  0  0  0  0  0
   18.0588  -10.3206  -14.4840 C   0  0  0  0  0  0  0  0  0  0  0  0
   18.1621  -11.0056  -13.4293 O   0  0  0  0  0  0  0  0  0  0  0  0
   18.7301   -9.0734  -14.5492 N   0  0  0  0  0  0  0  0  0  0  0  0
   19.6230   -8.6002  -13.4742 C   0  0  1  0  0  0  0  0  0  0  0  0
   20.3447   -7.4168  -14.0715 C   0  0  0  0  0  0  0  0  0  0  0  0
   21.3347   -6.7629  -13.1670 C   0  0  0  0  0  0  0  0  0  0  0  0
   22.0213   -5.6857  -13.9012 C   0  0  0  0  0  0  0  0  0  0  0  0
   22.0321   -5.6833  -15.1437 O   0  0  0  0  0  0  0  0  0  0  0  0
   18.7675   -8.1574  -12.3287 C   0  0  0  0  0  0  0  0  0  0  0  0
   19.2693   -8.2452  -11.0524 O   0  0  0  0  0  0  0  0  0  0  0  0
   22.6527   -4.6783  -13.2079 O   0  0  0  0  0  0  0  0  0  0  0  0
   17.5962   -7.7062  -12.5096 O   0  0  0  0  0  0  0  0  0  0  0  0
  2  1  1  1
  2  3  1  0
  4  8  1  0
  4  2  1  0
  5  4  2  0
  7  6  1  1
  7  9  1  0
  7  8  1  0
  9 11  1  0
 10  9  2  0
 11 12  1  0
 12 13  1  6
 13 14  1  0
 14 15  1  0
 15 19  1  0
 15 16  2  0
 17 12  1  0
 17 18  1  0
 20 17  2  0
M  END
$$$$
