AAE.pdb
     RDKit          3D

 20 19  0  0  1  0  0  0  0  0999 V2000
   15.1785   -9.0007  -17.2626 C   0  0  0  0  0  0  0  0  0  0  0  0
   15.6654  -10.3005  -16.6579 C   0  0  2  0  0  0  0  0  0  0  0  0
   14.7430  -10.9047  -15.7428 N   0  0  0  0  0  0  0  0  0  0  0  0
   16.9677  -10.0531  -15.9423 C   0  0  0  0  0  0  0  0  0  0  0  0
   16.9644   -9.5191  -14.8035 O   0  0  0  0  0  0  0  0  0  0  0  0
   20.5151  -11.1648  -16.1050 C   0  0  0  0  0  0  0  0  0  0  0  0
   19.4234  -10.1709  -15.8000 C   0  0  2  0  0  0  0  0  0  0  0  0
   18.2005  -10.4103  -16.5285 N   0  0  0  0  0  0  0  0  0  0  0  0
   19.8706   -8.7585  -16.0062 C   0  0  0  0  0  0  0  0  0  0  0  0
   19.5902   -8.1307  -17.0642 O   0  0  0  0  0  0  0  0  0  0  0  0
   20.6239   -8.0947  -15.0050 N   0  0  0  0  0  0  0  0  0  0  0  0
   21.1862   -6.7453  -15.2046 C   0  0  1  0  0  0  0  0  0  0  0  0
   21.5134   -6.2592  -13.8137 C   0  0  0  0  0  0  0  0  0  0  0  0
   22.2612   -4.9694  -13.7588 C   0  0  0  0  0  0  0  0  0  0  0  0
   21.3020   -3.8526  -13.8188 C   0  0  0  0  0  0  0  0  0  0  0  0
   20.1118   -4.0325  -13.5106 O   0  0  0  0  0  0  0  0  0  0  0  0
   22.4401   -6.8851  -16.0098 C   0  0  0  0  0  0  0  0  0  0  0  0
   22.7587   -5.9043  -16.9181 O   0  0  0  0  0  0  0  0  0  0  0  0
   21.7263   -2.6055  -14.2174 O   0  0  0  0  0  0  0  0  0  0  0  0
   23.2098   -7.8837  -15.8731 O   0  0  0  0  0  0  0  0  0  0  0  0
  2  1  1  1
  2  3  1  0
  4  8  1  0
  4  2  1  0
  5  4  2  0
  7  6  1  6
  7  9  1  0
  7  8  1  0
  9 11  1  0
 10  9  2  0
 11 12  1  0
 12 13  1  1
 13 14  1  0
 14 15  1  0
 15 19  1  0
 15 16  2  0
 17 12  1  0
 17 18  1  0
 20 17  2  0
M  END
$$$$
