AAE.pdb
     RDKit          3D

 20 19  0  0  1  0  0  0  0  0999 V2000
   17.8372  -12.1352  -16.6320 C   0  0  0  0  0  0  0  0  0  0  0  0
   18.8091  -11.1111  -17.1786 C   0  0  2  0  0  0  0  0  0  0  0  0
   19.7830  -11.6488  -18.0818 N   0  0  0  0  0  0  0  0  0  0  0  0
   19.5251  -10.4498  -16.0299 C   0  0  0  0  0  0  0  0  0  0  0  0
   18.8654   -9.8461  -15.1454 O   0  0  0  0  0  0  0  0  0  0  0  0
   22.9042  -10.2622  -14.4556 C   0  0  0  0  0  0  0  0  0  0  0  0
   21.5898   -9.6906  -14.9231 C   0  0  2  0  0  0  0  0  0  0  0  0
   20.9316  -10.4937  -15.9257 N   0  0  0  0  0  0  0  0  0  0  0  0
   21.7260   -8.2821  -15.4077 C   0  0  0  0  0  0  0  0  0  0  0  0
   21.9975   -8.0279  -16.6135 O   0  0  0  0  0  0  0  0  0  0  0  0
   21.5490   -7.1981  -14.5110 N   0  0  0  0  0  0  0  0  0  0  0  0
   21.6940   -5.7920  -14.9336 C   0  0  1  0  0  0  0  0  0  0  0  0
   20.2863   -5.3364  -15.2313 C   0  0  0  0  0  0  0  0  0  0  0  0
   20.1464   -3.8806  -15.5262 C   0  0  0  0  0  0  0  0  0  0  0  0
   18.7217   -3.5639  -15.7280 C   0  0  0  0  0  0  0  0  0  0  0  0
   18.0509   -3.0789  -14.8013 O   0  0  0  0  0  0  0  0  0  0  0  0
   22.2517   -5.0209  -13.7783 C   0  0  0  0  0  0  0  0  0  0  0  0
   22.8338   -3.7987  -14.0149 O   0  0  0  0  0  0  0  0  0  0  0  0
   18.1320   -3.8059  -16.9478 O   0  0  0  0  0  0  0  0  0  0  0  0
   22.1993   -5.4688  -12.5930 O   0  0  0  0  0  0  0  0  0  0  0  0
  2  1  1  1
  2  3  1  0
  4  8  1  0
  4  2  1  0
  5  4  2  0
  7  6  1  6
  7  9  1  0
  7  8  1  0
  9 11  1  0
 10  9  2  0
 11 12  1  0
 12 13  1  1
 13 14  1  0
 14 15  1  0
 15 19  1  0
 15 16  2  0
 17 12  1  0
 17 18  1  0
 20 17  2  0
M  END
$$$$
