AAE.pdb
     RDKit          3D

 20 19  0  0  1  0  0  0  0  0999 V2000
   26.7083  -11.1559  -15.5653 C   0  0  0  0  0  0  0  0  0  0  0  0
   25.5208  -11.7949  -16.2535 C   0  0  2  0  0  0  0  0  0  0  0  0
   25.8062  -12.3108  -17.5595 N   0  0  0  0  0  0  0  0  0  0  0  0
   24.4116  -10.7815  -16.3634 C   0  0  0  0  0  0  0  0  0  0  0  0
   24.4781   -9.8723  -17.2301 O   0  0  0  0  0  0  0  0  0  0  0  0
   20.9305  -10.2698  -15.0420 C   0  0  0  0  0  0  0  0  0  0  0  0
   22.2398   -9.8552  -15.6636 C   0  0  2  0  0  0  0  0  0  0  0  0
   23.2915  -10.8314  -15.5068 N   0  0  0  0  0  0  0  0  0  0  0  0
   22.7043   -8.5225  -15.1680 C   0  0  0  0  0  0  0  0  0  0  0  0
   23.4682   -8.4255  -14.1685 O   0  0  0  0  0  0  0  0  0  0  0  0
   22.2903   -7.3339  -15.8211 N   0  0  0  0  0  0  0  0  0  0  0  0
   22.6012   -5.9925  -15.2912 C   0  0  1  0  0  0  0  0  0  0  0  0
   22.1730   -5.0427  -16.3831 C   0  0  0  0  0  0  0  0  0  0  0  0
   22.3307   -3.5960  -16.0547 C   0  0  0  0  0  0  0  0  0  0  0  0
   21.8264   -2.7881  -17.1789 C   0  0  0  0  0  0  0  0  0  0  0  0
   21.1746   -1.7526  -16.9628 O   0  0  0  0  0  0  0  0  0  0  0  0
   21.7681   -5.7787  -14.0662 C   0  0  0  0  0  0  0  0  0  0  0  0
   22.2189   -4.9121  -13.0996 O   0  0  0  0  0  0  0  0  0  0  0  0
   22.0787   -3.1822  -18.4733 O   0  0  0  0  0  0  0  0  0  0  0  0
   20.6620   -6.3769  -13.9020 O   0  0  0  0  0  0  0  0  0  0  0  0
  2  1  1  6
  2  3  1  0
  4  8  1  0
  4  2  1  0
  5  4  2  0
  7  6  1  1
  7  9  1  0
  7  8  1  0
  9 11  1  0
 10  9  2  0
 11 12  1  0
 12 13  1  6
 13 14  1  0
 14 15  1  0
 15 19  1  0
 15 16  2  0
 17 12  1  0
 17 18  1  0
 20 17  2  0
M  END
$$$$
