AAE.pdb
     RDKit          3D

 20 19  0  0  1  0  0  0  0  0999 V2000
   16.4164  -13.6112  -16.1455 C   0  0  0  0  0  0  0  0  0  0  0  0
   16.0713  -12.5543  -15.1178 C   0  0  2  0  0  0  0  0  0  0  0  0
   14.7132  -12.5985  -14.6627 N   0  0  0  0  0  0  0  0  0  0  0  0
   16.3438  -11.1926  -15.7014 C   0  0  0  0  0  0  0  0  0  0  0  0
   17.5119  -10.8838  -16.0510 O   0  0  0  0  0  0  0  0  0  0  0  0
   14.3965   -8.2843  -17.0543 C   0  0  0  0  0  0  0  0  0  0  0  0
   15.6040   -8.9736  -16.4719 C   0  0  2  0  0  0  0  0  0  0  0  0
   15.3074  -10.2490  -15.8644 N   0  0  0  0  0  0  0  0  0  0  0  0
   16.3370   -8.1049  -15.4996 C   0  0  0  0  0  0  0  0  0  0  0  0
   16.0652   -8.1269  -14.2676 O   0  0  0  0  0  0  0  0  0  0  0  0
   17.3611   -7.2343  -15.9511 N   0  0  0  0  0  0  0  0  0  0  0  0
   18.0946   -6.3374  -15.0376 C   0  0  1  0  0  0  0  0  0  0  0  0
   19.3798   -7.0688  -14.7358 C   0  0  0  0  0  0  0  0  0  0  0  0
   20.3888   -7.0452  -15.8345 C   0  0  0  0  0  0  0  0  0  0  0  0
   21.5647   -7.8338  -15.4268 C   0  0  0  0  0  0  0  0  0  0  0  0
   21.7523   -8.1041  -14.2286 O   0  0  0  0  0  0  0  0  0  0  0  0
   18.3852   -5.0682  -15.7759 C   0  0  0  0  0  0  0  0  0  0  0  0
   18.8963   -3.9982  -15.0813 O   0  0  0  0  0  0  0  0  0  0  0  0
   22.4584   -8.2727  -16.3770 O   0  0  0  0  0  0  0  0  0  0  0  0
   18.1706   -4.9597  -17.0210 O   0  0  0  0  0  0  0  0  0  0  0  0
  2  1  1  6
  2  3  1  0
  4  8  1  0
  4  2  1  0
  5  4  2  0
  7  6  1  1
  7  9  1  0
  7  8  1  0
  9 11  1  0
 10  9  2  0
 11 12  1  0
 12 13  1  6
 13 14  1  0
 14 15  1  0
 15 19  1  0
 15 16  2  0
 17 12  1  0
 17 18  1  0
 20 17  2  0
M  END
$$$$
