AAE.pdb
     RDKit          3D

 20 19  0  0  1  0  0  0  0  0999 V2000
   18.5928  -14.9590  -17.2784 C   0  0  0  0  0  0  0  0  0  0  0  0
   18.5819  -14.0597  -16.0604 C   0  0  2  0  0  0  0  0  0  0  0  0
   17.3384  -14.0499  -15.3484 N   0  0  0  0  0  0  0  0  0  0  0  0
   18.9094  -12.6520  -16.4851 C   0  0  0  0  0  0  0  0  0  0  0  0
   20.0860  -12.3561  -16.8170 O   0  0  0  0  0  0  0  0  0  0  0  0
   17.1252   -9.5186  -17.4842 C   0  0  0  0  0  0  0  0  0  0  0  0
   18.2760  -10.3124  -16.9202 C   0  0  2  0  0  0  0  0  0  0  0  0
   17.9157  -11.6508  -16.5176 N   0  0  0  0  0  0  0  0  0  0  0  0
   18.9505   -9.6044  -15.7883 C   0  0  0  0  0  0  0  0  0  0  0  0
   18.6450   -9.8482  -14.5885 O   0  0  0  0  0  0  0  0  0  0  0  0
   19.9557   -8.6386  -16.0477 N   0  0  0  0  0  0  0  0  0  0  0  0
   20.7114   -7.9759  -14.9676 C   0  0  1  0  0  0  0  0  0  0  0  0
   21.8620   -7.2963  -15.6691 C   0  0  0  0  0  0  0  0  0  0  0  0
   22.8132   -6.5822  -14.7684 C   0  0  0  0  0  0  0  0  0  0  0  0
   22.2257   -5.2903  -14.3728 C   0  0  0  0  0  0  0  0  0  0  0  0
   21.8130   -4.4993  -15.2376 O   0  0  0  0  0  0  0  0  0  0  0  0
   19.8149   -6.9547  -14.3402 C   0  0  0  0  0  0  0  0  0  0  0  0
   19.8581   -6.7807  -12.9777 O   0  0  0  0  0  0  0  0  0  0  0  0
   22.1334   -4.9589  -13.0401 O   0  0  0  0  0  0  0  0  0  0  0  0
   19.0207   -6.2511  -15.0347 O   0  0  0  0  0  0  0  0  0  0  0  0
  2  1  1  6
  2  3  1  0
  4  8  1  0
  4  2  1  0
  5  4  2  0
  7  6  1  1
  7  9  1  0
  7  8  1  0
  9 11  1  0
 10  9  2  0
 11 12  1  0
 12 13  1  6
 13 14  1  0
 14 15  1  0
 15 19  1  0
 15 16  2  0
 17 12  1  0
 17 18  1  0
 20 17  2  0
M  END
$$$$
