CVC.pdb
     RDKit          3D

 20 19  0  0  1  0  0  0  0  0999 V2000
    7.7609  -14.4460   20.3304 N   0  0  0  0  0  0  0  0  0  0  0  0
    7.0889  -14.9877   21.4961 C   0  0  1  0  0  0  0  0  0  0  0  0
    6.9479  -16.4717   21.2824 C   0  0  0  0  0  0  0  0  0  0  0  0
    6.0637  -17.1308   22.7481 S   0  0  0  0  0  0  0  0  0  0  0  0
    7.7845  -14.6401   22.7455 C   0  0  0  0  0  0  0  0  0  0  0  0
    9.0340  -14.6397   22.7864 O   0  0  0  0  0  0  0  0  0  0  0  0
    6.5012  -11.8823   25.3390 C   0  0  0  0  0  0  0  0  0  0  0  0
    6.9046  -13.1795   25.9834 C   0  0  2  0  0  0  0  0  0  0  0  0
    7.4434  -12.9357   27.3745 C   0  0  0  0  0  0  0  0  0  0  0  0
    7.8122  -14.0439   25.1522 C   0  0  2  0  0  0  0  0  0  0  0  0
    7.0886  -14.3022   23.9166 N   0  0  0  0  0  0  0  0  0  0  0  0
    8.2792  -15.2753   25.7876 C   0  0  0  0  0  0  0  0  0  0  0  0
    7.4777  -16.2553   26.0091 O   0  0  0  0  0  0  0  0  0  0  0  0
    9.6079  -15.5200   26.2108 N   0  0  0  0  0  0  0  0  0  0  0  0
   10.0142  -16.8135   26.7826 C   0  0  1  0  0  0  0  0  0  0  0  0
   11.3037  -17.2889   26.1475 C   0  0  0  0  0  0  0  0  0  0  0  0
   11.8550  -18.7973   26.9771 S   0  0  0  0  0  0  0  0  0  0  0  0
   10.1870  -16.6143   28.2439 C   0  0  0  0  0  0  0  0  0  0  0  0
   10.4235  -15.4632   28.7280 O   0  0  0  0  0  0  0  0  0  0  0  0
   10.1031  -17.6513   29.1578 O   0  0  0  0  0  0  0  0  0  0  0  0
  2  1  1  6
  2  3  1  0
  4  3  1  0
  5  2  1  0
  6  5  2  0
  8  7  1  6
  8 10  1  0
  9  8  1  0
 10 12  1  0
 10 11  1  6
 11  5  1  0
 12 14  1  0
 13 12  2  0
 14 15  1  0
 15 16  1  6
 17 16  1  0
 18 15  1  0
 19 18  2  0
 20 18  1  0
M  END
$$$$
