CVC.pdb
     RDKit          3D

 20 19  0  0  1  0  0  0  0  0999 V2000
    7.9782  -14.1557   20.3554 N   0  0  0  0  0  0  0  0  0  0  0  0
    7.3175  -14.7119   21.5208 C   0  0  1  0  0  0  0  0  0  0  0  0
    7.1170  -16.1820   21.2629 C   0  0  0  0  0  0  0  0  0  0  0  0
    5.5605  -16.3387   20.3051 S   0  0  0  0  0  0  0  0  0  0  0  0
    8.0576  -14.4312   22.7614 C   0  0  0  0  0  0  0  0  0  0  0  0
    9.3028  -14.5402   22.7851 O   0  0  0  0  0  0  0  0  0  0  0  0
    8.0621  -12.4760   27.2808 C   0  0  0  0  0  0  0  0  0  0  0  0
    7.3692  -12.9350   26.0278 C   0  0  2  0  0  0  0  0  0  0  0  0
    5.9841  -13.4501   26.3459 C   0  0  0  0  0  0  0  0  0  0  0  0
    8.1631  -13.8895   25.1788 C   0  0  2  0  0  0  0  0  0  0  0  0
    7.4099  -14.0383   23.9428 N   0  0  0  0  0  0  0  0  0  0  0  0
    8.4793  -15.1783   25.7926 C   0  0  0  0  0  0  0  0  0  0  0  0
    7.5786  -16.0827   25.9433 O   0  0  0  0  0  0  0  0  0  0  0  0
    9.7564  -15.5625   26.2680 N   0  0  0  0  0  0  0  0  0  0  0  0
   10.0098  -16.9057   26.8126 C   0  0  1  0  0  0  0  0  0  0  0  0
   11.3165  -17.4531   26.2788 C   0  0  0  0  0  0  0  0  0  0  0  0
   11.3395  -17.2889   24.4788 S   0  0  0  0  0  0  0  0  0  0  0  0
   10.0545  -16.7800   28.2916 C   0  0  0  0  0  0  0  0  0  0  0  0
   10.0173  -15.6424   28.8570 O   0  0  0  0  0  0  0  0  0  0  0  0
   10.1379  -17.8746   29.1356 O   0  0  0  0  0  0  0  0  0  0  0  0
  2  1  1  6
  2  3  1  0
  4  3  1  0
  5  2  1  0
  6  5  2  0
  8  7  1  1
  8 10  1  0
  9  8  1  0
 10 12  1  0
 10 11  1  6
 11  5  1  0
 12 14  1  0
 13 12  2  0
 14 15  1  0
 15 16  1  6
 17 16  1  0
 18 15  1  0
 19 18  2  0
 20 18  1  0
M  END
$$$$
