CVC.pdb
     RDKit          3D

 20 19  0  0  1  0  0  0  0  0999 V2000
    7.8348  -18.0197   16.5198 N   0  0  0  0  0  0  0  0  0  0  0  0
    7.2463  -17.7262   17.8126 C   0  0  1  0  0  0  0  0  0  0  0  0
    7.0071  -19.0420   18.5049 C   0  0  0  0  0  0  0  0  0  0  0  0
    5.5599  -19.8120   17.6818 S   0  0  0  0  0  0  0  0  0  0  0  0
    8.0726  -16.7944   18.5966 C   0  0  0  0  0  0  0  0  0  0  0  0
    9.3194  -16.8577   18.5316 O   0  0  0  0  0  0  0  0  0  0  0  0
    7.2151  -12.9870   18.9687 C   0  0  0  0  0  0  0  0  0  0  0  0
    7.5825  -13.6190   20.2825 C   0  0  2  0  0  0  0  0  0  0  0  0
    8.2478  -12.6090   21.1894 C   0  0  0  0  0  0  0  0  0  0  0  0
    8.3600  -14.9017   20.1726 C   0  0  2  0  0  0  0  0  0  0  0  0
    7.5069  -15.8180   19.4311 N   0  0  0  0  0  0  0  0  0  0  0  0
    8.8245  -15.4768   21.4341 C   0  0  0  0  0  0  0  0  0  0  0  0
    7.9990  -15.9843   22.2783 O   0  0  0  0  0  0  0  0  0  0  0  0
   10.1760  -15.5402   21.8514 N   0  0  0  0  0  0  0  0  0  0  0  0
   10.5883  -16.3183   23.0302 C   0  0  1  0  0  0  0  0  0  0  0  0
   10.3924  -17.7985   22.7798 C   0  0  0  0  0  0  0  0  0  0  0  0
   10.2332  -18.6542   24.3640 S   0  0  0  0  0  0  0  0  0  0  0  0
   12.0187  -16.0100   23.2832 C   0  0  0  0  0  0  0  0  0  0  0  0
   12.7549  -15.5103   22.3756 O   0  0  0  0  0  0  0  0  0  0  0  0
   12.6324  -16.2427   24.5025 O   0  0  0  0  0  0  0  0  0  0  0  0
  2  1  1  6
  2  3  1  0
  4  3  1  0
  5  2  1  0
  6  5  2  0
  8  7  1  6
  8 10  1  0
  9  8  1  0
 10 12  1  0
 10 11  1  1
 11  5  1  0
 12 14  1  0
 13 12  2  0
 14 15  1  0
 15 16  1  6
 17 16  1  0
 18 15  1  0
 19 18  2  0
 20 18  1  0
M  END
$$$$
