CVC.pdb
     RDKit          3D

 20 19  0  0  1  0  0  0  0  0999 V2000
    6.7659  -18.7241   17.7958 N   0  0  0  0  0  0  0  0  0  0  0  0
    6.3582  -18.0550   19.0165 C   0  0  1  0  0  0  0  0  0  0  0  0
    5.9764  -19.1234   20.0067 C   0  0  0  0  0  0  0  0  0  0  0  0
    4.2320  -19.5670   19.6529 S   0  0  0  0  0  0  0  0  0  0  0  0
    7.3950  -17.1379   19.5160 C   0  0  0  0  0  0  0  0  0  0  0  0
    8.6020  -17.4524   19.4307 O   0  0  0  0  0  0  0  0  0  0  0  0
    6.9316  -13.2260   19.1479 C   0  0  0  0  0  0  0  0  0  0  0  0
    7.5308  -13.6149   20.4709 C   0  0  2  0  0  0  0  0  0  0  0  0
    8.4810  -12.5449   20.9579 C   0  0  0  0  0  0  0  0  0  0  0  0
    8.1358  -14.9913   20.5119 C   0  0  2  0  0  0  0  0  0  0  0  0
    7.0781  -15.8998   20.0960 N   0  0  0  0  0  0  0  0  0  0  0  0
    8.7362  -15.3870   21.7849 C   0  0  0  0  0  0  0  0  0  0  0  0
    8.0077  -15.6651   22.8066 O   0  0  0  0  0  0  0  0  0  0  0  0
   10.1260  -15.5065   22.0276 N   0  0  0  0  0  0  0  0  0  0  0  0
   10.6487  -16.0931   23.2717 C   0  0  1  0  0  0  0  0  0  0  0  0
   10.1651  -17.5195   23.4259 C   0  0  0  0  0  0  0  0  0  0  0  0
   10.5426  -18.0986   25.0961 S   0  0  0  0  0  0  0  0  0  0  0  0
   12.1308  -16.0433   23.1934 C   0  0  0  0  0  0  0  0  0  0  0  0
   12.7266  -15.8942   22.0807 O   0  0  0  0  0  0  0  0  0  0  0  0
   12.9454  -16.1539   24.3077 O   0  0  0  0  0  0  0  0  0  0  0  0
  2  1  1  6
  2  3  1  0
  4  3  1  0
  5  2  1  0
  6  5  2  0
  8  7  1  6
  8 10  1  0
  9  8  1  0
 10 12  1  0
 10 11  1  1
 11  5  1  0
 12 14  1  0
 13 12  2  0
 14 15  1  0
 15 16  1  6
 17 16  1  0
 18 15  1  0
 19 18  2  0
 20 18  1  0
M  END
$$$$
