CVC.pdb
     RDKit          3D

 20 19  0  0  1  0  0  0  0  0999 V2000
    9.2639  -17.6073   16.3765 N   0  0  0  0  0  0  0  0  0  0  0  0
    8.2045  -17.2822   17.3124 C   0  0  1  0  0  0  0  0  0  0  0  0
    7.4879  -18.5653   17.6411 C   0  0  0  0  0  0  0  0  0  0  0  0
    6.4078  -18.9446   16.2079 S   0  0  0  0  0  0  0  0  0  0  0  0
    8.7136  -16.5760   18.4989 C   0  0  0  0  0  0  0  0  0  0  0  0
    9.8788  -16.7866   18.9000 O   0  0  0  0  0  0  0  0  0  0  0  0
    7.2869  -12.8834   19.5107 C   0  0  0  0  0  0  0  0  0  0  0  0
    7.5224  -13.8328   20.6526 C   0  0  2  0  0  0  0  0  0  0  0  0
    7.8789  -13.0727   21.9096 C   0  0  0  0  0  0  0  0  0  0  0  0
    8.4838  -14.9513   20.3579 C   0  0  2  0  0  0  0  0  0  0  0  0
    7.9290  -15.6572   19.2129 N   0  0  0  0  0  0  0  0  0  0  0  0
    8.7780  -15.8505   21.4727 C   0  0  0  0  0  0  0  0  0  0  0  0
    7.8929  -16.6681   21.9198 O   0  0  0  0  0  0  0  0  0  0  0  0
   10.0161  -15.9229   22.1556 N   0  0  0  0  0  0  0  0  0  0  0  0
   10.2570  -16.9067   23.2230 C   0  0  1  0  0  0  0  0  0  0  0  0
   11.4694  -17.7526   22.8963 C   0  0  0  0  0  0  0  0  0  0  0  0
   12.8751  -16.6698   22.5512 S   0  0  0  0  0  0  0  0  0  0  0  0
   10.4659  -16.1480   24.4823 C   0  0  0  0  0  0  0  0  0  0  0  0
   10.6339  -16.7462   25.5910 O   0  0  0  0  0  0  0  0  0  0  0  0
   10.4907  -14.7643   24.5296 O   0  0  0  0  0  0  0  0  0  0  0  0
  2  1  1  6
  2  3  1  0
  4  3  1  0
  5  2  1  0
  6  5  2  0
  8  7  1  6
  8 10  1  0
  9  8  1  0
 10 12  1  0
 10 11  1  6
 11  5  1  0
 12 14  1  0
 13 12  2  0
 14 15  1  0
 15 16  1  6
 17 16  1  0
 18 15  1  0
 19 18  2  0
 20 18  1  0
M  END
$$$$
