CVC.pdb
     RDKit          3D

 20 19  0  0  1  0  0  0  0  0999 V2000
    8.8634  -17.7119   16.3173 N   0  0  0  0  0  0  0  0  0  0  0  0
    8.0510  -17.6350   17.5165 C   0  0  1  0  0  0  0  0  0  0  0  0
    7.8268  -19.0447   17.9967 C   0  0  0  0  0  0  0  0  0  0  0  0
    6.6428  -18.9406   19.3938 S   0  0  0  0  0  0  0  0  0  0  0  0
    8.6515  -16.7587   18.5349 C   0  0  0  0  0  0  0  0  0  0  0  0
    9.8782  -16.8199   18.7679 O   0  0  0  0  0  0  0  0  0  0  0  0
    7.3062  -13.0138   19.2955 C   0  0  0  0  0  0  0  0  0  0  0  0
    7.5768  -13.8563   20.5111 C   0  0  2  0  0  0  0  0  0  0  0  0
    7.9867  -12.9876   21.6782 C   0  0  0  0  0  0  0  0  0  0  0  0
    8.5170  -15.0085   20.2862 C   0  0  2  0  0  0  0  0  0  0  0  0
    7.8882  -15.8385   19.2700 N   0  0  0  0  0  0  0  0  0  0  0  0
    8.8845  -15.7742   21.4764 C   0  0  0  0  0  0  0  0  0  0  0  0
    8.0020  -16.4216   22.1501 O   0  0  0  0  0  0  0  0  0  0  0  0
   10.1954  -15.8878   21.9991 N   0  0  0  0  0  0  0  0  0  0  0  0
   10.4883  -16.7020   23.1892 C   0  0  1  0  0  0  0  0  0  0  0  0
   10.6330  -18.1600   22.8079 C   0  0  0  0  0  0  0  0  0  0  0  0
   10.4794  -19.1812   24.2914 S   0  0  0  0  0  0  0  0  0  0  0  0
   11.7482  -16.1825   23.7790 C   0  0  0  0  0  0  0  0  0  0  0  0
   12.5056  -15.3973   23.1270 O   0  0  0  0  0  0  0  0  0  0  0  0
   12.1721  -16.5139   25.0549 O   0  0  0  0  0  0  0  0  0  0  0  0
  2  1  1  6
  2  3  1  0
  4  3  1  0
  5  2  1  0
  6  5  2  0
  8  7  1  6
  8 10  1  0
  9  8  1  0
 10 12  1  0
 10 11  1  6
 11  5  1  0
 12 14  1  0
 13 12  2  0
 14 15  1  0
 15 16  1  6
 17 16  1  0
 18 15  1  0
 19 18  2  0
 20 18  1  0
M  END
$$$$
