CVC.pdb
     RDKit          3D

 20 19  0  0  1  0  0  0  0  0999 V2000
    5.8672  -18.4264   18.5411 N   0  0  0  0  0  0  0  0  0  0  0  0
    5.5392  -17.6539   19.7242 C   0  0  1  0  0  0  0  0  0  0  0  0
    4.8549  -18.5839   20.6909 C   0  0  0  0  0  0  0  0  0  0  0  0
    4.2921  -17.5537   22.1003 S   0  0  0  0  0  0  0  0  0  0  0  0
    6.7210  -16.9856   20.2922 C   0  0  0  0  0  0  0  0  0  0  0  0
    7.7388  -17.6524   20.5793 O   0  0  0  0  0  0  0  0  0  0  0  0
    6.9385  -12.6928   21.6042 C   0  0  0  0  0  0  0  0  0  0  0  0
    7.8705  -13.5406   20.7837 C   0  0  2  0  0  0  0  0  0  0  0  0
    7.6145  -13.3348   19.3082 C   0  0  0  0  0  0  0  0  0  0  0  0
    7.9093  -14.9938   21.1692 C   0  0  2  0  0  0  0  0  0  0  0  0
    6.7528  -15.6028   20.5298 N   0  0  0  0  0  0  0  0  0  0  0  0
    7.9589  -15.2726   22.6037 C   0  0  0  0  0  0  0  0  0  0  0  0
    6.8915  -15.2704   23.3195 O   0  0  0  0  0  0  0  0  0  0  0  0
    9.1345  -15.5662   23.3360 N   0  0  0  0  0  0  0  0  0  0  0  0
    9.0821  -16.1329   24.6930 C   0  0  1  0  0  0  0  0  0  0  0  0
    8.3590  -17.4629   24.6813 C   0  0  0  0  0  0  0  0  0  0  0  0
    7.6471  -17.7677   26.3146 S   0  0  0  0  0  0  0  0  0  0  0  0
   10.4834  -16.2975   25.1559 C   0  0  0  0  0  0  0  0  0  0  0  0
   11.4514  -16.3117   24.3325 O   0  0  0  0  0  0  0  0  0  0  0  0
   10.8205  -16.4435   26.4911 O   0  0  0  0  0  0  0  0  0  0  0  0
  2  1  1  6
  2  3  1  0
  4  3  1  0
  5  2  1  0
  6  5  2  0
  8  7  1  1
  8 10  1  0
  9  8  1  0
 10 12  1  0
 10 11  1  1
 11  5  1  0
 12 14  1  0
 13 12  2  0
 14 15  1  0
 15 16  1  6
 17 16  1  0
 18 15  1  0
 19 18  2  0
 20 18  1  0
M  END
$$$$
