CVC.pdb
     RDKit          3D

 20 19  0  0  1  0  0  0  0  0999 V2000
    9.7074  -17.0048   15.8325 N   0  0  0  0  0  0  0  0  0  0  0  0
    8.6812  -16.9315   16.8550 C   0  0  1  0  0  0  0  0  0  0  0  0
    8.2583  -18.3427   17.1671 C   0  0  0  0  0  0  0  0  0  0  0  0
    7.1709  -18.8806   15.7913 S   0  0  0  0  0  0  0  0  0  0  0  0
    9.1329  -16.1810   18.0375 C   0  0  0  0  0  0  0  0  0  0  0  0
   10.3526  -16.1039   18.3010 O   0  0  0  0  0  0  0  0  0  0  0  0
    7.4584  -12.7565   19.3051 C   0  0  0  0  0  0  0  0  0  0  0  0
    7.6717  -13.7863   20.3797 C   0  0  2  0  0  0  0  0  0  0  0  0
    7.8898  -13.1188   21.7183 C   0  0  0  0  0  0  0  0  0  0  0  0
    8.7198  -14.8189   20.0679 C   0  0  2  0  0  0  0  0  0  0  0  0
    8.2325  -15.5354   18.8990 N   0  0  0  0  0  0  0  0  0  0  0  0
    9.0723  -15.7215   21.1628 C   0  0  0  0  0  0  0  0  0  0  0  0
    8.2695  -16.6495   21.5451 O   0  0  0  0  0  0  0  0  0  0  0  0
   10.2843  -15.6809   21.8936 N   0  0  0  0  0  0  0  0  0  0  0  0
   10.5807  -16.6515   22.9590 C   0  0  1  0  0  0  0  0  0  0  0  0
   12.0732  -16.8845   23.0596 C   0  0  0  0  0  0  0  0  0  0  0  0
   12.6989  -17.4358   21.4558 S   0  0  0  0  0  0  0  0  0  0  0  0
   10.0469  -16.0910   24.2263 C   0  0  0  0  0  0  0  0  0  0  0  0
    9.5713  -14.9135   24.2766 O   0  0  0  0  0  0  0  0  0  0  0  0
   10.0328  -16.8022   25.4144 O   0  0  0  0  0  0  0  0  0  0  0  0
  2  1  1  6
  2  3  1  0
  4  3  1  0
  5  2  1  0
  6  5  2  0
  8  7  1  6
  8 10  1  0
  9  8  1  0
 10 12  1  0
 10 11  1  6
 11  5  1  0
 12 14  1  0
 13 12  2  0
 14 15  1  0
 15 16  1  1
 17 16  1  0
 18 15  1  0
 19 18  2  0
 20 18  1  0
M  END
$$$$
