CVC.pdb
     RDKit          3D

 20 19  0  0  1  0  0  0  0  0999 V2000
    5.6600  -19.3986   24.4373 N   0  0  0  0  0  0  0  0  0  0  0  0
    6.3334  -18.1737   24.8245 C   0  0  1  0  0  0  0  0  0  0  0  0
    7.0570  -18.4495   26.1161 C   0  0  0  0  0  0  0  0  0  0  0  0
    7.3569  -16.8218   26.9070 S   0  0  0  0  0  0  0  0  0  0  0  0
    7.2118  -17.6659   23.7586 C   0  0  0  0  0  0  0  0  0  0  0  0
    7.9785  -18.4472   23.1549 O   0  0  0  0  0  0  0  0  0  0  0  0
    6.2600  -14.8096   21.1734 C   0  0  0  0  0  0  0  0  0  0  0  0
    7.6043  -14.5960   21.8120 C   0  0  2  0  0  0  0  0  0  0  0  0
    8.5437  -13.9030   20.8516 C   0  0  0  0  0  0  0  0  0  0  0  0
    8.2115  -15.8230   22.4347 C   0  0  2  0  0  0  0  0  0  0  0  0
    7.2243  -16.3133   23.3846 N   0  0  0  0  0  0  0  0  0  0  0  0
    9.5271  -15.6436   23.0472 C   0  0  0  0  0  0  0  0  0  0  0  0
    9.7400  -14.7115   23.9060 O   0  0  0  0  0  0  0  0  0  0  0  0
   10.6658  -16.4411   22.7790 N   0  0  0  0  0  0  0  0  0  0  0  0
   11.9397  -16.2374   23.4865 C   0  0  1  0  0  0  0  0  0  0  0  0
   12.2348  -17.4154   24.3907 C   0  0  0  0  0  0  0  0  0  0  0  0
   10.9551  -17.5243   25.6627 S   0  0  0  0  0  0  0  0  0  0  0  0
   12.9971  -16.0853   22.4550 C   0  0  0  0  0  0  0  0  0  0  0  0
   12.7554  -16.3067   21.2270 O   0  0  0  0  0  0  0  0  0  0  0  0
   14.2918  -15.6994   22.7585 O   0  0  0  0  0  0  0  0  0  0  0  0
  2  1  1  6
  2  3  1  0
  4  3  1  0
  5  2  1  0
  6  5  2  0
  8  7  1  6
  8 10  1  0
  9  8  1  0
 10 12  1  0
 10 11  1  1
 11  5  1  0
 12 14  1  0
 13 12  2  0
 14 15  1  0
 15 16  1  1
 17 16  1  0
 18 15  1  0
 19 18  2  0
 20 18  1  0
M  END
$$$$
