CVC.pdb
     RDKit          3D

 20 19  0  0  1  0  0  0  0  0999 V2000
    8.1924  -17.9432   16.6109 N   0  0  0  0  0  0  0  0  0  0  0  0
    7.5750  -17.8152   17.9172 C   0  0  1  0  0  0  0  0  0  0  0  0
    7.5039  -19.1950   18.5161 C   0  0  0  0  0  0  0  0  0  0  0  0
    6.7087  -19.0131   20.1591 S   0  0  0  0  0  0  0  0  0  0  0  0
    8.2803  -16.8436   18.7683 C   0  0  0  0  0  0  0  0  0  0  0  0
    9.5298  -16.8389   18.8088 O   0  0  0  0  0  0  0  0  0  0  0  0
    7.2256  -13.0453   19.1741 C   0  0  0  0  0  0  0  0  0  0  0  0
    7.4738  -13.7394   20.4845 C   0  0  2  0  0  0  0  0  0  0  0  0
    7.9726  -12.7567   21.5192 C   0  0  0  0  0  0  0  0  0  0  0  0
    8.3294  -14.9731   20.3953 C   0  0  2  0  0  0  0  0  0  0  0  0
    7.5939  -15.9033   19.5521 N   0  0  0  0  0  0  0  0  0  0  0  0
    8.7201  -15.5726   21.6704 C   0  0  0  0  0  0  0  0  0  0  0  0
    7.8491  -16.1091   22.4483 O   0  0  0  0  0  0  0  0  0  0  0  0
   10.0430  -15.6308   22.1715 N   0  0  0  0  0  0  0  0  0  0  0  0
   10.3797  -16.3892   23.3867 C   0  0  1  0  0  0  0  0  0  0  0  0
   10.1421  -17.8683   23.1678 C   0  0  0  0  0  0  0  0  0  0  0  0
   10.1326  -18.7124   24.7661 S   0  0  0  0  0  0  0  0  0  0  0  0
   11.8087  -16.1229   23.6902 C   0  0  0  0  0  0  0  0  0  0  0  0
   12.5953  -15.6629   22.8042 O   0  0  0  0  0  0  0  0  0  0  0  0
   12.3672  -16.3543   24.9360 O   0  0  0  0  0  0  0  0  0  0  0  0
  2  1  1  6
  2  3  1  0
  4  3  1  0
  5  2  1  0
  6  5  2  0
  8  7  1  6
  8 10  1  0
  9  8  1  0
 10 12  1  0
 10 11  1  6
 11  5  1  0
 12 14  1  0
 13 12  2  0
 14 15  1  0
 15 16  1  6
 17 16  1  0
 18 15  1  0
 19 18  2  0
 20 18  1  0
M  END
$$$$
