DVP.pdb
     RDKit          3D

 23 23  0  0  1  0  0  0  0  0999 V2000
   12.5952  -16.7485   20.9553 N   0  0  0  0  0  0  0  0  0  0  0  0
   11.8291  -17.1086   22.1056 C   0  0  1  0  0  0  0  0  0  0  0  0
   12.6996  -17.5237   23.2575 C   0  0  0  0  0  0  0  0  0  0  0  0
   13.4604  -18.7667   22.9285 C   0  0  0  0  0  0  0  0  0  0  0  0
   12.9525  -19.7147   22.3125 O   0  0  0  0  0  0  0  0  0  0  0  0
   10.9495  -15.9897   22.5725 C   0  0  0  0  0  0  0  0  0  0  0  0
   11.4650  -14.8869   22.8947 O   0  0  0  0  0  0  0  0  0  0  0  0
   14.7885  -18.8584   23.3312 O   0  0  0  0  0  0  0  0  0  0  0  0
    6.3240  -14.3822   22.6188 C   0  0  0  0  0  0  0  0  0  0  0  0
    7.5297  -15.1086   22.0982 C   0  0  1  0  0  0  0  0  0  0  0  0
    7.8244  -14.9318   20.6651 C   0  0  0  0  0  0  0  0  0  0  0  0
    8.6910  -14.9629   23.0579 C   0  0  2  0  0  0  0  0  0  0  0  0
    9.5572  -16.1107   22.6704 N   0  0  0  0  0  0  0  0  0  0  0  0
    8.3809  -15.1319   24.4708 C   0  0  0  0  0  0  0  0  0  0  0  0
    8.3632  -16.3433   24.9501 O   0  0  0  0  0  0  0  0  0  0  0  0
    8.0875  -14.1371   25.4396 N   0  0  0  0  0  0  0  0  0  0  0  0
    8.0393  -12.7107   25.0312 C   0  0  0  0  0  0  0  0  0  0  0  0
    7.2030  -12.0210   26.0740 C   0  0  0  0  0  0  0  0  0  0  0  0
    7.4547  -12.8160   27.3345 C   0  0  0  0  0  0  0  0  0  0  0  0
    7.7781  -14.2202   26.8377 C   0  0  1  0  0  0  0  0  0  0  0  0
    6.5315  -15.0037   27.1116 C   0  0  0  0  0  0  0  0  0  0  0  0
    6.2336  -15.4989   28.2133 O   0  0  0  0  0  0  0  0  0  0  0  0
    5.6607  -15.1790   26.0503 O   0  0  0  0  0  0  0  0  0  0  0  0
  2  1  1  6
  2  3  1  0
  3  4  1  0
  4  5  2  0
  6 13  1  0
  6  2  1  0
  7  6  2  0
  8  4  1  0
 10  9  1  1
 10 12  1  0
 11 10  1  0
 12 14  1  0
 12 13  1  6
 14 16  1  0
 15 14  2  0
 16 17  1  0
 16 20  1  0
 17 18  1  0
 18 19  1  0
 20 19  1  0
 20 21  1  6
 21 23  1  0
 22 21  2  0
M  END
$$$$
