DVP.pdb
     RDKit          3D

 23 23  0  0  1  0  0  0  0  0999 V2000
   11.9053  -16.5013   20.0106 N   0  0  0  0  0  0  0  0  0  0  0  0
   11.4085  -16.8674   21.2986 C   0  0  1  0  0  0  0  0  0  0  0  0
   12.5141  -17.2308   22.2487 C   0  0  0  0  0  0  0  0  0  0  0  0
   13.2398  -18.4494   21.7794 C   0  0  0  0  0  0  0  0  0  0  0  0
   12.6500  -19.4526   21.3530 O   0  0  0  0  0  0  0  0  0  0  0  0
   10.6027  -15.7719   21.9264 C   0  0  0  0  0  0  0  0  0  0  0  0
   11.0785  -14.6077   21.9885 O   0  0  0  0  0  0  0  0  0  0  0  0
   14.6299  -18.4531   21.8250 O   0  0  0  0  0  0  0  0  0  0  0  0
    7.2294  -14.7048   20.8924 C   0  0  0  0  0  0  0  0  0  0  0  0
    7.1678  -15.0971   22.3397 C   0  0  1  0  0  0  0  0  0  0  0  0
    6.4861  -16.3691   22.6383 C   0  0  0  0  0  0  0  0  0  0  0  0
    8.5056  -14.8652   23.0085 C   0  0  2  0  0  0  0  0  0  0  0  0
    9.3234  -15.9813   22.4577 N   0  0  0  0  0  0  0  0  0  0  0  0
    8.5311  -15.0045   24.4580 C   0  0  0  0  0  0  0  0  0  0  0  0
    8.7686  -16.1863   24.9524 O   0  0  0  0  0  0  0  0  0  0  0  0
    8.3315  -14.0078   25.4485 N   0  0  0  0  0  0  0  0  0  0  0  0
    7.9075  -12.6452   25.0393 C   0  0  0  0  0  0  0  0  0  0  0  0
    7.2728  -12.0372   26.2600 C   0  0  0  0  0  0  0  0  0  0  0  0
    8.0026  -12.6820   27.4159 C   0  0  0  0  0  0  0  0  0  0  0  0
    8.4358  -14.0410   26.8786 C   0  0  1  0  0  0  0  0  0  0  0  0
    7.4808  -15.0073   27.5088 C   0  0  0  0  0  0  0  0  0  0  0  0
    6.4781  -15.4819   26.9455 O   0  0  0  0  0  0  0  0  0  0  0  0
    7.7497  -15.3879   28.8119 O   0  0  0  0  0  0  0  0  0  0  0  0
  2  1  1  6
  2  3  1  0
  3  4  1  0
  4  5  2  0
  6 13  1  0
  6  2  1  0
  7  6  2  0
  8  4  1  0
 10  9  1  6
 10 12  1  0
 11 10  1  0
 12 14  1  0
 12 13  1  6
 14 16  1  0
 15 14  2  0
 16 17  1  0
 16 20  1  0
 17 18  1  0
 18 19  1  0
 20 19  1  0
 20 21  1  1
 21 23  1  0
 22 21  2  0
M  END
$$$$
