DVP.pdb
     RDKit          3D

 23 23  0  0  1  0  0  0  0  0999 V2000
   11.8489  -16.6960   20.2284 N   0  0  0  0  0  0  0  0  0  0  0  0
   11.3835  -16.9823   21.5479 C   0  0  1  0  0  0  0  0  0  0  0  0
   12.5056  -17.3539   22.4751 C   0  0  0  0  0  0  0  0  0  0  0  0
   13.1543  -18.6279   22.0414 C   0  0  0  0  0  0  0  0  0  0  0  0
   12.5942  -19.7288   22.1439 O   0  0  0  0  0  0  0  0  0  0  0  0
   10.6501  -15.8247   22.1528 C   0  0  0  0  0  0  0  0  0  0  0  0
   11.2904  -14.7998   22.5069 O   0  0  0  0  0  0  0  0  0  0  0  0
   14.4354  -18.5708   21.5028 O   0  0  0  0  0  0  0  0  0  0  0  0
    7.6850  -13.9576   20.7222 C   0  0  0  0  0  0  0  0  0  0  0  0
    7.3254  -14.5603   22.0488 C   0  0  1  0  0  0  0  0  0  0  0  0
    6.4382  -15.7363   22.0076 C   0  0  0  0  0  0  0  0  0  0  0  0
    8.5485  -14.6575   22.9350 C   0  0  2  0  0  0  0  0  0  0  0  0
    9.2628  -15.8250   22.3479 N   0  0  0  0  0  0  0  0  0  0  0  0
    8.3032  -14.9785   24.3342 C   0  0  0  0  0  0  0  0  0  0  0  0
    8.4448  -16.2183   24.7089 O   0  0  0  0  0  0  0  0  0  0  0  0
    7.9220  -14.1098   25.3898 N   0  0  0  0  0  0  0  0  0  0  0  0
    7.6947  -12.6704   25.1061 C   0  0  0  0  0  0  0  0  0  0  0  0
    6.8126  -12.1747   26.2190 C   0  0  0  0  0  0  0  0  0  0  0  0
    7.1914  -13.0356   27.4020 C   0  0  0  0  0  0  0  0  0  0  0  0
    7.6639  -14.3449   26.7810 C   0  0  1  0  0  0  0  0  0  0  0  0
    6.5264  -15.2921   27.0091 C   0  0  0  0  0  0  0  0  0  0  0  0
    5.6480  -15.5598   26.1697 O   0  0  0  0  0  0  0  0  0  0  0  0
    6.4649  -15.9037   28.2490 O   0  0  0  0  0  0  0  0  0  0  0  0
  2  1  1  6
  2  3  1  0
  3  4  1  0
  4  5  2  0
  6 13  1  0
  6  2  1  0
  7  6  2  0
  8  4  1  0
 10  9  1  6
 10 12  1  0
 11 10  1  0
 12 14  1  0
 12 13  1  6
 14 16  1  0
 15 14  2  0
 16 17  1  0
 16 20  1  0
 17 18  1  0
 18 19  1  0
 20 19  1  0
 20 21  1  6
 21 23  1  0
 22 21  2  0
M  END
$$$$
