DVP.pdb
     RDKit          3D

 23 23  0  0  1  0  0  0  0  0999 V2000
   10.7042  -15.9839   20.3856 N   0  0  0  0  0  0  0  0  0  0  0  0
   10.2474  -16.6169   21.5816 C   0  0  1  0  0  0  0  0  0  0  0  0
   11.1796  -17.7030   22.0380 C   0  0  0  0  0  0  0  0  0  0  0  0
   11.4347  -18.6820   20.9387 C   0  0  0  0  0  0  0  0  0  0  0  0
   10.5793  -18.9655   20.0879 O   0  0  0  0  0  0  0  0  0  0  0  0
   10.0848  -15.6448   22.7095 C   0  0  0  0  0  0  0  0  0  0  0  0
   10.9872  -14.7955   22.9329 O   0  0  0  0  0  0  0  0  0  0  0  0
   12.6811  -19.2957   20.8722 O   0  0  0  0  0  0  0  0  0  0  0  0
    6.9080  -14.0155   26.0741 C   0  0  0  0  0  0  0  0  0  0  0  0
    7.3882  -14.3455   24.6910 C   0  0  1  0  0  0  0  0  0  0  0  0
    6.9508  -13.4346   23.6182 C   0  0  0  0  0  0  0  0  0  0  0  0
    8.8546  -14.7192   24.7147 C   0  0  2  0  0  0  0  0  0  0  0  0
    8.9591  -15.6330   23.5434 N   0  0  0  0  0  0  0  0  0  0  0  0
    9.3056  -15.4747   25.8753 C   0  0  0  0  0  0  0  0  0  0  0  0
    9.0904  -16.7596   25.8872 O   0  0  0  0  0  0  0  0  0  0  0  0
    9.9718  -15.0031   27.0364 N   0  0  0  0  0  0  0  0  0  0  0  0
   10.0316  -13.5439   27.3030 C   0  0  0  0  0  0  0  0  0  0  0  0
   10.2781  -13.4141   28.7811 C   0  0  0  0  0  0  0  0  0  0  0  0
   11.0752  -14.6492   29.1325 C   0  0  0  0  0  0  0  0  0  0  0  0
   10.6331  -15.6884   28.1088 C   0  0  1  0  0  0  0  0  0  0  0  0
    9.7163  -16.5922   28.8741 C   0  0  0  0  0  0  0  0  0  0  0  0
    8.4810  -16.6335   28.7321 O   0  0  0  0  0  0  0  0  0  0  0  0
   10.3041  -17.4347   29.8014 O   0  0  0  0  0  0  0  0  0  0  0  0
  2  1  1  6
  2  3  1  0
  3  4  1  0
  4  5  2  0
  6 13  1  0
  6  2  1  0
  7  6  2  0
  8  4  1  0
 10  9  1  1
 10 12  1  0
 11 10  1  0
 12 14  1  0
 12 13  1  6
 14 16  1  0
 15 14  2  0
 16 17  1  0
 16 20  1  0
 17 18  1  0
 18 19  1  0
 20 19  1  0
 20 21  1  1
 21 23  1  0
 22 21  2  0
M  END
$$$$
