DVP.pdb
     RDKit          3D

 23 23  0  0  1  0  0  0  0  0999 V2000
   12.7164  -16.6973   21.0243 N   0  0  0  0  0  0  0  0  0  0  0  0
   11.8638  -17.0792   22.1046 C   0  0  1  0  0  0  0  0  0  0  0  0
   12.6427  -17.5384   23.3044 C   0  0  0  0  0  0  0  0  0  0  0  0
   13.4069  -18.7849   22.9975 C   0  0  0  0  0  0  0  0  0  0  0  0
   14.6442  -18.8076   22.9300 O   0  0  0  0  0  0  0  0  0  0  0  0
   10.9653  -15.9620   22.5384 C   0  0  0  0  0  0  0  0  0  0  0  0
   11.4658  -14.8557   22.8722 O   0  0  0  0  0  0  0  0  0  0  0  0
   12.6980  -19.9617   22.7803 O   0  0  0  0  0  0  0  0  0  0  0  0
    6.3297  -14.3770   22.4223 C   0  0  0  0  0  0  0  0  0  0  0  0
    7.5455  -15.1224   21.9548 C   0  0  1  0  0  0  0  0  0  0  0  0
    7.8690  -15.0016   20.5220 C   0  0  0  0  0  0  0  0  0  0  0  0
    8.6874  -14.9384   22.9310 C   0  0  2  0  0  0  0  0  0  0  0  0
    9.5711  -16.0883   22.5924 N   0  0  0  0  0  0  0  0  0  0  0  0
    8.3526  -15.0703   24.3423 C   0  0  0  0  0  0  0  0  0  0  0  0
    8.2942  -16.2709   24.8450 O   0  0  0  0  0  0  0  0  0  0  0  0
    8.0733  -14.0485   25.2868 N   0  0  0  0  0  0  0  0  0  0  0  0
    8.0161  -12.6344   24.8386 C   0  0  0  0  0  0  0  0  0  0  0  0
    7.1956  -11.9162   25.8747 C   0  0  0  0  0  0  0  0  0  0  0  0
    7.4690  -12.6744   27.1532 C   0  0  0  0  0  0  0  0  0  0  0  0
    7.7868  -14.0919   26.6916 C   0  0  1  0  0  0  0  0  0  0  0  0
    6.5461  -14.8688   27.0080 C   0  0  0  0  0  0  0  0  0  0  0  0
    5.6496  -15.1372   26.1882 O   0  0  0  0  0  0  0  0  0  0  0  0
    6.4045  -15.3116   28.3116 O   0  0  0  0  0  0  0  0  0  0  0  0
  2  1  1  6
  2  3  1  0
  3  4  1  0
  4  5  2  0
  6 13  1  0
  6  2  1  0
  7  6  2  0
  8  4  1  0
 10  9  1  1
 10 12  1  0
 11 10  1  0
 12 14  1  0
 12 13  1  6
 14 16  1  0
 15 14  2  0
 16 17  1  0
 16 20  1  0
 17 18  1  0
 18 19  1  0
 20 19  1  0
 20 21  1  6
 21 23  1  0
 22 21  2  0
M  END
$$$$
