DVP.pdb
     RDKit          3D

 23 23  0  0  1  0  0  0  0  0999 V2000
   11.5695  -16.2584   20.6376 N   0  0  0  0  0  0  0  0  0  0  0  0
   11.1684  -16.9501   21.8210 C   0  0  1  0  0  0  0  0  0  0  0  0
   12.2604  -17.8305   22.3589 C   0  0  0  0  0  0  0  0  0  0  0  0
   12.6305  -18.8852   21.3675 C   0  0  0  0  0  0  0  0  0  0  0  0
   11.8132  -19.7129   20.9398 O   0  0  0  0  0  0  0  0  0  0  0  0
   10.7537  -16.0113   22.9121 C   0  0  0  0  0  0  0  0  0  0  0  0
   11.5550  -15.1231   23.3055 O   0  0  0  0  0  0  0  0  0  0  0  0
   13.9432  -18.9356   20.9106 O   0  0  0  0  0  0  0  0  0  0  0  0
    6.9105  -14.6170   25.6393 C   0  0  0  0  0  0  0  0  0  0  0  0
    7.6239  -14.9624   24.3648 C   0  0  1  0  0  0  0  0  0  0  0  0
    7.2394  -14.1827   23.1748 C   0  0  0  0  0  0  0  0  0  0  0  0
    9.1058  -15.1370   24.6181 C   0  0  2  0  0  0  0  0  0  0  0  0
    9.4969  -16.0731   23.5278 N   0  0  0  0  0  0  0  0  0  0  0  0
    9.4710  -15.7807   25.8724 C   0  0  0  0  0  0  0  0  0  0  0  0
    9.2902  -17.0672   25.9722 O   0  0  0  0  0  0  0  0  0  0  0  0
   10.0173  -15.1948   27.0439 N   0  0  0  0  0  0  0  0  0  0  0  0
    9.9818  -13.7198   27.2083 C   0  0  0  0  0  0  0  0  0  0  0  0
   10.1023  -13.4763   28.6877 C   0  0  0  0  0  0  0  0  0  0  0  0
   10.9300  -14.6381   29.1872 C   0  0  0  0  0  0  0  0  0  0  0  0
   10.6244  -15.7676   28.2103 C   0  0  1  0  0  0  0  0  0  0  0  0
    9.6961  -16.6672   28.9665 C   0  0  0  0  0  0  0  0  0  0  0  0
   10.0342  -17.3993   29.9139 O   0  0  0  0  0  0  0  0  0  0  0  0
    8.3707  -16.6705   28.5682 O   0  0  0  0  0  0  0  0  0  0  0  0
  2  1  1  6
  2  3  1  0
  3  4  1  0
  4  5  2  0
  6 13  1  0
  6  2  1  0
  7  6  2  0
  8  4  1  0
 10  9  1  1
 10 12  1  0
 11 10  1  0
 12 14  1  0
 12 13  1  6
 14 16  1  0
 15 14  2  0
 16 17  1  0
 16 20  1  0
 17 18  1  0
 18 19  1  0
 20 19  1  0
 20 21  1  1
 21 23  1  0
 22 21  2  0
M  END
$$$$
