PCR.pdb
     RDKit          3D

 25 25  0  0  1  0  0  0  0  0999 V2000
   33.9389  -10.6335  -18.6363 N   0  0  0  0  0  0  0  0  0  0  0  0
   35.1190  -11.4323  -18.2892 C   0  0  0  0  0  0  0  0  0  0  0  0
   35.6490  -10.7328  -17.0598 C   0  0  0  0  0  0  0  0  0  0  0  0
   34.4723   -9.9484  -16.5012 C   0  0  0  0  0  0  0  0  0  0  0  0
   33.3281  -10.4716  -17.3224 C   0  0  1  0  0  0  0  0  0  0  0  0
   32.1751   -9.5374  -17.3830 C   0  0  0  0  0  0  0  0  0  0  0  0
   31.5784   -9.2429  -16.3178 O   0  0  0  0  0  0  0  0  0  0  0  0
   31.7088   -8.9560  -18.5846 N   0  0  0  0  0  0  0  0  0  0  0  0
   30.5797   -8.0692  -18.6649 C   0  0  1  0  0  0  0  0  0  0  0  0
   30.7770   -6.9796  -19.6937 C   0  0  0  0  0  0  0  0  0  0  0  0
   32.1320   -5.8601  -19.2551 S   0  0  0  0  0  0  0  0  0  0  0  0
   29.3360   -8.7914  -19.0693 C   0  0  0  0  0  0  0  0  0  0  0  0
   29.4318   -9.8585  -19.7348 O   0  0  0  0  0  0  0  0  0  0  0  0
   26.0609  -15.1581  -15.7221 N   0  0  0  0  0  0  0  0  0  0  0  0
   24.9237  -14.7324  -16.4895 C   0  0  0  0  0  0  0  0  0  0  0  0
   23.9074  -15.4930  -16.6771 N   0  0  0  0  0  0  0  0  0  0  0  0
   24.9003  -13.4278  -17.0692 N   0  0  0  0  0  0  0  0  0  0  0  0
   26.0435  -12.5697  -17.1443 C   0  0  0  0  0  0  0  0  0  0  0  0
   25.8514  -11.3029  -17.9044 C   0  0  0  0  0  0  0  0  0  0  0  0
   26.9853  -10.3686  -18.0062 C   0  0  0  0  0  0  0  0  0  0  0  0
   26.8408   -9.1475  -18.8345 C   0  0  2  0  0  0  0  0  0  0  0  0
   28.0482   -8.3224  -18.7326 N   0  0  0  0  0  0  0  0  0  0  0  0
   25.6676   -8.3426  -18.5111 C   0  0  0  0  0  0  0  0  0  0  0  0
   25.7046   -7.2558  -17.8850 O   0  0  0  0  0  0  0  0  0  0  0  0
   24.3735   -8.7520  -18.8941 O   0  0  0  0  0  0  0  0  0  0  0  0
  2  1  1  0
  3  2  1  0
  4  3  1  0
  4  5  1  0
  5  1  1  0
  5  6  1  6
  7  6  2  0
  8  6  1  0
  9 12  1  0
  9  8  1  0
  9 10  1  6
 11 10  1  0
 12 22  1  0
 13 12  2  0
 14 15  1  0
 15 17  1  0
 15 16  2  0
 17 18  1  0
 18 19  1  0
 20 19  1  0
 21 20  1  1
 22 21  1  0
 23 25  1  0
 23 21  1  0
 24 23  2  0
M  END
$$$$
