PCR.pdb
     RDKit          3D

 25 25  0  0  1  0  0  0  0  0999 V2000
   30.2289  -22.2637  -11.1597 N   0  0  0  0  0  0  0  0  0  0  0  0
   30.9598  -22.3208   -9.8894 C   0  0  0  0  0  0  0  0  0  0  0  0
   32.1518  -21.4295  -10.1468 C   0  0  0  0  0  0  0  0  0  0  0  0
   31.7449  -20.5338  -11.3061 C   0  0  0  0  0  0  0  0  0  0  0  0
   30.2781  -20.8326  -11.4338 C   0  0  1  0  0  0  0  0  0  0  0  0
   29.7337  -20.5299  -12.7822 C   0  0  0  0  0  0  0  0  0  0  0  0
   29.6934  -19.3342  -13.1639 O   0  0  0  0  0  0  0  0  0  0  0  0
   29.2549  -21.5232  -13.6673 N   0  0  0  0  0  0  0  0  0  0  0  0
   28.7412  -21.2500  -14.9823 C   0  0  1  0  0  0  0  0  0  0  0  0
   29.3842  -22.1156  -16.0415 C   0  0  0  0  0  0  0  0  0  0  0  0
   28.6616  -21.8435  -17.6803 S   0  0  0  0  0  0  0  0  0  0  0  0
   27.2744  -21.5193  -15.0709 C   0  0  0  0  0  0  0  0  0  0  0  0
   26.8381  -22.6624  -14.7645 O   0  0  0  0  0  0  0  0  0  0  0  0
   20.4851  -20.8837  -13.8001 N   0  0  0  0  0  0  0  0  0  0  0  0
   19.9229  -19.6529  -14.2821 C   0  0  0  0  0  0  0  0  0  0  0  0
   18.6616  -19.5098  -14.4706 N   0  0  0  0  0  0  0  0  0  0  0  0
   20.7730  -18.5414  -14.5655 N   0  0  0  0  0  0  0  0  0  0  0  0
   22.1998  -18.6293  -14.6399 C   0  0  0  0  0  0  0  0  0  0  0  0
   22.7382  -19.4761  -15.7409 C   0  0  0  0  0  0  0  0  0  0  0  0
   24.1975  -19.5319  -15.9317 C   0  0  0  0  0  0  0  0  0  0  0  0
   24.9154  -20.7946  -15.6347 C   0  0  2  0  0  0  0  0  0  0  0  0
   26.3508  -20.5366  -15.4869 N   0  0  0  0  0  0  0  0  0  0  0  0
   24.7052  -21.8471  -16.6230 C   0  0  0  0  0  0  0  0  0  0  0  0
   25.2874  -21.9032  -17.7332 O   0  0  0  0  0  0  0  0  0  0  0  0
   23.8010  -22.9027  -16.3840 O   0  0  0  0  0  0  0  0  0  0  0  0
  2  1  1  0
  3  2  1  0
  4  3  1  0
  4  5  1  0
  5  1  1  0
  5  6  1  6
  7  6  2  0
  8  6  1  0
  9 12  1  0
  9  8  1  0
  9 10  1  6
 11 10  1  0
 12 22  1  0
 13 12  2  0
 14 15  1  0
 15 17  1  0
 15 16  2  0
 17 18  1  0
 18 19  1  0
 20 19  1  0
 21 20  1  6
 22 21  1  0
 23 25  1  0
 23 21  1  0
 24 23  2  0
M  END
$$$$
