PCR.pdb
     RDKit          3D

 25 25  0  0  1  0  0  0  0  0999 V2000
   28.5674  -21.1187  -17.6873 N   0  0  0  0  0  0  0  0  0  0  0  0
   29.5771  -21.9915  -18.2957 C   0  0  0  0  0  0  0  0  0  0  0  0
   30.4072  -22.4230  -17.1099 C   0  0  0  0  0  0  0  0  0  0  0  0
   29.5180  -22.2120  -15.8947 C   0  0  0  0  0  0  0  0  0  0  0  0
   28.1877  -21.9155  -16.5269 C   0  0  1  0  0  0  0  0  0  0  0  0
   27.2721  -21.1568  -15.6369 C   0  0  0  0  0  0  0  0  0  0  0  0
   26.8827  -21.6935  -14.5703 O   0  0  0  0  0  0  0  0  0  0  0  0
   26.8115  -19.8519  -15.9270 N   0  0  0  0  0  0  0  0  0  0  0  0
   25.9597  -19.0867  -15.0572 C   0  0  1  0  0  0  0  0  0  0  0  0
   26.1201  -17.5975  -15.2604 C   0  0  0  0  0  0  0  0  0  0  0  0
   26.6192  -17.1865  -16.9526 S   0  0  0  0  0  0  0  0  0  0  0  0
   24.5147  -19.3780  -15.3005 C   0  0  0  0  0  0  0  0  0  0  0  0
   24.1102  -19.5439  -16.4837 O   0  0  0  0  0  0  0  0  0  0  0  0
   18.2597  -23.2680  -10.4590 N   0  0  0  0  0  0  0  0  0  0  0  0
   17.5210  -22.6220  -11.5079 C   0  0  0  0  0  0  0  0  0  0  0  0
   16.2782  -22.8666  -11.7138 N   0  0  0  0  0  0  0  0  0  0  0  0
   18.1673  -21.6749  -12.3587 N   0  0  0  0  0  0  0  0  0  0  0  0
   19.5765  -21.4237  -12.3443 C   0  0  0  0  0  0  0  0  0  0  0  0
   20.0317  -20.2510  -13.1423 C   0  0  0  0  0  0  0  0  0  0  0  0
   21.4691  -19.9304  -13.1584 C   0  0  0  0  0  0  0  0  0  0  0  0
   22.1650  -19.8055  -14.4614 C   0  0  2  0  0  0  0  0  0  0  0  0
   23.5777  -19.4758  -14.2498 N   0  0  0  0  0  0  0  0  0  0  0  0
   21.5644  -18.8324  -15.3676 C   0  0  0  0  0  0  0  0  0  0  0  0
   20.6776  -19.1044  -16.2128 O   0  0  0  0  0  0  0  0  0  0  0  0
   21.9590  -17.4785  -15.3505 O   0  0  0  0  0  0  0  0  0  0  0  0
  2  1  1  0
  3  2  1  0
  4  3  1  0
  4  5  1  0
  5  1  1  0
  5  6  1  1
  7  6  2  0
  8  6  1  0
  9 12  1  0
  9  8  1  0
  9 10  1  6
 11 10  1  0
 12 22  1  0
 13 12  2  0
 14 15  1  0
 15 17  1  0
 15 16  2  0
 17 18  1  0
 18 19  1  0
 20 19  1  0
 21 20  1  1
 22 21  1  0
 23 25  1  0
 23 21  1  0
 24 23  2  0
M  END
$$$$
