PCR.pdb
     RDKit          3D

 25 25  0  0  1  0  0  0  0  0999 V2000
   27.5219  -22.7900  -17.3360 N   0  0  0  0  0  0  0  0  0  0  0  0
   28.7643  -23.5444  -17.5325 C   0  0  0  0  0  0  0  0  0  0  0  0
   29.8043  -22.4553  -17.6489 C   0  0  0  0  0  0  0  0  0  0  0  0
   29.1851  -21.2320  -16.9915 C   0  0  0  0  0  0  0  0  0  0  0  0
   27.9563  -21.8095  -16.3483 C   0  0  1  0  0  0  0  0  0  0  0  0
   26.8960  -20.7998  -16.0987 C   0  0  0  0  0  0  0  0  0  0  0  0
   27.0901  -19.9231  -15.2206 O   0  0  0  0  0  0  0  0  0  0  0  0
   25.6698  -20.7711  -16.8021 N   0  0  0  0  0  0  0  0  0  0  0  0
   24.6168  -19.8258  -16.5465 C   0  0  1  0  0  0  0  0  0  0  0  0
   24.2808  -18.9966  -17.7648 C   0  0  0  0  0  0  0  0  0  0  0  0
   22.8568  -17.9125  -17.4844 S   0  0  0  0  0  0  0  0  0  0  0  0
   23.3460  -20.5054  -16.1527 C   0  0  0  0  0  0  0  0  0  0  0  0
   22.9177  -21.4640  -16.8517 O   0  0  0  0  0  0  0  0  0  0  0  0
   19.1954  -23.3894  -11.6346 N   0  0  0  0  0  0  0  0  0  0  0  0
   18.3839  -22.6935  -10.6750 C   0  0  0  0  0  0  0  0  0  0  0  0
   17.4434  -23.2797  -10.0282 N   0  0  0  0  0  0  0  0  0  0  0  0
   18.6131  -21.3083  -10.4157 N   0  0  0  0  0  0  0  0  0  0  0  0
   19.5589  -20.5098  -11.1347 C   0  0  0  0  0  0  0  0  0  0  0  0
   19.9116  -20.9968  -12.4977 C   0  0  0  0  0  0  0  0  0  0  0  0
   20.9855  -20.3065  -13.2318 C   0  0  0  0  0  0  0  0  0  0  0  0
   21.4202  -20.8411  -14.5445 C   0  0  2  0  0  0  0  0  0  0  0  0
   22.6007  -20.1137  -15.0202 N   0  0  0  0  0  0  0  0  0  0  0  0
   20.3833  -20.8185  -15.5707 C   0  0  0  0  0  0  0  0  0  0  0  0
   19.6785  -21.8072  -15.8879 O   0  0  0  0  0  0  0  0  0  0  0  0
   20.1004  -19.6430  -16.2968 O   0  0  0  0  0  0  0  0  0  0  0  0
  2  1  1  0
  3  2  1  0
  4  3  1  0
  4  5  1  0
  5  1  1  0
  5  6  1  6
  7  6  2  0
  8  6  1  0
  9 12  1  0
  9  8  1  0
  9 10  1  6
 11 10  1  0
 12 22  1  0
 13 12  2  0
 14 15  1  0
 15 17  1  0
 15 16  2  0
 17 18  1  0
 18 19  1  0
 20 19  1  0
 21 20  1  1
 22 21  1  0
 23 25  1  0
 23 21  1  0
 24 23  2  0
M  END
$$$$
