PCR.pdb
     RDKit          3D

 25 25  0  0  1  0  0  0  0  0999 V2000
   28.2018  -18.7191   -5.0752 N   0  0  0  0  0  0  0  0  0  0  0  0
   29.2053  -18.1020   -4.2015 C   0  0  0  0  0  0  0  0  0  0  0  0
   30.1902  -19.2247   -3.9751 C   0  0  0  0  0  0  0  0  0  0  0  0
   29.9740  -20.1918   -5.1283 C   0  0  0  0  0  0  0  0  0  0  0  0
   29.0630  -19.4073   -6.0293 C   0  0  1  0  0  0  0  0  0  0  0  0
   28.2659  -20.2628   -6.9451 C   0  0  0  0  0  0  0  0  0  0  0  0
   28.8569  -20.8755   -7.8684 O   0  0  0  0  0  0  0  0  0  0  0  0
   26.8660  -20.4270   -6.8328 N   0  0  0  0  0  0  0  0  0  0  0  0
   26.0751  -21.2292   -7.7264 C   0  0  1  0  0  0  0  0  0  0  0  0
   24.8476  -21.7988   -7.0532 C   0  0  0  0  0  0  0  0  0  0  0  0
   24.1237  -20.6452   -5.8586 S   0  0  0  0  0  0  0  0  0  0  0  0
   25.5717  -20.4336   -8.8864 C   0  0  0  0  0  0  0  0  0  0  0  0
   25.3864  -19.1935   -8.7491 O   0  0  0  0  0  0  0  0  0  0  0  0
   25.0385  -24.6279  -14.6647 N   0  0  0  0  0  0  0  0  0  0  0  0
   25.1029  -23.6247  -15.6908 C   0  0  0  0  0  0  0  0  0  0  0  0
   24.4738  -23.7484  -16.8024 N   0  0  0  0  0  0  0  0  0  0  0  0
   25.8826  -22.4457  -15.4898 N   0  0  0  0  0  0  0  0  0  0  0  0
   26.5286  -22.1196  -14.2547 C   0  0  0  0  0  0  0  0  0  0  0  0
   25.6227  -21.8538  -13.1024 C   0  0  0  0  0  0  0  0  0  0  0  0
   25.6583  -20.5211  -12.4766 C   0  0  0  0  0  0  0  0  0  0  0  0
   24.8057  -20.2578  -11.2927 C   0  0  2  0  0  0  0  0  0  0  0  0
   25.2936  -21.0201  -10.1395 N   0  0  0  0  0  0  0  0  0  0  0  0
   23.3895  -20.5387  -11.5031 C   0  0  0  0  0  0  0  0  0  0  0  0
   22.7691  -21.4904  -10.9701 O   0  0  0  0  0  0  0  0  0  0  0  0
   22.6031  -19.7306  -12.3501 O   0  0  0  0  0  0  0  0  0  0  0  0
  2  1  1  0
  3  2  1  0
  4  3  1  0
  4  5  1  0
  5  1  1  0
  5  6  1  6
  7  6  2  0
  8  6  1  0
  9 12  1  0
  9  8  1  0
  9 10  1  1
 11 10  1  0
 12 22  1  0
 13 12  2  0
 14 15  1  0
 15 17  1  0
 15 16  2  0
 17 18  1  0
 18 19  1  0
 20 19  1  0
 21 20  1  6
 22 21  1  0
 23 25  1  0
 23 21  1  0
 24 23  2  0
M  END
$$$$
