IPI.pdb
     RDKit          3D

 24 24  0  0  1  0  0  0  0  0999 V2000
    2.5067  -19.2621   21.4758 C   0  0  0  0  0  0  0  0  0  0  0  0
    3.8332  -19.1993   20.7675 C   0  0  0  0  0  0  0  0  0  0  0  0
    4.7780  -18.1980   21.3792 C   0  0  2  0  0  0  0  0  0  0  0  0
    4.2155  -16.8123   21.1438 C   0  0  0  0  0  0  0  0  0  0  0  0
    6.1506  -18.2450   20.7573 C   0  0  2  0  0  0  0  0  0  0  0  0
    6.7546  -19.5315   20.8022 N   0  0  0  0  0  0  0  0  0  0  0  0
    7.0152  -17.2814   21.4788 C   0  0  0  0  0  0  0  0  0  0  0  0
    7.3586  -17.6420   22.6490 O   0  0  0  0  0  0  0  0  0  0  0  0
    7.4476  -16.0295   20.9258 N   0  0  0  0  0  0  0  0  0  0  0  0
    7.1981  -15.4499   19.6455 C   0  0  0  0  0  0  0  0  0  0  0  0
    8.2627  -14.3887   19.4875 C   0  0  0  0  0  0  0  0  0  0  0  0
    8.4136  -13.8630   20.8833 C   0  0  0  0  0  0  0  0  0  0  0  0
    8.2810  -15.1256   21.6953 C   0  0  1  0  0  0  0  0  0  0  0  0
    7.6903  -14.7795   22.9935 C   0  0  0  0  0  0  0  0  0  0  0  0
    6.5948  -14.1923   23.0565 O   0  0  0  0  0  0  0  0  0  0  0  0
    6.1249  -11.9415   27.2241 C   0  0  0  0  0  0  0  0  0  0  0  0
    7.4225  -12.6037   26.8552 C   0  0  0  0  0  0  0  0  0  0  0  0
    7.3498  -13.5874   25.7417 C   0  0  2  0  0  0  0  0  0  0  0  0
    6.4319  -14.7318   26.2088 C   0  0  0  0  0  0  0  0  0  0  0  0
    8.6301  -14.1757   25.2708 C   0  0  2  0  0  0  0  0  0  0  0  0
    8.3663  -15.1134   24.1844 N   0  0  0  0  0  0  0  0  0  0  0  0
    9.4393  -14.8561   26.2939 C   0  0  0  0  0  0  0  0  0  0  0  0
    9.6349  -16.2231   26.2188 O   0  0  0  0  0  0  0  0  0  0  0  0
    9.9676  -14.2202   27.2544 O   0  0  0  0  0  0  0  0  0  0  0  0
  2  1  1  0
  3  2  1  0
  3  4  1  6
  5  7  1  0
  5  3  1  0
  5  6  1  1
  7  8  2  0
  9 13  1  0
  9  7  1  0
 10  9  1  0
 11 10  1  0
 11 12  1  0
 12 13  1  0
 14 15  2  0
 13 14  1  1
 17 16  1  0
 17 18  1  0
 18 20  1  0
 18 19  1  1
 20 22  1  0
 20 21  1  6
 21 14  1  0
 22 23  1  0
 24 22  2  0
M  END
$$$$
