IPI.pdb
     RDKit          3D

 24 24  0  0  1  0  0  0  0  0999 V2000
    6.6655  -11.1327   27.3129 C   0  0  0  0  0  0  0  0  0  0  0  0
    6.1194  -12.4790   26.9202 C   0  0  0  0  0  0  0  0  0  0  0  0
    6.5347  -12.8991   25.5345 C   0  0  2  0  0  0  0  0  0  0  0  0
    5.9165  -11.9360   24.5433 C   0  0  0  0  0  0  0  0  0  0  0  0
    6.0555  -14.2849   25.1836 C   0  0  2  0  0  0  0  0  0  0  0  0
    5.3473  -14.9280   26.2357 N   0  0  0  0  0  0  0  0  0  0  0  0
    7.2384  -15.1039   24.8282 C   0  0  0  0  0  0  0  0  0  0  0  0
    7.6566  -15.8704   25.7529 O   0  0  0  0  0  0  0  0  0  0  0  0
    7.8845  -15.0570   23.5474 N   0  0  0  0  0  0  0  0  0  0  0  0
    7.5548  -14.3155   22.3732 C   0  0  0  0  0  0  0  0  0  0  0  0
    8.2918  -15.0153   21.2544 C   0  0  0  0  0  0  0  0  0  0  0  0
    9.5644  -15.4480   21.9184 C   0  0  0  0  0  0  0  0  0  0  0  0
    9.0686  -15.8519   23.2829 C   0  0  1  0  0  0  0  0  0  0  0  0
   10.1412  -15.6084   24.2545 C   0  0  0  0  0  0  0  0  0  0  0  0
   11.0504  -14.7956   24.0064 O   0  0  0  0  0  0  0  0  0  0  0  0
   10.3650  -13.1221   28.4823 C   0  0  0  0  0  0  0  0  0  0  0  0
   10.7939  -13.9616   27.3120 C   0  0  0  0  0  0  0  0  0  0  0  0
   10.9302  -15.4184   27.5799 C   0  0  2  0  0  0  0  0  0  0  0  0
   12.0313  -15.5813   28.6437 C   0  0  0  0  0  0  0  0  0  0  0  0
   11.2606  -16.2930   26.4254 C   0  0  2  0  0  0  0  0  0  0  0  0
   10.1466  -16.2995   25.4831 N   0  0  0  0  0  0  0  0  0  0  0  0
   11.6088  -17.6846   26.7523 C   0  0  0  0  0  0  0  0  0  0  0  0
   12.9357  -18.0736   26.7771 O   0  0  0  0  0  0  0  0  0  0  0  0
   10.7191  -18.5483   27.0135 O   0  0  0  0  0  0  0  0  0  0  0  0
  2  1  1  0
  3  2  1  0
  3  4  1  6
  5  7  1  0
  5  3  1  0
  5  6  1  1
  7  8  2  0
  9 13  1  0
  9  7  1  0
 10  9  1  0
 11 10  1  0
 11 12  1  0
 12 13  1  0
 14 15  2  0
 13 14  1  1
 17 16  1  0
 17 18  1  0
 18 20  1  0
 18 19  1  1
 20 22  1  0
 20 21  1  6
 21 14  1  0
 22 23  1  0
 24 22  2  0
M  END
$$$$
