IPI.pdb
     RDKit          3D

 24 24  0  0  1  0  0  0  0  0999 V2000
   11.9473  -14.6613   18.9642 C   0  0  0  0  0  0  0  0  0  0  0  0
   10.8646  -14.2334   19.9181 C   0  0  0  0  0  0  0  0  0  0  0  0
    9.7982  -13.3983   19.2587 C   0  0  2  0  0  0  0  0  0  0  0  0
    9.4969  -12.2191   20.1591 C   0  0  0  0  0  0  0  0  0  0  0  0
    8.5120  -14.1589   19.0572 C   0  0  2  0  0  0  0  0  0  0  0  0
    7.5010  -13.4073   18.3978 N   0  0  0  0  0  0  0  0  0  0  0  0
    8.0115  -14.5759   20.3884 C   0  0  0  0  0  0  0  0  0  0  0  0
    7.6765  -13.6204   21.1580 O   0  0  0  0  0  0  0  0  0  0  0  0
    7.9023  -15.9448   20.8059 N   0  0  0  0  0  0  0  0  0  0  0  0
    8.2061  -17.1509   20.1058 C   0  0  0  0  0  0  0  0  0  0  0  0
    7.4679  -18.2324   20.8608 C   0  0  0  0  0  0  0  0  0  0  0  0
    7.5730  -17.7715   22.2834 C   0  0  0  0  0  0  0  0  0  0  0  0
    7.4115  -16.2812   22.1287 C   0  0  1  0  0  0  0  0  0  0  0  0
    8.1702  -15.6212   23.1976 C   0  0  0  0  0  0  0  0  0  0  0  0
    9.3869  -15.3951   23.0664 O   0  0  0  0  0  0  0  0  0  0  0  0
    5.6149  -12.2241   27.0667 C   0  0  0  0  0  0  0  0  0  0  0  0
    6.1280  -13.4452   26.3566 C   0  0  0  0  0  0  0  0  0  0  0  0
    7.5518  -13.3911   25.9293 C   0  0  2  0  0  0  0  0  0  0  0  0
    7.6258  -12.4365   24.7235 C   0  0  0  0  0  0  0  0  0  0  0  0
    8.1964  -14.6751   25.5510 C   0  0  2  0  0  0  0  0  0  0  0  0
    7.5190  -15.2373   24.3874 N   0  0  0  0  0  0  0  0  0  0  0  0
    8.2525  -15.7007   26.6043 C   0  0  0  0  0  0  0  0  0  0  0  0
    9.1959  -15.6017   27.6107 O   0  0  0  0  0  0  0  0  0  0  0  0
    7.4542  -16.6848   26.6167 O   0  0  0  0  0  0  0  0  0  0  0  0
  2  1  1  0
  3  2  1  0
  3  4  1  1
  5  7  1  0
  5  3  1  0
  5  6  1  1
  7  8  2  0
  9 13  1  0
  9  7  1  0
 10  9  1  0
 11 10  1  0
 11 12  1  0
 12 13  1  0
 14 15  2  0
 13 14  1  1
 17 16  1  0
 17 18  1  0
 18 20  1  0
 18 19  1  6
 20 22  1  0
 20 21  1  6
 21 14  1  0
 22 23  1  0
 24 22  2  0
M  END
$$$$
