IPI.pdb
     RDKit          3D

 24 24  0  0  1  0  0  0  0  0999 V2000
   12.3706  -21.1412   20.3636 C   0  0  0  0  0  0  0  0  0  0  0  0
   11.8458  -19.9023   19.6892 C   0  0  0  0  0  0  0  0  0  0  0  0
   11.3866  -18.8521   20.6668 C   0  0  2  0  0  0  0  0  0  0  0  0
   10.2141  -19.4107   21.4448 C   0  0  0  0  0  0  0  0  0  0  0  0
   10.9215  -17.5913   19.9832 C   0  0  2  0  0  0  0  0  0  0  0  0
   11.9544  -16.9033   19.2891 N   0  0  0  0  0  0  0  0  0  0  0  0
   10.3527  -16.6922   21.0150 C   0  0  0  0  0  0  0  0  0  0  0  0
   11.2114  -16.1119   21.7520 O   0  0  0  0  0  0  0  0  0  0  0  0
    8.9454  -16.4736   21.1933 N   0  0  0  0  0  0  0  0  0  0  0  0
    7.8344  -16.9341   20.4247 C   0  0  0  0  0  0  0  0  0  0  0  0
    6.6918  -16.0241   20.8131 C   0  0  0  0  0  0  0  0  0  0  0  0
    6.9494  -15.7749   22.2688 C   0  0  0  0  0  0  0  0  0  0  0  0
    8.4524  -15.6667   22.2932 C   0  0  1  0  0  0  0  0  0  0  0  0
    8.9280  -16.1398   23.5985 C   0  0  0  0  0  0  0  0  0  0  0  0
    9.3331  -17.3078   23.7417 O   0  0  0  0  0  0  0  0  0  0  0  0
   10.2108  -13.3361   29.0580 C   0  0  0  0  0  0  0  0  0  0  0  0
   10.1020  -14.5885   28.2344 C   0  0  0  0  0  0  0  0  0  0  0  0
    9.5135  -14.4187   26.8788 C   0  0  2  0  0  0  0  0  0  0  0  0
    8.1254  -13.7793   27.0656 C   0  0  0  0  0  0  0  0  0  0  0  0
    9.3590  -15.6405   26.0479 C   0  0  2  0  0  0  0  0  0  0  0  0
    8.9282  -15.2664   24.7049 N   0  0  0  0  0  0  0  0  0  0  0  0
    8.4371  -16.6609   26.5708 C   0  0  0  0  0  0  0  0  0  0  0  0
    8.9120  -17.6491   27.4138 O   0  0  0  0  0  0  0  0  0  0  0  0
    7.2068  -16.6628   26.2674 O   0  0  0  0  0  0  0  0  0  0  0  0
  2  1  1  0
  3  2  1  0
  3  4  1  6
  5  7  1  0
  5  3  1  0
  5  6  1  1
  7  8  2  0
  9 13  1  0
  9  7  1  0
 10  9  1  0
 11 10  1  0
 11 12  1  0
 12 13  1  0
 14 15  2  0
 13 14  1  1
 17 16  1  0
 17 18  1  0
 18 20  1  0
 18 19  1  1
 20 22  1  0
 20 21  1  6
 21 14  1  0
 22 23  1  0
 24 22  2  0
M  END
$$$$
