IPI.pdb
     RDKit          3D

 24 24  0  0  1  0  0  0  0  0999 V2000
   12.1592  -19.4364   23.5244 C   0  0  0  0  0  0  0  0  0  0  0  0
   12.1124  -18.2462   22.6044 C   0  0  0  0  0  0  0  0  0  0  0  0
   11.2694  -18.4848   21.3789 C   0  0  2  0  0  0  0  0  0  0  0  0
   11.9560  -19.5335   20.5298 C   0  0  0  0  0  0  0  0  0  0  0  0
   11.1136  -17.2450   20.5353 C   0  0  2  0  0  0  0  0  0  0  0  0
   12.3386  -16.5695   20.2805 N   0  0  0  0  0  0  0  0  0  0  0  0
   10.1922  -16.3225   21.2400 C   0  0  0  0  0  0  0  0  0  0  0  0
   10.7626  -15.4344   21.9494 O   0  0  0  0  0  0  0  0  0  0  0  0
    8.7620  -16.4010   21.1488 N   0  0  0  0  0  0  0  0  0  0  0  0
    7.9319  -17.2637   20.3716 C   0  0  0  0  0  0  0  0  0  0  0  0
    6.5846  -16.5795   20.3412 C   0  0  0  0  0  0  0  0  0  0  0  0
    6.4977  -15.9623   21.7046 C   0  0  0  0  0  0  0  0  0  0  0  0
    7.9183  -15.5074   21.9191 C   0  0  1  0  0  0  0  0  0  0  0  0
    8.2068  -15.5575   23.3572 C   0  0  0  0  0  0  0  0  0  0  0  0
    8.9851  -16.4115   23.8193 O   0  0  0  0  0  0  0  0  0  0  0  0
    6.1116  -11.1348   25.9959 C   0  0  0  0  0  0  0  0  0  0  0  0
    7.0821  -12.1818   25.5265 C   0  0  0  0  0  0  0  0  0  0  0  0
    7.0414  -13.4739   26.2624 C   0  0  2  0  0  0  0  0  0  0  0  0
    7.5920  -13.2069   27.6753 C   0  0  0  0  0  0  0  0  0  0  0  0
    7.7912  -14.6139   25.6747 C   0  0  2  0  0  0  0  0  0  0  0  0
    7.5990  -14.6310   24.2284 N   0  0  0  0  0  0  0  0  0  0  0  0
    7.4609  -15.9441   26.2094 C   0  0  0  0  0  0  0  0  0  0  0  0
    8.3090  -16.5495   27.1187 O   0  0  0  0  0  0  0  0  0  0  0  0
    6.4112  -16.5601   25.8566 O   0  0  0  0  0  0  0  0  0  0  0  0
  2  1  1  0
  3  2  1  0
  3  4  1  6
  5  7  1  0
  5  3  1  0
  5  6  1  1
  7  8  2  0
  9 13  1  0
  9  7  1  0
 10  9  1  0
 11 10  1  0
 11 12  1  0
 12 13  1  0
 14 15  2  0
 13 14  1  1
 17 16  1  0
 17 18  1  0
 18 20  1  0
 18 19  1  1
 20 22  1  0
 20 21  1  6
 21 14  1  0
 22 23  1  0
 24 22  2  0
M  END
$$$$
