IPI.pdb
     RDKit          3D

 24 24  0  0  1  0  0  0  0  0999 V2000
   11.1710  -21.2681   19.7926 C   0  0  0  0  0  0  0  0  0  0  0  0
   10.8903  -19.8643   19.3283 C   0  0  0  0  0  0  0  0  0  0  0  0
   10.7473  -18.8876   20.4663 C   0  0  2  0  0  0  0  0  0  0  0  0
    9.5566  -19.3067   21.3022 C   0  0  0  0  0  0  0  0  0  0  0  0
   10.4973  -17.4791   19.9899 C   0  0  2  0  0  0  0  0  0  0  0  0
   11.5887  -16.9161   19.2732 N   0  0  0  0  0  0  0  0  0  0  0  0
   10.2137  -16.6365   21.1757 C   0  0  0  0  0  0  0  0  0  0  0  0
   11.2329  -16.3328   21.8730 O   0  0  0  0  0  0  0  0  0  0  0  0
    8.9002  -16.1833   21.5356 N   0  0  0  0  0  0  0  0  0  0  0  0
    7.6362  -16.4340   20.9219 C   0  0  0  0  0  0  0  0  0  0  0  0
    6.7274  -15.3485   21.4512 C   0  0  0  0  0  0  0  0  0  0  0  0
    7.2112  -15.1711   22.8590 C   0  0  0  0  0  0  0  0  0  0  0  0
    8.7006  -15.3223   22.6857 C   0  0  1  0  0  0  0  0  0  0  0  0
    9.2536  -15.8913   23.9203 C   0  0  0  0  0  0  0  0  0  0  0  0
    9.6006  -17.0854   23.9694 O   0  0  0  0  0  0  0  0  0  0  0  0
   10.5312  -13.5371   29.6074 C   0  0  0  0  0  0  0  0  0  0  0  0
   10.6186  -14.6690   28.6227 C   0  0  0  0  0  0  0  0  0  0  0  0
   10.0600  -14.3923   27.2721 C   0  0  2  0  0  0  0  0  0  0  0  0
    8.6470  -13.8160   27.4768 C   0  0  0  0  0  0  0  0  0  0  0  0
    9.9678  -15.5357   26.3281 C   0  0  2  0  0  0  0  0  0  0  0  0
    9.3954  -15.0814   25.0652 N   0  0  0  0  0  0  0  0  0  0  0  0
    9.2014  -16.6991   26.8010 C   0  0  0  0  0  0  0  0  0  0  0  0
    7.8661  -16.8258   26.4638 O   0  0  0  0  0  0  0  0  0  0  0  0
    9.7334  -17.5985   27.5178 O   0  0  0  0  0  0  0  0  0  0  0  0
  2  1  1  0
  3  2  1  0
  3  4  1  1
  5  7  1  0
  5  3  1  0
  5  6  1  1
  7  8  2  0
  9 13  1  0
  9  7  1  0
 10  9  1  0
 11 10  1  0
 11 12  1  0
 12 13  1  0
 14 15  2  0
 13 14  1  1
 17 16  1  0
 17 18  1  0
 18 20  1  0
 18 19  1  1
 20 22  1  0
 20 21  1  6
 21 14  1  0
 22 23  1  0
 24 22  2  0
M  END
$$$$
