TGY.pdb
     RDKit          3D

 24 24  0  0  1  0  0  0  0  0999 V2000
   33.5710  -28.4272  -19.3811 C   0  0  0  0  0  0  0  0  0  0  0  0
   32.1492  -28.1398  -19.8604 C   0  0  1  0  0  0  0  0  0  0  0  0
   31.3050  -27.9066  -18.7775 O   0  0  0  0  0  0  0  0  0  0  0  0
   32.2357  -26.8914  -20.7226 C   0  0  2  0  0  0  0  0  0  0  0  0
   32.6713  -25.8053  -19.8836 N   0  0  0  0  0  0  0  0  0  0  0  0
   30.9638  -26.5899  -21.4061 C   0  0  0  0  0  0  0  0  0  0  0  0
   30.4622  -27.4407  -22.1738 O   0  0  0  0  0  0  0  0  0  0  0  0
   30.3340  -25.3519  -21.1855 N   0  0  0  0  0  0  0  0  0  0  0  0
   28.9058  -25.2614  -21.1454 C   0  0  0  0  0  0  0  0  0  0  0  0
   28.5380  -24.2326  -20.1068 C   0  0  0  0  0  0  0  0  0  0  0  0
   27.3468  -23.8527  -19.9851 O   0  0  0  0  0  0  0  0  0  0  0  0
   26.2372  -27.6970  -15.8255 O   0  0  0  0  0  0  0  0  0  0  0  0
   26.9826  -26.5521  -16.0841 C   0  0  0  0  0  0  0  0  0  0  0  0
   26.4595  -25.2835  -15.9478 C   0  0  0  0  0  0  0  0  0  0  0  0
   27.1810  -24.1401  -16.1989 C   0  0  0  0  0  0  0  0  0  0  0  0
   28.4898  -24.2260  -16.6075 C   0  0  0  0  0  0  0  0  0  0  0  0
   29.3389  -23.0757  -16.9089 C   0  0  0  0  0  0  0  0  0  0  0  0
   29.1000  -22.6083  -18.3244 C   0  0  2  0  0  0  0  0  0  0  0  0
   29.5131  -23.6741  -19.2512 N   0  0  0  0  0  0  0  0  0  0  0  0
   29.8843  -21.3858  -18.5704 C   0  0  0  0  0  0  0  0  0  0  0  0
   30.9288  -21.2410  -19.4382 O   0  0  0  0  0  0  0  0  0  0  0  0
   29.0456  -25.4986  -16.7537 C   0  0  0  0  0  0  0  0  0  0  0  0
   28.2970  -26.6197  -16.4945 C   0  0  0  0  0  0  0  0  0  0  0  0
   29.5650  -20.3370  -17.9031 O   0  0  0  0  0  0  0  0  0  0  0  0
  2  1  1  1
  3  2  1  0
  4  2  1  0
  4  6  1  0
  4  5  1  1
  6  7  2  0
  8  9  1  0
  8  6  1  0
  9 10  1  0
 10 19  1  0
 10 11  2  0
 12 13  1  0
 13 23  2  0
 14 13  1  0
 14 15  2  0
 15 16  1  0
 16 22  2  0
 16 17  1  0
 18 17  1  1
 19 18  1  0
 20 18  1  0
 20 21  1  0
 23 22  1  0
 24 20  2  0
M  END
$$$$
