TGY.pdb
     RDKit          3D

 24 24  0  0  1  0  0  0  0  0999 V2000
   29.0099  -19.1337  -19.6481 C   0  0  0  0  0  0  0  0  0  0  0  0
   28.1839  -18.3330  -18.6428 C   0  0  1  0  0  0  0  0  0  0  0  0
   26.8917  -18.8443  -18.5528 O   0  0  0  0  0  0  0  0  0  0  0  0
   28.8880  -18.4773  -17.3038 C   0  0  2  0  0  0  0  0  0  0  0  0
   29.0384  -19.8836  -17.0339 N   0  0  0  0  0  0  0  0  0  0  0  0
   28.1799  -17.7755  -16.2167 C   0  0  0  0  0  0  0  0  0  0  0  0
   27.8878  -16.5668  -16.3536 O   0  0  0  0  0  0  0  0  0  0  0  0
   27.8435  -18.4740  -15.0433 N   0  0  0  0  0  0  0  0  0  0  0  0
   26.8697  -17.9443  -14.1375 C   0  0  0  0  0  0  0  0  0  0  0  0
   25.9119  -19.0549  -13.7889 C   0  0  0  0  0  0  0  0  0  0  0  0
   24.8365  -19.1872  -14.4246 O   0  0  0  0  0  0  0  0  0  0  0  0
   26.8817  -19.2572   -6.6944 O   0  0  0  0  0  0  0  0  0  0  0  0
   26.6206  -19.9399   -7.8772 C   0  0  0  0  0  0  0  0  0  0  0  0
   25.3594  -20.3887   -8.2083 C   0  0  0  0  0  0  0  0  0  0  0  0
   25.0820  -21.0653   -9.3728 C   0  0  0  0  0  0  0  0  0  0  0  0
   26.0849  -21.3256  -10.2750 C   0  0  0  0  0  0  0  0  0  0  0  0
   25.8984  -22.0436  -11.5339 C   0  0  0  0  0  0  0  0  0  0  0  0
   25.3040  -21.1254  -12.5744 C   0  0  2  0  0  0  0  0  0  0  0  0
   26.1952  -19.9673  -12.7488 N   0  0  0  0  0  0  0  0  0  0  0  0
   23.9727  -20.6818  -12.1261 C   0  0  0  0  0  0  0  0  0  0  0  0
   23.6402  -19.4534  -11.6305 O   0  0  0  0  0  0  0  0  0  0  0  0
   27.3723  -20.8823   -9.9655 C   0  0  0  0  0  0  0  0  0  0  0  0
   27.6145  -20.2094   -8.7938 C   0  0  0  0  0  0  0  0  0  0  0  0
   23.0130  -21.5307  -12.2011 O   0  0  0  0  0  0  0  0  0  0  0  0
  2  1  1  6
  3  2  1  0
  4  2  1  0
  4  6  1  0
  4  5  1  1
  6  7  2  0
  8  9  1  0
  8  6  1  0
  9 10  1  0
 10 19  1  0
 10 11  2  0
 12 13  1  0
 13 23  2  0
 14 13  1  0
 14 15  2  0
 15 16  1  0
 16 22  2  0
 16 17  1  0
 18 17  1  1
 19 18  1  0
 20 18  1  0
 20 21  1  0
 23 22  1  0
 24 20  2  0
M  END
$$$$
