TGY.pdb
     RDKit          3D

 24 24  0  0  1  0  0  0  0  0999 V2000
   17.1808  -10.9042  -18.5929 C   0  0  0  0  0  0  0  0  0  0  0  0
   17.9807  -10.8317  -17.2933 C   0  0  1  0  0  0  0  0  0  0  0  0
   18.3628  -12.1060  -16.8815 O   0  0  0  0  0  0  0  0  0  0  0  0
   19.2146   -9.9993  -17.5998 C   0  0  2  0  0  0  0  0  0  0  0  0
   20.1240  -10.1341  -16.4916 N   0  0  0  0  0  0  0  0  0  0  0  0
   18.8870   -8.5890  -17.8813 C   0  0  0  0  0  0  0  0  0  0  0  0
   18.2787   -8.2981  -18.9350 O   0  0  0  0  0  0  0  0  0  0  0  0
   19.2624   -7.5926  -16.9625 N   0  0  0  0  0  0  0  0  0  0  0  0
   18.9723   -6.2157  -17.2265 C   0  0  0  0  0  0  0  0  0  0  0  0
   19.3727   -5.4190  -16.0110 C   0  0  0  0  0  0  0  0  0  0  0  0
   18.6854   -5.4761  -14.9611 O   0  0  0  0  0  0  0  0  0  0  0  0
   21.9329  -10.0298  -13.3267 O   0  0  0  0  0  0  0  0  0  0  0  0
   22.0206   -8.6683  -13.5947 C   0  0  0  0  0  0  0  0  0  0  0  0
   22.5657   -8.1790  -14.7632 C   0  0  0  0  0  0  0  0  0  0  0  0
   22.6609   -6.8367  -15.0457 C   0  0  0  0  0  0  0  0  0  0  0  0
   22.2016   -5.9076  -14.1440 C   0  0  0  0  0  0  0  0  0  0  0  0
   22.2644   -4.4613  -14.3428 C   0  0  0  0  0  0  0  0  0  0  0  0
   20.9144   -3.9343  -14.7658 C   0  0  2  0  0  0  0  0  0  0  0  0
   20.5198   -4.5952  -16.0202 N   0  0  0  0  0  0  0  0  0  0  0  0
   21.0024   -2.4771  -14.9626 C   0  0  0  0  0  0  0  0  0  0  0  0
   21.2593   -1.5337  -14.0091 O   0  0  0  0  0  0  0  0  0  0  0  0
   21.6444   -6.3750  -12.9521 C   0  0  0  0  0  0  0  0  0  0  0  0
   21.5646   -7.7223  -12.7017 C   0  0  0  0  0  0  0  0  0  0  0  0
   20.8178   -2.0312  -16.1519 O   0  0  0  0  0  0  0  0  0  0  0  0
  2  1  1  6
  3  2  1  0
  4  2  1  0
  4  6  1  0
  4  5  1  1
  6  7  2  0
  8  9  1  0
  8  6  1  0
  9 10  1  0
 10 19  1  0
 10 11  2  0
 12 13  1  0
 13 23  2  0
 14 13  1  0
 14 15  2  0
 15 16  1  0
 16 22  2  0
 16 17  1  0
 18 17  1  6
 19 18  1  0
 20 18  1  0
 20 21  1  0
 23 22  1  0
 24 20  2  0
M  END
$$$$
