TGY.pdb
     RDKit          3D

 24 24  0  0  1  0  0  0  0  0999 V2000
   28.4215  -22.5493  -19.0065 C   0  0  0  0  0  0  0  0  0  0  0  0
   27.6631  -21.5946  -18.0861 C   0  0  1  0  0  0  0  0  0  0  0  0
   26.5399  -22.2196  -17.5501 O   0  0  0  0  0  0  0  0  0  0  0  0
   28.6266  -21.2248  -16.9706 C   0  0  2  0  0  0  0  0  0  0  0  0
   29.0721  -22.4453  -16.3500 N   0  0  0  0  0  0  0  0  0  0  0  0
   28.0293  -20.2920  -15.9966 C   0  0  0  0  0  0  0  0  0  0  0  0
   27.5374  -19.2147  -16.3996 O   0  0  0  0  0  0  0  0  0  0  0  0
   28.0212  -20.6263  -14.6305 N   0  0  0  0  0  0  0  0  0  0  0  0
   27.3620  -19.7820  -13.6808 C   0  0  0  0  0  0  0  0  0  0  0  0
   26.2266  -20.5674  -13.0755 C   0  0  0  0  0  0  0  0  0  0  0  0
   25.9336  -21.7044  -13.5221 O   0  0  0  0  0  0  0  0  0  0  0  0
   29.6047  -20.5871   -7.7228 O   0  0  0  0  0  0  0  0  0  0  0  0
   28.3170  -20.5663   -8.2468 C   0  0  0  0  0  0  0  0  0  0  0  0
   27.3521  -19.6877   -7.8009 C   0  0  0  0  0  0  0  0  0  0  0  0
   26.0739  -19.6524   -8.3067 C   0  0  0  0  0  0  0  0  0  0  0  0
   25.7030  -20.5196   -9.3055 C   0  0  0  0  0  0  0  0  0  0  0  0
   24.3708  -20.5704   -9.9037 C   0  0  0  0  0  0  0  0  0  0  0  0
   24.4701  -20.9261  -11.3675 C   0  0  2  0  0  0  0  0  0  0  0  0
   25.4695  -20.0511  -12.0009 N   0  0  0  0  0  0  0  0  0  0  0  0
   23.1538  -20.7403  -12.0022 C   0  0  0  0  0  0  0  0  0  0  0  0
   22.0568  -21.5426  -11.8680 O   0  0  0  0  0  0  0  0  0  0  0  0
   26.6603  -21.4204   -9.7765 C   0  0  0  0  0  0  0  0  0  0  0  0
   27.9278  -21.4288   -9.2493 C   0  0  0  0  0  0  0  0  0  0  0  0
   23.0079  -19.7208  -12.7681 O   0  0  0  0  0  0  0  0  0  0  0  0
  2  1  1  6
  3  2  1  0
  4  2  1  0
  4  6  1  0
  4  5  1  1
  6  7  2  0
  8  9  1  0
  8  6  1  0
  9 10  1  0
 10 19  1  0
 10 11  2  0
 12 13  1  0
 13 23  2  0
 14 13  1  0
 14 15  2  0
 15 16  1  0
 16 22  2  0
 16 17  1  0
 18 17  1  1
 19 18  1  0
 20 18  1  0
 20 21  1  0
 23 22  1  0
 24 20  2  0
M  END
$$$$
