TGY.pdb
     RDKit          3D

 24 24  0  0  1  0  0  0  0  0999 V2000
   25.7013  -23.0107  -17.5258 C   0  0  0  0  0  0  0  0  0  0  0  0
   27.1297  -22.4705  -17.5671 C   0  0  1  0  0  0  0  0  0  0  0  0
   27.5504  -22.2984  -18.8836 O   0  0  0  0  0  0  0  0  0  0  0  0
   27.0964  -21.1266  -16.8585 C   0  0  2  0  0  0  0  0  0  0  0  0
   28.4173  -20.5578  -16.9294 N   0  0  0  0  0  0  0  0  0  0  0  0
   26.6115  -21.2341  -15.4697 C   0  0  0  0  0  0  0  0  0  0  0  0
   27.2987  -21.8499  -14.6250 O   0  0  0  0  0  0  0  0  0  0  0  0
   25.3853  -20.6437  -15.1150 N   0  0  0  0  0  0  0  0  0  0  0  0
   24.9171  -20.6997  -13.7633 C   0  0  0  0  0  0  0  0  0  0  0  0
   23.6192  -19.9363  -13.6930 C   0  0  0  0  0  0  0  0  0  0  0  0
   23.5441  -18.7701  -14.1540 O   0  0  0  0  0  0  0  0  0  0  0  0
   22.7443  -16.3583  -18.5369 O   0  0  0  0  0  0  0  0  0  0  0  0
   22.3075  -17.3632  -17.6809 C   0  0  0  0  0  0  0  0  0  0  0  0
   21.2223  -17.2020  -16.8454 C   0  0  0  0  0  0  0  0  0  0  0  0
   20.7758  -18.1838  -15.9925 C   0  0  0  0  0  0  0  0  0  0  0  0
   21.4169  -19.3978  -15.9421 C   0  0  0  0  0  0  0  0  0  0  0  0
   21.0296  -20.5015  -15.0663 C   0  0  0  0  0  0  0  0  0  0  0  0
   21.1486  -20.0853  -13.6199 C   0  0  2  0  0  0  0  0  0  0  0  0
   22.4644  -20.5060  -13.1128 N   0  0  0  0  0  0  0  0  0  0  0  0
   20.0736  -20.7243  -12.8414 C   0  0  0  0  0  0  0  0  0  0  0  0
   18.8872  -20.1625  -12.4644 O   0  0  0  0  0  0  0  0  0  0  0  0
   22.5191  -19.5889  -16.7777 C   0  0  0  0  0  0  0  0  0  0  0  0
   22.9384  -18.5873  -17.6176 C   0  0  0  0  0  0  0  0  0  0  0  0
   20.2585  -21.9383  -12.4681 O   0  0  0  0  0  0  0  0  0  0  0  0
  2  1  1  6
  3  2  1  0
  4  2  1  0
  4  6  1  0
  4  5  1  1
  6  7  2  0
  8  9  1  0
  8  6  1  0
  9 10  1  0
 10 19  1  0
 10 11  2  0
 12 13  1  0
 13 23  2  0
 14 13  1  0
 14 15  2  0
 15 16  1  0
 16 22  2  0
 16 17  1  0
 18 17  1  6
 19 18  1  0
 20 18  1  0
 20 21  1  0
 23 22  1  0
 24 20  2  0
M  END
$$$$
