TGY.pdb
     RDKit          3D

 24 24  0  0  1  0  0  0  0  0999 V2000
   18.7864  -13.8807  -16.6788 C   0  0  0  0  0  0  0  0  0  0  0  0
   17.2933  -13.6922  -16.4163 C   0  0  1  0  0  0  0  0  0  0  0  0
   16.7409  -14.8505  -15.8752 O   0  0  0  0  0  0  0  0  0  0  0  0
   17.1782  -12.5530  -15.4171 C   0  0  2  0  0  0  0  0  0  0  0  0
   15.8200  -12.5201  -14.9401 N   0  0  0  0  0  0  0  0  0  0  0  0
   17.5982  -11.2591  -15.9874 C   0  0  0  0  0  0  0  0  0  0  0  0
   17.2624  -10.9648  -17.1560 O   0  0  0  0  0  0  0  0  0  0  0  0
   18.3692  -10.3758  -15.2107 N   0  0  0  0  0  0  0  0  0  0  0  0
   18.7373   -9.0909  -15.7234 C   0  0  0  0  0  0  0  0  0  0  0  0
   19.5859   -8.4052  -14.6831 C   0  0  0  0  0  0  0  0  0  0  0  0
   19.6092   -8.8325  -13.5021 O   0  0  0  0  0  0  0  0  0  0  0  0
   23.5283   -4.9639  -19.6570 O   0  0  0  0  0  0  0  0  0  0  0  0
   23.3308   -5.4441  -18.3672 C   0  0  0  0  0  0  0  0  0  0  0  0
   23.5791   -4.6781  -17.2476 C   0  0  0  0  0  0  0  0  0  0  0  0
   23.3897   -5.1355  -15.9647 C   0  0  0  0  0  0  0  0  0  0  0  0
   22.9323   -6.4126  -15.7481 C   0  0  0  0  0  0  0  0  0  0  0  0
   22.7073   -6.9974  -14.4280 C   0  0  0  0  0  0  0  0  0  0  0  0
   21.2866   -6.7474  -13.9826 C   0  0  2  0  0  0  0  0  0  0  0  0
   20.3697   -7.2754  -15.0055 N   0  0  0  0  0  0  0  0  0  0  0  0
   21.0799   -5.2991  -13.8108 C   0  0  0  0  0  0  0  0  0  0  0  0
   20.2090   -4.5061  -14.5019 O   0  0  0  0  0  0  0  0  0  0  0  0
   22.6723   -7.2107  -16.8640 C   0  0  0  0  0  0  0  0  0  0  0  0
   22.8721   -6.7225  -18.1314 C   0  0  0  0  0  0  0  0  0  0  0  0
   21.7891   -4.7044  -12.9215 O   0  0  0  0  0  0  0  0  0  0  0  0
  2  1  1  1
  3  2  1  0
  4  2  1  0
  4  6  1  0
  4  5  1  6
  6  7  2  0
  8  9  1  0
  8  6  1  0
  9 10  1  0
 10 19  1  0
 10 11  2  0
 12 13  1  0
 13 23  2  0
 14 13  1  0
 14 15  2  0
 15 16  1  0
 16 22  2  0
 16 17  1  0
 18 17  1  6
 19 18  1  0
 20 18  1  0
 20 21  1  0
 23 22  1  0
 24 20  2  0
M  END
$$$$
