TGY.pdb
     RDKit          3D

 24 24  0  0  1  0  0  0  0  0999 V2000
   20.7015  -18.7588  -17.0561 C   0  0  0  0  0  0  0  0  0  0  0  0
   20.4474  -19.0401  -15.5761 C   0  0  1  0  0  0  0  0  0  0  0  0
   19.2738  -18.4201  -15.1542 O   0  0  0  0  0  0  0  0  0  0  0  0
   20.3066  -20.5478  -15.4483 C   0  0  2  0  0  0  0  0  0  0  0  0
   19.1483  -20.8153  -14.6359 N   0  0  0  0  0  0  0  0  0  0  0  0
   21.5231  -21.1832  -14.9079 C   0  0  0  0  0  0  0  0  0  0  0  0
   21.6373  -21.3395  -13.6720 O   0  0  0  0  0  0  0  0  0  0  0  0
   22.5360  -21.6037  -15.7883 N   0  0  0  0  0  0  0  0  0  0  0  0
   23.7518  -22.1639  -15.2810 C   0  0  0  0  0  0  0  0  0  0  0  0
   24.8094  -21.0907  -15.3294 C   0  0  0  0  0  0  0  0  0  0  0  0
   24.5314  -19.9463  -15.7665 O   0  0  0  0  0  0  0  0  0  0  0  0
   24.4038  -20.0483   -9.0600 O   0  0  0  0  0  0  0  0  0  0  0  0
   25.2498  -20.1335  -10.1601 C   0  0  0  0  0  0  0  0  0  0  0  0
   25.6739  -21.3408  -10.6742 C   0  0  0  0  0  0  0  0  0  0  0  0
   26.5101  -21.4449  -11.7609 C   0  0  0  0  0  0  0  0  0  0  0  0
   26.9663  -20.3128  -12.3913 C   0  0  0  0  0  0  0  0  0  0  0  0
   27.8634  -20.3133  -13.5447 C   0  0  0  0  0  0  0  0  0  0  0  0
   27.0679  -20.2105  -14.8236 C   0  0  2  0  0  0  0  0  0  0  0  0
   26.1277  -21.3408  -14.8889 N   0  0  0  0  0  0  0  0  0  0  0  0
   27.9895  -20.2463  -15.9723 C   0  0  0  0  0  0  0  0  0  0  0  0
   28.7034  -19.2012  -16.4853 O   0  0  0  0  0  0  0  0  0  0  0  0
   26.5525  -19.0762  -11.8919 C   0  0  0  0  0  0  0  0  0  0  0  0
   25.7168  -19.0081  -10.8050 C   0  0  0  0  0  0  0  0  0  0  0  0
   28.1467  -21.3732  -16.5662 O   0  0  0  0  0  0  0  0  0  0  0  0
  2  1  1  6
  3  2  1  0
  4  2  1  0
  4  6  1  0
  4  5  1  1
  6  7  2  0
  8  9  1  0
  8  6  1  0
  9 10  1  0
 10 19  1  0
 10 11  2  0
 12 13  1  0
 13 23  2  0
 14 13  1  0
 14 15  2  0
 15 16  1  0
 16 22  2  0
 16 17  1  0
 18 17  1  1
 19 18  1  0
 20 18  1  0
 20 21  1  0
 23 22  1  0
 24 20  2  0
M  END
$$$$
