TPL.pdb
     RDKit          3D

 23 23  0  0  1  0  0  0  0  0999 V2000
    4.0964  -18.1047   20.8908 C   0  0  0  0  0  0  0  0  0  0  0  0
    5.3858  -17.3917   21.2220 C   0  0  1  0  0  0  0  0  0  0  0  0
    6.0008  -18.0476   22.2388 O   0  0  0  0  0  0  0  0  0  0  0  0
    6.2189  -17.1446   19.9820 C   0  0  2  0  0  0  0  0  0  0  0  0
    6.4386  -18.4861   19.4043 N   0  0  0  0  0  0  0  0  0  0  0  0
    7.5167  -16.5286   20.2486 C   0  0  0  0  0  0  0  0  0  0  0  0
    8.5391  -17.2930   20.1420 O   0  0  0  0  0  0  0  0  0  0  0  0
    7.7237  -15.1839   20.6052 N   0  0  0  0  0  0  0  0  0  0  0  0
    6.6282  -14.1999   20.6795 C   0  0  0  0  0  0  0  0  0  0  0  0
    7.2606  -13.0594   19.8739 C   0  0  0  0  0  0  0  0  0  0  0  0
    8.7428  -13.1706   20.1380 C   0  0  0  0  0  0  0  0  0  0  0  0
    8.8768  -14.4095   20.9533 C   0  0  1  0  0  0  0  0  0  0  0  0
    9.0317  -14.1892   22.4070 C   0  0  0  0  0  0  0  0  0  0  0  0
   10.0538  -13.5606   22.7860 O   0  0  0  0  0  0  0  0  0  0  0  0
    6.3149  -11.1661   26.2533 C   0  0  0  0  0  0  0  0  0  0  0  0
    7.1639  -12.3929   26.2588 C   0  0  1  0  0  0  0  0  0  0  0  0
    6.6425  -13.2860   27.3793 C   0  0  0  0  0  0  0  0  0  0  0  0
    7.3414  -13.0912   24.9878 C   0  0  0  0  0  0  0  0  0  0  0  0
    8.3005  -14.2135   24.8342 C   0  0  2  0  0  0  0  0  0  0  0  0
    8.1315  -14.6248   23.4041 N   0  0  0  0  0  0  0  0  0  0  0  0
    8.1989  -15.3761   25.6885 C   0  0  0  0  0  0  0  0  0  0  0  0
    8.9767  -15.4849   26.7228 O   0  0  0  0  0  0  0  0  0  0  0  0
    7.3374  -16.4504   25.5599 O   0  0  0  0  0  0  0  0  0  0  0  0
  2  1  1  6
  2  3  1  0
  4  2  1  0
  4  5  1  1
  6  8  1  0
  6  4  1  0
  7  6  2  0
  8 12  1  0
  9 10  1  0
  9  8  1  0
 10 11  1  0
 12 11  1  0
 12 13  1  1
 13 20  1  0
 14 13  2  0
 16 15  1  6
 16 17  1  0
 18 16  1  0
 19 21  1  0
 19 20  1  0
 19 18  1  1
 21 23  1  0
 22 21  2  0
M  END
$$$$
