TPL.pdb
     RDKit          3D

 23 23  0  0  1  0  0  0  0  0999 V2000
    7.0953  -19.3499   18.7647 C   0  0  0  0  0  0  0  0  0  0  0  0
    7.6324  -18.3141   19.7234 C   0  0  1  0  0  0  0  0  0  0  0  0
    8.1523  -18.9465   20.8060 O   0  0  0  0  0  0  0  0  0  0  0  0
    8.5413  -17.3262   19.0229 C   0  0  2  0  0  0  0  0  0  0  0  0
    9.6431  -18.1484   18.4825 N   0  0  0  0  0  0  0  0  0  0  0  0
    9.1041  -16.3054   19.9038 C   0  0  0  0  0  0  0  0  0  0  0  0
   10.3391  -16.4440   20.2148 O   0  0  0  0  0  0  0  0  0  0  0  0
    8.4050  -15.2018   20.4246 N   0  0  0  0  0  0  0  0  0  0  0  0
    6.9857  -14.9409   20.1227 C   0  0  0  0  0  0  0  0  0  0  0  0
    7.0777  -13.4576   19.7474 C   0  0  0  0  0  0  0  0  0  0  0  0
    8.2064  -12.9118   20.5885 C   0  0  0  0  0  0  0  0  0  0  0  0
    8.7587  -14.1093   21.2802 C   0  0  1  0  0  0  0  0  0  0  0  0
    8.3196  -14.2815   22.6814 C   0  0  0  0  0  0  0  0  0  0  0  0
    7.1646  -14.7450   22.8675 O   0  0  0  0  0  0  0  0  0  0  0  0
    7.7147  -11.8568   27.4605 C   0  0  0  0  0  0  0  0  0  0  0  0
    6.9494  -12.8678   26.6742 C   0  0  1  0  0  0  0  0  0  0  0  0
    5.5000  -12.3954   26.6392 C   0  0  0  0  0  0  0  0  0  0  0  0
    7.4770  -13.2366   25.3626 C   0  0  0  0  0  0  0  0  0  0  0  0
    8.5631  -14.2357   25.2043 C   0  0  2  0  0  0  0  0  0  0  0  0
    9.0854  -13.9693   23.8262 N   0  0  0  0  0  0  0  0  0  0  0  0
    8.2778  -15.6461   25.3506 C   0  0  0  0  0  0  0  0  0  0  0  0
    8.9030  -16.3391   26.2536 O   0  0  0  0  0  0  0  0  0  0  0  0
    7.3768  -16.4084   24.6294 O   0  0  0  0  0  0  0  0  0  0  0  0
  2  1  1  6
  2  3  1  0
  4  2  1  0
  4  5  1  1
  6  8  1  0
  6  4  1  0
  7  6  2  0
  8 12  1  0
  9 10  1  0
  9  8  1  0
 10 11  1  0
 12 11  1  0
 12 13  1  1
 13 20  1  0
 14 13  2  0
 16 15  1  6
 16 17  1  0
 18 16  1  0
 19 21  1  0
 19 20  1  0
 19 18  1  6
 21 23  1  0
 22 21  2  0
M  END
$$$$
