TPL.pdb
     RDKit          3D

 23 23  0  0  1  0  0  0  0  0999 V2000
    3.2487  -17.9742   20.9212 C   0  0  0  0  0  0  0  0  0  0  0  0
    4.5267  -17.4438   21.5261 C   0  0  1  0  0  0  0  0  0  0  0  0
    4.7319  -18.0530   22.7215 O   0  0  0  0  0  0  0  0  0  0  0  0
    5.6739  -17.4992   20.5393 C   0  0  2  0  0  0  0  0  0  0  0  0
    5.8040  -18.9299   20.1955 N   0  0  0  0  0  0  0  0  0  0  0  0
    6.9472  -17.0270   21.0781 C   0  0  0  0  0  0  0  0  0  0  0  0
    7.8091  -17.9293   21.3679 O   0  0  0  0  0  0  0  0  0  0  0  0
    7.2917  -15.6810   21.2966 N   0  0  0  0  0  0  0  0  0  0  0  0
    6.4060  -14.5607   20.9302 C   0  0  0  0  0  0  0  0  0  0  0  0
    7.4149  -13.6754   20.1897 C   0  0  0  0  0  0  0  0  0  0  0  0
    8.7368  -13.9374   20.8703 C   0  0  0  0  0  0  0  0  0  0  0  0
    8.4365  -15.0202   21.8474 C   0  0  1  0  0  0  0  0  0  0  0  0
    8.2523  -14.5707   23.2438 C   0  0  0  0  0  0  0  0  0  0  0  0
    7.1091  -14.1553   23.5664 O   0  0  0  0  0  0  0  0  0  0  0  0
    5.7464  -12.4663   26.1760 C   0  0  0  0  0  0  0  0  0  0  0  0
    7.1760  -12.8200   25.9372 C   0  0  1  0  0  0  0  0  0  0  0  0
    7.9882  -12.1424   27.0354 C   0  0  0  0  0  0  0  0  0  0  0  0
    7.4962  -14.2345   25.7599 C   0  0  0  0  0  0  0  0  0  0  0  0
    8.8966  -14.7213   25.6909 C   0  0  2  0  0  0  0  0  0  0  0  0
    9.2496  -14.5672   24.2437 N   0  0  0  0  0  0  0  0  0  0  0  0
    9.2209  -16.0610   26.1293 C   0  0  0  0  0  0  0  0  0  0  0  0
    9.7495  -16.2446   27.3012 O   0  0  0  0  0  0  0  0  0  0  0  0
    9.0325  -17.2468   25.4428 O   0  0  0  0  0  0  0  0  0  0  0  0
  2  1  1  6
  2  3  1  0
  4  2  1  0
  4  5  1  1
  6  8  1  0
  6  4  1  0
  7  6  2  0
  8 12  1  0
  9 10  1  0
  9  8  1  0
 10 11  1  0
 12 11  1  0
 12 13  1  1
 13 20  1  0
 14 13  2  0
 16 15  1  1
 16 17  1  0
 18 16  1  0
 19 21  1  0
 19 20  1  0
 19 18  1  6
 21 23  1  0
 22 21  2  0
M  END
$$$$
