TPL.pdb
     RDKit          3D

 23 23  0  0  1  0  0  0  0  0999 V2000
   11.2241  -13.8022   20.1622 C   0  0  0  0  0  0  0  0  0  0  0  0
   10.2633  -13.1885   19.1719 C   0  0  1  0  0  0  0  0  0  0  0  0
   10.9744  -12.6266   18.1616 O   0  0  0  0  0  0  0  0  0  0  0  0
    9.1813  -14.1673   18.7671 C   0  0  2  0  0  0  0  0  0  0  0  0
    8.3503  -13.4272   17.7957 N   0  0  0  0  0  0  0  0  0  0  0  0
    8.3331  -14.6090   19.8718 C   0  0  0  0  0  0  0  0  0  0  0  0
    7.2595  -13.9375   20.0651 O   0  0  0  0  0  0  0  0  0  0  0  0
    8.6014  -15.6969   20.7218 N   0  0  0  0  0  0  0  0  0  0  0  0
    9.8370  -16.4961   20.6301 C   0  0  0  0  0  0  0  0  0  0  0  0
    9.2274  -17.9025   20.6427 C   0  0  0  0  0  0  0  0  0  0  0  0
    7.9823  -17.7803   21.4878 C   0  0  0  0  0  0  0  0  0  0  0  0
    7.8894  -16.3259   21.7934 C   0  0  1  0  0  0  0  0  0  0  0  0
    8.3668  -15.9364   23.1374 C   0  0  0  0  0  0  0  0  0  0  0  0
    9.6079  -15.7908   23.2851 O   0  0  0  0  0  0  0  0  0  0  0  0
    7.9533  -11.9025   26.6495 C   0  0  0  0  0  0  0  0  0  0  0  0
    6.9386  -12.9896   26.7701 C   0  0  1  0  0  0  0  0  0  0  0  0
    5.5975  -12.3145   27.0360 C   0  0  0  0  0  0  0  0  0  0  0  0
    6.8917  -13.9847   25.7014 C   0  0  0  0  0  0  0  0  0  0  0  0
    8.0304  -14.8956   25.4242 C   0  0  2  0  0  0  0  0  0  0  0  0
    7.5488  -15.7155   24.2672 N   0  0  0  0  0  0  0  0  0  0  0  0
    8.5296  -15.7691   26.4634 C   0  0  0  0  0  0  0  0  0  0  0  0
    9.4458  -15.3418   27.2785 O   0  0  0  0  0  0  0  0  0  0  0  0
    8.1450  -17.0695   26.7354 O   0  0  0  0  0  0  0  0  0  0  0  0
  2  1  1  1
  2  3  1  0
  4  2  1  0
  4  5  1  6
  6  8  1  0
  6  4  1  0
  7  6  2  0
  8 12  1  0
  9 10  1  0
  9  8  1  0
 10 11  1  0
 12 11  1  0
 12 13  1  1
 13 20  1  0
 14 13  2  0
 16 15  1  6
 16 17  1  0
 18 16  1  0
 19 21  1  0
 19 20  1  0
 19 18  1  1
 21 23  1  0
 22 21  2  0
M  END
$$$$
