TPL.pdb
     RDKit          3D

 23 23  0  0  1  0  0  0  0  0999 V2000
    6.9100  -18.3335   20.7694 C   0  0  0  0  0  0  0  0  0  0  0  0
    8.2005  -18.5292   20.0100 C   0  0  1  0  0  0  0  0  0  0  0  0
    8.0644  -19.5958   19.1818 O   0  0  0  0  0  0  0  0  0  0  0  0
    8.6708  -17.2395   19.3711 C   0  0  2  0  0  0  0  0  0  0  0  0
    9.7681  -17.6459   18.4696 N   0  0  0  0  0  0  0  0  0  0  0  0
    9.1830  -16.2552   20.3218 C   0  0  0  0  0  0  0  0  0  0  0  0
   10.4081  -16.3892   20.6711 O   0  0  0  0  0  0  0  0  0  0  0  0
    8.4458  -15.1905   20.8704 N   0  0  0  0  0  0  0  0  0  0  0  0
    7.0333  -14.9388   20.5307 C   0  0  0  0  0  0  0  0  0  0  0  0
    7.1110  -13.4374   20.2318 C   0  0  0  0  0  0  0  0  0  0  0  0
    8.1992  -12.9151   21.1386 C   0  0  0  0  0  0  0  0  0  0  0  0
    8.7490  -14.1358   21.7904 C   0  0  1  0  0  0  0  0  0  0  0  0
    8.2643  -14.3845   23.1649 C   0  0  0  0  0  0  0  0  0  0  0  0
    7.1330  -14.9221   23.2854 O   0  0  0  0  0  0  0  0  0  0  0  0
    5.4598  -12.2462   25.9077 C   0  0  0  0  0  0  0  0  0  0  0  0
    6.8895  -12.6656   25.8298 C   0  0  1  0  0  0  0  0  0  0  0  0
    7.6408  -11.8738   26.8945 C   0  0  0  0  0  0  0  0  0  0  0  0
    7.1703  -14.0991   25.8588 C   0  0  0  0  0  0  0  0  0  0  0  0
    8.5414  -14.6359   25.6721 C   0  0  2  0  0  0  0  0  0  0  0  0
    8.9622  -14.0690   24.3514 N   0  0  0  0  0  0  0  0  0  0  0  0
    8.7682  -16.0644   25.6812 C   0  0  0  0  0  0  0  0  0  0  0  0
    8.4488  -16.7603   26.7300 O   0  0  0  0  0  0  0  0  0  0  0  0
    9.3020  -16.8447   24.6717 O   0  0  0  0  0  0  0  0  0  0  0  0
  2  1  1  6
  2  3  1  0
  4  2  1  0
  4  5  1  6
  6  8  1  0
  6  4  1  0
  7  6  2  0
  8 12  1  0
  9 10  1  0
  9  8  1  0
 10 11  1  0
 12 11  1  0
 12 13  1  1
 13 20  1  0
 14 13  2  0
 16 15  1  1
 16 17  1  0
 18 16  1  0
 19 21  1  0
 19 20  1  0
 19 18  1  6
 21 23  1  0
 22 21  2  0
M  END
$$$$
