TPL.pdb
     RDKit          3D

 23 23  0  0  1  0  0  0  0  0999 V2000
    4.8700  -19.3581   21.8645 C   0  0  0  0  0  0  0  0  0  0  0  0
    6.0336  -18.4604   22.2118 C   0  0  1  0  0  0  0  0  0  0  0  0
    6.7831  -19.0644   23.1687 O   0  0  0  0  0  0  0  0  0  0  0  0
    6.7716  -18.0018   20.9717 C   0  0  2  0  0  0  0  0  0  0  0  0
    7.2085  -19.2493   20.3125 N   0  0  0  0  0  0  0  0  0  0  0  0
    7.9469  -17.1787   21.2474 C   0  0  0  0  0  0  0  0  0  0  0  0
    9.0843  -17.7524   21.1133 O   0  0  0  0  0  0  0  0  0  0  0  0
    7.9233  -15.8283   21.6399 N   0  0  0  0  0  0  0  0  0  0  0  0
    6.6706  -15.0780   21.8439 C   0  0  0  0  0  0  0  0  0  0  0  0
    6.9990  -13.8175   21.0359 C   0  0  0  0  0  0  0  0  0  0  0  0
    8.4926  -13.6448   21.1725 C   0  0  0  0  0  0  0  0  0  0  0  0
    8.9330  -14.8531   21.9231 C   0  0  1  0  0  0  0  0  0  0  0  0
    9.1709  -14.6416   23.3669 C   0  0  0  0  0  0  0  0  0  0  0  0
   10.2162  -14.0206   23.6908 O   0  0  0  0  0  0  0  0  0  0  0  0
    5.6512  -12.5967   26.4468 C   0  0  0  0  0  0  0  0  0  0  0  0
    7.0089  -12.9989   25.9770 C   0  0  1  0  0  0  0  0  0  0  0  0
    7.9343  -11.8148   26.2347 C   0  0  0  0  0  0  0  0  0  0  0  0
    7.5369  -14.2716   26.4631 C   0  0  0  0  0  0  0  0  0  0  0  0
    8.7218  -14.9185   25.8464 C   0  0  2  0  0  0  0  0  0  0  0  0
    8.3259  -15.0780   24.4109 N   0  0  0  0  0  0  0  0  0  0  0  0
    9.2074  -16.1809   26.3588 C   0  0  0  0  0  0  0  0  0  0  0  0
    9.7552  -16.2303   27.5352 O   0  0  0  0  0  0  0  0  0  0  0  0
    9.1646  -17.4188   25.7434 O   0  0  0  0  0  0  0  0  0  0  0  0
  2  1  1  6
  2  3  1  0
  4  2  1  0
  4  5  1  1
  6  8  1  0
  6  4  1  0
  7  6  2  0
  8 12  1  0
  9 10  1  0
  9  8  1  0
 10 11  1  0
 12 11  1  0
 12 13  1  1
 13 20  1  0
 14 13  2  0
 16 15  1  1
 16 17  1  0
 18 16  1  0
 19 21  1  0
 19 20  1  0
 19 18  1  1
 21 23  1  0
 22 21  2  0
M  END
$$$$
