TPL.pdb
     RDKit          3D

 23 23  0  0  1  0  0  0  0  0999 V2000
   10.7153  -13.4119   20.4247 C   0  0  0  0  0  0  0  0  0  0  0  0
    9.6400  -12.9097   19.4909 C   0  0  1  0  0  0  0  0  0  0  0  0
   10.2296  -12.3522   18.4028 O   0  0  0  0  0  0  0  0  0  0  0  0
    8.5987  -13.9745   19.2179 C   0  0  2  0  0  0  0  0  0  0  0  0
    7.6740  -13.3546   18.2471 N   0  0  0  0  0  0  0  0  0  0  0  0
    7.8389  -14.3818   20.3976 C   0  0  0  0  0  0  0  0  0  0  0  0
    6.8408  -13.6428   20.7113 O   0  0  0  0  0  0  0  0  0  0  0  0
    8.1153  -15.5045   21.1983 N   0  0  0  0  0  0  0  0  0  0  0  0
    9.2569  -16.4031   20.9468 C   0  0  0  0  0  0  0  0  0  0  0  0
    8.5348  -17.7531   21.0231 C   0  0  0  0  0  0  0  0  0  0  0  0
    7.4185  -17.5426   22.0175 C   0  0  0  0  0  0  0  0  0  0  0  0
    7.4893  -16.0917   22.3447 C   0  0  1  0  0  0  0  0  0  0  0  0
    8.1603  -15.7695   23.6221 C   0  0  0  0  0  0  0  0  0  0  0  0
    9.4118  -15.8947   23.6599 O   0  0  0  0  0  0  0  0  0  0  0  0
    7.1020  -12.3225   25.1282 C   0  0  0  0  0  0  0  0  0  0  0  0
    7.1269  -12.7522   26.5567 C   0  0  1  0  0  0  0  0  0  0  0  0
    5.8649  -12.1961   27.2073 C   0  0  0  0  0  0  0  0  0  0  0  0
    7.3484  -14.1709   26.8264 C   0  0  0  0  0  0  0  0  0  0  0  0
    8.2997  -14.9841   26.0284 C   0  0  2  0  0  0  0  0  0  0  0  0
    7.5160  -15.3351   24.8014 N   0  0  0  0  0  0  0  0  0  0  0  0
    8.8798  -16.1828   26.5928 C   0  0  0  0  0  0  0  0  0  0  0  0
    9.7787  -16.0856   27.5250 O   0  0  0  0  0  0  0  0  0  0  0  0
    8.5943  -17.4967   26.2689 O   0  0  0  0  0  0  0  0  0  0  0  0
  2  1  1  1
  2  3  1  0
  4  2  1  0
  4  5  1  6
  6  8  1  0
  6  4  1  0
  7  6  2  0
  8 12  1  0
  9 10  1  0
  9  8  1  0
 10 11  1  0
 12 11  1  0
 12 13  1  1
 13 20  1  0
 14 13  2  0
 16 15  1  6
 16 17  1  0
 18 16  1  0
 19 21  1  0
 19 20  1  0
 19 18  1  1
 21 23  1  0
 22 21  2  0
M  END
$$$$
