SDS.pdb
     RDKit          3D

 21 20  0  0  1  0  0  0  0  0999 V2000
   17.0003  -11.5945  -15.4801 O   0  0  0  0  0  0  0  0  0  0  0  0
   16.4130  -11.0196  -14.3612 C   0  0  0  0  0  0  0  0  0  0  0  0
   15.4186   -9.9567  -14.7829 C   0  0  2  0  0  0  0  0  0  0  0  0
   14.4661  -10.5423  -15.6654 N   0  0  0  0  0  0  0  0  0  0  0  0
   16.1361   -8.7975  -15.3192 C   0  0  0  0  0  0  0  0  0  0  0  0
   15.7284   -8.3263  -16.4276 O   0  0  0  0  0  0  0  0  0  0  0  0
   17.2490   -8.1596  -14.7017 N   0  0  0  0  0  0  0  0  0  0  0  0
   17.8780   -6.9672  -15.2024 C   0  0  1  0  0  0  0  0  0  0  0  0
   16.8697   -5.8632  -15.4724 C   0  0  0  0  0  0  0  0  0  0  0  0
   17.5213   -4.6374  -16.0077 C   0  0  0  0  0  0  0  0  0  0  0  0
   18.5535   -4.6334  -16.7212 O   0  0  0  0  0  0  0  0  0  0  0  0
   18.9621   -6.4621  -14.3438 C   0  0  0  0  0  0  0  0  0  0  0  0
   18.6233   -6.1617  -13.1555 O   0  0  0  0  0  0  0  0  0  0  0  0
   16.8952   -3.4182  -15.6598 O   0  0  0  0  0  0  0  0  0  0  0  0
   22.1310   -8.2129  -13.7566 O   0  0  0  0  0  0  0  0  0  0  0  0
   22.5016   -6.8988  -14.0400 C   0  0  0  0  0  0  0  0  0  0  0  0
   21.3156   -5.9489  -13.8041 C   0  0  2  0  0  0  0  0  0  0  0  0
   20.2934   -6.2986  -14.7459 N   0  0  0  0  0  0  0  0  0  0  0  0
   21.7305   -4.5445  -13.8919 C   0  0  0  0  0  0  0  0  0  0  0  0
   21.4095   -3.8685  -14.8881 O   0  0  0  0  0  0  0  0  0  0  0  0
   22.4713   -3.9767  -12.8832 O   0  0  0  0  0  0  0  0  0  0  0  0
  1  2  1  0
  2  3  1  0
  3  4  1  6
  5  3  1  0
  5  7  1  0
  6  5  2  0
  8  7  1  0
  8 12  1  0
  8  9  1  1
 10  9  1  0
 11 10  2  0
 12 18  1  0
 13 12  2  0
 14 10  1  0
 16 15  1  0
 17 16  1  6
 17 19  1  0
 18 17  1  0
 19 21  1  0
 20 19  2  0
M  END
$$$$
