SDS.pdb
     RDKit          3D

 21 20  0  0  1  0  0  0  0  0999 V2000
   19.2957  -10.7428  -14.1649 O   0  0  0  0  0  0  0  0  0  0  0  0
   18.3035   -9.8949  -13.6912 C   0  0  0  0  0  0  0  0  0  0  0  0
   17.3998  -10.6378  -12.7279 C   0  0  2  0  0  0  0  0  0  0  0  0
   16.8408  -11.7640  -13.3973 N   0  0  0  0  0  0  0  0  0  0  0  0
   16.4257   -9.7077  -12.1514 C   0  0  0  0  0  0  0  0  0  0  0  0
   15.4786   -9.3200  -12.9059 O   0  0  0  0  0  0  0  0  0  0  0  0
   16.4550   -9.2049  -10.8198 N   0  0  0  0  0  0  0  0  0  0  0  0
   15.5178   -8.2484  -10.2956 C   0  0  1  0  0  0  0  0  0  0  0  0
   14.7704   -8.7881   -9.0879 C   0  0  0  0  0  0  0  0  0  0  0  0
   13.5865   -7.9524   -8.7510 C   0  0  0  0  0  0  0  0  0  0  0  0
   13.2909   -6.8740   -9.3203 O   0  0  0  0  0  0  0  0  0  0  0  0
   16.1179   -6.9425   -9.9760 C   0  0  0  0  0  0  0  0  0  0  0  0
   17.0419   -6.9646   -9.1026 O   0  0  0  0  0  0  0  0  0  0  0  0
   12.7696   -8.4519   -7.7104 O   0  0  0  0  0  0  0  0  0  0  0  0
   17.3787   -2.5653  -11.2616 O   0  0  0  0  0  0  0  0  0  0  0  0
   16.7508   -3.7816  -11.5274 C   0  0  0  0  0  0  0  0  0  0  0  0
   16.4097   -4.5028  -10.2128 C   0  0  2  0  0  0  0  0  0  0  0  0
   15.7427   -5.7243  -10.5554 N   0  0  0  0  0  0  0  0  0  0  0  0
   15.6248   -3.6429   -9.3201 C   0  0  0  0  0  0  0  0  0  0  0  0
   14.3809   -3.7126   -9.3344 O   0  0  0  0  0  0  0  0  0  0  0  0
   16.2562   -2.7631   -8.4740 O   0  0  0  0  0  0  0  0  0  0  0  0
  1  2  1  0
  2  3  1  0
  3  4  1  6
  5  3  1  0
  5  7  1  0
  6  5  2  0
  8  7  1  0
  8 12  1  0
  8  9  1  1
 10  9  1  0
 11 10  2  0
 12 18  1  0
 13 12  2  0
 14 10  1  0
 16 15  1  0
 17 16  1  6
 17 19  1  0
 18 17  1  0
 19 21  1  0
 20 19  2  0
M  END
$$$$
