SDS.pdb
     RDKit          3D

 21 20  0  0  1  0  0  0  0  0999 V2000
   31.2882  -34.7279   -5.2714 O   0  0  0  0  0  0  0  0  0  0  0  0
   32.5568  -34.1884   -5.4364 C   0  0  0  0  0  0  0  0  0  0  0  0
   33.5858  -35.2968   -5.5320 C   0  0  2  0  0  0  0  0  0  0  0  0
   33.1755  -36.2198   -6.5363 N   0  0  0  0  0  0  0  0  0  0  0  0
   33.8085  -35.8764   -4.2051 C   0  0  0  0  0  0  0  0  0  0  0  0
   33.2437  -36.9882   -3.9568 O   0  0  0  0  0  0  0  0  0  0  0  0
   34.6029  -35.2966   -3.1757 N   0  0  0  0  0  0  0  0  0  0  0  0
   34.7420  -35.8471   -1.8545 C   0  0  1  0  0  0  0  0  0  0  0  0
   35.8505  -35.1667   -1.0691 C   0  0  0  0  0  0  0  0  0  0  0  0
   36.0683  -35.8125    0.2534 C   0  0  0  0  0  0  0  0  0  0  0  0
   35.6992  -35.3295    1.3512 O   0  0  0  0  0  0  0  0  0  0  0  0
   33.4936  -35.8416   -1.0741 C   0  0  0  0  0  0  0  0  0  0  0  0
   32.8183  -34.7656   -1.1307 O   0  0  0  0  0  0  0  0  0  0  0  0
   36.7424  -37.0550    0.2163 O   0  0  0  0  0  0  0  0  0  0  0  0
   30.0661  -38.3025    1.2605 O   0  0  0  0  0  0  0  0  0  0  0  0
   31.3529  -38.2847    0.7234 C   0  0  0  0  0  0  0  0  0  0  0  0
   31.7629  -36.8448    0.3723 C   0  0  2  0  0  0  0  0  0  0  0  0
   33.0261  -36.9119   -0.3017 N   0  0  0  0  0  0  0  0  0  0  0  0
   31.7853  -35.9902    1.5645 C   0  0  0  0  0  0  0  0  0  0  0  0
   32.8510  -35.8348    2.1911 O   0  0  0  0  0  0  0  0  0  0  0  0
   30.6378  -35.3656    1.9907 O   0  0  0  0  0  0  0  0  0  0  0  0
  1  2  1  0
  2  3  1  0
  3  4  1  6
  5  3  1  0
  5  7  1  0
  6  5  2  0
  8  7  1  0
  8 12  1  0
  8  9  1  1
 10  9  1  0
 11 10  2  0
 12 18  1  0
 13 12  2  0
 14 10  1  0
 16 15  1  0
 17 16  1  1
 17 19  1  0
 18 17  1  0
 19 21  1  0
 20 19  2  0
M  END
$$$$
