SDS.pdb
     RDKit          3D

 21 20  0  0  1  0  0  0  0  0999 V2000
   25.4337  -12.7590  -16.8336 O   0  0  0  0  0  0  0  0  0  0  0  0
   24.6966  -11.5832  -16.8774 C   0  0  0  0  0  0  0  0  0  0  0  0
   23.2928  -11.8667  -17.3729 C   0  0  2  0  0  0  0  0  0  0  0  0
   23.3582  -12.2584  -18.7407 N   0  0  0  0  0  0  0  0  0  0  0  0
   22.4313  -10.7150  -17.0940 C   0  0  0  0  0  0  0  0  0  0  0  0
   22.0533  -10.0203  -18.0896 O   0  0  0  0  0  0  0  0  0  0  0  0
   21.9859  -10.3129  -15.8030 N   0  0  0  0  0  0  0  0  0  0  0  0
   21.0915   -9.2128  -15.5623 C   0  0  1  0  0  0  0  0  0  0  0  0
   19.9184   -9.6156  -14.6848 C   0  0  0  0  0  0  0  0  0  0  0  0
   18.9618   -8.4928  -14.4902 C   0  0  0  0  0  0  0  0  0  0  0  0
   18.6240   -7.6817  -15.3862 O   0  0  0  0  0  0  0  0  0  0  0  0
   21.7525   -8.0207  -15.0058 C   0  0  0  0  0  0  0  0  0  0  0  0
   22.5920   -8.2445  -14.0772 O   0  0  0  0  0  0  0  0  0  0  0  0
   18.4240   -8.3748  -13.1877 O   0  0  0  0  0  0  0  0  0  0  0  0
   23.0741   -5.0519  -17.0393 O   0  0  0  0  0  0  0  0  0  0  0  0
   22.3823   -4.5336  -15.9451 C   0  0  0  0  0  0  0  0  0  0  0  0
   22.2366   -5.6050  -14.8517 C   0  0  2  0  0  0  0  0  0  0  0  0
   21.5176   -6.7051  -15.4237 N   0  0  0  0  0  0  0  0  0  0  0  0
   21.5999   -5.0573  -13.6488 C   0  0  0  0  0  0  0  0  0  0  0  0
   20.4886   -5.4906  -13.2885 O   0  0  0  0  0  0  0  0  0  0  0  0
   22.2229   -4.0701  -12.9237 O   0  0  0  0  0  0  0  0  0  0  0  0
  1  2  1  0
  2  3  1  0
  3  4  1  6
  5  3  1  0
  5  7  1  0
  6  5  2  0
  8  7  1  0
  8 12  1  0
  8  9  1  1
 10  9  1  0
 11 10  2  0
 12 18  1  0
 13 12  2  0
 14 10  1  0
 16 15  1  0
 17 16  1  6
 17 19  1  0
 18 17  1  0
 19 21  1  0
 20 19  2  0
M  END
$$$$
