SDS.pdb
     RDKit          3D

 21 20  0  0  1  0  0  0  0  0999 V2000
   17.3911   -8.9387  -16.0040 O   0  0  0  0  0  0  0  0  0  0  0  0
   18.5016   -8.6275  -16.7770 C   0  0  0  0  0  0  0  0  0  0  0  0
   19.7448   -8.5895  -15.9112 C   0  0  2  0  0  0  0  0  0  0  0  0
   19.8685   -9.8338  -15.2292 N   0  0  0  0  0  0  0  0  0  0  0  0
   19.7069   -7.4060  -15.0486 C   0  0  0  0  0  0  0  0  0  0  0  0
   19.1735   -7.5420  -13.9024 O   0  0  0  0  0  0  0  0  0  0  0  0
   20.2167   -6.1213  -15.3897 N   0  0  0  0  0  0  0  0  0  0  0  0
   20.1124   -4.9601  -14.5478 C   0  0  1  0  0  0  0  0  0  0  0  0
   21.4496   -4.2589  -14.3784 C   0  0  0  0  0  0  0  0  0  0  0  0
   22.4026   -5.0716  -13.5752 C   0  0  0  0  0  0  0  0  0  0  0  0
   22.3182   -5.2494  -12.3359 O   0  0  0  0  0  0  0  0  0  0  0  0
   19.0894   -3.9971  -14.9882 C   0  0  0  0  0  0  0  0  0  0  0  0
   19.2045   -3.5870  -16.1863 O   0  0  0  0  0  0  0  0  0  0  0  0
   23.4586   -5.6634  -14.3061 O   0  0  0  0  0  0  0  0  0  0  0  0
   14.9045   -1.6983  -14.1716 O   0  0  0  0  0  0  0  0  0  0  0  0
   15.8888   -2.5786  -13.7236 C   0  0  0  0  0  0  0  0  0  0  0  0
   17.0617   -2.6156  -14.7174 C   0  0  2  0  0  0  0  0  0  0  0  0
   18.0384   -3.5241  -14.1930 N   0  0  0  0  0  0  0  0  0  0  0  0
   17.5934   -1.2711  -14.9663 C   0  0  0  0  0  0  0  0  0  0  0  0
   17.2456   -0.6508  -15.9895 O   0  0  0  0  0  0  0  0  0  0  0  0
   18.4721   -0.6984  -14.0785 O   0  0  0  0  0  0  0  0  0  0  0  0
  1  2  1  0
  2  3  1  0
  3  4  1  1
  5  3  1  0
  5  7  1  0
  6  5  2  0
  8  7  1  0
  8 12  1  0
  8  9  1  6
 10  9  1  0
 11 10  2  0
 12 18  1  0
 13 12  2  0
 14 10  1  0
 16 15  1  0
 17 16  1  1
 17 19  1  0
 18 17  1  0
 19 21  1  0
 20 19  2  0
M  END
$$$$
