SDS.pdb
     RDKit          3D

 21 20  0  0  1  0  0  0  0  0999 V2000
   17.9497  -12.5333  -14.9678 O   0  0  0  0  0  0  0  0  0  0  0  0
   18.0877  -11.1576  -14.8412 C   0  0  0  0  0  0  0  0  0  0  0  0
   16.7940  -10.5484  -14.3396 C   0  0  2  0  0  0  0  0  0  0  0  0
   15.8223  -10.6119  -15.3790 N   0  0  0  0  0  0  0  0  0  0  0  0
   17.0550   -9.2074  -13.8104 C   0  0  0  0  0  0  0  0  0  0  0  0
   16.9886   -8.2383  -14.6309 O   0  0  0  0  0  0  0  0  0  0  0  0
   17.3764   -8.9040  -12.4571 N   0  0  0  0  0  0  0  0  0  0  0  0
   17.7550   -7.5980  -11.9890 C   0  0  1  0  0  0  0  0  0  0  0  0
   17.3937   -7.3912  -10.5278 C   0  0  0  0  0  0  0  0  0  0  0  0
   17.7756   -6.0349  -10.0499 C   0  0  0  0  0  0  0  0  0  0  0  0
   18.2545   -5.1321  -10.7780 O   0  0  0  0  0  0  0  0  0  0  0  0
   19.1750   -7.2769  -12.2085 C   0  0  0  0  0  0  0  0  0  0  0  0
   20.0049   -8.0302  -11.6079 O   0  0  0  0  0  0  0  0  0  0  0  0
   17.5644   -5.7971   -8.6721 O   0  0  0  0  0  0  0  0  0  0  0  0
   20.6586   -6.0246  -15.6163 O   0  0  0  0  0  0  0  0  0  0  0  0
   21.3729   -6.6702  -14.6076 C   0  0  0  0  0  0  0  0  0  0  0  0
   21.0478   -6.0442  -13.2412 C   0  0  2  0  0  0  0  0  0  0  0  0
   19.6456   -6.2287  -13.0088 N   0  0  0  0  0  0  0  0  0  0  0  0
   21.4662   -4.6392  -13.1844 C   0  0  0  0  0  0  0  0  0  0  0  0
   20.6049   -3.7431  -13.0962 O   0  0  0  0  0  0  0  0  0  0  0  0
   22.7999   -4.3112  -13.2306 O   0  0  0  0  0  0  0  0  0  0  0  0
  1  2  1  0
  2  3  1  0
  3  4  1  6
  5  3  1  0
  5  7  1  0
  6  5  2  0
  8  7  1  0
  8 12  1  0
  8  9  1  1
 10  9  1  0
 11 10  2  0
 12 18  1  0
 13 12  2  0
 14 10  1  0
 16 15  1  0
 17 16  1  6
 17 19  1  0
 18 17  1  0
 19 21  1  0
 20 19  2  0
M  END
$$$$
