SDS.pdb
     RDKit          3D

 21 20  0  0  1  0  0  0  0  0999 V2000
   17.7336  -13.0030  -16.0037 O   0  0  0  0  0  0  0  0  0  0  0  0
   18.4234  -12.1351  -15.1680 C   0  0  0  0  0  0  0  0  0  0  0  0
   17.7366  -10.7846  -15.1384 C   0  0  2  0  0  0  0  0  0  0  0  0
   17.8808  -10.1672  -16.4139 N   0  0  0  0  0  0  0  0  0  0  0  0
   18.2390  -10.0024  -14.0062 C   0  0  0  0  0  0  0  0  0  0  0  0
   18.1195  -10.5161  -12.8492 O   0  0  0  0  0  0  0  0  0  0  0  0
   18.8471   -8.7183  -14.0971 N   0  0  0  0  0  0  0  0  0  0  0  0
   19.3024   -7.9570  -12.9653 C   0  0  1  0  0  0  0  0  0  0  0  0
   20.4028   -6.9799  -13.3431 C   0  0  0  0  0  0  0  0  0  0  0  0
   20.9602   -6.2862  -12.1507 C   0  0  0  0  0  0  0  0  0  0  0  0
   21.4381   -5.1260  -12.1605 O   0  0  0  0  0  0  0  0  0  0  0  0
   18.2249   -7.2526  -12.2509 C   0  0  0  0  0  0  0  0  0  0  0  0
   17.4387   -6.5711  -12.9821 O   0  0  0  0  0  0  0  0  0  0  0  0
   20.9255   -7.0285  -10.9476 O   0  0  0  0  0  0  0  0  0  0  0  0
   16.3687   -8.7110   -9.1216 O   0  0  0  0  0  0  0  0  0  0  0  0
   16.6324   -7.3568   -8.9184 C   0  0  0  0  0  0  0  0  0  0  0  0
   16.8873   -6.6567  -10.2636 C   0  0  2  0  0  0  0  0  0  0  0  0
   18.0248   -7.2876  -10.8655 N   0  0  0  0  0  0  0  0  0  0  0  0
   17.0501   -5.2092  -10.0898 C   0  0  0  0  0  0  0  0  0  0  0  0
   18.1048   -4.6590  -10.4607 O   0  0  0  0  0  0  0  0  0  0  0  0
   16.0472   -4.4628   -9.5191 O   0  0  0  0  0  0  0  0  0  0  0  0
  1  2  1  0
  2  3  1  0
  3  4  1  6
  5  3  1  0
  5  7  1  0
  6  5  2  0
  8  7  1  0
  8 12  1  0
  8  9  1  6
 10  9  1  0
 11 10  2  0
 12 18  1  0
 13 12  2  0
 14 10  1  0
 16 15  1  0
 17 16  1  1
 17 19  1  0
 18 17  1  0
 19 21  1  0
 20 19  2  0
M  END
$$$$
