SDS.pdb
     RDKit          3D

 21 20  0  0  1  0  0  0  0  0999 V2000
   14.9292  -11.0849  -15.3224 O   0  0  0  0  0  0  0  0  0  0  0  0
   16.2308  -10.7428  -14.9816 C   0  0  0  0  0  0  0  0  0  0  0  0
   17.2138  -11.5196  -15.8341 C   0  0  2  0  0  0  0  0  0  0  0  0
   17.1102  -12.9029  -15.5106 N   0  0  0  0  0  0  0  0  0  0  0  0
   18.5528  -10.9433  -15.6890 C   0  0  0  0  0  0  0  0  0  0  0  0
   19.2288  -11.2983  -14.6722 O   0  0  0  0  0  0  0  0  0  0  0  0
   19.1549  -10.0209  -16.5910 N   0  0  0  0  0  0  0  0  0  0  0  0
   20.4615   -9.4481  -16.4097 C   0  0  1  0  0  0  0  0  0  0  0  0
   21.2795   -9.4822  -17.6896 C   0  0  0  0  0  0  0  0  0  0  0  0
   21.6554  -10.8708  -18.0692 C   0  0  0  0  0  0  0  0  0  0  0  0
   22.3939  -11.6207  -17.3860 O   0  0  0  0  0  0  0  0  0  0  0  0
   20.4403   -8.0824  -15.8602 C   0  0  0  0  0  0  0  0  0  0  0  0
   19.5135   -7.3306  -16.2996 O   0  0  0  0  0  0  0  0  0  0  0  0
   21.1169  -11.3302  -19.2935 O   0  0  0  0  0  0  0  0  0  0  0  0
   22.1369   -4.8383  -12.6853 O   0  0  0  0  0  0  0  0  0  0  0  0
   22.2663   -6.0896  -13.2869 C   0  0  0  0  0  0  0  0  0  0  0  0
   21.2418   -6.2420  -14.4234 C   0  0  2  0  0  0  0  0  0  0  0  0
   21.3483   -7.5828  -14.9186 N   0  0  0  0  0  0  0  0  0  0  0  0
   21.4384   -5.2226  -15.4599 C   0  0  0  0  0  0  0  0  0  0  0  0
   22.2701   -5.4186  -16.3668 O   0  0  0  0  0  0  0  0  0  0  0  0
   20.7121   -4.0563  -15.4311 O   0  0  0  0  0  0  0  0  0  0  0  0
  1  2  1  0
  2  3  1  0
  3  4  1  1
  5  3  1  0
  5  7  1  0
  6  5  2  0
  8  7  1  0
  8 12  1  0
  8  9  1  6
 10  9  1  0
 11 10  2  0
 12 18  1  0
 13 12  2  0
 14 10  1  0
 16 15  1  0
 17 16  1  1
 17 19  1  0
 18 17  1  0
 19 21  1  0
 20 19  2  0
M  END
$$$$
