SDS.pdb
     RDKit          3D

 21 20  0  0  1  0  0  0  0  0999 V2000
   10.5666  -11.5207  -12.9637 O   0  0  0  0  0  0  0  0  0  0  0  0
   11.5115  -10.8832  -12.1710 C   0  0  0  0  0  0  0  0  0  0  0  0
   12.5405  -11.8824  -11.6818 C   0  0  2  0  0  0  0  0  0  0  0  0
   11.9415  -12.7117  -10.6908 N   0  0  0  0  0  0  0  0  0  0  0  0
   13.7495  -11.1736  -11.2549 C   0  0  0  0  0  0  0  0  0  0  0  0
   14.1523  -11.3798  -10.0667 O   0  0  0  0  0  0  0  0  0  0  0  0
   14.5058  -10.2758  -12.0604 N   0  0  0  0  0  0  0  0  0  0  0  0
   15.6642   -9.5576  -11.6016 C   0  0  1  0  0  0  0  0  0  0  0  0
   16.6684   -9.3262  -12.7181 C   0  0  0  0  0  0  0  0  0  0  0  0
   17.8621   -8.5765  -12.2419 C   0  0  0  0  0  0  0  0  0  0  0  0
   18.4304   -8.7682  -11.1397 O   0  0  0  0  0  0  0  0  0  0  0  0
   15.3476   -8.2836  -10.9350 C   0  0  0  0  0  0  0  0  0  0  0  0
   14.6920   -7.4485  -11.6350 O   0  0  0  0  0  0  0  0  0  0  0  0
   18.3515   -7.5909  -13.1300 O   0  0  0  0  0  0  0  0  0  0  0  0
   14.7013   -5.7715   -6.9111 O   0  0  0  0  0  0  0  0  0  0  0  0
   15.1773   -6.9281   -7.5277 C   0  0  0  0  0  0  0  0  0  0  0  0
   15.3283   -6.7006   -9.0410 C   0  0  2  0  0  0  0  0  0  0  0  0
   15.7145   -7.9511   -9.6252 N   0  0  0  0  0  0  0  0  0  0  0  0
   16.2687   -5.6112   -9.3260 C   0  0  0  0  0  0  0  0  0  0  0  0
   15.9662   -4.4412   -9.0227 O   0  0  0  0  0  0  0  0  0  0  0  0
   17.4759   -5.8775   -9.9263 O   0  0  0  0  0  0  0  0  0  0  0  0
  1  2  1  0
  2  3  1  0
  3  4  1  1
  5  3  1  0
  5  7  1  0
  6  5  2  0
  8  7  1  0
  8 12  1  0
  8  9  1  6
 10  9  1  0
 11 10  2  0
 12 18  1  0
 13 12  2  0
 14 10  1  0
 16 15  1  0
 17 16  1  1
 17 19  1  0
 18 17  1  0
 19 21  1  0
 20 19  2  0
M  END
$$$$
