VFV.pdb
     RDKit          3D

 26 26  0  0  1  0  0  0  0  0999 V2000
   10.0165  -20.0529   20.2903 C   0  0  0  0  0  0  0  0  0  0  0  0
   10.1961  -18.9835   21.3403 C   0  0  1  0  0  0  0  0  0  0  0  0
   11.5232  -19.0374   22.0325 C   0  0  0  0  0  0  0  0  0  0  0  0
    9.7915  -17.6168   20.8633 C   0  0  2  0  0  0  0  0  0  0  0  0
   10.7798  -17.2033   19.8910 N   0  0  0  0  0  0  0  0  0  0  0  0
    9.6278  -16.5981   21.8777 C   0  0  0  0  0  0  0  0  0  0  0  0
   10.6345  -15.8628   22.1589 O   0  0  0  0  0  0  0  0  0  0  0  0
    8.4529  -16.3072   22.6195 N   0  0  0  0  0  0  0  0  0  0  0  0
    8.4519  -15.3334   23.6848 C   0  0  1  0  0  0  0  0  0  0  0  0
    7.0468  -14.7438   23.7241 C   0  0  0  0  0  0  0  0  0  0  0  0
    6.8576  -13.7945   24.8472 C   0  0  0  0  0  0  0  0  0  0  0  0
    7.3917  -12.5262   24.7699 C   0  0  0  0  0  0  0  0  0  0  0  0
    7.2105  -11.6454   25.8143 C   0  0  0  0  0  0  0  0  0  0  0  0
    6.5095  -12.0150   26.9219 C   0  0  0  0  0  0  0  0  0  0  0  0
    5.9599  -13.2894   27.0254 C   0  0  0  0  0  0  0  0  0  0  0  0
    6.1515  -14.1587   25.9691 C   0  0  0  0  0  0  0  0  0  0  0  0
    8.8632  -15.9228   24.9746 C   0  0  0  0  0  0  0  0  0  0  0  0
    8.5005  -17.0672   25.3552 O   0  0  0  0  0  0  0  0  0  0  0  0
   10.3128  -13.7111   28.3472 C   0  0  0  0  0  0  0  0  0  0  0  0
   11.1674  -14.8323   27.8080 C   0  0  1  0  0  0  0  0  0  0  0  0
   11.9820  -15.4816   28.8768 C   0  0  0  0  0  0  0  0  0  0  0  0
   10.3531  -15.8179   26.9865 C   0  0  2  0  0  0  0  0  0  0  0  0
    9.7113  -15.1991   25.8656 N   0  0  0  0  0  0  0  0  0  0  0  0
    9.4063  -16.5205   27.8793 C   0  0  0  0  0  0  0  0  0  0  0  0
    8.2161  -16.1447   27.9227 O   0  0  0  0  0  0  0  0  0  0  0  0
    9.7956  -17.5809   28.6684 O   0  0  0  0  0  0  0  0  0  0  0  0
  2  4  1  0
  2  1  1  6
  3  2  1  0
  4  6  1  0
  4  5  1  6
  6  7  2  0
  8  9  1  0
  8  6  1  0
  9 17  1  0
 10 11  1  0
  9 10  1  1
 11 12  2  0
 12 13  1  0
 14 13  2  0
 15 14  1  0
 16 15  2  0
 16 11  1  0
 17 18  2  0
 20 19  1  1
 20 22  1  0
 21 20  1  0
 22 24  1  0
 23 17  1  0
 22 23  1  6
 24 25  2  0
 24 26  1  0
M  END
$$$$
