VFV.pdb
     RDKit          3D

 26 26  0  0  1  0  0  0  0  0999 V2000
    7.6149  -16.5823   20.0453 C   0  0  0  0  0  0  0  0  0  0  0  0
    7.8165  -15.1599   19.5818 C   0  0  1  0  0  0  0  0  0  0  0  0
    7.2537  -14.8855   18.2211 C   0  0  0  0  0  0  0  0  0  0  0  0
    7.4546  -14.1433   20.6280 C   0  0  2  0  0  0  0  0  0  0  0  0
    7.8479  -12.8511   20.1096 N   0  0  0  0  0  0  0  0  0  0  0  0
    8.0109  -14.3454   21.9483 C   0  0  0  0  0  0  0  0  0  0  0  0
    9.2465  -14.0733   22.1279 O   0  0  0  0  0  0  0  0  0  0  0  0
    7.3331  -14.8222   23.1009 N   0  0  0  0  0  0  0  0  0  0  0  0
    8.0305  -15.0747   24.3391 C   0  0  1  0  0  0  0  0  0  0  0  0
    7.0143  -14.8580   25.4544 C   0  0  0  0  0  0  0  0  0  0  0  0
    6.9003  -13.4347   25.8537 C   0  0  0  0  0  0  0  0  0  0  0  0
    8.0375  -12.6677   25.9895 C   0  0  0  0  0  0  0  0  0  0  0  0
    7.9272  -11.3441   26.3572 C   0  0  0  0  0  0  0  0  0  0  0  0
    6.7065  -10.7860   26.5879 C   0  0  0  0  0  0  0  0  0  0  0  0
    5.5427  -11.5380   26.4580 C   0  0  0  0  0  0  0  0  0  0  0  0
    5.6725  -12.8627   26.0886 C   0  0  0  0  0  0  0  0  0  0  0  0
    8.6369  -16.4207   24.3687 C   0  0  0  0  0  0  0  0  0  0  0  0
    7.9831  -17.4750   24.1523 O   0  0  0  0  0  0  0  0  0  0  0  0
   11.7384  -17.5871   22.4063 C   0  0  0  0  0  0  0  0  0  0  0  0
   11.9644  -17.8735   23.8709 C   0  0  1  0  0  0  0  0  0  0  0  0
   13.0153  -16.9925   24.4599 C   0  0  0  0  0  0  0  0  0  0  0  0
   10.6625  -17.8676   24.6547 C   0  0  2  0  0  0  0  0  0  0  0  0
   10.0261  -16.5846   24.6517 N   0  0  0  0  0  0  0  0  0  0  0  0
   10.9198  -18.3820   26.0172 C   0  0  0  0  0  0  0  0  0  0  0  0
   11.3677  -19.5394   26.1574 O   0  0  0  0  0  0  0  0  0  0  0  0
   10.6806  -17.6232   27.1423 O   0  0  0  0  0  0  0  0  0  0  0  0
  2  4  1  0
  2  1  1  1
  3  2  1  0
  4  6  1  0
  4  5  1  6
  6  7  2  0
  8  9  1  0
  8  6  1  0
  9 17  1  0
 10 11  1  0
  9 10  1  1
 11 12  2  0
 12 13  1  0
 14 13  2  0
 15 14  1  0
 16 15  2  0
 16 11  1  0
 17 18  2  0
 20 19  1  6
 20 22  1  0
 21 20  1  0
 22 24  1  0
 23 17  1  0
 22 23  1  1
 24 25  2  0
 24 26  1  0
M  END
$$$$
