VFV.pdb
     RDKit          3D

 26 26  0  0  1  0  0  0  0  0999 V2000
    7.3303  -21.2117   24.0477 C   0  0  0  0  0  0  0  0  0  0  0  0
    6.7688  -21.0059   22.6618 C   0  0  1  0  0  0  0  0  0  0  0  0
    6.0934  -22.2193   22.1005 C   0  0  0  0  0  0  0  0  0  0  0  0
    5.9831  -19.7315   22.5285 C   0  0  2  0  0  0  0  0  0  0  0  0
    5.6073  -19.6151   21.1363 N   0  0  0  0  0  0  0  0  0  0  0  0
    6.6333  -18.5191   22.9766 C   0  0  0  0  0  0  0  0  0  0  0  0
    7.6212  -18.0800   22.2952 O   0  0  0  0  0  0  0  0  0  0  0  0
    6.2987  -17.7356   24.1121 N   0  0  0  0  0  0  0  0  0  0  0  0
    7.0599  -16.5642   24.4747 C   0  0  1  0  0  0  0  0  0  0  0  0
    6.0948  -15.6346   25.2012 C   0  0  0  0  0  0  0  0  0  0  0  0
    6.7319  -14.3617   25.6159 C   0  0  0  0  0  0  0  0  0  0  0  0
    7.0679  -14.1622   26.9377 C   0  0  0  0  0  0  0  0  0  0  0  0
    7.6634  -12.9791   27.3187 C   0  0  0  0  0  0  0  0  0  0  0  0
    7.9232  -12.0050   26.4030 C   0  0  0  0  0  0  0  0  0  0  0  0
    7.5940  -12.1809   25.0623 C   0  0  0  0  0  0  0  0  0  0  0  0
    6.9980  -13.3728   24.6987 C   0  0  0  0  0  0  0  0  0  0  0  0
    8.2479  -16.9038   25.2832 C   0  0  0  0  0  0  0  0  0  0  0  0
    8.1916  -17.6035   26.3289 O   0  0  0  0  0  0  0  0  0  0  0  0
   11.7974  -17.6223   23.3680 C   0  0  0  0  0  0  0  0  0  0  0  0
   11.9554  -16.7961   24.6213 C   0  0  1  0  0  0  0  0  0  0  0  0
   12.3416  -15.3863   24.3198 C   0  0  0  0  0  0  0  0  0  0  0  0
   10.7415  -16.9089   25.5286 C   0  0  2  0  0  0  0  0  0  0  0  0
    9.5424  -16.4399   24.9014 N   0  0  0  0  0  0  0  0  0  0  0  0
   11.0316  -16.2234   26.8065 C   0  0  0  0  0  0  0  0  0  0  0  0
   10.3769  -15.2054   27.1145 O   0  0  0  0  0  0  0  0  0  0  0  0
   12.0046  -16.6727   27.6726 O   0  0  0  0  0  0  0  0  0  0  0  0
  2  4  1  0
  2  1  1  1
  3  2  1  0
  4  6  1  0
  4  5  1  6
  6  7  2  0
  8  9  1  0
  8  6  1  0
  9 17  1  0
 10 11  1  0
  9 10  1  1
 11 12  2  0
 12 13  1  0
 14 13  2  0
 15 14  1  0
 16 15  2  0
 16 11  1  0
 17 18  2  0
 20 19  1  6
 20 22  1  0
 21 20  1  0
 22 24  1  0
 23 17  1  0
 22 23  1  6
 24 25  2  0
 24 26  1  0
M  END
$$$$
