VFV.pdb
     RDKit          3D

 26 26  0  0  1  0  0  0  0  0999 V2000
    9.4928  -19.2305   21.7917 C   0  0  0  0  0  0  0  0  0  0  0  0
   10.0726  -18.4299   20.6509 C   0  0  1  0  0  0  0  0  0  0  0  0
   10.1420  -19.1861   19.3599 C   0  0  0  0  0  0  0  0  0  0  0  0
    9.4837  -17.0514   20.5406 C   0  0  2  0  0  0  0  0  0  0  0  0
   10.2076  -16.3699   19.4897 N   0  0  0  0  0  0  0  0  0  0  0  0
    9.4762  -16.2512   21.7460 C   0  0  0  0  0  0  0  0  0  0  0  0
   10.5914  -15.7943   22.1709 O   0  0  0  0  0  0  0  0  0  0  0  0
    8.3500  -15.9016   22.5365 N   0  0  0  0  0  0  0  0  0  0  0  0
    8.4730  -15.0476   23.6936 C   0  0  1  0  0  0  0  0  0  0  0  0
    7.1689  -14.2642   23.7877 C   0  0  0  0  0  0  0  0  0  0  0  0
    7.1125  -13.3918   24.9852 C   0  0  0  0  0  0  0  0  0  0  0  0
    6.4576  -13.8247   26.1182 C   0  0  0  0  0  0  0  0  0  0  0  0
    6.4106  -13.0125   27.2307 C   0  0  0  0  0  0  0  0  0  0  0  0
    7.0042  -11.7867   27.2223 C   0  0  0  0  0  0  0  0  0  0  0  0
    7.6717  -11.3256   26.0915 C   0  0  0  0  0  0  0  0  0  0  0  0
    7.7088  -12.1531   24.9860 C   0  0  0  0  0  0  0  0  0  0  0  0
    8.7711  -15.8151   24.9193 C   0  0  0  0  0  0  0  0  0  0  0  0
    8.0320  -16.7398   25.3492 O   0  0  0  0  0  0  0  0  0  0  0  0
   11.9510  -17.7413   25.4005 C   0  0  0  0  0  0  0  0  0  0  0  0
   11.7972  -16.8481   26.6075 C   0  0  1  0  0  0  0  0  0  0  0  0
   12.8027  -15.7453   26.6220 C   0  0  0  0  0  0  0  0  0  0  0  0
   10.3664  -16.3631   26.7722 C   0  0  2  0  0  0  0  0  0  0  0  0
    9.9406  -15.5317   25.6866 N   0  0  0  0  0  0  0  0  0  0  0  0
   10.2304  -15.7069   28.0906 C   0  0  0  0  0  0  0  0  0  0  0  0
    9.9635  -14.4878   28.1401 O   0  0  0  0  0  0  0  0  0  0  0  0
   10.3891  -16.3991   29.2714 O   0  0  0  0  0  0  0  0  0  0  0  0
  2  4  1  0
  2  1  1  1
  3  2  1  0
  4  6  1  0
  4  5  1  6
  6  7  2  0
  8  9  1  0
  8  6  1  0
  9 17  1  0
 10 11  1  0
  9 10  1  1
 11 12  2  0
 12 13  1  0
 14 13  2  0
 15 14  1  0
 16 15  2  0
 16 11  1  0
 17 18  2  0
 20 19  1  6
 20 22  1  0
 21 20  1  0
 22 24  1  0
 23 17  1  0
 22 23  1  6
 24 25  2  0
 24 26  1  0
M  END
$$$$
