VFV.pdb
     RDKit          3D

 26 26  0  0  1  0  0  0  0  0999 V2000
    9.7903  -19.7202   20.1874 C   0  0  0  0  0  0  0  0  0  0  0  0
    9.9067  -18.7412   21.3304 C   0  0  1  0  0  0  0  0  0  0  0  0
   11.1138  -18.9608   22.1895 C   0  0  0  0  0  0  0  0  0  0  0  0
    9.6869  -17.3154   20.9086 C   0  0  2  0  0  0  0  0  0  0  0  0
   10.7685  -16.9730   20.0109 N   0  0  0  0  0  0  0  0  0  0  0  0
    9.5831  -16.3347   21.9674 C   0  0  0  0  0  0  0  0  0  0  0  0
   10.6577  -15.7793   22.3794 O   0  0  0  0  0  0  0  0  0  0  0  0
    8.4006  -15.9016   22.6226 N   0  0  0  0  0  0  0  0  0  0  0  0
    8.4490  -15.0551   23.7906 C   0  0  1  0  0  0  0  0  0  0  0  0
    7.1024  -14.3443   23.8599 C   0  0  0  0  0  0  0  0  0  0  0  0
    6.9930  -13.4423   25.0315 C   0  0  0  0  0  0  0  0  0  0  0  0
    6.2605  -13.8336   26.1316 C   0  0  0  0  0  0  0  0  0  0  0  0
    6.1642  -12.9940   27.2204 C   0  0  0  0  0  0  0  0  0  0  0  0
    6.7850  -11.7818   27.2206 C   0  0  0  0  0  0  0  0  0  0  0  0
    7.5306  -11.3625   26.1228 C   0  0  0  0  0  0  0  0  0  0  0  0
    7.6162  -12.2169   25.0409 C   0  0  0  0  0  0  0  0  0  0  0  0
    8.7585  -15.8188   25.0159 C   0  0  0  0  0  0  0  0  0  0  0  0
    8.0905  -16.8183   25.3911 O   0  0  0  0  0  0  0  0  0  0  0  0
   12.2767  -17.1637   25.6625 C   0  0  0  0  0  0  0  0  0  0  0  0
   11.8173  -16.4627   26.9178 C   0  0  1  0  0  0  0  0  0  0  0  0
   12.5868  -15.2101   27.1755 C   0  0  0  0  0  0  0  0  0  0  0  0
   10.3113  -16.2600   26.9323 C   0  0  2  0  0  0  0  0  0  0  0  0
    9.8571  -15.4442   25.8463 N   0  0  0  0  0  0  0  0  0  0  0  0
    9.9097  -15.7364   28.2558 C   0  0  0  0  0  0  0  0  0  0  0  0
   10.0861  -16.4433   29.2702 O   0  0  0  0  0  0  0  0  0  0  0  0
    9.3447  -14.4888   28.4076 O   0  0  0  0  0  0  0  0  0  0  0  0
  2  4  1  0
  2  1  1  6
  3  2  1  0
  4  6  1  0
  4  5  1  6
  6  7  2  0
  8  9  1  0
  8  6  1  0
  9 17  1  0
 10 11  1  0
  9 10  1  1
 11 12  2  0
 12 13  1  0
 14 13  2  0
 15 14  1  0
 16 15  2  0
 16 11  1  0
 17 18  2  0
 20 19  1  6
 20 22  1  0
 21 20  1  0
 22 24  1  0
 23 17  1  0
 22 23  1  6
 24 25  2  0
 24 26  1  0
M  END
$$$$
