KYE.pdb
     RDKit          3D

 31 31  0  0  1  0  0  0  0  0999 V2000
   28.6056  -21.1808  -17.4036 N   0  0  0  0  0  0  0  0  0  0  0  0
   27.9086  -22.4269  -17.1687 C   0  0  1  0  0  0  0  0  0  0  0  0
   28.9499  -23.5392  -17.1410 C   0  0  0  0  0  0  0  0  0  0  0  0
   29.3360  -23.8782  -18.5631 C   0  0  0  0  0  0  0  0  0  0  0  0
   30.3848  -24.9393  -18.6380 C   0  0  0  0  0  0  0  0  0  0  0  0
   30.8999  -25.1781  -20.0227 C   0  0  0  0  0  0  0  0  0  0  0  0
   32.3611  -25.0625  -19.9602 N   0  0  0  0  0  0  0  0  0  0  0  0
   27.2041  -22.3226  -15.8680 C   0  0  0  0  0  0  0  0  0  0  0  0
   26.4969  -23.2838  -15.4699 O   0  0  0  0  0  0  0  0  0  0  0  0
   25.0829  -20.2806   -7.5646 O   0  0  0  0  0  0  0  0  0  0  0  0
   25.6489  -20.2700   -8.8463 C   0  0  0  0  0  0  0  0  0  0  0  0
   26.7463  -21.0447   -9.1512 C   0  0  0  0  0  0  0  0  0  0  0  0
   27.3082  -21.0349  -10.4217 C   0  0  0  0  0  0  0  0  0  0  0  0
   26.8004  -20.2548  -11.4368 C   0  0  0  0  0  0  0  0  0  0  0  0
   27.3676  -20.2131  -12.8102 C   0  0  0  0  0  0  0  0  0  0  0  0
   26.6316  -21.1390  -13.7638 C   0  0  2  0  0  0  0  0  0  0  0  0
   27.3095  -21.1561  -15.0561 N   0  0  0  0  0  0  0  0  0  0  0  0
   25.2131  -20.7471  -13.9310 C   0  0  0  0  0  0  0  0  0  0  0  0
   24.8774  -19.7166  -14.5319 O   0  0  0  0  0  0  0  0  0  0  0  0
   25.6907  -19.4767  -11.1140 C   0  0  0  0  0  0  0  0  0  0  0  0
   25.1327  -19.4854   -9.8549 C   0  0  0  0  0  0  0  0  0  0  0  0
   24.2131  -21.5923  -13.3813 N   0  0  0  0  0  0  0  0  0  0  0  0
   22.8167  -21.2748  -13.5634 C   0  0  1  0  0  0  0  0  0  0  0  0
   22.0096  -22.5649  -13.6754 C   0  0  0  0  0  0  0  0  0  0  0  0
   20.6007  -22.1825  -13.9940 C   0  0  0  0  0  0  0  0  0  0  0  0
   19.7501  -23.3465  -14.3239 C   0  0  0  0  0  0  0  0  0  0  0  0
   18.5150  -23.2575  -14.3950 O   0  0  0  0  0  0  0  0  0  0  0  0
   22.2162  -20.5127  -12.4567 C   0  0  0  0  0  0  0  0  0  0  0  0
   21.2289  -19.5912  -12.7415 O   0  0  0  0  0  0  0  0  0  0  0  0
   20.3576  -24.5663  -14.5584 O   0  0  0  0  0  0  0  0  0  0  0  0
   22.6101  -20.7138  -11.2865 O   0  0  0  0  0  0  0  0  0  0  0  0
  2  3  1  0
  2  1  1  1
  3  4  1  0
  4  5  1  0
  5  6  1  0
  6  7  1  0
  8  2  1  0
  8  9  2  0
 10 11  1  0
 11 21  2  0
 12 13  2  0
 12 11  1  0
 13 14  1  0
 14 15  1  0
 14 20  2  0
 16 15  1  1
 16 18  1  0
 16 17  1  0
 17  8  1  0
 18 19  2  0
 21 20  1  0
 22 23  1  0
 22 18  1  0
 23 24  1  1
 24 25  1  0
 25 26  1  0
 26 27  2  0
 28 29  1  0
 28 23  1  0
 30 26  1  0
 31 28  2  0
M  END
$$$$
