KYE.pdb
     RDKit          3D

 31 31  0  0  1  0  0  0  0  0999 V2000
   28.7807  -20.1460  -17.9885 N   0  0  0  0  0  0  0  0  0  0  0  0
   27.6487  -21.0179  -18.2161 C   0  0  1  0  0  0  0  0  0  0  0  0
   28.1744  -22.2995  -18.8513 C   0  0  0  0  0  0  0  0  0  0  0  0
   29.6816  -22.3176  -18.7316 C   0  0  0  0  0  0  0  0  0  0  0  0
   30.3656  -22.2681  -20.0587 C   0  0  0  0  0  0  0  0  0  0  0  0
   31.8528  -22.4118  -19.9737 C   0  0  0  0  0  0  0  0  0  0  0  0
   32.3698  -22.3145  -21.3433 N   0  0  0  0  0  0  0  0  0  0  0  0
   27.0095  -21.2942  -16.9068 C   0  0  0  0  0  0  0  0  0  0  0  0
   26.0395  -22.0931  -16.8495 O   0  0  0  0  0  0  0  0  0  0  0  0
   24.6164  -20.8576   -8.3718 O   0  0  0  0  0  0  0  0  0  0  0  0
   25.3144  -20.7232   -9.5792 C   0  0  0  0  0  0  0  0  0  0  0  0
   26.0098  -21.7791  -10.1260 C   0  0  0  0  0  0  0  0  0  0  0  0
   26.7022  -21.6468  -11.3232 C   0  0  0  0  0  0  0  0  0  0  0  0
   26.7292  -20.4602  -12.0218 C   0  0  0  0  0  0  0  0  0  0  0  0
   27.4550  -20.2730  -13.3055 C   0  0  0  0  0  0  0  0  0  0  0  0
   26.6948  -20.8553  -14.4852 C   0  0  2  0  0  0  0  0  0  0  0  0
   27.4693  -20.6744  -15.7088 N   0  0  0  0  0  0  0  0  0  0  0  0
   25.3513  -20.2490  -14.6312 C   0  0  0  0  0  0  0  0  0  0  0  0
   25.1871  -19.1003  -15.0662 O   0  0  0  0  0  0  0  0  0  0  0  0
   26.0216  -19.4013  -11.4570 C   0  0  0  0  0  0  0  0  0  0  0  0
   25.3348  -19.5310  -10.2703 C   0  0  0  0  0  0  0  0  0  0  0  0
   24.2206  -21.0232  -14.2590 N   0  0  0  0  0  0  0  0  0  0  0  0
   22.8994  -20.4432  -14.3042 C   0  0  1  0  0  0  0  0  0  0  0  0
   22.1324  -21.0109  -15.4949 C   0  0  0  0  0  0  0  0  0  0  0  0
   20.8290  -20.2843  -15.5723 C   0  0  0  0  0  0  0  0  0  0  0  0
   19.9768  -20.7507  -16.6874 C   0  0  0  0  0  0  0  0  0  0  0  0
   20.3568  -21.6226  -17.4836 O   0  0  0  0  0  0  0  0  0  0  0  0
   22.0728  -20.7182  -13.1178 C   0  0  0  0  0  0  0  0  0  0  0  0
   21.2227  -19.7338  -12.6559 O   0  0  0  0  0  0  0  0  0  0  0  0
   18.7208  -20.1930  -16.8399 O   0  0  0  0  0  0  0  0  0  0  0  0
   22.1565  -21.8321  -12.5546 O   0  0  0  0  0  0  0  0  0  0  0  0
  2  3  1  0
  2  1  1  1
  3  4  1  0
  4  5  1  0
  5  6  1  0
  6  7  1  0
  8  2  1  0
  8  9  2  0
 10 11  1  0
 11 21  2  0
 12 13  2  0
 12 11  1  0
 13 14  1  0
 14 15  1  0
 14 20  2  0
 16 15  1  1
 16 18  1  0
 16 17  1  0
 17  8  1  0
 18 19  2  0
 21 20  1  0
 22 23  1  0
 22 18  1  0
 23 24  1  6
 24 25  1  0
 25 26  1  0
 26 27  2  0
 28 29  1  0
 28 23  1  0
 30 26  1  0
 31 28  2  0
M  END
$$$$
