KYE.pdb
     RDKit          3D

 31 31  0  0  1  0  0  0  0  0999 V2000
   29.0947  -30.6683  -16.8610 N   0  0  0  0  0  0  0  0  0  0  0  0
   28.8657  -29.5032  -17.6878 C   0  0  1  0  0  0  0  0  0  0  0  0
   28.6233  -29.9889  -19.1117 C   0  0  0  0  0  0  0  0  0  0  0  0
   29.9160  -30.5499  -19.6599 C   0  0  0  0  0  0  0  0  0  0  0  0
   30.9098  -29.4859  -19.9941 C   0  0  0  0  0  0  0  0  0  0  0  0
   32.0907  -29.9875  -20.7647 C   0  0  0  0  0  0  0  0  0  0  0  0
   33.0015  -28.8504  -20.9378 N   0  0  0  0  0  0  0  0  0  0  0  0
   27.6792  -28.7885  -17.1582 C   0  0  0  0  0  0  0  0  0  0  0  0
   26.8623  -29.4053  -16.4269 O   0  0  0  0  0  0  0  0  0  0  0  0
   31.3009  -22.9443  -18.5335 O   0  0  0  0  0  0  0  0  0  0  0  0
   30.2505  -23.6035  -17.8813 C   0  0  0  0  0  0  0  0  0  0  0  0
   30.4843  -24.6790  -17.0530 C   0  0  0  0  0  0  0  0  0  0  0  0
   29.4436  -25.3333  -16.4058 C   0  0  0  0  0  0  0  0  0  0  0  0
   28.1315  -24.9432  -16.5577 C   0  0  0  0  0  0  0  0  0  0  0  0
   26.9870  -25.6121  -15.8850 C   0  0  0  0  0  0  0  0  0  0  0  0
   26.3836  -26.7145  -16.7388 C   0  0  2  0  0  0  0  0  0  0  0  0
   27.4418  -27.4158  -17.4586 N   0  0  0  0  0  0  0  0  0  0  0  0
   25.3749  -26.1897  -17.6880 C   0  0  0  0  0  0  0  0  0  0  0  0
   25.6865  -25.7134  -18.7889 O   0  0  0  0  0  0  0  0  0  0  0  0
   27.9102  -23.8543  -17.3982 C   0  0  0  0  0  0  0  0  0  0  0  0
   28.9410  -23.2048  -18.0403 C   0  0  0  0  0  0  0  0  0  0  0  0
   24.0066  -26.2431  -17.3121 N   0  0  0  0  0  0  0  0  0  0  0  0
   22.9976  -25.6665  -18.1685 C   0  0  1  0  0  0  0  0  0  0  0  0
   21.6123  -26.0022  -17.6240 C   0  0  0  0  0  0  0  0  0  0  0  0
   21.1650  -27.2622  -18.2912 C   0  0  0  0  0  0  0  0  0  0  0  0
   21.1200  -28.4165  -17.3677 C   0  0  0  0  0  0  0  0  0  0  0  0
   21.2919  -28.2866  -16.1461 O   0  0  0  0  0  0  0  0  0  0  0  0
   23.0513  -24.1991  -18.2700 C   0  0  0  0  0  0  0  0  0  0  0  0
   22.2155  -23.5626  -19.1652 O   0  0  0  0  0  0  0  0  0  0  0  0
   20.8788  -29.6740  -17.8895 O   0  0  0  0  0  0  0  0  0  0  0  0
   23.8488  -23.5613  -17.5474 O   0  0  0  0  0  0  0  0  0  0  0  0
  2  3  1  0
  2  1  1  1
  3  4  1  0
  4  5  1  0
  5  6  1  0
  6  7  1  0
  8  2  1  0
  8  9  2  0
 10 11  1  0
 11 21  2  0
 12 13  2  0
 12 11  1  0
 13 14  1  0
 14 15  1  0
 14 20  2  0
 16 15  1  6
 16 18  1  0
 16 17  1  0
 17  8  1  0
 18 19  2  0
 21 20  1  0
 22 23  1  0
 22 18  1  0
 23 24  1  1
 24 25  1  0
 25 26  1  0
 26 27  2  0
 28 29  1  0
 28 23  1  0
 30 26  1  0
 31 28  2  0
M  END
$$$$
