KYE.pdb
     RDKit          3D

 31 31  0  0  1  0  0  0  0  0999 V2000
   24.4969  -14.6733  -18.7225 N   0  0  0  0  0  0  0  0  0  0  0  0
   25.3143  -13.4814  -18.7925 C   0  0  1  0  0  0  0  0  0  0  0  0
   25.5905  -13.1977  -20.2640 C   0  0  0  0  0  0  0  0  0  0  0  0
   25.2744  -14.4403  -21.0655 C   0  0  0  0  0  0  0  0  0  0  0  0
   25.4427  -14.2359  -22.5357 C   0  0  0  0  0  0  0  0  0  0  0  0
   25.0310  -15.4170  -23.3574 C   0  0  0  0  0  0  0  0  0  0  0  0
   25.8583  -16.5481  -22.9231 N   0  0  0  0  0  0  0  0  0  0  0  0
   24.5604  -12.3684  -18.1664 C   0  0  0  0  0  0  0  0  0  0  0  0
   23.3041  -12.4197  -18.1254 O   0  0  0  0  0  0  0  0  0  0  0  0
   21.9403   -5.7846  -12.9948 O   0  0  0  0  0  0  0  0  0  0  0  0
   22.7240   -6.7248  -13.6769 C   0  0  0  0  0  0  0  0  0  0  0  0
   23.7242   -6.3330  -14.5393 C   0  0  0  0  0  0  0  0  0  0  0  0
   24.5017   -7.2644  -15.2161 C   0  0  0  0  0  0  0  0  0  0  0  0
   24.3143   -8.6201  -15.0611 C   0  0  0  0  0  0  0  0  0  0  0  0
   25.1220   -9.6518  -15.7630 C   0  0  0  0  0  0  0  0  0  0  0  0
   24.4246  -10.1800  -17.0052 C   0  0  2  0  0  0  0  0  0  0  0  0
   25.2270  -11.2391  -17.6086 N   0  0  0  0  0  0  0  0  0  0  0  0
   24.1627   -9.1064  -17.9914 C   0  0  0  0  0  0  0  0  0  0  0  0
   25.0637   -8.6043  -18.6783 O   0  0  0  0  0  0  0  0  0  0  0  0
   23.2995   -9.0014  -14.1860 C   0  0  0  0  0  0  0  0  0  0  0  0
   22.5280   -8.0792  -13.5144 C   0  0  0  0  0  0  0  0  0  0  0  0
   22.8278   -8.6479  -18.1471 N   0  0  0  0  0  0  0  0  0  0  0  0
   22.5402   -7.5431  -19.0306 C   0  0  1  0  0  0  0  0  0  0  0  0
   21.0330   -7.4378  -19.2437 C   0  0  0  0  0  0  0  0  0  0  0  0
   20.8084   -6.4871  -20.3744 C   0  0  0  0  0  0  0  0  0  0  0  0
   19.3757   -6.2926  -20.6854 C   0  0  0  0  0  0  0  0  0  0  0  0
   18.4803   -6.8379  -20.0223 O   0  0  0  0  0  0  0  0  0  0  0  0
   22.9734   -6.2305  -18.5250 C   0  0  0  0  0  0  0  0  0  0  0  0
   23.7023   -5.4042  -19.3563 O   0  0  0  0  0  0  0  0  0  0  0  0
   19.0327   -5.4775  -21.7483 O   0  0  0  0  0  0  0  0  0  0  0  0
   22.6744   -5.8914  -17.3586 O   0  0  0  0  0  0  0  0  0  0  0  0
  2  3  1  0
  2  1  1  6
  3  4  1  0
  4  5  1  0
  5  6  1  0
  6  7  1  0
  8  2  1  0
  8  9  2  0
 10 11  1  0
 11 21  2  0
 12 13  2  0
 12 11  1  0
 13 14  1  0
 14 15  1  0
 14 20  2  0
 16 15  1  1
 16 18  1  0
 16 17  1  0
 17  8  1  0
 18 19  2  0
 21 20  1  0
 22 23  1  0
 22 18  1  0
 23 24  1  1
 24 25  1  0
 25 26  1  0
 26 27  2  0
 28 29  1  0
 28 23  1  0
 30 26  1  0
 31 28  2  0
M  END
$$$$
