KYE.pdb
     RDKit          3D

 31 31  0  0  1  0  0  0  0  0999 V2000
   27.5202  -20.6308  -19.0643 N   0  0  0  0  0  0  0  0  0  0  0  0
   27.0422  -19.5340  -18.2504 C   0  0  1  0  0  0  0  0  0  0  0  0
   25.9540  -18.8152  -19.0387 C   0  0  0  0  0  0  0  0  0  0  0  0
   26.4937  -18.4719  -20.4088 C   0  0  0  0  0  0  0  0  0  0  0  0
   25.5302  -17.6727  -21.2239 C   0  0  0  0  0  0  0  0  0  0  0  0
   26.0110  -17.3855  -22.6117 C   0  0  0  0  0  0  0  0  0  0  0  0
   24.9028  -16.7372  -23.3217 N   0  0  0  0  0  0  0  0  0  0  0  0
   26.5038  -20.0973  -16.9887 C   0  0  0  0  0  0  0  0  0  0  0  0
   25.9007  -21.2011  -17.0130 O   0  0  0  0  0  0  0  0  0  0  0  0
   24.4274  -21.6322   -8.5283 O   0  0  0  0  0  0  0  0  0  0  0  0
   24.9822  -21.0994   -9.6994 C   0  0  0  0  0  0  0  0  0  0  0  0
   24.4876  -19.9451  -10.2656 C   0  0  0  0  0  0  0  0  0  0  0  0
   25.0370  -19.4160  -11.4267 C   0  0  0  0  0  0  0  0  0  0  0  0
   26.0985  -20.0142  -12.0687 C   0  0  0  0  0  0  0  0  0  0  0  0
   26.7185  -19.4839  -13.3112 C   0  0  0  0  0  0  0  0  0  0  0  0
   26.0049  -19.9695  -14.5616 C   0  0  2  0  0  0  0  0  0  0  0  0
   26.6537  -19.4162  -15.7460 N   0  0  0  0  0  0  0  0  0  0  0  0
   24.5664  -19.6170  -14.5498 C   0  0  0  0  0  0  0  0  0  0  0  0
   24.1628  -18.4739  -14.8067 O   0  0  0  0  0  0  0  0  0  0  0  0
   26.5882  -21.1806  -11.4848 C   0  0  0  0  0  0  0  0  0  0  0  0
   26.0445  -21.7062  -10.3337 C   0  0  0  0  0  0  0  0  0  0  0  0
   23.6277  -20.6347  -14.2343 N   0  0  0  0  0  0  0  0  0  0  0  0
   22.2254  -20.3140  -14.1139 C   0  0  1  0  0  0  0  0  0  0  0  0
   21.4142  -21.2102  -15.0451 C   0  0  0  0  0  0  0  0  0  0  0  0
   19.9952  -20.7460  -14.9853 C   0  0  0  0  0  0  0  0  0  0  0  0
   19.0760  -21.6069  -15.7607 C   0  0  0  0  0  0  0  0  0  0  0  0
   18.9991  -22.8292  -15.5640 O   0  0  0  0  0  0  0  0  0  0  0  0
   21.6683  -20.5153  -12.7665 C   0  0  0  0  0  0  0  0  0  0  0  0
   20.7276  -19.6223  -12.2946 O   0  0  0  0  0  0  0  0  0  0  0  0
   18.2826  -21.0242  -16.7317 O   0  0  0  0  0  0  0  0  0  0  0  0
   22.0561  -21.4860  -12.0792 O   0  0  0  0  0  0  0  0  0  0  0  0
  2  3  1  0
  2  1  1  6
  3  4  1  0
  4  5  1  0
  5  6  1  0
  6  7  1  0
  8  2  1  0
  8  9  2  0
 10 11  1  0
 11 21  2  0
 12 13  2  0
 12 11  1  0
 13 14  1  0
 14 15  1  0
 14 20  2  0
 16 15  1  1
 16 18  1  0
 16 17  1  0
 17  8  1  0
 18 19  2  0
 21 20  1  0
 22 23  1  0
 22 18  1  0
 23 24  1  6
 24 25  1  0
 25 26  1  0
 26 27  2  0
 28 29  1  0
 28 23  1  0
 30 26  1  0
 31 28  2  0
M  END
$$$$
