KYE.pdb
     RDKit          3D

 31 31  0  0  1  0  0  0  0  0999 V2000
   22.8238  -20.8465  -14.2056 N   0  0  0  0  0  0  0  0  0  0  0  0
   22.7402  -20.2121  -15.5033 C   0  0  1  0  0  0  0  0  0  0  0  0
   21.3081  -20.3669  -16.0007 C   0  0  0  0  0  0  0  0  0  0  0  0
   20.6593  -21.5157  -15.2620 C   0  0  0  0  0  0  0  0  0  0  0  0
   20.3148  -22.6576  -16.1613 C   0  0  0  0  0  0  0  0  0  0  0  0
   19.6380  -23.7926  -15.4586 C   0  0  0  0  0  0  0  0  0  0  0  0
   19.5345  -24.8917  -16.4249 N   0  0  0  0  0  0  0  0  0  0  0  0
   23.0973  -18.7820  -15.3407 C   0  0  0  0  0  0  0  0  0  0  0  0
   22.7598  -18.1768  -14.2907 O   0  0  0  0  0  0  0  0  0  0  0  0
   28.2110  -20.6107  -12.6156 O   0  0  0  0  0  0  0  0  0  0  0  0
   27.6328  -19.6605  -13.4678 C   0  0  0  0  0  0  0  0  0  0  0  0
   27.3217  -18.3945  -13.0229 C   0  0  0  0  0  0  0  0  0  0  0  0
   26.7484  -17.4517  -13.8670 C   0  0  0  0  0  0  0  0  0  0  0  0
   26.4629  -17.7318  -15.1849 C   0  0  0  0  0  0  0  0  0  0  0  0
   25.8513  -16.7552  -16.1240 C   0  0  0  0  0  0  0  0  0  0  0  0
   24.3345  -16.7471  -16.0368 C   0  0  2  0  0  0  0  0  0  0  0  0
   23.8156  -18.0751  -16.3482 N   0  0  0  0  0  0  0  0  0  0  0  0
   23.7340  -15.7351  -16.9362 C   0  0  0  0  0  0  0  0  0  0  0  0
   23.5114  -15.9627  -18.1339 O   0  0  0  0  0  0  0  0  0  0  0  0
   26.7828  -19.0159  -15.6208 C   0  0  0  0  0  0  0  0  0  0  0  0
   27.3512  -19.9515  -14.7850 C   0  0  0  0  0  0  0  0  0  0  0  0
   23.4042  -14.4650  -16.3936 N   0  0  0  0  0  0  0  0  0  0  0  0
   22.7741  -13.4651  -17.2225 C   0  0  1  0  0  0  0  0  0  0  0  0
   22.4184  -12.2478  -16.3740 C   0  0  0  0  0  0  0  0  0  0  0  0
   21.5425  -11.3668  -17.2043 C   0  0  0  0  0  0  0  0  0  0  0  0
   21.1063  -10.1496  -16.4865 C   0  0  0  0  0  0  0  0  0  0  0  0
   20.3938   -9.2894  -17.0260 O   0  0  0  0  0  0  0  0  0  0  0  0
   23.6173  -12.9648  -18.3203 C   0  0  0  0  0  0  0  0  0  0  0  0
   24.8754  -12.4797  -18.0256 O   0  0  0  0  0  0  0  0  0  0  0  0
   21.5089   -9.9729  -15.1756 O   0  0  0  0  0  0  0  0  0  0  0  0
   23.1798  -12.9889  -19.4920 O   0  0  0  0  0  0  0  0  0  0  0  0
  2  3  1  0
  2  1  1  1
  3  4  1  0
  4  5  1  0
  5  6  1  0
  6  7  1  0
  8  2  1  0
  8  9  2  0
 10 11  1  0
 11 21  2  0
 12 13  2  0
 12 11  1  0
 13 14  1  0
 14 15  1  0
 14 20  2  0
 16 15  1  6
 16 18  1  0
 16 17  1  0
 17  8  1  0
 18 19  2  0
 21 20  1  0
 22 23  1  0
 22 18  1  0
 23 24  1  1
 24 25  1  0
 25 26  1  0
 26 27  2  0
 28 29  1  0
 28 23  1  0
 30 26  1  0
 31 28  2  0
M  END
$$$$
