KYE.pdb
     RDKit          3D

 31 31  0  0  1  0  0  0  0  0999 V2000
   26.8028  -22.9485  -16.1562 N   0  0  0  0  0  0  0  0  0  0  0  0
   27.3032  -21.7055  -15.6102 C   0  0  1  0  0  0  0  0  0  0  0  0
   26.6249  -20.5661  -16.3611 C   0  0  0  0  0  0  0  0  0  0  0  0
   25.2076  -20.9777  -16.6902 C   0  0  0  0  0  0  0  0  0  0  0  0
   24.4826  -19.9514  -17.4981 C   0  0  0  0  0  0  0  0  0  0  0  0
   23.0969  -20.3620  -17.8869 C   0  0  0  0  0  0  0  0  0  0  0  0
   22.5311  -19.2614  -18.6751 N   0  0  0  0  0  0  0  0  0  0  0  0
   26.9669  -21.6682  -14.1663 C   0  0  0  0  0  0  0  0  0  0  0  0
   26.0405  -22.3983  -13.7290 O   0  0  0  0  0  0  0  0  0  0  0  0
   27.0311  -19.9888   -5.4604 O   0  0  0  0  0  0  0  0  0  0  0  0
   27.3608  -20.0351   -6.8214 C   0  0  0  0  0  0  0  0  0  0  0  0
   28.0411  -21.1061   -7.3576 C   0  0  0  0  0  0  0  0  0  0  0  0
   28.3685  -21.1529   -8.7070 C   0  0  0  0  0  0  0  0  0  0  0  0
   28.0319  -20.1371   -9.5739 C   0  0  0  0  0  0  0  0  0  0  0  0
   28.3601  -20.1448  -11.0237 C   0  0  0  0  0  0  0  0  0  0  0  0
   27.2900  -20.8367  -11.8511 C   0  0  2  0  0  0  0  0  0  0  0  0
   27.6702  -20.8227  -13.2601 N   0  0  0  0  0  0  0  0  0  0  0  0
   25.9598  -20.2110  -11.6699 C   0  0  0  0  0  0  0  0  0  0  0  0
   25.6613  -19.1273  -12.1918 O   0  0  0  0  0  0  0  0  0  0  0  0
   27.3442  -19.0606   -9.0177 C   0  0  0  0  0  0  0  0  0  0  0  0
   27.0191  -19.0129   -7.6802 C   0  0  0  0  0  0  0  0  0  0  0  0
   25.0017  -20.8886  -10.8703 N   0  0  0  0  0  0  0  0  0  0  0  0
   23.6270  -20.4484  -10.8589 C   0  0  1  0  0  0  0  0  0  0  0  0
   22.8699  -21.1066  -12.0086 C   0  0  0  0  0  0  0  0  0  0  0  0
   21.4611  -20.6114  -11.9554 C   0  0  0  0  0  0  0  0  0  0  0  0
   20.6211  -21.1506  -13.0467 C   0  0  0  0  0  0  0  0  0  0  0  0
   20.4406  -20.5284  -14.1045 O   0  0  0  0  0  0  0  0  0  0  0  0
   22.8877  -20.7925   -9.6336 C   0  0  0  0  0  0  0  0  0  0  0  0
   21.6042  -20.3107   -9.4729 O   0  0  0  0  0  0  0  0  0  0  0  0
   20.0229  -22.3853  -12.8747 O   0  0  0  0  0  0  0  0  0  0  0  0
   23.4337  -21.5105   -8.7669 O   0  0  0  0  0  0  0  0  0  0  0  0
  2  3  1  0
  2  1  1  6
  3  4  1  0
  4  5  1  0
  5  6  1  0
  6  7  1  0
  8  2  1  0
  8  9  2  0
 10 11  1  0
 11 21  2  0
 12 13  2  0
 12 11  1  0
 13 14  1  0
 14 15  1  0
 14 20  2  0
 16 15  1  1
 16 18  1  0
 16 17  1  0
 17  8  1  0
 18 19  2  0
 21 20  1  0
 22 23  1  0
 22 18  1  0
 23 24  1  6
 24 25  1  0
 25 26  1  0
 26 27  2  0
 28 29  1  0
 28 23  1  0
 30 26  1  0
 31 28  2  0
M  END
$$$$
