ICA.pdb
     RDKit          3D

 20 19  0  0  1  0  0  0  0  0999 V2000
   16.5322  -14.3185  -16.7743 C   0  0  0  0  0  0  0  0  0  0  0  0
   17.3402  -13.2101  -17.3553 C   0  0  0  0  0  0  0  0  0  0  0  0
   18.2095  -12.4635  -16.3877 C   0  0  2  0  0  0  0  0  0  0  0  0
   17.4090  -12.1475  -15.1519 C   0  0  0  0  0  0  0  0  0  0  0  0
   19.0583  -11.3904  -16.9260 C   0  0  2  0  0  0  0  0  0  0  0  0
   19.9304  -11.9643  -17.9795 N   0  0  0  0  0  0  0  0  0  0  0  0
   19.8844  -10.6117  -16.0258 C   0  0  0  0  0  0  0  0  0  0  0  0
   19.4603  -10.0686  -14.9732 O   0  0  0  0  0  0  0  0  0  0  0  0
   21.2643  -10.4280  -16.3159 N   0  0  0  0  0  0  0  0  0  0  0  0
   22.0924   -9.6497  -15.3708 C   0  0  1  0  0  0  0  0  0  0  0  0
   23.5026  -10.1507  -15.6200 C   0  0  0  0  0  0  0  0  0  0  0  0
   23.9322  -11.6260  -14.7098 S   0  0  0  0  0  0  0  0  0  0  0  0
   21.9214   -8.2101  -15.6348 C   0  0  0  0  0  0  0  0  0  0  0  0
   22.1293   -7.6912  -16.7691 O   0  0  0  0  0  0  0  0  0  0  0  0
   20.0705   -5.4076  -14.8275 C   0  0  0  0  0  0  0  0  0  0  0  0
   21.4975   -5.8910  -14.7650 C   0  0  2  0  0  0  0  0  0  0  0  0
   21.5061   -7.3415  -14.5959 N   0  0  0  0  0  0  0  0  0  0  0  0
   22.2702   -5.2358  -13.6730 C   0  0  0  0  0  0  0  0  0  0  0  0
   22.6692   -4.0588  -13.8658 O   0  0  0  0  0  0  0  0  0  0  0  0
   22.5647   -5.8518  -12.4757 O   0  0  0  0  0  0  0  0  0  0  0  0
  1  2  1  0
  2  3  1  0
  3  4  1  1
  5  7  1  0
  5  3  1  0
  5  6  1  6
  7  8  2  0
  7  9  1  0
  9 10  1  0
 10 13  1  0
 11 12  1  0
 10 11  1  6
 13 14  2  0
 13 17  1  0
 16 15  1  1
 16 18  1  0
 17 16  1  0
 18 20  1  0
 19 18  2  0
M  END
$$$$
