ICA.pdb
     RDKit          3D

 20 19  0  0  1  0  0  0  0  0999 V2000
   20.0618  -11.0532  -22.4228 C   0  0  0  0  0  0  0  0  0  0  0  0
   20.6243  -11.1898  -21.0503 C   0  0  0  0  0  0  0  0  0  0  0  0
   20.2972  -10.0763  -20.1004 C   0  0  2  0  0  0  0  0  0  0  0  0
   20.6145   -8.7600  -20.7596 C   0  0  0  0  0  0  0  0  0  0  0  0
   20.7088  -10.2372  -18.6981 C   0  0  2  0  0  0  0  0  0  0  0  0
   20.2274  -11.5542  -18.2149 N   0  0  0  0  0  0  0  0  0  0  0  0
   20.3378   -9.2315  -17.7234 C   0  0  0  0  0  0  0  0  0  0  0  0
   19.1751   -9.0914  -17.2640 O   0  0  0  0  0  0  0  0  0  0  0  0
   21.3208   -8.3291  -17.2320 N   0  0  0  0  0  0  0  0  0  0  0  0
   20.9050   -7.2669  -16.2920 C   0  0  1  0  0  0  0  0  0  0  0  0
   21.7802   -7.4919  -15.0734 C   0  0  0  0  0  0  0  0  0  0  0  0
   21.8359   -6.1120  -13.9410 S   0  0  0  0  0  0  0  0  0  0  0  0
   21.0960   -5.9484  -16.9216 C   0  0  0  0  0  0  0  0  0  0  0  0
   22.1761   -5.6064  -17.4833 O   0  0  0  0  0  0  0  0  0  0  0  0
   18.8654   -3.0547  -17.7425 C   0  0  0  0  0  0  0  0  0  0  0  0
   20.2194   -3.6564  -17.4626 C   0  0  2  0  0  0  0  0  0  0  0  0
   20.0445   -4.9995  -16.9165 N   0  0  0  0  0  0  0  0  0  0  0  0
   21.0303   -2.8195  -16.5347 C   0  0  0  0  0  0  0  0  0  0  0  0
   21.3482   -1.6645  -16.9177 O   0  0  0  0  0  0  0  0  0  0  0  0
   21.4434   -3.2467  -15.2911 O   0  0  0  0  0  0  0  0  0  0  0  0
  1  2  1  0
  2  3  1  0
  3  4  1  6
  5  7  1  0
  5  3  1  0
  5  6  1  1
  7  8  2  0
  7  9  1  0
  9 10  1  0
 10 13  1  0
 11 12  1  0
 10 11  1  1
 13 14  2  0
 13 17  1  0
 16 15  1  1
 16 18  1  0
 17 16  1  0
 18 20  1  0
 19 18  2  0
M  END
$$$$
