ICA.pdb
     RDKit          3D

 20 19  0  0  1  0  0  0  0  0999 V2000
   24.5221  -11.6647  -15.5594 C   0  0  0  0  0  0  0  0  0  0  0  0
   23.5275  -10.8205  -16.2782 C   0  0  0  0  0  0  0  0  0  0  0  0
   22.8934   -9.7303  -15.4666 C   0  0  2  0  0  0  0  0  0  0  0  0
   22.4589  -10.2957  -14.1401 C   0  0  0  0  0  0  0  0  0  0  0  0
   21.9500   -8.8347  -16.1519 C   0  0  2  0  0  0  0  0  0  0  0  0
   22.5980   -8.3230  -17.3840 N   0  0  0  0  0  0  0  0  0  0  0  0
   21.3819   -7.7105  -15.4361 C   0  0  0  0  0  0  0  0  0  0  0  0
   20.6969   -7.8178  -14.3863 O   0  0  0  0  0  0  0  0  0  0  0  0
   21.5898   -6.3892  -15.9187 N   0  0  0  0  0  0  0  0  0  0  0  0
   20.9362   -5.2644  -15.2169 C   0  0  1  0  0  0  0  0  0  0  0  0
   22.0941   -4.4167  -14.7244 C   0  0  0  0  0  0  0  0  0  0  0  0
   22.0286   -4.0192  -12.9844 S   0  0  0  0  0  0  0  0  0  0  0  0
   20.0394   -4.5565  -16.1474 C   0  0  0  0  0  0  0  0  0  0  0  0
   20.3736   -4.2601  -17.3304 O   0  0  0  0  0  0  0  0  0  0  0  0
   16.3975   -3.7967  -16.2059 C   0  0  0  0  0  0  0  0  0  0  0  0
   17.8125   -3.4980  -16.6326 C   0  0  2  0  0  0  0  0  0  0  0  0
   18.7393   -4.1780  -15.7318 N   0  0  0  0  0  0  0  0  0  0  0  0
   18.0977   -2.0364  -16.6654 C   0  0  0  0  0  0  0  0  0  0  0  0
   18.8033   -1.5588  -15.7403 O   0  0  0  0  0  0  0  0  0  0  0  0
   17.6301   -1.1931  -17.6503 O   0  0  0  0  0  0  0  0  0  0  0  0
  1  2  1  0
  2  3  1  0
  3  4  1  1
  5  7  1  0
  5  3  1  0
  5  6  1  6
  7  8  2  0
  7  9  1  0
  9 10  1  0
 10 13  1  0
 11 12  1  0
 10 11  1  6
 13 14  2  0
 13 17  1  0
 16 15  1  1
 16 18  1  0
 17 16  1  0
 18 20  1  0
 19 18  2  0
M  END
$$$$
