ICA.pdb
     RDKit          3D

 20 19  0  0  1  0  0  0  0  0999 V2000
    7.0140  -25.4857  -52.4690 C   0  0  0  0  0  0  0  0  0  0  0  0
    6.2675  -25.3776  -53.7535 C   0  0  0  0  0  0  0  0  0  0  0  0
    5.5095  -24.1000  -53.9589 C   0  0  2  0  0  0  0  0  0  0  0  0
    5.7408  -23.1968  -52.7763 C   0  0  0  0  0  0  0  0  0  0  0  0
    4.1318  -24.2013  -54.4624 C   0  0  2  0  0  0  0  0  0  0  0  0
    3.7711  -25.6366  -54.5599 N   0  0  0  0  0  0  0  0  0  0  0  0
    3.7769  -23.5572  -55.7107 C   0  0  0  0  0  0  0  0  0  0  0  0
    2.8713  -23.9669  -56.4818 O   0  0  0  0  0  0  0  0  0  0  0  0
    4.4723  -22.3875  -56.1234 N   0  0  0  0  0  0  0  0  0  0  0  0
    3.8090  -21.0751  -55.9727 C   0  0  1  0  0  0  0  0  0  0  0  0
    3.2562  -21.1035  -54.5601 C   0  0  0  0  0  0  0  0  0  0  0  0
    1.8131  -22.1353  -54.3540 S   0  0  0  0  0  0  0  0  0  0  0  0
    4.7880  -19.9982  -56.2027 C   0  0  0  0  0  0  0  0  0  0  0  0
    6.0041  -20.0938  -55.8694 O   0  0  0  0  0  0  0  0  0  0  0  0
    6.3977  -17.7597  -55.9655 C   0  0  0  0  0  0  0  0  0  0  0  0
    5.3061  -17.6729  -57.0022 C   0  0  2  0  0  0  0  0  0  0  0  0
    4.3836  -18.7907  -56.8227 N   0  0  0  0  0  0  0  0  0  0  0  0
    5.8438  -17.6606  -58.3913 C   0  0  0  0  0  0  0  0  0  0  0  0
    5.5836  -16.6609  -59.1087 O   0  0  0  0  0  0  0  0  0  0  0  0
    6.6040  -18.6812  -58.9206 O   0  0  0  0  0  0  0  0  0  0  0  0
  1  2  1  0
  2  3  1  0
  3  4  1  1
  5  7  1  0
  5  3  1  0
  5  6  1  6
  7  8  2  0
  7  9  1  0
  9 10  1  0
 10 13  1  0
 11 12  1  0
 10 11  1  1
 13 14  2  0
 13 17  1  0
 16 15  1  1
 16 18  1  0
 17 16  1  0
 18 20  1  0
 19 18  2  0
M  END
$$$$
