ICA.pdb
     RDKit          3D

 20 19  0  0  1  0  0  0  0  0999 V2000
   20.1093  -13.6722  -19.0305 C   0  0  0  0  0  0  0  0  0  0  0  0
   19.6931  -13.2822  -17.6545 C   0  0  0  0  0  0  0  0  0  0  0  0
   19.4663  -11.8160  -17.4354 C   0  0  2  0  0  0  0  0  0  0  0  0
   20.6603  -11.0532  -17.9457 C   0  0  0  0  0  0  0  0  0  0  0  0
   18.9136  -11.4010  -16.1377 C   0  0  2  0  0  0  0  0  0  0  0  0
   17.6867  -12.1918  -15.8745 N   0  0  0  0  0  0  0  0  0  0  0  0
   18.6135  -10.0034  -15.9016 C   0  0  0  0  0  0  0  0  0  0  0  0
   17.6117   -9.4085  -16.3763 O   0  0  0  0  0  0  0  0  0  0  0  0
   19.4810   -9.2233  -15.0887 N   0  0  0  0  0  0  0  0  0  0  0  0
   19.1659   -7.7944  -14.8792 C   0  0  1  0  0  0  0  0  0  0  0  0
   18.0664   -7.8105  -13.8339 C   0  0  0  0  0  0  0  0  0  0  0  0
   18.5016   -8.6508  -12.3193 S   0  0  0  0  0  0  0  0  0  0  0  0
   20.3802   -7.0793  -14.4487 C   0  0  0  0  0  0  0  0  0  0  0  0
   21.2419   -7.5925  -13.6786 O   0  0  0  0  0  0  0  0  0  0  0  0
   21.9542   -3.7963  -15.3841 C   0  0  0  0  0  0  0  0  0  0  0  0
   21.8373   -5.0337  -14.5302 C   0  0  2  0  0  0  0  0  0  0  0  0
   20.6247   -5.7589  -14.8992 N   0  0  0  0  0  0  0  0  0  0  0  0
   21.8319   -4.7188  -13.0743 C   0  0  0  0  0  0  0  0  0  0  0  0
   20.7193   -4.6853  -12.4889 O   0  0  0  0  0  0  0  0  0  0  0  0
   22.9753   -4.4655  -12.3476 O   0  0  0  0  0  0  0  0  0  0  0  0
  1  2  1  0
  2  3  1  0
  3  4  1  1
  5  7  1  0
  5  3  1  0
  5  6  1  6
  7  8  2  0
  7  9  1  0
  9 10  1  0
 10 13  1  0
 11 12  1  0
 10 11  1  1
 13 14  2  0
 13 17  1  0
 16 15  1  6
 16 18  1  0
 17 16  1  0
 18 20  1  0
 19 18  2  0
M  END
$$$$
