ICA.pdb
     RDKit          3D

 20 19  0  0  1  0  0  0  0  0999 V2000
   24.4286  -14.4021  -16.4474 C   0  0  0  0  0  0  0  0  0  0  0  0
   23.2967  -13.5413  -16.0040 C   0  0  0  0  0  0  0  0  0  0  0  0
   23.4806  -12.0676  -16.2129 C   0  0  2  0  0  0  0  0  0  0  0  0
   24.8166  -11.6558  -15.6531 C   0  0  0  0  0  0  0  0  0  0  0  0
   22.3358  -11.1924  -15.9211 C   0  0  2  0  0  0  0  0  0  0  0  0
   21.1616  -11.6847  -16.6819 N   0  0  0  0  0  0  0  0  0  0  0  0
   22.4528   -9.7648  -16.1383 C   0  0  0  0  0  0  0  0  0  0  0  0
   23.3619   -9.0496  -15.6436 O   0  0  0  0  0  0  0  0  0  0  0  0
   21.5006   -9.0952  -16.9550 N   0  0  0  0  0  0  0  0  0  0  0  0
   21.6367   -7.6374  -17.1572 C   0  0  1  0  0  0  0  0  0  0  0  0
   20.9924   -7.3926  -18.5088 C   0  0  0  0  0  0  0  0  0  0  0  0
   20.5082   -5.6982  -18.7984 S   0  0  0  0  0  0  0  0  0  0  0  0
   20.9780   -6.9220  -16.0502 C   0  0  0  0  0  0  0  0  0  0  0  0
   19.8312   -7.2338  -15.6178 O   0  0  0  0  0  0  0  0  0  0  0  0
   21.7341   -5.4250  -13.0371 C   0  0  0  0  0  0  0  0  0  0  0  0
   21.0098   -5.1007  -14.3192 C   0  0  2  0  0  0  0  0  0  0  0  0
   21.6296   -5.8340  -15.4196 N   0  0  0  0  0  0  0  0  0  0  0  0
   20.9985   -3.6397  -14.6093 C   0  0  0  0  0  0  0  0  0  0  0  0
   21.6895   -3.2319  -15.5779 O   0  0  0  0  0  0  0  0  0  0  0  0
   20.2750   -2.7249  -13.8749 O   0  0  0  0  0  0  0  0  0  0  0  0
  1  2  1  0
  2  3  1  0
  3  4  1  1
  5  7  1  0
  5  3  1  0
  5  6  1  6
  7  8  2  0
  7  9  1  0
  9 10  1  0
 10 13  1  0
 11 12  1  0
 10 11  1  6
 13 14  2  0
 13 17  1  0
 16 15  1  1
 16 18  1  0
 17 16  1  0
 18 20  1  0
 19 18  2  0
M  END
$$$$
