ICA.pdb
     RDKit          3D

 20 19  0  0  1  0  0  0  0  0999 V2000
   18.5849  -16.8984  -18.5325 C   0  0  0  0  0  0  0  0  0  0  0  0
   19.2315  -15.5719  -18.7348 C   0  0  0  0  0  0  0  0  0  0  0  0
   19.0209  -14.5723  -17.6367 C   0  0  2  0  0  0  0  0  0  0  0  0
   17.5503  -14.4913  -17.3224 C   0  0  0  0  0  0  0  0  0  0  0  0
   19.7559  -13.3019  -17.7248 C   0  0  2  0  0  0  0  0  0  0  0  0
   21.1756  -13.6005  -18.0333 N   0  0  0  0  0  0  0  0  0  0  0  0
   19.7172  -12.3741  -16.6128 C   0  0  0  0  0  0  0  0  0  0  0  0
   18.6620  -12.0255  -16.0231 O   0  0  0  0  0  0  0  0  0  0  0  0
   20.9258  -11.8016  -16.1296 N   0  0  0  0  0  0  0  0  0  0  0  0
   20.8660  -10.8876  -14.9694 C   0  0  1  0  0  0  0  0  0  0  0  0
   22.2647  -10.9450  -14.3846 C   0  0  0  0  0  0  0  0  0  0  0  0
   23.4783   -9.9897  -15.2815 S   0  0  0  0  0  0  0  0  0  0  0  0
   20.4688   -9.5424  -15.4210 C   0  0  0  0  0  0  0  0  0  0  0  0
   20.7583   -9.0897  -16.5657 O   0  0  0  0  0  0  0  0  0  0  0  0
   17.9937   -7.0294  -14.2917 C   0  0  0  0  0  0  0  0  0  0  0  0
   19.2904   -7.3665  -14.9838 C   0  0  2  0  0  0  0  0  0  0  0  0
   19.7291   -8.6938  -14.5614 N   0  0  0  0  0  0  0  0  0  0  0  0
   20.3537   -6.3581  -14.7168 C   0  0  0  0  0  0  0  0  0  0  0  0
   21.2383   -6.6527  -13.8726 O   0  0  0  0  0  0  0  0  0  0  0  0
   20.4129   -5.1323  -15.3441 O   0  0  0  0  0  0  0  0  0  0  0  0
  1  2  1  0
  2  3  1  0
  3  4  1  6
  5  7  1  0
  5  3  1  0
  5  6  1  1
  7  8  2  0
  7  9  1  0
  9 10  1  0
 10 13  1  0
 11 12  1  0
 10 11  1  6
 13 14  2  0
 13 17  1  0
 16 15  1  1
 16 18  1  0
 17 16  1  0
 18 20  1  0
 19 18  2  0
M  END
$$$$
