ICA.pdb
     RDKit          3D

 20 19  0  0  1  0  0  0  0  0999 V2000
   27.6883  -14.5404  -15.2381 C   0  0  0  0  0  0  0  0  0  0  0  0
   26.2174  -14.3056  -15.2357 C   0  0  0  0  0  0  0  0  0  0  0  0
   25.7639  -13.0187  -15.8582 C   0  0  2  0  0  0  0  0  0  0  0  0
   26.6046  -11.8908  -15.3207 C   0  0  0  0  0  0  0  0  0  0  0  0
   24.3155  -12.7846  -15.9549 C   0  0  2  0  0  0  0  0  0  0  0  0
   23.6843  -13.9847  -16.5558 N   0  0  0  0  0  0  0  0  0  0  0  0
   23.8249  -11.6142  -16.6539 C   0  0  0  0  0  0  0  0  0  0  0  0
   23.5645  -11.5868  -17.8844 O   0  0  0  0  0  0  0  0  0  0  0  0
   23.6119  -10.4036  -15.9391 N   0  0  0  0  0  0  0  0  0  0  0  0
   23.0162   -9.2529  -16.6504 C   0  0  1  0  0  0  0  0  0  0  0  0
   21.5796   -9.6756  -16.8938 C   0  0  0  0  0  0  0  0  0  0  0  0
   20.7316  -10.2755  -15.4411 S   0  0  0  0  0  0  0  0  0  0  0  0
   23.1434   -8.0411  -15.8217 C   0  0  0  0  0  0  0  0  0  0  0  0
   23.0515   -8.0595  -14.5607 O   0  0  0  0  0  0  0  0  0  0  0  0
   23.9827   -4.4440  -16.5414 C   0  0  0  0  0  0  0  0  0  0  0  0
   23.5153   -5.5622  -15.6443 C   0  0  2  0  0  0  0  0  0  0  0  0
   23.3802   -6.7848  -16.4315 N   0  0  0  0  0  0  0  0  0  0  0  0
   22.2322   -5.2404  -14.9596 C   0  0  0  0  0  0  0  0  0  0  0  0
   21.1672   -5.6311  -15.5027 O   0  0  0  0  0  0  0  0  0  0  0  0
   22.1584   -4.5430  -13.7730 O   0  0  0  0  0  0  0  0  0  0  0  0
  1  2  1  0
  2  3  1  0
  3  4  1  1
  5  7  1  0
  5  3  1  0
  5  6  1  6
  7  8  2  0
  7  9  1  0
  9 10  1  0
 10 13  1  0
 11 12  1  0
 10 11  1  1
 13 14  2  0
 13 17  1  0
 16 15  1  6
 16 18  1  0
 17 16  1  0
 18 20  1  0
 19 18  2  0
M  END
$$$$
