ICA.pdb
     RDKit          3D

 20 19  0  0  1  0  0  0  0  0999 V2000
   14.3860  -13.1109  -16.5686 C   0  0  0  0  0  0  0  0  0  0  0  0
   15.6291  -12.2925  -16.5077 C   0  0  0  0  0  0  0  0  0  0  0  0
   15.6807  -11.2700  -15.4118 C   0  0  2  0  0  0  0  0  0  0  0  0
   14.5213  -10.3221  -15.5702 C   0  0  0  0  0  0  0  0  0  0  0  0
   16.9891  -10.6778  -15.0967 C   0  0  2  0  0  0  0  0  0  0  0  0
   17.9113  -11.7653  -14.6884 N   0  0  0  0  0  0  0  0  0  0  0  0
   17.0761   -9.6150  -14.1160 C   0  0  0  0  0  0  0  0  0  0  0  0
   17.3286   -9.8003  -12.8975 O   0  0  0  0  0  0  0  0  0  0  0  0
   16.8698   -8.2665  -14.5172 N   0  0  0  0  0  0  0  0  0  0  0  0
   16.9760   -7.1979  -13.5015 C   0  0  1  0  0  0  0  0  0  0  0  0
   18.4601   -7.1296  -13.1944 C   0  0  0  0  0  0  0  0  0  0  0  0
   19.4899   -6.7738  -14.6095 S   0  0  0  0  0  0  0  0  0  0  0  0
   16.4266   -5.9436  -14.0456 C   0  0  0  0  0  0  0  0  0  0  0  0
   16.5705   -5.5988  -15.2537 O   0  0  0  0  0  0  0  0  0  0  0  0
   14.0586   -3.3455  -12.7485 C   0  0  0  0  0  0  0  0  0  0  0  0
   15.1065   -3.8306  -13.7183 C   0  0  2  0  0  0  0  0  0  0  0  0
   15.6998   -5.0633  -13.2072 N   0  0  0  0  0  0  0  0  0  0  0  0
   16.1625   -2.8103  -13.9683 C   0  0  0  0  0  0  0  0  0  0  0  0
   17.2786   -2.9777  -13.4131 O   0  0  0  0  0  0  0  0  0  0  0  0
   15.9760   -1.7047  -14.7700 O   0  0  0  0  0  0  0  0  0  0  0  0
  1  2  1  0
  2  3  1  0
  3  4  1  6
  5  7  1  0
  5  3  1  0
  5  6  1  1
  7  8  2  0
  7  9  1  0
  9 10  1  0
 10 13  1  0
 11 12  1  0
 10 11  1  6
 13 14  2  0
 13 17  1  0
 16 15  1  1
 16 18  1  0
 17 16  1  0
 18 20  1  0
 19 18  2  0
M  END
$$$$
