ICA.pdb
     RDKit          3D

 20 19  0  0  1  0  0  0  0  0999 V2000
   26.5832  -27.2864  -17.1878 C   0  0  0  0  0  0  0  0  0  0  0  0
   26.7032  -25.8191  -16.9611 C   0  0  0  0  0  0  0  0  0  0  0  0
   25.5435  -25.1724  -16.2640 C   0  0  2  0  0  0  0  0  0  0  0  0
   24.2651  -25.8013  -16.7518 C   0  0  0  0  0  0  0  0  0  0  0  0
   25.5602  -23.7079  -16.1342 C   0  0  2  0  0  0  0  0  0  0  0  0
   26.9490  -23.2775  -15.8415 N   0  0  0  0  0  0  0  0  0  0  0  0
   24.6745  -23.0634  -15.1859 C   0  0  0  0  0  0  0  0  0  0  0  0
   23.4226  -23.1873  -15.1952 O   0  0  0  0  0  0  0  0  0  0  0  0
   25.2164  -22.2321  -14.1673 N   0  0  0  0  0  0  0  0  0  0  0  0
   24.2896  -21.5058  -13.2739 C   0  0  1  0  0  0  0  0  0  0  0  0
   25.1693  -21.0497  -12.1251 C   0  0  0  0  0  0  0  0  0  0  0  0
   25.5135  -22.3152  -10.9128 S   0  0  0  0  0  0  0  0  0  0  0  0
   23.6596  -20.3971  -14.0123 C   0  0  0  0  0  0  0  0  0  0  0  0
   24.3247  -19.4662  -14.5509 O   0  0  0  0  0  0  0  0  0  0  0  0
   20.9535  -19.7268  -16.0927 C   0  0  0  0  0  0  0  0  0  0  0  0
   21.5858  -19.2287  -14.8176 C   0  0  2  0  0  0  0  0  0  0  0  0
   22.2506  -20.3414  -14.1448 N   0  0  0  0  0  0  0  0  0  0  0  0
   20.5962  -18.5875  -13.9075 C   0  0  0  0  0  0  0  0  0  0  0  0
   20.2482  -19.2259  -12.8813 O   0  0  0  0  0  0  0  0  0  0  0  0
   20.0507  -17.3423  -14.1348 O   0  0  0  0  0  0  0  0  0  0  0  0
  1  2  1  0
  2  3  1  0
  3  4  1  6
  5  7  1  0
  5  3  1  0
  5  6  1  1
  7  8  2  0
  7  9  1  0
  9 10  1  0
 10 13  1  0
 11 12  1  0
 10 11  1  1
 13 14  2  0
 13 17  1  0
 16 15  1  6
 16 18  1  0
 17 16  1  0
 18 20  1  0
 19 18  2  0
M  END
$$$$
