RAF.pdb
     RDKit          3D

 28 28  0  0  1  0  0  0  0  0999 V2000
   22.9164  -26.3704  -14.0793 N   0  0  0  0  0  0  0  0  0  0  0  0
   22.8023  -26.2674  -15.4926 C   0  0  0  0  0  0  0  0  0  0  0  0
   21.6092  -26.2399  -15.9800 N   0  0  0  0  0  0  0  0  0  0  0  0
   23.9389  -26.1970  -16.3453 N   0  0  0  0  0  0  0  0  0  0  0  0
   25.2628  -26.2293  -15.7633 C   0  0  0  0  0  0  0  0  0  0  0  0
   25.9579  -24.8901  -15.8876 C   0  0  0  0  0  0  0  0  0  0  0  0
   26.1045  -24.5627  -17.3321 C   0  0  0  0  0  0  0  0  0  0  0  0
   26.7437  -23.2186  -17.5833 C   0  0  2  0  0  0  0  0  0  0  0  0
   28.1001  -23.1423  -17.1426 N   0  0  0  0  0  0  0  0  0  0  0  0
   25.9734  -22.1036  -17.0209 C   0  0  0  0  0  0  0  0  0  0  0  0
   26.3849  -21.4146  -16.0594 O   0  0  0  0  0  0  0  0  0  0  0  0
   21.4544  -26.1224  -16.9987 C   0  0  0  0  0  0  0  0  0  0  0  0
   22.7294  -20.3595  -17.9663 C   0  0  1  0  0  0  0  0  0  0  0  0
   23.9400  -20.6178  -17.0966 N   0  0  0  0  0  0  0  0  0  0  0  0
   24.7059  -21.7706  -17.5708 C   0  0  0  0  0  0  0  0  0  0  0  0
   23.4349  -20.9743  -15.7389 O   0  0  0  0  0  0  0  0  0  0  0  0
   23.4487  -22.1825  -15.3974 N   0  0  0  0  0  0  0  0  0  0  0  0
   22.9468  -20.0206  -14.8301 C   0  0  1  0  0  0  0  0  0  0  0  0
   22.5259  -20.4468  -13.5203 C   0  0  0  0  0  0  0  0  0  0  0  0
   23.1605  -19.6120  -12.4355 C   0  0  0  0  0  0  0  0  0  0  0  0
   22.5911  -19.9689  -11.1416 C   0  0  0  0  0  0  0  0  0  0  0  0
   23.2385  -20.8666  -10.3322 C   0  0  0  0  0  0  0  0  0  0  0  0
   22.7488  -21.2191   -9.0762 C   0  0  0  0  0  0  0  0  0  0  0  0
   21.5643  -20.6249   -8.6587 C   0  0  0  0  0  0  0  0  0  0  0  0
   20.8906  -19.7215   -9.4450 C   0  0  0  0  0  0  0  0  0  0  0  0
   21.4254  -19.4016  -10.6985 C   0  0  0  0  0  0  0  0  0  0  0  0
   21.0535  -20.3537  -13.4918 O   0  0  0  0  0  0  0  0  0  0  0  0
   20.2863  -21.2653  -12.7840 O   0  0  0  0  0  0  0  0  0  0  0  0
  2  1  1  0
  2  4  1  0
  3  2  2  0
  4  5  1  0
  5  6  1  0
  6  7  1  0
  7  8  1  0
  8  9  1  1
 10  8  1  0
 11 10  2  0
 13 12  1  6
 13 15  1  0
 13 14  1  0
 14 10  1  0
 15 17  1  0
 16 15  2  0
 17 18  1  0
 18 26  1  0
 19 20  1  0
 18 19  1  6
 20 25  2  0
 21 22  2  0
 21 20  1  0
 22 23  1  0
 23 24  2  0
 25 24  1  0
 26 28  2  0
 26 27  1  0
M  END
$$$$
