RAF.pdb
     RDKit          3D

 28 28  0  0  1  0  0  0  0  0999 V2000
   30.6059  -25.7694  -16.8310 N   0  0  0  0  0  0  0  0  0  0  0  0
   29.3330  -26.3938  -16.9355 C   0  0  0  0  0  0  0  0  0  0  0  0
   29.2961  -27.6720  -16.7719 N   0  0  0  0  0  0  0  0  0  0  0  0
   28.1449  -25.6601  -17.2074 N   0  0  0  0  0  0  0  0  0  0  0  0
   28.1889  -24.2142  -17.1984 C   0  0  0  0  0  0  0  0  0  0  0  0
   28.2977  -23.6697  -15.7899 C   0  0  0  0  0  0  0  0  0  0  0  0
   27.0981  -22.8347  -15.5089 C   0  0  0  0  0  0  0  0  0  0  0  0
   26.7736  -21.8562  -16.6114 C   0  0  2  0  0  0  0  0  0  0  0  0
   27.7949  -20.8810  -16.8256 N   0  0  0  0  0  0  0  0  0  0  0  0
   25.4797  -21.1902  -16.4241 C   0  0  0  0  0  0  0  0  0  0  0  0
   25.3493  -20.1450  -15.7466 O   0  0  0  0  0  0  0  0  0  0  0  0
   28.4248  -28.2052  -16.9505 C   0  0  0  0  0  0  0  0  0  0  0  0
   22.0512  -21.4923  -17.9676 C   0  0  1  0  0  0  0  0  0  0  0  0
   22.9979  -21.1115  -16.8506 N   0  0  0  0  0  0  0  0  0  0  0  0
   24.3113  -21.7320  -17.0248 C   0  0  0  0  0  0  0  0  0  0  0  0
   22.4307  -21.6679  -15.5880 O   0  0  0  0  0  0  0  0  0  0  0  0
   22.7551  -22.8339  -15.2533 N   0  0  0  0  0  0  0  0  0  0  0  0
   21.5531  -20.9468  -14.7611 C   0  0  1  0  0  0  0  0  0  0  0  0
   21.1060  -21.5360  -13.5253 C   0  0  0  0  0  0  0  0  0  0  0  0
   21.4233  -20.6530  -12.3438 C   0  0  0  0  0  0  0  0  0  0  0  0
   20.8655  -19.3230  -12.5581 C   0  0  0  0  0  0  0  0  0  0  0  0
   19.6541  -18.9913  -12.0083 C   0  0  0  0  0  0  0  0  0  0  0  0
   19.0923  -17.7254  -12.1618 C   0  0  0  0  0  0  0  0  0  0  0  0
   19.8069  -16.7910  -12.9012 C   0  0  0  0  0  0  0  0  0  0  0  0
   21.0235  -17.0907  -13.4655 C   0  0  0  0  0  0  0  0  0  0  0  0
   21.5436  -18.3772  -13.2812 C   0  0  0  0  0  0  0  0  0  0  0  0
   19.6551  -21.7680  -13.6612 O   0  0  0  0  0  0  0  0  0  0  0  0
   18.9361  -21.2406  -14.7221 O   0  0  0  0  0  0  0  0  0  0  0  0
  2  1  1  0
  2  4  1  0
  3  2  2  0
  4  5  1  0
  5  6  1  0
  6  7  1  0
  7  8  1  0
  8  9  1  1
 10  8  1  0
 11 10  2  0
 13 12  1  6
 13 15  1  0
 13 14  1  0
 14 10  1  0
 15 17  1  0
 16 15  2  0
 17 18  1  0
 18 26  1  0
 19 20  1  0
 18 19  1  1
 20 25  2  0
 21 22  2  0
 21 20  1  0
 22 23  1  0
 23 24  2  0
 25 24  1  0
 26 28  2  0
 26 27  1  0
M  END
$$$$
