RAF.pdb
     RDKit          3D

 28 28  0  0  1  0  0  0  0  0999 V2000
   29.9026  -25.9949  -15.8784 N   0  0  0  0  0  0  0  0  0  0  0  0
   28.5465  -26.3874  -16.0461 C   0  0  0  0  0  0  0  0  0  0  0  0
   28.2501  -27.6037  -15.7387 N   0  0  0  0  0  0  0  0  0  0  0  0
   27.5495  -25.4949  -16.5292 N   0  0  0  0  0  0  0  0  0  0  0  0
   27.9499  -24.2194  -17.0817 C   0  0  0  0  0  0  0  0  0  0  0  0
   28.4683  -23.2862  -16.0081 C   0  0  0  0  0  0  0  0  0  0  0  0
   27.4089  -22.2897  -15.6922 C   0  0  0  0  0  0  0  0  0  0  0  0
   26.9630  -21.4847  -16.8888 C   0  0  2  0  0  0  0  0  0  0  0  0
   27.8252  -20.3864  -17.1891 N   0  0  0  0  0  0  0  0  0  0  0  0
   25.5772  -21.0153  -16.7796 C   0  0  0  0  0  0  0  0  0  0  0  0
   25.2761  -19.9082  -16.2775 O   0  0  0  0  0  0  0  0  0  0  0  0
   27.3007  -27.9804  -15.9182 C   0  0  0  0  0  0  0  0  0  0  0  0
   22.2476  -22.0938  -18.1752 C   0  0  1  0  0  0  0  0  0  0  0  0
   23.1158  -21.4171  -17.1374 N   0  0  0  0  0  0  0  0  0  0  0  0
   24.5144  -21.8302  -17.2550 C   0  0  0  0  0  0  0  0  0  0  0  0
   22.6465  -21.8864  -15.8013 O   0  0  0  0  0  0  0  0  0  0  0  0
   23.1435  -22.9400  -15.3326 N   0  0  0  0  0  0  0  0  0  0  0  0
   21.6767  -21.2035  -15.0485 C   0  0  1  0  0  0  0  0  0  0  0  0
   21.2645  -21.7412  -13.7775 C   0  0  0  0  0  0  0  0  0  0  0  0
   21.8681  -20.9721  -12.6285 C   0  0  0  0  0  0  0  0  0  0  0  0
   21.5657  -19.5529  -12.7718 C   0  0  0  0  0  0  0  0  0  0  0  0
   22.3599  -18.7592  -13.5585 C   0  0  0  0  0  0  0  0  0  0  0  0
   22.0967  -17.4040  -13.7485 C   0  0  0  0  0  0  0  0  0  0  0  0
   20.9865  -16.8694  -13.1067 C   0  0  0  0  0  0  0  0  0  0  0  0
   20.1699  -17.6369  -12.3114 C   0  0  0  0  0  0  0  0  0  0  0  0
   20.4786  -18.9932  -12.1537 C   0  0  0  0  0  0  0  0  0  0  0  0
   19.7897  -21.6968  -13.7512 O   0  0  0  0  0  0  0  0  0  0  0  0
   19.0696  -21.0455  -14.7400 O   0  0  0  0  0  0  0  0  0  0  0  0
  2  1  1  0
  2  4  1  0
  3  2  2  0
  4  5  1  0
  5  6  1  0
  6  7  1  0
  7  8  1  0
  8  9  1  1
 10  8  1  0
 11 10  2  0
 13 12  1  6
 13 15  1  0
 13 14  1  0
 14 10  1  0
 15 17  1  0
 16 15  2  0
 17 18  1  0
 18 26  1  0
 19 20  1  0
 18 19  1  1
 20 25  2  0
 21 22  2  0
 21 20  1  0
 22 23  1  0
 23 24  2  0
 25 24  1  0
 26 28  2  0
 26 27  1  0
M  END
$$$$
