RAF.pdb
     RDKit          3D

 28 28  0  0  1  0  0  0  0  0999 V2000
   14.6580   -9.8858  -17.6155 N   0  0  0  0  0  0  0  0  0  0  0  0
   15.0046  -11.0752  -18.3130 C   0  0  0  0  0  0  0  0  0  0  0  0
   14.2522  -12.1039  -18.1195 N   0  0  0  0  0  0  0  0  0  0  0  0
   16.1246  -11.1464  -19.1873 N   0  0  0  0  0  0  0  0  0  0  0  0
   17.3901  -10.5890  -18.7623 C   0  0  0  0  0  0  0  0  0  0  0  0
   18.1388  -11.5392  -17.8519 C   0  0  0  0  0  0  0  0  0  0  0  0
   19.4307  -10.9089  -17.4659 C   0  0  0  0  0  0  0  0  0  0  0  0
   20.3196  -10.5877  -18.6429 C   0  0  2  0  0  0  0  0  0  0  0  0
   21.1329  -11.6858  -19.0582 N   0  0  0  0  0  0  0  0  0  0  0  0
   21.1565   -9.4028  -18.4224 C   0  0  0  0  0  0  0  0  0  0  0  0
   22.1103   -9.3904  -17.6110 O   0  0  0  0  0  0  0  0  0  0  0  0
   14.4533  -13.0051  -18.5916 C   0  0  0  0  0  0  0  0  0  0  0  0
   21.3725   -5.9510  -20.0029 C   0  0  1  0  0  0  0  0  0  0  0  0
   21.7292   -7.0156  -18.9888 N   0  0  0  0  0  0  0  0  0  0  0  0
   20.8958   -8.2078  -19.1460 C   0  0  0  0  0  0  0  0  0  0  0  0
   21.4192   -6.4568  -17.6408 O   0  0  0  0  0  0  0  0  0  0  0  0
   20.2765   -6.6593  -17.1614 N   0  0  0  0  0  0  0  0  0  0  0  0
   22.3466   -5.7170  -16.8882 C   0  0  1  0  0  0  0  0  0  0  0  0
   21.9547   -5.1943  -15.6046 C   0  0  0  0  0  0  0  0  0  0  0  0
   22.9489   -5.5601  -14.5304 C   0  0  0  0  0  0  0  0  0  0  0  0
   22.8858   -6.9928  -14.2670 C   0  0  0  0  0  0  0  0  0  0  0  0
   21.9887   -7.4826  -13.3532 C   0  0  0  0  0  0  0  0  0  0  0  0
   21.8717   -8.8453  -13.0866 C   0  0  0  0  0  0  0  0  0  0  0  0
   22.7048   -9.7102  -13.7854 C   0  0  0  0  0  0  0  0  0  0  0  0
   23.6146   -9.2524  -14.7079 C   0  0  0  0  0  0  0  0  0  0  0  0
   23.6919   -7.8738  -14.9386 C   0  0  0  0  0  0  0  0  0  0  0  0
   21.8277   -3.7321  -15.7578 O   0  0  0  0  0  0  0  0  0  0  0  0
   22.1064   -3.1057  -16.9622 O   0  0  0  0  0  0  0  0  0  0  0  0
  2  1  1  0
  2  4  1  0
  3  2  2  0
  4  5  1  0
  5  6  1  0
  6  7  1  0
  7  8  1  0
  8  9  1  1
 10  8  1  0
 11 10  2  0
 13 12  1  6
 13 15  1  0
 13 14  1  0
 14 10  1  0
 15 17  1  0
 16 15  2  0
 17 18  1  0
 18 26  1  0
 19 20  1  0
 18 19  1  1
 20 25  2  0
 21 22  2  0
 21 20  1  0
 22 23  1  0
 23 24  2  0
 25 24  1  0
 26 28  2  0
 26 27  1  0
M  END
$$$$
