RAF.pdb
     RDKit          3D

 28 28  0  0  1  0  0  0  0  0999 V2000
   13.9597   -9.4246  -11.4069 N   0  0  0  0  0  0  0  0  0  0  0  0
   13.4755  -10.7201  -11.7363 C   0  0  0  0  0  0  0  0  0  0  0  0
   13.1030  -11.4692  -10.7555 N   0  0  0  0  0  0  0  0  0  0  0  0
   13.3984  -11.1858  -13.0783 N   0  0  0  0  0  0  0  0  0  0  0  0
   13.6622  -10.2653  -14.1626 C   0  0  0  0  0  0  0  0  0  0  0  0
   13.4576  -10.9215  -15.5116 C   0  0  0  0  0  0  0  0  0  0  0  0
   13.9047   -9.9778  -16.5721 C   0  0  0  0  0  0  0  0  0  0  0  0
   14.8618  -10.5947  -17.5629 C   0  0  2  0  0  0  0  0  0  0  0  0
   14.9737  -12.0131  -17.4387 N   0  0  0  0  0  0  0  0  0  0  0  0
   16.1957   -9.9844  -17.5274 C   0  0  0  0  0  0  0  0  0  0  0  0
   17.2268  -10.6301  -17.2302 O   0  0  0  0  0  0  0  0  0  0  0  0
   12.7129  -12.4145  -10.9279 C   0  0  0  0  0  0  0  0  0  0  0  0
   17.5876   -6.5799  -18.4869 C   0  0  1  0  0  0  0  0  0  0  0  0
   17.6723   -7.9821  -17.9254 N   0  0  0  0  0  0  0  0  0  0  0  0
   16.3520   -8.6066  -17.8386 C   0  0  0  0  0  0  0  0  0  0  0  0
   18.1774   -7.8633  -16.5267 O   0  0  0  0  0  0  0  0  0  0  0  0
   17.3445   -7.9052  -15.5879 N   0  0  0  0  0  0  0  0  0  0  0  0
   19.5386   -7.7071  -16.2162 C   0  0  2  0  0  0  0  0  0  0  0  0
   19.9371   -7.5869  -14.8373 C   0  0  0  0  0  0  0  0  0  0  0  0
   21.3583   -8.0483  -14.6291 C   0  0  0  0  0  0  0  0  0  0  0  0
   21.7201   -7.9127  -13.2232 C   0  0  0  0  0  0  0  0  0  0  0  0
   21.6828   -9.0067  -12.3975 C   0  0  0  0  0  0  0  0  0  0  0  0
   22.0451   -8.9337  -11.0539 C   0  0  0  0  0  0  0  0  0  0  0  0
   22.4527   -7.6988  -10.5649 C   0  0  0  0  0  0  0  0  0  0  0  0
   22.5017   -6.5828  -11.3653 C   0  0  0  0  0  0  0  0  0  0  0  0
   22.1274   -6.7102  -12.7082 C   0  0  0  0  0  0  0  0  0  0  0  0
   19.7608   -6.1708  -14.4620 O   0  0  0  0  0  0  0  0  0  0  0  0
   19.3201   -5.8083  -13.1992 O   0  0  0  0  0  0  0  0  0  0  0  0
  2  1  1  0
  2  4  1  0
  3  2  2  0
  4  5  1  0
  5  6  1  0
  6  7  1  0
  7  8  1  0
  8  9  1  1
 10  8  1  0
 11 10  2  0
 13 12  1  6
 13 15  1  0
 13 14  1  0
 14 10  1  0
 15 17  1  0
 16 15  2  0
 17 18  1  0
 18 26  1  0
 19 20  1  0
 18 19  1  6
 20 25  2  0
 21 22  2  0
 21 20  1  0
 22 23  1  0
 23 24  2  0
 25 24  1  0
 26 28  2  0
 26 27  1  0
M  END
$$$$
