RAF.pdb
     RDKit          3D

 28 28  0  0  1  0  0  0  0  0999 V2000
   28.9246  -27.5437  -17.1257 N   0  0  0  0  0  0  0  0  0  0  0  0
   27.5420  -27.8137  -16.9339 C   0  0  0  0  0  0  0  0  0  0  0  0
   27.2175  -29.0341  -16.6749 N   0  0  0  0  0  0  0  0  0  0  0  0
   26.5488  -26.7988  -17.0199 N   0  0  0  0  0  0  0  0  0  0  0  0
   26.9544  -25.4306  -17.2571 C   0  0  0  0  0  0  0  0  0  0  0  0
   27.3755  -24.7449  -15.9746 C   0  0  0  0  0  0  0  0  0  0  0  0
   26.3573  -23.7157  -15.6293 C   0  0  0  0  0  0  0  0  0  0  0  0
   26.3167  -22.5595  -16.5989 C   0  0  2  0  0  0  0  0  0  0  0  0
   27.5080  -21.7717  -16.5953 N   0  0  0  0  0  0  0  0  0  0  0  0
   25.1465  -21.6946  -16.4108 C   0  0  0  0  0  0  0  0  0  0  0  0
   25.2091  -20.5912  -15.8216 O   0  0  0  0  0  0  0  0  0  0  0  0
   26.2217  -29.3177  -16.6164 C   0  0  0  0  0  0  0  0  0  0  0  0
   21.5836  -21.7127  -17.7049 C   0  0  1  0  0  0  0  0  0  0  0  0
   22.6966  -21.2471  -16.7921 N   0  0  0  0  0  0  0  0  0  0  0  0
   23.8786  -22.1015  -16.9075 C   0  0  0  0  0  0  0  0  0  0  0  0
   22.2035  -21.3930  -15.3918 O   0  0  0  0  0  0  0  0  0  0  0  0
   22.3442  -22.5043  -14.8243 N   0  0  0  0  0  0  0  0  0  0  0  0
   21.5912  -20.3454  -14.6838 C   0  0  1  0  0  0  0  0  0  0  0  0
   21.2093  -20.5521  -13.3105 C   0  0  0  0  0  0  0  0  0  0  0  0
   21.8991  -19.5754  -12.3906 C   0  0  0  0  0  0  0  0  0  0  0  0
   23.2497  -20.0413  -12.0996 C   0  0  0  0  0  0  0  0  0  0  0  0
   24.2799  -19.7300  -12.9491 C   0  0  0  0  0  0  0  0  0  0  0  0
   25.5917  -20.1288  -12.7006 C   0  0  0  0  0  0  0  0  0  0  0  0
   25.8316  -20.8644  -11.5466 C   0  0  0  0  0  0  0  0  0  0  0  0
   24.8221  -21.1932  -10.6740 C   0  0  0  0  0  0  0  0  0  0  0  0
   23.5217  -20.7679  -10.9703 C   0  0  0  0  0  0  0  0  0  0  0  0
   19.7410  -20.4185  -13.2491 O   0  0  0  0  0  0  0  0  0  0  0  0
   19.0024  -20.0521  -14.3629 O   0  0  0  0  0  0  0  0  0  0  0  0
  2  1  1  0
  2  4  1  0
  3  2  2  0
  4  5  1  0
  5  6  1  0
  6  7  1  0
  7  8  1  0
  8  9  1  1
 10  8  1  0
 11 10  2  0
 13 12  1  6
 13 15  1  0
 13 14  1  0
 14 10  1  0
 15 17  1  0
 16 15  2  0
 17 18  1  0
 18 26  1  0
 19 20  1  0
 18 19  1  1
 20 25  2  0
 21 22  2  0
 21 20  1  0
 22 23  1  0
 23 24  2  0
 25 24  1  0
 26 28  2  0
 26 27  1  0
M  END
$$$$
