KWM.pdb
     RDKit          3D

 32 33  0  0  1  0  0  0  0  0999 V2000
    9.9589  -17.4769   18.9830 N   0  0  0  0  0  0  0  0  0  0  0  0
   10.8200  -16.3496   19.3064 C   0  0  1  0  0  0  0  0  0  0  0  0
   10.7467  -15.2788   18.2317 C   0  0  0  0  0  0  0  0  0  0  0  0
   10.7584  -15.9082   16.8584 C   0  0  0  0  0  0  0  0  0  0  0  0
    9.4106  -15.7477   16.2057 C   0  0  0  0  0  0  0  0  0  0  0  0
    9.3816  -16.3016   14.7993 C   0  0  0  0  0  0  0  0  0  0  0  0
    8.0010  -16.1633   14.3245 N   0  0  0  0  0  0  0  0  0  0  0  0
   10.4614  -15.7887   20.6450 C   0  0  0  0  0  0  0  0  0  0  0  0
   10.9899  -14.7453   21.0959 O   0  0  0  0  0  0  0  0  0  0  0  0
    9.4974  -16.4337   21.4533 N   0  0  0  0  0  0  0  0  0  0  0  0
    9.0811  -15.8942   22.7395 C   0  0  1  0  0  0  0  0  0  0  0  0
    7.6197  -16.0142   22.9131 C   0  0  0  0  0  0  0  0  0  0  0  0
    7.0032  -15.4609   24.0960 C   0  0  0  0  0  0  0  0  0  0  0  0
    6.3551  -16.1280   25.1305 C   0  0  0  0  0  0  0  0  0  0  0  0
    5.9256  -15.1986   25.9933 N   0  0  0  0  0  0  0  0  0  0  0  0
    6.2642  -13.9689   25.5669 C   0  0  0  0  0  0  0  0  0  0  0  0
    6.0239  -12.7366   26.1417 C   0  0  0  0  0  0  0  0  0  0  0  0
    6.4971  -11.6314   25.4662 C   0  0  0  0  0  0  0  0  0  0  0  0
    7.1822  -11.7055   24.2718 C   0  0  0  0  0  0  0  0  0  0  0  0
    7.4044  -12.9554   23.7263 C   0  0  0  0  0  0  0  0  0  0  0  0
    6.9471  -14.0869   24.3708 C   0  0  0  0  0  0  0  0  0  0  0  0
    9.9196  -16.5731   23.7591 C   0  0  0  0  0  0  0  0  0  0  0  0
   10.5165  -17.6489   23.4359 O   0  0  0  0  0  0  0  0  0  0  0  0
    9.7357  -13.2284   29.3030 C   0  0  0  0  0  0  0  0  0  0  0  0
   10.9299  -14.6122   29.4033 S   0  0  0  0  0  0  0  0  0  0  0  0
   10.4693  -15.8857   28.1662 C   0  0  0  0  0  0  0  0  0  0  0  0
   11.4964  -15.8335   27.0887 C   0  0  0  0  0  0  0  0  0  0  0  0
   11.1460  -16.6837   25.8903 C   0  0  2  0  0  0  0  0  0  0  0  0
   10.1124  -16.1075   25.0835 N   0  0  0  0  0  0  0  0  0  0  0  0
   10.7355  -18.0517   26.2985 C   0  0  0  0  0  0  0  0  0  0  0  0
   11.5260  -18.8618   26.8408 O   0  0  0  0  0  0  0  0  0  0  0  0
    9.4097  -18.4542   26.0682 O   0  0  0  0  0  0  0  0  0  0  0  0
  2  3  1  0
  2  1  1  6
  3  4  1  0
  5  4  1  0
  6  5  1  0
  7  6  1  0
  8  9  2  0
  8  2  1  0
 10  8  1  0
 11 22  1  0
 11 10  1  0
 11 12  1  1
 13 12  1  0
 14 13  2  0
 15 14  1  0
 16 15  1  0
 16 21  2  0
 17 16  1  0
 18 17  2  0
 18 19  1  0
 19 20  2  0
 20 21  1  0
 21 13  1  0
 22 29  1  0
 23 22  2  0
 24 25  1  0
 25 26  1  0
 26 27  1  0
 28 27  1  1
 28 30  1  0
 29 28  1  0
 30 31  2  0
 30 32  1  0
M  END
$$$$
