KWM.pdb
     RDKit          3D

 32 33  0  0  1  0  0  0  0  0999 V2000
    8.6072  -16.6551   19.1250 N   0  0  0  0  0  0  0  0  0  0  0  0
    9.4085  -15.4773   19.4211 C   0  0  1  0  0  0  0  0  0  0  0  0
    8.8880  -14.2598   18.6768 C   0  0  0  0  0  0  0  0  0  0  0  0
    7.8791  -14.6725   17.6309 C   0  0  0  0  0  0  0  0  0  0  0  0
    8.1188  -13.9108   16.3539 C   0  0  0  0  0  0  0  0  0  0  0  0
    7.1067  -14.2487   15.2827 C   0  0  0  0  0  0  0  0  0  0  0  0
    7.4089  -13.3860   14.1359 N   0  0  0  0  0  0  0  0  0  0  0  0
    9.4423  -15.2285   20.8949 C   0  0  0  0  0  0  0  0  0  0  0  0
   10.1110  -14.2964   21.4002 O   0  0  0  0  0  0  0  0  0  0  0  0
    8.7062  -16.0550   21.7745 N   0  0  0  0  0  0  0  0  0  0  0  0
    8.8364  -15.9544   23.2207 C   0  0  1  0  0  0  0  0  0  0  0  0
    7.6294  -16.4717   23.8957 C   0  0  0  0  0  0  0  0  0  0  0  0
    6.9604  -15.6456   24.8732 C   0  0  0  0  0  0  0  0  0  0  0  0
    6.0697  -16.0290   25.8706 C   0  0  0  0  0  0  0  0  0  0  0  0
    5.6926  -14.9168   26.5137 N   0  0  0  0  0  0  0  0  0  0  0  0
    6.2949  -13.8386   25.9813 C   0  0  0  0  0  0  0  0  0  0  0  0
    6.1947  -12.5068   26.3318 C   0  0  0  0  0  0  0  0  0  0  0  0
    6.9412  -11.6112   25.5954 C   0  0  0  0  0  0  0  0  0  0  0  0
    7.7617  -11.9822   24.5512 C   0  0  0  0  0  0  0  0  0  0  0  0
    7.8372  -13.3237   24.2287 C   0  0  0  0  0  0  0  0  0  0  0  0
    7.1059  -14.2524   24.9410 C   0  0  0  0  0  0  0  0  0  0  0  0
   10.1163  -16.6232   23.5643 C   0  0  0  0  0  0  0  0  0  0  0  0
   10.2421  -17.8625   23.3062 O   0  0  0  0  0  0  0  0  0  0  0  0
   10.3120  -13.2839   28.5619 C   0  0  0  0  0  0  0  0  0  0  0  0
   10.0680  -15.0313   29.0498 S   0  0  0  0  0  0  0  0  0  0  0  0
   11.0547  -16.1030   27.9352 C   0  0  0  0  0  0  0  0  0  0  0  0
   10.6748  -15.7428   26.5407 C   0  0  0  0  0  0  0  0  0  0  0  0
   11.6048  -16.3230   25.5014 C   0  0  2  0  0  0  0  0  0  0  0  0
   11.2268  -15.9786   24.1636 N   0  0  0  0  0  0  0  0  0  0  0  0
   11.6887  -17.8016   25.6151 C   0  0  0  0  0  0  0  0  0  0  0  0
   10.6978  -18.5513   25.4376 O   0  0  0  0  0  0  0  0  0  0  0  0
   12.9265  -18.3837   25.9341 O   0  0  0  0  0  0  0  0  0  0  0  0
  2  3  1  0
  2  1  1  1
  3  4  1  0
  5  4  1  0
  6  5  1  0
  7  6  1  0
  8  9  2  0
  8  2  1  0
 10  8  1  0
 11 22  1  0
 11 10  1  0
 11 12  1  1
 13 12  1  0
 14 13  2  0
 15 14  1  0
 16 15  1  0
 16 21  2  0
 17 16  1  0
 18 17  2  0
 18 19  1  0
 19 20  2  0
 20 21  1  0
 21 13  1  0
 22 29  1  0
 23 22  2  0
 24 25  1  0
 25 26  1  0
 26 27  1  0
 28 27  1  1
 28 30  1  0
 29 28  1  0
 30 31  2  0
 30 32  1  0
M  END
$$$$
