KWM.pdb
     RDKit          3D

 32 33  0  0  1  0  0  0  0  0999 V2000
    9.8414  -19.0493   19.6581 N   0  0  0  0  0  0  0  0  0  0  0  0
   10.7607  -17.9220   19.6870 C   0  0  1  0  0  0  0  0  0  0  0  0
   10.7281  -17.1553   18.3761 C   0  0  0  0  0  0  0  0  0  0  0  0
    9.6781  -17.7304   17.4547 C   0  0  0  0  0  0  0  0  0  0  0  0
   10.3227  -18.2410   16.1929 C   0  0  0  0  0  0  0  0  0  0  0  0
    9.3105  -18.7676   15.2010 C   0  0  0  0  0  0  0  0  0  0  0  0
   10.0750  -19.3791   14.1092 N   0  0  0  0  0  0  0  0  0  0  0  0
   10.4456  -17.0234   20.8395 C   0  0  0  0  0  0  0  0  0  0  0  0
   11.0538  -15.9442   21.0314 O   0  0  0  0  0  0  0  0  0  0  0  0
    9.4332  -17.3750   21.7615 N   0  0  0  0  0  0  0  0  0  0  0  0
    9.0644  -16.5093   22.8721 C   0  0  1  0  0  0  0  0  0  0  0  0
    7.6173  -16.5984   23.1515 C   0  0  0  0  0  0  0  0  0  0  0  0
    7.0712  -15.8746   24.2755 C   0  0  0  0  0  0  0  0  0  0  0  0
    6.4863  -16.3796   25.4323 C   0  0  0  0  0  0  0  0  0  0  0  0
    6.1075  -15.3317   26.1746 N   0  0  0  0  0  0  0  0  0  0  0  0
    6.4187  -14.1794   25.5547 C   0  0  0  0  0  0  0  0  0  0  0  0
    6.2113  -12.8750   25.9573 C   0  0  0  0  0  0  0  0  0  0  0  0
    6.6422  -11.8831   25.1016 C   0  0  0  0  0  0  0  0  0  0  0  0
    7.2556  -12.1349   23.8926 C   0  0  0  0  0  0  0  0  0  0  0  0
    7.4466  -13.4524   23.5225 C   0  0  0  0  0  0  0  0  0  0  0  0
    7.0297  -14.4749   24.3504 C   0  0  0  0  0  0  0  0  0  0  0  0
    9.9708  -16.8698   23.9910 C   0  0  0  0  0  0  0  0  0  0  0  0
    9.8202  -18.0003   24.5543 O   0  0  0  0  0  0  0  0  0  0  0  0
   10.2814  -12.4493   28.6400 C   0  0  0  0  0  0  0  0  0  0  0  0
    9.7289  -14.1422   29.0639 S   0  0  0  0  0  0  0  0  0  0  0  0
   10.7987  -15.3520   28.1942 C   0  0  0  0  0  0  0  0  0  0  0  0
   10.4564  -15.2702   26.7469 C   0  0  0  0  0  0  0  0  0  0  0  0
   11.3614  -16.1058   25.8726 C   0  0  2  0  0  0  0  0  0  0  0  0
   11.0085  -16.0415   24.4861 N   0  0  0  0  0  0  0  0  0  0  0  0
   11.3700  -17.5270   26.3045 C   0  0  0  0  0  0  0  0  0  0  0  0
   11.9866  -17.9206   27.3244 O   0  0  0  0  0  0  0  0  0  0  0  0
   10.6594  -18.4676   25.5409 O   0  0  0  0  0  0  0  0  0  0  0  0
  2  3  1  0
  2  1  1  6
  3  4  1  0
  5  4  1  0
  6  5  1  0
  7  6  1  0
  8  9  2  0
  8  2  1  0
 10  8  1  0
 11 22  1  0
 11 10  1  0
 11 12  1  1
 13 12  1  0
 14 13  2  0
 15 14  1  0
 16 15  1  0
 16 21  2  0
 17 16  1  0
 18 17  2  0
 18 19  1  0
 19 20  2  0
 20 21  1  0
 21 13  1  0
 22 29  1  0
 23 22  2  0
 24 25  1  0
 25 26  1  0
 26 27  1  0
 28 27  1  1
 28 30  1  0
 29 28  1  0
 30 31  2  0
 30 32  1  0
M  END
$$$$
