KWM.pdb
     RDKit          3D

 32 33  0  0  1  0  0  0  0  0999 V2000
    9.4308  -18.6715   19.3307 N   0  0  0  0  0  0  0  0  0  0  0  0
    9.8453  -17.3023   19.0657 C   0  0  1  0  0  0  0  0  0  0  0  0
    9.1806  -16.7622   17.8112 C   0  0  0  0  0  0  0  0  0  0  0  0
    9.2897  -17.7622   16.6842 C   0  0  0  0  0  0  0  0  0  0  0  0
   10.2244  -17.2439   15.6230 C   0  0  0  0  0  0  0  0  0  0  0  0
   10.2448  -18.1232   14.3934 C   0  0  0  0  0  0  0  0  0  0  0  0
   11.0936  -17.4445   13.4088 N   0  0  0  0  0  0  0  0  0  0  0  0
    9.5490  -16.4319   20.2445 C   0  0  0  0  0  0  0  0  0  0  0  0
    9.7876  -15.2013   20.2435 O   0  0  0  0  0  0  0  0  0  0  0  0
    8.9805  -16.9856   21.4145 N   0  0  0  0  0  0  0  0  0  0  0  0
    8.6011  -16.1627   22.5537 C   0  0  1  0  0  0  0  0  0  0  0  0
    7.2503  -16.5173   23.0332 C   0  0  0  0  0  0  0  0  0  0  0  0
    6.6885  -15.7971   24.1517 C   0  0  0  0  0  0  0  0  0  0  0  0
    5.9754  -16.2969   25.2366 C   0  0  0  0  0  0  0  0  0  0  0  0
    5.6375  -15.2526   26.0034 N   0  0  0  0  0  0  0  0  0  0  0  0
    6.0965  -14.1077   25.4676 C   0  0  0  0  0  0  0  0  0  0  0  0
    5.9774  -12.8091   25.9215 C   0  0  0  0  0  0  0  0  0  0  0  0
    6.5587  -11.8242   25.1508 C   0  0  0  0  0  0  0  0  0  0  0  0
    7.2360  -12.0774   23.9767 C   0  0  0  0  0  0  0  0  0  0  0  0
    7.3353  -13.3890   23.5534 C   0  0  0  0  0  0  0  0  0  0  0  0
    6.7673  -14.4043   24.2958 C   0  0  0  0  0  0  0  0  0  0  0  0
    9.7022  -16.2964   23.5402 C   0  0  0  0  0  0  0  0  0  0  0  0
   10.7814  -16.8608   23.1728 O   0  0  0  0  0  0  0  0  0  0  0  0
    9.8291  -13.8150   29.4606 C   0  0  0  0  0  0  0  0  0  0  0  0
   11.5929  -14.2940   29.3570 S   0  0  0  0  0  0  0  0  0  0  0  0
   11.8151  -15.4417   27.9436 C   0  0  0  0  0  0  0  0  0  0  0  0
   10.6985  -15.1793   26.9935 C   0  0  0  0  0  0  0  0  0  0  0  0
   10.7809  -16.0088   25.7339 C   0  0  2  0  0  0  0  0  0  0  0  0
    9.6453  -15.8346   24.8787 N   0  0  0  0  0  0  0  0  0  0  0  0
   10.9348  -17.4529   26.0458 C   0  0  0  0  0  0  0  0  0  0  0  0
   12.0343  -17.9606   26.3756 O   0  0  0  0  0  0  0  0  0  0  0  0
    9.8045  -18.2832   25.9687 O   0  0  0  0  0  0  0  0  0  0  0  0
  2  3  1  0
  2  1  1  1
  3  4  1  0
  5  4  1  0
  6  5  1  0
  7  6  1  0
  8  9  2  0
  8  2  1  0
 10  8  1  0
 11 22  1  0
 11 10  1  0
 11 12  1  1
 13 12  1  0
 14 13  2  0
 15 14  1  0
 16 15  1  0
 16 21  2  0
 17 16  1  0
 18 17  2  0
 18 19  1  0
 19 20  2  0
 20 21  1  0
 21 13  1  0
 22 29  1  0
 23 22  2  0
 24 25  1  0
 25 26  1  0
 26 27  1  0
 28 27  1  1
 28 30  1  0
 29 28  1  0
 30 31  2  0
 30 32  1  0
M  END
$$$$
