KWM.pdb
     RDKit          3D

 32 33  0  0  1  0  0  0  0  0999 V2000
    8.9516  -17.5985   18.2862 N   0  0  0  0  0  0  0  0  0  0  0  0
    9.9083  -17.7065   19.3769 C   0  0  1  0  0  0  0  0  0  0  0  0
   11.3235  -17.4434   18.8919 C   0  0  0  0  0  0  0  0  0  0  0  0
   11.6991  -18.4229   17.8048 C   0  0  0  0  0  0  0  0  0  0  0  0
   13.1249  -18.1958   17.3758 C   0  0  0  0  0  0  0  0  0  0  0  0
   13.5753  -19.1855   16.3255 C   0  0  0  0  0  0  0  0  0  0  0  0
   14.9221  -18.7750   15.9153 N   0  0  0  0  0  0  0  0  0  0  0  0
    9.5410  -16.7728   20.4852 C   0  0  0  0  0  0  0  0  0  0  0  0
    9.5031  -15.5299   20.3271 O   0  0  0  0  0  0  0  0  0  0  0  0
    9.2206  -17.2779   21.7662 N   0  0  0  0  0  0  0  0  0  0  0  0
    8.7805  -16.4124   22.8506 C   0  0  1  0  0  0  0  0  0  0  0  0
    7.4006  -16.7411   23.2602 C   0  0  0  0  0  0  0  0  0  0  0  0
    6.7350  -15.9028   24.2296 C   0  0  0  0  0  0  0  0  0  0  0  0
    5.5886  -16.1729   24.9698 C   0  0  0  0  0  0  0  0  0  0  0  0
    5.3355  -15.0911   25.7170 N   0  0  0  0  0  0  0  0  0  0  0  0
    6.2600  -14.1398   25.4953 C   0  0  0  0  0  0  0  0  0  0  0  0
    6.3816  -12.8797   26.0466 C   0  0  0  0  0  0  0  0  0  0  0  0
    7.4471  -12.1142   25.6217 C   0  0  0  0  0  0  0  0  0  0  0  0
    8.3712  -12.5451   24.6934 C   0  0  0  0  0  0  0  0  0  0  0  0
    8.2178  -13.8118   24.1632 C   0  0  0  0  0  0  0  0  0  0  0  0
    7.1647  -14.6099   24.5618 C   0  0  0  0  0  0  0  0  0  0  0  0
    9.8194  -16.5173   23.9057 C   0  0  0  0  0  0  0  0  0  0  0  0
   10.9009  -17.1294   23.6341 O   0  0  0  0  0  0  0  0  0  0  0  0
   10.4938  -12.7980   28.9108 C   0  0  0  0  0  0  0  0  0  0  0  0
   11.6097  -14.0904   29.5707 S   0  0  0  0  0  0  0  0  0  0  0  0
   11.7342  -15.4502   28.3459 C   0  0  0  0  0  0  0  0  0  0  0  0
   10.7317  -15.1666   27.2814 C   0  0  0  0  0  0  0  0  0  0  0  0
   10.7604  -16.1711   26.1536 C   0  0  2  0  0  0  0  0  0  0  0  0
    9.6998  -15.9780   25.2106 N   0  0  0  0  0  0  0  0  0  0  0  0
   10.7035  -17.5637   26.6674 C   0  0  0  0  0  0  0  0  0  0  0  0
    9.6335  -18.2158   26.7378 O   0  0  0  0  0  0  0  0  0  0  0  0
   11.8951  -18.1746   27.0913 O   0  0  0  0  0  0  0  0  0  0  0  0
  2  3  1  0
  2  1  1  6
  3  4  1  0
  5  4  1  0
  6  5  1  0
  7  6  1  0
  8  9  2  0
  8  2  1  0
 10  8  1  0
 11 22  1  0
 11 10  1  0
 11 12  1  1
 13 12  1  0
 14 13  2  0
 15 14  1  0
 16 15  1  0
 16 21  2  0
 17 16  1  0
 18 17  2  0
 18 19  1  0
 19 20  2  0
 20 21  1  0
 21 13  1  0
 22 29  1  0
 23 22  2  0
 24 25  1  0
 25 26  1  0
 26 27  1  0
 28 27  1  1
 28 30  1  0
 29 28  1  0
 30 31  2  0
 30 32  1  0
M  END
$$$$
