KWM.pdb
     RDKit          3D

 32 33  0  0  1  0  0  0  0  0999 V2000
    9.7779  -15.9676   18.2643 N   0  0  0  0  0  0  0  0  0  0  0  0
    9.9582  -16.8662   19.3942 C   0  0  1  0  0  0  0  0  0  0  0  0
   11.2931  -17.5864   19.3132 C   0  0  0  0  0  0  0  0  0  0  0  0
   11.3578  -18.4390   18.0678 C   0  0  0  0  0  0  0  0  0  0  0  0
   12.5794  -19.3190   18.1077 C   0  0  0  0  0  0  0  0  0  0  0  0
   12.6969  -20.1979   16.8832 C   0  0  0  0  0  0  0  0  0  0  0  0
   13.9824  -20.8952   16.9916 N   0  0  0  0  0  0  0  0  0  0  0  0
    9.8333  -16.1153   20.6809 C   0  0  0  0  0  0  0  0  0  0  0  0
   10.5265  -15.1018   20.9333 O   0  0  0  0  0  0  0  0  0  0  0  0
    8.9117  -16.5375   21.6661 N   0  0  0  0  0  0  0  0  0  0  0  0
    8.7861  -15.8601   22.9484 C   0  0  1  0  0  0  0  0  0  0  0  0
    7.3752  -15.5322   23.2351 C   0  0  0  0  0  0  0  0  0  0  0  0
    7.0132  -15.0739   24.5558 C   0  0  0  0  0  0  0  0  0  0  0  0
    6.4530  -15.7982   25.6032 C   0  0  0  0  0  0  0  0  0  0  0  0
    6.2711  -14.9470   26.6206 N   0  0  0  0  0  0  0  0  0  0  0  0
    6.6854  -13.7133   26.2813 C   0  0  0  0  0  0  0  0  0  0  0  0
    6.6820  -12.5458   27.0185 C   0  0  0  0  0  0  0  0  0  0  0  0
    7.1763  -11.4170   26.3994 C   0  0  0  0  0  0  0  0  0  0  0  0
    7.6609  -11.4077   25.1085 C   0  0  0  0  0  0  0  0  0  0  0  0
    7.6488  -12.5946   24.4010 C   0  0  0  0  0  0  0  0  0  0  0  0
    7.1624  -13.7469   24.9842 C   0  0  0  0  0  0  0  0  0  0  0  0
    9.4711  -16.7279   23.9389 C   0  0  0  0  0  0  0  0  0  0  0  0
    9.2970  -17.9859   23.8670 O   0  0  0  0  0  0  0  0  0  0  0  0
   15.5562  -17.2982   22.9400 C   0  0  0  0  0  0  0  0  0  0  0  0
   14.8115  -17.1285   24.6036 S   0  0  0  0  0  0  0  0  0  0  0  0
   12.9870  -17.2406   24.4524 C   0  0  0  0  0  0  0  0  0  0  0  0
   12.4324  -17.1547   25.8321 C   0  0  0  0  0  0  0  0  0  0  0  0
   10.9229  -17.1948   25.8708 C   0  0  2  0  0  0  0  0  0  0  0  0
   10.3191  -16.2573   24.9721 N   0  0  0  0  0  0  0  0  0  0  0  0
   10.4099  -16.9492   27.2430 C   0  0  0  0  0  0  0  0  0  0  0  0
   10.7549  -17.6450   28.2290 O   0  0  0  0  0  0  0  0  0  0  0  0
    9.5027  -15.8961   27.4447 O   0  0  0  0  0  0  0  0  0  0  0  0
  2  3  1  0
  2  1  1  6
  3  4  1  0
  5  4  1  0
  6  5  1  0
  7  6  1  0
  8  9  2  0
  8  2  1  0
 10  8  1  0
 11 22  1  0
 11 10  1  0
 11 12  1  1
 13 12  1  0
 14 13  2  0
 15 14  1  0
 16 15  1  0
 16 21  2  0
 17 16  1  0
 18 17  2  0
 18 19  1  0
 19 20  2  0
 20 21  1  0
 21 13  1  0
 22 29  1  0
 23 22  2  0
 24 25  1  0
 25 26  1  0
 26 27  1  0
 28 27  1  1
 28 30  1  0
 29 28  1  0
 30 31  2  0
 30 32  1  0
M  END
$$$$
