KWM.pdb
     RDKit          3D

 32 33  0  0  1  0  0  0  0  0999 V2000
    9.0321  -16.0227   18.6342 N   0  0  0  0  0  0  0  0  0  0  0  0
    9.4597  -16.8944   19.7177 C   0  0  1  0  0  0  0  0  0  0  0  0
   10.8639  -17.4205   19.4754 C   0  0  0  0  0  0  0  0  0  0  0  0
   10.8818  -18.3452   18.2809 C   0  0  0  0  0  0  0  0  0  0  0  0
   12.2640  -18.9112   18.0872 C   0  0  0  0  0  0  0  0  0  0  0  0
   12.3227  -19.9153   16.9585 C   0  0  0  0  0  0  0  0  0  0  0  0
   13.7230  -20.3364   16.8467 N   0  0  0  0  0  0  0  0  0  0  0  0
    9.3765  -16.1764   21.0264 C   0  0  0  0  0  0  0  0  0  0  0  0
    9.7766  -14.9970   21.1683 O   0  0  0  0  0  0  0  0  0  0  0  0
    8.8336  -16.8224   22.1607 N   0  0  0  0  0  0  0  0  0  0  0  0
    8.7916  -16.1836   23.4680 C   0  0  1  0  0  0  0  0  0  0  0  0
    7.6087  -16.6263   24.2329 C   0  0  0  0  0  0  0  0  0  0  0  0
    6.8045  -15.6420   24.9184 C   0  0  0  0  0  0  0  0  0  0  0  0
    5.6138  -15.8252   25.6140 C   0  0  0  0  0  0  0  0  0  0  0  0
    5.2247  -14.6230   26.0566 N   0  0  0  0  0  0  0  0  0  0  0  0
    6.1037  -13.6767   25.6815 C   0  0  0  0  0  0  0  0  0  0  0  0
    6.0937  -12.3166   25.9196 C   0  0  0  0  0  0  0  0  0  0  0  0
    7.1434  -11.5863   25.4033 C   0  0  0  0  0  0  0  0  0  0  0  0
    8.1750  -12.1448   24.6785 C   0  0  0  0  0  0  0  0  0  0  0  0
    8.1518  -13.5090   24.4600 C   0  0  0  0  0  0  0  0  0  0  0  0
    7.1190  -14.2760   24.9596 C   0  0  0  0  0  0  0  0  0  0  0  0
   10.1118  -16.4448   24.0942 C   0  0  0  0  0  0  0  0  0  0  0  0
   10.8914  -17.2833   23.5399 O   0  0  0  0  0  0  0  0  0  0  0  0
    8.8614  -14.1987   28.8555 C   0  0  0  0  0  0  0  0  0  0  0  0
   10.6867  -14.2731   28.9729 S   0  0  0  0  0  0  0  0  0  0  0  0
   11.2670  -15.8435   28.2235 C   0  0  0  0  0  0  0  0  0  0  0  0
   12.1788  -15.4776   27.1040 C   0  0  0  0  0  0  0  0  0  0  0  0
   11.8547  -16.1931   25.8138 C   0  0  2  0  0  0  0  0  0  0  0  0
   10.5798  -15.8214   25.2775 N   0  0  0  0  0  0  0  0  0  0  0  0
   11.8953  -17.6678   25.9877 C   0  0  0  0  0  0  0  0  0  0  0  0
   12.9418  -18.3402   25.8212 O   0  0  0  0  0  0  0  0  0  0  0  0
   10.7151  -18.3359   26.3532 O   0  0  0  0  0  0  0  0  0  0  0  0
  2  3  1  0
  2  1  1  6
  3  4  1  0
  5  4  1  0
  6  5  1  0
  7  6  1  0
  8  9  2  0
  8  2  1  0
 10  8  1  0
 11 22  1  0
 11 10  1  0
 11 12  1  1
 13 12  1  0
 14 13  2  0
 15 14  1  0
 16 15  1  0
 16 21  2  0
 17 16  1  0
 18 17  2  0
 18 19  1  0
 19 20  2  0
 20 21  1  0
 21 13  1  0
 22 29  1  0
 23 22  2  0
 24 25  1  0
 25 26  1  0
 26 27  1  0
 28 27  1  1
 28 30  1  0
 29 28  1  0
 30 31  2  0
 30 32  1  0
M  END
$$$$
