KWM.pdb
     RDKit          3D

 32 33  0  0  1  0  0  0  0  0999 V2000
    9.6856  -19.3969   20.0682 N   0  0  0  0  0  0  0  0  0  0  0  0
   10.5472  -18.2752   19.7274 C   0  0  1  0  0  0  0  0  0  0  0  0
   10.2618  -17.7727   18.3226 C   0  0  0  0  0  0  0  0  0  0  0  0
    9.0979  -18.5238   17.7201 C   0  0  0  0  0  0  0  0  0  0  0  0
    8.1670  -17.5636   17.0275 C   0  0  0  0  0  0  0  0  0  0  0  0
    8.3680  -17.5454   15.5291 C   0  0  0  0  0  0  0  0  0  0  0  0
    8.0361  -18.8900   15.0470 N   0  0  0  0  0  0  0  0  0  0  0  0
   10.3917  -17.1768   20.7297 C   0  0  0  0  0  0  0  0  0  0  0  0
   11.0130  -16.0923   20.6345 O   0  0  0  0  0  0  0  0  0  0  0  0
    9.5225  -17.3364   21.8331 N   0  0  0  0  0  0  0  0  0  0  0  0
    9.3672  -16.3068   22.8502 C   0  0  1  0  0  0  0  0  0  0  0  0
    7.9627  -15.8595   22.9369 C   0  0  0  0  0  0  0  0  0  0  0  0
    7.6793  -14.5041   23.3468 C   0  0  0  0  0  0  0  0  0  0  0  0
    7.9546  -13.3179   22.6743 C   0  0  0  0  0  0  0  0  0  0  0  0
    7.5324  -12.3138   23.4530 N   0  0  0  0  0  0  0  0  0  0  0  0
    6.9999  -12.7934   24.5911 C   0  0  0  0  0  0  0  0  0  0  0  0
    6.4496  -12.1186   25.6627 C   0  0  0  0  0  0  0  0  0  0  0  0
    5.9761  -12.8866   26.7056 C   0  0  0  0  0  0  0  0  0  0  0  0
    6.0286  -14.2644   26.7208 C   0  0  0  0  0  0  0  0  0  0  0  0
    6.5861  -14.9058   25.6313 C   0  0  0  0  0  0  0  0  0  0  0  0
    7.0717  -14.1738   24.5668 C   0  0  0  0  0  0  0  0  0  0  0  0
    9.9539  -16.8672   24.0932 C   0  0  0  0  0  0  0  0  0  0  0  0
   10.3657  -18.0707   24.0813 O   0  0  0  0  0  0  0  0  0  0  0  0
   10.5986  -14.1920   30.1310 C   0  0  0  0  0  0  0  0  0  0  0  0
   10.1423  -13.4636   28.5147 S   0  0  0  0  0  0  0  0  0  0  0  0
   10.9763  -14.4069   27.1809 C   0  0  0  0  0  0  0  0  0  0  0  0
   10.9530  -15.8403   27.5852 C   0  0  0  0  0  0  0  0  0  0  0  0
   10.7387  -16.7830   26.4246 C   0  0  2  0  0  0  0  0  0  0  0  0
   10.0960  -16.1545   25.3097 N   0  0  0  0  0  0  0  0  0  0  0  0
    9.9474  -17.9722   26.8321 C   0  0  0  0  0  0  0  0  0  0  0  0
    8.7445  -18.1276   26.5093 O   0  0  0  0  0  0  0  0  0  0  0  0
   10.5705  -18.9621   27.6097 O   0  0  0  0  0  0  0  0  0  0  0  0
  2  3  1  0
  2  1  1  1
  3  4  1  0
  5  4  1  0
  6  5  1  0
  7  6  1  0
  8  9  2  0
  8  2  1  0
 10  8  1  0
 11 22  1  0
 11 10  1  0
 11 12  1  1
 13 12  1  0
 14 13  2  0
 15 14  1  0
 16 15  1  0
 16 21  2  0
 17 16  1  0
 18 17  2  0
 18 19  1  0
 19 20  2  0
 20 21  1  0
 21 13  1  0
 22 29  1  0
 23 22  2  0
 24 25  1  0
 25 26  1  0
 26 27  1  0
 28 27  1  1
 28 30  1  0
 29 28  1  0
 30 31  2  0
 30 32  1  0
M  END
$$$$
