KWM.pdb
     RDKit          3D

 32 33  0  0  1  0  0  0  0  0999 V2000
    9.1747  -17.1294   18.8655 N   0  0  0  0  0  0  0  0  0  0  0  0
    9.9672  -15.9271   19.0733 C   0  0  1  0  0  0  0  0  0  0  0  0
    9.5757  -14.8368   18.0909 C   0  0  0  0  0  0  0  0  0  0  0  0
    9.3790  -15.4169   16.7100 C   0  0  0  0  0  0  0  0  0  0  0  0
    8.3861  -14.5878   15.9386 C   0  0  0  0  0  0  0  0  0  0  0  0
    8.1889  -15.0907   14.5265 C   0  0  0  0  0  0  0  0  0  0  0  0
    7.2605  -14.1593   13.8775 N   0  0  0  0  0  0  0  0  0  0  0  0
    9.8289  -15.4505   20.4836 C   0  0  0  0  0  0  0  0  0  0  0  0
   10.4294  -14.4353   20.9079 O   0  0  0  0  0  0  0  0  0  0  0  0
    9.0006  -16.1467   21.3934 N   0  0  0  0  0  0  0  0  0  0  0  0
    8.6414  -15.5936   22.6910 C   0  0  1  0  0  0  0  0  0  0  0  0
    7.2344  -15.8959   23.0214 C   0  0  0  0  0  0  0  0  0  0  0  0
    6.6750  -15.3870   24.2516 C   0  0  0  0  0  0  0  0  0  0  0  0
    5.9858  -16.0776   25.2433 C   0  0  0  0  0  0  0  0  0  0  0  0
    5.6396  -15.1854   26.1797 N   0  0  0  0  0  0  0  0  0  0  0  0
    6.0705  -13.9573   25.8411 C   0  0  0  0  0  0  0  0  0  0  0  0
    5.9342  -12.7570   26.5100 C   0  0  0  0  0  0  0  0  0  0  0  0
    6.4871  -11.6443   25.9117 C   0  0  0  0  0  0  0  0  0  0  0  0
    7.1529  -11.6813   24.7047 C   0  0  0  0  0  0  0  0  0  0  0  0
    7.2700  -12.8999   24.0640 C   0  0  0  0  0  0  0  0  0  0  0  0
    6.7306  -14.0375   24.6291 C   0  0  0  0  0  0  0  0  0  0  0  0
    9.6608  -16.0951   23.6464 C   0  0  0  0  0  0  0  0  0  0  0  0
   10.2541  -17.1889   23.3825 O   0  0  0  0  0  0  0  0  0  0  0  0
   10.2658  -13.9844   29.5695 C   0  0  0  0  0  0  0  0  0  0  0  0
   11.6361  -15.1915   29.6973 S   0  0  0  0  0  0  0  0  0  0  0  0
   11.7088  -16.1741   28.1501 C   0  0  0  0  0  0  0  0  0  0  0  0
   10.8012  -15.5106   27.1732 C   0  0  0  0  0  0  0  0  0  0  0  0
   10.8678  -16.1171   25.7913 C   0  0  2  0  0  0  0  0  0  0  0  0
   10.0324  -15.4390   24.8462 N   0  0  0  0  0  0  0  0  0  0  0  0
   10.5032  -17.5569   25.8140 C   0  0  0  0  0  0  0  0  0  0  0  0
    9.3199  -17.9573   25.6931 O   0  0  0  0  0  0  0  0  0  0  0  0
   11.5238  -18.5079   25.9772 O   0  0  0  0  0  0  0  0  0  0  0  0
  2  3  1  0
  2  1  1  1
  3  4  1  0
  5  4  1  0
  6  5  1  0
  7  6  1  0
  8  9  2  0
  8  2  1  0
 10  8  1  0
 11 22  1  0
 11 10  1  0
 11 12  1  1
 13 12  1  0
 14 13  2  0
 15 14  1  0
 16 15  1  0
 16 21  2  0
 17 16  1  0
 18 17  2  0
 18 19  1  0
 19 20  2  0
 20 21  1  0
 21 13  1  0
 22 29  1  0
 23 22  2  0
 24 25  1  0
 25 26  1  0
 26 27  1  0
 28 27  1  1
 28 30  1  0
 29 28  1  0
 30 31  2  0
 30 32  1  0
M  END
$$$$
