KWM.pdb
     RDKit          3D

 32 33  0  0  1  0  0  0  0  0999 V2000
   10.0797  -18.6020   20.3204 N   0  0  0  0  0  0  0  0  0  0  0  0
   10.7420  -17.3069   20.3472 C   0  0  1  0  0  0  0  0  0  0  0  0
   10.2429  -16.4134   19.2247 C   0  0  0  0  0  0  0  0  0  0  0  0
    9.6063  -17.2425   18.1341 C   0  0  0  0  0  0  0  0  0  0  0  0
    9.1885  -16.3567   16.9899 C   0  0  0  0  0  0  0  0  0  0  0  0
    8.6694  -17.1462   15.8097 C   0  0  0  0  0  0  0  0  0  0  0  0
    8.2326  -16.1653   14.8109 N   0  0  0  0  0  0  0  0  0  0  0  0
   10.5496  -16.6519   21.6772 C   0  0  0  0  0  0  0  0  0  0  0  0
   11.1230  -15.5801   21.9837 O   0  0  0  0  0  0  0  0  0  0  0  0
    9.6990  -17.2364   22.6433 N   0  0  0  0  0  0  0  0  0  0  0  0
    9.4304  -16.5988   23.9240 C   0  0  1  0  0  0  0  0  0  0  0  0
    7.9824  -16.5865   24.2130 C   0  0  0  0  0  0  0  0  0  0  0  0
    7.2208  -15.3894   23.9439 C   0  0  0  0  0  0  0  0  0  0  0  0
    6.5313  -15.0405   22.7872 C   0  0  0  0  0  0  0  0  0  0  0  0
    5.9992  -13.8293   22.9934 N   0  0  0  0  0  0  0  0  0  0  0  0
    6.3110  -13.3818   24.2227 C   0  0  0  0  0  0  0  0  0  0  0  0
    5.9743  -12.1952   24.8433 C   0  0  0  0  0  0  0  0  0  0  0  0
    6.4440  -12.0083   26.1264 C   0  0  0  0  0  0  0  0  0  0  0  0
    7.2156  -12.9340   26.7965 C   0  0  0  0  0  0  0  0  0  0  0  0
    7.5328  -14.1101   26.1442 C   0  0  0  0  0  0  0  0  0  0  0  0
    7.0825  -14.3361   24.8593 C   0  0  0  0  0  0  0  0  0  0  0  0
   10.2901  -17.2927   24.9153 C   0  0  0  0  0  0  0  0  0  0  0  0
   11.0984  -18.1829   24.5003 O   0  0  0  0  0  0  0  0  0  0  0  0
    9.3403  -14.4045   29.3267 C   0  0  0  0  0  0  0  0  0  0  0  0
   11.1488  -14.1808   29.1526 S   0  0  0  0  0  0  0  0  0  0  0  0
   11.7339  -15.1634   27.7185 C   0  0  0  0  0  0  0  0  0  0  0  0
   11.8139  -16.5809   28.1690 C   0  0  0  0  0  0  0  0  0  0  0  0
   11.3301  -17.5644   27.1295 C   0  0  2  0  0  0  0  0  0  0  0  0
   10.2828  -17.0348   26.3086 N   0  0  0  0  0  0  0  0  0  0  0  0
   10.8625  -18.8275   27.7557 C   0  0  0  0  0  0  0  0  0  0  0  0
    9.6663  -19.2044   27.7072 O   0  0  0  0  0  0  0  0  0  0  0  0
   11.7965  -19.6320   28.4289 O   0  0  0  0  0  0  0  0  0  0  0  0
  2  3  1  0
  2  1  1  1
  3  4  1  0
  5  4  1  0
  6  5  1  0
  7  6  1  0
  8  9  2  0
  8  2  1  0
 10  8  1  0
 11 22  1  0
 11 10  1  0
 11 12  1  1
 13 12  1  0
 14 13  2  0
 15 14  1  0
 16 15  1  0
 16 21  2  0
 17 16  1  0
 18 17  2  0
 18 19  1  0
 19 20  2  0
 20 21  1  0
 21 13  1  0
 22 29  1  0
 23 22  2  0
 24 25  1  0
 25 26  1  0
 26 27  1  0
 28 27  1  1
 28 30  1  0
 29 28  1  0
 30 31  2  0
 30 32  1  0
M  END
$$$$
