KWM.pdb
     RDKit          3D

 32 33  0  0  1  0  0  0  0  0999 V2000
    8.4273  -17.9097   20.5891 N   0  0  0  0  0  0  0  0  0  0  0  0
    9.2847  -16.7556   20.3663 C   0  0  1  0  0  0  0  0  0  0  0  0
    8.6398  -15.7719   19.4052 C   0  0  0  0  0  0  0  0  0  0  0  0
    7.8216  -16.5062   18.3691 C   0  0  0  0  0  0  0  0  0  0  0  0
    8.2044  -16.0447   16.9875 C   0  0  0  0  0  0  0  0  0  0  0  0
    7.3918  -16.7224   15.9076 C   0  0  0  0  0  0  0  0  0  0  0  0
    7.7600  -16.0792   14.6423 N   0  0  0  0  0  0  0  0  0  0  0  0
    9.6150  -16.0945   21.6658 C   0  0  0  0  0  0  0  0  0  0  0  0
   10.2858  -15.0373   21.7265 O   0  0  0  0  0  0  0  0  0  0  0  0
    9.1705  -16.6562   22.8847 N   0  0  0  0  0  0  0  0  0  0  0  0
    9.5784  -16.1228   24.1761 C   0  0  1  0  0  0  0  0  0  0  0  0
    8.6026  -16.4790   25.2254 C   0  0  0  0  0  0  0  0  0  0  0  0
    7.4181  -15.6694   25.3897 C   0  0  0  0  0  0  0  0  0  0  0  0
    6.1017  -16.0824   25.5673 C   0  0  0  0  0  0  0  0  0  0  0  0
    5.3478  -14.9788   25.6483 N   0  0  0  0  0  0  0  0  0  0  0  0
    6.1117  -13.8781   25.5319 C   0  0  0  0  0  0  0  0  0  0  0  0
    5.7516  -12.5453   25.5580 C   0  0  0  0  0  0  0  0  0  0  0  0
    6.7663  -11.6230   25.4116 C   0  0  0  0  0  0  0  0  0  0  0  0
    8.0906  -11.9690   25.2447 C   0  0  0  0  0  0  0  0  0  0  0  0
    8.4139  -13.3123   25.2236 C   0  0  0  0  0  0  0  0  0  0  0  0
    7.4279  -14.2673   25.3667 C   0  0  0  0  0  0  0  0  0  0  0  0
   10.9709  -16.5902   24.3909 C   0  0  0  0  0  0  0  0  0  0  0  0
   11.9243  -15.8989   23.9099 O   0  0  0  0  0  0  0  0  0  0  0  0
    9.9385  -13.4090   27.9624 C   0  0  0  0  0  0  0  0  0  0  0  0
   11.0494  -14.5217   28.8999 S   0  0  0  0  0  0  0  0  0  0  0  0
   12.0369  -15.5129   27.7138 C   0  0  0  0  0  0  0  0  0  0  0  0
   11.1806  -16.6538   27.2853 C   0  0  0  0  0  0  0  0  0  0  0  0
   11.9062  -17.6464   26.4078 C   0  0  2  0  0  0  0  0  0  0  0  0
   11.3265  -17.7623   25.1033 N   0  0  0  0  0  0  0  0  0  0  0  0
   11.9548  -18.9910   27.0371 C   0  0  0  0  0  0  0  0  0  0  0  0
   10.9908  -19.7935   26.9940 O   0  0  0  0  0  0  0  0  0  0  0  0
   13.1266  -19.3795   27.7071 O   0  0  0  0  0  0  0  0  0  0  0  0
  2  3  1  0
  2  1  1  1
  3  4  1  0
  5  4  1  0
  6  5  1  0
  7  6  1  0
  8  9  2  0
  8  2  1  0
 10  8  1  0
 11 22  1  0
 11 10  1  0
 11 12  1  1
 13 12  1  0
 14 13  2  0
 15 14  1  0
 16 15  1  0
 16 21  2  0
 17 16  1  0
 18 17  2  0
 18 19  1  0
 19 20  2  0
 20 21  1  0
 21 13  1  0
 22 29  1  0
 23 22  2  0
 24 25  1  0
 25 26  1  0
 26 27  1  0
 28 27  1  1
 28 30  1  0
 29 28  1  0
 30 31  2  0
 30 32  1  0
M  END
$$$$
