CVA.pdb
     RDKit          3D

 19 18  0  0  1  0  0  0  0  0999 V2000
   21.2699  -13.3320  -17.4850 N   0  0  0  0  0  0  0  0  0  0  0  0
   21.9335  -12.3946  -16.5878 C   0  0  1  0  0  0  0  0  0  0  0  0
   23.4246  -12.5018  -16.8320 C   0  0  0  0  0  0  0  0  0  0  0  0
   24.2733  -11.3944  -15.6897 S   0  0  0  0  0  0  0  0  0  0  0  0
   21.4653  -11.0046  -16.8646 C   0  0  0  0  0  0  0  0  0  0  0  0
   21.4865  -10.5719  -18.0432 O   0  0  0  0  0  0  0  0  0  0  0  0
   18.3333   -9.3879  -16.9498 C   0  0  0  0  0  0  0  0  0  0  0  0
   19.0934   -8.6368  -15.8876 C   0  0  2  0  0  0  0  0  0  0  0  0
   18.7417   -7.1645  -15.8969 C   0  0  0  0  0  0  0  0  0  0  0  0
   20.5773   -8.8176  -16.1070 C   0  0  2  0  0  0  0  0  0  0  0  0
   20.9974  -10.1617  -15.8283 N   0  0  0  0  0  0  0  0  0  0  0  0
   21.3672   -7.8217  -15.3327 C   0  0  0  0  0  0  0  0  0  0  0  0
   21.4307   -7.9730  -14.0861 O   0  0  0  0  0  0  0  0  0  0  0  0
   23.5082   -4.8244  -16.0312 C   0  0  0  0  0  0  0  0  0  0  0  0
   22.7112   -5.7707  -15.1315 C   0  0  2  0  0  0  0  0  0  0  0  0
   22.0312   -6.7397  -15.9361 N   0  0  0  0  0  0  0  0  0  0  0  0
   21.7696   -4.9139  -14.3625 C   0  0  0  0  0  0  0  0  0  0  0  0
   22.2027   -4.3979  -13.1569 O   0  0  0  0  0  0  0  0  0  0  0  0
   20.6086   -4.6475  -14.7679 O   0  0  0  0  0  0  0  0  0  0  0  0
  2  1  1  6
  3  2  1  0
  4  3  1  0
  5  2  1  0
  6  5  2  0
  8  7  1  6
  8 10  1  0
  9  8  1  0
 10 11  1  1
 11  5  1  0
 12 10  1  0
 12 16  1  0
 13 12  2  0
 15 16  1  0
 15 14  1  6
 17 15  1  0
 17 18  1  0
 19 17  2  0
M  END
$$$$
