CVA.pdb
     RDKit          3D

 19 18  0  0  1  0  0  0  0  0999 V2000
   26.9440  -21.2361  -10.5393 N   0  0  0  0  0  0  0  0  0  0  0  0
   25.5098  -21.1906  -10.7947 C   0  0  1  0  0  0  0  0  0  0  0  0
   24.9136  -20.1384   -9.8826 C   0  0  0  0  0  0  0  0  0  0  0  0
   24.5706  -20.8952   -8.2823 S   0  0  0  0  0  0  0  0  0  0  0  0
   25.2566  -20.8373  -12.2226 C   0  0  0  0  0  0  0  0  0  0  0  0
   25.9364  -19.9292  -12.7612 O   0  0  0  0  0  0  0  0  0  0  0  0
   25.5852  -23.2141  -14.8840 C   0  0  0  0  0  0  0  0  0  0  0  0
   24.2639  -22.5561  -15.1857 C   0  0  2  0  0  0  0  0  0  0  0  0
   24.1159  -22.2724  -16.6653 C   0  0  0  0  0  0  0  0  0  0  0  0
   24.1482  -21.2728  -14.3968 C   0  0  2  0  0  0  0  0  0  0  0  0
   24.2668  -21.5026  -12.9848 N   0  0  0  0  0  0  0  0  0  0  0  0
   22.8978  -20.5385  -14.7323 C   0  0  0  0  0  0  0  0  0  0  0  0
   21.8154  -21.0028  -14.2921 O   0  0  0  0  0  0  0  0  0  0  0  0
   21.9321  -17.4079  -16.5626 C   0  0  0  0  0  0  0  0  0  0  0  0
   21.6534  -18.6932  -15.7810 C   0  0  2  0  0  0  0  0  0  0  0  0
   22.8865  -19.3670  -15.5090 N   0  0  0  0  0  0  0  0  0  0  0  0
   20.7420  -19.5043  -16.6315 C   0  0  0  0  0  0  0  0  0  0  0  0
   19.3902  -19.4647  -16.3512 O   0  0  0  0  0  0  0  0  0  0  0  0
   21.1556  -20.2149  -17.5841 O   0  0  0  0  0  0  0  0  0  0  0  0
  2  1  1  6
  3  2  1  0
  4  3  1  0
  5  2  1  0
  6  5  2  0
  8  7  1  6
  8 10  1  0
  9  8  1  0
 10 11  1  1
 11  5  1  0
 12 10  1  0
 12 16  1  0
 13 12  2  0
 15 16  1  0
 15 14  1  6
 17 15  1  0
 17 18  1  0
 19 17  2  0
M  END
$$$$
