CVA.pdb
     RDKit          3D

 19 18  0  0  1  0  0  0  0  0999 V2000
   25.2434  -17.4883  -16.2142 N   0  0  0  0  0  0  0  0  0  0  0  0
   24.8105  -16.2624  -15.5556 C   0  0  1  0  0  0  0  0  0  0  0  0
   25.9945  -15.3184  -15.5172 C   0  0  0  0  0  0  0  0  0  0  0  0
   27.2535  -16.0221  -14.4350 S   0  0  0  0  0  0  0  0  0  0  0  0
   23.6844  -15.6447  -16.3159 C   0  0  0  0  0  0  0  0  0  0  0  0
   23.5937  -15.8459  -17.5521 O   0  0  0  0  0  0  0  0  0  0  0  0
   20.0499  -14.6740  -14.5916 C   0  0  0  0  0  0  0  0  0  0  0  0
   20.3062  -14.8535  -16.0654 C   0  0  2  0  0  0  0  0  0  0  0  0
   20.2815  -16.3164  -16.4537 C   0  0  0  0  0  0  0  0  0  0  0  0
   21.6418  -14.2440  -16.4224 C   0  0  2  0  0  0  0  0  0  0  0  0
   22.7149  -14.8365  -15.6754 N   0  0  0  0  0  0  0  0  0  0  0  0
   21.6207  -12.7629  -16.2761 C   0  0  0  0  0  0  0  0  0  0  0  0
   21.8578  -12.2883  -15.1361 O   0  0  0  0  0  0  0  0  0  0  0  0
   21.2224   -9.7499  -18.4628 C   0  0  0  0  0  0  0  0  0  0  0  0
   21.2248  -10.4868  -17.1220 C   0  0  2  0  0  0  0  0  0  0  0  0
   21.3501  -11.8946  -17.3477 N   0  0  0  0  0  0  0  0  0  0  0  0
   19.9435  -10.1335  -16.4545 C   0  0  0  0  0  0  0  0  0  0  0  0
   19.8580   -8.9055  -15.8282 O   0  0  0  0  0  0  0  0  0  0  0  0
   18.9494  -10.9048  -16.4417 O   0  0  0  0  0  0  0  0  0  0  0  0
  2  1  1  6
  3  2  1  0
  4  3  1  0
  5  2  1  0
  6  5  2  0
  8  7  1  1
  8 10  1  0
  9  8  1  0
 10 11  1  1
 11  5  1  0
 12 10  1  0
 12 16  1  0
 13 12  2  0
 15 16  1  0
 15 14  1  6
 17 15  1  0
 17 18  1  0
 19 17  2  0
M  END
$$$$
