CVA.pdb
     RDKit          3D

 19 18  0  0  1  0  0  0  0  0999 V2000
   17.0745  -11.4555  -16.7898 N   0  0  0  0  0  0  0  0  0  0  0  0
   18.1356  -10.5883  -17.2861 C   0  0  1  0  0  0  0  0  0  0  0  0
   17.4815   -9.4338  -18.0168 C   0  0  0  0  0  0  0  0  0  0  0  0
   16.7916  -10.0519  -19.5638 S   0  0  0  0  0  0  0  0  0  0  0  0
   18.9535  -10.0788  -16.1464 C   0  0  0  0  0  0  0  0  0  0  0  0
   18.4078   -9.8992  -15.0298 O   0  0  0  0  0  0  0  0  0  0  0  0
   22.1631  -11.4305  -14.7874 C   0  0  0  0  0  0  0  0  0  0  0  0
   22.4124   -9.9648  -15.0316 C   0  0  2  0  0  0  0  0  0  0  0  0
   23.1950   -9.3431  -13.8946 C   0  0  0  0  0  0  0  0  0  0  0  0
   21.0920   -9.2511  -15.2043 C   0  0  2  0  0  0  0  0  0  0  0  0
   20.3319   -9.7930  -16.2948 N   0  0  0  0  0  0  0  0  0  0  0  0
   21.2816   -7.7812  -15.3417 C   0  0  0  0  0  0  0  0  0  0  0  0
   22.0899   -7.3791  -16.2170 O   0  0  0  0  0  0  0  0  0  0  0  0
   19.6840   -4.6392  -14.1612 C   0  0  0  0  0  0  0  0  0  0  0  0
   20.8772   -5.4482  -14.6733 C   0  0  2  0  0  0  0  0  0  0  0  0
   20.6014   -6.8466  -14.5421 N   0  0  0  0  0  0  0  0  0  0  0  0
   22.0451   -5.0236  -13.8561 C   0  0  0  0  0  0  0  0  0  0  0  0
   22.4069   -5.8165  -12.7847 O   0  0  0  0  0  0  0  0  0  0  0  0
   22.7048   -3.9814  -14.1049 O   0  0  0  0  0  0  0  0  0  0  0  0
  2  1  1  1
  3  2  1  0
  4  3  1  0
  5  2  1  0
  6  5  2  0
  8  7  1  1
  8 10  1  0
  9  8  1  0
 10 11  1  6
 11  5  1  0
 12 10  1  0
 12 16  1  0
 13 12  2  0
 15 16  1  0
 15 14  1  1
 17 15  1  0
 17 18  1  0
 19 17  2  0
M  END
$$$$
