CVA.pdb
     RDKit          3D

 19 18  0  0  1  0  0  0  0  0999 V2000
   22.9728  -13.2859  -19.1977 N   0  0  0  0  0  0  0  0  0  0  0  0
   23.2241  -11.8608  -19.0241 C   0  0  1  0  0  0  0  0  0  0  0  0
   22.8747  -11.1704  -20.3264 C   0  0  0  0  0  0  0  0  0  0  0  0
   24.2044  -11.4679  -21.5073 S   0  0  0  0  0  0  0  0  0  0  0  0
   22.3809  -11.3250  -17.9152 C   0  0  0  0  0  0  0  0  0  0  0  0
   21.2183  -11.7720  -17.7557 O   0  0  0  0  0  0  0  0  0  0  0  0
   23.0528  -11.3581  -14.3314 C   0  0  0  0  0  0  0  0  0  0  0  0
   22.7383   -9.9163  -14.6353 C   0  0  2  0  0  0  0  0  0  0  0  0
   21.8754   -9.3018  -13.5540 C   0  0  0  0  0  0  0  0  0  0  0  0
   22.0402   -9.8238  -15.9720 C   0  0  2  0  0  0  0  0  0  0  0  0
   22.8616  -10.3236  -17.0380 N   0  0  0  0  0  0  0  0  0  0  0  0
   21.5667   -8.4392  -16.2441 C   0  0  0  0  0  0  0  0  0  0  0  0
   22.4271   -7.5225  -16.2545 O   0  0  0  0  0  0  0  0  0  0  0  0
   18.4061   -6.7451  -17.3006 C   0  0  0  0  0  0  0  0  0  0  0  0
   19.8183   -6.7729  -16.7130 C   0  0  2  0  0  0  0  0  0  0  0  0
   20.2172   -8.1284  -16.4850 N   0  0  0  0  0  0  0  0  0  0  0  0
   19.7575   -5.9826  -15.4546 C   0  0  0  0  0  0  0  0  0  0  0  0
   19.8896   -4.6108  -15.5457 O   0  0  0  0  0  0  0  0  0  0  0  0
   19.5920   -6.5144  -14.3262 O   0  0  0  0  0  0  0  0  0  0  0  0
  2  1  1  6
  3  2  1  0
  4  3  1  0
  5  2  1  0
  6  5  2  0
  8  7  1  1
  8 10  1  0
  9  8  1  0
 10 11  1  6
 11  5  1  0
 12 10  1  0
 12 16  1  0
 13 12  2  0
 15 16  1  0
 15 14  1  1
 17 15  1  0
 17 18  1  0
 19 17  2  0
M  END
$$$$
