CVA.pdb
     RDKit          3D

 19 18  0  0  1  0  0  0  0  0999 V2000
   16.5070  -10.6362  -13.5893 N   0  0  0  0  0  0  0  0  0  0  0  0
   17.1324   -9.5377  -12.8637 C   0  0  1  0  0  0  0  0  0  0  0  0
   17.8978   -8.7005  -13.8677 C   0  0  0  0  0  0  0  0  0  0  0  0
   19.3472   -9.6304  -14.4025 S   0  0  0  0  0  0  0  0  0  0  0  0
   16.0880   -8.7091  -12.1926 C   0  0  0  0  0  0  0  0  0  0  0  0
   14.9743   -8.5528  -12.7511 O   0  0  0  0  0  0  0  0  0  0  0  0
   14.1183   -9.0792   -9.2424 C   0  0  0  0  0  0  0  0  0  0  0  0
   14.8540   -7.7839   -9.0168 C   0  0  2  0  0  0  0  0  0  0  0  0
   13.9734   -6.7643   -8.3265 C   0  0  0  0  0  0  0  0  0  0  0  0
   15.3366   -7.2412  -10.3416 C   0  0  2  0  0  0  0  0  0  0  0  0
   16.3239   -8.0946  -10.9395 N   0  0  0  0  0  0  0  0  0  0  0  0
   15.8248   -5.8412  -10.2110 C   0  0  0  0  0  0  0  0  0  0  0  0
   16.8251   -5.6410   -9.4759 O   0  0  0  0  0  0  0  0  0  0  0  0
   15.0304   -2.4794  -11.6653 C   0  0  0  0  0  0  0  0  0  0  0  0
   15.7141   -3.4283  -10.6791 C   0  0  2  0  0  0  0  0  0  0  0  0
   15.2175   -4.7573  -10.8683 N   0  0  0  0  0  0  0  0  0  0  0  0
   15.4124   -2.9005   -9.3217 C   0  0  0  0  0  0  0  0  0  0  0  0
   16.2304   -1.9087   -8.8173 O   0  0  0  0  0  0  0  0  0  0  0  0
   14.4507   -3.3215   -8.6279 O   0  0  0  0  0  0  0  0  0  0  0  0
  2  1  1  6
  3  2  1  0
  4  3  1  0
  5  2  1  0
  6  5  2  0
  8  7  1  6
  8 10  1  0
  9  8  1  0
 10 11  1  1
 11  5  1  0
 12 10  1  0
 12 16  1  0
 13 12  2  0
 15 16  1  0
 15 14  1  6
 17 15  1  0
 17 18  1  0
 19 17  2  0
M  END
$$$$
