CVA.pdb
     RDKit          3D

 19 18  0  0  1  0  0  0  0  0999 V2000
   18.8687  -15.2520  -17.7916 N   0  0  0  0  0  0  0  0  0  0  0  0
   18.2314  -14.0495  -17.2701 C   0  0  1  0  0  0  0  0  0  0  0  0
   17.7806  -14.3452  -15.8545 C   0  0  0  0  0  0  0  0  0  0  0  0
   16.1964  -15.2035  -15.9252 S   0  0  0  0  0  0  0  0  0  0  0  0
   19.2009  -12.9147  -17.2750 C   0  0  0  0  0  0  0  0  0  0  0  0
   20.4232  -13.1496  -17.1086 O   0  0  0  0  0  0  0  0  0  0  0  0
   19.6377  -10.5807  -20.1142 C   0  0  0  0  0  0  0  0  0  0  0  0
   19.4334   -9.7169  -18.8967 C   0  0  2  0  0  0  0  0  0  0  0  0
   20.3144   -8.4867  -18.9410 C   0  0  0  0  0  0  0  0  0  0  0  0
   19.7278  -10.5219  -17.6526 C   0  0  2  0  0  0  0  0  0  0  0  0
   18.7744  -11.5783  -17.4632 N   0  0  0  0  0  0  0  0  0  0  0  0
   19.8292   -9.6494  -16.4510 C   0  0  0  0  0  0  0  0  0  0  0  0
   18.7835   -9.0665  -16.0664 O   0  0  0  0  0  0  0  0  0  0  0  0
   22.4236   -8.6926  -13.9212 C   0  0  0  0  0  0  0  0  0  0  0  0
   21.0839   -8.5458  -14.6452 C   0  0  2  0  0  0  0  0  0  0  0  0
   21.0302   -9.4588  -15.7461 N   0  0  0  0  0  0  0  0  0  0  0  0
   21.0049   -7.1268  -15.0837 C   0  0  0  0  0  0  0  0  0  0  0  0
   20.6485   -6.1789  -14.1446 O   0  0  0  0  0  0  0  0  0  0  0  0
   21.2484   -6.7666  -16.2645 O   0  0  0  0  0  0  0  0  0  0  0  0
  2  1  1  1
  3  2  1  0
  4  3  1  0
  5  2  1  0
  6  5  2  0
  8  7  1  6
  8 10  1  0
  9  8  1  0
 10 11  1  1
 11  5  1  0
 12 10  1  0
 12 16  1  0
 13 12  2  0
 15 16  1  0
 15 14  1  6
 17 15  1  0
 17 18  1  0
 19 17  2  0
M  END
$$$$
