CVA.pdb
     RDKit          3D

 19 18  0  0  1  0  0  0  0  0999 V2000
   20.6016   -4.6472  -13.8417 N   0  0  0  0  0  0  0  0  0  0  0  0
   21.5149   -5.0227  -14.9137 C   0  0  1  0  0  0  0  0  0  0  0  0
   22.6723   -4.0456  -14.8947 C   0  0  0  0  0  0  0  0  0  0  0  0
   22.1057   -2.4730  -15.5707 S   0  0  0  0  0  0  0  0  0  0  0  0
   22.0118   -6.4134  -14.6973 C   0  0  0  0  0  0  0  0  0  0  0  0
   22.0569   -6.8757  -13.5307 O   0  0  0  0  0  0  0  0  0  0  0  0
   22.0339  -10.9476  -15.9326 C   0  0  0  0  0  0  0  0  0  0  0  0
   21.6075   -9.5060  -16.0335 C   0  0  2  0  0  0  0  0  0  0  0  0
   21.1993   -9.1508  -17.4473 C   0  0  0  0  0  0  0  0  0  0  0  0
   22.7386   -8.6131  -15.5796 C   0  0  2  0  0  0  0  0  0  0  0  0
   22.4338   -7.2244  -15.7779 N   0  0  0  0  0  0  0  0  0  0  0  0
   24.0245   -8.9926  -16.2259 C   0  0  0  0  0  0  0  0  0  0  0  0
   24.1811   -8.6827  -17.4344 O   0  0  0  0  0  0  0  0  0  0  0  0
   27.2281  -10.6826  -15.2448 C   0  0  0  0  0  0  0  0  0  0  0  0
   26.2444  -10.0534  -16.2332 C   0  0  2  0  0  0  0  0  0  0  0  0
   25.0491   -9.6721  -15.5445 N   0  0  0  0  0  0  0  0  0  0  0  0
   25.9916  -11.0832  -17.2761 C   0  0  0  0  0  0  0  0  0  0  0  0
   26.7920  -11.0736  -18.4015 O   0  0  0  0  0  0  0  0  0  0  0  0
   25.0858  -11.9501  -17.1687 O   0  0  0  0  0  0  0  0  0  0  0  0
  2  1  1  1
  3  2  1  0
  4  3  1  0
  5  2  1  0
  6  5  2  0
  8  7  1  6
  8 10  1  0
  9  8  1  0
 10 11  1  6
 11  5  1  0
 12 10  1  0
 12 16  1  0
 13 12  2  0
 15 16  1  0
 15 14  1  1
 17 15  1  0
 17 18  1  0
 19 17  2  0
M  END
$$$$
