CVA.pdb
     RDKit          3D

 19 18  0  0  1  0  0  0  0  0999 V2000
   25.7117  -20.3020   -8.8570 N   0  0  0  0  0  0  0  0  0  0  0  0
   24.9231  -20.7682   -9.9905 C   0  0  1  0  0  0  0  0  0  0  0  0
   23.4675  -20.4769   -9.6886 C   0  0  0  0  0  0  0  0  0  0  0  0
   22.9711  -21.4582   -8.2597 S   0  0  0  0  0  0  0  0  0  0  0  0
   25.3437  -20.0557  -11.2326 C   0  0  0  0  0  0  0  0  0  0  0  0
   25.5168  -18.8124  -11.1996 O   0  0  0  0  0  0  0  0  0  0  0  0
   28.3901  -20.2526  -12.7621 C   0  0  0  0  0  0  0  0  0  0  0  0
   27.4801  -20.5354  -13.9292 C   0  0  2  0  0  0  0  0  0  0  0  0
   27.9710  -19.8522  -15.1876 C   0  0  0  0  0  0  0  0  0  0  0  0
   26.0799  -20.0732  -13.5998 C   0  0  2  0  0  0  0  0  0  0  0  0
   25.5523  -20.7494  -12.4487 N   0  0  0  0  0  0  0  0  0  0  0  0
   25.1749  -20.1981  -14.7749 C   0  0  0  0  0  0  0  0  0  0  0  0
   25.0023  -21.3470  -15.2557 O   0  0  0  0  0  0  0  0  0  0  0  0
   22.7674  -18.0476  -16.6518 C   0  0  0  0  0  0  0  0  0  0  0  0
   23.6552  -19.2815  -16.4789 C   0  0  2  0  0  0  0  0  0  0  0  0
   24.5201  -19.0971  -15.3534 N   0  0  0  0  0  0  0  0  0  0  0  0
   24.4091  -19.4293  -17.7524 C   0  0  0  0  0  0  0  0  0  0  0  0
   23.8016  -20.1124  -18.7877 O   0  0  0  0  0  0  0  0  0  0  0  0
   25.5650  -18.9596  -17.9156 O   0  0  0  0  0  0  0  0  0  0  0  0
  2  1  1  1
  3  2  1  0
  4  3  1  0
  5  2  1  0
  6  5  2  0
  8  7  1  1
  8 10  1  0
  9  8  1  0
 10 11  1  1
 11  5  1  0
 12 10  1  0
 12 16  1  0
 13 12  2  0
 15 16  1  0
 15 14  1  6
 17 15  1  0
 17 18  1  0
 19 17  2  0
M  END
$$$$
