CVA.pdb
     RDKit          3D

 19 18  0  0  1  0  0  0  0  0999 V2000
   22.9381  -12.7572  -18.0743 N   0  0  0  0  0  0  0  0  0  0  0  0
   23.2184  -11.3575  -17.7805 C   0  0  1  0  0  0  0  0  0  0  0  0
   23.1388  -10.5894  -19.0837 C   0  0  0  0  0  0  0  0  0  0  0  0
   24.5417  -11.0614  -20.1136 S   0  0  0  0  0  0  0  0  0  0  0  0
   22.2156  -10.8289  -16.8096 C   0  0  0  0  0  0  0  0  0  0  0  0
   21.0449  -11.2828  -16.8263 O   0  0  0  0  0  0  0  0  0  0  0  0
   22.4099  -10.8643  -13.1923 C   0  0  0  0  0  0  0  0  0  0  0  0
   22.0692   -9.4315  -13.5104 C   0  0  2  0  0  0  0  0  0  0  0  0
   21.0197   -8.8920  -12.5623 C   0  0  0  0  0  0  0  0  0  0  0  0
   21.5796   -9.3347  -14.9365 C   0  0  2  0  0  0  0  0  0  0  0  0
   22.5538   -9.8267  -15.8690 N   0  0  0  0  0  0  0  0  0  0  0  0
   21.1470   -7.9504  -15.2707 C   0  0  0  0  0  0  0  0  0  0  0  0
   21.9863   -7.0266  -15.1179 O   0  0  0  0  0  0  0  0  0  0  0  0
   18.1830   -6.2678  -16.8146 C   0  0  0  0  0  0  0  0  0  0  0  0
   19.4933   -6.2924  -16.0253 C   0  0  2  0  0  0  0  0  0  0  0  0
   19.8579   -7.6471  -15.7418 N   0  0  0  0  0  0  0  0  0  0  0  0
   19.2454   -5.5035  -14.7891 C   0  0  0  0  0  0  0  0  0  0  0  0
   19.3375   -4.1279  -14.8708 O   0  0  0  0  0  0  0  0  0  0  0  0
   18.9589   -6.0398  -13.6875 O   0  0  0  0  0  0  0  0  0  0  0  0
  2  1  1  6
  3  2  1  0
  4  3  1  0
  5  2  1  0
  6  5  2  0
  8  7  1  1
  8 10  1  0
  9  8  1  0
 10 11  1  6
 11  5  1  0
 12 10  1  0
 12 16  1  0
 13 12  2  0
 15 16  1  0
 15 14  1  6
 17 15  1  0
 17 18  1  0
 19 17  2  0
M  END
$$$$
