CVA.pdb
     RDKit          3D

 19 18  0  0  1  0  0  0  0  0999 V2000
   28.7769  -20.1709  -16.4844 N   0  0  0  0  0  0  0  0  0  0  0  0
   28.0173  -19.4153  -15.4964 C   0  0  1  0  0  0  0  0  0  0  0  0
   27.2758  -18.3161  -16.2290 C   0  0  0  0  0  0  0  0  0  0  0  0
   28.3437  -16.8660  -16.3186 S   0  0  0  0  0  0  0  0  0  0  0  0
   27.0495  -20.3135  -14.8005 C   0  0  0  0  0  0  0  0  0  0  0  0
   26.5503  -21.2816  -15.4255 O   0  0  0  0  0  0  0  0  0  0  0  0
   25.1437  -22.0568  -10.6464 C   0  0  0  0  0  0  0  0  0  0  0  0
   26.0441  -21.0334  -11.2883 C   0  0  2  0  0  0  0  0  0  0  0  0
   25.8210  -19.6573  -10.6983 C   0  0  0  0  0  0  0  0  0  0  0  0
   25.7943  -21.0064  -12.7782 C   0  0  2  0  0  0  0  0  0  0  0  0
   26.6807  -20.0995  -13.4508 N   0  0  0  0  0  0  0  0  0  0  0  0
   24.3680  -20.7124  -13.0857 C   0  0  0  0  0  0  0  0  0  0  0  0
   24.0106  -19.5069  -13.0875 O   0  0  0  0  0  0  0  0  0  0  0  0
   21.4557  -22.5403  -14.5076 C   0  0  0  0  0  0  0  0  0  0  0  0
   22.0948  -21.3680  -13.7609 C   0  0  2  0  0  0  0  0  0  0  0  0
   23.4262  -21.7168  -13.3684 N   0  0  0  0  0  0  0  0  0  0  0  0
   21.2152  -21.0934  -12.5935 C   0  0  0  0  0  0  0  0  0  0  0  0
   20.0817  -20.3326  -12.8029 O   0  0  0  0  0  0  0  0  0  0  0  0
   21.4658  -21.5248  -11.4383 O   0  0  0  0  0  0  0  0  0  0  0  0
  2  1  1  6
  3  2  1  0
  4  3  1  0
  5  2  1  0
  6  5  2  0
  8  7  1  1
  8 10  1  0
  9  8  1  0
 10 11  1  6
 11  5  1  0
 12 10  1  0
 12 16  1  0
 13 12  2  0
 15 16  1  0
 15 14  1  1
 17 15  1  0
 17 18  1  0
 19 17  2  0
M  END
$$$$
