CVA.pdb
     RDKit          3D

 19 18  0  0  1  0  0  0  0  0999 V2000
   23.4192  -12.9250  -17.9917 N   0  0  0  0  0  0  0  0  0  0  0  0
   23.6821  -12.0376  -16.8658 C   0  0  1  0  0  0  0  0  0  0  0  0
   25.1480  -11.6587  -16.9116 C   0  0  0  0  0  0  0  0  0  0  0  0
   26.0994  -12.9491  -16.0864 S   0  0  0  0  0  0  0  0  0  0  0  0
   22.8312  -10.8157  -16.9693 C   0  0  0  0  0  0  0  0  0  0  0  0
   22.5992  -10.3220  -18.1003 O   0  0  0  0  0  0  0  0  0  0  0  0
   19.3820  -10.3196  -16.4334 C   0  0  0  0  0  0  0  0  0  0  0  0
   20.0211   -9.3365  -15.4873 C   0  0  2  0  0  0  0  0  0  0  0  0
   19.2250   -8.0514  -15.4090 C   0  0  0  0  0  0  0  0  0  0  0  0
   21.4329   -9.0461  -15.9403 C   0  0  2  0  0  0  0  0  0  0  0  0
   22.2789  -10.1996  -15.8208 N   0  0  0  0  0  0  0  0  0  0  0  0
   22.0018   -7.8694  -15.2282 C   0  0  0  0  0  0  0  0  0  0  0  0
   22.1829   -7.9726  -13.9882 O   0  0  0  0  0  0  0  0  0  0  0  0
   23.3050   -4.4648  -16.1139 C   0  0  0  0  0  0  0  0  0  0  0  0
   22.9152   -5.5863  -15.1491 C   0  0  2  0  0  0  0  0  0  0  0  0
   22.3367   -6.6711  -15.8820 N   0  0  0  0  0  0  0  0  0  0  0  0
   21.9592   -4.9848  -14.1815 C   0  0  0  0  0  0  0  0  0  0  0  0
   20.6097   -5.0905  -14.4556 O   0  0  0  0  0  0  0  0  0  0  0  0
   22.3336   -4.3916  -13.1369 O   0  0  0  0  0  0  0  0  0  0  0  0
  2  1  1  6
  3  2  1  0
  4  3  1  0
  5  2  1  0
  6  5  2  0
  8  7  1  6
  8 10  1  0
  9  8  1  0
 10 11  1  1
 11  5  1  0
 12 10  1  0
 12 16  1  0
 13 12  2  0
 15 16  1  0
 15 14  1  6
 17 15  1  0
 17 18  1  0
 19 17  2  0
M  END
$$$$
