CVA.pdb
     RDKit          3D

 19 18  0  0  1  0  0  0  0  0999 V2000
   22.2299  -12.6015  -18.8870 N   0  0  0  0  0  0  0  0  0  0  0  0
   23.0205  -11.4550  -18.4575 C   0  0  1  0  0  0  0  0  0  0  0  0
   23.1547  -10.5196  -19.6414 C   0  0  0  0  0  0  0  0  0  0  0  0
   24.2940  -11.2574  -20.8283 S   0  0  0  0  0  0  0  0  0  0  0  0
   22.3385  -10.7594  -17.3267 C   0  0  0  0  0  0  0  0  0  0  0  0
   21.0857  -10.6745  -17.3229 O   0  0  0  0  0  0  0  0  0  0  0  0
   22.4479  -11.7016  -13.8400 C   0  0  0  0  0  0  0  0  0  0  0  0
   22.8212  -10.2420  -13.8304 C   0  0  2  0  0  0  0  0  0  0  0  0
   22.1805   -9.5180  -12.6655 C   0  0  0  0  0  0  0  0  0  0  0  0
   22.3982   -9.6052  -15.1336 C   0  0  2  0  0  0  0  0  0  0  0  0
   23.0718  -10.1923  -16.2570 N   0  0  0  0  0  0  0  0  0  0  0  0
   22.5710   -8.1272  -15.0985 C   0  0  0  0  0  0  0  0  0  0  0  0
   23.7424   -7.6815  -14.9982 O   0  0  0  0  0  0  0  0  0  0  0  0
   20.4621   -5.0636  -15.4925 C   0  0  0  0  0  0  0  0  0  0  0  0
   21.7100   -5.8233  -15.0383 C   0  0  2  0  0  0  0  0  0  0  0  0
   21.4904   -7.2313  -15.1721 N   0  0  0  0  0  0  0  0  0  0  0  0
   21.9478   -5.4201  -13.6266 C   0  0  0  0  0  0  0  0  0  0  0  0
   22.7288   -4.3048  -13.3957 O   0  0  0  0  0  0  0  0  0  0  0  0
   21.4680   -6.0522  -12.6501 O   0  0  0  0  0  0  0  0  0  0  0  0
  2  1  1  6
  3  2  1  0
  4  3  1  0
  5  2  1  0
  6  5  2  0
  8  7  1  6
  8 10  1  0
  9  8  1  0
 10 11  1  6
 11  5  1  0
 12 10  1  0
 12 16  1  0
 13 12  2  0
 15 16  1  0
 15 14  1  1
 17 15  1  0
 17 18  1  0
 19 17  2  0
M  END
$$$$
