CVA.pdb
     RDKit          3D

 19 18  0  0  1  0  0  0  0  0999 V2000
   17.1058  -10.3239  -11.3947 N   0  0  0  0  0  0  0  0  0  0  0  0
   17.3940   -8.9007  -11.2702 C   0  0  1  0  0  0  0  0  0  0  0  0
   17.9470   -8.4258  -12.5980 C   0  0  0  0  0  0  0  0  0  0  0  0
   19.5493   -9.2088  -12.8643 S   0  0  0  0  0  0  0  0  0  0  0  0
   16.1454   -8.1543  -10.9362 C   0  0  0  0  0  0  0  0  0  0  0  0
   15.0543   -8.5274  -11.4334 O   0  0  0  0  0  0  0  0  0  0  0  0
   13.1422   -6.0776   -8.0654 C   0  0  0  0  0  0  0  0  0  0  0  0
   14.3687   -6.8758   -8.4242 C   0  0  2  0  0  0  0  0  0  0  0  0
   15.4095   -6.8077   -7.3272 C   0  0  0  0  0  0  0  0  0  0  0  0
   14.9458   -6.3573   -9.7206 C   0  0  2  0  0  0  0  0  0  0  0  0
   16.1623   -7.0342  -10.0709 N   0  0  0  0  0  0  0  0  0  0  0  0
   15.1282   -4.8806   -9.6831 C   0  0  0  0  0  0  0  0  0  0  0  0
   16.1087   -4.4326   -9.0358 O   0  0  0  0  0  0  0  0  0  0  0  0
   13.5155   -1.8669  -11.2319 C   0  0  0  0  0  0  0  0  0  0  0  0
   14.5691   -2.5921  -10.3927 C   0  0  2  0  0  0  0  0  0  0  0  0
   14.2589   -3.9881  -10.3338 N   0  0  0  0  0  0  0  0  0  0  0  0
   14.5420   -1.9503   -9.0513 C   0  0  0  0  0  0  0  0  0  0  0  0
   15.4043   -0.8963   -8.8214 O   0  0  0  0  0  0  0  0  0  0  0  0
   13.7707   -2.3301   -8.1325 O   0  0  0  0  0  0  0  0  0  0  0  0
  2  1  1  6
  3  2  1  0
  4  3  1  0
  5  2  1  0
  6  5  2  0
  8  7  1  1
  8 10  1  0
  9  8  1  0
 10 11  1  1
 11  5  1  0
 12 10  1  0
 12 16  1  0
 13 12  2  0
 15 16  1  0
 15 14  1  6
 17 15  1  0
 17 18  1  0
 19 17  2  0
M  END
$$$$
