QYM.pdb
     RDKit          3D

 30 30  0  0  1  0  0  0  0  0999 V2000
   10.0639  -16.9463   15.9471 N   0  0  0  0  0  0  0  0  0  0  0  0
    9.1852  -17.3592   16.9913 C   0  0  0  0  0  0  0  0  0  0  0  0
    8.1096  -16.7257   17.0721 O   0  0  0  0  0  0  0  0  0  0  0  0
    9.4639  -18.4328   17.9229 C   0  0  0  0  0  0  0  0  0  0  0  0
   10.7238  -18.4438   18.6745 C   0  0  0  0  0  0  0  0  0  0  0  0
   10.6746  -18.7033   20.1392 C   0  0  2  0  0  0  0  0  0  0  0  0
    9.9044  -19.8207   20.5689 N   0  0  0  0  0  0  0  0  0  0  0  0
   10.3122  -17.4847   20.9110 C   0  0  0  0  0  0  0  0  0  0  0  0
   11.0232  -16.4261   20.8221 O   0  0  0  0  0  0  0  0  0  0  0  0
    6.1729  -11.7456   26.1535 O   0  0  0  0  0  0  0  0  0  0  0  0
    6.4981  -12.8509   25.3916 C   0  0  0  0  0  0  0  0  0  0  0  0
    6.1868  -14.1015   25.8459 C   0  0  0  0  0  0  0  0  0  0  0  0
    6.5248  -15.2005   25.0603 C   0  0  0  0  0  0  0  0  0  0  0  0
    7.1623  -15.0512   23.8432 C   0  0  0  0  0  0  0  0  0  0  0  0
    7.5189  -16.2160   23.0227 C   0  0  0  0  0  0  0  0  0  0  0  0
    8.9402  -16.1790   22.5156 C   0  0  2  0  0  0  0  0  0  0  0  0
    9.1897  -17.4260   21.7640 N   0  0  0  0  0  0  0  0  0  0  0  0
    9.9241  -16.1697   23.6545 C   0  0  0  0  0  0  0  0  0  0  0  0
   10.8430  -15.2981   23.7022 O   0  0  0  0  0  0  0  0  0  0  0  0
    7.4502  -13.7578   23.4390 C   0  0  0  0  0  0  0  0  0  0  0  0
    7.1309  -12.6456   24.1899 C   0  0  0  0  0  0  0  0  0  0  0  0
   10.8778  -12.4938   28.1280 C   0  0  0  0  0  0  0  0  0  0  0  0
   10.4401  -14.0626   28.9468 S   0  0  0  0  0  0  0  0  0  0  0  0
   10.7658  -15.5050   28.0130 C   0  0  0  0  0  0  0  0  0  0  0  0
   10.1391  -15.8323   26.7363 C   0  0  0  0  0  0  0  0  0  0  0  0
   10.7421  -16.8829   25.9042 C   0  0  2  0  0  0  0  0  0  0  0  0
    9.8664  -17.1107   24.6958 N   0  0  0  0  0  0  0  0  0  0  0  0
   10.4846  -18.2107   26.6056 C   0  0  0  0  0  0  0  0  0  0  0  0
    9.5100  -18.9065   26.1296 O   0  0  0  0  0  0  0  0  0  0  0  0
   11.1636  -18.7042   27.6491 O   0  0  0  0  0  0  0  0  0  0  0  0
  1  2  1  0
  2  4  1  0
  3  2  2  0
  4  5  1  0
  6  5  1  0
  6  7  1  6
  8  6  1  0
  9  8  2  0
 10 11  1  0
 11 21  2  0
 12 13  2  0
 12 11  1  0
 13 14  1  0
 14 15  1  0
 14 20  2  0
 16 15  1  1
 16 18  1  0
 16 17  1  0
 17  8  1  0
 18 19  2  0
 21 20  1  0
 22 23  1  0
 23 24  1  0
 25 24  1  0
 26 25  1  1
 27 26  1  0
 27 18  1  0
 28 30  1  0
 28 26  1  0
 29 28  2  0
M  END
$$$$
