QYM.pdb
     RDKit          3D

 30 30  0  0  1  0  0  0  0  0999 V2000
    7.4555  -12.3631   16.8258 N   0  0  0  0  0  0  0  0  0  0  0  0
    7.5135  -13.7050   16.3475 C   0  0  0  0  0  0  0  0  0  0  0  0
    6.9800  -13.9033   15.2335 O   0  0  0  0  0  0  0  0  0  0  0  0
    8.1360  -14.8038   17.0569 C   0  0  0  0  0  0  0  0  0  0  0  0
    8.6934  -14.5902   18.3970 C   0  0  0  0  0  0  0  0  0  0  0  0
    9.2643  -15.7574   19.1230 C   0  0  2  0  0  0  0  0  0  0  0  0
    9.3104  -16.9933   18.4182 N   0  0  0  0  0  0  0  0  0  0  0  0
    8.6474  -15.9377   20.4642 C   0  0  0  0  0  0  0  0  0  0  0  0
    8.0535  -14.9635   21.0406 O   0  0  0  0  0  0  0  0  0  0  0  0
    2.7405  -19.4078   19.4639 O   0  0  0  0  0  0  0  0  0  0  0  0
    3.8869  -19.2271   20.2129 C   0  0  0  0  0  0  0  0  0  0  0  0
    5.0937  -19.6246   19.7098 C   0  0  0  0  0  0  0  0  0  0  0  0
    6.2355  -19.4321   20.4834 C   0  0  0  0  0  0  0  0  0  0  0  0
    6.1712  -18.8531   21.7366 C   0  0  0  0  0  0  0  0  0  0  0  0
    7.3799  -18.6576   22.5478 C   0  0  0  0  0  0  0  0  0  0  0  0
    7.9525  -17.2647   22.4436 C   0  0  2  0  0  0  0  0  0  0  0  0
    8.6790  -17.1641   21.1614 N   0  0  0  0  0  0  0  0  0  0  0  0
    8.9687  -17.0121   23.5245 C   0  0  0  0  0  0  0  0  0  0  0  0
   10.2043  -17.1773   23.2957 O   0  0  0  0  0  0  0  0  0  0  0  0
    4.9187  -18.4720   22.1894 C   0  0  0  0  0  0  0  0  0  0  0  0
    3.7662  -18.6465   21.4517 C   0  0  0  0  0  0  0  0  0  0  0  0
    9.4937  -13.0236   30.3715 C   0  0  0  0  0  0  0  0  0  0  0  0
    8.7372  -13.1871   28.7211 S   0  0  0  0  0  0  0  0  0  0  0  0
    9.3931  -14.4670   27.7258 C   0  0  0  0  0  0  0  0  0  0  0  0
    8.9695  -14.7638   26.3612 C   0  0  0  0  0  0  0  0  0  0  0  0
    9.6278  -15.8637   25.6425 C   0  0  2  0  0  0  0  0  0  0  0  0
    8.5972  -16.5892   24.8116 N   0  0  0  0  0  0  0  0  0  0  0  0
    9.8934  -16.9661   26.6602 C   0  0  0  0  0  0  0  0  0  0  0  0
    9.0725  -17.9588   26.6255 O   0  0  0  0  0  0  0  0  0  0  0  0
   10.8788  -16.9916   27.5666 O   0  0  0  0  0  0  0  0  0  0  0  0
  1  2  1  0
  2  4  1  0
  3  2  2  0
  4  5  1  0
  6  5  1  0
  6  7  1  6
  8  6  1  0
  9  8  2  0
 10 11  1  0
 11 21  2  0
 12 13  2  0
 12 11  1  0
 13 14  1  0
 14 15  1  0
 14 20  2  0
 16 15  1  1
 16 18  1  0
 16 17  1  0
 17  8  1  0
 18 19  2  0
 21 20  1  0
 22 23  1  0
 23 24  1  0
 25 24  1  0
 26 25  1  1
 27 26  1  0
 27 18  1  0
 28 30  1  0
 28 26  1  0
 29 28  2  0
M  END
$$$$
