QYM.pdb
     RDKit          3D

 30 30  0  0  1  0  0  0  0  0999 V2000
   11.0649  -19.1514   16.0322 N   0  0  0  0  0  0  0  0  0  0  0  0
   10.2527  -17.9805   16.0796 C   0  0  0  0  0  0  0  0  0  0  0  0
   10.0094  -17.4487   14.9738 O   0  0  0  0  0  0  0  0  0  0  0  0
    9.7155  -17.4020   17.2940 C   0  0  0  0  0  0  0  0  0  0  0  0
   10.6018  -17.1267   18.4303 C   0  0  0  0  0  0  0  0  0  0  0  0
   10.3093  -17.7820   19.7342 C   0  0  2  0  0  0  0  0  0  0  0  0
    9.2856  -18.7711   19.7414 N   0  0  0  0  0  0  0  0  0  0  0  0
   10.0929  -16.7909   20.8218 C   0  0  0  0  0  0  0  0  0  0  0  0
   10.9371  -15.8517   21.0200 O   0  0  0  0  0  0  0  0  0  0  0  0
    6.4747  -11.7724   27.0292 O   0  0  0  0  0  0  0  0  0  0  0  0
    6.7207  -12.7955   26.1343 C   0  0  0  0  0  0  0  0  0  0  0  0
    6.1898  -14.0343   26.3599 C   0  0  0  0  0  0  0  0  0  0  0  0
    6.4518  -15.0498   25.4437 C   0  0  0  0  0  0  0  0  0  0  0  0
    7.2303  -14.8301   24.3232 C   0  0  0  0  0  0  0  0  0  0  0  0
    7.5052  -15.9079   23.3640 C   0  0  0  0  0  0  0  0  0  0  0  0
    8.8989  -15.8550   22.7866 C   0  0  2  0  0  0  0  0  0  0  0  0
    8.9707  -16.8269   21.6764 N   0  0  0  0  0  0  0  0  0  0  0  0
    9.9236  -16.2941   23.7976 C   0  0  0  0  0  0  0  0  0  0  0  0
   11.1555  -16.0689   23.6029 O   0  0  0  0  0  0  0  0  0  0  0  0
    7.7390  -13.5529   24.1517 C   0  0  0  0  0  0  0  0  0  0  0  0
    7.5008  -12.5226   25.0373 C   0  0  0  0  0  0  0  0  0  0  0  0
    9.7461  -12.3096   28.5346 C   0  0  0  0  0  0  0  0  0  0  0  0
    9.7984  -14.0476   29.0822 S   0  0  0  0  0  0  0  0  0  0  0  0
   10.5485  -15.1589   27.9592 C   0  0  0  0  0  0  0  0  0  0  0  0
    9.8591  -16.2502   27.2785 C   0  0  0  0  0  0  0  0  0  0  0  0
   10.5248  -16.9052   26.1438 C   0  0  2  0  0  0  0  0  0  0  0  0
    9.5641  -16.9609   24.9806 N   0  0  0  0  0  0  0  0  0  0  0  0
   10.5698  -18.3964   26.4528 C   0  0  0  0  0  0  0  0  0  0  0  0
   11.4319  -18.7498   27.3432 O   0  0  0  0  0  0  0  0  0  0  0  0
    9.8132  -19.3485   25.8921 O   0  0  0  0  0  0  0  0  0  0  0  0
  1  2  1  0
  2  4  1  0
  3  2  2  0
  4  5  1  0
  6  5  1  0
  6  7  1  6
  8  6  1  0
  9  8  2  0
 10 11  1  0
 11 21  2  0
 12 13  2  0
 12 11  1  0
 13 14  1  0
 14 15  1  0
 14 20  2  0
 16 15  1  1
 16 18  1  0
 16 17  1  0
 17  8  1  0
 18 19  2  0
 21 20  1  0
 22 23  1  0
 23 24  1  0
 25 24  1  0
 26 25  1  1
 27 26  1  0
 27 18  1  0
 28 30  1  0
 28 26  1  0
 29 28  2  0
M  END
$$$$
