QYM.pdb
     RDKit          3D

 30 30  0  0  1  0  0  0  0  0999 V2000
   11.0512  -15.8208   16.0529 N   0  0  0  0  0  0  0  0  0  0  0  0
   10.6838  -17.1624   16.3656 C   0  0  0  0  0  0  0  0  0  0  0  0
   10.1721  -17.8133   15.4278 O   0  0  0  0  0  0  0  0  0  0  0  0
   10.8682  -17.7840   17.6609 C   0  0  0  0  0  0  0  0  0  0  0  0
   11.4034  -17.0019   18.7807 C   0  0  0  0  0  0  0  0  0  0  0  0
   11.5803  -17.6747   20.0965 C   0  0  2  0  0  0  0  0  0  0  0  0
   10.9703  -18.9514   20.2530 N   0  0  0  0  0  0  0  0  0  0  0  0
   11.2318  -16.7807   21.2328 C   0  0  0  0  0  0  0  0  0  0  0  0
   11.8891  -15.7031   21.4347 O   0  0  0  0  0  0  0  0  0  0  0  0
    6.8373  -12.9878   18.5180 O   0  0  0  0  0  0  0  0  0  0  0  0
    7.2254  -13.6642   19.6580 C   0  0  0  0  0  0  0  0  0  0  0  0
    8.0006  -13.0323   20.5892 C   0  0  0  0  0  0  0  0  0  0  0  0
    8.3793  -13.7348   21.7303 C   0  0  0  0  0  0  0  0  0  0  0  0
    7.9900  -15.0448   21.9359 C   0  0  0  0  0  0  0  0  0  0  0  0
    8.3974  -15.7799   23.1405 C   0  0  0  0  0  0  0  0  0  0  0  0
    9.8767  -16.0764   23.1897 C   0  0  2  0  0  0  0  0  0  0  0  0
   10.1808  -17.0612   22.1315 N   0  0  0  0  0  0  0  0  0  0  0  0
   10.2582  -16.7265   24.4923 C   0  0  0  0  0  0  0  0  0  0  0  0
   10.8800  -17.8308   24.5011 O   0  0  0  0  0  0  0  0  0  0  0  0
    7.2050  -15.6286   20.9551 C   0  0  0  0  0  0  0  0  0  0  0  0
    6.8104  -14.9644   19.8123 C   0  0  0  0  0  0  0  0  0  0  0  0
    8.8717  -12.7929   28.9747 C   0  0  0  0  0  0  0  0  0  0  0  0
   10.4964  -12.9960   28.1735 S   0  0  0  0  0  0  0  0  0  0  0  0
   11.1411  -14.6215   28.2007 C   0  0  0  0  0  0  0  0  0  0  0  0
   10.3415  -15.8385   28.1042 C   0  0  0  0  0  0  0  0  0  0  0  0
   10.5716  -16.7447   26.9703 C   0  0  2  0  0  0  0  0  0  0  0  0
    9.9466  -16.1465   25.7332 N   0  0  0  0  0  0  0  0  0  0  0  0
    9.6199  -17.9224   27.1399 C   0  0  0  0  0  0  0  0  0  0  0  0
    8.5784  -17.9041   26.3811 O   0  0  0  0  0  0  0  0  0  0  0  0
    9.7659  -18.9475   27.9891 O   0  0  0  0  0  0  0  0  0  0  0  0
  1  2  1  0
  2  4  1  0
  3  2  2  0
  4  5  1  0
  6  5  1  0
  6  7  1  6
  8  6  1  0
  9  8  2  0
 10 11  1  0
 11 21  2  0
 12 13  2  0
 12 11  1  0
 13 14  1  0
 14 15  1  0
 14 20  2  0
 16 15  1  1
 16 18  1  0
 16 17  1  0
 17  8  1  0
 18 19  2  0
 21 20  1  0
 22 23  1  0
 23 24  1  0
 25 24  1  0
 26 25  1  1
 27 26  1  0
 27 18  1  0
 28 30  1  0
 28 26  1  0
 29 28  2  0
M  END
$$$$
