QYM.pdb
     RDKit          3D

 30 30  0  0  1  0  0  0  0  0999 V2000
   11.1703  -20.3607   17.2707 N   0  0  0  0  0  0  0  0  0  0  0  0
    9.8475  -20.5921   17.7498 C   0  0  0  0  0  0  0  0  0  0  0  0
    9.1848  -21.4408   17.1132 O   0  0  0  0  0  0  0  0  0  0  0  0
    9.2585  -19.9227   18.8913 C   0  0  0  0  0  0  0  0  0  0  0  0
   10.0162  -18.8915   19.6088 C   0  0  0  0  0  0  0  0  0  0  0  0
    9.7340  -18.6799   21.0548 C   0  0  2  0  0  0  0  0  0  0  0  0
    8.4617  -19.1056   21.5307 N   0  0  0  0  0  0  0  0  0  0  0  0
   10.0164  -17.2833   21.4810 C   0  0  0  0  0  0  0  0  0  0  0  0
   11.1132  -16.7148   21.1526 O   0  0  0  0  0  0  0  0  0  0  0  0
    7.8756  -13.6255   16.5337 O   0  0  0  0  0  0  0  0  0  0  0  0
    7.9590  -13.7786   17.9040 C   0  0  0  0  0  0  0  0  0  0  0  0
    6.9613  -13.2923   18.7013 C   0  0  0  0  0  0  0  0  0  0  0  0
    7.0677  -13.4585   20.0799 C   0  0  0  0  0  0  0  0  0  0  0  0
    8.1516  -14.0989   20.6499 C   0  0  0  0  0  0  0  0  0  0  0  0
    8.2579  -14.2663   22.1052 C   0  0  0  0  0  0  0  0  0  0  0  0
    9.4383  -15.1076   22.5268 C   0  0  2  0  0  0  0  0  0  0  0  0
    9.1126  -16.5220   22.2521 N   0  0  0  0  0  0  0  0  0  0  0  0
    9.6737  -15.0100   24.0101 C   0  0  0  0  0  0  0  0  0  0  0  0
    9.9966  -13.9038   24.5377 O   0  0  0  0  0  0  0  0  0  0  0  0
    9.1288  -14.5690   19.7877 C   0  0  0  0  0  0  0  0  0  0  0  0
    9.0577  -14.4229   18.4179 C   0  0  0  0  0  0  0  0  0  0  0  0
    7.0493  -11.1818   27.2003 C   0  0  0  0  0  0  0  0  0  0  0  0
    6.8964  -12.9981   27.2226 S   0  0  0  0  0  0  0  0  0  0  0  0
    8.3912  -13.8733   26.9807 C   0  0  0  0  0  0  0  0  0  0  0  0
    8.5038  -15.3258   26.8957 C   0  0  0  0  0  0  0  0  0  0  0  0
    9.7348  -15.9058   26.3409 C   0  0  2  0  0  0  0  0  0  0  0  0
    9.5472  -16.1222   24.8587 N   0  0  0  0  0  0  0  0  0  0  0  0
    9.7699  -17.3686   26.7656 C   0  0  0  0  0  0  0  0  0  0  0  0
   10.0296  -17.5757   28.0108 O   0  0  0  0  0  0  0  0  0  0  0  0
    9.5626  -18.4312   25.9775 O   0  0  0  0  0  0  0  0  0  0  0  0
  1  2  1  0
  2  4  1  0
  3  2  2  0
  4  5  1  0
  6  5  1  0
  6  7  1  6
  8  6  1  0
  9  8  2  0
 10 11  1  0
 11 21  2  0
 12 13  2  0
 12 11  1  0
 13 14  1  0
 14 15  1  0
 14 20  2  0
 16 15  1  1
 16 18  1  0
 16 17  1  0
 17  8  1  0
 18 19  2  0
 21 20  1  0
 22 23  1  0
 23 24  1  0
 25 24  1  0
 26 25  1  1
 27 26  1  0
 27 18  1  0
 28 30  1  0
 28 26  1  0
 29 28  2  0
M  END
$$$$
