QYM.pdb
     RDKit          3D

 30 30  0  0  1  0  0  0  0  0999 V2000
    7.2280  -18.5902   18.0965 N   0  0  0  0  0  0  0  0  0  0  0  0
    8.3883  -19.3090   17.6843 C   0  0  0  0  0  0  0  0  0  0  0  0
    8.3840  -20.5329   17.9432 O   0  0  0  0  0  0  0  0  0  0  0  0
    9.5234  -18.7174   17.0064 C   0  0  0  0  0  0  0  0  0  0  0  0
    9.5156  -17.2890   16.6717 C   0  0  0  0  0  0  0  0  0  0  0  0
   10.6613  -16.7340   15.9008 C   0  0  2  0  0  0  0  0  0  0  0  0
   11.0216  -17.4155   14.7041 N   0  0  0  0  0  0  0  0  0  0  0  0
   11.8550  -16.5074   16.7586 C   0  0  0  0  0  0  0  0  0  0  0  0
   12.8059  -17.3613   16.7843 O   0  0  0  0  0  0  0  0  0  0  0  0
   19.0842  -13.1381   19.8914 O   0  0  0  0  0  0  0  0  0  0  0  0
   17.7961  -13.3169   19.4257 C   0  0  0  0  0  0  0  0  0  0  0  0
   17.5933  -13.8451   18.1818 C   0  0  0  0  0  0  0  0  0  0  0  0
   16.2858  -14.0158   17.7340 C   0  0  0  0  0  0  0  0  0  0  0  0
   15.2017  -13.6645   18.5159 C   0  0  0  0  0  0  0  0  0  0  0  0
   13.8258  -13.8441   18.0343 C   0  0  0  0  0  0  0  0  0  0  0  0
   13.2563  -15.2076   18.3425 C   0  0  2  0  0  0  0  0  0  0  0  0
   12.0053  -15.3648   17.5728 N   0  0  0  0  0  0  0  0  0  0  0  0
   12.8751  -15.3226   19.7939 C   0  0  0  0  0  0  0  0  0  0  0  0
   11.7667  -14.8659   20.2049 O   0  0  0  0  0  0  0  0  0  0  0  0
   15.4740  -13.1347   19.7666 C   0  0  0  0  0  0  0  0  0  0  0  0
   16.7552  -12.9511   20.2437 C   0  0  0  0  0  0  0  0  0  0  0  0
   10.5900  -17.0002   26.4748 C   0  0  0  0  0  0  0  0  0  0  0  0
   10.8910  -16.3739   24.7896 S   0  0  0  0  0  0  0  0  0  0  0  0
   12.0365  -17.2990   23.8458 C   0  0  0  0  0  0  0  0  0  0  0  0
   12.4017  -17.0135   22.4621 C   0  0  0  0  0  0  0  0  0  0  0  0
   13.3029  -15.8850   22.1897 C   0  0  2  0  0  0  0  0  0  0  0  0
   13.7176  -15.9312   20.7389 N   0  0  0  0  0  0  0  0  0  0  0  0
   14.6520  -16.2320   22.8067 C   0  0  0  0  0  0  0  0  0  0  0  0
   15.5179  -16.7332   21.9945 O   0  0  0  0  0  0  0  0  0  0  0  0
   15.0068  -16.0686   24.0876 O   0  0  0  0  0  0  0  0  0  0  0  0
  1  2  1  0
  2  4  1  0
  3  2  2  0
  4  5  1  0
  6  5  1  0
  6  7  1  6
  8  6  1  0
  9  8  2  0
 10 11  1  0
 11 21  2  0
 12 13  2  0
 12 11  1  0
 13 14  1  0
 14 15  1  0
 14 20  2  0
 16 15  1  1
 16 18  1  0
 16 17  1  0
 17  8  1  0
 18 19  2  0
 21 20  1  0
 22 23  1  0
 23 24  1  0
 25 24  1  0
 26 25  1  6
 27 26  1  0
 27 18  1  0
 28 30  1  0
 28 26  1  0
 29 28  2  0
M  END
$$$$
