QYM.pdb
     RDKit          3D

 30 30  0  0  1  0  0  0  0  0999 V2000
    9.4926  -13.2631   15.7817 N   0  0  0  0  0  0  0  0  0  0  0  0
    8.4678  -14.2543   15.7969 C   0  0  0  0  0  0  0  0  0  0  0  0
    8.1746  -14.7429   14.6833 O   0  0  0  0  0  0  0  0  0  0  0  0
    7.7800  -14.7065   16.9887 C   0  0  0  0  0  0  0  0  0  0  0  0
    8.2036  -14.2245   18.3080 C   0  0  0  0  0  0  0  0  0  0  0  0
    8.7163  -15.2139   19.2946 C   0  0  2  0  0  0  0  0  0  0  0  0
    8.0848  -16.4895   19.3136 N   0  0  0  0  0  0  0  0  0  0  0  0
    8.7974  -14.6450   20.6663 C   0  0  0  0  0  0  0  0  0  0  0  0
    9.7355  -13.8341   20.9771 O   0  0  0  0  0  0  0  0  0  0  0  0
    6.7731  -11.7983   28.7139 O   0  0  0  0  0  0  0  0  0  0  0  0
    6.7403  -12.3621   27.4534 C   0  0  0  0  0  0  0  0  0  0  0  0
    6.4012  -13.6780   27.3091 C   0  0  0  0  0  0  0  0  0  0  0  0
    6.3752  -14.2241   26.0283 C   0  0  0  0  0  0  0  0  0  0  0  0
    6.6827  -13.4680   24.9131 C   0  0  0  0  0  0  0  0  0  0  0  0
    6.6568  -14.0530   23.5661 C   0  0  0  0  0  0  0  0  0  0  0  0
    8.0313  -14.3288   23.0062 C   0  0  2  0  0  0  0  0  0  0  0  0
    7.8665  -14.9575   21.6796 N   0  0  0  0  0  0  0  0  0  0  0  0
    8.7746  -15.3249   23.8549 C   0  0  0  0  0  0  0  0  0  0  0  0
    8.7995  -15.2021   25.1160 O   0  0  0  0  0  0  0  0  0  0  0  0
    7.0182  -12.1410   25.1263 C   0  0  0  0  0  0  0  0  0  0  0  0
    7.0546  -11.5656   26.3794 C   0  0  0  0  0  0  0  0  0  0  0  0
   11.9893  -19.9037   19.7045 C   0  0  0  0  0  0  0  0  0  0  0  0
   11.1391  -20.1813   21.2929 S   0  0  0  0  0  0  0  0  0  0  0  0
   10.9988  -18.7711   22.3178 C   0  0  0  0  0  0  0  0  0  0  0  0
   10.2110  -18.7057   23.5445 C   0  0  0  0  0  0  0  0  0  0  0  0
   10.0890  -17.4145   24.2355 C   0  0  2  0  0  0  0  0  0  0  0  0
    9.4608  -16.4150   23.2946 N   0  0  0  0  0  0  0  0  0  0  0  0
   11.4842  -16.8046   24.2915 C   0  0  0  0  0  0  0  0  0  0  0  0
   11.7158  -15.8762   23.4282 O   0  0  0  0  0  0  0  0  0  0  0  0
   12.4669  -17.1424   25.1362 O   0  0  0  0  0  0  0  0  0  0  0  0
  1  2  1  0
  2  4  1  0
  3  2  2  0
  4  5  1  0
  6  5  1  0
  6  7  1  1
  8  6  1  0
  9  8  2  0
 10 11  1  0
 11 21  2  0
 12 13  2  0
 12 11  1  0
 13 14  1  0
 14 15  1  0
 14 20  2  0
 16 15  1  1
 16 18  1  0
 16 17  1  0
 17  8  1  0
 18 19  2  0
 21 20  1  0
 22 23  1  0
 23 24  1  0
 25 24  1  0
 26 25  1  6
 27 26  1  0
 27 18  1  0
 28 30  1  0
 28 26  1  0
 29 28  2  0
M  END
$$$$
