QYM.pdb
     RDKit          3D

 30 30  0  0  1  0  0  0  0  0999 V2000
    3.3910  -17.6820   21.3243 N   0  0  0  0  0  0  0  0  0  0  0  0
    3.5967  -19.0193   20.8745 C   0  0  0  0  0  0  0  0  0  0  0  0
    2.5626  -19.7135   20.7584 O   0  0  0  0  0  0  0  0  0  0  0  0
    4.8897  -19.5892   20.5561 C   0  0  0  0  0  0  0  0  0  0  0  0
    6.0974  -18.7602   20.6383 C   0  0  0  0  0  0  0  0  0  0  0  0
    6.7973  -18.6528   21.9474 C   0  0  2  0  0  0  0  0  0  0  0  0
    5.9832  -18.4480   23.0970 N   0  0  0  0  0  0  0  0  0  0  0  0
    7.9105  -17.6673   21.9070 C   0  0  0  0  0  0  0  0  0  0  0  0
    8.8980  -17.8374   21.1133 O   0  0  0  0  0  0  0  0  0  0  0  0
    6.9906  -13.2937   16.9594 O   0  0  0  0  0  0  0  0  0  0  0  0
    7.3618  -13.5096   18.2722 C   0  0  0  0  0  0  0  0  0  0  0  0
    8.6520  -13.2770   18.6578 C   0  0  0  0  0  0  0  0  0  0  0  0
    9.0025  -13.5020   19.9866 C   0  0  0  0  0  0  0  0  0  0  0  0
    8.0797  -13.9513   20.9121 C   0  0  0  0  0  0  0  0  0  0  0  0
    8.4588  -14.1900   22.3109 C   0  0  0  0  0  0  0  0  0  0  0  0
    9.0526  -15.5579   22.5456 C   0  0  2  0  0  0  0  0  0  0  0  0
    7.9408  -16.5147   22.7204 N   0  0  0  0  0  0  0  0  0  0  0  0
    9.8450  -15.5948   23.8245 C   0  0  0  0  0  0  0  0  0  0  0  0
   10.5292  -14.5908   24.1852 O   0  0  0  0  0  0  0  0  0  0  0  0
    6.7888  -14.1680   20.4585 C   0  0  0  0  0  0  0  0  0  0  0  0
    6.4050  -13.9562   19.1506 C   0  0  0  0  0  0  0  0  0  0  0  0
   10.9231  -12.9856   29.3227 C   0  0  0  0  0  0  0  0  0  0  0  0
    9.6320  -14.2722   29.3008 S   0  0  0  0  0  0  0  0  0  0  0  0
    9.9802  -15.6582   28.2925 C   0  0  0  0  0  0  0  0  0  0  0  0
    9.6580  -15.7597   26.8728 C   0  0  0  0  0  0  0  0  0  0  0  0
   10.5107  -16.5942   26.0147 C   0  0  2  0  0  0  0  0  0  0  0  0
    9.8595  -16.7246   24.6590 N   0  0  0  0  0  0  0  0  0  0  0  0
   10.3323  -18.0357   26.4748 C   0  0  0  0  0  0  0  0  0  0  0  0
   10.8360  -18.3134   27.6280 O   0  0  0  0  0  0  0  0  0  0  0  0
    9.7160  -19.0155   25.8013 O   0  0  0  0  0  0  0  0  0  0  0  0
  1  2  1  0
  2  4  1  0
  3  2  2  0
  4  5  1  0
  6  5  1  0
  6  7  1  1
  8  6  1  0
  9  8  2  0
 10 11  1  0
 11 21  2  0
 12 13  2  0
 12 11  1  0
 13 14  1  0
 14 15  1  0
 14 20  2  0
 16 15  1  1
 16 18  1  0
 16 17  1  0
 17  8  1  0
 18 19  2  0
 21 20  1  0
 22 23  1  0
 23 24  1  0
 25 24  1  0
 26 25  1  1
 27 26  1  0
 27 18  1  0
 28 30  1  0
 28 26  1  0
 29 28  2  0
M  END
$$$$
