GLQ.pdb
     RDKit          3D

 22 21  0  0  1  0  0  0  0  0999 V2000
    5.8413  -18.3737   22.6095 N   0  0  0  0  0  0  0  0  0  0  0  0
    5.8927  -17.8009   23.9229 C   0  0  0  0  0  0  0  0  0  0  0  0
    6.8436  -16.6562   24.0204 C   0  0  0  0  0  0  0  0  0  0  0  0
    7.5902  -16.4655   23.0250 O   0  0  0  0  0  0  0  0  0  0  0  0
    5.9173  -11.8401   26.8004 C   0  0  0  0  0  0  0  0  0  0  0  0
    6.1855  -12.8103   25.5897 C   0  0  1  0  0  0  0  0  0  0  0  0
    6.5750  -11.8859   24.4247 C   0  0  0  0  0  0  0  0  0  0  0  0
    7.3064  -13.6544   26.0537 C   0  0  0  0  0  0  0  0  0  0  0  0
    7.8782  -14.7106   25.1996 C   0  0  2  0  0  0  0  0  0  0  0  0
    6.9021  -15.8419   25.1528 N   0  0  0  0  0  0  0  0  0  0  0  0
    9.2064  -15.2455   25.4881 C   0  0  0  0  0  0  0  0  0  0  0  0
   10.2821  -14.5735   25.5423 O   0  0  0  0  0  0  0  0  0  0  0  0
    9.7238  -20.5155   28.7433 N   0  0  0  0  0  0  0  0  0  0  0  0
   10.7995  -19.6252   29.1024 C   0  0  0  0  0  0  0  0  0  0  0  0
   11.4130  -19.8228   30.1770 O   0  0  0  0  0  0  0  0  0  0  0  0
   11.1905  -18.4964   28.2434 C   0  0  0  0  0  0  0  0  0  0  0  0
   10.3157  -18.3657   27.0553 C   0  0  0  0  0  0  0  0  0  0  0  0
   10.6516  -17.2499   26.1013 C   0  0  2  0  0  0  0  0  0  0  0  0
    9.3762  -16.6442   25.7407 N   0  0  0  0  0  0  0  0  0  0  0  0
   11.3721  -17.7129   24.8864 C   0  0  0  0  0  0  0  0  0  0  0  0
   10.7008  -17.9881   23.8637 O   0  0  0  0  0  0  0  0  0  0  0  0
   12.7493  -17.8575   24.8220 O   0  0  0  0  0  0  0  0  0  0  0  0
  2  3  1  0
  2  1  1  0
  3 10  1  0
  4  3  2  0
  6  5  1  1
  7  6  1  0
  8  6  1  0
  9  8  1  1
 10  9  1  0
 11 19  1  0
 11  9  1  0
 12 11  2  0
 13 14  1  0
 14 15  2  0
 16 17  1  0
 16 14  1  0
 18 19  1  0
 18 17  1  1
 20 18  1  0
 21 20  2  0
 22 20  1  0
M  END
$$$$
