GLQ.pdb
     RDKit          3D

 22 21  0  0  1  0  0  0  0  0999 V2000
    7.3377  -14.7239   19.9449 N   0  0  0  0  0  0  0  0  0  0  0  0
    6.5882  -14.7742   21.1661 C   0  0  0  0  0  0  0  0  0  0  0  0
    7.4438  -14.6295   22.3790 C   0  0  0  0  0  0  0  0  0  0  0  0
    8.6868  -14.7118   22.1973 O   0  0  0  0  0  0  0  0  0  0  0  0
    5.9970  -11.7133   26.9321 C   0  0  0  0  0  0  0  0  0  0  0  0
    6.7053  -12.1596   25.5987 C   0  0  1  0  0  0  0  0  0  0  0  0
    7.8891  -11.1917   25.4401 C   0  0  0  0  0  0  0  0  0  0  0  0
    7.1304  -13.5486   25.8711 C   0  0  0  0  0  0  0  0  0  0  0  0
    7.7939  -14.3659   24.8395 C   0  0  2  0  0  0  0  0  0  0  0  0
    6.8963  -14.4148   23.6451 N   0  0  0  0  0  0  0  0  0  0  0  0
    8.2357  -15.7222   25.1532 C   0  0  0  0  0  0  0  0  0  0  0  0
    7.4871  -16.7424   25.2552 O   0  0  0  0  0  0  0  0  0  0  0  0
   13.1503  -18.2946   22.6231 N   0  0  0  0  0  0  0  0  0  0  0  0
   13.2919  -18.7595   23.9805 C   0  0  0  0  0  0  0  0  0  0  0  0
   14.3869  -19.2525   24.3383 O   0  0  0  0  0  0  0  0  0  0  0  0
   12.1878  -18.6706   24.9491 C   0  0  0  0  0  0  0  0  0  0  0  0
   11.3471  -17.4704   24.7335 C   0  0  0  0  0  0  0  0  0  0  0  0
   10.1566  -17.3198   25.6435 C   0  0  2  0  0  0  0  0  0  0  0  0
    9.6241  -15.9898   25.3766 N   0  0  0  0  0  0  0  0  0  0  0  0
   10.4954  -17.4678   27.0832 C   0  0  0  0  0  0  0  0  0  0  0  0
   10.5611  -16.4338   27.7895 O   0  0  0  0  0  0  0  0  0  0  0  0
   10.7433  -18.6895   27.6894 O   0  0  0  0  0  0  0  0  0  0  0  0
  2  3  1  0
  2  1  1  0
  3 10  1  0
  4  3  2  0
  6  5  1  1
  7  6  1  0
  8  6  1  0
  9  8  1  1
 10  9  1  0
 11 19  1  0
 11  9  1  0
 12 11  2  0
 13 14  1  0
 14 15  2  0
 16 17  1  0
 16 14  1  0
 18 19  1  0
 18 17  1  6
 20 18  1  0
 21 20  2  0
 22 20  1  0
M  END
$$$$
