GLQ.pdb
     RDKit          3D

 22 21  0  0  1  0  0  0  0  0999 V2000
    6.8728  -16.1612   20.4714 N   0  0  0  0  0  0  0  0  0  0  0  0
    6.4377  -16.2140   21.8365 C   0  0  0  0  0  0  0  0  0  0  0  0
    7.1389  -15.2277   22.7080 C   0  0  0  0  0  0  0  0  0  0  0  0
    8.1004  -14.6062   22.1847 O   0  0  0  0  0  0  0  0  0  0  0  0
    5.3757  -11.6011   26.8088 C   0  0  0  0  0  0  0  0  0  0  0  0
    6.0080  -12.0986   25.4555 C   0  0  1  0  0  0  0  0  0  0  0  0
    7.0476  -11.0266   25.0904 C   0  0  0  0  0  0  0  0  0  0  0  0
    6.6197  -13.3974   25.8065 C   0  0  0  0  0  0  0  0  0  0  0  0
    7.5500  -14.0816   24.8906 C   0  0  2  0  0  0  0  0  0  0  0  0
    6.7503  -15.0065   24.0305 N   0  0  0  0  0  0  0  0  0  0  0  0
    8.6990  -14.8088   25.4239 C   0  0  0  0  0  0  0  0  0  0  0  0
    9.6642  -14.2998   26.0728 O   0  0  0  0  0  0  0  0  0  0  0  0
    8.3785  -19.6629   28.7931 N   0  0  0  0  0  0  0  0  0  0  0  0
    7.7493  -19.6755   27.4959 C   0  0  0  0  0  0  0  0  0  0  0  0
    6.7715  -20.4360   27.3070 O   0  0  0  0  0  0  0  0  0  0  0  0
    8.2259  -18.8233   26.3952 C   0  0  0  0  0  0  0  0  0  0  0  0
    9.2929  -17.8916   26.8282 C   0  0  0  0  0  0  0  0  0  0  0  0
    9.9000  -17.0295   25.7530 C   0  0  2  0  0  0  0  0  0  0  0  0
    8.8042  -16.2232   25.2306 N   0  0  0  0  0  0  0  0  0  0  0  0
   10.5382  -17.8128   24.6627 C   0  0  0  0  0  0  0  0  0  0  0  0
   11.5548  -18.4945   24.9348 O   0  0  0  0  0  0  0  0  0  0  0  0
   10.0698  -17.8309   23.3582 O   0  0  0  0  0  0  0  0  0  0  0  0
  2  3  1  0
  2  1  1  0
  3 10  1  0
  4  3  2  0
  6  5  1  1
  7  6  1  0
  8  6  1  0
  9  8  1  1
 10  9  1  0
 11 19  1  0
 11  9  1  0
 12 11  2  0
 13 14  1  0
 14 15  2  0
 16 17  1  0
 16 14  1  0
 18 19  1  0
 18 17  1  1
 20 18  1  0
 21 20  2  0
 22 20  1  0
M  END
$$$$
