GLQ.pdb
     RDKit          3D

 22 21  0  0  1  0  0  0  0  0999 V2000
    7.5445  -14.7500   20.0217 N   0  0  0  0  0  0  0  0  0  0  0  0
    6.7316  -14.7441   21.2027 C   0  0  0  0  0  0  0  0  0  0  0  0
    7.5333  -14.7011   22.4594 C   0  0  0  0  0  0  0  0  0  0  0  0
    8.7660  -14.9279   22.3421 O   0  0  0  0  0  0  0  0  0  0  0  0
    5.9369  -11.7400   26.9317 C   0  0  0  0  0  0  0  0  0  0  0  0
    6.6954  -12.1982   25.6303 C   0  0  1  0  0  0  0  0  0  0  0  0
    7.8764  -11.2227   25.5003 C   0  0  0  0  0  0  0  0  0  0  0  0
    7.1215  -13.5798   25.9365 C   0  0  0  0  0  0  0  0  0  0  0  0
    7.7957  -14.4176   24.9286 C   0  0  2  0  0  0  0  0  0  0  0  0
    6.9489  -14.4248   23.6967 N   0  0  0  0  0  0  0  0  0  0  0  0
    8.1697  -15.7921   25.2517 C   0  0  0  0  0  0  0  0  0  0  0  0
    7.3721  -16.7744   25.3545 O   0  0  0  0  0  0  0  0  0  0  0  0
   13.9386  -20.0940   23.9196 N   0  0  0  0  0  0  0  0  0  0  0  0
   12.8911  -19.1146   23.7705 C   0  0  0  0  0  0  0  0  0  0  0  0
   12.9436  -18.3172   22.8053 O   0  0  0  0  0  0  0  0  0  0  0  0
   11.7698  -19.0286   24.7194 C   0  0  0  0  0  0  0  0  0  0  0  0
   11.1548  -17.6813   24.7411 C   0  0  0  0  0  0  0  0  0  0  0  0
   10.0158  -17.4854   25.7067 C   0  0  2  0  0  0  0  0  0  0  0  0
    9.5423  -16.1252   25.4846 N   0  0  0  0  0  0  0  0  0  0  0  0
   10.4106  -17.6758   27.1270 C   0  0  0  0  0  0  0  0  0  0  0  0
   10.5838  -18.8449   27.5460 O   0  0  0  0  0  0  0  0  0  0  0  0
   10.5984  -16.6290   28.0161 O   0  0  0  0  0  0  0  0  0  0  0  0
  2  3  1  0
  2  1  1  0
  3 10  1  0
  4  3  2  0
  6  5  1  1
  7  6  1  0
  8  6  1  0
  9  8  1  1
 10  9  1  0
 11 19  1  0
 11  9  1  0
 12 11  2  0
 13 14  1  0
 14 15  2  0
 16 17  1  0
 16 14  1  0
 18 19  1  0
 18 17  1  6
 20 18  1  0
 21 20  2  0
 22 20  1  0
M  END
$$$$
