GLQ.pdb
     RDKit          3D

 22 21  0  0  1  0  0  0  0  0999 V2000
    5.7913  -18.7117   23.4179 N   0  0  0  0  0  0  0  0  0  0  0  0
    5.8569  -17.9065   24.6024 C   0  0  0  0  0  0  0  0  0  0  0  0
    6.8761  -16.8216   24.5113 C   0  0  0  0  0  0  0  0  0  0  0  0
    7.6303  -16.8485   23.5037 O   0  0  0  0  0  0  0  0  0  0  0  0
    6.0680  -11.9581   26.9219 C   0  0  0  0  0  0  0  0  0  0  0  0
    6.4200  -12.8498   25.6730 C   0  0  1  0  0  0  0  0  0  0  0  0
    6.7094  -11.8474   24.5440 C   0  0  0  0  0  0  0  0  0  0  0  0
    7.6208  -13.5985   26.0994 C   0  0  0  0  0  0  0  0  0  0  0  0
    8.0691  -14.8055   25.3823 C   0  0  2  0  0  0  0  0  0  0  0  0
    6.9871  -15.8315   25.4892 N   0  0  0  0  0  0  0  0  0  0  0  0
    9.3450  -15.4284   25.7250 C   0  0  0  0  0  0  0  0  0  0  0  0
   10.4943  -14.9854   25.4172 O   0  0  0  0  0  0  0  0  0  0  0  0
    9.3414  -20.3110   29.7072 N   0  0  0  0  0  0  0  0  0  0  0  0
   10.7460  -20.2013   29.4007 C   0  0  0  0  0  0  0  0  0  0  0  0
   11.5510  -20.9704   29.9757 O   0  0  0  0  0  0  0  0  0  0  0  0
   11.2536  -19.2129   28.4361 C   0  0  0  0  0  0  0  0  0  0  0  0
   10.1730  -18.3691   27.8757 C   0  0  0  0  0  0  0  0  0  0  0  0
   10.5953  -17.3230   26.8781 C   0  0  2  0  0  0  0  0  0  0  0  0
    9.3686  -16.6485   26.4732 N   0  0  0  0  0  0  0  0  0  0  0  0
   11.2956  -17.8883   25.6951 C   0  0  0  0  0  0  0  0  0  0  0  0
   12.5314  -17.7040   25.5895 O   0  0  0  0  0  0  0  0  0  0  0  0
   10.6557  -18.6101   24.6996 O   0  0  0  0  0  0  0  0  0  0  0  0
  2  3  1  0
  2  1  1  0
  3 10  1  0
  4  3  2  0
  6  5  1  1
  7  6  1  0
  8  6  1  0
  9  8  1  1
 10  9  1  0
 11 19  1  0
 11  9  1  0
 12 11  2  0
 13 14  1  0
 14 15  2  0
 16 17  1  0
 16 14  1  0
 18 19  1  0
 18 17  1  1
 20 18  1  0
 21 20  2  0
 22 20  1  0
M  END
$$$$
