GLQ.pdb
     RDKit          3D

 22 21  0  0  1  0  0  0  0  0999 V2000
    5.4611  -18.2284   22.9236 N   0  0  0  0  0  0  0  0  0  0  0  0
    5.7153  -17.5255   24.1471 C   0  0  0  0  0  0  0  0  0  0  0  0
    6.8183  -16.5291   24.0260 C   0  0  0  0  0  0  0  0  0  0  0  0
    7.5622  -16.6411   23.0166 O   0  0  0  0  0  0  0  0  0  0  0  0
    6.5594  -12.0391   27.1147 C   0  0  0  0  0  0  0  0  0  0  0  0
    6.4348  -12.9957   25.8705 C   0  0  1  0  0  0  0  0  0  0  0  0
    5.7696  -12.1385   24.7814 C   0  0  0  0  0  0  0  0  0  0  0  0
    7.8345  -13.3464   25.5515 C   0  0  0  0  0  0  0  0  0  0  0  0
    8.1720  -14.5924   24.8402 C   0  0  2  0  0  0  0  0  0  0  0  0
    7.0146  -15.5283   24.9792 N   0  0  0  0  0  0  0  0  0  0  0  0
    9.4012  -15.3108   25.1661 C   0  0  0  0  0  0  0  0  0  0  0  0
   10.5749  -14.8282   25.1321 O   0  0  0  0  0  0  0  0  0  0  0  0
    9.4639  -19.4331   29.6040 N   0  0  0  0  0  0  0  0  0  0  0  0
   10.7405  -19.7343   29.0055 C   0  0  0  0  0  0  0  0  0  0  0  0
   11.5026  -20.5432   29.5843 O   0  0  0  0  0  0  0  0  0  0  0  0
   11.1678  -19.1171   27.7399 C   0  0  0  0  0  0  0  0  0  0  0  0
   10.1626  -18.1661   27.2117 C   0  0  0  0  0  0  0  0  0  0  0  0
   10.5177  -17.4696   25.9245 C   0  0  2  0  0  0  0  0  0  0  0  0
    9.3438  -16.6840   25.5662 N   0  0  0  0  0  0  0  0  0  0  0  0
   10.8731  -18.4079   24.8277 C   0  0  0  0  0  0  0  0  0  0  0  0
   11.9345  -19.0678   24.9282 O   0  0  0  0  0  0  0  0  0  0  0  0
   10.0933  -18.5938   23.6968 O   0  0  0  0  0  0  0  0  0  0  0  0
  2  3  1  0
  2  1  1  0
  3 10  1  0
  4  3  2  0
  6  5  1  1
  7  6  1  0
  8  6  1  0
  9  8  1  1
 10  9  1  0
 11 19  1  0
 11  9  1  0
 12 11  2  0
 13 14  1  0
 14 15  2  0
 16 17  1  0
 16 14  1  0
 18 19  1  0
 18 17  1  1
 20 18  1  0
 21 20  2  0
 22 20  1  0
M  END
$$$$
