GLQ.pdb
     RDKit          3D

 22 21  0  0  1  0  0  0  0  0999 V2000
    5.4286  -18.1162   22.1251 N   0  0  0  0  0  0  0  0  0  0  0  0
    5.2992  -17.5345   23.4292 C   0  0  0  0  0  0  0  0  0  0  0  0
    6.5245  -16.8036   23.8632 C   0  0  0  0  0  0  0  0  0  0  0  0
    7.5807  -17.0598   23.2281 O   0  0  0  0  0  0  0  0  0  0  0  0
    6.4920  -12.0483   26.8593 C   0  0  0  0  0  0  0  0  0  0  0  0
    6.7086  -13.0376   25.6538 C   0  0  1  0  0  0  0  0  0  0  0  0
    7.5065  -12.2272   24.6194 C   0  0  0  0  0  0  0  0  0  0  0  0
    7.4887  -14.1468   26.2415 C   0  0  0  0  0  0  0  0  0  0  0  0
    7.7876  -15.3682   25.4727 C   0  0  2  0  0  0  0  0  0  0  0  0
    6.5009  -15.8863   24.9154 N   0  0  0  0  0  0  0  0  0  0  0  0
    8.5066  -16.4720   26.1038 C   0  0  0  0  0  0  0  0  0  0  0  0
    8.0930  -17.1636   27.0847 O   0  0  0  0  0  0  0  0  0  0  0  0
    9.2037  -21.6690   23.0790 N   0  0  0  0  0  0  0  0  0  0  0  0
    9.9662  -20.4799   23.3674 C   0  0  0  0  0  0  0  0  0  0  0  0
   10.9390  -20.1935   22.6312 O   0  0  0  0  0  0  0  0  0  0  0  0
    9.6324  -19.6009   24.4992 C   0  0  0  0  0  0  0  0  0  0  0  0
   10.8225  -18.9023   25.0375 C   0  0  0  0  0  0  0  0  0  0  0  0
   10.5763  -17.9528   26.1801 C   0  0  2  0  0  0  0  0  0  0  0  0
    9.7974  -16.8564   25.6189 N   0  0  0  0  0  0  0  0  0  0  0  0
   11.8274  -17.4416   26.7989 C   0  0  0  0  0  0  0  0  0  0  0  0
   12.5279  -18.2356   27.4706 O   0  0  0  0  0  0  0  0  0  0  0  0
   12.2634  -16.1317   26.6737 O   0  0  0  0  0  0  0  0  0  0  0  0
  2  3  1  0
  2  1  1  0
  3 10  1  0
  4  3  2  0
  6  5  1  1
  7  6  1  0
  8  6  1  0
  9  8  1  1
 10  9  1  0
 11 19  1  0
 11  9  1  0
 12 11  2  0
 13 14  1  0
 14 15  2  0
 16 17  1  0
 16 14  1  0
 18 19  1  0
 18 17  1  6
 20 18  1  0
 21 20  2  0
 22 20  1  0
M  END
$$$$
