GLQ.pdb
     RDKit          3D

 22 21  0  0  1  0  0  0  0  0999 V2000
    6.3163  -18.0834   21.1865 N   0  0  0  0  0  0  0  0  0  0  0  0
    6.0467  -17.3957   22.4154 C   0  0  0  0  0  0  0  0  0  0  0  0
    7.0671  -16.3563   22.7352 C   0  0  0  0  0  0  0  0  0  0  0  0
    8.0791  -16.3200   21.9874 O   0  0  0  0  0  0  0  0  0  0  0  0
    8.1624  -12.3770   26.7243 C   0  0  0  0  0  0  0  0  0  0  0  0
    6.9855  -13.2380   26.1307 C   0  0  1  0  0  0  0  0  0  0  0  0
    5.7104  -12.4534   26.4798 C   0  0  0  0  0  0  0  0  0  0  0  0
    7.2642  -13.2666   24.6797 C   0  0  0  0  0  0  0  0  0  0  0  0
    7.9371  -14.4160   24.0485 C   0  0  2  0  0  0  0  0  0  0  0  0
    6.9084  -15.4729   23.8045 N   0  0  0  0  0  0  0  0  0  0  0  0
    9.0978  -15.0271   24.6909 C   0  0  0  0  0  0  0  0  0  0  0  0
   10.1720  -14.4292   25.0077 O   0  0  0  0  0  0  0  0  0  0  0  0
    8.5843  -19.6325   28.6942 N   0  0  0  0  0  0  0  0  0  0  0  0
    9.9806  -19.2801   28.7648 C   0  0  0  0  0  0  0  0  0  0  0  0
   10.6667  -19.7208   29.7162 O   0  0  0  0  0  0  0  0  0  0  0  0
   10.6147  -18.4196   27.7536 C   0  0  0  0  0  0  0  0  0  0  0  0
    9.6445  -17.9239   26.7502 C   0  0  0  0  0  0  0  0  0  0  0  0
   10.2164  -17.1206   25.6120 C   0  0  2  0  0  0  0  0  0  0  0  0
    9.0848  -16.4207   25.0177 N   0  0  0  0  0  0  0  0  0  0  0  0
   10.9083  -17.9542   24.5942 C   0  0  0  0  0  0  0  0  0  0  0  0
   10.2094  -18.6115   23.7869 O   0  0  0  0  0  0  0  0  0  0  0  0
   12.2874  -18.0449   24.4883 O   0  0  0  0  0  0  0  0  0  0  0  0
  2  3  1  0
  2  1  1  0
  3 10  1  0
  4  3  2  0
  6  5  1  1
  7  6  1  0
  8  6  1  0
  9  8  1  1
 10  9  1  0
 11 19  1  0
 11  9  1  0
 12 11  2  0
 13 14  1  0
 14 15  2  0
 16 17  1  0
 16 14  1  0
 18 19  1  0
 18 17  1  1
 20 18  1  0
 21 20  2  0
 22 20  1  0
M  END
$$$$
