GLQ.pdb
     RDKit          3D

 22 21  0  0  1  0  0  0  0  0999 V2000
   10.0427  -17.9550   14.9353 N   0  0  0  0  0  0  0  0  0  0  0  0
    9.1433  -17.7987   16.0410 C   0  0  0  0  0  0  0  0  0  0  0  0
    9.5955  -16.7644   17.0156 C   0  0  0  0  0  0  0  0  0  0  0  0
   10.7994  -16.4066   16.9302 O   0  0  0  0  0  0  0  0  0  0  0  0
    8.6911  -12.0808   19.3887 C   0  0  0  0  0  0  0  0  0  0  0  0
    8.2558  -13.2688   20.3258 C   0  0  1  0  0  0  0  0  0  0  0  0
    6.9319  -12.8068   20.9560 C   0  0  0  0  0  0  0  0  0  0  0  0
    8.0853  -14.4071   19.3988 C   0  0  0  0  0  0  0  0  0  0  0  0
    9.2389  -15.1932   18.9262 C   0  0  2  0  0  0  0  0  0  0  0  0
    8.7314  -16.2235   17.9693 N   0  0  0  0  0  0  0  0  0  0  0  0
   10.1267  -15.8403   19.8888 C   0  0  0  0  0  0  0  0  0  0  0  0
    9.9123  -16.9495   20.4681 O   0  0  0  0  0  0  0  0  0  0  0  0
   14.8745  -13.4403   19.0117 N   0  0  0  0  0  0  0  0  0  0  0  0
   15.3807  -14.7664   19.2646 C   0  0  0  0  0  0  0  0  0  0  0  0
   16.3826  -15.1621   18.6245 O   0  0  0  0  0  0  0  0  0  0  0  0
   14.7519  -15.6610   20.2491 C   0  0  0  0  0  0  0  0  0  0  0  0
   13.6124  -15.0187   20.9440 C   0  0  0  0  0  0  0  0  0  0  0  0
   12.3687  -15.8544   21.0952 C   0  0  2  0  0  0  0  0  0  0  0  0
   11.3636  -15.2187   20.2531 N   0  0  0  0  0  0  0  0  0  0  0  0
   11.8907  -15.9474   22.4996 C   0  0  0  0  0  0  0  0  0  0  0  0
   10.8589  -15.3117   22.8215 O   0  0  0  0  0  0  0  0  0  0  0  0
   12.5248  -16.7003   23.4756 O   0  0  0  0  0  0  0  0  0  0  0  0
  2  3  1  0
  2  1  1  0
  3 10  1  0
  4  3  2  0
  6  5  1  6
  7  6  1  0
  8  6  1  0
  9  8  1  1
 10  9  1  0
 11 19  1  0
 11  9  1  0
 12 11  2  0
 13 14  1  0
 14 15  2  0
 16 17  1  0
 16 14  1  0
 18 19  1  0
 18 17  1  1
 20 18  1  0
 21 20  2  0
 22 20  1  0
M  END
$$$$
