GLQ.pdb
     RDKit          3D

 22 21  0  0  1  0  0  0  0  0999 V2000
    9.0695  -19.6526   19.4611 N   0  0  0  0  0  0  0  0  0  0  0  0
    8.4384  -18.8422   20.4616 C   0  0  0  0  0  0  0  0  0  0  0  0
    9.1282  -17.5369   20.6717 C   0  0  0  0  0  0  0  0  0  0  0  0
   10.2096  -17.3714   20.0488 O   0  0  0  0  0  0  0  0  0  0  0  0
    6.5192  -12.7665   21.5992 C   0  0  0  0  0  0  0  0  0  0  0  0
    7.4675  -13.8051   20.8916 C   0  0  1  0  0  0  0  0  0  0  0  0
    8.1392  -13.0140   19.7574 C   0  0  0  0  0  0  0  0  0  0  0  0
    8.4141  -14.2023   21.9548 C   0  0  0  0  0  0  0  0  0  0  0  0
    9.3787  -15.2986   21.7551 C   0  0  2  0  0  0  0  0  0  0  0  0
    8.6036  -16.5536   21.5124 N   0  0  0  0  0  0  0  0  0  0  0  0
   10.4029  -15.5642   22.7620 C   0  0  0  0  0  0  0  0  0  0  0  0
   11.5124  -14.9569   22.8711 O   0  0  0  0  0  0  0  0  0  0  0  0
    8.9914  -13.8712   27.6189 N   0  0  0  0  0  0  0  0  0  0  0  0
   10.1527  -14.5749   28.1035 C   0  0  0  0  0  0  0  0  0  0  0  0
   10.5412  -14.3627   29.2758 O   0  0  0  0  0  0  0  0  0  0  0  0
   10.8888  -15.5291   27.2593 C   0  0  0  0  0  0  0  0  0  0  0  0
   10.2880  -15.6665   25.9124 C   0  0  0  0  0  0  0  0  0  0  0  0
   10.9371  -16.6676   24.9934 C   0  0  2  0  0  0  0  0  0  0  0  0
   10.1969  -16.5883   23.7407 N   0  0  0  0  0  0  0  0  0  0  0  0
   10.9149  -18.0550   25.5265 C   0  0  0  0  0  0  0  0  0  0  0  0
   11.5752  -18.3062   26.5624 O   0  0  0  0  0  0  0  0  0  0  0  0
   10.2023  -19.0890   24.9396 O   0  0  0  0  0  0  0  0  0  0  0  0
  2  3  1  0
  2  1  1  0
  3 10  1  0
  4  3  2  0
  6  5  1  1
  7  6  1  0
  8  6  1  0
  9  8  1  1
 10  9  1  0
 11 19  1  0
 11  9  1  0
 12 11  2  0
 13 14  1  0
 14 15  2  0
 16 17  1  0
 16 14  1  0
 18 19  1  0
 18 17  1  1
 20 18  1  0
 21 20  2  0
 22 20  1  0
M  END
$$$$
