IKW.pdb
     RDKit          3D

 32 33  0  0  1  0  0  0  0  0999 V2000
   29.5583  -17.9123  -18.1150 C   0  0  0  0  0  0  0  0  0  0  0  0
   28.9309  -19.0648  -17.4014 C   0  0  0  0  0  0  0  0  0  0  0  0
   27.9755  -18.5958  -16.2862 C   0  0  2  0  0  0  0  0  0  0  0  0
   28.7212  -17.7264  -15.3289 C   0  0  0  0  0  0  0  0  0  0  0  0
   27.4242  -19.8692  -15.6906 C   0  0  2  0  0  0  0  0  0  0  0  0
   26.8117  -20.5782  -16.8253 N   0  0  0  0  0  0  0  0  0  0  0  0
   26.4580  -19.6827  -14.6080 C   0  0  0  0  0  0  0  0  0  0  0  0
   26.3096  -18.5149  -14.0974 O   0  0  0  0  0  0  0  0  0  0  0  0
   25.6297  -20.6718  -14.0293 N   0  0  0  0  0  0  0  0  0  0  0  0
   24.7406  -20.4024  -12.9105 C   0  0  1  0  0  0  0  0  0  0  0  0
   23.3400  -20.9229  -13.1297 C   0  0  0  0  0  0  0  0  0  0  0  0
   22.6929  -20.2657  -14.3264 C   0  0  0  0  0  0  0  0  0  0  0  0
   21.3092  -20.8075  -14.5363 C   0  0  0  0  0  0  0  0  0  0  0  0
   20.5967  -20.1792  -15.7088 C   0  0  0  0  0  0  0  0  0  0  0  0
   19.2806  -20.8322  -15.7848 N   0  0  0  0  0  0  0  0  0  0  0  0
   25.3442  -21.0129  -11.6681 C   0  0  0  0  0  0  0  0  0  0  0  0
   25.5771  -22.2449  -11.6101 O   0  0  0  0  0  0  0  0  0  0  0  0
   25.6603  -20.2085  -10.5418 N   0  0  0  0  0  0  0  0  0  0  0  0
   26.0538  -20.7166   -9.2480 C   0  0  1  0  0  0  0  0  0  0  0  0
   27.2278  -20.0181   -8.6661 C   0  0  0  0  0  0  0  0  0  0  0  0
   27.4920  -20.4897   -7.2943 C   0  0  0  0  0  0  0  0  0  0  0  0
   27.3402  -21.7754   -6.8251 C   0  0  0  0  0  0  0  0  0  0  0  0
   27.6728  -21.8054   -5.5364 N   0  0  0  0  0  0  0  0  0  0  0  0
   28.0404  -20.5595   -5.1527 C   0  0  0  0  0  0  0  0  0  0  0  0
   28.4635  -20.0992   -3.9166 C   0  0  0  0  0  0  0  0  0  0  0  0
   28.7835  -18.7651   -3.7821 C   0  0  0  0  0  0  0  0  0  0  0  0
   28.6761  -17.9197   -4.8780 C   0  0  0  0  0  0  0  0  0  0  0  0
   28.2582  -18.3588   -6.1126 C   0  0  0  0  0  0  0  0  0  0  0  0
   27.9340  -19.7116   -6.2474 C   0  0  0  0  0  0  0  0  0  0  0  0
   24.8680  -20.7849   -8.3300 C   0  0  0  0  0  0  0  0  0  0  0  0
   23.8812  -20.0266   -8.4517 O   0  0  0  0  0  0  0  0  0  0  0  0
   24.8239  -21.7044   -7.3008 O   0  0  0  0  0  0  0  0  0  0  0  0
  2  1  1  0
  3  2  1  0
  3  4  1  1
  5  3  1  0
  5  6  1  6
  7  8  2  0
  7  5  1  0
  9  7  1  0
 10 16  1  0
 10  9  1  0
 10 11  1  6
 12 11  1  0
 12 13  1  0
 14 13  1  0
 14 15  1  0
 16 17  2  0
 18 19  1  0
 18 16  1  0
 19 20  1  1
 20 21  1  0
 21 22  2  0
 21 29  1  0
 22 23  1  0
 23 24  1  0
 24 25  2  0
 25 26  1  0
 27 26  2  0
 28 27  1  0
 29 28  2  0
 29 24  1  0
 30 19  1  0
 31 30  2  0
 32 30  1  0
M  END
$$$$
