IKW.pdb
     RDKit          3D

 32 33  0  0  1  0  0  0  0  0999 V2000
   28.5603  -16.4822  -16.8815 C   0  0  0  0  0  0  0  0  0  0  0  0
   27.3960  -17.4178  -16.8791 C   0  0  0  0  0  0  0  0  0  0  0  0
   26.9036  -17.7150  -15.4489 C   0  0  2  0  0  0  0  0  0  0  0  0
   28.0346  -18.2564  -14.6387 C   0  0  0  0  0  0  0  0  0  0  0  0
   25.7421  -18.6626  -15.6306 C   0  0  2  0  0  0  0  0  0  0  0  0
   24.7758  -17.9165  -16.4522 N   0  0  0  0  0  0  0  0  0  0  0  0
   25.1217  -19.1318  -14.3914 C   0  0  0  0  0  0  0  0  0  0  0  0
   24.4838  -18.2954  -13.6565 O   0  0  0  0  0  0  0  0  0  0  0  0
   25.1368  -20.4502  -13.8804 N   0  0  0  0  0  0  0  0  0  0  0  0
   24.5236  -20.8134  -12.6128 C   0  0  1  0  0  0  0  0  0  0  0  0
   23.5782  -21.9855  -12.7277 C   0  0  0  0  0  0  0  0  0  0  0  0
   22.2849  -21.5819  -13.3965 C   0  0  0  0  0  0  0  0  0  0  0  0
   21.2169  -21.3438  -12.3696 C   0  0  0  0  0  0  0  0  0  0  0  0
   19.9304  -20.8214  -12.9606 C   0  0  0  0  0  0  0  0  0  0  0  0
   19.0227  -20.5926  -11.8256 N   0  0  0  0  0  0  0  0  0  0  0  0
   25.6241  -21.1154  -11.6237 C   0  0  0  0  0  0  0  0  0  0  0  0
   26.4867  -21.9918  -11.8755 O   0  0  0  0  0  0  0  0  0  0  0  0
   25.7063  -20.4165  -10.3906 N   0  0  0  0  0  0  0  0  0  0  0  0
   26.6006  -20.7543   -9.3076 C   0  0  1  0  0  0  0  0  0  0  0  0
   27.6415  -19.7266   -9.0525 C   0  0  0  0  0  0  0  0  0  0  0  0
   28.5456  -20.1532   -7.9687 C   0  0  0  0  0  0  0  0  0  0  0  0
   29.5136  -21.1297   -8.0443 C   0  0  0  0  0  0  0  0  0  0  0  0
   30.1180  -21.2289   -6.8623 N   0  0  0  0  0  0  0  0  0  0  0  0
   29.5617  -20.3329   -6.0123 C   0  0  0  0  0  0  0  0  0  0  0  0
   29.8541  -20.0679   -4.6845 C   0  0  0  0  0  0  0  0  0  0  0  0
   29.1320  -19.0927   -4.0305 C   0  0  0  0  0  0  0  0  0  0  0  0
   28.1368  -18.4036   -4.7103 C   0  0  0  0  0  0  0  0  0  0  0  0
   27.8328  -18.6529   -6.0283 C   0  0  0  0  0  0  0  0  0  0  0  0
   28.5658  -19.6420   -6.6901 C   0  0  0  0  0  0  0  0  0  0  0  0
   25.8195  -21.1473   -8.0874 C   0  0  0  0  0  0  0  0  0  0  0  0
   26.2297  -22.0063   -7.2766 O   0  0  0  0  0  0  0  0  0  0  0  0
   24.5991  -20.5631   -7.8118 O   0  0  0  0  0  0  0  0  0  0  0  0
  2  1  1  0
  3  2  1  0
  3  4  1  1
  5  3  1  0
  5  6  1  6
  7  8  2  0
  7  5  1  0
  9  7  1  0
 10 16  1  0
 10  9  1  0
 10 11  1  6
 12 11  1  0
 12 13  1  0
 14 13  1  0
 14 15  1  0
 16 17  2  0
 18 19  1  0
 18 16  1  0
 19 20  1  1
 20 21  1  0
 21 22  2  0
 21 29  1  0
 22 23  1  0
 23 24  1  0
 24 25  2  0
 25 26  1  0
 27 26  2  0
 28 27  1  0
 29 28  2  0
 29 24  1  0
 30 19  1  0
 31 30  2  0
 32 30  1  0
M  END
$$$$
