IKW.pdb
     RDKit          3D

 32 33  0  0  1  0  0  0  0  0999 V2000
   32.5570  -26.8820  -23.6475 C   0  0  0  0  0  0  0  0  0  0  0  0
   32.1066  -27.4863  -22.3580 C   0  0  0  0  0  0  0  0  0  0  0  0
   30.8952  -28.4191  -22.5553 C   0  0  2  0  0  0  0  0  0  0  0  0
   29.8064  -27.6748  -23.2546 C   0  0  0  0  0  0  0  0  0  0  0  0
   30.5468  -28.8971  -21.1660 C   0  0  2  0  0  0  0  0  0  0  0  0
   30.1565  -27.6790  -20.4384 N   0  0  0  0  0  0  0  0  0  0  0  0
   31.6182  -29.6042  -20.4641 C   0  0  0  0  0  0  0  0  0  0  0  0
   32.1013  -30.6756  -20.9788 O   0  0  0  0  0  0  0  0  0  0  0  0
   32.2150  -29.2376  -19.2357 N   0  0  0  0  0  0  0  0  0  0  0  0
   33.2636  -30.0207  -18.6019 C   0  0  1  0  0  0  0  0  0  0  0  0
   34.4025  -29.1747  -18.0842 C   0  0  0  0  0  0  0  0  0  0  0  0
   35.3859  -28.8486  -19.1839 C   0  0  0  0  0  0  0  0  0  0  0  0
   36.5236  -28.0328  -18.6434 C   0  0  0  0  0  0  0  0  0  0  0  0
   37.6004  -27.7642  -19.6660 C   0  0  0  0  0  0  0  0  0  0  0  0
   38.7255  -27.1693  -18.9279 N   0  0  0  0  0  0  0  0  0  0  0  0
   32.6452  -30.8203  -17.4799 C   0  0  0  0  0  0  0  0  0  0  0  0
   31.9283  -30.2596  -16.6155 O   0  0  0  0  0  0  0  0  0  0  0  0
   32.8610  -32.2199  -17.3788 N   0  0  0  0  0  0  0  0  0  0  0  0
   32.0593  -33.1243  -16.5876 C   0  0  1  0  0  0  0  0  0  0  0  0
   30.6011  -33.0040  -16.8406 C   0  0  0  0  0  0  0  0  0  0  0  0
   29.8358  -33.8612  -15.9167 C   0  0  0  0  0  0  0  0  0  0  0  0
   30.0604  -35.1950  -15.6585 C   0  0  0  0  0  0  0  0  0  0  0  0
   29.1612  -35.6194  -14.7734 N   0  0  0  0  0  0  0  0  0  0  0  0
   28.3500  -34.5850  -14.4468 C   0  0  0  0  0  0  0  0  0  0  0  0
   27.2754  -34.5400  -13.5738 C   0  0  0  0  0  0  0  0  0  0  0  0
   26.6022  -33.3476  -13.4151 C   0  0  0  0  0  0  0  0  0  0  0  0
   27.0118  -32.2282  -14.1267 C   0  0  0  0  0  0  0  0  0  0  0  0
   28.0762  -32.2540  -14.9974 C   0  0  0  0  0  0  0  0  0  0  0  0
   28.7578  -33.4637  -15.1574 C   0  0  0  0  0  0  0  0  0  0  0  0
   32.5846  -34.5259  -16.7022 C   0  0  0  0  0  0  0  0  0  0  0  0
   32.6653  -35.1243  -17.7972 O   0  0  0  0  0  0  0  0  0  0  0  0
   33.0054  -35.2161  -15.5827 O   0  0  0  0  0  0  0  0  0  0  0  0
  2  1  1  0
  3  2  1  0
  3  4  1  1
  5  3  1  0
  5  6  1  1
  7  8  2  0
  7  5  1  0
  9  7  1  0
 10 16  1  0
 10  9  1  0
 10 11  1  1
 12 11  1  0
 12 13  1  0
 14 13  1  0
 14 15  1  0
 16 17  2  0
 18 19  1  0
 18 16  1  0
 19 20  1  6
 20 21  1  0
 21 22  2  0
 21 29  1  0
 22 23  1  0
 23 24  1  0
 24 25  2  0
 25 26  1  0
 27 26  2  0
 28 27  1  0
 29 28  2  0
 29 24  1  0
 30 19  1  0
 31 30  2  0
 32 30  1  0
M  END
$$$$
