IKW.pdb
     RDKit          3D

 32 33  0  0  1  0  0  0  0  0999 V2000
   20.3077  -16.2035  -20.5180 C   0  0  0  0  0  0  0  0  0  0  0  0
   20.7515  -16.1409  -19.0932 C   0  0  0  0  0  0  0  0  0  0  0  0
   19.5831  -16.3878  -18.1185 C   0  0  2  0  0  0  0  0  0  0  0  0
   18.5442  -15.3338  -18.3142 C   0  0  0  0  0  0  0  0  0  0  0  0
   20.2204  -16.4048  -16.7496 C   0  0  2  0  0  0  0  0  0  0  0  0
   20.8822  -15.0960  -16.6291 N   0  0  0  0  0  0  0  0  0  0  0  0
   21.1699  -17.4936  -16.5185 C   0  0  0  0  0  0  0  0  0  0  0  0
   20.7307  -18.6954  -16.4216 O   0  0  0  0  0  0  0  0  0  0  0  0
   22.5731  -17.3825  -16.3840 N   0  0  0  0  0  0  0  0  0  0  0  0
   23.4214  -18.5005  -16.0031 C   0  0  1  0  0  0  0  0  0  0  0  0
   24.8938  -18.2099  -16.1717 C   0  0  0  0  0  0  0  0  0  0  0  0
   25.7387  -19.3635  -15.6837 C   0  0  0  0  0  0  0  0  0  0  0  0
   25.9107  -20.3828  -16.7716 C   0  0  0  0  0  0  0  0  0  0  0  0
   26.8157  -21.5245  -16.3782 C   0  0  0  0  0  0  0  0  0  0  0  0
   27.0060  -22.3323  -17.5931 N   0  0  0  0  0  0  0  0  0  0  0  0
   23.1136  -18.8617  -14.5694 C   0  0  0  0  0  0  0  0  0  0  0  0
   23.3287  -18.0418  -13.6436 O   0  0  0  0  0  0  0  0  0  0  0  0
   22.5757  -20.1333  -14.2387 N   0  0  0  0  0  0  0  0  0  0  0  0
   22.4660  -20.6606  -12.8983 C   0  0  1  0  0  0  0  0  0  0  0  0
   21.4849  -19.9354  -12.0517 C   0  0  0  0  0  0  0  0  0  0  0  0
   21.4083  -20.5347  -10.7068 C   0  0  0  0  0  0  0  0  0  0  0  0
   22.2837  -20.3263   -9.6644 C   0  0  0  0  0  0  0  0  0  0  0  0
   21.8840  -21.0435   -8.6167 N   0  0  0  0  0  0  0  0  0  0  0  0
   20.7600  -21.7195   -8.9551 C   0  0  0  0  0  0  0  0  0  0  0  0
   19.9855  -22.5880   -8.2038 C   0  0  0  0  0  0  0  0  0  0  0  0
   18.8736  -23.1560   -8.7880 C   0  0  0  0  0  0  0  0  0  0  0  0
   18.5569  -22.8482  -10.1042 C   0  0  0  0  0  0  0  0  0  0  0  0
   19.3138  -21.9882  -10.8652 C   0  0  0  0  0  0  0  0  0  0  0  0
   20.4410  -21.4131  -10.2715 C   0  0  0  0  0  0  0  0  0  0  0  0
   22.2579  -22.1468  -12.9360 C   0  0  0  0  0  0  0  0  0  0  0  0
   21.4283  -22.6885  -13.6987 O   0  0  0  0  0  0  0  0  0  0  0  0
   22.9889  -22.9832  -12.1158 O   0  0  0  0  0  0  0  0  0  0  0  0
  2  1  1  0
  3  2  1  0
  3  4  1  1
  5  3  1  0
  5  6  1  6
  7  8  2  0
  7  5  1  0
  9  7  1  0
 10 16  1  0
 10  9  1  0
 10 11  1  1
 12 11  1  0
 12 13  1  0
 14 13  1  0
 14 15  1  0
 16 17  2  0
 18 19  1  0
 18 16  1  0
 19 20  1  6
 20 21  1  0
 21 22  2  0
 21 29  1  0
 22 23  1  0
 23 24  1  0
 24 25  2  0
 25 26  1  0
 27 26  2  0
 28 27  1  0
 29 28  2  0
 29 24  1  0
 30 19  1  0
 31 30  2  0
 32 30  1  0
M  END
$$$$
