IKW.pdb
     RDKit          3D

 32 33  0  0  1  0  0  0  0  0999 V2000
   26.5261  -17.0584  -17.8032 C   0  0  0  0  0  0  0  0  0  0  0  0
   25.0660  -17.0269  -17.4896 C   0  0  0  0  0  0  0  0  0  0  0  0
   24.8068  -17.0366  -15.9700 C   0  0  2  0  0  0  0  0  0  0  0  0
   25.7248  -16.0651  -15.3053 C   0  0  0  0  0  0  0  0  0  0  0  0
   24.9977  -18.4761  -15.5560 C   0  0  2  0  0  0  0  0  0  0  0  0
   24.1987  -19.2512  -16.5184 N   0  0  0  0  0  0  0  0  0  0  0  0
   24.6044  -18.7858  -14.1812 C   0  0  0  0  0  0  0  0  0  0  0  0
   25.3322  -18.3627  -13.2129 O   0  0  0  0  0  0  0  0  0  0  0  0
   23.4719  -19.5247  -13.7679 N   0  0  0  0  0  0  0  0  0  0  0  0
   23.3186  -20.0480  -12.4198 C   0  0  1  0  0  0  0  0  0  0  0  0
   22.1167  -20.9498  -12.2687 C   0  0  0  0  0  0  0  0  0  0  0  0
   21.7344  -21.1134  -10.8161 C   0  0  0  0  0  0  0  0  0  0  0  0
   20.5874  -22.0716  -10.6817 C   0  0  0  0  0  0  0  0  0  0  0  0
   20.0264  -22.1342   -9.2821 C   0  0  0  0  0  0  0  0  0  0  0  0
   18.8963  -23.0746   -9.3366 N   0  0  0  0  0  0  0  0  0  0  0  0
   24.5839  -20.7856  -12.0514 C   0  0  0  0  0  0  0  0  0  0  0  0
   25.5505  -20.8349  -12.8506 O   0  0  0  0  0  0  0  0  0  0  0  0
   24.7069  -21.4378  -10.7963 N   0  0  0  0  0  0  0  0  0  0  0  0
   25.7515  -21.1828   -9.8317 C   0  0  1  0  0  0  0  0  0  0  0  0
   25.9180  -19.7449   -9.5005 C   0  0  0  0  0  0  0  0  0  0  0  0
   27.1377  -19.5284   -8.7008 C   0  0  0  0  0  0  0  0  0  0  0  0
   28.3694  -19.1339   -9.1733 C   0  0  0  0  0  0  0  0  0  0  0  0
   29.2170  -19.0522   -8.1500 N   0  0  0  0  0  0  0  0  0  0  0  0
   28.5606  -19.3872   -7.0134 C   0  0  0  0  0  0  0  0  0  0  0  0
   29.0196  -19.4495   -5.7079 C   0  0  0  0  0  0  0  0  0  0  0  0
   28.1399  -19.8245   -4.7151 C   0  0  0  0  0  0  0  0  0  0  0  0
   26.8253  -20.1287   -5.0419 C   0  0  0  0  0  0  0  0  0  0  0  0
   26.3519  -20.0722   -6.3320 C   0  0  0  0  0  0  0  0  0  0  0  0
   27.2451  -19.6919   -7.3375 C   0  0  0  0  0  0  0  0  0  0  0  0
   25.5838  -22.0694   -8.6321 C   0  0  0  0  0  0  0  0  0  0  0  0
   24.8807  -21.7438   -7.6506 O   0  0  0  0  0  0  0  0  0  0  0  0
   26.2106  -23.2982   -8.5690 O   0  0  0  0  0  0  0  0  0  0  0  0
  2  1  1  0
  3  2  1  0
  3  4  1  1
  5  3  1  0
  5  6  1  6
  7  8  2  0
  7  5  1  0
  9  7  1  0
 10 16  1  0
 10  9  1  0
 10 11  1  6
 12 11  1  0
 12 13  1  0
 14 13  1  0
 14 15  1  0
 16 17  2  0
 18 19  1  0
 18 16  1  0
 19 20  1  1
 20 21  1  0
 21 22  2  0
 21 29  1  0
 22 23  1  0
 23 24  1  0
 24 25  2  0
 25 26  1  0
 27 26  2  0
 28 27  1  0
 29 28  2  0
 29 24  1  0
 30 19  1  0
 31 30  2  0
 32 30  1  0
M  END
$$$$
