IKW.pdb
     RDKit          3D

 32 33  0  0  1  0  0  0  0  0999 V2000
   21.1621  -28.6385  -25.3812 C   0  0  0  0  0  0  0  0  0  0  0  0
   22.3327  -28.3628  -24.4954 C   0  0  0  0  0  0  0  0  0  0  0  0
   22.3183  -29.2506  -23.2352 C   0  0  2  0  0  0  0  0  0  0  0  0
   21.0934  -28.9542  -22.4352 C   0  0  0  0  0  0  0  0  0  0  0  0
   23.6220  -28.9480  -22.5361 C   0  0  2  0  0  0  0  0  0  0  0  0
   24.6607  -29.4640  -23.4418 N   0  0  0  0  0  0  0  0  0  0  0  0
   23.7604  -29.5263  -21.1993 C   0  0  0  0  0  0  0  0  0  0  0  0
   23.8891  -30.7972  -21.0787 O   0  0  0  0  0  0  0  0  0  0  0  0
   23.7717  -28.8288  -19.9693 N   0  0  0  0  0  0  0  0  0  0  0  0
   23.7707  -29.5008  -18.6797 C   0  0  1  0  0  0  0  0  0  0  0  0
   24.8855  -29.0391  -17.7715 C   0  0  0  0  0  0  0  0  0  0  0  0
   26.2181  -29.5975  -18.2134 C   0  0  0  0  0  0  0  0  0  0  0  0
   27.2885  -29.2419  -17.2235 C   0  0  0  0  0  0  0  0  0  0  0  0
   28.6717  -29.6428  -17.6746 C   0  0  0  0  0  0  0  0  0  0  0  0
   29.5939  -29.1782  -16.6266 N   0  0  0  0  0  0  0  0  0  0  0  0
   22.4277  -29.2728  -18.0279 C   0  0  0  0  0  0  0  0  0  0  0  0
   21.8799  -28.1443  -18.0709 O   0  0  0  0  0  0  0  0  0  0  0  0
   21.7575  -30.3274  -17.3538 N   0  0  0  0  0  0  0  0  0  0  0  0
   20.4836  -30.2021  -16.6842 C   0  0  1  0  0  0  0  0  0  0  0  0
   19.4763  -31.1978  -17.1299 C   0  0  0  0  0  0  0  0  0  0  0  0
   18.1630  -30.9258  -16.5175 C   0  0  0  0  0  0  0  0  0  0  0  0
   17.3399  -29.8542  -16.7831 C   0  0  0  0  0  0  0  0  0  0  0  0
   16.2460  -29.9550  -16.0312 N   0  0  0  0  0  0  0  0  0  0  0  0
   16.3384  -31.0759  -15.2763 C   0  0  0  0  0  0  0  0  0  0  0  0
   15.4525  -31.5972  -14.3477 C   0  0  0  0  0  0  0  0  0  0  0  0
   15.7845  -32.7696  -13.7030 C   0  0  0  0  0  0  0  0  0  0  0  0
   16.9881  -33.3966  -13.9955 C   0  0  0  0  0  0  0  0  0  0  0  0
   17.8797  -32.8940  -14.9143 C   0  0  0  0  0  0  0  0  0  0  0  0
   17.5417  -31.7052  -15.5671 C   0  0  0  0  0  0  0  0  0  0  0  0
   20.6770  -30.1542  -15.1964 C   0  0  0  0  0  0  0  0  0  0  0  0
   21.4433  -30.9377  -14.5942 O   0  0  0  0  0  0  0  0  0  0  0  0
   20.0041  -29.2264  -14.4263 O   0  0  0  0  0  0  0  0  0  0  0  0
  2  1  1  0
  3  2  1  0
  3  4  1  1
  5  3  1  0
  5  6  1  6
  7  8  2  0
  7  5  1  0
  9  7  1  0
 10 16  1  0
 10  9  1  0
 10 11  1  1
 12 11  1  0
 12 13  1  0
 14 13  1  0
 14 15  1  0
 16 17  2  0
 18 19  1  0
 18 16  1  0
 19 20  1  1
 20 21  1  0
 21 22  2  0
 21 29  1  0
 22 23  1  0
 23 24  1  0
 24 25  2  0
 25 26  1  0
 27 26  2  0
 28 27  1  0
 29 28  2  0
 29 24  1  0
 30 19  1  0
 31 30  2  0
 32 30  1  0
M  END
$$$$
