TYP.pdb
     RDKit          3D

 27 28  0  0  1  0  0  0  0  0999 V2000
   21.9195  -22.3287  -13.4161 C   0  0  0  0  0  0  0  0  0  0  0  0
   23.2749  -21.7636  -13.0358 C   0  0  1  0  0  0  0  0  0  0  0  0
   24.0538  -21.7989  -14.2041 O   0  0  0  0  0  0  0  0  0  0  0  0
   23.1581  -20.3375  -12.5392 C   0  0  2  0  0  0  0  0  0  0  0  0
   23.0253  -19.4767  -13.6985 N   0  0  0  0  0  0  0  0  0  0  0  0
   24.3938  -20.0296  -11.7728 C   0  0  0  0  0  0  0  0  0  0  0  0
   25.3146  -19.4230  -12.3648 O   0  0  0  0  0  0  0  0  0  0  0  0
   29.6367  -18.9954   -4.6841 O   0  0  0  0  0  0  0  0  0  0  0  0
   28.6148  -19.3881   -5.5431 C   0  0  0  0  0  0  0  0  0  0  0  0
   27.8194  -18.4338   -6.1410 C   0  0  0  0  0  0  0  0  0  0  0  0
   26.8000  -18.7992   -6.9964 C   0  0  0  0  0  0  0  0  0  0  0  0
   26.5237  -20.1159   -7.2966 C   0  0  0  0  0  0  0  0  0  0  0  0
   25.4252  -20.5060   -8.2183 C   0  0  0  0  0  0  0  0  0  0  0  0
   25.7807  -20.1944   -9.6650 C   0  0  2  0  0  0  0  0  0  0  0  0
   24.5461  -20.4023  -10.4115 N   0  0  0  0  0  0  0  0  0  0  0  0
   26.7702  -21.2093  -10.0983 C   0  0  0  0  0  0  0  0  0  0  0  0
   26.3399  -22.4160  -10.1628 O   0  0  0  0  0  0  0  0  0  0  0  0
   27.3342  -21.0476   -6.6852 C   0  0  0  0  0  0  0  0  0  0  0  0
   28.3558  -20.7076   -5.8294 C   0  0  0  0  0  0  0  0  0  0  0  0
   28.1096  -20.9319  -10.4327 N   0  0  0  0  0  0  0  0  0  0  0  0
   28.7682  -19.6554  -10.3411 C   0  0  0  0  0  0  0  0  0  0  0  0
   29.8587  -19.6942  -11.4071 C   0  0  0  0  0  0  0  0  0  0  0  0
   29.9222  -21.1113  -11.9162 C   0  0  0  0  0  0  0  0  0  0  0  0
   29.0714  -21.8744  -10.9392 C   0  0  1  0  0  0  0  0  0  0  0  0
   29.8852  -22.4011   -9.8274 C   0  0  0  0  0  0  0  0  0  0  0  0
   29.7495  -21.9123   -8.6840 O   0  0  0  0  0  0  0  0  0  0  0  0
   30.7938  -23.4250  -10.0307 O   0  0  0  0  0  0  0  0  0  0  0  0
  2  1  1  6
  2  3  1  0
  4  2  1  0
  4  5  1  6
  6  4  1  0
  7  6  2  0
  8  9  1  0
  9 10  2  0
  9 19  1  0
 10 11  1  0
 11 12  2  0
 12 13  1  0
 14 13  1  1
 14 15  1  0
 15  6  1  0
 16 14  1  0
 17 16  2  0
 18 12  1  0
 19 18  2  0
 20 16  1  0
 20 21  1  0
 21 22  1  0
 23 22  1  0
 24 20  1  0
 24 23  1  0
 24 25  1  1
 26 25  2  0
 27 25  1  0
M  END
$$$$
