TYP.pdb
     RDKit          3D

 27 28  0  0  1  0  0  0  0  0999 V2000
   27.2181  -10.5278  -15.1384 C   0  0  0  0  0  0  0  0  0  0  0  0
   25.9649   -9.9940  -15.8058 C   0  0  1  0  0  0  0  0  0  0  0  0
   26.3022   -9.7773  -17.1520 O   0  0  0  0  0  0  0  0  0  0  0  0
   24.8258  -10.9882  -15.7154 C   0  0  2  0  0  0  0  0  0  0  0  0
   25.2035  -12.1617  -16.4787 N   0  0  0  0  0  0  0  0  0  0  0  0
   23.6180  -10.3354  -16.2848 C   0  0  0  0  0  0  0  0  0  0  0  0
   23.3184  -10.5917  -17.4726 O   0  0  0  0  0  0  0  0  0  0  0  0
   18.1651  -14.2752  -16.3104 O   0  0  0  0  0  0  0  0  0  0  0  0
   18.7394  -13.0411  -16.0209 C   0  0  0  0  0  0  0  0  0  0  0  0
   18.9578  -12.6794  -14.7085 C   0  0  0  0  0  0  0  0  0  0  0  0
   19.5259  -11.4610  -14.3971 C   0  0  0  0  0  0  0  0  0  0  0  0
   19.9008  -10.5521  -15.3632 C   0  0  0  0  0  0  0  0  0  0  0  0
   20.5124   -9.2408  -15.0243 C   0  0  0  0  0  0  0  0  0  0  0  0
   21.5845   -8.8539  -16.0330 C   0  0  2  0  0  0  0  0  0  0  0  0
   22.8151   -9.4460  -15.5234 N   0  0  0  0  0  0  0  0  0  0  0  0
   21.7159   -7.3783  -15.9840 C   0  0  0  0  0  0  0  0  0  0  0  0
   22.4560   -6.9150  -15.0443 O   0  0  0  0  0  0  0  0  0  0  0  0
   19.6710  -10.9399  -16.6653 C   0  0  0  0  0  0  0  0  0  0  0  0
   19.1064  -12.1485  -17.0001 C   0  0  0  0  0  0  0  0  0  0  0  0
   21.0959   -6.4877  -16.8814 N   0  0  0  0  0  0  0  0  0  0  0  0
   20.2253   -6.8393  -17.9722 C   0  0  0  0  0  0  0  0  0  0  0  0
   20.3985   -5.7205  -18.9946 C   0  0  0  0  0  0  0  0  0  0  0  0
   21.2072   -4.6386  -18.3259 C   0  0  0  0  0  0  0  0  0  0  0  0
   21.2247   -5.0549  -16.8812 C   0  0  1  0  0  0  0  0  0  0  0  0
   20.0975   -4.4539  -16.1436 C   0  0  0  0  0  0  0  0  0  0  0  0
   20.0463   -3.2114  -16.0095 O   0  0  0  0  0  0  0  0  0  0  0  0
   19.0990   -5.2428  -15.5996 O   0  0  0  0  0  0  0  0  0  0  0  0
  2  1  1  1
  2  3  1  0
  4  2  1  0
  4  5  1  6
  6  4  1  0
  7  6  2  0
  8  9  1  0
  9 10  2  0
  9 19  1  0
 10 11  1  0
 11 12  2  0
 12 13  1  0
 14 13  1  1
 14 15  1  0
 15  6  1  0
 16 14  1  0
 17 16  2  0
 18 12  1  0
 19 18  2  0
 20 16  1  0
 20 21  1  0
 21 22  1  0
 23 22  1  0
 24 20  1  0
 24 23  1  0
 24 25  1  1
 26 25  2  0
 27 25  1  0
M  END
$$$$
