TYP.pdb
     RDKit          3D

 27 28  0  0  1  0  0  0  0  0999 V2000
   19.5491  -21.5229  -17.3567 C   0  0  0  0  0  0  0  0  0  0  0  0
   20.7496  -20.9587  -16.6208 C   0  0  1  0  0  0  0  0  0  0  0  0
   21.2800  -19.9569  -17.4503 O   0  0  0  0  0  0  0  0  0  0  0  0
   20.3488  -20.3626  -15.2874 C   0  0  2  0  0  0  0  0  0  0  0  0
   19.5115  -19.2092  -15.5541 N   0  0  0  0  0  0  0  0  0  0  0  0
   21.5967  -19.9756  -14.5788 C   0  0  0  0  0  0  0  0  0  0  0  0
   21.8897  -18.7598  -14.5298 O   0  0  0  0  0  0  0  0  0  0  0  0
   27.8539  -20.0943   -8.4291 O   0  0  0  0  0  0  0  0  0  0  0  0
   26.8741  -20.4697   -9.3432 C   0  0  0  0  0  0  0  0  0  0  0  0
   25.5720  -20.0560   -9.1585 C   0  0  0  0  0  0  0  0  0  0  0  0
   24.5834  -20.4157  -10.0517 C   0  0  0  0  0  0  0  0  0  0  0  0
   24.8369  -21.1954  -11.1598 C   0  0  0  0  0  0  0  0  0  0  0  0
   23.7700  -21.5810  -12.1197 C   0  0  0  0  0  0  0  0  0  0  0  0
   23.6697  -20.5832  -13.2646 C   0  0  2  0  0  0  0  0  0  0  0  0
   22.4442  -20.9379  -13.9697 N   0  0  0  0  0  0  0  0  0  0  0  0
   24.8207  -20.8354  -14.1638 C   0  0  0  0  0  0  0  0  0  0  0  0
   24.6766  -21.7995  -14.9974 O   0  0  0  0  0  0  0  0  0  0  0  0
   26.1463  -21.5942  -11.3191 C   0  0  0  0  0  0  0  0  0  0  0  0
   27.1483  -21.2484  -10.4426 C   0  0  0  0  0  0  0  0  0  0  0  0
   26.0215  -20.1000  -14.1548 N   0  0  0  0  0  0  0  0  0  0  0  0
   26.5013  -19.2570  -13.0915 C   0  0  0  0  0  0  0  0  0  0  0  0
   27.3667  -18.2054  -13.7787 C   0  0  0  0  0  0  0  0  0  0  0  0
   27.5301  -18.6422  -15.2119 C   0  0  0  0  0  0  0  0  0  0  0  0
   26.9927  -20.0464  -15.2149 C   0  0  1  0  0  0  0  0  0  0  0  0
   28.0662  -21.0245  -14.9563 C   0  0  0  0  0  0  0  0  0  0  0  0
   28.1407  -21.5692  -13.8328 O   0  0  0  0  0  0  0  0  0  0  0  0
   28.9891  -21.3468  -15.9359 O   0  0  0  0  0  0  0  0  0  0  0  0
  2  1  1  6
  2  3  1  0
  4  2  1  0
  4  5  1  6
  6  4  1  0
  7  6  2  0
  8  9  1  0
  9 10  2  0
  9 19  1  0
 10 11  1  0
 11 12  2  0
 12 13  1  0
 14 13  1  1
 14 15  1  0
 15  6  1  0
 16 14  1  0
 17 16  2  0
 18 12  1  0
 19 18  2  0
 20 16  1  0
 20 21  1  0
 21 22  1  0
 23 22  1  0
 24 20  1  0
 24 23  1  0
 24 25  1  1
 26 25  2  0
 27 25  1  0
M  END
$$$$
