TYP.pdb
     RDKit          3D

 27 28  0  0  1  0  0  0  0  0999 V2000
   19.7786  -22.5755  -13.7766 C   0  0  0  0  0  0  0  0  0  0  0  0
   21.1040  -21.8417  -13.8537 C   0  0  1  0  0  0  0  0  0  0  0  0
   21.0324  -21.0262  -14.9951 O   0  0  0  0  0  0  0  0  0  0  0  0
   21.3330  -20.9864  -12.6249 C   0  0  2  0  0  0  0  0  0  0  0  0
   20.3637  -19.9084  -12.6514 N   0  0  0  0  0  0  0  0  0  0  0  0
   22.7242  -20.4678  -12.6956 C   0  0  0  0  0  0  0  0  0  0  0  0
   22.8860  -19.2637  -12.9962 O   0  0  0  0  0  0  0  0  0  0  0  0
   26.7295  -19.3354   -6.3935 O   0  0  0  0  0  0  0  0  0  0  0  0
   26.5701  -19.9092   -7.6512 C   0  0  0  0  0  0  0  0  0  0  0  0
   25.4287  -20.6284   -7.9351 C   0  0  0  0  0  0  0  0  0  0  0  0
   25.2485  -21.2065   -9.1751 C   0  0  0  0  0  0  0  0  0  0  0  0
   26.1829  -21.0998  -10.1829 C   0  0  0  0  0  0  0  0  0  0  0  0
   25.9858  -21.7235  -11.5173 C   0  0  0  0  0  0  0  0  0  0  0  0
   25.2190  -20.7987  -12.4518 C   0  0  2  0  0  0  0  0  0  0  0  0
   23.8483  -21.2943  -12.4342 N   0  0  0  0  0  0  0  0  0  0  0  0
   25.7743  -20.9964  -13.8117 C   0  0  0  0  0  0  0  0  0  0  0  0
   25.1983  -21.8938  -14.5245 O   0  0  0  0  0  0  0  0  0  0  0  0
   27.3132  -20.3757   -9.8712 C   0  0  0  0  0  0  0  0  0  0  0  0
   27.5149  -19.7907   -8.6429 C   0  0  0  0  0  0  0  0  0  0  0  0
   26.8607  -20.2776  -14.3467 N   0  0  0  0  0  0  0  0  0  0  0  0
   27.8019  -19.4752  -13.6107 C   0  0  0  0  0  0  0  0  0  0  0  0
   28.2762  -18.4139  -14.5984 C   0  0  0  0  0  0  0  0  0  0  0  0
   27.7428  -18.8070  -15.9521 C   0  0  0  0  0  0  0  0  0  0  0  0
   27.2286  -20.2032  -15.7355 C   0  0  1  0  0  0  0  0  0  0  0  0
   28.2729  -21.2032  -16.0279 C   0  0  0  0  0  0  0  0  0  0  0  0
   28.8003  -21.8318  -15.0839 O   0  0  0  0  0  0  0  0  0  0  0  0
   28.6760  -21.4548  -17.3277 O   0  0  0  0  0  0  0  0  0  0  0  0
  2  1  1  1
  2  3  1  0
  4  2  1  0
  4  5  1  6
  6  4  1  0
  7  6  2  0
  8  9  1  0
  9 10  2  0
  9 19  1  0
 10 11  1  0
 11 12  2  0
 12 13  1  0
 14 13  1  1
 14 15  1  0
 15  6  1  0
 16 14  1  0
 17 16  2  0
 18 12  1  0
 19 18  2  0
 20 16  1  0
 20 21  1  0
 21 22  1  0
 23 22  1  0
 24 20  1  0
 24 23  1  0
 24 25  1  1
 26 25  2  0
 27 25  1  0
M  END
$$$$
