TYP.pdb
     RDKit          3D

 27 28  0  0  1  0  0  0  0  0999 V2000
   27.5855  -21.0111  -15.5147 C   0  0  0  0  0  0  0  0  0  0  0  0
   27.5020  -22.4638  -15.9433 C   0  0  1  0  0  0  0  0  0  0  0  0
   28.6256  -23.0990  -15.3893 O   0  0  0  0  0  0  0  0  0  0  0  0
   26.2365  -23.1184  -15.4295 C   0  0  2  0  0  0  0  0  0  0  0  0
   26.2924  -24.5235  -15.7830 N   0  0  0  0  0  0  0  0  0  0  0  0
   25.0866  -22.4394  -16.0822 C   0  0  0  0  0  0  0  0  0  0  0  0
   24.8841  -22.6668  -17.2961 O   0  0  0  0  0  0  0  0  0  0  0  0
   17.1447  -18.6167  -16.7825 O   0  0  0  0  0  0  0  0  0  0  0  0
   18.3505  -19.1199  -16.3039 C   0  0  0  0  0  0  0  0  0  0  0  0
   18.6678  -20.4458  -16.5089 C   0  0  0  0  0  0  0  0  0  0  0  0
   19.8577  -20.9673  -16.0435 C   0  0  0  0  0  0  0  0  0  0  0  0
   20.7807  -20.2058  -15.3592 C   0  0  0  0  0  0  0  0  0  0  0  0
   22.0612  -20.7704  -14.8594 C   0  0  0  0  0  0  0  0  0  0  0  0
   23.0824  -20.9013  -15.9803 C   0  0  2  0  0  0  0  0  0  0  0  0
   24.2323  -21.5572  -15.3702 N   0  0  0  0  0  0  0  0  0  0  0  0
   23.4765  -19.5273  -16.3725 C   0  0  0  0  0  0  0  0  0  0  0  0
   24.1385  -18.8652  -15.4958 O   0  0  0  0  0  0  0  0  0  0  0  0
   20.4374  -18.8849  -15.1689 C   0  0  0  0  0  0  0  0  0  0  0  0
   19.2578  -18.3428  -15.6233 C   0  0  0  0  0  0  0  0  0  0  0  0
   23.1762  -18.9298  -17.6117 N   0  0  0  0  0  0  0  0  0  0  0  0
   22.3887  -19.5041  -18.6707 C   0  0  0  0  0  0  0  0  0  0  0  0
   22.9213  -18.8682  -19.9509 C   0  0  0  0  0  0  0  0  0  0  0  0
   23.8572  -17.7630  -19.5335 C   0  0  0  0  0  0  0  0  0  0  0  0
   23.6098  -17.6320  -18.0562 C   0  0  1  0  0  0  0  0  0  0  0  0
   22.5579  -16.6349  -17.7821 C   0  0  0  0  0  0  0  0  0  0  0  0
   21.3920  -17.0231  -17.5490 O   0  0  0  0  0  0  0  0  0  0  0  0
   22.8419  -15.2804  -17.7792 O   0  0  0  0  0  0  0  0  0  0  0  0
  2  1  1  1
  2  3  1  0
  4  2  1  0
  4  5  1  6
  6  4  1  0
  7  6  2  0
  8  9  1  0
  9 10  2  0
  9 19  1  0
 10 11  1  0
 11 12  2  0
 12 13  1  0
 14 13  1  1
 14 15  1  0
 15  6  1  0
 16 14  1  0
 17 16  2  0
 18 12  1  0
 19 18  2  0
 20 16  1  0
 20 21  1  0
 21 22  1  0
 23 22  1  0
 24 20  1  0
 24 23  1  0
 24 25  1  6
 26 25  2  0
 27 25  1  0
M  END
$$$$
