TYP.pdb
     RDKit          3D

 27 28  0  0  1  0  0  0  0  0999 V2000
   29.6749  -21.0177  -11.8675 C   0  0  0  0  0  0  0  0  0  0  0  0
   28.8773  -20.4337  -13.0181 C   0  0  1  0  0  0  0  0  0  0  0  0
   29.3916  -21.0201  -14.1863 O   0  0  0  0  0  0  0  0  0  0  0  0
   27.4034  -20.7567  -12.8873 C   0  0  2  0  0  0  0  0  0  0  0  0
   26.7149  -20.1323  -14.0001 N   0  0  0  0  0  0  0  0  0  0  0  0
   26.9406  -20.2085  -11.5856 C   0  0  0  0  0  0  0  0  0  0  0  0
   26.6931  -18.9834  -11.5206 O   0  0  0  0  0  0  0  0  0  0  0  0
   20.4417  -19.7103  -11.6043 O   0  0  0  0  0  0  0  0  0  0  0  0
   21.5866  -20.1352  -10.9370 C   0  0  0  0  0  0  0  0  0  0  0  0
   21.9356  -19.5514   -9.7378 C   0  0  0  0  0  0  0  0  0  0  0  0
   23.0662  -19.9562   -9.0580 C   0  0  0  0  0  0  0  0  0  0  0  0
   23.8966  -20.9497   -9.5308 C   0  0  0  0  0  0  0  0  0  0  0  0
   25.1135  -21.3833   -8.7963 C   0  0  0  0  0  0  0  0  0  0  0  0
   26.3134  -20.5188   -9.1558 C   0  0  2  0  0  0  0  0  0  0  0  0
   26.7774  -21.0302  -10.4396 N   0  0  0  0  0  0  0  0  0  0  0  0
   27.3590  -20.7807   -8.1384 C   0  0  0  0  0  0  0  0  0  0  0  0
   28.0851  -21.8189   -8.3391 O   0  0  0  0  0  0  0  0  0  0  0  0
   23.5235  -21.5150  -10.7309 C   0  0  0  0  0  0  0  0  0  0  0  0
   22.4017  -21.1284  -11.4263 C   0  0  0  0  0  0  0  0  0  0  0  0
   27.5922  -19.9801   -7.0037 N   0  0  0  0  0  0  0  0  0  0  0  0
   26.8926  -18.7734   -6.6489 C   0  0  0  0  0  0  0  0  0  0  0  0
   27.8949  -17.9573   -5.8386 C   0  0  0  0  0  0  0  0  0  0  0  0
   29.0736  -18.8567   -5.5678 C   0  0  0  0  0  0  0  0  0  0  0  0
   28.5834  -20.2147   -5.9877 C   0  0  1  0  0  0  0  0  0  0  0  0
   27.9725  -20.9313   -4.8524 C   0  0  0  0  0  0  0  0  0  0  0  0
   28.6899  -21.2729   -3.8863 O   0  0  0  0  0  0  0  0  0  0  0  0
   26.6212  -21.2301   -4.8409 O   0  0  0  0  0  0  0  0  0  0  0  0
  2  1  1  1
  2  3  1  0
  4  2  1  0
  4  5  1  6
  6  4  1  0
  7  6  2  0
  8  9  1  0
  9 10  2  0
  9 19  1  0
 10 11  1  0
 11 12  2  0
 12 13  1  0
 14 13  1  1
 14 15  1  0
 15  6  1  0
 16 14  1  0
 17 16  2  0
 18 12  1  0
 19 18  2  0
 20 16  1  0
 20 21  1  0
 21 22  1  0
 23 22  1  0
 24 20  1  0
 24 23  1  0
 24 25  1  1
 26 25  2  0
 27 25  1  0
M  END
$$$$
