TYP.pdb
     RDKit          3D

 27 28  0  0  1  0  0  0  0  0999 V2000
   22.0524   -9.4035  -20.6643 C   0  0  0  0  0  0  0  0  0  0  0  0
   22.9292   -8.3510  -21.3158 C   0  0  1  0  0  0  0  0  0  0  0  0
   22.5405   -8.3003  -22.6647 O   0  0  0  0  0  0  0  0  0  0  0  0
   22.7316   -6.9939  -20.6731 C   0  0  2  0  0  0  0  0  0  0  0  0
   23.6484   -6.0675  -21.3085 N   0  0  0  0  0  0  0  0  0  0  0  0
   23.0250   -7.1401  -19.2234 C   0  0  0  0  0  0  0  0  0  0  0  0
   24.2233   -7.2354  -18.8749 O   0  0  0  0  0  0  0  0  0  0  0  0
   24.7425   -1.5127  -17.3558 O   0  0  0  0  0  0  0  0  0  0  0  0
   23.9785   -2.6402  -17.0700 C   0  0  0  0  0  0  0  0  0  0  0  0
   24.4975   -3.6319  -16.2650 C   0  0  0  0  0  0  0  0  0  0  0  0
   23.7586   -4.7589  -15.9678 C   0  0  0  0  0  0  0  0  0  0  0  0
   22.4822   -4.9540  -16.4502 C   0  0  0  0  0  0  0  0  0  0  0  0
   21.6892   -6.1689  -16.1282 C   0  0  0  0  0  0  0  0  0  0  0  0
   22.2501   -7.3972  -16.8303 C   0  0  2  0  0  0  0  0  0  0  0  0
   21.9944   -7.1729  -18.2477 N   0  0  0  0  0  0  0  0  0  0  0  0
   21.4452   -8.5591  -16.3841 C   0  0  0  0  0  0  0  0  0  0  0  0
   20.3873   -8.8004  -17.0681 O   0  0  0  0  0  0  0  0  0  0  0  0
   21.9893   -3.9472  -17.2516 C   0  0  0  0  0  0  0  0  0  0  0  0
   22.7065   -2.8153  -17.5616 C   0  0  0  0  0  0  0  0  0  0  0  0
   21.7670   -9.3848  -15.2898 N   0  0  0  0  0  0  0  0  0  0  0  0
   22.8610   -9.2028  -14.3725 C   0  0  0  0  0  0  0  0  0  0  0  0
   23.2043  -10.6056  -13.8811 C   0  0  0  0  0  0  0  0  0  0  0  0
   22.1155  -11.5216  -14.3782 C   0  0  0  0  0  0  0  0  0  0  0  0
   21.0649  -10.5745  -14.8881 C   0  0  1  0  0  0  0  0  0  0  0  0
   20.0914  -10.2446  -13.8301 C   0  0  0  0  0  0  0  0  0  0  0  0
   20.1375   -9.1200  -13.2845 O   0  0  0  0  0  0  0  0  0  0  0  0
   19.1309  -11.1588  -13.4339 O   0  0  0  0  0  0  0  0  0  0  0  0
  2  1  1  1
  2  3  1  0
  4  2  1  0
  4  5  1  6
  6  4  1  0
  7  6  2  0
  8  9  1  0
  9 10  2  0
  9 19  1  0
 10 11  1  0
 11 12  2  0
 12 13  1  0
 14 13  1  1
 14 15  1  0
 15  6  1  0
 16 14  1  0
 17 16  2  0
 18 12  1  0
 19 18  2  0
 20 16  1  0
 20 21  1  0
 21 22  1  0
 23 22  1  0
 24 20  1  0
 24 23  1  0
 24 25  1  1
 26 25  2  0
 27 25  1  0
M  END
$$$$
