NKL.pdb
     RDKit          3D

 26 25  0  0  1  0  0  0  0  0999 V2000
    8.4844  -12.0027   17.9104 N   0  0  0  0  0  0  0  0  0  0  0  0
    9.1252  -13.0380   18.6354 C   0  0  0  0  0  0  0  0  0  0  0  0
   10.1590  -13.5872   18.1960 O   0  0  0  0  0  0  0  0  0  0  0  0
    8.5604  -13.4643   19.9181 C   0  0  0  0  0  0  0  0  0  0  0  0
    8.1625  -14.9021   19.8457 C   0  0  2  0  0  0  0  0  0  0  0  0
    7.0632  -15.1478   18.9745 N   0  0  0  0  0  0  0  0  0  0  0  0
    7.7299  -15.2972   21.2460 C   0  0  0  0  0  0  0  0  0  0  0  0
    6.9579  -14.5221   21.8348 O   0  0  0  0  0  0  0  0  0  0  0  0
    8.1886  -16.4862   21.8364 N   0  0  0  0  0  0  0  0  0  0  0  0
    7.8192  -16.9597   23.1356 C   0  0  1  0  0  0  0  0  0  0  0  0
    7.8010  -18.4681   23.2686 C   0  0  0  0  0  0  0  0  0  0  0  0
    7.4762  -18.9408   24.6629 C   0  0  0  0  0  0  0  0  0  0  0  0
    7.3743  -20.4543   24.7198 C   0  0  0  0  0  0  0  0  0  0  0  0
    7.0534  -20.9469   26.1172 C   0  0  0  0  0  0  0  0  0  0  0  0
    6.8615  -22.3880   26.0371 N   0  0  0  0  0  0  0  0  0  0  0  0
    8.5267  -16.2573   24.2010 C   0  0  0  0  0  0  0  0  0  0  0  0
    9.8115  -16.2664   24.1938 O   0  0  0  0  0  0  0  0  0  0  0  0
    6.2096  -12.5904   27.4370 C   0  0  0  0  0  0  0  0  0  0  0  0
    6.9030  -13.1035   26.2027 C   0  0  1  0  0  0  0  0  0  0  0  0
    6.9120  -11.9978   25.1471 C   0  0  0  0  0  0  0  0  0  0  0  0
    8.3037  -13.4706   26.4797 C   0  0  0  0  0  0  0  0  0  0  0  0
    8.7293  -14.8760   26.2544 C   0  0  2  0  0  0  0  0  0  0  0  0
    7.9307  -15.5566   25.2572 N   0  0  0  0  0  0  0  0  0  0  0  0
    8.8382  -15.7396   27.4375 C   0  0  0  0  0  0  0  0  0  0  0  0
    9.5182  -15.3864   28.4360 O   0  0  0  0  0  0  0  0  0  0  0  0
    8.2119  -16.9742   27.5329 O   0  0  0  0  0  0  0  0  0  0  0  0
  2  3  2  0
  2  1  1  0
  4  2  1  0
  5  4  1  0
  5  6  1  6
  7  5  1  0
  7  8  2  0
  9  7  1  0
 10  9  1  0
 11 12  1  0
 10 11  1  6
 12 13  1  0
 13 14  1  0
 14 15  1  0
 16 10  1  0
 17 16  2  0
 19 18  1  1
 19 21  1  0
 20 19  1  0
 22 21  1  1
 22 23  1  0
 22 24  1  0
 23 16  1  0
 24 26  1  0
 25 24  2  0
M  END
$$$$
