NKL.pdb
     RDKit          3D

 26 25  0  0  1  0  0  0  0  0999 V2000
   13.6585  -15.3265   18.2798 N   0  0  0  0  0  0  0  0  0  0  0  0
   13.5244  -14.4672   19.3985 C   0  0  0  0  0  0  0  0  0  0  0  0
   14.5047  -13.8305   19.8425 O   0  0  0  0  0  0  0  0  0  0  0  0
   12.2135  -14.3292   20.0377 C   0  0  0  0  0  0  0  0  0  0  0  0
   11.2297  -15.2420   19.3823 C   0  0  2  0  0  0  0  0  0  0  0  0
   10.7203  -14.7434   18.1496 N   0  0  0  0  0  0  0  0  0  0  0  0
   10.0589  -15.3677   20.3403 C   0  0  0  0  0  0  0  0  0  0  0  0
    9.2060  -14.4650   20.3060 O   0  0  0  0  0  0  0  0  0  0  0  0
    9.9571  -16.4586   21.2191 N   0  0  0  0  0  0  0  0  0  0  0  0
    8.8377  -16.7348   22.0672 C   0  0  1  0  0  0  0  0  0  0  0  0
    8.5397  -18.2085   22.2478 C   0  0  0  0  0  0  0  0  0  0  0  0
    7.3923  -18.4749   23.1888 C   0  0  0  0  0  0  0  0  0  0  0  0
    7.1328  -19.9638   23.3306 C   0  0  0  0  0  0  0  0  0  0  0  0
    5.9681  -20.2485   24.2585 C   0  0  0  0  0  0  0  0  0  0  0  0
    5.7954  -21.6933   24.3091 N   0  0  0  0  0  0  0  0  0  0  0  0
    8.8769  -15.9598   23.3029 C   0  0  0  0  0  0  0  0  0  0  0  0
    9.9941  -15.8603   23.9294 O   0  0  0  0  0  0  0  0  0  0  0  0
    7.8082  -11.9490   26.8786 C   0  0  0  0  0  0  0  0  0  0  0  0
    6.7335  -12.9927   26.7260 C   0  0  1  0  0  0  0  0  0  0  0  0
    5.3682  -12.3131   26.8321 C   0  0  0  0  0  0  0  0  0  0  0  0
    6.8034  -13.6560   25.4112 C   0  0  0  0  0  0  0  0  0  0  0  0
    7.9316  -14.5840   25.1411 C   0  0  2  0  0  0  0  0  0  0  0  0
    7.7912  -15.2968   23.8892 N   0  0  0  0  0  0  0  0  0  0  0  0
    8.2706  -15.5492   26.1951 C   0  0  0  0  0  0  0  0  0  0  0  0
    9.2483  -15.3521   26.9629 O   0  0  0  0  0  0  0  0  0  0  0  0
    7.5516  -16.7161   26.4117 O   0  0  0  0  0  0  0  0  0  0  0  0
  2  3  2  0
  2  1  1  0
  4  2  1  0
  5  4  1  0
  5  6  1  6
  7  5  1  0
  7  8  2  0
  9  7  1  0
 10  9  1  0
 11 12  1  0
 10 11  1  1
 12 13  1  0
 13 14  1  0
 14 15  1  0
 16 10  1  0
 17 16  2  0
 19 18  1  6
 19 21  1  0
 20 19  1  0
 22 21  1  1
 22 23  1  0
 22 24  1  0
 23 16  1  0
 24 26  1  0
 25 24  2  0
M  END
$$$$
