NKL.pdb
     RDKit          3D

 26 25  0  0  1  0  0  0  0  0999 V2000
    9.2141  -14.5011   16.6329 N   0  0  0  0  0  0  0  0  0  0  0  0
    8.1129  -13.7434   17.1031 C   0  0  0  0  0  0  0  0  0  0  0  0
    7.5200  -12.9362   16.3545 O   0  0  0  0  0  0  0  0  0  0  0  0
    7.6697  -13.9153   18.4888 C   0  0  0  0  0  0  0  0  0  0  0  0
    8.5857  -14.8543   19.2028 C   0  0  2  0  0  0  0  0  0  0  0  0
    8.5201  -16.1931   18.7221 N   0  0  0  0  0  0  0  0  0  0  0  0
    8.1372  -14.8695   20.6529 C   0  0  0  0  0  0  0  0  0  0  0  0
    8.2344  -13.8026   21.2819 O   0  0  0  0  0  0  0  0  0  0  0  0
    7.6376  -16.0419   21.2433 N   0  0  0  0  0  0  0  0  0  0  0  0
    7.3338  -16.2026   22.6327 C   0  0  1  0  0  0  0  0  0  0  0  0
    6.3611  -17.3238   22.9337 C   0  0  0  0  0  0  0  0  0  0  0  0
    5.4853  -17.6855   21.7610 C   0  0  0  0  0  0  0  0  0  0  0  0
    4.7350  -18.9804   22.0151 C   0  0  0  0  0  0  0  0  0  0  0  0
    3.7760  -19.3082   20.8876 C   0  0  0  0  0  0  0  0  0  0  0  0
    3.0980  -20.5477   21.2397 N   0  0  0  0  0  0  0  0  0  0  0  0
    8.5321  -16.1888   23.4650 C   0  0  0  0  0  0  0  0  0  0  0  0
    9.0800  -17.3102   23.7701 O   0  0  0  0  0  0  0  0  0  0  0  0
    8.1720  -12.3423   27.3017 C   0  0  0  0  0  0  0  0  0  0  0  0
    7.1325  -13.1774   26.6020 C   0  0  1  0  0  0  0  0  0  0  0  0
    5.9068  -12.3072   26.3242 C   0  0  0  0  0  0  0  0  0  0  0  0
    7.6246  -13.6852   25.3084 C   0  0  0  0  0  0  0  0  0  0  0  0
    8.8406  -14.5386   25.2945 C   0  0  2  0  0  0  0  0  0  0  0  0
    9.1608  -15.0469   23.9776 N   0  0  0  0  0  0  0  0  0  0  0  0
    8.8869  -15.6522   26.2512 C   0  0  0  0  0  0  0  0  0  0  0  0
    9.8333  -15.7593   27.0741 O   0  0  0  0  0  0  0  0  0  0  0  0
    7.9122  -16.6379   26.3122 O   0  0  0  0  0  0  0  0  0  0  0  0
  2  3  2  0
  2  1  1  0
  4  2  1  0
  5  4  1  0
  5  6  1  6
  7  5  1  0
  7  8  2  0
  9  7  1  0
 10  9  1  0
 11 12  1  0
 10 11  1  6
 12 13  1  0
 13 14  1  0
 14 15  1  0
 16 10  1  0
 17 16  2  0
 19 18  1  6
 19 21  1  0
 20 19  1  0
 22 21  1  6
 22 23  1  0
 22 24  1  0
 23 16  1  0
 24 26  1  0
 25 24  2  0
M  END
$$$$
