NKL.pdb
     RDKit          3D

 26 25  0  0  1  0  0  0  0  0999 V2000
    8.3998  -12.2066   17.1824 N   0  0  0  0  0  0  0  0  0  0  0  0
    8.0592  -13.5819   17.2062 C   0  0  0  0  0  0  0  0  0  0  0  0
    8.1976  -14.2972   16.1901 O   0  0  0  0  0  0  0  0  0  0  0  0
    7.5379  -14.1653   18.4448 C   0  0  0  0  0  0  0  0  0  0  0  0
    8.6655  -14.6797   19.2784 C   0  0  2  0  0  0  0  0  0  0  0  0
    9.3392  -15.7947   18.7035 N   0  0  0  0  0  0  0  0  0  0  0  0
    8.0525  -15.1442   20.5870 C   0  0  0  0  0  0  0  0  0  0  0  0
    7.2099  -14.3955   21.1095 O   0  0  0  0  0  0  0  0  0  0  0  0
    8.4293  -16.3657   21.1691 N   0  0  0  0  0  0  0  0  0  0  0  0
    7.9170  -16.8878   22.3993 C   0  0  1  0  0  0  0  0  0  0  0  0
    8.0928  -18.3828   22.5646 C   0  0  0  0  0  0  0  0  0  0  0  0
    7.1789  -19.1931   21.6808 C   0  0  0  0  0  0  0  0  0  0  0  0
    7.5246  -20.6699   21.7406 C   0  0  0  0  0  0  0  0  0  0  0  0
    6.6965  -21.4840   20.7660 C   0  0  0  0  0  0  0  0  0  0  0  0
    7.0936  -22.8769   20.9153 N   0  0  0  0  0  0  0  0  0  0  0  0
    8.3259  -16.0899   23.5505 C   0  0  0  0  0  0  0  0  0  0  0  0
    9.5589  -15.7426   23.6493 O   0  0  0  0  0  0  0  0  0  0  0  0
    8.3842  -11.6379   26.3173 C   0  0  0  0  0  0  0  0  0  0  0  0
    7.2812  -12.5511   26.7830 C   0  0  1  0  0  0  0  0  0  0  0  0
    6.0171  -11.7215   27.0085 C   0  0  0  0  0  0  0  0  0  0  0  0
    6.9678  -13.5815   25.7762 C   0  0  0  0  0  0  0  0  0  0  0  0
    7.9388  -14.6850   25.5609 C   0  0  2  0  0  0  0  0  0  0  0  0
    7.4878  -15.6538   24.5847 N   0  0  0  0  0  0  0  0  0  0  0  0
    8.4092  -15.4039   26.7524 C   0  0  0  0  0  0  0  0  0  0  0  0
    8.9721  -14.7917   27.6972 O   0  0  0  0  0  0  0  0  0  0  0  0
    8.2667  -16.7746   26.9140 O   0  0  0  0  0  0  0  0  0  0  0  0
  2  3  2  0
  2  1  1  0
  4  2  1  0
  5  4  1  0
  5  6  1  6
  7  5  1  0
  7  8  2  0
  9  7  1  0
 10  9  1  0
 11 12  1  0
 10 11  1  1
 12 13  1  0
 13 14  1  0
 14 15  1  0
 16 10  1  0
 17 16  2  0
 19 18  1  6
 19 21  1  0
 20 19  1  0
 22 21  1  1
 22 23  1  0
 22 24  1  0
 23 16  1  0
 24 26  1  0
 25 24  2  0
M  END
$$$$
