NKL.pdb
     RDKit          3D

 26 25  0  0  1  0  0  0  0  0999 V2000
    9.4442  -13.4566   16.0991 N   0  0  0  0  0  0  0  0  0  0  0  0
    8.0543  -13.6778   16.2636 C   0  0  0  0  0  0  0  0  0  0  0  0
    7.2685  -13.5857   15.2953 O   0  0  0  0  0  0  0  0  0  0  0  0
    7.5396  -14.0190   17.5921 C   0  0  0  0  0  0  0  0  0  0  0  0
    8.6571  -14.0302   18.5829 C   0  0  2  0  0  0  0  0  0  0  0  0
    9.7423  -14.8739   18.2111 N   0  0  0  0  0  0  0  0  0  0  0  0
    8.0778  -14.5773   19.8748 C   0  0  0  0  0  0  0  0  0  0  0  0
    7.1086  -13.9684   20.3578 O   0  0  0  0  0  0  0  0  0  0  0  0
    8.6218  -15.7194   20.4850 N   0  0  0  0  0  0  0  0  0  0  0  0
    8.1362  -16.3242   21.6879 C   0  0  1  0  0  0  0  0  0  0  0  0
    8.4778  -17.7927   21.8306 C   0  0  0  0  0  0  0  0  0  0  0  0
    7.5371  -18.7003   21.0794 C   0  0  0  0  0  0  0  0  0  0  0  0
    7.9504  -20.1545   21.2170 C   0  0  0  0  0  0  0  0  0  0  0  0
    7.0871  -21.0697   20.3711 C   0  0  0  0  0  0  0  0  0  0  0  0
    7.5828  -22.4265   20.5536 N   0  0  0  0  0  0  0  0  0  0  0  0
    8.4160  -15.5109   22.8667 C   0  0  0  0  0  0  0  0  0  0  0  0
    9.5320  -14.8769   22.9236 O   0  0  0  0  0  0  0  0  0  0  0  0
    7.9223  -11.4124   26.1349 C   0  0  0  0  0  0  0  0  0  0  0  0
    7.0340  -12.5670   26.5159 C   0  0  1  0  0  0  0  0  0  0  0  0
    5.6636  -12.0223   26.9185 C   0  0  0  0  0  0  0  0  0  0  0  0
    6.8343  -13.4941   25.3871 C   0  0  0  0  0  0  0  0  0  0  0  0
    7.9141  -14.4605   25.0599 C   0  0  2  0  0  0  0  0  0  0  0  0
    7.5686  -15.3481   23.9700 N   0  0  0  0  0  0  0  0  0  0  0  0
    8.4511  -15.2634   26.1665 C   0  0  0  0  0  0  0  0  0  0  0  0
    7.9579  -16.3861   26.4500 O   0  0  0  0  0  0  0  0  0  0  0  0
    9.5148  -14.8485   26.9551 O   0  0  0  0  0  0  0  0  0  0  0  0
  2  3  2  0
  2  1  1  0
  4  2  1  0
  5  4  1  0
  5  6  1  6
  7  5  1  0
  7  8  2  0
  9  7  1  0
 10  9  1  0
 11 12  1  0
 10 11  1  1
 12 13  1  0
 13 14  1  0
 14 15  1  0
 16 10  1  0
 17 16  2  0
 19 18  1  6
 19 21  1  0
 20 19  1  0
 22 21  1  1
 22 23  1  0
 22 24  1  0
 23 16  1  0
 24 26  1  0
 25 24  2  0
M  END
$$$$
