NKL.pdb
     RDKit          3D

 26 25  0  0  1  0  0  0  0  0999 V2000
    8.4748  -12.0093   17.5036 N   0  0  0  0  0  0  0  0  0  0  0  0
    8.1059  -13.3774   17.5137 C   0  0  0  0  0  0  0  0  0  0  0  0
    8.1903  -14.0747   16.4793 O   0  0  0  0  0  0  0  0  0  0  0  0
    7.6194  -13.9748   18.7597 C   0  0  0  0  0  0  0  0  0  0  0  0
    8.7562  -14.5947   19.5041 C   0  0  2  0  0  0  0  0  0  0  0  0
    9.3278  -15.7186   18.8423 N   0  0  0  0  0  0  0  0  0  0  0  0
    8.1870  -15.0849   20.8231 C   0  0  0  0  0  0  0  0  0  0  0  0
    7.1813  -14.4964   21.2540 O   0  0  0  0  0  0  0  0  0  0  0  0
    8.7796  -16.1548   21.5137 N   0  0  0  0  0  0  0  0  0  0  0  0
    8.2939  -16.7197   22.7358 C   0  0  1  0  0  0  0  0  0  0  0  0
    8.4745  -18.2193   22.8458 C   0  0  0  0  0  0  0  0  0  0  0  0
    7.6764  -18.9933   21.8275 C   0  0  0  0  0  0  0  0  0  0  0  0
    7.9280  -20.4851   21.9512 C   0  0  0  0  0  0  0  0  0  0  0  0
    7.1124  -21.2806   20.9510 C   0  0  0  0  0  0  0  0  0  0  0  0
    7.4642  -22.6833   21.1204 N   0  0  0  0  0  0  0  0  0  0  0  0
    8.7266  -15.9614   23.9049 C   0  0  0  0  0  0  0  0  0  0  0  0
    9.9470  -15.5636   23.9608 O   0  0  0  0  0  0  0  0  0  0  0  0
    5.6281  -12.1928   26.4128 C   0  0  0  0  0  0  0  0  0  0  0  0
    6.7606  -12.9139   25.7310 C   0  0  1  0  0  0  0  0  0  0  0  0
    7.8070  -11.8879   25.2961 C   0  0  0  0  0  0  0  0  0  0  0  0
    7.4203  -13.8702   26.6388 C   0  0  0  0  0  0  0  0  0  0  0  0
    8.4368  -14.7978   26.0792 C   0  0  2  0  0  0  0  0  0  0  0  0
    7.9246  -15.6149   24.9998 N   0  0  0  0  0  0  0  0  0  0  0  0
    9.1451  -15.6658   27.0292 C   0  0  0  0  0  0  0  0  0  0  0  0
    8.9986  -16.9154   26.9970 O   0  0  0  0  0  0  0  0  0  0  0  0
   10.0050  -15.1781   28.0029 O   0  0  0  0  0  0  0  0  0  0  0  0
  2  3  2  0
  2  1  1  0
  4  2  1  0
  5  4  1  0
  5  6  1  6
  7  5  1  0
  7  8  2  0
  9  7  1  0
 10  9  1  0
 11 12  1  0
 10 11  1  1
 12 13  1  0
 13 14  1  0
 14 15  1  0
 16 10  1  0
 17 16  2  0
 19 18  1  1
 19 21  1  0
 20 19  1  0
 22 21  1  1
 22 23  1  0
 22 24  1  0
 23 16  1  0
 24 26  1  0
 25 24  2  0
M  END
$$$$
