NKL.pdb
     RDKit          3D

 26 25  0  0  1  0  0  0  0  0999 V2000
    7.9506  -12.2947   17.1726 N   0  0  0  0  0  0  0  0  0  0  0  0
    7.6708  -13.6666   17.3904 C   0  0  0  0  0  0  0  0  0  0  0  0
    7.6334  -14.4754   16.4374 O   0  0  0  0  0  0  0  0  0  0  0  0
    7.4231  -14.1351   18.7561 C   0  0  0  0  0  0  0  0  0  0  0  0
    8.7184  -14.4593   19.4253 C   0  0  2  0  0  0  0  0  0  0  0  0
    9.4733  -15.4628   18.7537 N   0  0  0  0  0  0  0  0  0  0  0  0
    8.3665  -14.9987   20.7997 C   0  0  0  0  0  0  0  0  0  0  0  0
    7.6994  -14.2570   21.5402 O   0  0  0  0  0  0  0  0  0  0  0  0
    8.7821  -16.2784   21.2028 N   0  0  0  0  0  0  0  0  0  0  0  0
    8.5886  -16.8377   22.5060 C   0  0  1  0  0  0  0  0  0  0  0  0
    8.7853  -18.3376   22.5774 C   0  0  0  0  0  0  0  0  0  0  0  0
    8.5473  -18.9063   23.9532 C   0  0  0  0  0  0  0  0  0  0  0  0
    8.7551  -20.4099   23.9692 C   0  0  0  0  0  0  0  0  0  0  0  0
    8.5346  -20.9961   25.3499 C   0  0  0  0  0  0  0  0  0  0  0  0
    8.9561  -22.3890   25.3035 N   0  0  0  0  0  0  0  0  0  0  0  0
    9.2805  -16.0772   23.5414 C   0  0  0  0  0  0  0  0  0  0  0  0
   10.1853  -15.2378   23.1846 O   0  0  0  0  0  0  0  0  0  0  0  0
    6.3711  -12.1586   25.5404 C   0  0  0  0  0  0  0  0  0  0  0  0
    7.6646  -12.7910   25.9812 C   0  0  1  0  0  0  0  0  0  0  0  0
    7.5268  -13.2297   27.4391 C   0  0  0  0  0  0  0  0  0  0  0  0
    7.9845  -13.9873   25.1811 C   0  0  0  0  0  0  0  0  0  0  0  0
    8.9228  -14.9913   25.7455 C   0  0  2  0  0  0  0  0  0  0  0  0
    9.0514  -16.1732   24.9199 N   0  0  0  0  0  0  0  0  0  0  0  0
    8.6963  -15.4117   27.1346 C   0  0  0  0  0  0  0  0  0  0  0  0
    7.6875  -16.0965   27.4470 O   0  0  0  0  0  0  0  0  0  0  0  0
    9.5600  -15.0911   28.1722 O   0  0  0  0  0  0  0  0  0  0  0  0
  2  3  2  0
  2  1  1  0
  4  2  1  0
  5  4  1  0
  5  6  1  6
  7  5  1  0
  7  8  2  0
  9  7  1  0
 10  9  1  0
 11 12  1  0
 10 11  1  6
 12 13  1  0
 13 14  1  0
 14 15  1  0
 16 10  1  0
 17 16  2  0
 19 18  1  6
 19 21  1  0
 20 19  1  0
 22 21  1  6
 22 23  1  0
 22 24  1  0
 23 16  1  0
 24 26  1  0
 25 24  2  0
M  END
$$$$
