NKL.pdb
     RDKit          3D

 26 25  0  0  1  0  0  0  0  0999 V2000
    9.2132  -14.2085   17.0677 N   0  0  0  0  0  0  0  0  0  0  0  0
    8.0527  -13.5291   17.5144 C   0  0  0  0  0  0  0  0  0  0  0  0
    7.4027  -12.7895   16.7437 O   0  0  0  0  0  0  0  0  0  0  0  0
    7.6157  -13.7021   18.9020 C   0  0  0  0  0  0  0  0  0  0  0  0
    8.6103  -14.5290   19.6489 C   0  0  2  0  0  0  0  0  0  0  0  0
    8.8670  -15.7947   19.0491 N   0  0  0  0  0  0  0  0  0  0  0  0
    8.0086  -14.7884   21.0181 C   0  0  0  0  0  0  0  0  0  0  0  0
    7.3800  -13.8533   21.5415 O   0  0  0  0  0  0  0  0  0  0  0  0
    8.1628  -16.0321   21.6522 N   0  0  0  0  0  0  0  0  0  0  0  0
    7.5475  -16.4118   22.8874 C   0  0  1  0  0  0  0  0  0  0  0  0
    7.2838  -17.8969   23.0232 C   0  0  0  0  0  0  0  0  0  0  0  0
    6.2824  -18.4194   22.0247 C   0  0  0  0  0  0  0  0  0  0  0  0
    6.1002  -19.9200   22.1637 C   0  0  0  0  0  0  0  0  0  0  0  0
    5.0218  -20.4464   21.2372 C   0  0  0  0  0  0  0  0  0  0  0  0
    4.8984  -21.8765   21.4817 N   0  0  0  0  0  0  0  0  0  0  0  0
    8.1960  -15.7950   24.0398 C   0  0  0  0  0  0  0  0  0  0  0  0
    9.4695  -15.6274   24.0101 O   0  0  0  0  0  0  0  0  0  0  0  0
    5.8578  -11.8960   27.0919 C   0  0  0  0  0  0  0  0  0  0  0  0
    6.7967  -12.6981   26.2300 C   0  0  1  0  0  0  0  0  0  0  0  0
    7.8324  -11.7541   25.6192 C   0  0  0  0  0  0  0  0  0  0  0  0
    7.5226  -13.7125   27.0160 C   0  0  0  0  0  0  0  0  0  0  0  0
    8.2948  -14.7551   26.2925 C   0  0  2  0  0  0  0  0  0  0  0  0
    7.5533  -15.3562   25.2044 N   0  0  0  0  0  0  0  0  0  0  0  0
    8.8927  -15.8260   27.1007 C   0  0  0  0  0  0  0  0  0  0  0  0
    8.4813  -17.0120   27.0094 O   0  0  0  0  0  0  0  0  0  0  0  0
    9.9287  -15.6079   27.9977 O   0  0  0  0  0  0  0  0  0  0  0  0
  2  3  2  0
  2  1  1  0
  4  2  1  0
  5  4  1  0
  5  6  1  6
  7  5  1  0
  7  8  2  0
  9  7  1  0
 10  9  1  0
 11 12  1  0
 10 11  1  1
 12 13  1  0
 13 14  1  0
 14 15  1  0
 16 10  1  0
 17 16  2  0
 19 18  1  1
 19 21  1  0
 20 19  1  0
 22 21  1  1
 22 23  1  0
 22 24  1  0
 23 16  1  0
 24 26  1  0
 25 24  2  0
M  END
$$$$
