TGF.pdb
     RDKit          3D

 23 23  0  0  1  0  0  0  0  0999 V2000
   24.2946  -20.2858  -16.1146 C   0  0  0  0  0  0  0  0  0  0  0  0
   24.9972  -20.5409  -14.8086 C   0  0  1  0  0  0  0  0  0  0  0  0
   24.6002  -21.7848  -14.2785 O   0  0  0  0  0  0  0  0  0  0  0  0
   26.4960  -20.5614  -15.0626 C   0  0  2  0  0  0  0  0  0  0  0  0
   26.7979  -21.7380  -15.9105 N   0  0  0  0  0  0  0  0  0  0  0  0
   27.2334  -20.8053  -13.7986 C   0  0  0  0  0  0  0  0  0  0  0  0
   27.9193  -21.8688  -13.6416 O   0  0  0  0  0  0  0  0  0  0  0  0
   27.2462  -19.9121  -12.6904 N   0  0  0  0  0  0  0  0  0  0  0  0
   27.9378  -20.2901  -11.4937 C   0  0  0  0  0  0  0  0  0  0  0  0
   27.0786  -20.7723  -10.4097 C   0  0  0  0  0  0  0  0  0  0  0  0
   26.5524  -21.9345  -10.5490 O   0  0  0  0  0  0  0  0  0  0  0  0
   26.7578  -20.1006   -9.2156 N   0  0  0  0  0  0  0  0  0  0  0  0
   25.8493  -20.6983   -8.2432 C   0  0  1  0  0  0  0  0  0  0  0  0
   25.8624  -19.9580   -6.9582 C   0  0  0  0  0  0  0  0  0  0  0  0
   27.2000  -19.8700   -6.3521 C   0  0  0  0  0  0  0  0  0  0  0  0
   27.6281  -20.9049   -5.5435 C   0  0  0  0  0  0  0  0  0  0  0  0
   28.8719  -20.8597   -4.9587 C   0  0  0  0  0  0  0  0  0  0  0  0
   29.6950  -19.7752   -5.1814 C   0  0  0  0  0  0  0  0  0  0  0  0
   29.2832  -18.7265   -5.9899 C   0  0  0  0  0  0  0  0  0  0  0  0
   28.0365  -18.7778   -6.5726 C   0  0  0  0  0  0  0  0  0  0  0  0
   24.5042  -20.8902   -8.7919 C   0  0  0  0  0  0  0  0  0  0  0  0
   23.5550  -21.7242   -8.2580 O   0  0  0  0  0  0  0  0  0  0  0  0
   24.1729  -20.2529   -9.8336 O   0  0  0  0  0  0  0  0  0  0  0  0
  2  1  1  6
  2  4  1  0
  3  2  1  0
  4  5  1  6
  6  4  1  0
  6  8  1  0
  7  6  2  0
  9  8  1  0
  9 10  1  0
 10 12  1  0
 11 10  2  0
 12 13  1  0
 13 14  1  1
 14 15  1  0
 15 20  2  0
 16 17  2  0
 16 15  1  0
 17 18  1  0
 18 19  2  0
 20 19  1  0
 21 13  1  0
 21 22  1  0
 23 21  2  0
M  END
$$$$
