TGF.pdb
     RDKit          3D

 23 23  0  0  1  0  0  0  0  0999 V2000
   27.3634  -22.6065  -16.0806 C   0  0  0  0  0  0  0  0  0  0  0  0
   27.0441  -22.1516  -14.6822 C   0  0  1  0  0  0  0  0  0  0  0  0
   28.1493  -21.4763  -14.1269 O   0  0  0  0  0  0  0  0  0  0  0  0
   25.8575  -21.2030  -14.7422 C   0  0  2  0  0  0  0  0  0  0  0  0
   26.1900  -20.1179  -15.6942 N   0  0  0  0  0  0  0  0  0  0  0  0
   25.6723  -20.5202  -13.4382 C   0  0  0  0  0  0  0  0  0  0  0  0
   26.1877  -19.3732  -13.2266 O   0  0  0  0  0  0  0  0  0  0  0  0
   24.9313  -21.0572  -12.3479 N   0  0  0  0  0  0  0  0  0  0  0  0
   24.7296  -20.2573  -11.1763 C   0  0  0  0  0  0  0  0  0  0  0  0
   25.6281  -20.5596  -10.0595 C   0  0  0  0  0  0  0  0  0  0  0  0
   26.4407  -21.5418  -10.2077 O   0  0  0  0  0  0  0  0  0  0  0  0
   25.7058  -19.8893   -8.8247 N   0  0  0  0  0  0  0  0  0  0  0  0
   26.6529  -20.3171   -7.8009 C   0  0  1  0  0  0  0  0  0  0  0  0
   27.4753  -19.1841   -7.3116 C   0  0  0  0  0  0  0  0  0  0  0  0
   28.2854  -19.5217   -6.1308 C   0  0  0  0  0  0  0  0  0  0  0  0
   27.9887  -18.9085   -4.9291 C   0  0  0  0  0  0  0  0  0  0  0  0
   28.7228  -19.1976   -3.8028 C   0  0  0  0  0  0  0  0  0  0  0  0
   29.7601  -20.1043   -3.8747 C   0  0  0  0  0  0  0  0  0  0  0  0
   30.0732  -20.7302   -5.0718 C   0  0  0  0  0  0  0  0  0  0  0  0
   29.3343  -20.4364   -6.1962 C   0  0  0  0  0  0  0  0  0  0  0  0
   25.9996  -21.0700   -6.7268 C   0  0  0  0  0  0  0  0  0  0  0  0
   24.6420  -21.1977   -6.5771 O   0  0  0  0  0  0  0  0  0  0  0  0
   26.7190  -21.6504   -5.8628 O   0  0  0  0  0  0  0  0  0  0  0  0
  2  1  1  6
  2  4  1  0
  3  2  1  0
  4  5  1  6
  6  4  1  0
  6  8  1  0
  7  6  2  0
  9  8  1  0
  9 10  1  0
 10 12  1  0
 11 10  2  0
 12 13  1  0
 13 14  1  1
 14 15  1  0
 15 20  2  0
 16 17  2  0
 16 15  1  0
 17 18  1  0
 18 19  2  0
 20 19  1  0
 21 13  1  0
 21 22  1  0
 23 21  2  0
M  END
$$$$
