TGF.pdb
     RDKit          3D

 23 23  0  0  1  0  0  0  0  0999 V2000
   26.9607  -17.7892  -18.0047 C   0  0  0  0  0  0  0  0  0  0  0  0
   27.3126  -17.6193  -16.5515 C   0  0  1  0  0  0  0  0  0  0  0  0
   26.7623  -16.4205  -16.0556 O   0  0  0  0  0  0  0  0  0  0  0  0
   26.7366  -18.7925  -15.7749 C   0  0  2  0  0  0  0  0  0  0  0  0
   25.2612  -18.6598  -15.7777 N   0  0  0  0  0  0  0  0  0  0  0  0
   27.1225  -18.7079  -14.3449 C   0  0  0  0  0  0  0  0  0  0  0  0
   28.3352  -18.8759  -13.9881 O   0  0  0  0  0  0  0  0  0  0  0  0
   26.2144  -18.4400  -13.2819 N   0  0  0  0  0  0  0  0  0  0  0  0
   26.7125  -18.3467  -11.9415 C   0  0  0  0  0  0  0  0  0  0  0  0
   26.5187  -19.5477  -11.1255 C   0  0  0  0  0  0  0  0  0  0  0  0
   26.1852  -20.6261  -11.7360 O   0  0  0  0  0  0  0  0  0  0  0  0
   26.6573  -19.6592   -9.7296 N   0  0  0  0  0  0  0  0  0  0  0  0
   26.4322  -20.9335   -9.0561 C   0  0  1  0  0  0  0  0  0  0  0  0
   27.6440  -21.3893   -8.3329 C   0  0  0  0  0  0  0  0  0  0  0  0
   27.9266  -20.6049   -7.1207 C   0  0  0  0  0  0  0  0  0  0  0  0
   27.3286  -19.3677   -6.9804 C   0  0  0  0  0  0  0  0  0  0  0  0
   27.5676  -18.6043   -5.8619 C   0  0  0  0  0  0  0  0  0  0  0  0
   28.4087  -19.0774   -4.8760 C   0  0  0  0  0  0  0  0  0  0  0  0
   29.0184  -20.3168   -4.9986 C   0  0  0  0  0  0  0  0  0  0  0  0
   28.7749  -21.0765   -6.1212 C   0  0  0  0  0  0  0  0  0  0  0  0
   25.2289  -20.9091   -8.2201 C   0  0  0  0  0  0  0  0  0  0  0  0
   24.7600  -21.9755   -7.4957 O   0  0  0  0  0  0  0  0  0  0  0  0
   24.5572  -19.8394   -8.1474 O   0  0  0  0  0  0  0  0  0  0  0  0
  2  1  1  6
  2  4  1  0
  3  2  1  0
  4  5  1  1
  6  4  1  0
  6  8  1  0
  7  6  2  0
  9  8  1  0
  9 10  1  0
 10 12  1  0
 11 10  2  0
 12 13  1  0
 13 14  1  1
 14 15  1  0
 15 20  2  0
 16 17  2  0
 16 15  1  0
 17 18  1  0
 18 19  2  0
 20 19  1  0
 21 13  1  0
 21 22  1  0
 23 21  2  0
M  END
$$$$
