TGF.pdb
     RDKit          3D

 23 23  0  0  1  0  0  0  0  0999 V2000
   27.2349  -20.4773  -18.7399 C   0  0  0  0  0  0  0  0  0  0  0  0
   27.0929  -19.8074  -17.4000 C   0  0  1  0  0  0  0  0  0  0  0  0
   25.8297  -20.0944  -16.8450 O   0  0  0  0  0  0  0  0  0  0  0  0
   28.1770  -20.3400  -16.4767 C   0  0  2  0  0  0  0  0  0  0  0  0
   27.9207  -21.7826  -16.2584 N   0  0  0  0  0  0  0  0  0  0  0  0
   28.0606  -19.7260  -15.1312 C   0  0  0  0  0  0  0  0  0  0  0  0
   28.1416  -18.4619  -14.9847 O   0  0  0  0  0  0  0  0  0  0  0  0
   27.8537  -20.4589  -13.9285 N   0  0  0  0  0  0  0  0  0  0  0  0
   27.5850  -19.7492  -12.7130 C   0  0  0  0  0  0  0  0  0  0  0  0
   26.6342  -20.4049  -11.8121 C   0  0  0  0  0  0  0  0  0  0  0  0
   26.1306  -21.5202  -12.1989 O   0  0  0  0  0  0  0  0  0  0  0  0
   26.2017  -19.9485  -10.5532 N   0  0  0  0  0  0  0  0  0  0  0  0
   25.2977  -20.7520   -9.7375 C   0  0  1  0  0  0  0  0  0  0  0  0
   25.2943  -20.3030   -8.3241 C   0  0  0  0  0  0  0  0  0  0  0  0
   26.6433  -20.0680   -7.7860 C   0  0  0  0  0  0  0  0  0  0  0  0
   26.9696  -18.7974   -7.3532 C   0  0  0  0  0  0  0  0  0  0  0  0
   28.2203  -18.5378   -6.8439 C   0  0  0  0  0  0  0  0  0  0  0  0
   29.1525  -19.5516   -6.7654 C   0  0  0  0  0  0  0  0  0  0  0  0
   28.8439  -20.8335   -7.1948 C   0  0  0  0  0  0  0  0  0  0  0  0
   27.5897  -21.0872   -7.7038 C   0  0  0  0  0  0  0  0  0  0  0  0
   23.9580  -20.8401  -10.3245 C   0  0  0  0  0  0  0  0  0  0  0  0
   23.0210  -21.7854   -9.9928 O   0  0  0  0  0  0  0  0  0  0  0  0
   23.6197  -19.9955  -11.2038 O   0  0  0  0  0  0  0  0  0  0  0  0
  2  1  1  6
  2  4  1  0
  3  2  1  0
  4  5  1  1
  6  4  1  0
  6  8  1  0
  7  6  2  0
  9  8  1  0
  9 10  1  0
 10 12  1  0
 11 10  2  0
 12 13  1  0
 13 14  1  1
 14 15  1  0
 15 20  2  0
 16 17  2  0
 16 15  1  0
 17 18  1  0
 18 19  2  0
 20 19  1  0
 21 13  1  0
 21 22  1  0
 23 21  2  0
M  END
$$$$
