SMS.pdb
     RDKit          3D

 21 20  0  0  1  0  0  0  0  0999 V2000
   26.7385  -18.1827  -16.2754 O   0  0  0  0  0  0  0  0  0  0  0  0
   27.9007  -18.4040  -15.5818 C   0  0  0  0  0  0  0  0  0  0  0  0
   28.2660  -19.8599  -15.4341 C   0  0  2  0  0  0  0  0  0  0  0  0
   28.4245  -20.3919  -16.7677 N   0  0  0  0  0  0  0  0  0  0  0  0
   27.2512  -20.6228  -14.6676 C   0  0  0  0  0  0  0  0  0  0  0  0
   26.5620  -21.4600  -15.2747 O   0  0  0  0  0  0  0  0  0  0  0  0
   25.5391  -19.4088   -8.0808 C   0  0  0  0  0  0  0  0  0  0  0  0
   25.4957  -21.2021   -8.3882 S   0  0  0  0  0  0  0  0  0  0  0  0
   25.1263  -21.4523  -10.1689 C   0  0  0  0  0  0  0  0  0  0  0  0
   26.2164  -20.8502  -10.9925 C   0  0  0  0  0  0  0  0  0  0  0  0
   26.0076  -21.0048  -12.4912 C   0  0  2  0  0  0  0  0  0  0  0  0
   27.0602  -20.4174  -13.2889 N   0  0  0  0  0  0  0  0  0  0  0  0
   24.7079  -20.3985  -12.8344 C   0  0  0  0  0  0  0  0  0  0  0  0
   24.5091  -19.1703  -12.9274 O   0  0  0  0  0  0  0  0  0  0  0  0
   22.4007  -21.3841  -15.6370 O   0  0  0  0  0  0  0  0  0  0  0  0
   21.5915  -21.4119  -14.5087 C   0  0  0  0  0  0  0  0  0  0  0  0
   22.2751  -20.7074  -13.3394 C   0  0  2  0  0  0  0  0  0  0  0  0
   23.5763  -21.2519  -13.0841 N   0  0  0  0  0  0  0  0  0  0  0  0
   21.3976  -20.7582  -12.1622 C   0  0  0  0  0  0  0  0  0  0  0  0
   20.1713  -20.1375  -12.1386 O   0  0  0  0  0  0  0  0  0  0  0  0
   21.7511  -21.3818  -11.1265 O   0  0  0  0  0  0  0  0  0  0  0  0
  2  3  1  0
  2  1  1  0
  3  4  1  6
  3  5  1  0
  5  6  2  0
  7  8  1  0
  9  8  1  0
 11 10  1  1
 10  9  1  0
 11 13  1  0
 12  5  1  0
 12 11  1  0
 13 14  2  0
 15 16  1  0
 17 16  1  6
 17 19  1  0
 18 17  1  0
 18 13  1  0
 19 20  1  0
 21 19  2  0
M  END
$$$$
