SMS.pdb
     RDKit          3D

 21 20  0  0  1  0  0  0  0  0999 V2000
   17.4193  -10.4065  -19.2348 O   0  0  0  0  0  0  0  0  0  0  0  0
   17.8396  -10.1545  -17.9540 C   0  0  0  0  0  0  0  0  0  0  0  0
   18.9744  -11.0335  -17.4904 C   0  0  2  0  0  0  0  0  0  0  0  0
   18.3812  -12.2086  -16.8957 N   0  0  0  0  0  0  0  0  0  0  0  0
   19.8719  -10.3412  -16.5342 C   0  0  0  0  0  0  0  0  0  0  0  0
   19.4831  -10.1944  -15.3630 O   0  0  0  0  0  0  0  0  0  0  0  0
   26.3787  -11.2142  -14.7897 C   0  0  0  0  0  0  0  0  0  0  0  0
   26.1781   -9.6429  -15.6859 S   0  0  0  0  0  0  0  0  0  0  0  0
   24.4911   -9.0119  -15.3314 C   0  0  0  0  0  0  0  0  0  0  0  0
   23.5271   -9.5900  -16.3142 C   0  0  0  0  0  0  0  0  0  0  0  0
   22.0814   -9.1910  -16.0604 C   0  0  2  0  0  0  0  0  0  0  0  0
   21.1337   -9.8570  -16.9251 N   0  0  0  0  0  0  0  0  0  0  0  0
   21.9783   -7.7286  -16.2201 C   0  0  0  0  0  0  0  0  0  0  0  0
   22.1725   -7.1245  -17.2944 O   0  0  0  0  0  0  0  0  0  0  0  0
   19.1880   -5.7758  -15.8235 O   0  0  0  0  0  0  0  0  0  0  0  0
   20.0377   -5.0632  -14.9875 C   0  0  0  0  0  0  0  0  0  0  0  0
   21.4864   -5.4969  -15.1972 C   0  0  2  0  0  0  0  0  0  0  0  0
   21.6329   -6.9182  -15.0822 N   0  0  0  0  0  0  0  0  0  0  0  0
   22.3530   -4.7599  -14.2675 C   0  0  0  0  0  0  0  0  0  0  0  0
   22.4881   -3.3931  -14.3235 O   0  0  0  0  0  0  0  0  0  0  0  0
   23.0058   -5.3706  -13.3802 O   0  0  0  0  0  0  0  0  0  0  0  0
  2  3  1  0
  2  1  1  0
  3  4  1  1
  3  5  1  0
  5  6  2  0
  7  8  1  0
  9  8  1  0
 11 10  1  6
 10  9  1  0
 11 13  1  0
 12  5  1  0
 12 11  1  0
 13 14  2  0
 15 16  1  0
 17 16  1  1
 17 19  1  0
 18 17  1  0
 18 13  1  0
 19 20  1  0
 21 19  2  0
M  END
$$$$
