SMS.pdb
     RDKit          3D

 21 20  0  0  1  0  0  0  0  0999 V2000
   20.9588  -21.9273  -14.6100 O   0  0  0  0  0  0  0  0  0  0  0  0
   20.6641  -22.3216  -13.3300 C   0  0  0  0  0  0  0  0  0  0  0  0
   20.7952  -21.2280  -12.2996 C   0  0  2  0  0  0  0  0  0  0  0  0
   19.8615  -20.1888  -12.6671 N   0  0  0  0  0  0  0  0  0  0  0  0
   22.1782  -20.7007  -12.2071 C   0  0  0  0  0  0  0  0  0  0  0  0
   22.4040  -19.5608  -12.6477 O   0  0  0  0  0  0  0  0  0  0  0  0
   27.4204  -19.2712   -7.5560 C   0  0  0  0  0  0  0  0  0  0  0  0
   26.0178  -20.2748   -8.1373 S   0  0  0  0  0  0  0  0  0  0  0  0
   26.4713  -20.9686   -9.7752 C   0  0  0  0  0  0  0  0  0  0  0  0
   25.3138  -21.7310  -10.3303 C   0  0  0  0  0  0  0  0  0  0  0  0
   24.5772  -21.0010  -11.4430 C   0  0  2  0  0  0  0  0  0  0  0  0
   23.2195  -21.4569  -11.6387 N   0  0  0  0  0  0  0  0  0  0  0  0
   25.3544  -21.1632  -12.6857 C   0  0  0  0  0  0  0  0  0  0  0  0
   25.4648  -22.2383  -13.3092 O   0  0  0  0  0  0  0  0  0  0  0  0
   26.2120  -17.8789  -15.1573 O   0  0  0  0  0  0  0  0  0  0  0  0
   27.2666  -18.7553  -14.9366 C   0  0  0  0  0  0  0  0  0  0  0  0
   26.7475  -20.1181  -14.4846 C   0  0  2  0  0  0  0  0  0  0  0  0
   26.0412  -20.0268  -13.2406 N   0  0  0  0  0  0  0  0  0  0  0  0
   27.8648  -21.0707  -14.4345 C   0  0  0  0  0  0  0  0  0  0  0  0
   28.4120  -21.6143  -15.5722 O   0  0  0  0  0  0  0  0  0  0  0  0
   28.3590  -21.4203  -13.3299 O   0  0  0  0  0  0  0  0  0  0  0  0
  2  3  1  0
  2  1  1  0
  3  4  1  6
  3  5  1  0
  5  6  2  0
  7  8  1  0
  9  8  1  0
 11 10  1  1
 10  9  1  0
 11 13  1  0
 12  5  1  0
 12 11  1  0
 13 14  2  0
 15 16  1  0
 17 16  1  1
 17 19  1  0
 18 17  1  0
 18 13  1  0
 19 20  1  0
 21 19  2  0
M  END
$$$$
