SMS.pdb
     RDKit          3D

 21 20  0  0  1  0  0  0  0  0999 V2000
   18.5424   -9.9221  -16.6068 O   0  0  0  0  0  0  0  0  0  0  0  0
   19.2573  -10.2228  -15.4757 C   0  0  0  0  0  0  0  0  0  0  0  0
   18.4359  -10.8350  -14.3687 C   0  0  2  0  0  0  0  0  0  0  0  0
   17.8124  -12.0193  -14.9122 N   0  0  0  0  0  0  0  0  0  0  0  0
   17.4247   -9.8945  -13.8281 C   0  0  0  0  0  0  0  0  0  0  0  0
   16.3386   -9.7922  -14.4234 O   0  0  0  0  0  0  0  0  0  0  0  0
   14.1931   -6.5028   -7.5635 C   0  0  0  0  0  0  0  0  0  0  0  0
   15.4789   -7.6203   -8.2038 S   0  0  0  0  0  0  0  0  0  0  0  0
   15.6178   -7.3308  -10.0112 C   0  0  0  0  0  0  0  0  0  0  0  0
   16.6154   -8.2781  -10.5915 C   0  0  0  0  0  0  0  0  0  0  0  0
   16.7663   -8.1594  -12.1003 C   0  0  2  0  0  0  0  0  0  0  0  0
   17.6712   -9.1303  -12.6729 N   0  0  0  0  0  0  0  0  0  0  0  0
   17.2254   -6.7915  -12.4054 C   0  0  0  0  0  0  0  0  0  0  0  0
   18.3956   -6.3911  -12.2416 O   0  0  0  0  0  0  0  0  0  0  0  0
   16.1790   -2.6778  -14.7788 O   0  0  0  0  0  0  0  0  0  0  0  0
   15.7588   -3.9437  -14.3917 C   0  0  0  0  0  0  0  0  0  0  0  0
   16.7109   -4.5320  -13.3533 C   0  0  2  0  0  0  0  0  0  0  0  0
   16.2870   -5.8334  -12.9272 N   0  0  0  0  0  0  0  0  0  0  0  0
   16.8545   -3.5880  -12.2368 C   0  0  0  0  0  0  0  0  0  0  0  0
   17.8432   -2.6334  -12.2107 O   0  0  0  0  0  0  0  0  0  0  0  0
   16.0629   -3.6288  -11.2579 O   0  0  0  0  0  0  0  0  0  0  0  0
  2  3  1  0
  2  1  1  0
  3  4  1  6
  3  5  1  0
  5  6  2  0
  7  8  1  0
  9  8  1  0
 11 10  1  1
 10  9  1  0
 11 13  1  0
 12  5  1  0
 12 11  1  0
 13 14  2  0
 15 16  1  0
 17 16  1  6
 17 19  1  0
 18 17  1  0
 18 13  1  0
 19 20  1  0
 21 19  2  0
M  END
$$$$
