SMS.pdb
     RDKit          3D

 21 20  0  0  1  0  0  0  0  0999 V2000
   16.5382  -11.8203  -18.7108 O   0  0  0  0  0  0  0  0  0  0  0  0
   17.2904  -11.3433  -17.6681 C   0  0  0  0  0  0  0  0  0  0  0  0
   18.3691  -12.2878  -17.1997 C   0  0  2  0  0  0  0  0  0  0  0  0
   17.7055  -13.4095  -16.5768 N   0  0  0  0  0  0  0  0  0  0  0  0
   19.3219  -11.6401  -16.2660 C   0  0  0  0  0  0  0  0  0  0  0  0
   19.0025  -11.5492  -15.0685 O   0  0  0  0  0  0  0  0  0  0  0  0
   26.7944   -9.8598  -14.5471 C   0  0  0  0  0  0  0  0  0  0  0  0
   25.6349  -10.7634  -15.6202 S   0  0  0  0  0  0  0  0  0  0  0  0
   23.9404  -10.1783  -15.2251 C   0  0  0  0  0  0  0  0  0  0  0  0
   22.9556  -10.8768  -16.1036 C   0  0  0  0  0  0  0  0  0  0  0  0
   21.5178  -10.4303  -15.8868 C   0  0  2  0  0  0  0  0  0  0  0  0
   20.5593  -11.1362  -16.7067 N   0  0  0  0  0  0  0  0  0  0  0  0
   21.4467   -8.9812  -16.1511 C   0  0  0  0  0  0  0  0  0  0  0  0
   21.6603   -8.4595  -17.2642 O   0  0  0  0  0  0  0  0  0  0  0  0
   19.3540   -6.4649  -13.5593 O   0  0  0  0  0  0  0  0  0  0  0  0
   19.6229   -6.1501  -14.8850 C   0  0  0  0  0  0  0  0  0  0  0  0
   20.9983   -6.6721  -15.2932 C   0  0  2  0  0  0  0  0  0  0  0  0
   21.1114   -8.0846  -15.0766 N   0  0  0  0  0  0  0  0  0  0  0  0
   22.0364   -5.9053  -14.5912 C   0  0  0  0  0  0  0  0  0  0  0  0
   22.9221   -6.4998  -13.7243 O   0  0  0  0  0  0  0  0  0  0  0  0
   22.1442   -4.6629  -14.7678 O   0  0  0  0  0  0  0  0  0  0  0  0
  2  3  1  0
  2  1  1  0
  3  4  1  1
  3  5  1  0
  5  6  2  0
  7  8  1  0
  9  8  1  0
 11 10  1  6
 10  9  1  0
 11 13  1  0
 12  5  1  0
 12 11  1  0
 13 14  2  0
 15 16  1  0
 17 16  1  1
 17 19  1  0
 18 17  1  0
 18 13  1  0
 19 20  1  0
 21 19  2  0
M  END
$$$$
