SMS.pdb
     RDKit          3D

 21 20  0  0  1  0  0  0  0  0999 V2000
   15.6319  -11.2846  -11.3626 O   0  0  0  0  0  0  0  0  0  0  0  0
   15.6397  -11.0402  -10.0132 C   0  0  0  0  0  0  0  0  0  0  0  0
   14.7999   -9.8599   -9.5929 C   0  0  2  0  0  0  0  0  0  0  0  0
   13.4670  -10.0891  -10.1004 N   0  0  0  0  0  0  0  0  0  0  0  0
   15.3483   -8.5722  -10.0833 C   0  0  0  0  0  0  0  0  0  0  0  0
   15.0279   -8.1918  -11.2222 O   0  0  0  0  0  0  0  0  0  0  0  0
   12.4958   -4.7255   -7.6020 C   0  0  0  0  0  0  0  0  0  0  0  0
   14.0839   -5.6106   -7.5182 S   0  0  0  0  0  0  0  0  0  0  0  0
   15.2648   -4.7400   -8.6214 C   0  0  0  0  0  0  0  0  0  0  0  0
   16.5848   -5.4368   -8.5861 C   0  0  0  0  0  0  0  0  0  0  0  0
   16.7454   -6.4983   -9.6637 C   0  0  2  0  0  0  0  0  0  0  0  0
   16.2098   -7.7888   -9.2937 N   0  0  0  0  0  0  0  0  0  0  0  0
   18.1815   -6.6128   -9.9789 C   0  0  0  0  0  0  0  0  0  0  0  0
   19.0556   -6.9535   -9.1564 O   0  0  0  0  0  0  0  0  0  0  0  0
   19.2045   -7.6393  -13.7196 O   0  0  0  0  0  0  0  0  0  0  0  0
   20.0712   -7.7891  -12.6447 C   0  0  0  0  0  0  0  0  0  0  0  0
   19.9866   -6.5820  -11.7138 C   0  0  2  0  0  0  0  0  0  0  0  0
   18.6356   -6.3196  -11.3126 N   0  0  0  0  0  0  0  0  0  0  0  0
   20.6216   -5.4254  -12.3598 C   0  0  0  0  0  0  0  0  0  0  0  0
   21.9665   -5.3948  -12.6426 O   0  0  0  0  0  0  0  0  0  0  0  0
   19.9399   -4.4149  -12.6770 O   0  0  0  0  0  0  0  0  0  0  0  0
  2  3  1  0
  2  1  1  0
  3  4  1  6
  3  5  1  0
  5  6  2  0
  7  8  1  0
  9  8  1  0
 11 10  1  1
 10  9  1  0
 11 13  1  0
 12  5  1  0
 12 11  1  0
 13 14  2  0
 15 16  1  0
 17 16  1  6
 17 19  1  0
 18 17  1  0
 18 13  1  0
 19 20  1  0
 21 19  2  0
M  END
$$$$
