SMS.pdb
     RDKit          3D

 21 20  0  0  1  0  0  0  0  0999 V2000
   19.5696   -9.0410  -15.0709 O   0  0  0  0  0  0  0  0  0  0  0  0
   19.4821  -10.1662  -14.2917 C   0  0  0  0  0  0  0  0  0  0  0  0
   18.1230  -10.8204  -14.2994 C   0  0  2  0  0  0  0  0  0  0  0  0
   17.8061  -11.1172  -15.6771 N   0  0  0  0  0  0  0  0  0  0  0  0
   17.0808   -9.9668  -13.6794 C   0  0  0  0  0  0  0  0  0  0  0  0
   16.3711   -9.2698  -14.4245 O   0  0  0  0  0  0  0  0  0  0  0  0
   11.5774   -9.2337   -8.2331 C   0  0  0  0  0  0  0  0  0  0  0  0
   12.9438  -10.2300   -8.9058 S   0  0  0  0  0  0  0  0  0  0  0  0
   13.9272   -9.1480  -10.0158 C   0  0  0  0  0  0  0  0  0  0  0  0
   15.0295   -9.9417  -10.6356 C   0  0  0  0  0  0  0  0  0  0  0  0
   15.8952   -9.1405  -11.5959 C   0  0  2  0  0  0  0  0  0  0  0  0
   16.8863   -9.9344  -12.2864 N   0  0  0  0  0  0  0  0  0  0  0  0
   16.5478   -8.0630  -10.8292 C   0  0  0  0  0  0  0  0  0  0  0  0
   17.5354   -8.2300  -10.0853 O   0  0  0  0  0  0  0  0  0  0  0  0
   16.7494   -3.2607   -9.9687 O   0  0  0  0  0  0  0  0  0  0  0  0
   16.1909   -4.2863  -10.7204 C   0  0  0  0  0  0  0  0  0  0  0  0
   16.6211   -5.6467  -10.1772 C   0  0  2  0  0  0  0  0  0  0  0  0
   16.0361   -6.7213  -10.9241 N   0  0  0  0  0  0  0  0  0  0  0  0
   16.3102   -5.7171   -8.7431 C   0  0  0  0  0  0  0  0  0  0  0  0
   17.0804   -5.0832   -7.7973 O   0  0  0  0  0  0  0  0  0  0  0  0
   15.3136   -6.3706   -8.3353 O   0  0  0  0  0  0  0  0  0  0  0  0
  2  3  1  0
  2  1  1  0
  3  4  1  6
  3  5  1  0
  5  6  2  0
  7  8  1  0
  9  8  1  0
 11 10  1  1
 10  9  1  0
 11 13  1  0
 12  5  1  0
 12 11  1  0
 13 14  2  0
 15 16  1  0
 17 16  1  6
 17 19  1  0
 18 17  1  0
 18 13  1  0
 19 20  1  0
 21 19  2  0
M  END
$$$$
