SMS.pdb
     RDKit          3D

 21 20  0  0  1  0  0  0  0  0999 V2000
   26.5500  -18.4104  -15.8311 O   0  0  0  0  0  0  0  0  0  0  0  0
   27.7951  -18.5265  -15.2683 C   0  0  0  0  0  0  0  0  0  0  0  0
   28.1996  -19.9435  -14.9467 C   0  0  2  0  0  0  0  0  0  0  0  0
   28.4412  -20.6088  -16.2060 N   0  0  0  0  0  0  0  0  0  0  0  0
   27.1733  -20.6576  -14.1492 C   0  0  0  0  0  0  0  0  0  0  0  0
   26.5674  -21.6033  -14.6813 O   0  0  0  0  0  0  0  0  0  0  0  0
   26.9073  -20.1399   -7.7024 C   0  0  0  0  0  0  0  0  0  0  0  0
   25.1676  -20.6276   -7.9217 S   0  0  0  0  0  0  0  0  0  0  0  0
   24.9635  -21.1952   -9.6555 C   0  0  0  0  0  0  0  0  0  0  0  0
   25.9591  -20.5025  -10.5262 C   0  0  0  0  0  0  0  0  0  0  0  0
   25.8514  -20.8767  -11.9965 C   0  0  2  0  0  0  0  0  0  0  0  0
   26.8802  -20.2880  -12.8237 N   0  0  0  0  0  0  0  0  0  0  0  0
   24.5170  -20.4683  -12.4733 C   0  0  0  0  0  0  0  0  0  0  0  0
   24.1952  -19.2916  -12.7354 O   0  0  0  0  0  0  0  0  0  0  0  0
   20.5126  -22.3491  -14.4090 O   0  0  0  0  0  0  0  0  0  0  0  0
   21.8816  -22.1170  -14.3785 C   0  0  0  0  0  0  0  0  0  0  0  0
   22.2371  -21.1438  -13.2573 C   0  0  2  0  0  0  0  0  0  0  0  0
   23.4985  -21.4679  -12.6584 N   0  0  0  0  0  0  0  0  0  0  0  0
   21.1390  -21.1051  -12.2820 C   0  0  0  0  0  0  0  0  0  0  0  0
   19.9040  -20.5884  -12.5936 O   0  0  0  0  0  0  0  0  0  0  0  0
   21.3026  -21.5515  -11.1156 O   0  0  0  0  0  0  0  0  0  0  0  0
  2  3  1  0
  2  1  1  0
  3  4  1  6
  3  5  1  0
  5  6  2  0
  7  8  1  0
  9  8  1  0
 11 10  1  1
 10  9  1  0
 11 13  1  0
 12  5  1  0
 12 11  1  0
 13 14  2  0
 15 16  1  0
 17 16  1  6
 17 19  1  0
 18 17  1  0
 18 13  1  0
 19 20  1  0
 21 19  2  0
M  END
$$$$
