RWC.pdb
     RDKit          3D

 32 33  0  0  1  0  0  0  0  0999 V2000
   23.9635  -18.9585  -17.2420 N   0  0  0  0  0  0  0  0  0  0  0  0
   23.3992  -20.2435  -17.5310 C   0  0  0  0  0  0  0  0  0  0  0  0
   22.1335  -20.3906  -17.3581 N   0  0  0  0  0  0  0  0  0  0  0  0
   24.2017  -21.3213  -17.9924 N   0  0  0  0  0  0  0  0  0  0  0  0
   25.6272  -21.1418  -18.1916 C   0  0  0  0  0  0  0  0  0  0  0  0
   26.3932  -21.8190  -17.0922 C   0  0  0  0  0  0  0  0  0  0  0  0
   25.5315  -22.2138  -15.9453 C   0  0  0  0  0  0  0  0  0  0  0  0
   26.2990  -22.8301  -14.8364 C   0  0  2  0  0  0  0  0  0  0  0  0
   26.4688  -24.2349  -14.9071 N   0  0  0  0  0  0  0  0  0  0  0  0
   25.6384  -22.3955  -13.5553 C   0  0  0  0  0  0  0  0  0  0  0  0
   24.7794  -23.2358  -13.1116 O   0  0  0  0  0  0  0  0  0  0  0  0
   21.6191  -21.2333  -17.6259 N   0  0  0  0  0  0  0  0  0  0  0  0
   25.9161  -21.1947  -12.8904 C   0  0  2  0  0  0  0  0  0  0  0  0
   25.1771  -20.7862  -11.6922 C   0  0  0  0  0  0  0  0  0  0  0  0
   25.9368  -19.7614  -10.9288 C   0  0  0  0  0  0  0  0  0  0  0  0
   27.1394  -20.3075  -10.2928 C   0  0  0  0  0  0  0  0  0  0  0  0
   28.1135  -21.1172  -10.8970 N   0  0  0  0  0  0  0  0  0  0  0  0
   29.0522  -21.4787  -10.0422 C   0  0  0  0  0  0  0  0  0  0  0  0
   28.7348  -20.9292   -8.8689 C   0  0  0  0  0  0  0  0  0  0  0  0
   29.4117  -20.9939   -7.6666 C   0  0  0  0  0  0  0  0  0  0  0  0
   28.8932  -20.3145   -6.5879 C   0  0  0  0  0  0  0  0  0  0  0  0
   27.7390  -19.5815   -6.6613 C   0  0  0  0  0  0  0  0  0  0  0  0
   27.0722  -19.5242   -7.8624 C   0  0  0  0  0  0  0  0  0  0  0  0
   27.5737  -20.2024   -8.9684 C   0  0  0  0  0  0  0  0  0  0  0  0
   23.8286  -20.3650  -12.0021 O   0  0  0  0  0  0  0  0  0  0  0  0
   23.5739  -19.4833  -12.8734 N   0  0  0  0  0  0  0  0  0  0  0  0
   22.6502  -20.8908  -11.3679 C   0  0  1  0  0  0  0  0  0  0  0  0
   21.3536  -20.8602  -11.9634 C   0  0  0  0  0  0  0  0  0  0  0  0
   21.2832  -21.5469  -13.3028 S   0  0  0  0  0  0  0  0  0  0  0  0
   19.9784  -20.9332  -14.3663 C   0  0  0  0  0  0  0  0  0  0  0  0
   20.3223  -21.3906  -11.0704 O   0  0  0  0  0  0  0  0  0  0  0  0
   20.6405  -21.9700   -9.8381 O   0  0  0  0  0  0  0  0  0  0  0  0
  2  1  1  0
  2  3  2  0
  4  2  1  0
  5  4  1  0
  6  5  1  0
  7  6  1  0
  8  7  1  0
  8  9  1  6
 10  8  1  0
 10 11  2  0
 12 10  1  0
 13 12  1  0
 13 14  1  6
 14 15  1  0
 15 16  2  0
 16 17  1  0
 18 17  1  0
 19 18  2  0
 20 19  1  0
 21 22  1  0
 21 20  2  0
 22 23  2  0
 23 15  1  0
 23 18  1  0
 24 13  1  0
 25 24  2  0
 26 24  1  0
 27 28  1  1
 27 26  1  0
 28 29  1  0
 30 27  1  0
 31 30  1  0
 32 30  2  0
M  END
$$$$
