RWC.pdb
     RDKit          3D

 32 33  0  0  1  0  0  0  0  0999 V2000
   27.7666  -23.0219  -18.0439 N   0  0  0  0  0  0  0  0  0  0  0  0
   28.9711  -22.3462  -18.4256 C   0  0  0  0  0  0  0  0  0  0  0  0
   29.1568  -22.1218  -19.6781 N   0  0  0  0  0  0  0  0  0  0  0  0
   29.9307  -21.9357  -17.4617 N   0  0  0  0  0  0  0  0  0  0  0  0
   29.5433  -21.7406  -16.0776 C   0  0  0  0  0  0  0  0  0  0  0  0
   28.4816  -20.6834  -15.9810 C   0  0  0  0  0  0  0  0  0  0  0  0
   27.6310  -20.8272  -14.7688 C   0  0  0  0  0  0  0  0  0  0  0  0
   28.4247  -20.9743  -13.5250 C   0  0  2  0  0  0  0  0  0  0  0  0
   29.4177  -21.9847  -13.5403 N   0  0  0  0  0  0  0  0  0  0  0  0
   27.4412  -21.1530  -12.3993 C   0  0  0  0  0  0  0  0  0  0  0  0
   26.8445  -22.2863  -12.4160 O   0  0  0  0  0  0  0  0  0  0  0  0
   29.9657  -21.6179  -20.0498 N   0  0  0  0  0  0  0  0  0  0  0  0
   27.1831  -20.1911  -11.4149 C   0  0  1  0  0  0  0  0  0  0  0  0
   26.1378  -20.3805  -10.4048 C   0  0  0  0  0  0  0  0  0  0  0  0
   26.3396  -19.4558   -9.2583 C   0  0  0  0  0  0  0  0  0  0  0  0
   26.3590  -20.1515   -7.9682 C   0  0  0  0  0  0  0  0  0  0  0  0
   25.4391  -21.1117   -7.5193 N   0  0  0  0  0  0  0  0  0  0  0  0
   25.7103  -21.5175   -6.2929 C   0  0  0  0  0  0  0  0  0  0  0  0
   26.7976  -20.8519   -5.9003 C   0  0  0  0  0  0  0  0  0  0  0  0
   27.4859  -20.9378   -4.7058 C   0  0  0  0  0  0  0  0  0  0  0  0
   28.6083  -20.1584   -4.5415 C   0  0  0  0  0  0  0  0  0  0  0  0
   29.0653  -19.3067   -5.5113 C   0  0  0  0  0  0  0  0  0  0  0  0
   28.3725  -19.2279   -6.6964 C   0  0  0  0  0  0  0  0  0  0  0  0
   27.2342  -20.0039   -6.8884 C   0  0  0  0  0  0  0  0  0  0  0  0
   24.8104  -20.2854  -10.9713 O   0  0  0  0  0  0  0  0  0  0  0  0
   24.4408  -19.3035  -11.6788 N   0  0  0  0  0  0  0  0  0  0  0  0
   23.7832  -21.2765  -10.7978 C   0  0  1  0  0  0  0  0  0  0  0  0
   22.4737  -21.1608  -11.3534 C   0  0  0  0  0  0  0  0  0  0  0  0
   22.1019  -22.2934  -12.2750 S   0  0  0  0  0  0  0  0  0  0  0  0
   23.1616  -22.4383  -13.7125 C   0  0  0  0  0  0  0  0  0  0  0  0
   21.4485  -20.9928  -10.3224 O   0  0  0  0  0  0  0  0  0  0  0  0
   20.0991  -20.8188  -10.6455 O   0  0  0  0  0  0  0  0  0  0  0  0
  2  1  1  0
  2  3  2  0
  4  2  1  0
  5  4  1  0
  6  5  1  0
  7  6  1  0
  8  7  1  0
  8  9  1  6
 10  8  1  0
 10 11  2  0
 12 10  1  0
 13 12  1  0
 13 14  1  1
 14 15  1  0
 15 16  2  0
 16 17  1  0
 18 17  1  0
 19 18  2  0
 20 19  1  0
 21 22  1  0
 21 20  2  0
 22 23  2  0
 23 15  1  0
 23 18  1  0
 24 13  1  0
 25 24  2  0
 26 24  1  0
 27 28  1  1
 27 26  1  0
 28 29  1  0
 30 27  1  0
 31 30  1  0
 32 30  2  0
M  END
$$$$
