RWC.pdb
     RDKit          3D

 32 33  0  0  1  0  0  0  0  0999 V2000
   31.5866  -23.4774  -17.9716 N   0  0  0  0  0  0  0  0  0  0  0  0
   32.3854  -24.5151  -17.3902 C   0  0  0  0  0  0  0  0  0  0  0  0
   33.6393  -24.5314  -17.6744 N   0  0  0  0  0  0  0  0  0  0  0  0
   31.8205  -25.4946  -16.5298 N   0  0  0  0  0  0  0  0  0  0  0  0
   30.3874  -25.7179  -16.5133 C   0  0  0  0  0  0  0  0  0  0  0  0
   29.8931  -26.0123  -17.9001 C   0  0  0  0  0  0  0  0  0  0  0  0
   28.4204  -26.2162  -17.9579 C   0  0  0  0  0  0  0  0  0  0  0  0
   27.9007  -26.9790  -16.7974 C   0  0  2  0  0  0  0  0  0  0  0  0
   27.9592  -28.3903  -16.9080 N   0  0  0  0  0  0  0  0  0  0  0  0
   26.5037  -26.4809  -16.5390 C   0  0  0  0  0  0  0  0  0  0  0  0
   25.5917  -27.2473  -17.0098 O   0  0  0  0  0  0  0  0  0  0  0  0
   34.2908  -25.2380  -17.3241 N   0  0  0  0  0  0  0  0  0  0  0  0
   26.2004  -25.2982  -15.8533 C   0  0  2  0  0  0  0  0  0  0  0  0
   24.8200  -24.8337  -15.6873 C   0  0  0  0  0  0  0  0  0  0  0  0
   24.6889  -23.9985  -14.4644 C   0  0  0  0  0  0  0  0  0  0  0  0
   23.3108  -23.5595  -14.2254 C   0  0  0  0  0  0  0  0  0  0  0  0
   22.8567  -22.2347  -14.1344 N   0  0  0  0  0  0  0  0  0  0  0  0
   21.5648  -22.1744  -13.8701 C   0  0  0  0  0  0  0  0  0  0  0  0
   21.1324  -23.4332  -13.7807 C   0  0  0  0  0  0  0  0  0  0  0  0
   19.8546  -23.8988  -13.5396 C   0  0  0  0  0  0  0  0  0  0  0  0
   19.6485  -25.2594  -13.5186 C   0  0  0  0  0  0  0  0  0  0  0  0
   20.6562  -26.1629  -13.7264 C   0  0  0  0  0  0  0  0  0  0  0  0
   21.9248  -25.6892  -13.9647 C   0  0  0  0  0  0  0  0  0  0  0  0
   22.1610  -24.3187  -13.9904 C   0  0  0  0  0  0  0  0  0  0  0  0
   24.3233  -24.1696  -16.8723 O   0  0  0  0  0  0  0  0  0  0  0  0
   25.0148  -23.3347  -17.5253 N   0  0  0  0  0  0  0  0  0  0  0  0
   23.0149  -24.3799  -17.4301 C   0  0  1  0  0  0  0  0  0  0  0  0
   22.5506  -23.7370  -18.6166 C   0  0  0  0  0  0  0  0  0  0  0  0
   22.0271  -24.6900  -19.6597 S   0  0  0  0  0  0  0  0  0  0  0  0
   20.8800  -25.9088  -19.0201 C   0  0  0  0  0  0  0  0  0  0  0  0
   21.5532  -22.7043  -18.3317 O   0  0  0  0  0  0  0  0  0  0  0  0
   21.0346  -22.5141  -17.0470 O   0  0  0  0  0  0  0  0  0  0  0  0
  2  1  1  0
  2  3  2  0
  4  2  1  0
  5  4  1  0
  6  5  1  0
  7  6  1  0
  8  7  1  0
  8  9  1  6
 10  8  1  0
 10 11  2  0
 12 10  1  0
 13 12  1  0
 13 14  1  1
 14 15  1  0
 15 16  2  0
 16 17  1  0
 18 17  1  0
 19 18  2  0
 20 19  1  0
 21 22  1  0
 21 20  2  0
 22 23  2  0
 23 15  1  0
 23 18  1  0
 24 13  1  0
 25 24  2  0
 26 24  1  0
 27 28  1  6
 27 26  1  0
 28 29  1  0
 30 27  1  0
 31 30  1  0
 32 30  2  0
M  END
$$$$
