RWC.pdb
     RDKit          3D

 32 33  0  0  1  0  0  0  0  0999 V2000
   20.5252  -28.4665  -13.3705 N   0  0  0  0  0  0  0  0  0  0  0  0
   19.6217  -27.8146  -12.4695 C   0  0  0  0  0  0  0  0  0  0  0  0
   18.9814  -28.5508  -11.6319 N   0  0  0  0  0  0  0  0  0  0  0  0
   19.4342  -26.4065  -12.4939 N   0  0  0  0  0  0  0  0  0  0  0  0
   20.1999  -25.5800  -13.4075 C   0  0  0  0  0  0  0  0  0  0  0  0
   19.8480  -24.1331  -13.2158 C   0  0  0  0  0  0  0  0  0  0  0  0
   18.3916  -23.8676  -13.3644 C   0  0  0  0  0  0  0  0  0  0  0  0
   18.0478  -22.4367  -13.1832 C   0  0  2  0  0  0  0  0  0  0  0  0
   19.0804  -21.5106  -13.4719 N   0  0  0  0  0  0  0  0  0  0  0  0
   17.5204  -22.2896  -11.7807 C   0  0  0  0  0  0  0  0  0  0  0  0
   18.4332  -22.0587  -10.9122 O   0  0  0  0  0  0  0  0  0  0  0  0
   18.2872  -28.1882  -10.9738 N   0  0  0  0  0  0  0  0  0  0  0  0
   16.1685  -22.3904  -11.4299 C   0  0  2  0  0  0  0  0  0  0  0  0
   15.7177  -22.2487  -10.0423 C   0  0  0  0  0  0  0  0  0  0  0  0
   14.2809  -21.8704   -9.9913 C   0  0  0  0  0  0  0  0  0  0  0  0
   14.0528  -20.4684  -10.3536 C   0  0  0  0  0  0  0  0  0  0  0  0
   14.7060  -19.7465  -11.3644 N   0  0  0  0  0  0  0  0  0  0  0  0
   14.3032  -18.4903  -11.4107 C   0  0  0  0  0  0  0  0  0  0  0  0
   13.3880  -18.3453  -10.4511 C   0  0  0  0  0  0  0  0  0  0  0  0
   12.6560  -17.2249  -10.1096 C   0  0  0  0  0  0  0  0  0  0  0  0
   11.7416  -17.3293   -9.0863 C   0  0  0  0  0  0  0  0  0  0  0  0
   11.5317  -18.4945   -8.3986 C   0  0  0  0  0  0  0  0  0  0  0  0
   12.2661  -19.6039   -8.7457 C   0  0  0  0  0  0  0  0  0  0  0  0
   13.1978  -19.5258   -9.7755 C   0  0  0  0  0  0  0  0  0  0  0  0
   16.0139  -23.4231   -9.2516 O   0  0  0  0  0  0  0  0  0  0  0  0
   16.4148  -24.5073   -9.7666 N   0  0  0  0  0  0  0  0  0  0  0  0
   15.8889  -23.4884   -7.8207 C   0  0  1  0  0  0  0  0  0  0  0  0
   16.2912  -24.6164   -7.0445 C   0  0  0  0  0  0  0  0  0  0  0  0
   17.7447  -24.9790   -7.2066 S   0  0  0  0  0  0  0  0  0  0  0  0
   18.2311  -26.4506   -6.3077 C   0  0  0  0  0  0  0  0  0  0  0  0
   15.9672  -24.4555   -5.6262 O   0  0  0  0  0  0  0  0  0  0  0  0
   15.5780  -25.5381   -4.8312 O   0  0  0  0  0  0  0  0  0  0  0  0
  2  1  1  0
  2  3  2  0
  4  2  1  0
  5  4  1  0
  6  5  1  0
  7  6  1  0
  8  7  1  0
  8  9  1  1
 10  8  1  0
 10 11  2  0
 12 10  1  0
 13 12  1  0
 13 14  1  6
 14 15  1  0
 15 16  2  0
 16 17  1  0
 18 17  1  0
 19 18  2  0
 20 19  1  0
 21 22  1  0
 21 20  2  0
 22 23  2  0
 23 15  1  0
 23 18  1  0
 24 13  1  0
 25 24  2  0
 26 24  1  0
 27 28  1  1
 27 26  1  0
 28 29  1  0
 30 27  1  0
 31 30  1  0
 32 30  2  0
M  END
$$$$
