RWC.pdb
     RDKit          3D

 32 33  0  0  1  0  0  0  0  0999 V2000
   28.6287  -37.0609  -15.6728 N   0  0  0  0  0  0  0  0  0  0  0  0
   30.0166  -37.0678  -16.0289 C   0  0  0  0  0  0  0  0  0  0  0  0
   30.7753  -37.9303  -15.4511 N   0  0  0  0  0  0  0  0  0  0  0  0
   30.5435  -36.1582  -16.9847 N   0  0  0  0  0  0  0  0  0  0  0  0
   29.7817  -34.9901  -17.3837 C   0  0  0  0  0  0  0  0  0  0  0  0
   29.4777  -34.1363  -16.1867 C   0  0  0  0  0  0  0  0  0  0  0  0
   28.6969  -32.9170  -16.5293 C   0  0  0  0  0  0  0  0  0  0  0  0
   29.5088  -31.8944  -17.2320 C   0  0  2  0  0  0  0  0  0  0  0  0
   30.5922  -31.3523  -16.4974 N   0  0  0  0  0  0  0  0  0  0  0  0
   28.5536  -30.8345  -17.7124 C   0  0  0  0  0  0  0  0  0  0  0  0
   28.0305  -30.1494  -16.7650 O   0  0  0  0  0  0  0  0  0  0  0  0
   31.7784  -38.0148  -15.6332 N   0  0  0  0  0  0  0  0  0  0  0  0
   28.2472  -30.5978  -19.0582 C   0  0  2  0  0  0  0  0  0  0  0  0
   27.3122  -29.5443  -19.4639 C   0  0  0  0  0  0  0  0  0  0  0  0
   27.3835  -29.3132  -20.9308 C   0  0  0  0  0  0  0  0  0  0  0  0
   26.5366  -28.1998  -21.3690 C   0  0  0  0  0  0  0  0  0  0  0  0
   26.2720  -27.0179  -20.6600 N   0  0  0  0  0  0  0  0  0  0  0  0
   25.4350  -26.2310  -21.3100 C   0  0  0  0  0  0  0  0  0  0  0  0
   25.1266  -26.8555  -22.4477 C   0  0  0  0  0  0  0  0  0  0  0  0
   24.3053  -26.4350  -23.4756 C   0  0  0  0  0  0  0  0  0  0  0  0
   24.1610  -27.2535  -24.5726 C   0  0  0  0  0  0  0  0  0  0  0  0
   24.7970  -28.4612  -24.6825 C   0  0  0  0  0  0  0  0  0  0  0  0
   25.6116  -28.8709  -23.6535 C   0  0  0  0  0  0  0  0  0  0  0  0
   25.7744  -28.0635  -22.5327 C   0  0  0  0  0  0  0  0  0  0  0  0
   25.9657  -29.8058  -19.0052 O   0  0  0  0  0  0  0  0  0  0  0  0
   25.4117  -30.9368  -19.1293 N   0  0  0  0  0  0  0  0  0  0  0  0
   25.1231  -28.8297  -18.3690 C   0  0  1  0  0  0  0  0  0  0  0  0
   23.7942  -29.1033  -17.9266 C   0  0  0  0  0  0  0  0  0  0  0  0
   23.4600  -28.4921  -16.5905 S   0  0  0  0  0  0  0  0  0  0  0  0
   21.9115  -27.5909  -16.5706 C   0  0  0  0  0  0  0  0  0  0  0  0
   22.7906  -28.7207  -18.9209 O   0  0  0  0  0  0  0  0  0  0  0  0
   21.4450  -29.0765  -18.7854 O   0  0  0  0  0  0  0  0  0  0  0  0
  2  1  1  0
  2  3  2  0
  4  2  1  0
  5  4  1  0
  6  5  1  0
  7  6  1  0
  8  7  1  0
  8  9  1  1
 10  8  1  0
 10 11  2  0
 12 10  1  0
 13 12  1  0
 13 14  1  6
 14 15  1  0
 15 16  2  0
 16 17  1  0
 18 17  1  0
 19 18  2  0
 20 19  1  0
 21 22  1  0
 21 20  2  0
 22 23  2  0
 23 15  1  0
 23 18  1  0
 24 13  1  0
 25 24  2  0
 26 24  1  0
 27 28  1  6
 27 26  1  0
 28 29  1  0
 30 27  1  0
 31 30  1  0
 32 30  2  0
M  END
$$$$
