RWC.pdb
     RDKit          3D

 32 33  0  0  1  0  0  0  0  0999 V2000
   13.6611  -23.4803    1.3287 N   0  0  0  0  0  0  0  0  0  0  0  0
   15.0496  -23.6874    1.6156 C   0  0  0  0  0  0  0  0  0  0  0  0
   15.5246  -24.8691    1.4383 N   0  0  0  0  0  0  0  0  0  0  0  0
   15.8786  -22.6309    2.0796 N   0  0  0  0  0  0  0  0  0  0  0  0
   15.3611  -21.2791    2.1731 C   0  0  0  0  0  0  0  0  0  0  0  0
   16.3677  -20.3838    2.8358 C   0  0  0  0  0  0  0  0  0  0  0  0
   15.8384  -19.7255    4.0606 C   0  0  0  0  0  0  0  0  0  0  0  0
   15.8315  -18.2462    3.9595 C   0  0  2  0  0  0  0  0  0  0  0  0
   15.8597  -17.7153    2.6462 N   0  0  0  0  0  0  0  0  0  0  0  0
   16.9725  -17.7465    4.8052 C   0  0  0  0  0  0  0  0  0  0  0  0
   18.1258  -18.0728    4.3532 O   0  0  0  0  0  0  0  0  0  0  0  0
   16.5082  -25.1117    1.5797 N   0  0  0  0  0  0  0  0  0  0  0  0
   16.8182  -16.9957    5.9771 C   0  0  1  0  0  0  0  0  0  0  0  0
   17.9711  -16.5160    6.7448 C   0  0  0  0  0  0  0  0  0  0  0  0
   17.6686  -15.2108    7.3891 C   0  0  0  0  0  0  0  0  0  0  0  0
   17.9168  -14.0714    6.5009 C   0  0  0  0  0  0  0  0  0  0  0  0
   17.0529  -13.5747    5.5127 N   0  0  0  0  0  0  0  0  0  0  0  0
   17.5879  -12.5633    4.8545 C   0  0  0  0  0  0  0  0  0  0  0  0
   18.7986  -12.3628    5.3773 C   0  0  0  0  0  0  0  0  0  0  0  0
   19.7417  -11.4093    5.0468 C   0  0  0  0  0  0  0  0  0  0  0  0
   20.9219  -11.3855    5.7545 C   0  0  0  0  0  0  0  0  0  0  0  0
   21.1944  -12.2657    6.7673 C   0  0  0  0  0  0  0  0  0  0  0  0
   20.2494  -13.2115    7.0879 C   0  0  0  0  0  0  0  0  0  0  0  0
   19.0483  -13.2586    6.3880 C   0  0  0  0  0  0  0  0  0  0  0  0
   18.4479  -17.5055    7.6857 O   0  0  0  0  0  0  0  0  0  0  0  0
   17.6968  -18.4007    8.1715 N   0  0  0  0  0  0  0  0  0  0  0  0
   19.8016  -17.5817    8.1643 C   0  0  1  0  0  0  0  0  0  0  0  0
   20.2832  -18.6295    9.0050 C   0  0  0  0  0  0  0  0  0  0  0  0
   21.2129  -19.5893    8.3087 S   0  0  0  0  0  0  0  0  0  0  0  0
   22.6749  -18.8149    7.6208 C   0  0  0  0  0  0  0  0  0  0  0  0
   20.9097  -18.1164   10.2244 O   0  0  0  0  0  0  0  0  0  0  0  0
   21.3058  -18.9646   11.2632 O   0  0  0  0  0  0  0  0  0  0  0  0
  2  1  1  0
  2  3  2  0
  4  2  1  0
  5  4  1  0
  6  5  1  0
  7  6  1  0
  8  7  1  0
  8  9  1  6
 10  8  1  0
 10 11  2  0
 12 10  1  0
 13 12  1  0
 13 14  1  1
 14 15  1  0
 15 16  2  0
 16 17  1  0
 18 17  1  0
 19 18  2  0
 20 19  1  0
 21 22  1  0
 21 20  2  0
 22 23  2  0
 23 15  1  0
 23 18  1  0
 24 13  1  0
 25 24  2  0
 26 24  1  0
 27 28  1  1
 27 26  1  0
 28 29  1  0
 30 27  1  0
 31 30  1  0
 32 30  2  0
M  END
$$$$
