RWC.pdb
     RDKit          3D

 32 33  0  0  1  0  0  0  0  0999 V2000
   27.1012  -22.9956  -20.8868 N   0  0  0  0  0  0  0  0  0  0  0  0
   26.4308  -24.2014  -20.5000 C   0  0  0  0  0  0  0  0  0  0  0  0
   25.9050  -24.9154  -21.4312 N   0  0  0  0  0  0  0  0  0  0  0  0
   26.3456  -24.6011  -19.1393 N   0  0  0  0  0  0  0  0  0  0  0  0
   27.0630  -23.8687  -18.1131 C   0  0  0  0  0  0  0  0  0  0  0  0
   26.4053  -22.5413  -17.8687 C   0  0  0  0  0  0  0  0  0  0  0  0
   25.7635  -22.4519  -16.5294 C   0  0  0  0  0  0  0  0  0  0  0  0
   26.6225  -22.9849  -15.4447 C   0  0  2  0  0  0  0  0  0  0  0  0
   26.9241  -24.3674  -15.5167 N   0  0  0  0  0  0  0  0  0  0  0  0
   25.9655  -22.6077  -14.1436 C   0  0  0  0  0  0  0  0  0  0  0  0
   25.0814  -23.4487  -13.7539 O   0  0  0  0  0  0  0  0  0  0  0  0
   25.4203  -25.8002  -21.2618 N   0  0  0  0  0  0  0  0  0  0  0  0
   26.2711  -21.4556  -13.4086 C   0  0  1  0  0  0  0  0  0  0  0  0
   25.4330  -21.0058  -12.2933 C   0  0  0  0  0  0  0  0  0  0  0  0
   26.1310  -19.9619  -11.4976 C   0  0  0  0  0  0  0  0  0  0  0  0
   27.2880  -20.4880  -10.7671 C   0  0  0  0  0  0  0  0  0  0  0  0
   28.3481  -21.2360  -11.3021 N   0  0  0  0  0  0  0  0  0  0  0  0
   29.2139  -21.5965  -10.3732 C   0  0  0  0  0  0  0  0  0  0  0  0
   28.7626  -21.1068   -9.2174 C   0  0  0  0  0  0  0  0  0  0  0  0
   29.3226  -21.1946   -7.9578 C   0  0  0  0  0  0  0  0  0  0  0  0
   28.6751  -20.5788   -6.9110 C   0  0  0  0  0  0  0  0  0  0  0  0
   27.5043  -19.8869   -7.0704 C   0  0  0  0  0  0  0  0  0  0  0  0
   26.9547  -19.8062   -8.3281 C   0  0  0  0  0  0  0  0  0  0  0  0
   27.5879  -20.4202   -9.4036 C   0  0  0  0  0  0  0  0  0  0  0  0
   24.1204  -20.5871  -12.7336 O   0  0  0  0  0  0  0  0  0  0  0  0
   23.8782  -20.2522  -13.9296 N   0  0  0  0  0  0  0  0  0  0  0  0
   22.9671  -20.5067  -11.8788 C   0  0  1  0  0  0  0  0  0  0  0  0
   21.6242  -20.5519  -12.3597 C   0  0  0  0  0  0  0  0  0  0  0  0
   21.3078  -21.7854  -13.1650 S   0  0  0  0  0  0  0  0  0  0  0  0
   19.5905  -21.9087  -13.6610 C   0  0  0  0  0  0  0  0  0  0  0  0
   20.6456  -20.3879  -11.2835 O   0  0  0  0  0  0  0  0  0  0  0  0
   19.2827  -20.2171  -11.5457 O   0  0  0  0  0  0  0  0  0  0  0  0
  2  1  1  0
  2  3  2  0
  4  2  1  0
  5  4  1  0
  6  5  1  0
  7  6  1  0
  8  7  1  0
  8  9  1  6
 10  8  1  0
 10 11  2  0
 12 10  1  0
 13 12  1  0
 13 14  1  1
 14 15  1  0
 15 16  2  0
 16 17  1  0
 18 17  1  0
 19 18  2  0
 20 19  1  0
 21 22  1  0
 21 20  2  0
 22 23  2  0
 23 15  1  0
 23 18  1  0
 24 13  1  0
 25 24  2  0
 26 24  1  0
 27 28  1  6
 27 26  1  0
 28 29  1  0
 30 27  1  0
 31 30  1  0
 32 30  2  0
M  END
$$$$
