RWC.pdb
     RDKit          3D

 32 33  0  0  1  0  0  0  0  0999 V2000
   30.4865  -24.6076  -17.5224 N   0  0  0  0  0  0  0  0  0  0  0  0
   29.2514  -24.6042  -18.2488 C   0  0  0  0  0  0  0  0  0  0  0  0
   29.3113  -24.7408  -19.5260 N   0  0  0  0  0  0  0  0  0  0  0  0
   28.0015  -24.4560  -17.5897 N   0  0  0  0  0  0  0  0  0  0  0  0
   27.8203  -24.9545  -16.2396 C   0  0  0  0  0  0  0  0  0  0  0  0
   26.6662  -25.9137  -16.1923 C   0  0  0  0  0  0  0  0  0  0  0  0
   25.3522  -25.2483  -16.4031 C   0  0  0  0  0  0  0  0  0  0  0  0
   24.2083  -26.1826  -16.2718 C   0  0  2  0  0  0  0  0  0  0  0  0
   24.0700  -27.1410  -17.3060 N   0  0  0  0  0  0  0  0  0  0  0  0
   22.9734  -25.3381  -16.1029 C   0  0  0  0  0  0  0  0  0  0  0  0
   22.5077  -24.8858  -17.2071 O   0  0  0  0  0  0  0  0  0  0  0  0
   28.4887  -24.7527  -20.1340 N   0  0  0  0  0  0  0  0  0  0  0  0
   22.3702  -25.0574  -14.8708 C   0  0  2  0  0  0  0  0  0  0  0  0
   21.1801  -24.2076  -14.7689 C   0  0  0  0  0  0  0  0  0  0  0  0
   20.5557  -24.3346  -13.4258 C   0  0  0  0  0  0  0  0  0  0  0  0
   19.3477  -23.5162  -13.2849 C   0  0  0  0  0  0  0  0  0  0  0  0
   19.0031  -22.3911  -14.0497 N   0  0  0  0  0  0  0  0  0  0  0  0
   17.8688  -21.8501  -13.6458 C   0  0  0  0  0  0  0  0  0  0  0  0
   17.4357  -22.5868  -12.6216 C   0  0  0  0  0  0  0  0  0  0  0  0
   16.2851  -22.4420  -11.8712 C   0  0  0  0  0  0  0  0  0  0  0  0
   16.0399  -23.3534  -10.8695 C   0  0  0  0  0  0  0  0  0  0  0  0
   16.8881  -24.3915  -10.5907 C   0  0  0  0  0  0  0  0  0  0  0  0
   18.0311  -24.5263  -11.3429 C   0  0  0  0  0  0  0  0  0  0  0  0
   18.3039  -23.6186  -12.3609 C   0  0  0  0  0  0  0  0  0  0  0  0
   21.4602  -22.8343  -15.1264 O   0  0  0  0  0  0  0  0  0  0  0  0
   22.4940  -22.2239  -14.7264 N   0  0  0  0  0  0  0  0  0  0  0  0
   20.6125  -22.0256  -15.9599 C   0  0  1  0  0  0  0  0  0  0  0  0
   20.9440  -20.7000  -16.3715 C   0  0  0  0  0  0  0  0  0  0  0  0
   22.1642  -20.6239  -17.2524 S   0  0  0  0  0  0  0  0  0  0  0  0
   21.9872  -19.5096  -18.6443 C   0  0  0  0  0  0  0  0  0  0  0  0
   19.8165  -20.0218  -17.0128 O   0  0  0  0  0  0  0  0  0  0  0  0
   18.6084  -20.6787  -17.2669 O   0  0  0  0  0  0  0  0  0  0  0  0
  2  1  1  0
  2  3  2  0
  4  2  1  0
  5  4  1  0
  6  5  1  0
  7  6  1  0
  8  7  1  0
  8  9  1  6
 10  8  1  0
 10 11  2  0
 12 10  1  0
 13 12  1  0
 13 14  1  1
 14 15  1  0
 15 16  2  0
 16 17  1  0
 18 17  1  0
 19 18  2  0
 20 19  1  0
 21 22  1  0
 21 20  2  0
 22 23  2  0
 23 15  1  0
 23 18  1  0
 24 13  1  0
 25 24  2  0
 26 24  1  0
 27 28  1  1
 27 26  1  0
 28 29  1  0
 30 27  1  0
 31 30  1  0
 32 30  2  0
M  END
$$$$
