RWC.pdb
     RDKit          3D

 32 33  0  0  1  0  0  0  0  0999 V2000
   20.2765  -25.8545  -14.1658 N   0  0  0  0  0  0  0  0  0  0  0  0
   21.4551  -26.5726  -14.5509 C   0  0  0  0  0  0  0  0  0  0  0  0
   21.3127  -27.7956  -14.9217 N   0  0  0  0  0  0  0  0  0  0  0  0
   22.7382  -25.9630  -14.5269 N   0  0  0  0  0  0  0  0  0  0  0  0
   22.8798  -24.5650  -14.1670 C   0  0  0  0  0  0  0  0  0  0  0  0
   22.1123  -23.7028  -15.1270 C   0  0  0  0  0  0  0  0  0  0  0  0
   22.2058  -22.2533  -14.8041 C   0  0  0  0  0  0  0  0  0  0  0  0
   22.1668  -21.9866  -13.3461 C   0  0  2  0  0  0  0  0  0  0  0  0
   20.9681  -21.4144  -12.8533 N   0  0  0  0  0  0  0  0  0  0  0  0
   23.3767  -21.1506  -13.0238 C   0  0  0  0  0  0  0  0  0  0  0  0
   23.1410  -19.8916  -13.0132 O   0  0  0  0  0  0  0  0  0  0  0  0
   22.0888  -28.3910  -15.2212 N   0  0  0  0  0  0  0  0  0  0  0  0
   24.6490  -21.6712  -12.7570 C   0  0  2  0  0  0  0  0  0  0  0  0
   25.7892  -20.8039  -12.4465 C   0  0  0  0  0  0  0  0  0  0  0  0
   26.7345  -21.4867  -11.5242 C   0  0  0  0  0  0  0  0  0  0  0  0
   26.5775  -21.0539  -10.1325 C   0  0  0  0  0  0  0  0  0  0  0  0
   25.3977  -20.5988   -9.5238 N   0  0  0  0  0  0  0  0  0  0  0  0
   25.5971  -20.2438   -8.2682 C   0  0  0  0  0  0  0  0  0  0  0  0
   26.8898  -20.4500   -8.0119 C   0  0  0  0  0  0  0  0  0  0  0  0
   27.5855  -20.2523   -6.8351 C   0  0  0  0  0  0  0  0  0  0  0  0
   28.9255  -20.5652   -6.8083 C   0  0  0  0  0  0  0  0  0  0  0  0
   29.5905  -21.0620   -7.8973 C   0  0  0  0  0  0  0  0  0  0  0  0
   28.8891  -21.2543   -9.0642 C   0  0  0  0  0  0  0  0  0  0  0  0
   27.5340  -20.9454   -9.1191 C   0  0  0  0  0  0  0  0  0  0  0  0
   26.4360  -20.3071  -13.6409 O   0  0  0  0  0  0  0  0  0  0  0  0
   26.5435  -20.9991  -14.6950 N   0  0  0  0  0  0  0  0  0  0  0  0
   27.0170  -18.9975  -13.7621 C   0  0  1  0  0  0  0  0  0  0  0  0
   27.5900  -18.4974  -14.9697 C   0  0  0  0  0  0  0  0  0  0  0  0
   28.1551  -17.1063  -14.8443 S   0  0  0  0  0  0  0  0  0  0  0  0
   27.9111  -16.0889  -16.2988 C   0  0  0  0  0  0  0  0  0  0  0  0
   28.5994  -19.4037  -15.5195 O   0  0  0  0  0  0  0  0  0  0  0  0
   29.1988  -20.3992  -14.7416 O   0  0  0  0  0  0  0  0  0  0  0  0
  2  1  1  0
  2  3  2  0
  4  2  1  0
  5  4  1  0
  6  5  1  0
  7  6  1  0
  8  7  1  0
  8  9  1  6
 10  8  1  0
 10 11  2  0
 12 10  1  0
 13 12  1  0
 13 14  1  1
 14 15  1  0
 15 16  2  0
 16 17  1  0
 18 17  1  0
 19 18  2  0
 20 19  1  0
 21 22  1  0
 21 20  2  0
 22 23  2  0
 23 15  1  0
 23 18  1  0
 24 13  1  0
 25 24  2  0
 26 24  1  0
 27 28  1  1
 27 26  1  0
 28 29  1  0
 30 27  1  0
 31 30  1  0
 32 30  2  0
M  END
$$$$
