RWC.pdb
     RDKit          3D

 32 33  0  0  1  0  0  0  0  0999 V2000
   25.5783  -19.6125  -17.6858 N   0  0  0  0  0  0  0  0  0  0  0  0
   24.7869  -18.7672  -16.8419 C   0  0  0  0  0  0  0  0  0  0  0  0
   23.7701  -18.1831  -17.3694 N   0  0  0  0  0  0  0  0  0  0  0  0
   25.1071  -18.5759  -15.4710 N   0  0  0  0  0  0  0  0  0  0  0  0
   26.1678  -19.3467  -14.8507 C   0  0  0  0  0  0  0  0  0  0  0  0
   25.6427  -20.6774  -14.3951 C   0  0  0  0  0  0  0  0  0  0  0  0
   25.2314  -20.6780  -12.9652 C   0  0  0  0  0  0  0  0  0  0  0  0
   26.3737  -20.8703  -12.0396 C   0  0  2  0  0  0  0  0  0  0  0  0
   27.3585  -21.7997  -12.4565 N   0  0  0  0  0  0  0  0  0  0  0  0
   25.7914  -21.2154  -10.6949 C   0  0  0  0  0  0  0  0  0  0  0  0
   25.5950  -22.4702  -10.5289 O   0  0  0  0  0  0  0  0  0  0  0  0
   23.1810  -17.5111  -16.8714 N   0  0  0  0  0  0  0  0  0  0  0  0
   25.4840  -20.2769   -9.7021 C   0  0  2  0  0  0  0  0  0  0  0  0
   24.9217  -20.6764   -8.4087 C   0  0  0  0  0  0  0  0  0  0  0  0
   25.0986  -19.5972   -7.4016 C   0  0  0  0  0  0  0  0  0  0  0  0
   26.5089  -19.3104   -7.1230 C   0  0  0  0  0  0  0  0  0  0  0  0
   27.3901  -18.5738   -7.9296 N   0  0  0  0  0  0  0  0  0  0  0  0
   28.6064  -18.5318   -7.4187 C   0  0  0  0  0  0  0  0  0  0  0  0
   28.5682  -19.2250   -6.2796 C   0  0  0  0  0  0  0  0  0  0  0  0
   29.5799  -19.4571   -5.3683 C   0  0  0  0  0  0  0  0  0  0  0  0
   29.2876  -20.1902   -4.2408 C   0  0  0  0  0  0  0  0  0  0  0  0
   28.0396  -20.6948   -3.9902 C   0  0  0  0  0  0  0  0  0  0  0  0
   27.0397  -20.4590   -4.9040 C   0  0  0  0  0  0  0  0  0  0  0  0
   27.3081  -19.7219   -6.0526 C   0  0  0  0  0  0  0  0  0  0  0  0
   23.5472  -21.1117   -8.5243 O   0  0  0  0  0  0  0  0  0  0  0  0
   22.7858  -20.7223   -9.4571 N   0  0  0  0  0  0  0  0  0  0  0  0
   22.9054  -22.0179   -7.6110 C   0  0  1  0  0  0  0  0  0  0  0  0
   21.6017  -22.5587   -7.8220 C   0  0  0  0  0  0  0  0  0  0  0  0
   21.1536  -23.5060   -6.7393 S   0  0  0  0  0  0  0  0  0  0  0  0
   19.8318  -24.6075   -7.2389 C   0  0  0  0  0  0  0  0  0  0  0  0
   20.5963  -21.5146   -8.0258 O   0  0  0  0  0  0  0  0  0  0  0  0
   20.8940  -20.1596   -7.8503 O   0  0  0  0  0  0  0  0  0  0  0  0
  2  1  1  0
  2  3  2  0
  4  2  1  0
  5  4  1  0
  6  5  1  0
  7  6  1  0
  8  7  1  0
  8  9  1  6
 10  8  1  0
 10 11  2  0
 12 10  1  0
 13 12  1  0
 13 14  1  6
 14 15  1  0
 15 16  2  0
 16 17  1  0
 18 17  1  0
 19 18  2  0
 20 19  1  0
 21 22  1  0
 21 20  2  0
 22 23  2  0
 23 15  1  0
 23 18  1  0
 24 13  1  0
 25 24  2  0
 26 24  1  0
 27 28  1  1
 27 26  1  0
 28 29  1  0
 30 27  1  0
 31 30  1  0
 32 30  2  0
M  END
$$$$
