LNS.pdb
     RDKit          3D

 23 22  0  0  1  0  0  0  0  0999 V2000
    6.2037  -11.9715   25.0414 C   0  0  0  0  0  0  0  0  0  0  0  0
    6.2078  -12.6201   26.4107 C   0  0  2  0  0  0  0  0  0  0  0  0
    6.1682  -11.5710   27.4995 C   0  0  0  0  0  0  0  0  0  0  0  0
    7.3862  -13.5524   26.5957 C   0  0  0  0  0  0  0  0  0  0  0  0
    7.3406  -14.6723   25.5797 C   0  0  2  0  0  0  0  0  0  0  0  0
    6.1197  -15.4263   25.6600 N   0  0  0  0  0  0  0  0  0  0  0  0
    8.5222  -15.5435   25.6495 C   0  0  0  0  0  0  0  0  0  0  0  0
    9.6996  -15.1435   25.6953 O   0  0  0  0  0  0  0  0  0  0  0  0
   11.2844  -19.6754   27.5353 N   0  0  0  0  0  0  0  0  0  0  0  0
    9.9595  -19.1602   27.7249 C   0  0  0  0  0  0  0  0  0  0  0  0
    9.6161  -18.8128   28.8618 O   0  0  0  0  0  0  0  0  0  0  0  0
    9.0601  -19.0631   26.5700 C   0  0  0  0  0  0  0  0  0  0  0  0
    9.4248  -17.8849   25.7183 C   0  0  2  0  0  0  0  0  0  0  0  0
    8.3249  -16.9603   25.6670 N   0  0  0  0  0  0  0  0  0  0  0  0
    9.6845  -18.3343   24.3032 C   0  0  0  0  0  0  0  0  0  0  0  0
    9.1423  -19.3643   23.8198 O   0  0  0  0  0  0  0  0  0  0  0  0
   10.9628  -15.7739   21.4915 O   0  0  0  0  0  0  0  0  0  0  0  0
   10.4057  -17.0028   21.1270 C   0  0  0  0  0  0  0  0  0  0  0  0
   10.8858  -18.0300   22.1505 C   0  0  2  0  0  0  0  0  0  0  0  0
   10.5671  -17.5747   23.4881 N   0  0  0  0  0  0  0  0  0  0  0  0
   12.3390  -18.1842   21.9665 C   0  0  0  0  0  0  0  0  0  0  0  0
   13.0985  -17.9163   22.9284 O   0  0  0  0  0  0  0  0  0  0  0  0
   12.9133  -18.6112   20.7822 O   0  0  0  0  0  0  0  0  0  0  0  0
  2  1  1  6
  2  3  1  0
  4  2  1  0
  5  4  1  0
  5  6  1  1
  7  5  1  0
  7  8  2  0
  9 10  1  0
 10 11  2  0
 10 12  1  0
 13 12  1  1
 13 14  1  0
 14  7  1  0
 15 20  1  0
 15 13  1  0
 16 15  2  0
 18 17  1  0
 19 18  1  6
 19 20  1  0
 19 21  1  0
 21 22  2  0
 21 23  1  0
M  END
$$$$
