LNS.pdb
     RDKit          3D

 23 22  0  0  1  0  0  0  0  0999 V2000
    5.5909  -12.2397   25.8914 C   0  0  0  0  0  0  0  0  0  0  0  0
    6.5179  -13.0150   26.8054 C   0  0  2  0  0  0  0  0  0  0  0  0
    7.2663  -12.0783   27.7275 C   0  0  0  0  0  0  0  0  0  0  0  0
    7.4748  -13.8964   26.0312 C   0  0  0  0  0  0  0  0  0  0  0  0
    6.7119  -14.8832   25.1754 C   0  0  2  0  0  0  0  0  0  0  0  0
    5.9568  -15.8155   25.9668 N   0  0  0  0  0  0  0  0  0  0  0  0
    7.5749  -15.5701   24.2039 C   0  0  0  0  0  0  0  0  0  0  0  0
    7.9644  -16.7474   24.3057 O   0  0  0  0  0  0  0  0  0  0  0  0
    7.2912  -12.9529   19.9906 N   0  0  0  0  0  0  0  0  0  0  0  0
    7.7502  -14.2914   20.2238 C   0  0  0  0  0  0  0  0  0  0  0  0
    7.0448  -15.2342   19.8436 O   0  0  0  0  0  0  0  0  0  0  0  0
    9.0345  -14.4968   20.9023 C   0  0  0  0  0  0  0  0  0  0  0  0
    8.8727  -15.4358   22.0593 C   0  0  2  0  0  0  0  0  0  0  0  0
    8.0102  -14.8480   23.0482 N   0  0  0  0  0  0  0  0  0  0  0  0
   10.2056  -15.6673   22.7239 C   0  0  0  0  0  0  0  0  0  0  0  0
   10.9542  -14.7137   23.0688 O   0  0  0  0  0  0  0  0  0  0  0  0
   10.9068  -19.2538   24.2401 O   0  0  0  0  0  0  0  0  0  0  0  0
   11.7921  -18.2716   24.6925 C   0  0  0  0  0  0  0  0  0  0  0  0
   11.9280  -17.2442   23.5704 C   0  0  2  0  0  0  0  0  0  0  0  0
   10.6327  -17.0005   22.9697 N   0  0  0  0  0  0  0  0  0  0  0  0
   12.8816  -17.7911   22.5900 C   0  0  0  0  0  0  0  0  0  0  0  0
   12.4886  -17.9893   21.4152 O   0  0  0  0  0  0  0  0  0  0  0  0
   14.1948  -18.0994   22.8986 O   0  0  0  0  0  0  0  0  0  0  0  0
  2  1  1  6
  2  3  1  0
  4  2  1  0
  5  4  1  0
  5  6  1  1
  7  5  1  0
  7  8  2  0
  9 10  1  0
 10 11  2  0
 10 12  1  0
 13 12  1  6
 13 14  1  0
 14  7  1  0
 15 20  1  0
 15 13  1  0
 16 15  2  0
 18 17  1  0
 19 18  1  1
 19 20  1  0
 19 21  1  0
 21 22  2  0
 21 23  1  0
M  END
$$$$
