LNS.pdb
     RDKit          3D

 23 22  0  0  1  0  0  0  0  0999 V2000
    8.7374  -12.0099   18.5520 C   0  0  0  0  0  0  0  0  0  0  0  0
    7.8247  -13.1753   18.8748 C   0  0  2  0  0  0  0  0  0  0  0  0
    6.6993  -12.7370   19.7853 C   0  0  0  0  0  0  0  0  0  0  0  0
    8.5816  -14.3441   19.4688 C   0  0  0  0  0  0  0  0  0  0  0  0
    9.6268  -14.8472   18.4978 C   0  0  2  0  0  0  0  0  0  0  0  0
    9.0496  -15.2628   17.2489 N   0  0  0  0  0  0  0  0  0  0  0  0
   10.4760  -15.8965   19.0792 C   0  0  0  0  0  0  0  0  0  0  0  0
   10.7833  -16.9597   18.5105 O   0  0  0  0  0  0  0  0  0  0  0  0
   13.8159  -14.3248   19.0312 N   0  0  0  0  0  0  0  0  0  0  0  0
   13.8136  -15.1288   20.2188 C   0  0  0  0  0  0  0  0  0  0  0  0
   14.2832  -14.6504   21.2588 O   0  0  0  0  0  0  0  0  0  0  0  0
   13.2574  -16.4850   20.1608 C   0  0  0  0  0  0  0  0  0  0  0  0
   11.9937  -16.5688   20.9624 C   0  0  2  0  0  0  0  0  0  0  0  0
   10.9980  -15.6995   20.3965 N   0  0  0  0  0  0  0  0  0  0  0  0
   12.2444  -16.0890   22.3691 C   0  0  0  0  0  0  0  0  0  0  0  0
   12.1323  -14.8754   22.6904 O   0  0  0  0  0  0  0  0  0  0  0  0
    9.4261  -16.8874   24.3905 O   0  0  0  0  0  0  0  0  0  0  0  0
   10.3997  -17.8098   23.9973 C   0  0  0  0  0  0  0  0  0  0  0  0
   11.7430  -17.2769   24.4921 C   0  0  2  0  0  0  0  0  0  0  0  0
   12.6184  -17.0324   23.3644 N   0  0  0  0  0  0  0  0  0  0  0  0
   12.3067  -18.2893   25.4013 C   0  0  0  0  0  0  0  0  0  0  0  0
   12.8650  -19.2978   24.9061 O   0  0  0  0  0  0  0  0  0  0  0  0
   12.2525  -18.1859   26.7802 O   0  0  0  0  0  0  0  0  0  0  0  0
  2  1  1  1
  2  3  1  0
  4  2  1  0
  5  4  1  0
  5  6  1  6
  7  5  1  0
  7  8  2  0
  9 10  1  0
 10 11  2  0
 10 12  1  0
 13 12  1  6
 13 14  1  0
 14  7  1  0
 15 20  1  0
 15 13  1  0
 16 15  2  0
 18 17  1  0
 19 18  1  6
 19 20  1  0
 19 21  1  0
 21 22  2  0
 21 23  1  0
M  END
$$$$
