LNS.pdb
     RDKit          3D

 23 22  0  0  1  0  0  0  0  0999 V2000
    7.2700  -12.3704   24.4926 C   0  0  0  0  0  0  0  0  0  0  0  0
    6.3608  -13.1423   25.4272 C   0  0  2  0  0  0  0  0  0  0  0  0
    5.9165  -12.2714   26.5813 C   0  0  0  0  0  0  0  0  0  0  0  0
    7.0065  -14.4179   25.9250 C   0  0  0  0  0  0  0  0  0  0  0  0
    7.1434  -15.4174   24.7977 C   0  0  2  0  0  0  0  0  0  0  0  0
    5.9295  -16.1550   24.5781 N   0  0  0  0  0  0  0  0  0  0  0  0
    8.2968  -16.3109   24.9752 C   0  0  0  0  0  0  0  0  0  0  0  0
    8.2666  -17.4020   25.5726 O   0  0  0  0  0  0  0  0  0  0  0  0
   10.8919  -15.9937   21.1253 N   0  0  0  0  0  0  0  0  0  0  0  0
   11.0167  -16.9302   22.2042 C   0  0  0  0  0  0  0  0  0  0  0  0
   10.5664  -18.0726   22.0520 O   0  0  0  0  0  0  0  0  0  0  0  0
   11.6709  -16.5042   23.4463 C   0  0  0  0  0  0  0  0  0  0  0  0
   10.7517  -16.6926   24.6150 C   0  0  2  0  0  0  0  0  0  0  0  0
    9.5575  -15.9142   24.4276 N   0  0  0  0  0  0  0  0  0  0  0  0
   11.4098  -16.1875   25.8734 C   0  0  0  0  0  0  0  0  0  0  0  0
   12.6515  -15.9820   25.9411 O   0  0  0  0  0  0  0  0  0  0  0  0
   10.0502  -13.6057   28.0190 O   0  0  0  0  0  0  0  0  0  0  0  0
   10.4440  -14.5237   28.9965 C   0  0  0  0  0  0  0  0  0  0  0  0
   11.2362  -15.6188   28.2851 C   0  0  2  0  0  0  0  0  0  0  0  0
   10.6074  -15.9347   27.0191 N   0  0  0  0  0  0  0  0  0  0  0  0
   11.2639  -16.7891   29.1790 C   0  0  0  0  0  0  0  0  0  0  0  0
   10.7660  -17.8670   28.7738 O   0  0  0  0  0  0  0  0  0  0  0  0
   11.8131  -16.7619   30.4488 O   0  0  0  0  0  0  0  0  0  0  0  0
  2  1  1  1
  2  3  1  0
  4  2  1  0
  5  4  1  0
  5  6  1  1
  7  5  1  0
  7  8  2  0
  9 10  1  0
 10 11  2  0
 10 12  1  0
 13 12  1  6
 13 14  1  0
 14  7  1  0
 15 20  1  0
 15 13  1  0
 16 15  2  0
 18 17  1  0
 19 18  1  1
 19 20  1  0
 19 21  1  0
 21 22  2  0
 21 23  1  0
M  END
$$$$
