LNS.pdb
     RDKit          3D

 23 22  0  0  1  0  0  0  0  0999 V2000
    8.8144  -12.2033   18.6524 C   0  0  0  0  0  0  0  0  0  0  0  0
    7.7851  -13.2711   18.9624 C   0  0  2  0  0  0  0  0  0  0  0  0
    6.8153  -12.7888   20.0181 C   0  0  0  0  0  0  0  0  0  0  0  0
    8.4275  -14.5798   19.3706 C   0  0  0  0  0  0  0  0  0  0  0  0
    9.3596  -15.0736   18.2863 C   0  0  2  0  0  0  0  0  0  0  0  0
    8.6509  -15.4532   17.0950 N   0  0  0  0  0  0  0  0  0  0  0  0
   10.2485  -16.1465   18.7543 C   0  0  0  0  0  0  0  0  0  0  0  0
   10.0291  -17.3634   18.6161 O   0  0  0  0  0  0  0  0  0  0  0  0
   13.6062  -14.0473   19.0191 N   0  0  0  0  0  0  0  0  0  0  0  0
   14.1432  -15.1175   19.8084 C   0  0  0  0  0  0  0  0  0  0  0  0
   14.9195  -14.8410   20.7314 O   0  0  0  0  0  0  0  0  0  0  0  0
   13.7559  -16.4976   19.4962 C   0  0  0  0  0  0  0  0  0  0  0  0
   12.3581  -16.7692   19.9640 C   0  0  2  0  0  0  0  0  0  0  0  0
   11.4616  -15.7850   19.4209 N   0  0  0  0  0  0  0  0  0  0  0  0
   12.2851  -16.6463   21.4645 C   0  0  0  0  0  0  0  0  0  0  0  0
   12.4482  -15.5435   22.0527 O   0  0  0  0  0  0  0  0  0  0  0  0
    9.8177  -18.2818   23.8606 O   0  0  0  0  0  0  0  0  0  0  0  0
   11.0777  -18.6963   24.3006 C   0  0  0  0  0  0  0  0  0  0  0  0
   12.0998  -17.7420   23.6859 C   0  0  2  0  0  0  0  0  0  0  0  0
   12.0245  -17.8080   22.2409 N   0  0  0  0  0  0  0  0  0  0  0  0
   13.4280  -18.1500   24.1748 C   0  0  0  0  0  0  0  0  0  0  0  0
   14.2453  -18.6385   23.3579 O   0  0  0  0  0  0  0  0  0  0  0  0
   13.8235  -18.0220   25.4946 O   0  0  0  0  0  0  0  0  0  0  0  0
  2  1  1  1
  2  3  1  0
  4  2  1  0
  5  4  1  0
  5  6  1  6
  7  5  1  0
  7  8  2  0
  9 10  1  0
 10 11  2  0
 10 12  1  0
 13 12  1  6
 13 14  1  0
 14  7  1  0
 15 20  1  0
 15 13  1  0
 16 15  2  0
 18 17  1  0
 19 18  1  1
 19 20  1  0
 19 21  1  0
 21 22  2  0
 21 23  1  0
M  END
$$$$
