LNS.pdb
     RDKit          3D

 23 22  0  0  1  0  0  0  0  0999 V2000
    8.3554  -11.7200   19.9024 C   0  0  0  0  0  0  0  0  0  0  0  0
    8.1758  -12.7940   18.8488 C   0  0  2  0  0  0  0  0  0  0  0  0
    6.7282  -12.8855   18.4199 C   0  0  0  0  0  0  0  0  0  0  0  0
    8.6921  -14.1392   19.3130 C   0  0  0  0  0  0  0  0  0  0  0  0
   10.0649  -13.9952   19.9319 C   0  0  2  0  0  0  0  0  0  0  0  0
   10.9925  -13.3469   19.0460 N   0  0  0  0  0  0  0  0  0  0  0  0
   10.5935  -15.2724   20.4314 C   0  0  0  0  0  0  0  0  0  0  0  0
    9.9209  -16.1417   21.0146 O   0  0  0  0  0  0  0  0  0  0  0  0
   13.1135  -18.5683   18.2387 N   0  0  0  0  0  0  0  0  0  0  0  0
   13.7267  -17.3188   18.5845 C   0  0  0  0  0  0  0  0  0  0  0  0
   14.0878  -16.5639   17.6730 O   0  0  0  0  0  0  0  0  0  0  0  0
   13.9046  -16.9795   20.0006 C   0  0  0  0  0  0  0  0  0  0  0  0
   12.5750  -16.7956   20.6674 C   0  0  2  0  0  0  0  0  0  0  0  0
   11.9829  -15.5561   20.2425 N   0  0  0  0  0  0  0  0  0  0  0  0
   12.7570  -16.7038   22.1608 C   0  0  0  0  0  0  0  0  0  0  0  0
   13.6893  -16.0329   22.6797 O   0  0  0  0  0  0  0  0  0  0  0  0
    9.9020  -18.3573   24.5340 O   0  0  0  0  0  0  0  0  0  0  0  0
   10.6385  -17.3249   25.1212 C   0  0  0  0  0  0  0  0  0  0  0  0
   12.0099  -17.3183   24.4485 C   0  0  2  0  0  0  0  0  0  0  0  0
   11.8508  -17.3942   23.0109 N   0  0  0  0  0  0  0  0  0  0  0  0
   12.7576  -18.4758   24.9690 C   0  0  0  0  0  0  0  0  0  0  0  0
   13.1106  -19.3734   24.1668 O   0  0  0  0  0  0  0  0  0  0  0  0
   13.0927  -18.6256   26.3032 O   0  0  0  0  0  0  0  0  0  0  0  0
  2  1  1  1
  2  3  1  0
  4  2  1  0
  5  4  1  0
  5  6  1  6
  7  5  1  0
  7  8  2  0
  9 10  1  0
 10 11  2  0
 10 12  1  0
 13 12  1  6
 13 14  1  0
 14  7  1  0
 15 20  1  0
 15 13  1  0
 16 15  2  0
 18 17  1  0
 19 18  1  1
 19 20  1  0
 19 21  1  0
 21 22  2  0
 21 23  1  0
M  END
$$$$
