LNS.pdb
     RDKit          3D

 23 22  0  0  1  0  0  0  0  0999 V2000
    9.3334  -12.6422   19.2589 C   0  0  0  0  0  0  0  0  0  0  0  0
    8.1323  -13.5617   19.3463 C   0  0  2  0  0  0  0  0  0  0  0  0
    6.8710  -12.8344   18.9364 C   0  0  0  0  0  0  0  0  0  0  0  0
    7.9839  -14.1755   20.7222 C   0  0  0  0  0  0  0  0  0  0  0  0
    9.3192  -14.6778   21.2252 C   0  0  2  0  0  0  0  0  0  0  0  0
    9.9063  -15.6400   20.3334 N   0  0  0  0  0  0  0  0  0  0  0  0
    9.2461  -15.1876   22.6018 C   0  0  0  0  0  0  0  0  0  0  0  0
    8.4593  -14.7745   23.4728 O   0  0  0  0  0  0  0  0  0  0  0  0
   11.0704  -19.6592   22.3346 N   0  0  0  0  0  0  0  0  0  0  0  0
   10.3180  -19.1495   23.4439 C   0  0  0  0  0  0  0  0  0  0  0  0
    9.1882  -19.6083   23.6542 O   0  0  0  0  0  0  0  0  0  0  0  0
   10.9101  -18.1060   24.2881 C   0  0  0  0  0  0  0  0  0  0  0  0
   10.0571  -16.8737   24.2755 C   0  0  2  0  0  0  0  0  0  0  0  0
   10.1379  -16.2370   22.9888 N   0  0  0  0  0  0  0  0  0  0  0  0
   10.5715  -15.8818   25.2871 C   0  0  0  0  0  0  0  0  0  0  0  0
   11.7212  -15.3730   25.1982 O   0  0  0  0  0  0  0  0  0  0  0  0
    8.0125  -13.8624   27.3064 O   0  0  0  0  0  0  0  0  0  0  0  0
    9.3146  -13.4043   27.5255 C   0  0  0  0  0  0  0  0  0  0  0  0
   10.2392  -14.6132   27.3966 C   0  0  2  0  0  0  0  0  0  0  0  0
    9.7362  -15.5080   26.3747 N   0  0  0  0  0  0  0  0  0  0  0  0
   10.2843  -15.2714   28.7135 C   0  0  0  0  0  0  0  0  0  0  0  0
   10.4960  -14.5678   29.7303 O   0  0  0  0  0  0  0  0  0  0  0  0
   10.1046  -16.6322   28.8887 O   0  0  0  0  0  0  0  0  0  0  0  0
  2  1  1  1
  2  3  1  0
  4  2  1  0
  5  4  1  0
  5  6  1  6
  7  5  1  0
  7  8  2  0
  9 10  1  0
 10 11  2  0
 10 12  1  0
 13 12  1  6
 13 14  1  0
 14  7  1  0
 15 20  1  0
 15 13  1  0
 16 15  2  0
 18 17  1  0
 19 18  1  1
 19 20  1  0
 19 21  1  0
 21 22  2  0
 21 23  1  0
M  END
$$$$
