LNS.pdb
     RDKit          3D

 23 22  0  0  1  0  0  0  0  0999 V2000
    6.9511  -11.8336   24.8248 C   0  0  0  0  0  0  0  0  0  0  0  0
    6.4660  -12.8080   25.8788 C   0  0  2  0  0  0  0  0  0  0  0  0
    6.1854  -12.0913   27.1810 C   0  0  0  0  0  0  0  0  0  0  0  0
    7.4351  -13.9526   26.0854 C   0  0  0  0  0  0  0  0  0  0  0  0
    7.1265  -15.0866   25.1329 C   0  0  2  0  0  0  0  0  0  0  0  0
    5.8046  -15.6148   25.3306 N   0  0  0  0  0  0  0  0  0  0  0  0
    8.1453  -16.1453   25.1701 C   0  0  0  0  0  0  0  0  0  0  0  0
    8.0521  -17.1999   25.8238 O   0  0  0  0  0  0  0  0  0  0  0  0
   10.6915  -15.9517   20.9633 N   0  0  0  0  0  0  0  0  0  0  0  0
   10.6242  -16.9395   22.0008 C   0  0  0  0  0  0  0  0  0  0  0  0
    9.9714  -17.9705   21.7957 O   0  0  0  0  0  0  0  0  0  0  0  0
   11.3282  -16.6955   23.2645 C   0  0  0  0  0  0  0  0  0  0  0  0
   10.4127  -16.9267   24.4285 C   0  0  2  0  0  0  0  0  0  0  0  0
    9.3406  -15.9689   24.4042 N   0  0  0  0  0  0  0  0  0  0  0  0
   11.1597  -16.7140   25.7203 C   0  0  0  0  0  0  0  0  0  0  0  0
   11.8604  -15.6865   25.9249 O   0  0  0  0  0  0  0  0  0  0  0  0
    9.8406  -17.5244   29.0839 O   0  0  0  0  0  0  0  0  0  0  0  0
   11.0902  -16.9002   29.0386 C   0  0  0  0  0  0  0  0  0  0  0  0
   11.8888  -17.5832   27.9300 C   0  0  2  0  0  0  0  0  0  0  0  0
   11.0723  -17.7010   26.7394 N   0  0  0  0  0  0  0  0  0  0  0  0
   12.2966  -18.9051   28.4358 C   0  0  0  0  0  0  0  0  0  0  0  0
   11.9096  -19.9289   27.8227 O   0  0  0  0  0  0  0  0  0  0  0  0
   13.0882  -19.0776   29.5576 O   0  0  0  0  0  0  0  0  0  0  0  0
  2  1  1  6
  2  3  1  0
  4  2  1  0
  5  4  1  0
  5  6  1  1
  7  5  1  0
  7  8  2  0
  9 10  1  0
 10 11  2  0
 10 12  1  0
 13 12  1  6
 13 14  1  0
 14  7  1  0
 15 20  1  0
 15 13  1  0
 16 15  2  0
 18 17  1  0
 19 18  1  1
 19 20  1  0
 19 21  1  0
 21 22  2  0
 21 23  1  0
M  END
$$$$
