KGN.pdb
     RDKit          3D

 22 21  0  0  1  0  0  0  0  0999 V2000
    7.9676  -18.0441   15.8279 N   0  0  0  0  0  0  0  0  0  0  0  0
    7.1359  -18.8286   16.6915 C   0  0  1  0  0  0  0  0  0  0  0  0
    7.5163  -20.2681   16.8346 C   0  0  0  0  0  0  0  0  0  0  0  0
    8.9157  -20.5504   17.1997 C   0  0  0  0  0  0  0  0  0  0  0  0
    9.3424  -21.9566   17.3354 C   0  0  0  0  0  0  0  0  0  0  0  0
   10.7674  -22.1916   17.6948 C   0  0  0  0  0  0  0  0  0  0  0  0
   11.1303  -23.5734   17.8634 N   0  0  0  0  0  0  0  0  0  0  0  0
    7.2624  -18.2367   18.0749 C   0  0  0  0  0  0  0  0  0  0  0  0
    6.4573  -18.5416   18.9914 O   0  0  0  0  0  0  0  0  0  0  0  0
    8.2892  -17.3171   18.3957 N   0  0  0  0  0  0  0  0  0  0  0  0
    8.3970  -16.7662   19.7521 C   0  0  0  0  0  0  0  0  0  0  0  0
    9.6235  -17.2210   20.4189 C   0  0  0  0  0  0  0  0  0  0  0  0
   10.3447  -18.0567   19.8330 O   0  0  0  0  0  0  0  0  0  0  0  0
   14.0789  -15.7972   23.2637 N   0  0  0  0  0  0  0  0  0  0  0  0
   12.8585  -16.1129   23.9008 C   0  0  0  0  0  0  0  0  0  0  0  0
   12.8805  -16.5802   25.0651 O   0  0  0  0  0  0  0  0  0  0  0  0
   11.5802  -15.8991   23.2150 C   0  0  0  0  0  0  0  0  0  0  0  0
   11.1842  -17.0736   22.3351 C   0  0  2  0  0  0  0  0  0  0  0  0
    9.9491  -16.7133   21.6777 N   0  0  0  0  0  0  0  0  0  0  0  0
   11.0898  -18.3256   23.0865 C   0  0  0  0  0  0  0  0  0  0  0  0
    9.8811  -18.7756   23.5841 O   0  0  0  0  0  0  0  0  0  0  0  0
   12.1132  -19.0178   23.2937 O   0  0  0  0  0  0  0  0  0  0  0  0
  2  1  1  6
  2  8  1  0
  2  3  1  0
  3  4  1  0
  4  5  1  0
  5  6  1  0
  6  7  1  0
  8  9  2  0
 10 11  1  0
 10  8  1  0
 11 12  1  0
 12 13  2  0
 12 19  1  0
 14 15  1  0
 15 17  1  0
 16 15  2  0
 18 17  1  1
 18 20  1  0
 19 18  1  0
 20 21  1  0
 22 20  2  0
M  END
$$$$
