KGN.pdb
     RDKit          3D

 22 21  0  0  1  0  0  0  0  0999 V2000
   10.1023  -18.3646   15.4838 N   0  0  0  0  0  0  0  0  0  0  0  0
    9.4710  -18.8504   16.6748 C   0  0  1  0  0  0  0  0  0  0  0  0
    8.5876  -20.0455   16.5053 C   0  0  0  0  0  0  0  0  0  0  0  0
    7.8985  -20.1817   15.2099 C   0  0  0  0  0  0  0  0  0  0  0  0
    7.0266  -21.3521   14.9912 C   0  0  0  0  0  0  0  0  0  0  0  0
    6.3556  -21.4480   13.6661 C   0  0  0  0  0  0  0  0  0  0  0  0
    5.4970  -22.5906   13.5026 N   0  0  0  0  0  0  0  0  0  0  0  0
   10.5753  -19.2915   17.6052 C   0  0  0  0  0  0  0  0  0  0  0  0
   11.3526  -20.2305   17.2967 O   0  0  0  0  0  0  0  0  0  0  0  0
   10.7803  -18.6680   18.8590 N   0  0  0  0  0  0  0  0  0  0  0  0
   11.8976  -19.0767   19.7190 C   0  0  0  0  0  0  0  0  0  0  0  0
   11.9286  -18.2976   20.9631 C   0  0  0  0  0  0  0  0  0  0  0  0
   11.2118  -17.2771   21.0443 O   0  0  0  0  0  0  0  0  0  0  0  0
   13.9034  -19.2110   26.6799 N   0  0  0  0  0  0  0  0  0  0  0  0
   13.3481  -18.4542   25.6246 C   0  0  0  0  0  0  0  0  0  0  0  0
   12.6093  -17.4771   25.8967 O   0  0  0  0  0  0  0  0  0  0  0  0
   13.6283  -18.8015   24.2278 C   0  0  0  0  0  0  0  0  0  0  0  0
   12.8303  -17.9612   23.2441 C   0  0  2  0  0  0  0  0  0  0  0  0
   12.7500  -18.7125   22.0127 N   0  0  0  0  0  0  0  0  0  0  0  0
   13.3980  -16.6247   23.0645 C   0  0  0  0  0  0  0  0  0  0  0  0
   13.0448  -15.5765   23.8939 O   0  0  0  0  0  0  0  0  0  0  0  0
   14.2220  -16.4054   22.1467 O   0  0  0  0  0  0  0  0  0  0  0  0
  2  1  1  6
  2  8  1  0
  2  3  1  0
  3  4  1  0
  4  5  1  0
  5  6  1  0
  6  7  1  0
  8  9  2  0
 10 11  1  0
 10  8  1  0
 11 12  1  0
 12 13  2  0
 12 19  1  0
 14 15  1  0
 15 17  1  0
 16 15  2  0
 18 17  1  1
 18 20  1  0
 19 18  1  0
 20 21  1  0
 22 20  2  0
M  END
$$$$
