KGN.pdb
     RDKit          3D

 22 21  0  0  1  0  0  0  0  0999 V2000
    7.0679  -15.4627   18.4423 N   0  0  0  0  0  0  0  0  0  0  0  0
    8.2309  -14.6598   18.6788 C   0  0  1  0  0  0  0  0  0  0  0  0
    8.1923  -13.2729   18.1199 C   0  0  0  0  0  0  0  0  0  0  0  0
    7.7144  -13.1304   16.7333 C   0  0  0  0  0  0  0  0  0  0  0  0
    8.4111  -13.8720   15.6644 C   0  0  0  0  0  0  0  0  0  0  0  0
    7.9496  -13.6278   14.2706 C   0  0  0  0  0  0  0  0  0  0  0  0
    8.6907  -14.3273   13.2552 N   0  0  0  0  0  0  0  0  0  0  0  0
    8.3476  -14.4907   20.1747 C   0  0  0  0  0  0  0  0  0  0  0  0
    9.4056  -14.0629   20.7026 O   0  0  0  0  0  0  0  0  0  0  0  0
    7.2741  -14.8058   21.0413 N   0  0  0  0  0  0  0  0  0  0  0  0
    7.3886  -14.5653   22.4849 C   0  0  0  0  0  0  0  0  0  0  0  0
    8.0927  -15.6645   23.1569 C   0  0  0  0  0  0  0  0  0  0  0  0
    7.5544  -16.7922   23.1768 O   0  0  0  0  0  0  0  0  0  0  0  0
   11.9178  -18.3990   25.2310 N   0  0  0  0  0  0  0  0  0  0  0  0
   12.3929  -17.4509   24.2981 C   0  0  0  0  0  0  0  0  0  0  0  0
   13.5882  -17.5112   23.9209 O   0  0  0  0  0  0  0  0  0  0  0  0
   11.5052  -16.4080   23.7744 C   0  0  0  0  0  0  0  0  0  0  0  0
   10.0994  -16.4943   24.3461 C   0  0  2  0  0  0  0  0  0  0  0  0
    9.3331  -15.4242   23.7503 N   0  0  0  0  0  0  0  0  0  0  0  0
   10.0899  -16.4610   25.8089 C   0  0  0  0  0  0  0  0  0  0  0  0
    9.9774  -17.6204   26.5533 O   0  0  0  0  0  0  0  0  0  0  0  0
   10.1844  -15.3701   26.4175 O   0  0  0  0  0  0  0  0  0  0  0  0
  2  1  1  1
  2  8  1  0
  2  3  1  0
  3  4  1  0
  4  5  1  0
  5  6  1  0
  6  7  1  0
  8  9  2  0
 10 11  1  0
 10  8  1  0
 11 12  1  0
 12 13  2  0
 12 19  1  0
 14 15  1  0
 15 17  1  0
 16 15  2  0
 18 17  1  6
 18 20  1  0
 19 18  1  0
 20 21  1  0
 22 20  2  0
M  END
$$$$
