KGN.pdb
     RDKit          3D

 22 21  0  0  1  0  0  0  0  0999 V2000
    8.0571  -17.2098   21.3083 N   0  0  0  0  0  0  0  0  0  0  0  0
    9.3928  -16.9214   20.8770 C   0  0  1  0  0  0  0  0  0  0  0  0
    9.5457  -15.7447   19.9664 C   0  0  0  0  0  0  0  0  0  0  0  0
    8.3300  -15.2783   19.2766 C   0  0  0  0  0  0  0  0  0  0  0  0
    8.4504  -14.1900   18.2871 C   0  0  0  0  0  0  0  0  0  0  0  0
    7.1826  -13.6739   17.7028 C   0  0  0  0  0  0  0  0  0  0  0  0
    7.3466  -12.6406   16.7154 N   0  0  0  0  0  0  0  0  0  0  0  0
   10.1873  -16.5814   22.1153 C   0  0  0  0  0  0  0  0  0  0  0  0
   11.3827  -16.1989   22.0392 O   0  0  0  0  0  0  0  0  0  0  0  0
    9.6207  -16.6790   23.4084 N   0  0  0  0  0  0  0  0  0  0  0  0
   10.3793  -16.2440   24.5875 C   0  0  0  0  0  0  0  0  0  0  0  0
    9.4905  -15.9581   25.7207 C   0  0  0  0  0  0  0  0  0  0  0  0
    8.2642  -16.1528   25.5791 O   0  0  0  0  0  0  0  0  0  0  0  0
   12.0961  -15.9546   29.3053 N   0  0  0  0  0  0  0  0  0  0  0  0
   10.7505  -15.6524   29.6103 C   0  0  0  0  0  0  0  0  0  0  0  0
   10.1048  -16.4271   30.3570 O   0  0  0  0  0  0  0  0  0  0  0  0
   10.1121  -14.4506   29.0642 C   0  0  0  0  0  0  0  0  0  0  0  0
    9.2262  -14.7512   27.8661 C   0  0  2  0  0  0  0  0  0  0  0  0
   10.0328  -15.4808   26.9151 N   0  0  0  0  0  0  0  0  0  0  0  0
    8.6252  -13.5430   27.3006 C   0  0  0  0  0  0  0  0  0  0  0  0
    8.9557  -13.1017   26.0329 O   0  0  0  0  0  0  0  0  0  0  0  0
    7.7924  -12.8813   27.9626 O   0  0  0  0  0  0  0  0  0  0  0  0
  2  1  1  1
  2  8  1  0
  2  3  1  0
  3  4  1  0
  4  5  1  0
  5  6  1  0
  6  7  1  0
  8  9  2  0
 10 11  1  0
 10  8  1  0
 11 12  1  0
 12 13  2  0
 12 19  1  0
 14 15  1  0
 15 17  1  0
 16 15  2  0
 18 17  1  1
 18 20  1  0
 19 18  1  0
 20 21  1  0
 22 20  2  0
M  END
$$$$
