KGN.pdb
     RDKit          3D

 22 21  0  0  1  0  0  0  0  0999 V2000
    8.7190  -15.5754   19.6559 N   0  0  0  0  0  0  0  0  0  0  0  0
    8.4763  -14.2251   20.0694 C   0  0  1  0  0  0  0  0  0  0  0  0
    7.5142  -13.4472   19.2290 C   0  0  0  0  0  0  0  0  0  0  0  0
    7.9830  -13.0359   17.8939 C   0  0  0  0  0  0  0  0  0  0  0  0
    7.8301  -13.9780   16.7683 C   0  0  0  0  0  0  0  0  0  0  0  0
    8.3815  -13.5462   15.4550 C   0  0  0  0  0  0  0  0  0  0  0  0
    8.3757  -14.5583   14.4327 N   0  0  0  0  0  0  0  0  0  0  0  0
    7.8508  -14.2948   21.4420 C   0  0  0  0  0  0  0  0  0  0  0  0
    7.6248  -13.2537   22.1099 O   0  0  0  0  0  0  0  0  0  0  0  0
    7.4944  -15.5312   22.0312 N   0  0  0  0  0  0  0  0  0  0  0  0
    6.9215  -15.5734   23.3821 C   0  0  0  0  0  0  0  0  0  0  0  0
    7.8853  -15.1083   24.3873 C   0  0  0  0  0  0  0  0  0  0  0  0
    9.0847  -14.9958   24.0547 O   0  0  0  0  0  0  0  0  0  0  0  0
    5.4140  -12.2320   27.3726 N   0  0  0  0  0  0  0  0  0  0  0  0
    6.7831  -12.4306   27.0880 C   0  0  0  0  0  0  0  0  0  0  0  0
    7.3648  -11.6411   26.3050 O   0  0  0  0  0  0  0  0  0  0  0  0
    7.5194  -13.5429   27.6967 C   0  0  0  0  0  0  0  0  0  0  0  0
    8.3506  -14.3173   26.6868 C   0  0  2  0  0  0  0  0  0  0  0  0
    7.4416  -14.8067   25.6760 N   0  0  0  0  0  0  0  0  0  0  0  0
    9.1390  -15.3797   27.3118 C   0  0  0  0  0  0  0  0  0  0  0  0
   10.1579  -15.0905   28.2003 O   0  0  0  0  0  0  0  0  0  0  0  0
    8.9016  -16.5815   27.0496 O   0  0  0  0  0  0  0  0  0  0  0  0
  2  1  1  6
  2  8  1  0
  2  3  1  0
  3  4  1  0
  4  5  1  0
  5  6  1  0
  6  7  1  0
  8  9  2  0
 10 11  1  0
 10  8  1  0
 11 12  1  0
 12 13  2  0
 12 19  1  0
 14 15  1  0
 15 17  1  0
 16 15  2  0
 18 17  1  1
 18 20  1  0
 19 18  1  0
 20 21  1  0
 22 20  2  0
M  END
$$$$
