KGN.pdb
     RDKit          3D

 22 21  0  0  1  0  0  0  0  0999 V2000
    9.0562  -15.5447   20.6053 N   0  0  0  0  0  0  0  0  0  0  0  0
    8.5385  -14.4148   21.3183 C   0  0  1  0  0  0  0  0  0  0  0  0
    7.2578  -13.8441   20.7974 C   0  0  0  0  0  0  0  0  0  0  0  0
    7.0365  -13.9315   19.3431 C   0  0  0  0  0  0  0  0  0  0  0  0
    8.1339  -13.5449   18.4353 C   0  0  0  0  0  0  0  0  0  0  0  0
    7.9170  -13.7865   16.9828 C   0  0  0  0  0  0  0  0  0  0  0  0
    9.0267  -13.4355   16.1374 N   0  0  0  0  0  0  0  0  0  0  0  0
    8.2316  -14.8864   22.7196 C   0  0  0  0  0  0  0  0  0  0  0  0
    7.2397  -14.4453   23.3541 O   0  0  0  0  0  0  0  0  0  0  0  0
    9.0454  -15.8413   23.3742 N   0  0  0  0  0  0  0  0  0  0  0  0
    8.7634  -16.2334   24.7604 C   0  0  0  0  0  0  0  0  0  0  0  0
    9.9878  -16.2553   25.5705 C   0  0  0  0  0  0  0  0  0  0  0  0
   11.0883  -16.1448   24.9888 O   0  0  0  0  0  0  0  0  0  0  0  0
   10.2558  -13.3662   27.6358 N   0  0  0  0  0  0  0  0  0  0  0  0
    9.9563  -14.4126   28.5360 C   0  0  0  0  0  0  0  0  0  0  0  0
    8.8172  -14.4599   29.0601 O   0  0  0  0  0  0  0  0  0  0  0  0
   10.9597  -15.4325   28.8569 C   0  0  0  0  0  0  0  0  0  0  0  0
   11.0724  -16.5016   27.7823 C   0  0  2  0  0  0  0  0  0  0  0  0
    9.8920  -16.3978   26.9557 N   0  0  0  0  0  0  0  0  0  0  0  0
   11.2628  -17.8389   28.3448 C   0  0  0  0  0  0  0  0  0  0  0  0
   12.4166  -18.1730   29.0291 O   0  0  0  0  0  0  0  0  0  0  0  0
   10.3744  -18.7125   28.2143 O   0  0  0  0  0  0  0  0  0  0  0  0
  2  1  1  6
  2  8  1  0
  2  3  1  0
  3  4  1  0
  4  5  1  0
  5  6  1  0
  6  7  1  0
  8  9  2  0
 10 11  1  0
 10  8  1  0
 11 12  1  0
 12 13  2  0
 12 19  1  0
 14 15  1  0
 15 17  1  0
 16 15  2  0
 18 17  1  1
 18 20  1  0
 19 18  1  0
 20 21  1  0
 22 20  2  0
M  END
$$$$
