RPV.pdb
     RDKit          3D

 26 26  0  0  1  0  0  0  0  0999 V2000
   10.0037  -17.3531   19.9603 N   0  0  0  0  0  0  0  0  0  0  0  0
    9.1687  -18.4371   20.3920 C   0  0  0  0  0  0  0  0  0  0  0  0
    8.7893  -19.2871   19.5245 N   0  0  0  0  0  0  0  0  0  0  0  0
    8.7725  -18.5680   21.7535 N   0  0  0  0  0  0  0  0  0  0  0  0
    7.8978  -17.6172   22.3859 C   0  0  0  0  0  0  0  0  0  0  0  0
    7.4463  -16.4933   21.5014 C   0  0  0  0  0  0  0  0  0  0  0  0
    6.5976  -15.5131   22.2739 C   0  0  0  0  0  0  0  0  0  0  0  0
    7.0721  -14.0909   22.2179 C   0  0  2  0  0  0  0  0  0  0  0  0
    7.6338  -13.8854   20.8978 N   0  0  0  0  0  0  0  0  0  0  0  0
    8.1006  -13.8056   23.2550 C   0  0  0  0  0  0  0  0  0  0  0  0
    9.3245  -13.8223   22.8714 O   0  0  0  0  0  0  0  0  0  0  0  0
    8.1512  -20.0540   19.7901 N   0  0  0  0  0  0  0  0  0  0  0  0
    7.7896  -13.5243   24.6087 C   0  0  0  0  0  0  0  0  0  0  0  0
    6.4736  -13.2963   25.1536 C   0  0  0  0  0  0  0  0  0  0  0  0
    6.6694  -12.8419   26.5895 C   0  0  0  0  0  0  0  0  0  0  0  0
    8.1194  -12.3453   26.5598 C   0  0  1  0  0  0  0  0  0  0  0  0
    8.7347  -13.4128   25.6775 C   0  0  0  0  0  0  0  0  0  0  0  0
    8.7086  -14.6772   26.4932 O   0  0  0  0  0  0  0  0  0  0  0  0
    7.6268  -15.2754   26.7216 C   0  0  0  0  0  0  0  0  0  0  0  0
   10.8525  -17.4978   25.4612 C   0  0  2  0  0  0  0  0  0  0  0  0
   11.1129  -17.3675   26.9464 C   0  0  0  0  0  0  0  0  0  0  0  0
   12.4607  -16.7612   27.1694 C   0  0  2  0  0  0  0  0  0  0  0  0
    9.9791  -16.5889   27.5532 N   0  0  0  0  0  0  0  0  0  0  0  0
    9.8879  -15.2412   27.0343 C   0  0  0  0  0  0  0  0  0  0  0  0
   10.2243  -16.5055   29.0059 O   0  0  0  0  0  0  0  0  0  0  0  0
   10.5301  -15.4151   29.5323 O   0  0  0  0  0  0  0  0  0  0  0  0
  2  3  2  0
  2  1  1  0
  4  2  1  0
  5  4  1  0
  6  7  1  0
  6  5  1  0
  7  8  1  0
  8  9  1  6
 10 12  1  0
 10  8  1  0
 11 10  2  0
 12 16  1  0
 13 14  1  0
 13 12  1  0
 14 15  1  0
 16 15  1  0
 16 17  1  1
 17 18  2  0
 20 19  1  1
 20 21  1  0
 20 22  1  0
 22 23  1  1
 23 17  1  0
 24 22  1  0
 25 24  2  0
 26 24  1  0
M  END
$$$$
