RPV.pdb
     RDKit          3D

 26 26  0  0  1  0  0  0  0  0999 V2000
   14.0135  -15.1401   17.6022 N   0  0  0  0  0  0  0  0  0  0  0  0
   12.7701  -15.8536   17.5428 C   0  0  0  0  0  0  0  0  0  0  0  0
   12.5566  -16.6088   16.5412 N   0  0  0  0  0  0  0  0  0  0  0  0
   11.7961  -15.7282   18.5739 N   0  0  0  0  0  0  0  0  0  0  0  0
   12.0128  -14.8975   19.7280 C   0  0  0  0  0  0  0  0  0  0  0  0
   10.8362  -14.0579   20.1280 C   0  0  0  0  0  0  0  0  0  0  0  0
    9.5493  -14.6690   19.6296 C   0  0  0  0  0  0  0  0  0  0  0  0
    8.3077  -13.9208   20.0159 C   0  0  2  0  0  0  0  0  0  0  0  0
    8.4757  -12.5576   19.5535 N   0  0  0  0  0  0  0  0  0  0  0  0
    8.0858  -13.9318   21.4874 C   0  0  0  0  0  0  0  0  0  0  0  0
    8.1893  -12.8059   22.0932 O   0  0  0  0  0  0  0  0  0  0  0  0
   11.6996  -17.1827   16.4941 N   0  0  0  0  0  0  0  0  0  0  0  0
    7.7738  -15.1023   22.2228 C   0  0  0  0  0  0  0  0  0  0  0  0
    7.8190  -16.4578   21.7313 C   0  0  0  0  0  0  0  0  0  0  0  0
    7.2125  -17.3340   22.8135 C   0  0  0  0  0  0  0  0  0  0  0  0
    6.3910  -16.3141   23.6103 C   0  0  1  0  0  0  0  0  0  0  0  0
    7.3525  -15.1429   23.5898 C   0  0  0  0  0  0  0  0  0  0  0  0
    8.5142  -15.5573   24.4521 O   0  0  0  0  0  0  0  0  0  0  0  0
    9.5153  -16.1314   23.9535 C   0  0  0  0  0  0  0  0  0  0  0  0
    9.6964  -13.0058   27.2748 C   0  0  2  0  0  0  0  0  0  0  0  0
    9.6680  -14.4155   27.8248 C   0  0  0  0  0  0  0  0  0  0  0  0
    8.4722  -14.5879   28.7048 C   0  0  2  0  0  0  0  0  0  0  0  0
    9.7223  -15.3708   26.6653 N   0  0  0  0  0  0  0  0  0  0  0  0
    8.5296  -15.3228   25.8472 C   0  0  0  0  0  0  0  0  0  0  0  0
    9.8454  -16.7337   27.2174 O   0  0  0  0  0  0  0  0  0  0  0  0
   10.8999  -17.0927   27.7818 O   0  0  0  0  0  0  0  0  0  0  0  0
  2  3  2  0
  2  1  1  0
  4  2  1  0
  5  4  1  0
  6  7  1  0
  6  5  1  0
  7  8  1  0
  8  9  1  1
 10 12  1  0
 10  8  1  0
 11 10  2  0
 12 16  1  0
 13 14  1  0
 13 12  1  0
 14 15  1  0
 16 15  1  0
 16 17  1  1
 17 18  2  0
 20 19  1  1
 20 21  1  0
 20 22  1  0
 22 23  1  1
 23 17  1  0
 24 22  1  0
 25 24  2  0
 26 24  1  0
M  END
$$$$
