RPV.pdb
     RDKit          3D

 26 26  0  0  1  0  0  0  0  0999 V2000
    8.9419  -12.3099   19.1295 N   0  0  0  0  0  0  0  0  0  0  0  0
    8.7130  -13.3799   18.2014 C   0  0  0  0  0  0  0  0  0  0  0  0
    7.7697  -13.2529   17.3569 N   0  0  0  0  0  0  0  0  0  0  0  0
    9.5167  -14.5553   18.2157 N   0  0  0  0  0  0  0  0  0  0  0  0
    9.5906  -15.4123   19.3686 C   0  0  0  0  0  0  0  0  0  0  0  0
    8.3688  -16.2478   19.6101 C   0  0  0  0  0  0  0  0  0  0  0  0
    8.6204  -17.2596   20.7015 C   0  0  0  0  0  0  0  0  0  0  0  0
    7.8447  -17.0271   21.9645 C   0  0  2  0  0  0  0  0  0  0  0  0
    6.5290  -16.5632   21.5720 N   0  0  0  0  0  0  0  0  0  0  0  0
    8.4967  -16.0161   22.8406 C   0  0  0  0  0  0  0  0  0  0  0  0
    9.7764  -15.9469   22.7854 O   0  0  0  0  0  0  0  0  0  0  0  0
    7.6060  -13.9819   16.6445 N   0  0  0  0  0  0  0  0  0  0  0  0
    7.7804  -15.1531   23.7067 C   0  0  0  0  0  0  0  0  0  0  0  0
    6.3572  -14.9181   23.6938 C   0  0  0  0  0  0  0  0  0  0  0  0
    6.0951  -13.7780   24.6623 C   0  0  0  0  0  0  0  0  0  0  0  0
    7.4761  -13.1172   24.7402 C   0  0  1  0  0  0  0  0  0  0  0  0
    8.3494  -14.3557   24.7500 C   0  0  0  0  0  0  0  0  0  0  0  0
    8.0935  -15.0214   26.0752 O   0  0  0  0  0  0  0  0  0  0  0  0
    7.0370  -14.7950   26.7176 C   0  0  0  0  0  0  0  0  0  0  0  0
   11.2254  -14.5169   29.3366 C   0  0  2  0  0  0  0  0  0  0  0  0
    9.9386  -14.6696   28.5545 C   0  0  0  0  0  0  0  0  0  0  0  0
    9.3764  -13.3202   28.2430 C   0  0  1  0  0  0  0  0  0  0  0  0
   10.2253  -15.5122   27.3430 N   0  0  0  0  0  0  0  0  0  0  0  0
    9.0219  -15.9205   26.6507 C   0  0  0  0  0  0  0  0  0  0  0  0
   10.9252  -16.7275   27.8021 O   0  0  0  0  0  0  0  0  0  0  0  0
   12.0474  -16.6426   28.3432 O   0  0  0  0  0  0  0  0  0  0  0  0
  2  3  2  0
  2  1  1  0
  4  2  1  0
  5  4  1  0
  6  7  1  0
  6  5  1  0
  7  8  1  0
  8  9  1  6
 10 12  1  0
 10  8  1  0
 11 10  2  0
 12 16  1  0
 13 14  1  0
 13 12  1  0
 14 15  1  0
 16 15  1  0
 16 17  1  1
 17 18  2  0
 20 19  1  1
 20 21  1  0
 20 22  1  0
 22 23  1  1
 23 17  1  0
 24 22  1  0
 25 24  2  0
 26 24  1  0
M  END
$$$$
