RPV.pdb
     RDKit          3D

 26 26  0  0  1  0  0  0  0  0999 V2000
    9.0136  -20.1397   23.0022 N   0  0  0  0  0  0  0  0  0  0  0  0
    9.8584  -19.8583   21.8771 C   0  0  0  0  0  0  0  0  0  0  0  0
   10.4059  -20.8370   21.2758 N   0  0  0  0  0  0  0  0  0  0  0  0
   10.0817  -18.5229   21.4362 N   0  0  0  0  0  0  0  0  0  0  0  0
    9.3165  -17.4161   21.9446 C   0  0  0  0  0  0  0  0  0  0  0  0
    8.0974  -17.0729   21.1413 C   0  0  0  0  0  0  0  0  0  0  0  0
    7.2628  -16.0362   21.8529 C   0  0  0  0  0  0  0  0  0  0  0  0
    7.7546  -14.6263   21.7080 C   0  0  2  0  0  0  0  0  0  0  0  0
    8.6623  -14.6103   20.5783 N   0  0  0  0  0  0  0  0  0  0  0  0
    8.4602  -14.1540   22.9302 C   0  0  0  0  0  0  0  0  0  0  0  0
    9.7222  -13.9508   22.8235 O   0  0  0  0  0  0  0  0  0  0  0  0
   11.0538  -20.6694   20.4895 N   0  0  0  0  0  0  0  0  0  0  0  0
    7.8116  -13.9269   24.1695 C   0  0  0  0  0  0  0  0  0  0  0  0
    6.4055  -14.0981   24.4421 C   0  0  0  0  0  0  0  0  0  0  0  0
    6.1613  -13.5450   25.8353 C   0  0  0  0  0  0  0  0  0  0  0  0
    7.3721  -12.6224   26.0164 C   0  0  1  0  0  0  0  0  0  0  0  0
    8.4430  -13.4808   25.3738 C   0  0  0  0  0  0  0  0  0  0  0  0
    8.6294  -14.6546   26.2971 O   0  0  0  0  0  0  0  0  0  0  0  0
    8.1434  -15.7795   26.0169 C   0  0  0  0  0  0  0  0  0  0  0  0
   11.7437  -13.4500   28.7702 C   0  0  2  0  0  0  0  0  0  0  0  0
   11.2301  -14.8436   29.0611 C   0  0  0  0  0  0  0  0  0  0  0  0
   10.3906  -14.8221   30.2976 C   0  0  2  0  0  0  0  0  0  0  0  0
   10.5125  -15.3421   27.8378 N   0  0  0  0  0  0  0  0  0  0  0  0
    9.3511  -14.5440   27.5090 C   0  0  0  0  0  0  0  0  0  0  0  0
   10.0591  -16.7181   28.1181 O   0  0  0  0  0  0  0  0  0  0  0  0
    8.8437  -16.9638   28.2662 O   0  0  0  0  0  0  0  0  0  0  0  0
  2  3  2  0
  2  1  1  0
  4  2  1  0
  5  4  1  0
  6  7  1  0
  6  5  1  0
  7  8  1  0
  8  9  1  6
 10 12  1  0
 10  8  1  0
 11 10  2  0
 12 16  1  0
 13 14  1  0
 13 12  1  0
 14 15  1  0
 16 15  1  0
 16 17  1  1
 17 18  2  0
 20 19  1  1
 20 21  1  0
 20 22  1  0
 22 23  1  6
 23 17  1  0
 24 22  1  0
 25 24  2  0
 26 24  1  0
M  END
$$$$
