RPV.pdb
     RDKit          3D

 26 26  0  0  1  0  0  0  0  0999 V2000
    8.5857  -15.1699   15.2452 N   0  0  0  0  0  0  0  0  0  0  0  0
    8.1237  -13.8875   15.6932 C   0  0  0  0  0  0  0  0  0  0  0  0
    7.8574  -13.0039   14.8172 N   0  0  0  0  0  0  0  0  0  0  0  0
    7.9616  -13.6031   17.0790 N   0  0  0  0  0  0  0  0  0  0  0  0
    8.7108  -14.2985   18.0909 C   0  0  0  0  0  0  0  0  0  0  0  0
    7.8779  -15.0702   19.0708 C   0  0  0  0  0  0  0  0  0  0  0  0
    8.7546  -15.8512   20.0191 C   0  0  0  0  0  0  0  0  0  0  0  0
    8.1495  -17.1260   20.5283 C   0  0  2  0  0  0  0  0  0  0  0  0
    7.0308  -17.4377   19.6613 N   0  0  0  0  0  0  0  0  0  0  0  0
    7.6788  -16.9966   21.9342 C   0  0  0  0  0  0  0  0  0  0  0  0
    6.4336  -16.7387   22.1025 O   0  0  0  0  0  0  0  0  0  0  0  0
    7.6377  -12.0363   15.1025 N   0  0  0  0  0  0  0  0  0  0  0  0
    8.5272  -17.1431   23.0598 C   0  0  0  0  0  0  0  0  0  0  0  0
    9.9298  -17.4789   23.0349 C   0  0  0  0  0  0  0  0  0  0  0  0
   10.3469  -17.7151   24.4760 C   0  0  0  0  0  0  0  0  0  0  0  0
    8.9977  -18.0069   25.1426 C   0  0  1  0  0  0  0  0  0  0  0  0
    8.1357  -16.9862   24.4274 C   0  0  0  0  0  0  0  0  0  0  0  0
    8.6017  -15.6439   24.9231 O   0  0  0  0  0  0  0  0  0  0  0  0
    9.7299  -15.1930   24.6004 C   0  0  0  0  0  0  0  0  0  0  0  0
    7.4113  -11.2472   26.7885 C   0  0  2  0  0  0  0  0  0  0  0  0
    6.9360  -12.6204   26.3657 C   0  0  0  0  0  0  0  0  0  0  0  0
    6.0672  -12.5012   25.1553 C   0  0  1  0  0  0  0  0  0  0  0  0
    8.1439  -13.4944   26.1733 N   0  0  0  0  0  0  0  0  0  0  0  0
    7.7993  -14.8397   25.7665 C   0  0  0  0  0  0  0  0  0  0  0  0
    8.8469  -13.5727   27.4684 O   0  0  0  0  0  0  0  0  0  0  0  0
    8.6939  -14.5656   28.2100 O   0  0  0  0  0  0  0  0  0  0  0  0
  2  3  2  0
  2  1  1  0
  4  2  1  0
  5  4  1  0
  6  7  1  0
  6  5  1  0
  7  8  1  0
  8  9  1  6
 10 12  1  0
 10  8  1  0
 11 10  2  0
 12 16  1  0
 13 14  1  0
 13 12  1  0
 14 15  1  0
 16 15  1  0
 16 17  1  1
 17 18  2  0
 20 19  1  1
 20 21  1  0
 20 22  1  0
 22 23  1  1
 23 17  1  0
 24 22  1  0
 25 24  2  0
 26 24  1  0
M  END
$$$$
