RPV.pdb
     RDKit          3D

 26 26  0  0  1  0  0  0  0  0999 V2000
    5.5711  -21.8333   17.0649 N   0  0  0  0  0  0  0  0  0  0  0  0
    6.1279  -20.8634   17.9637 C   0  0  0  0  0  0  0  0  0  0  0  0
    6.5731  -19.7760   17.4754 N   0  0  0  0  0  0  0  0  0  0  0  0
    6.1824  -21.1014   19.3666 N   0  0  0  0  0  0  0  0  0  0  0  0
    6.7088  -20.1263   20.2836 C   0  0  0  0  0  0  0  0  0  0  0  0
    7.6986  -19.1711   19.6858 C   0  0  0  0  0  0  0  0  0  0  0  0
    8.2199  -18.2169   20.7325 C   0  0  0  0  0  0  0  0  0  0  0  0
    9.1865  -17.1901   20.2207 C   0  0  2  0  0  0  0  0  0  0  0  0
   10.4477  -17.8699   20.0024 N   0  0  0  0  0  0  0  0  0  0  0  0
    9.3748  -16.0726   21.1854 C   0  0  0  0  0  0  0  0  0  0  0  0
   10.4390  -16.1036   21.9009 O   0  0  0  0  0  0  0  0  0  0  0  0
    7.0737  -19.1013   18.0755 N   0  0  0  0  0  0  0  0  0  0  0  0
    8.4523  -15.0081   21.3392 C   0  0  0  0  0  0  0  0  0  0  0  0
    7.2294  -14.8230   20.5969 C   0  0  0  0  0  0  0  0  0  0  0  0
    6.6946  -13.4522   20.9731 C   0  0  0  0  0  0  0  0  0  0  0  0
    7.9577  -12.7644   21.5034 C   0  0  1  0  0  0  0  0  0  0  0  0
    8.5767  -13.9212   22.2618 C   0  0  0  0  0  0  0  0  0  0  0  0
    7.6701  -14.1660   23.4378 O   0  0  0  0  0  0  0  0  0  0  0  0
    6.5795  -14.7750   23.2960 C   0  0  0  0  0  0  0  0  0  0  0  0
    9.1627  -14.2863   27.3333 C   0  0  2  0  0  0  0  0  0  0  0  0
    7.8608  -13.5292   27.1843 C   0  0  0  0  0  0  0  0  0  0  0  0
    8.1244  -12.0591   27.2430 C   0  0  2  0  0  0  0  0  0  0  0  0
    7.1972  -13.9858   25.9150 N   0  0  0  0  0  0  0  0  0  0  0  0
    8.0013  -13.7248   24.7406 C   0  0  0  0  0  0  0  0  0  0  0  0
    5.9324  -13.2376   25.7804 O   0  0  0  0  0  0  0  0  0  0  0  0
    5.8328  -12.3116   24.9485 O   0  0  0  0  0  0  0  0  0  0  0  0
  2  3  2  0
  2  1  1  0
  4  2  1  0
  5  4  1  0
  6  7  1  0
  6  5  1  0
  7  8  1  0
  8  9  1  1
 10 12  1  0
 10  8  1  0
 11 10  2  0
 12 16  1  0
 13 14  1  0
 13 12  1  0
 14 15  1  0
 16 15  1  0
 16 17  1  1
 17 18  2  0
 20 19  1  1
 20 21  1  0
 20 22  1  0
 22 23  1  1
 23 17  1  0
 24 22  1  0
 25 24  2  0
 26 24  1  0
M  END
$$$$
