RPV.pdb
     RDKit          3D

 26 26  0  0  1  0  0  0  0  0999 V2000
    6.7332  -18.3051   17.5737 N   0  0  0  0  0  0  0  0  0  0  0  0
    7.1251  -19.2636   18.5669 C   0  0  0  0  0  0  0  0  0  0  0  0
    6.3646  -20.2628   18.7724 N   0  0  0  0  0  0  0  0  0  0  0  0
    8.3327  -19.1105   19.3057 N   0  0  0  0  0  0  0  0  0  0  0  0
    8.3989  -18.3073   20.4971 C   0  0  0  0  0  0  0  0  0  0  0  0
    7.5760  -17.0541   20.4568 C   0  0  0  0  0  0  0  0  0  0  0  0
    7.6573  -16.3187   21.7723 C   0  0  0  0  0  0  0  0  0  0  0  0
    8.0096  -14.8649   21.6585 C   0  0  2  0  0  0  0  0  0  0  0  0
    8.9505  -14.7435   20.5629 N   0  0  0  0  0  0  0  0  0  0  0  0
    8.6204  -14.3401   22.9101 C   0  0  0  0  0  0  0  0  0  0  0  0
    9.8875  -14.1410   22.8922 O   0  0  0  0  0  0  0  0  0  0  0  0
    6.5656  -20.9217   19.5414 N   0  0  0  0  0  0  0  0  0  0  0  0
    7.8789  -14.0602   24.0848 C   0  0  0  0  0  0  0  0  0  0  0  0
    6.4492  -14.1723   24.2400 C   0  0  0  0  0  0  0  0  0  0  0  0
    6.1103  -13.5783   25.5960 C   0  0  0  0  0  0  0  0  0  0  0  0
    7.3368  -12.6978   25.8612 C   0  0  1  0  0  0  0  0  0  0  0  0
    8.4235  -13.6103   25.3294 C   0  0  0  0  0  0  0  0  0  0  0  0
    8.4852  -14.7685   26.2884 O   0  0  0  0  0  0  0  0  0  0  0  0
    8.0039  -15.8881   25.9798 C   0  0  0  0  0  0  0  0  0  0  0  0
   11.8748  -15.9009   29.7396 C   0  0  2  0  0  0  0  0  0  0  0  0
   10.6732  -15.0491   29.3916 C   0  0  0  0  0  0  0  0  0  0  0  0
   11.0098  -13.6048   29.5778 C   0  0  1  0  0  0  0  0  0  0  0  0
   10.2358  -15.4049   27.9980 N   0  0  0  0  0  0  0  0  0  0  0  0
    9.0799  -14.6488   27.5665 C   0  0  0  0  0  0  0  0  0  0  0  0
    9.8745  -16.8356   27.9970 O   0  0  0  0  0  0  0  0  0  0  0  0
    8.6810  -17.1846   27.8828 O   0  0  0  0  0  0  0  0  0  0  0  0
  2  3  2  0
  2  1  1  0
  4  2  1  0
  5  4  1  0
  6  7  1  0
  6  5  1  0
  7  8  1  0
  8  9  1  6
 10 12  1  0
 10  8  1  0
 11 10  2  0
 12 16  1  0
 13 14  1  0
 13 12  1  0
 14 15  1  0
 16 15  1  0
 16 17  1  1
 17 18  2  0
 20 19  1  1
 20 21  1  0
 20 22  1  0
 22 23  1  1
 23 17  1  0
 24 22  1  0
 25 24  2  0
 26 24  1  0
M  END
$$$$
