RPV.pdb
     RDKit          3D

 26 26  0  0  1  0  0  0  0  0999 V2000
    7.9270  -20.2491   19.2642 N   0  0  0  0  0  0  0  0  0  0  0  0
    6.6168  -19.6678   19.1985 C   0  0  0  0  0  0  0  0  0  0  0  0
    5.6866  -20.3405   18.6497 N   0  0  0  0  0  0  0  0  0  0  0  0
    6.3546  -18.3743   19.7332 N   0  0  0  0  0  0  0  0  0  0  0  0
    6.7176  -17.1729   19.0305 C   0  0  0  0  0  0  0  0  0  0  0  0
    7.6948  -16.2934   19.7524 C   0  0  0  0  0  0  0  0  0  0  0  0
    7.9338  -15.0167   18.9838 C   0  0  0  0  0  0  0  0  0  0  0  0
    7.7846  -13.7606   19.7904 C   0  0  2  0  0  0  0  0  0  0  0  0
    8.2676  -12.6705   18.9666 N   0  0  0  0  0  0  0  0  0  0  0  0
    8.5605  -13.8178   21.0591 C   0  0  0  0  0  0  0  0  0  0  0  0
    9.8316  -13.6745   20.9629 O   0  0  0  0  0  0  0  0  0  0  0  0
    4.7317  -19.9533   18.5846 N   0  0  0  0  0  0  0  0  0  0  0  0
    7.9675  -14.0181   22.3304 C   0  0  0  0  0  0  0  0  0  0  0  0
    6.5628  -14.2082   22.5978 C   0  0  0  0  0  0  0  0  0  0  0  0
    6.3988  -14.1788   24.1074 C   0  0  0  0  0  0  0  0  0  0  0  0
    7.6707  -13.4408   24.5405 C   0  0  2  0  0  0  0  0  0  0  0  0
    8.6640  -14.0627   23.5798 C   0  0  0  0  0  0  0  0  0  0  0  0
    8.8053  -15.4964   24.0150 O   0  0  0  0  0  0  0  0  0  0  0  0
    7.8737  -16.3207   23.8333 C   0  0  0  0  0  0  0  0  0  0  0  0
   12.5421  -18.6524   24.2280 C   0  0  2  0  0  0  0  0  0  0  0  0
   11.9403  -17.2887   23.9656 C   0  0  0  0  0  0  0  0  0  0  0  0
   12.0884  -16.9437   22.5189 C   0  0  1  0  0  0  0  0  0  0  0  0
   10.5182  -17.3038   24.4529 N   0  0  0  0  0  0  0  0  0  0  0  0
    9.9799  -15.9740   24.6425 C   0  0  0  0  0  0  0  0  0  0  0  0
   10.5022  -17.9953   25.7564 O   0  0  0  0  0  0  0  0  0  0  0  0
   10.5024  -19.2429   25.8085 O   0  0  0  0  0  0  0  0  0  0  0  0
  2  3  2  0
  2  1  1  0
  4  2  1  0
  5  4  1  0
  6  7  1  0
  6  5  1  0
  7  8  1  0
  8  9  1  6
 10 12  1  0
 10  8  1  0
 11 10  2  0
 12 16  1  0
 13 14  1  0
 13 12  1  0
 14 15  1  0
 16 15  1  0
 16 17  1  1
 17 18  2  0
 20 19  1  1
 20 21  1  0
 20 22  1  0
 22 23  1  1
 23 17  1  0
 24 22  1  0
 25 24  2  0
 26 24  1  0
M  END
$$$$
