FQP.pdb
     RDKit          3D

 28 29  0  0  1  0  0  0  0  0999 V2000
   28.8463  -22.6667    9.7723 N   0  0  0  0  0  0  0  0  0  0  0  0
   30.2576  -22.9904    9.7456 C   0  0  1  0  0  0  0  0  0  0  0  0
   31.0909  -21.7183    9.8535 C   0  0  0  0  0  0  0  0  0  0  0  0
   31.2231  -21.1680    8.4852 C   0  0  0  0  0  0  0  0  0  0  0  0
   32.3787  -21.4320    7.7773 C   0  0  0  0  0  0  0  0  0  0  0  0
   32.5343  -20.9284    6.4859 C   0  0  0  0  0  0  0  0  0  0  0  0
   31.4971  -20.1728    5.9698 C   0  0  0  0  0  0  0  0  0  0  0  0
   30.3458  -19.9194    6.6963 C   0  0  0  0  0  0  0  0  0  0  0  0
   30.1985  -20.4154    7.9620 C   0  0  0  0  0  0  0  0  0  0  0  0
   30.5791  -23.8315   10.9165 C   0  0  0  0  0  0  0  0  0  0  0  0
   29.8913  -23.7127   11.9760 O   0  0  0  0  0  0  0  0  0  0  0  0
   31.7202  -29.3360   10.0958 N   0  0  0  0  0  0  0  0  0  0  0  0
   30.4634  -28.8998   10.5989 C   0  0  0  0  0  0  0  0  0  0  0  0
   29.4617  -29.6288   10.5408 O   0  0  0  0  0  0  0  0  0  0  0  0
   30.4219  -27.5131   11.1991 C   0  0  0  0  0  0  0  0  0  0  0  0
   31.7924  -27.0776   11.5198 C   0  0  0  0  0  0  0  0  0  0  0  0
   31.7926  -25.6587   12.1257 C   0  0  2  0  0  0  0  0  0  0  0  0
   31.6208  -24.7717   10.9250 N   0  0  0  0  0  0  0  0  0  0  0  0
   33.0937  -25.3068   12.6748 C   0  0  0  0  0  0  0  0  0  0  0  0
   34.0329  -25.0128   11.8464 O   0  0  0  0  0  0  0  0  0  0  0  0
   33.3858  -25.2619   14.0380 N   0  0  0  0  0  0  0  0  0  0  0  0
   32.3219  -25.4995   15.0551 C   0  0  0  0  0  0  0  0  0  0  0  0
   33.1382  -26.0395   16.2005 C   0  0  0  0  0  0  0  0  0  0  0  0
   34.2684  -24.9958   16.2156 C   0  0  0  0  0  0  0  0  0  0  0  0
   34.6121  -24.9999   14.7248 C   0  0  1  0  0  0  0  0  0  0  0  0
   35.5744  -26.1575   14.5729 C   0  0  0  0  0  0  0  0  0  0  0  0
   35.2749  -27.2265   13.9989 O   0  0  0  0  0  0  0  0  0  0  0  0
   36.8368  -25.9960   15.1033 O   0  0  0  0  0  0  0  0  0  0  0  0
  2 10  1  0
  2  1  1  1
  3  2  1  0
  4  3  1  0
  5  4  2  0
  6  5  1  0
  7  8  1  0
  7  6  2  0
  8  9  2  0
  9  4  1  0
 10 11  2  0
 13 12  1  0
 14 13  2  0
 15 13  1  0
 16 15  1  0
 17 16  1  6
 18 17  1  0
 18 10  1  0
 19 17  1  0
 20 19  2  0
 21 19  1  0
 21 25  1  0
 22 23  1  0
 22 21  1  0
 23 24  1  0
 24 25  1  0
 25 26  1  1
 26 28  1  0
 27 26  2  0
M  END
$$$$
