FQP.pdb
     RDKit          3D

 28 29  0  0  1  0  0  0  0  0999 V2000
   28.8816  -20.6423   -9.4742 N   0  0  0  0  0  0  0  0  0  0  0  0
   27.4520  -20.6128   -9.2446 C   0  0  1  0  0  0  0  0  0  0  0  0
   27.0686  -19.3521   -8.4780 C   0  0  0  0  0  0  0  0  0  0  0  0
   27.6173  -19.4916   -7.1099 C   0  0  0  0  0  0  0  0  0  0  0  0
   27.3480  -18.5005   -6.1872 C   0  0  0  0  0  0  0  0  0  0  0  0
   27.8500  -18.6020   -4.8899 C   0  0  0  0  0  0  0  0  0  0  0  0
   28.6098  -19.7178   -4.5886 C   0  0  0  0  0  0  0  0  0  0  0  0
   28.8686  -20.7012   -5.5286 C   0  0  0  0  0  0  0  0  0  0  0  0
   28.3740  -20.5965   -6.7991 C   0  0  0  0  0  0  0  0  0  0  0  0
   26.7577  -20.5679  -10.5476 C   0  0  0  0  0  0  0  0  0  0  0  0
   27.1887  -19.7942  -11.4562 O   0  0  0  0  0  0  0  0  0  0  0  0
   25.2630  -25.2060  -13.6411 N   0  0  0  0  0  0  0  0  0  0  0  0
   24.4155  -24.3581  -14.4065 C   0  0  0  0  0  0  0  0  0  0  0  0
   23.8277  -24.7800  -15.4138 O   0  0  0  0  0  0  0  0  0  0  0  0
   24.2771  -22.9316  -13.9261 C   0  0  0  0  0  0  0  0  0  0  0  0
   25.0105  -22.7689  -12.6587 C   0  0  0  0  0  0  0  0  0  0  0  0
   25.0457  -21.2878  -12.2281 C   0  0  2  0  0  0  0  0  0  0  0  0
   25.6278  -21.3454  -10.8440 N   0  0  0  0  0  0  0  0  0  0  0  0
   23.7067  -20.7445  -12.0546 C   0  0  0  0  0  0  0  0  0  0  0  0
   23.0757  -21.0423  -10.9739 O   0  0  0  0  0  0  0  0  0  0  0  0
   23.0671  -19.9188  -12.9793 N   0  0  0  0  0  0  0  0  0  0  0  0
   23.8020  -19.3824  -14.1603 C   0  0  0  0  0  0  0  0  0  0  0  0
   22.6732  -19.2060  -15.1424 C   0  0  0  0  0  0  0  0  0  0  0  0
   21.6601  -18.4900  -14.2325 C   0  0  0  0  0  0  0  0  0  0  0  0
   21.7254  -19.4271  -13.0249 C   0  0  1  0  0  0  0  0  0  0  0  0
   20.7550  -20.5361  -13.3677 C   0  0  0  0  0  0  0  0  0  0  0  0
   21.0880  -21.5725  -13.9815 O   0  0  0  0  0  0  0  0  0  0  0  0
   19.4455  -20.3673  -12.9702 O   0  0  0  0  0  0  0  0  0  0  0  0
  2 10  1  0
  2  1  1  6
  3  2  1  0
  4  3  1  0
  5  4  2  0
  6  5  1  0
  7  8  1  0
  7  6  2  0
  8  9  2  0
  9  4  1  0
 10 11  2  0
 13 12  1  0
 14 13  2  0
 15 13  1  0
 16 15  1  0
 17 16  1  1
 18 17  1  0
 18 10  1  0
 19 17  1  0
 20 19  2  0
 21 19  1  0
 21 25  1  0
 22 23  1  0
 22 21  1  0
 23 24  1  0
 24 25  1  0
 25 26  1  6
 26 28  1  0
 27 26  2  0
M  END
$$$$
