FQP.pdb
     RDKit          3D

 28 29  0  0  1  0  0  0  0  0999 V2000
   19.3743  -12.7713  -18.1783 N   0  0  0  0  0  0  0  0  0  0  0  0
   19.7324  -12.2507  -16.8753 C   0  0  1  0  0  0  0  0  0  0  0  0
   21.1170  -12.7463  -16.4735 C   0  0  0  0  0  0  0  0  0  0  0  0
   20.9867  -14.1855  -16.1508 C   0  0  0  0  0  0  0  0  0  0  0  0
   20.5228  -14.5414  -14.9000 C   0  0  0  0  0  0  0  0  0  0  0  0
   20.3884  -15.8886  -14.5647 C   0  0  0  0  0  0  0  0  0  0  0  0
   20.7353  -16.8199  -15.5266 C   0  0  0  0  0  0  0  0  0  0  0  0
   21.1987  -16.4424  -16.7757 C   0  0  0  0  0  0  0  0  0  0  0  0
   21.3287  -15.1202  -17.0992 C   0  0  0  0  0  0  0  0  0  0  0  0
   19.7929  -10.7766  -16.9476 C   0  0  0  0  0  0  0  0  0  0  0  0
   20.3008  -10.2239  -17.9706 O   0  0  0  0  0  0  0  0  0  0  0  0
   15.5377   -7.1537  -15.0277 N   0  0  0  0  0  0  0  0  0  0  0  0
   15.5681   -7.9886  -16.1787 C   0  0  0  0  0  0  0  0  0  0  0  0
   14.5213   -8.3374  -16.7453 O   0  0  0  0  0  0  0  0  0  0  0  0
   16.9334   -8.4205  -16.6627 C   0  0  0  0  0  0  0  0  0  0  0  0
   17.9555   -7.9865  -15.6944 C   0  0  0  0  0  0  0  0  0  0  0  0
   19.3611   -8.4481  -16.1321 C   0  0  2  0  0  0  0  0  0  0  0  0
   19.3125   -9.9366  -15.9315 N   0  0  0  0  0  0  0  0  0  0  0  0
   20.3924   -7.9754  -15.2204 C   0  0  0  0  0  0  0  0  0  0  0  0
   20.4604   -8.5232  -14.0584 O   0  0  0  0  0  0  0  0  0  0  0  0
   21.3135   -6.9736  -15.5264 N   0  0  0  0  0  0  0  0  0  0  0  0
   21.3501   -6.3590  -16.8841 C   0  0  0  0  0  0  0  0  0  0  0  0
   21.8982   -4.9927  -16.5638 C   0  0  0  0  0  0  0  0  0  0  0  0
   23.0744   -5.4010  -15.6600 C   0  0  0  0  0  0  0  0  0  0  0  0
   22.3334   -6.3645  -14.7308 C   0  0  1  0  0  0  0  0  0  0  0  0
   21.7297   -5.4649  -13.6747 C   0  0  0  0  0  0  0  0  0  0  0  0
   22.3763   -5.0215  -12.7014 O   0  0  0  0  0  0  0  0  0  0  0  0
   20.3990   -5.1347  -13.8198 O   0  0  0  0  0  0  0  0  0  0  0  0
  2 10  1  0
  2  1  1  6
  3  2  1  0
  4  3  1  0
  5  4  2  0
  6  5  1  0
  7  8  1  0
  7  6  2  0
  8  9  2  0
  9  4  1  0
 10 11  2  0
 13 12  1  0
 14 13  2  0
 15 13  1  0
 16 15  1  0
 17 16  1  1
 18 17  1  0
 18 10  1  0
 19 17  1  0
 20 19  2  0
 21 19  1  0
 21 25  1  0
 22 23  1  0
 22 21  1  0
 23 24  1  0
 24 25  1  0
 25 26  1  1
 26 28  1  0
 27 26  2  0
M  END
$$$$
