FQP.pdb
     RDKit          3D

 28 29  0  0  1  0  0  0  0  0999 V2000
   21.2568  -16.4898  -15.9947 N   0  0  0  0  0  0  0  0  0  0  0  0
   22.0284  -17.5734  -16.5669 C   0  0  1  0  0  0  0  0  0  0  0  0
   22.8799  -17.0595  -17.7224 C   0  0  0  0  0  0  0  0  0  0  0  0
   22.0132  -17.0332  -18.9227 C   0  0  0  0  0  0  0  0  0  0  0  0
   21.7078  -15.8115  -19.4887 C   0  0  0  0  0  0  0  0  0  0  0  0
   20.8941  -15.7523  -20.6200 C   0  0  0  0  0  0  0  0  0  0  0  0
   20.4247  -16.9501  -21.1278 C   0  0  0  0  0  0  0  0  0  0  0  0
   20.7426  -18.1655  -20.5452 C   0  0  0  0  0  0  0  0  0  0  0  0
   21.5407  -18.2177  -19.4362 C   0  0  0  0  0  0  0  0  0  0  0  0
   22.9483  -18.1022  -15.5394 C   0  0  0  0  0  0  0  0  0  0  0  0
   23.2308  -17.3876  -14.5297 O   0  0  0  0  0  0  0  0  0  0  0  0
   25.1405  -21.5829  -11.9089 N   0  0  0  0  0  0  0  0  0  0  0  0
   24.0169  -20.8648  -11.4138 C   0  0  0  0  0  0  0  0  0  0  0  0
   23.8878  -20.6327  -10.2023 O   0  0  0  0  0  0  0  0  0  0  0  0
   23.0032  -20.4090  -12.4382 C   0  0  0  0  0  0  0  0  0  0  0  0
   23.4089  -20.8837  -13.7727 C   0  0  0  0  0  0  0  0  0  0  0  0
   24.3518  -19.8709  -14.4551 C   0  0  2  0  0  0  0  0  0  0  0  0
   23.5391  -19.3727  -15.6167 N   0  0  0  0  0  0  0  0  0  0  0  0
   25.5060  -20.5261  -15.0523 C   0  0  0  0  0  0  0  0  0  0  0  0
   25.2934  -21.5632  -15.7831 O   0  0  0  0  0  0  0  0  0  0  0  0
   26.8241  -20.0998  -14.8888 N   0  0  0  0  0  0  0  0  0  0  0  0
   27.1722  -19.0684  -13.8702 C   0  0  0  0  0  0  0  0  0  0  0  0
   28.6012  -19.4375  -13.5676 C   0  0  0  0  0  0  0  0  0  0  0  0
   29.1298  -19.5880  -15.0046 C   0  0  0  0  0  0  0  0  0  0  0  0
   28.0223  -20.4791  -15.5704 C   0  0  1  0  0  0  0  0  0  0  0  0
   28.4439  -21.8796  -15.1831 C   0  0  0  0  0  0  0  0  0  0  0  0
   29.3458  -22.5116  -15.7740 O   0  0  0  0  0  0  0  0  0  0  0  0
   27.7831  -22.4614  -14.1220 O   0  0  0  0  0  0  0  0  0  0  0  0
  2 10  1  0
  2  1  1  1
  3  2  1  0
  4  3  1  0
  5  4  2  0
  6  5  1  0
  7  8  1  0
  7  6  2  0
  8  9  2  0
  9  4  1  0
 10 11  2  0
 13 12  1  0
 14 13  2  0
 15 13  1  0
 16 15  1  0
 17 16  1  6
 18 17  1  0
 18 10  1  0
 19 17  1  0
 20 19  2  0
 21 19  1  0
 21 25  1  0
 22 23  1  0
 22 21  1  0
 23 24  1  0
 24 25  1  0
 25 26  1  1
 26 28  1  0
 27 26  2  0
M  END
$$$$
