FQP.pdb
     RDKit          3D

 28 29  0  0  1  0  0  0  0  0999 V2000
   24.8916  -20.9050   -7.5287 N   0  0  0  0  0  0  0  0  0  0  0  0
   25.8516  -20.0999   -8.2550 C   0  0  1  0  0  0  0  0  0  0  0  0
   27.2649  -20.6139   -8.0050 C   0  0  0  0  0  0  0  0  0  0  0  0
   27.7180  -20.0325   -6.7208 C   0  0  0  0  0  0  0  0  0  0  0  0
   28.0458  -20.8887   -5.6886 C   0  0  0  0  0  0  0  0  0  0  0  0
   28.4762  -20.3729   -4.4663 C   0  0  0  0  0  0  0  0  0  0  0  0
   28.5540  -18.9969   -4.3498 C   0  0  0  0  0  0  0  0  0  0  0  0
   28.2205  -18.1549   -5.3975 C   0  0  0  0  0  0  0  0  0  0  0  0
   27.7991  -18.6660   -6.5936 C   0  0  0  0  0  0  0  0  0  0  0  0
   25.5843  -20.2240   -9.7024 C   0  0  0  0  0  0  0  0  0  0  0  0
   24.7011  -21.0415  -10.1044 O   0  0  0  0  0  0  0  0  0  0  0  0
   26.5376  -16.7504  -14.8767 N   0  0  0  0  0  0  0  0  0  0  0  0
   27.4280  -17.8574  -14.9465 C   0  0  0  0  0  0  0  0  0  0  0  0
   28.1534  -18.0350  -15.9367 O   0  0  0  0  0  0  0  0  0  0  0  0
   27.4361  -18.7922  -13.7587 C   0  0  0  0  0  0  0  0  0  0  0  0
   26.5062  -18.2881  -12.7331 C   0  0  0  0  0  0  0  0  0  0  0  0
   25.7253  -19.4470  -12.0793 C   0  0  2  0  0  0  0  0  0  0  0  0
   26.2633  -19.4765  -10.6766 N   0  0  0  0  0  0  0  0  0  0  0  0
   26.0895  -20.7341  -12.6529 C   0  0  0  0  0  0  0  0  0  0  0  0
   27.2765  -21.1753  -12.4269 O   0  0  0  0  0  0  0  0  0  0  0  0
   25.2348  -21.5212  -13.4248 N   0  0  0  0  0  0  0  0  0  0  0  0
   23.8256  -21.1018  -13.6718 C   0  0  0  0  0  0  0  0  0  0  0  0
   23.5579  -21.7683  -14.9962 C   0  0  0  0  0  0  0  0  0  0  0  0
   24.1036  -23.1725  -14.6839 C   0  0  0  0  0  0  0  0  0  0  0  0
   25.4520  -22.7722  -14.0820 C   0  0  1  0  0  0  0  0  0  0  0  0
   26.3546  -22.6012  -15.2842 C   0  0  0  0  0  0  0  0  0  0  0  0
   26.9128  -23.5578  -15.8634 O   0  0  0  0  0  0  0  0  0  0  0  0
   26.5520  -21.3154  -15.7411 O   0  0  0  0  0  0  0  0  0  0  0  0
  2 10  1  0
  2  1  1  1
  3  2  1  0
  4  3  1  0
  5  4  2  0
  6  5  1  0
  7  8  1  0
  7  6  2  0
  8  9  2  0
  9  4  1  0
 10 11  2  0
 13 12  1  0
 14 13  2  0
 15 13  1  0
 16 15  1  0
 17 16  1  6
 18 17  1  0
 18 10  1  0
 19 17  1  0
 20 19  2  0
 21 19  1  0
 21 25  1  0
 22 23  1  0
 22 21  1  0
 23 24  1  0
 24 25  1  0
 25 26  1  6
 26 28  1  0
 27 26  2  0
M  END
$$$$
