FQP.pdb
     RDKit          3D

 28 29  0  0  1  0  0  0  0  0999 V2000
   27.9834  -21.9803   -9.2406 N   0  0  0  0  0  0  0  0  0  0  0  0
   26.9928  -20.9318   -9.3699 C   0  0  1  0  0  0  0  0  0  0  0  0
   27.6009  -19.5850   -8.9951 C   0  0  0  0  0  0  0  0  0  0  0  0
   27.8384  -19.6069   -7.5337 C   0  0  0  0  0  0  0  0  0  0  0  0
   26.7869  -19.3083   -6.6903 C   0  0  0  0  0  0  0  0  0  0  0  0
   26.9776  -19.3204   -5.3087 C   0  0  0  0  0  0  0  0  0  0  0  0
   28.2412  -19.6390   -4.8449 C   0  0  0  0  0  0  0  0  0  0  0  0
   29.2829  -19.9356   -5.7077 C   0  0  0  0  0  0  0  0  0  0  0  0
   29.0904  -19.9221   -7.0614 C   0  0  0  0  0  0  0  0  0  0  0  0
   26.5647  -20.8476  -10.7811 C   0  0  0  0  0  0  0  0  0  0  0  0
   27.3739  -21.1849  -11.6983 O   0  0  0  0  0  0  0  0  0  0  0  0
   25.6709  -24.4899  -13.2880 N   0  0  0  0  0  0  0  0  0  0  0  0
   24.4752  -24.1336  -13.9710 C   0  0  0  0  0  0  0  0  0  0  0  0
   24.0508  -24.8135  -14.9175 O   0  0  0  0  0  0  0  0  0  0  0  0
   23.7634  -22.8931  -13.4818 C   0  0  0  0  0  0  0  0  0  0  0  0
   24.4864  -22.3387  -12.3240 C   0  0  0  0  0  0  0  0  0  0  0  0
   24.7538  -20.8307  -12.5113 C   0  0  2  0  0  0  0  0  0  0  0  0
   25.2913  -20.4077  -11.1733 N   0  0  0  0  0  0  0  0  0  0  0  0
   23.5179  -20.0805  -12.6786 C   0  0  0  0  0  0  0  0  0  0  0  0
   22.6566  -20.1260  -11.7242 O   0  0  0  0  0  0  0  0  0  0  0  0
   23.2102  -19.3123  -13.8015 N   0  0  0  0  0  0  0  0  0  0  0  0
   24.1641  -19.2123  -14.9429 C   0  0  0  0  0  0  0  0  0  0  0  0
   23.2164  -18.9485  -16.0840 C   0  0  0  0  0  0  0  0  0  0  0  0
   22.3595  -17.8414  -15.4460 C   0  0  0  0  0  0  0  0  0  0  0  0
   22.0616  -18.5174  -14.1063 C   0  0  1  0  0  0  0  0  0  0  0  0
   20.8609  -19.3916  -14.3949 C   0  0  0  0  0  0  0  0  0  0  0  0
   20.9499  -20.6040  -14.6851 O   0  0  0  0  0  0  0  0  0  0  0  0
   19.6203  -18.7937  -14.3264 O   0  0  0  0  0  0  0  0  0  0  0  0
  2 10  1  0
  2  1  1  6
  3  2  1  0
  4  3  1  0
  5  4  2  0
  6  5  1  0
  7  8  1  0
  7  6  2  0
  8  9  2  0
  9  4  1  0
 10 11  2  0
 13 12  1  0
 14 13  2  0
 15 13  1  0
 16 15  1  0
 17 16  1  1
 18 17  1  0
 18 10  1  0
 19 17  1  0
 20 19  2  0
 21 19  1  0
 21 25  1  0
 22 23  1  0
 22 21  1  0
 23 24  1  0
 24 25  1  0
 25 26  1  6
 26 28  1  0
 27 26  2  0
M  END
$$$$
