FQP.pdb
     RDKit          3D

 28 29  0  0  1  0  0  0  0  0999 V2000
   29.6365  -23.3310  -12.6892 N   0  0  0  0  0  0  0  0  0  0  0  0
   29.1058  -22.2409  -11.8972 C   0  0  1  0  0  0  0  0  0  0  0  0
   30.0386  -21.0371  -11.9677 C   0  0  0  0  0  0  0  0  0  0  0  0
   31.1348  -21.2797  -11.0023 C   0  0  0  0  0  0  0  0  0  0  0  0
   30.8963  -21.0485   -9.6622 C   0  0  0  0  0  0  0  0  0  0  0  0
   31.9079  -21.2675   -8.7273 C   0  0  0  0  0  0  0  0  0  0  0  0
   33.1266  -21.7158   -9.2036 C   0  0  0  0  0  0  0  0  0  0  0  0
   33.3457  -21.9417  -10.5522 C   0  0  0  0  0  0  0  0  0  0  0  0
   32.3505  -21.7253  -11.4645 C   0  0  0  0  0  0  0  0  0  0  0  0
   27.8048  -21.8273  -12.4613 C   0  0  0  0  0  0  0  0  0  0  0  0
   27.6056  -21.9335  -13.7098 O   0  0  0  0  0  0  0  0  0  0  0  0
   23.0155  -20.2685   -8.9303 N   0  0  0  0  0  0  0  0  0  0  0  0
   22.2723  -20.5401  -10.1122 C   0  0  0  0  0  0  0  0  0  0  0  0
   21.0381  -20.4198  -10.1350 O   0  0  0  0  0  0  0  0  0  0  0  0
   23.0656  -20.9791  -11.3216 C   0  0  0  0  0  0  0  0  0  0  0  0
   24.4930  -21.0625  -10.9665 C   0  0  0  0  0  0  0  0  0  0  0  0
   25.3507  -21.3969  -12.2046 C   0  0  2  0  0  0  0  0  0  0  0  0
   26.7570  -21.3139  -11.6817 N   0  0  0  0  0  0  0  0  0  0  0  0
   25.2610  -20.3577  -13.2196 C   0  0  0  0  0  0  0  0  0  0  0  0
   25.6040  -19.1637  -12.8853 O   0  0  0  0  0  0  0  0  0  0  0  0
   24.8340  -20.5731  -14.5300 N   0  0  0  0  0  0  0  0  0  0  0  0
   24.4885  -21.9434  -15.0049 C   0  0  0  0  0  0  0  0  0  0  0  0
   23.4883  -21.6265  -16.0861 C   0  0  0  0  0  0  0  0  0  0  0  0
   24.2601  -20.5184  -16.8233 C   0  0  0  0  0  0  0  0  0  0  0  0
   24.6520  -19.6626  -15.6172 C   0  0  1  0  0  0  0  0  0  0  0  0
   23.4456  -18.7794  -15.3860 C   0  0  0  0  0  0  0  0  0  0  0  0
   23.2489  -17.7121  -16.0059 O   0  0  0  0  0  0  0  0  0  0  0  0
   22.5350  -19.1985  -14.4392 O   0  0  0  0  0  0  0  0  0  0  0  0
  2 10  1  0
  2  1  1  6
  3  2  1  0
  4  3  1  0
  5  4  2  0
  6  5  1  0
  7  8  1  0
  7  6  2  0
  8  9  2  0
  9  4  1  0
 10 11  2  0
 13 12  1  0
 14 13  2  0
 15 13  1  0
 16 15  1  0
 17 16  1  1
 18 17  1  0
 18 10  1  0
 19 17  1  0
 20 19  2  0
 21 19  1  0
 21 25  1  0
 22 23  1  0
 22 21  1  0
 23 24  1  0
 24 25  1  0
 25 26  1  1
 26 28  1  0
 27 26  2  0
M  END
$$$$
