FQP.pdb
     RDKit          3D

 28 29  0  0  1  0  0  0  0  0999 V2000
   24.2334  -17.8031  -18.5490 N   0  0  0  0  0  0  0  0  0  0  0  0
   23.1926  -18.3436  -17.6994 C   0  0  1  0  0  0  0  0  0  0  0  0
   22.0930  -18.9705  -18.5492 C   0  0  0  0  0  0  0  0  0  0  0  0
   21.3266  -17.8590  -19.1572 C   0  0  0  0  0  0  0  0  0  0  0  0
   20.5172  -17.0931  -18.3423 C   0  0  0  0  0  0  0  0  0  0  0  0
   19.7823  -16.0386  -18.8840 C   0  0  0  0  0  0  0  0  0  0  0  0
   19.9064  -15.8101  -20.2424 C   0  0  0  0  0  0  0  0  0  0  0  0
   20.7240  -16.5901  -21.0429 C   0  0  0  0  0  0  0  0  0  0  0  0
   21.4422  -17.6227  -20.5066 C   0  0  0  0  0  0  0  0  0  0  0  0
   23.7671  -19.4133  -16.8584 C   0  0  0  0  0  0  0  0  0  0  0  0
   24.7592  -20.0777  -17.2878 O   0  0  0  0  0  0  0  0  0  0  0  0
   24.5458  -21.5504   -9.9322 N   0  0  0  0  0  0  0  0  0  0  0  0
   23.7227  -21.0727  -10.9892 C   0  0  0  0  0  0  0  0  0  0  0  0
   22.7112  -20.3935  -10.7570 O   0  0  0  0  0  0  0  0  0  0  0  0
   24.1480  -21.4382  -12.3929 C   0  0  0  0  0  0  0  0  0  0  0  0
   23.6823  -20.4016  -13.3307 C   0  0  0  0  0  0  0  0  0  0  0  0
   23.9597  -20.8144  -14.7912 C   0  0  2  0  0  0  0  0  0  0  0  0
   23.2700  -19.7436  -15.5884 N   0  0  0  0  0  0  0  0  0  0  0  0
   23.2748  -22.0498  -15.1419 C   0  0  0  0  0  0  0  0  0  0  0  0
   21.9898  -22.0262  -15.1978 O   0  0  0  0  0  0  0  0  0  0  0  0
   23.9202  -23.2531  -15.4268 N   0  0  0  0  0  0  0  0  0  0  0  0
   25.4085  -23.3406  -15.4242 C   0  0  0  0  0  0  0  0  0  0  0  0
   25.6081  -24.7921  -15.0735 C   0  0  0  0  0  0  0  0  0  0  0  0
   24.6083  -25.4262  -16.0560 C   0  0  0  0  0  0  0  0  0  0  0  0
   23.3960  -24.5403  -15.7623 C   0  0  1  0  0  0  0  0  0  0  0  0
   22.7489  -25.1905  -14.5591 C   0  0  0  0  0  0  0  0  0  0  0  0
   22.9136  -24.7833  -13.3889 O   0  0  0  0  0  0  0  0  0  0  0  0
   21.9427  -26.2836  -14.7961 O   0  0  0  0  0  0  0  0  0  0  0  0
  2 10  1  0
  2  1  1  6
  3  2  1  0
  4  3  1  0
  5  4  2  0
  6  5  1  0
  7  8  1  0
  7  6  2  0
  8  9  2  0
  9  4  1  0
 10 11  2  0
 13 12  1  0
 14 13  2  0
 15 13  1  0
 16 15  1  0
 17 16  1  1
 18 17  1  0
 18 10  1  0
 19 17  1  0
 20 19  2  0
 21 19  1  0
 21 25  1  0
 22 23  1  0
 22 21  1  0
 23 24  1  0
 24 25  1  0
 25 26  1  1
 26 28  1  0
 27 26  2  0
M  END
$$$$
