CAH.pdb
     RDKit          3D

 22 22  0  0  1  0  0  0  0  0999 V2000
    8.8504  -14.3731   13.3502 N   0  0  0  0  0  0  0  0  0  0  0  0
    7.8765  -14.8305   14.3230 C   0  0  1  0  0  0  0  0  0  0  0  0
    7.5810  -16.2786   14.0524 C   0  0  0  0  0  0  0  0  0  0  0  0
    6.0397  -16.5037   13.1498 S   0  0  0  0  0  0  0  0  0  0  0  0
    8.4373  -14.6830   15.6775 C   0  0  0  0  0  0  0  0  0  0  0  0
    9.6288  -15.0863   15.8955 O   0  0  0  0  0  0  0  0  0  0  0  0
    7.3236  -13.2712   18.9515 C   0  0  0  0  0  0  0  0  0  0  0  0
    8.2473  -14.0633   18.0480 C   0  0  2  0  0  0  0  0  0  0  0  0
    7.6914  -14.1077   16.7396 N   0  0  0  0  0  0  0  0  0  0  0  0
    8.5242  -15.4006   18.6249 C   0  0  0  0  0  0  0  0  0  0  0  0
    8.3399  -16.3857   17.8586 O   0  0  0  0  0  0  0  0  0  0  0  0
    8.9706  -15.5831   19.9573 N   0  0  0  0  0  0  0  0  0  0  0  0
    9.8900  -16.6709   20.2220 C   0  0  1  0  0  0  0  0  0  0  0  0
   11.1360  -16.5588   19.3755 C   0  0  0  0  0  0  0  0  0  0  0  0
   12.0183  -17.7070   19.6675 C   0  0  0  0  0  0  0  0  0  0  0  0
   11.8400  -18.6859   20.6409 C   0  0  0  0  0  0  0  0  0  0  0  0
   12.8563  -19.5597   20.5947 N   0  0  0  0  0  0  0  0  0  0  0  0
   13.6806  -19.1689   19.6197 C   0  0  0  0  0  0  0  0  0  0  0  0
   13.1661  -18.0381   19.0563 N   0  0  0  0  0  0  0  0  0  0  0  0
   10.2305  -16.6038   21.6664 C   0  0  0  0  0  0  0  0  0  0  0  0
   10.4330  -17.5906   22.4047 O   0  0  0  0  0  0  0  0  0  0  0  0
   10.3487  -15.3559   22.3108 O   0  0  0  0  0  0  0  0  0  0  0  0
  2  1  1  6
  3  2  1  0
  4  3  1  0
  5  9  1  0
  5  2  1  0
  6  5  2  0
  8  7  1  1
  8  9  1  0
  8 10  1  0
 10 12  1  0
 11 10  2  0
 12 13  1  0
 13 20  1  0
 13 14  1  6
 15 14  1  0
 16 15  2  0
 17 16  1  0
 18 17  1  0
 18 19  2  0
 19 15  1  0
 20 22  1  0
 21 20  2  0
M  END
$$$$
