CAH.pdb
     RDKit          3D

 22 22  0  0  1  0  0  0  0  0999 V2000
   12.5377  -15.9612   15.4216 N   0  0  0  0  0  0  0  0  0  0  0  0
   13.1870  -16.6985   16.4887 C   0  0  1  0  0  0  0  0  0  0  0  0
   14.4061  -15.9331   16.9196 C   0  0  0  0  0  0  0  0  0  0  0  0
   13.9871  -14.3719   17.7120 S   0  0  0  0  0  0  0  0  0  0  0  0
   12.2567  -16.8301   17.6237 C   0  0  0  0  0  0  0  0  0  0  0  0
   11.2530  -16.0439   17.6885 O   0  0  0  0  0  0  0  0  0  0  0  0
   11.6431  -19.4050   20.2258 C   0  0  0  0  0  0  0  0  0  0  0  0
   11.4060  -18.0564   19.5760 C   0  0  2  0  0  0  0  0  0  0  0  0
   12.4467  -17.8025   18.6404 N   0  0  0  0  0  0  0  0  0  0  0  0
   11.2560  -16.9989   20.6040 C   0  0  0  0  0  0  0  0  0  0  0  0
   12.2963  -16.3412   20.8811 O   0  0  0  0  0  0  0  0  0  0  0  0
   10.0243  -16.7269   21.2498 N   0  0  0  0  0  0  0  0  0  0  0  0
    9.9919  -15.6578   22.2268 C   0  0  1  0  0  0  0  0  0  0  0  0
    8.6988  -14.8805   22.1518 C   0  0  0  0  0  0  0  0  0  0  0  0
    8.6849  -14.0934   20.9019 C   0  0  0  0  0  0  0  0  0  0  0  0
    9.7230  -13.9374   19.9879 C   0  0  0  0  0  0  0  0  0  0  0  0
    9.3233  -13.1475   18.9804 N   0  0  0  0  0  0  0  0  0  0  0  0
    8.0591  -12.7929   19.2227 C   0  0  0  0  0  0  0  0  0  0  0  0
    7.6729  -13.3720   20.3960 N   0  0  0  0  0  0  0  0  0  0  0  0
   10.1456  -16.2909   23.5618 C   0  0  0  0  0  0  0  0  0  0  0  0
   10.0476  -17.5142   23.7939 O   0  0  0  0  0  0  0  0  0  0  0  0
   10.4248  -15.5001   24.6946 O   0  0  0  0  0  0  0  0  0  0  0  0
  2  1  1  6
  3  2  1  0
  4  3  1  0
  5  9  1  0
  5  2  1  0
  6  5  2  0
  8  7  1  1
  8  9  1  0
  8 10  1  0
 10 12  1  0
 11 10  2  0
 12 13  1  0
 13 20  1  0
 13 14  1  1
 15 14  1  0
 16 15  2  0
 17 16  1  0
 18 17  1  0
 18 19  2  0
 19 15  1  0
 20 22  1  0
 21 20  2  0
M  END
$$$$
