CAH.pdb
     RDKit          3D

 22 22  0  0  1  0  0  0  0  0999 V2000
    6.6395  -18.7583   19.6769 N   0  0  0  0  0  0  0  0  0  0  0  0
    6.2475  -17.8446   20.7330 C   0  0  1  0  0  0  0  0  0  0  0  0
    6.1065  -18.6270   22.0081 C   0  0  0  0  0  0  0  0  0  0  0  0
    5.5085  -17.6117   23.3692 S   0  0  0  0  0  0  0  0  0  0  0  0
    7.2888  -16.8148   20.8952 C   0  0  0  0  0  0  0  0  0  0  0  0
    8.5130  -17.1557   20.7734 O   0  0  0  0  0  0  0  0  0  0  0  0
    7.4417  -13.1169   21.1248 C   0  0  0  0  0  0  0  0  0  0  0  0
    8.0105  -14.5065   21.3311 C   0  0  2  0  0  0  0  0  0  0  0  0
    6.9676  -15.4620   21.1816 N   0  0  0  0  0  0  0  0  0  0  0  0
    8.7195  -14.5947   22.6301 C   0  0  0  0  0  0  0  0  0  0  0  0
    9.6849  -13.7987   22.7918 O   0  0  0  0  0  0  0  0  0  0  0  0
    8.3500  -15.5128   23.6442 N   0  0  0  0  0  0  0  0  0  0  0  0
    9.0397  -15.4333   24.9157 C   0  0  1  0  0  0  0  0  0  0  0  0
    8.0677  -15.4391   26.0721 C   0  0  0  0  0  0  0  0  0  0  0  0
    7.3343  -14.1570   26.0877 C   0  0  0  0  0  0  0  0  0  0  0  0
    7.7144  -12.9566   25.4943 C   0  0  0  0  0  0  0  0  0  0  0  0
    6.7837  -12.0206   25.7311 N   0  0  0  0  0  0  0  0  0  0  0  0
    5.8181  -12.5866   26.4591 C   0  0  0  0  0  0  0  0  0  0  0  0
    6.1575  -13.8902   26.6747 N   0  0  0  0  0  0  0  0  0  0  0  0
    9.9457  -16.6082   24.9874 C   0  0  0  0  0  0  0  0  0  0  0  0
   10.0854  -17.4654   24.0898 O   0  0  0  0  0  0  0  0  0  0  0  0
   10.7359  -16.8265   26.1339 O   0  0  0  0  0  0  0  0  0  0  0  0
  2  1  1  6
  3  2  1  0
  4  3  1  0
  5  9  1  0
  5  2  1  0
  6  5  2  0
  8  7  1  1
  8  9  1  0
  8 10  1  0
 10 12  1  0
 11 10  2  0
 12 13  1  0
 13 20  1  0
 13 14  1  1
 15 14  1  0
 16 15  2  0
 17 16  1  0
 18 17  1  0
 18 19  2  0
 19 15  1  0
 20 22  1  0
 21 20  2  0
M  END
$$$$
