CAH.pdb
     RDKit          3D

 22 22  0  0  1  0  0  0  0  0999 V2000
   10.3155  -16.8170   17.3067 N   0  0  0  0  0  0  0  0  0  0  0  0
    9.1704  -16.8356   18.1969 C   0  0  1  0  0  0  0  0  0  0  0  0
    9.1437  -18.1597   18.9066 C   0  0  0  0  0  0  0  0  0  0  0  0
    8.0005  -19.3213   18.1418 S   0  0  0  0  0  0  0  0  0  0  0  0
    9.3032  -15.7474   19.1814 C   0  0  0  0  0  0  0  0  0  0  0  0
   10.4728  -15.3416   19.4933 O   0  0  0  0  0  0  0  0  0  0  0  0
    7.0395  -13.4491   21.0445 C   0  0  0  0  0  0  0  0  0  0  0  0
    8.3547  -14.1622   20.8021 C   0  0  2  0  0  0  0  0  0  0  0  0
    8.1712  -15.1426   19.7881 N   0  0  0  0  0  0  0  0  0  0  0  0
    8.8959  -14.7082   22.0697 C   0  0  0  0  0  0  0  0  0  0  0  0
    9.1243  -13.8692   22.9838 O   0  0  0  0  0  0  0  0  0  0  0  0
    9.1490  -16.0889   22.2634 N   0  0  0  0  0  0  0  0  0  0  0  0
    9.5314  -16.5293   23.5894 C   0  0  1  0  0  0  0  0  0  0  0  0
    9.2930  -18.0100   23.7695 C   0  0  0  0  0  0  0  0  0  0  0  0
    8.3711  -18.2120   24.9058 C   0  0  0  0  0  0  0  0  0  0  0  0
    7.9073  -17.2523   25.8009 C   0  0  0  0  0  0  0  0  0  0  0  0
    7.0863  -17.8255   26.6930 N   0  0  0  0  0  0  0  0  0  0  0  0
    7.0106  -19.1249   26.3953 C   0  0  0  0  0  0  0  0  0  0  0  0
    7.7959  -19.3570   25.3041 N   0  0  0  0  0  0  0  0  0  0  0  0
   10.9728  -16.2077   23.7500 C   0  0  0  0  0  0  0  0  0  0  0  0
   11.7593  -15.9422   22.8168 O   0  0  0  0  0  0  0  0  0  0  0  0
   11.5564  -16.1847   25.0326 O   0  0  0  0  0  0  0  0  0  0  0  0
  2  1  1  6
  3  2  1  0
  4  3  1  0
  5  9  1  0
  5  2  1  0
  6  5  2  0
  8  7  1  1
  8  9  1  0
  8 10  1  0
 10 12  1  0
 11 10  2  0
 12 13  1  0
 13 20  1  0
 13 14  1  6
 15 14  1  0
 16 15  2  0
 17 16  1  0
 18 17  1  0
 18 19  2  0
 19 15  1  0
 20 22  1  0
 21 20  2  0
M  END
$$$$
