CAH.pdb
     RDKit          3D

 22 22  0  0  1  0  0  0  0  0999 V2000
    8.3528  -18.0238   15.2462 N   0  0  0  0  0  0  0  0  0  0  0  0
    9.4731  -17.9512   16.1646 C   0  0  1  0  0  0  0  0  0  0  0  0
   10.2192  -16.6737   15.9017 C   0  0  0  0  0  0  0  0  0  0  0  0
   11.0205  -16.6707   14.2896 S   0  0  0  0  0  0  0  0  0  0  0  0
    8.9673  -17.9547   17.5485 C   0  0  0  0  0  0  0  0  0  0  0  0
    7.8429  -17.4014   17.7921 O   0  0  0  0  0  0  0  0  0  0  0  0
    9.4063  -20.0377   20.4665 C   0  0  0  0  0  0  0  0  0  0  0  0
    9.0960  -18.6680   19.8967 C   0  0  2  0  0  0  0  0  0  0  0  0
    9.6936  -18.5537   18.6111 N   0  0  0  0  0  0  0  0  0  0  0  0
    9.5053  -17.6023   20.8424 C   0  0  0  0  0  0  0  0  0  0  0  0
    8.9981  -17.6580   21.9963 O   0  0  0  0  0  0  0  0  0  0  0  0
   10.4121  -16.5720   20.4904 N   0  0  0  0  0  0  0  0  0  0  0  0
   10.6817  -15.5407   21.4715 C   0  0  1  0  0  0  0  0  0  0  0  0
    9.4053  -14.9005   21.9643 C   0  0  0  0  0  0  0  0  0  0  0  0
    8.6621  -14.3613   20.8072 C   0  0  0  0  0  0  0  0  0  0  0  0
    7.2822  -14.2454   20.6665 C   0  0  0  0  0  0  0  0  0  0  0  0
    6.9931  -13.7077   19.4724 N   0  0  0  0  0  0  0  0  0  0  0  0
    8.1481  -13.4757   18.8440 C   0  0  0  0  0  0  0  0  0  0  0  0
    9.1643  -13.8758   19.6615 N   0  0  0  0  0  0  0  0  0  0  0  0
   11.4070  -16.1926   22.5920 C   0  0  0  0  0  0  0  0  0  0  0  0
   11.6407  -17.4161   22.6831 O   0  0  0  0  0  0  0  0  0  0  0  0
   11.8941  -15.4215   23.6665 O   0  0  0  0  0  0  0  0  0  0  0  0
  2  1  1  6
  3  2  1  0
  4  3  1  0
  5  9  1  0
  5  2  1  0
  6  5  2  0
  8  7  1  1
  8  9  1  0
  8 10  1  0
 10 12  1  0
 11 10  2  0
 12 13  1  0
 13 20  1  0
 13 14  1  1
 15 14  1  0
 16 15  2  0
 17 16  1  0
 18 17  1  0
 18 19  2  0
 19 15  1  0
 20 22  1  0
 21 20  2  0
M  END
$$$$
