CAH.pdb
     RDKit          3D

 22 22  0  0  1  0  0  0  0  0999 V2000
    7.1043  -18.5689   18.7137 N   0  0  0  0  0  0  0  0  0  0  0  0
    6.6241  -17.7915   19.8403 C   0  0  1  0  0  0  0  0  0  0  0  0
    6.4899  -18.7066   21.0244 C   0  0  0  0  0  0  0  0  0  0  0  0
    6.0069  -17.8245   22.5176 S   0  0  0  0  0  0  0  0  0  0  0  0
    7.5954  -16.7261   20.1441 C   0  0  0  0  0  0  0  0  0  0  0  0
    8.8312  -17.0316   20.2402 O   0  0  0  0  0  0  0  0  0  0  0  0
    7.5816  -13.0237   20.5305 C   0  0  0  0  0  0  0  0  0  0  0  0
    8.1487  -14.4111   20.7558 C   0  0  2  0  0  0  0  0  0  0  0  0
    7.1948  -15.3770   20.3314 N   0  0  0  0  0  0  0  0  0  0  0  0
    8.5815  -14.5777   22.1638 C   0  0  0  0  0  0  0  0  0  0  0  0
    7.8377  -14.0565   23.0395 O   0  0  0  0  0  0  0  0  0  0  0  0
    9.7588  -15.2782   22.5261 N   0  0  0  0  0  0  0  0  0  0  0  0
   10.0654  -15.4066   23.9361 C   0  0  1  0  0  0  0  0  0  0  0  0
    8.9782  -16.1545   24.6714 C   0  0  0  0  0  0  0  0  0  0  0  0
    7.9273  -15.1979   25.0745 C   0  0  0  0  0  0  0  0  0  0  0  0
    8.1008  -13.9115   25.5770 C   0  0  0  0  0  0  0  0  0  0  0  0
    6.9047  -13.3580   25.8250 N   0  0  0  0  0  0  0  0  0  0  0  0
    5.9699  -14.2527   25.4960 C   0  0  0  0  0  0  0  0  0  0  0  0
    6.5976  -15.3742   25.0385 N   0  0  0  0  0  0  0  0  0  0  0  0
   11.3571  -16.1340   24.0305 C   0  0  0  0  0  0  0  0  0  0  0  0
   12.0100  -16.5706   23.0593 O   0  0  0  0  0  0  0  0  0  0  0  0
   11.9424  -16.3813   25.2886 O   0  0  0  0  0  0  0  0  0  0  0  0
  2  1  1  6
  3  2  1  0
  4  3  1  0
  5  9  1  0
  5  2  1  0
  6  5  2  0
  8  7  1  1
  8  9  1  0
  8 10  1  0
 10 12  1  0
 11 10  2  0
 12 13  1  0
 13 20  1  0
 13 14  1  1
 15 14  1  0
 16 15  2  0
 17 16  1  0
 18 17  1  0
 18 19  2  0
 19 15  1  0
 20 22  1  0
 21 20  2  0
M  END
$$$$
