CAH.pdb
     RDKit          3D

 22 22  0  0  1  0  0  0  0  0999 V2000
    8.2501  -17.1279   14.1907 N   0  0  0  0  0  0  0  0  0  0  0  0
    9.4963  -17.2290   14.9259 C   0  0  1  0  0  0  0  0  0  0  0  0
   10.3013  -15.9870   14.6665 C   0  0  0  0  0  0  0  0  0  0  0  0
   11.8821  -16.0059   15.5278 S   0  0  0  0  0  0  0  0  0  0  0  0
    9.2030  -17.3386   16.3657 C   0  0  0  0  0  0  0  0  0  0  0  0
    8.3321  -16.5568   16.8756 O   0  0  0  0  0  0  0  0  0  0  0  0
    9.8692  -19.7279   19.1045 C   0  0  0  0  0  0  0  0  0  0  0  0
    9.5510  -18.3411   18.5823 C   0  0  2  0  0  0  0  0  0  0  0  0
    9.8599  -18.2852   17.1950 N   0  0  0  0  0  0  0  0  0  0  0  0
   10.2403  -17.3065   19.3897 C   0  0  0  0  0  0  0  0  0  0  0  0
   11.3649  -16.9258   18.9629 O   0  0  0  0  0  0  0  0  0  0  0  0
    9.6854  -16.7637   20.5752 N   0  0  0  0  0  0  0  0  0  0  0  0
   10.3863  -15.6679   21.2128 C   0  0  1  0  0  0  0  0  0  0  0  0
    9.4438  -14.5424   21.5688 C   0  0  0  0  0  0  0  0  0  0  0  0
    8.8382  -14.0147   20.3291 C   0  0  0  0  0  0  0  0  0  0  0  0
    9.4244  -13.1648   19.3955 C   0  0  0  0  0  0  0  0  0  0  0  0
    8.5551  -12.9113   18.4063 N   0  0  0  0  0  0  0  0  0  0  0  0
    7.4287  -13.5743   18.6792 C   0  0  0  0  0  0  0  0  0  0  0  0
    7.6052  -14.2463   19.8532 N   0  0  0  0  0  0  0  0  0  0  0  0
   11.0271  -16.2202   22.4340 C   0  0  0  0  0  0  0  0  0  0  0  0
   10.8164  -17.3572   22.9059 O   0  0  0  0  0  0  0  0  0  0  0  0
   11.9549  -15.4470   23.1604 O   0  0  0  0  0  0  0  0  0  0  0  0
  2  1  1  6
  3  2  1  0
  4  3  1  0
  5  9  1  0
  5  2  1  0
  6  5  2  0
  8  7  1  1
  8  9  1  0
  8 10  1  0
 10 12  1  0
 11 10  2  0
 12 13  1  0
 13 20  1  0
 13 14  1  1
 15 14  1  0
 16 15  2  0
 17 16  1  0
 18 17  1  0
 18 19  2  0
 19 15  1  0
 20 22  1  0
 21 20  2  0
M  END
$$$$
