PLI.pdb
     RDKit          3D

 24 24  0  0  1  0  0  0  0  0999 V2000
    7.1307  -15.0461   20.4100 N   0  0  0  0  0  0  0  0  0  0  0  0
    6.4427  -14.4232   19.3092 C   0  0  0  0  0  0  0  0  0  0  0  0
    7.3799  -13.4218   18.6952 C   0  0  0  0  0  0  0  0  0  0  0  0
    8.2876  -13.0950   19.8787 C   0  0  0  0  0  0  0  0  0  0  0  0
    8.4293  -14.4602   20.5197 C   0  0  1  0  0  0  0  0  0  0  0  0
    8.8761  -14.3650   21.9367 C   0  0  0  0  0  0  0  0  0  0  0  0
   10.0869  -14.3054   22.2559 O   0  0  0  0  0  0  0  0  0  0  0  0
    5.9992  -12.5914   27.0997 C   0  0  0  0  0  0  0  0  0  0  0  0
    7.2847  -12.9934   26.4664 C   0  0  2  0  0  0  0  0  0  0  0  0
    8.3151  -11.8737   26.7846 C   0  0  0  0  0  0  0  0  0  0  0  0
    7.3073  -13.2983   25.0329 C   0  0  0  0  0  0  0  0  0  0  0  0
    8.3155  -14.1476   24.3940 C   0  0  2  0  0  0  0  0  0  0  0  0
    7.9206  -14.3405   22.9550 N   0  0  0  0  0  0  0  0  0  0  0  0
    8.4909  -15.4987   24.9616 C   0  0  0  0  0  0  0  0  0  0  0  0
    7.5802  -16.3541   25.0054 O   0  0  0  0  0  0  0  0  0  0  0  0
   12.5320  -20.0118   24.7283 C   0  0  0  0  0  0  0  0  0  0  0  0
   11.5564  -19.2849   25.5847 C   0  0  0  0  0  0  0  0  0  0  0  0
   11.1855  -17.9115   25.1443 C   0  0  2  0  0  0  0  0  0  0  0  0
   12.4673  -17.0710   25.2369 C   0  0  0  0  0  0  0  0  0  0  0  0
   10.1314  -17.2243   25.9268 C   0  0  2  0  0  0  0  0  0  0  0  0
    9.7501  -15.9207   25.5130 N   0  0  0  0  0  0  0  0  0  0  0  0
   10.3950  -17.3639   27.4040 C   0  0  0  0  0  0  0  0  0  0  0  0
   10.6010  -16.4346   28.1963 O   0  0  0  0  0  0  0  0  0  0  0  0
   10.4177  -18.6525   27.9769 O   0  0  0  0  0  0  0  0  0  0  0  0
  1  2  1  0
  2  3  1  0
  4  3  1  0
  5  1  1  0
  5  4  1  0
  6  7  2  0
  5  6  1  1
  9  8  1  6
  9 11  1  0
  9 10  1  0
 12 11  1  1
 12 13  1  0
 12 14  1  0
 13  6  1  0
 14 15  2  0
 14 21  1  0
 17 16  1  0
 18 20  1  0
 18 17  1  0
 18 19  1  1
 20 22  1  0
 20 21  1  6
 22 23  2  0
 22 24  1  0
M  END
$$$$
