PLI.pdb
     RDKit          3D

 24 24  0  0  1  0  0  0  0  0999 V2000
    7.5709  -17.1960   20.8444 N   0  0  0  0  0  0  0  0  0  0  0  0
    6.8529  -17.2227   19.5967 C   0  0  0  0  0  0  0  0  0  0  0  0
    7.5856  -16.3343   18.6312 C   0  0  0  0  0  0  0  0  0  0  0  0
    8.2942  -15.3747   19.5845 C   0  0  0  0  0  0  0  0  0  0  0  0
    8.6888  -16.3174   20.7027 C   0  0  1  0  0  0  0  0  0  0  0  0
    8.9834  -15.5877   21.9666 C   0  0  0  0  0  0  0  0  0  0  0  0
   10.0421  -14.9379   22.1350 O   0  0  0  0  0  0  0  0  0  0  0  0
    5.4152  -13.1862   26.3709 C   0  0  0  0  0  0  0  0  0  0  0  0
    6.7837  -13.3683   25.8148 C   0  0  2  0  0  0  0  0  0  0  0  0
    7.3348  -11.9501   25.4962 C   0  0  0  0  0  0  0  0  0  0  0  0
    6.9702  -14.2469   24.6564 C   0  0  0  0  0  0  0  0  0  0  0  0
    8.2597  -14.8224   24.2667 C   0  0  2  0  0  0  0  0  0  0  0  0
    8.0540  -15.6215   23.0085 N   0  0  0  0  0  0  0  0  0  0  0  0
    8.8925  -15.7343   25.2394 C   0  0  0  0  0  0  0  0  0  0  0  0
    8.4308  -16.8576   25.5362 O   0  0  0  0  0  0  0  0  0  0  0  0
   10.7269  -13.8922   30.1629 C   0  0  0  0  0  0  0  0  0  0  0  0
   10.2261  -14.7279   29.0385 C   0  0  0  0  0  0  0  0  0  0  0  0
   11.2567  -15.2843   28.1188 C   0  0  2  0  0  0  0  0  0  0  0  0
   12.0334  -14.0801   27.5668 C   0  0  0  0  0  0  0  0  0  0  0  0
   10.7628  -16.0757   26.9675 C   0  0  2  0  0  0  0  0  0  0  0  0
   10.1064  -15.3750   25.9214 N   0  0  0  0  0  0  0  0  0  0  0  0
   10.0439  -17.3109   27.4456 C   0  0  0  0  0  0  0  0  0  0  0  0
   10.5413  -18.2291   28.1112 O   0  0  0  0  0  0  0  0  0  0  0  0
    8.6796  -17.4754   27.1281 O   0  0  0  0  0  0  0  0  0  0  0  0
  1  2  1  0
  2  3  1  0
  4  3  1  0
  5  1  1  0
  5  4  1  0
  6  7  2  0
  5  6  1  1
  9  8  1  6
  9 11  1  0
  9 10  1  0
 12 11  1  1
 12 13  1  0
 12 14  1  0
 13  6  1  0
 14 15  2  0
 14 21  1  0
 17 16  1  0
 18 20  1  0
 18 17  1  0
 18 19  1  6
 20 22  1  0
 20 21  1  1
 22 23  2  0
 22 24  1  0
M  END
$$$$
