PLI.pdb
     RDKit          3D

 24 24  0  0  1  0  0  0  0  0999 V2000
    7.2313  -16.3386   20.9766 N   0  0  0  0  0  0  0  0  0  0  0  0
    6.5691  -16.0273   19.7366 C   0  0  0  0  0  0  0  0  0  0  0  0
    7.4937  -15.1566   18.9333 C   0  0  0  0  0  0  0  0  0  0  0  0
    8.3356  -14.5164   20.0345 C   0  0  0  0  0  0  0  0  0  0  0  0
    8.5007  -15.6827   20.9869 C   0  0  1  0  0  0  0  0  0  0  0  0
    8.8810  -15.2337   22.3545 C   0  0  0  0  0  0  0  0  0  0  0  0
   10.0217  -14.7874   22.6213 O   0  0  0  0  0  0  0  0  0  0  0  0
    7.4953  -11.7533   25.3857 C   0  0  0  0  0  0  0  0  0  0  0  0
    6.5257  -12.8620   25.1714 C   0  0  2  0  0  0  0  0  0  0  0  0
    5.3227  -12.6004   26.1206 C   0  0  0  0  0  0  0  0  0  0  0  0
    6.9839  -14.2466   25.3181 C   0  0  0  0  0  0  0  0  0  0  0  0
    8.2356  -14.7571   24.7538 C   0  0  2  0  0  0  0  0  0  0  0  0
    7.9411  -15.3080   23.3849 N   0  0  0  0  0  0  0  0  0  0  0  0
    8.9000  -15.8408   25.5038 C   0  0  0  0  0  0  0  0  0  0  0  0
    8.9914  -17.0157   25.0863 O   0  0  0  0  0  0  0  0  0  0  0  0
   10.3753  -14.0019   30.3535 C   0  0  0  0  0  0  0  0  0  0  0  0
   10.8939  -14.5053   29.0530 C   0  0  0  0  0  0  0  0  0  0  0  0
   10.8372  -15.9788   28.8448 C   0  0  2  0  0  0  0  0  0  0  0  0
   12.2658  -16.4977   29.0635 C   0  0  0  0  0  0  0  0  0  0  0  0
   10.3806  -16.4452   27.5145 C   0  0  2  0  0  0  0  0  0  0  0  0
    9.4944  -15.6038   26.7916 N   0  0  0  0  0  0  0  0  0  0  0  0
    9.9645  -17.8923   27.5768 C   0  0  0  0  0  0  0  0  0  0  0  0
    8.8002  -18.3142   27.5742 O   0  0  0  0  0  0  0  0  0  0  0  0
   10.9601  -18.8889   27.6452 O   0  0  0  0  0  0  0  0  0  0  0  0
  1  2  1  0
  2  3  1  0
  4  3  1  0
  5  1  1  0
  5  4  1  0
  6  7  2  0
  5  6  1  1
  9  8  1  1
  9 11  1  0
  9 10  1  0
 12 11  1  1
 12 13  1  0
 12 14  1  0
 13  6  1  0
 14 15  2  0
 14 21  1  0
 17 16  1  0
 18 20  1  0
 18 17  1  0
 18 19  1  6
 20 22  1  0
 20 21  1  1
 22 23  2  0
 22 24  1  0
M  END
$$$$
