PLI.pdb
     RDKit          3D

 24 24  0  0  1  0  0  0  0  0999 V2000
    7.1540  -15.1527   21.2777 N   0  0  0  0  0  0  0  0  0  0  0  0
    6.6488  -14.5175   20.0884 C   0  0  0  0  0  0  0  0  0  0  0  0
    7.7490  -13.6608   19.5281 C   0  0  0  0  0  0  0  0  0  0  0  0
    8.5735  -13.3736   20.7807 C   0  0  0  0  0  0  0  0  0  0  0  0
    8.4956  -14.7096   21.4904 C   0  0  1  0  0  0  0  0  0  0  0  0
    8.8157  -14.5885   22.9394 C   0  0  0  0  0  0  0  0  0  0  0  0
    9.9782  -14.3681   23.3537 O   0  0  0  0  0  0  0  0  0  0  0  0
    8.0698  -11.4080   26.3164 C   0  0  0  0  0  0  0  0  0  0  0  0
    6.9416  -12.1980   25.7525 C   0  0  2  0  0  0  0  0  0  0  0  0
    5.6367  -11.6389   26.3860 C   0  0  0  0  0  0  0  0  0  0  0  0
    6.9663  -13.6588   25.8709 C   0  0  0  0  0  0  0  0  0  0  0  0
    8.0428  -14.5029   25.3467 C   0  0  2  0  0  0  0  0  0  0  0  0
    7.7919  -14.7235   23.8797 N   0  0  0  0  0  0  0  0  0  0  0  0
    8.1800  -15.8424   25.9510 C   0  0  0  0  0  0  0  0  0  0  0  0
    8.2320  -16.0430   27.1839 O   0  0  0  0  0  0  0  0  0  0  0  0
    7.8856  -20.7265   22.5403 C   0  0  0  0  0  0  0  0  0  0  0  0
    8.4223  -19.6029   23.3546 C   0  0  0  0  0  0  0  0  0  0  0  0
    7.8357  -19.4321   24.7127 C   0  0  2  0  0  0  0  0  0  0  0  0
    6.3518  -19.0995   24.4999 C   0  0  0  0  0  0  0  0  0  0  0  0
    8.4243  -18.3703   25.5624 C   0  0  2  0  0  0  0  0  0  0  0  0
    8.2658  -17.0249   25.1372 N   0  0  0  0  0  0  0  0  0  0  0  0
    9.8264  -18.7396   25.9733 C   0  0  0  0  0  0  0  0  0  0  0  0
   10.1615  -19.7756   26.5633 O   0  0  0  0  0  0  0  0  0  0  0  0
   10.8826  -17.8528   25.6782 O   0  0  0  0  0  0  0  0  0  0  0  0
  1  2  1  0
  2  3  1  0
  4  3  1  0
  5  1  1  0
  5  4  1  0
  6  7  2  0
  5  6  1  1
  9  8  1  1
  9 11  1  0
  9 10  1  0
 12 11  1  1
 12 13  1  0
 12 14  1  0
 13  6  1  0
 14 15  2  0
 14 21  1  0
 17 16  1  0
 18 20  1  0
 18 17  1  0
 18 19  1  6
 20 22  1  0
 20 21  1  6
 22 23  2  0
 22 24  1  0
M  END
$$$$
