PLI.pdb
     RDKit          3D

 24 24  0  0  1  0  0  0  0  0999 V2000
    7.2338  -15.5360   21.1488 N   0  0  0  0  0  0  0  0  0  0  0  0
    6.5412  -14.9893   20.0110 C   0  0  0  0  0  0  0  0  0  0  0  0
    7.4543  -13.9887   19.3605 C   0  0  0  0  0  0  0  0  0  0  0  0
    8.3351  -13.5762   20.5375 C   0  0  0  0  0  0  0  0  0  0  0  0
    8.5115  -14.9038   21.2455 C   0  0  1  0  0  0  0  0  0  0  0  0
    8.9358  -14.7263   22.6615 C   0  0  0  0  0  0  0  0  0  0  0  0
   10.1109  -14.4242   22.9770 O   0  0  0  0  0  0  0  0  0  0  0  0
    8.1377  -11.7890   26.4152 C   0  0  0  0  0  0  0  0  0  0  0  0
    7.0563  -12.6607   25.8805 C   0  0  2  0  0  0  0  0  0  0  0  0
    5.7727  -12.3415   26.6973 C   0  0  0  0  0  0  0  0  0  0  0  0
    7.2686  -14.1102   25.8329 C   0  0  0  0  0  0  0  0  0  0  0  0
    8.3835  -14.7500   25.1301 C   0  0  2  0  0  0  0  0  0  0  0  0
    7.9996  -14.9003   23.6830 N   0  0  0  0  0  0  0  0  0  0  0  0
    8.7701  -16.0949   25.5994 C   0  0  0  0  0  0  0  0  0  0  0  0
    7.9639  -17.0423   25.7236 O   0  0  0  0  0  0  0  0  0  0  0  0
   13.5127  -18.2582   23.8689 C   0  0  0  0  0  0  0  0  0  0  0  0
   12.1706  -17.8932   24.3972 C   0  0  0  0  0  0  0  0  0  0  0  0
   11.9672  -18.0680   25.8620 C   0  0  2  0  0  0  0  0  0  0  0  0
   12.1261  -19.5698   26.1404 C   0  0  0  0  0  0  0  0  0  0  0  0
   10.6581  -17.6386   26.4075 C   0  0  2  0  0  0  0  0  0  0  0  0
   10.1300  -16.4018   25.9518 N   0  0  0  0  0  0  0  0  0  0  0  0
   10.6220  -17.8259   27.9024 C   0  0  0  0  0  0  0  0  0  0  0  0
   10.6985  -18.9072   28.5011 O   0  0  0  0  0  0  0  0  0  0  0  0
   10.4904  -16.6927   28.7316 O   0  0  0  0  0  0  0  0  0  0  0  0
  1  2  1  0
  2  3  1  0
  4  3  1  0
  5  1  1  0
  5  4  1  0
  6  7  2  0
  5  6  1  1
  9  8  1  1
  9 11  1  0
  9 10  1  0
 12 11  1  1
 12 13  1  0
 12 14  1  0
 13  6  1  0
 14 15  2  0
 14 21  1  0
 17 16  1  0
 18 20  1  0
 18 17  1  0
 18 19  1  6
 20 22  1  0
 20 21  1  1
 22 23  2  0
 22 24  1  0
M  END
$$$$
