PLI.pdb
     RDKit          3D

 24 24  0  0  1  0  0  0  0  0999 V2000
    7.6659  -17.0414   20.5585 N   0  0  0  0  0  0  0  0  0  0  0  0
    6.9832  -17.0217   19.2909 C   0  0  0  0  0  0  0  0  0  0  0  0
    7.7927  -16.1727   18.3516 C   0  0  0  0  0  0  0  0  0  0  0  0
    8.5276  -15.2594   19.3299 C   0  0  0  0  0  0  0  0  0  0  0  0
    8.8358  -16.2278   20.4533 C   0  0  1  0  0  0  0  0  0  0  0  0
    9.1356  -15.5214   21.7291 C   0  0  0  0  0  0  0  0  0  0  0  0
   10.2153  -14.9144   21.9223 O   0  0  0  0  0  0  0  0  0  0  0  0
    5.6139  -12.9295   26.0598 C   0  0  0  0  0  0  0  0  0  0  0  0
    6.9773  -13.2265   25.5420 C   0  0  2  0  0  0  0  0  0  0  0  0
    7.6216  -11.8650   25.1574 C   0  0  0  0  0  0  0  0  0  0  0  0
    7.1274  -14.1782   24.4373 C   0  0  0  0  0  0  0  0  0  0  0  0
    8.4078  -14.7617   24.0298 C   0  0  2  0  0  0  0  0  0  0  0  0
    8.1873  -15.5289   22.7544 N   0  0  0  0  0  0  0  0  0  0  0  0
    9.0315  -15.7040   24.9791 C   0  0  0  0  0  0  0  0  0  0  0  0
    8.8004  -16.9326   24.9867 O   0  0  0  0  0  0  0  0  0  0  0  0
   10.4400  -13.2187   29.6525 C   0  0  0  0  0  0  0  0  0  0  0  0
   10.8101  -13.8928   28.3788 C   0  0  0  0  0  0  0  0  0  0  0  0
   10.6738  -15.3755   28.3521 C   0  0  2  0  0  0  0  0  0  0  0  0
   11.9277  -15.9335   29.0409 C   0  0  0  0  0  0  0  0  0  0  0  0
   10.5660  -16.0093   27.0170 C   0  0  2  0  0  0  0  0  0  0  0  0
    9.9635  -15.2532   25.9772 N   0  0  0  0  0  0  0  0  0  0  0  0
   10.0582  -17.4226   27.1432 C   0  0  0  0  0  0  0  0  0  0  0  0
   10.7474  -18.4500   27.0876 O   0  0  0  0  0  0  0  0  0  0  0  0
    8.6791  -17.6395   27.3436 O   0  0  0  0  0  0  0  0  0  0  0  0
  1  2  1  0
  2  3  1  0
  4  3  1  0
  5  1  1  0
  5  4  1  0
  6  7  2  0
  5  6  1  1
  9  8  1  6
  9 11  1  0
  9 10  1  0
 12 11  1  1
 12 13  1  0
 12 14  1  0
 13  6  1  0
 14 15  2  0
 14 21  1  0
 17 16  1  0
 18 20  1  0
 18 17  1  0
 18 19  1  6
 20 22  1  0
 20 21  1  6
 22 23  2  0
 22 24  1  0
M  END
$$$$
