PLI.pdb
     RDKit          3D

 24 24  0  0  1  0  0  0  0  0999 V2000
    7.3429  -16.3356   20.9459 N   0  0  0  0  0  0  0  0  0  0  0  0
    6.6117  -16.0830   19.7315 C   0  0  0  0  0  0  0  0  0  0  0  0
    7.4120  -15.1093   18.9131 C   0  0  0  0  0  0  0  0  0  0  0  0
    8.2157  -14.3951   19.9972 C   0  0  0  0  0  0  0  0  0  0  0  0
    8.5348  -15.5478   20.9269 C   0  0  1  0  0  0  0  0  0  0  0  0
    8.9087  -15.0762   22.2886 C   0  0  0  0  0  0  0  0  0  0  0  0
    9.9511  -14.4148   22.5069 O   0  0  0  0  0  0  0  0  0  0  0  0
    7.1567  -11.9720   25.4557 C   0  0  0  0  0  0  0  0  0  0  0  0
    6.4001  -13.2316   25.2185 C   0  0  2  0  0  0  0  0  0  0  0  0
    5.1429  -13.1827   26.1315 C   0  0  0  0  0  0  0  0  0  0  0  0
    7.0864  -14.5161   25.3844 C   0  0  0  0  0  0  0  0  0  0  0  0
    8.3636  -14.8482   24.7484 C   0  0  2  0  0  0  0  0  0  0  0  0
    8.0759  -15.3756   23.3689 N   0  0  0  0  0  0  0  0  0  0  0  0
    9.1855  -15.8724   25.4219 C   0  0  0  0  0  0  0  0  0  0  0  0
    9.3357  -17.0348   24.9867 O   0  0  0  0  0  0  0  0  0  0  0  0
   10.7517  -13.5737   29.4755 C   0  0  0  0  0  0  0  0  0  0  0  0
   11.6089  -14.5357   28.7317 C   0  0  0  0  0  0  0  0  0  0  0  0
   11.1659  -15.9575   28.7385 C   0  0  2  0  0  0  0  0  0  0  0  0
   12.4060  -16.7910   29.0932 C   0  0  0  0  0  0  0  0  0  0  0  0
   10.6076  -16.4860   27.4717 C   0  0  2  0  0  0  0  0  0  0  0  0
    9.8778  -15.5874   26.6496 N   0  0  0  0  0  0  0  0  0  0  0  0
    9.9345  -17.8140   27.7050 C   0  0  0  0  0  0  0  0  0  0  0  0
    8.7491  -17.9819   28.0219 O   0  0  0  0  0  0  0  0  0  0  0  0
   10.6867  -18.9981   27.5598 O   0  0  0  0  0  0  0  0  0  0  0  0
  1  2  1  0
  2  3  1  0
  4  3  1  0
  5  1  1  0
  5  4  1  0
  6  7  2  0
  5  6  1  1
  9  8  1  1
  9 11  1  0
  9 10  1  0
 12 11  1  1
 12 13  1  0
 12 14  1  0
 13  6  1  0
 14 15  2  0
 14 21  1  0
 17 16  1  0
 18 20  1  0
 18 17  1  0
 18 19  1  6
 20 22  1  0
 20 21  1  1
 22 23  2  0
 22 24  1  0
M  END
$$$$
