PKD.pdb
     RDKit          3D

 25 25  0  0  1  0  0  0  0  0999 V2000
   27.9889  -20.1027  -16.5485 N   0  0  0  0  0  0  0  0  0  0  0  0
   28.9280  -20.1576  -17.6853 C   0  0  0  0  0  0  0  0  0  0  0  0
   29.6728  -21.4762  -17.4338 C   0  0  0  0  0  0  0  0  0  0  0  0
   28.7609  -22.2555  -16.5308 C   0  0  0  0  0  0  0  0  0  0  0  0
   27.4558  -21.4504  -16.6316 C   0  0  1  0  0  0  0  0  0  0  0  0
   26.6512  -21.8209  -15.4640 C   0  0  0  0  0  0  0  0  0  0  0  0
   25.9544  -22.8629  -15.4007 O   0  0  0  0  0  0  0  0  0  0  0  0
   26.6601  -20.9554  -14.3394 N   0  0  0  0  0  0  0  0  0  0  0  0
   25.8091  -21.2286  -13.1937 C   0  0  1  0  0  0  0  0  0  0  0  0
   26.5220  -20.7062  -11.9705 C   0  0  0  0  0  0  0  0  0  0  0  0
   25.9410  -21.1640  -10.6692 C   0  0  0  0  0  0  0  0  0  0  0  0
   24.6156  -20.5193  -10.3646 C   0  0  0  0  0  0  0  0  0  0  0  0
   24.1809  -20.7801   -8.9496 C   0  0  0  0  0  0  0  0  0  0  0  0
   22.8877  -20.1666   -8.6813 N   0  0  0  0  0  0  0  0  0  0  0  0
   24.5002  -20.5470  -13.3331 C   0  0  0  0  0  0  0  0  0  0  0  0
   24.4403  -19.3146  -13.5621 O   0  0  0  0  0  0  0  0  0  0  0  0
   23.2805  -21.2553  -13.2151 N   0  0  0  0  0  0  0  0  0  0  0  0
   22.0625  -20.6671  -13.7781 C   0  0  1  0  0  0  0  0  0  0  0  0
   22.1620  -20.4741  -15.2506 C   0  0  0  0  0  0  0  0  0  0  0  0
   20.9860  -19.8608  -15.8950 C   0  0  0  0  0  0  0  0  0  0  0  0
   20.0434  -19.4712  -15.1482 O   0  0  0  0  0  0  0  0  0  0  0  0
   20.8909  -21.5063  -13.4581 C   0  0  0  0  0  0  0  0  0  0  0  0
   20.7494  -22.6918  -13.7844 O   0  0  0  0  0  0  0  0  0  0  0  0
   20.8112  -19.6702  -17.2483 O   0  0  0  0  0  0  0  0  0  0  0  0
   19.8507  -20.9099  -12.7245 O   0  0  0  0  0  0  0  0  0  0  0  0
  1  2  1  0
  3  2  1  0
  4  5  1  0
  4  3  1  0
  5  1  1  0
  5  6  1  1
  7  6  2  0
  8  6  1  0
  9  8  1  0
 10 11  1  0
  9 10  1  1
 11 12  1  0
 12 13  1  0
 13 14  1  0
 15  9  1  0
 15 17  1  0
 16 15  2  0
 18 17  1  0
 18 22  1  0
 18 19  1  6
 20 19  1  0
 21 20  2  0
 22 25  1  0
 23 22  2  0
 24 20  1  0
M  END
$$$$
