PKD.pdb
     RDKit          3D

 25 25  0  0  1  0  0  0  0  0999 V2000
   27.8066  -21.6076  -16.9870 N   0  0  0  0  0  0  0  0  0  0  0  0
   29.1628  -21.6674  -17.5653 C   0  0  0  0  0  0  0  0  0  0  0  0
   29.3548  -20.2422  -18.1027 C   0  0  0  0  0  0  0  0  0  0  0  0
   28.3598  -19.4165  -17.3394 C   0  0  0  0  0  0  0  0  0  0  0  0
   27.9430  -20.3830  -16.2196 C   0  0  1  0  0  0  0  0  0  0  0  0
   26.6651  -19.8869  -15.7010 C   0  0  0  0  0  0  0  0  0  0  0  0
   26.5543  -18.8594  -14.9887 O   0  0  0  0  0  0  0  0  0  0  0  0
   25.4846  -20.6059  -16.0223 N   0  0  0  0  0  0  0  0  0  0  0  0
   24.1931  -20.1586  -15.5290 C   0  0  1  0  0  0  0  0  0  0  0  0
   23.1694  -20.4887  -16.5876 C   0  0  0  0  0  0  0  0  0  0  0  0
   21.7704  -20.0779  -16.2493 C   0  0  0  0  0  0  0  0  0  0  0  0
   20.7720  -20.4956  -17.2952 C   0  0  0  0  0  0  0  0  0  0  0  0
   19.3916  -19.9904  -16.9813 C   0  0  0  0  0  0  0  0  0  0  0  0
   18.4426  -20.3983  -18.0080 N   0  0  0  0  0  0  0  0  0  0  0  0
   23.8410  -20.8508  -14.2664 C   0  0  0  0  0  0  0  0  0  0  0  0
   23.8992  -22.1017  -14.1834 O   0  0  0  0  0  0  0  0  0  0  0  0
   23.4310  -20.1326  -13.1179 N   0  0  0  0  0  0  0  0  0  0  0  0
   23.2140  -20.8623  -11.8661 C   0  0  1  0  0  0  0  0  0  0  0  0
   24.0194  -20.3049  -10.7454 C   0  0  0  0  0  0  0  0  0  0  0  0
   25.1852  -21.1093  -10.3352 C   0  0  0  0  0  0  0  0  0  0  0  0
   25.9441  -20.6319   -9.4441 O   0  0  0  0  0  0  0  0  0  0  0  0
   21.7816  -20.8558  -11.5089 C   0  0  0  0  0  0  0  0  0  0  0  0
   21.2565  -21.5695  -10.6447 O   0  0  0  0  0  0  0  0  0  0  0  0
   25.5335  -22.3448  -10.8358 O   0  0  0  0  0  0  0  0  0  0  0  0
   20.9460  -19.9679  -12.2082 O   0  0  0  0  0  0  0  0  0  0  0  0
  1  2  1  0
  3  2  1  0
  4  5  1  0
  4  3  1  0
  5  1  1  0
  5  6  1  6
  7  6  2  0
  8  6  1  0
  9  8  1  0
 10 11  1  0
  9 10  1  6
 11 12  1  0
 12 13  1  0
 13 14  1  0
 15  9  1  0
 15 17  1  0
 16 15  2  0
 18 17  1  0
 18 22  1  0
 18 19  1  1
 20 19  1  0
 21 20  2  0
 22 25  1  0
 23 22  2  0
 24 20  1  0
M  END
$$$$
