PKD.pdb
     RDKit          3D

 25 25  0  0  1  0  0  0  0  0999 V2000
   26.6507  -15.6308  -15.6198 N   0  0  0  0  0  0  0  0  0  0  0  0
   27.3565  -14.3543  -15.8427 C   0  0  0  0  0  0  0  0  0  0  0  0
   27.7405  -14.4448  -17.3263 C   0  0  0  0  0  0  0  0  0  0  0  0
   26.7967  -15.4640  -17.8962 C   0  0  0  0  0  0  0  0  0  0  0  0
   25.7625  -15.6002  -16.7677 C   0  0  1  0  0  0  0  0  0  0  0  0
   25.0725  -16.8736  -16.9919 C   0  0  0  0  0  0  0  0  0  0  0  0
   24.1480  -17.0272  -17.8268 O   0  0  0  0  0  0  0  0  0  0  0  0
   25.4713  -17.9986  -16.2242 N   0  0  0  0  0  0  0  0  0  0  0  0
   24.7741  -19.2663  -16.3592 C   0  0  1  0  0  0  0  0  0  0  0  0
   25.7995  -20.3618  -16.1982 C   0  0  0  0  0  0  0  0  0  0  0  0
   25.2452  -21.7496  -16.2830 C   0  0  0  0  0  0  0  0  0  0  0  0
   26.2717  -22.8062  -15.9749 C   0  0  0  0  0  0  0  0  0  0  0  0
   25.6921  -24.1901  -16.0666 C   0  0  0  0  0  0  0  0  0  0  0  0
   26.7039  -25.1977  -15.7805 N   0  0  0  0  0  0  0  0  0  0  0  0
   23.7295  -19.4084  -15.3172 C   0  0  0  0  0  0  0  0  0  0  0  0
   23.9978  -19.2040  -14.1084 O   0  0  0  0  0  0  0  0  0  0  0  0
   22.4024  -19.7756  -15.6446 N   0  0  0  0  0  0  0  0  0  0  0  0
   21.4185  -19.9108  -14.5675 C   0  0  1  0  0  0  0  0  0  0  0  0
   20.3026  -18.9351  -14.7017 C   0  0  0  0  0  0  0  0  0  0  0  0
   19.1828  -19.1123  -13.7589 C   0  0  0  0  0  0  0  0  0  0  0  0
   19.4312  -19.6630  -12.6485 O   0  0  0  0  0  0  0  0  0  0  0  0
   20.8833  -21.2861  -14.5297 C   0  0  0  0  0  0  0  0  0  0  0  0
   20.9866  -22.1193  -15.4392 O   0  0  0  0  0  0  0  0  0  0  0  0
   17.8755  -18.7335  -13.9734 O   0  0  0  0  0  0  0  0  0  0  0  0
   20.1994  -21.6810  -13.3669 O   0  0  0  0  0  0  0  0  0  0  0  0
  1  2  1  0
  3  2  1  0
  4  5  1  0
  4  3  1  0
  5  1  1  0
  5  6  1  6
  7  6  2  0
  8  6  1  0
  9  8  1  0
 10 11  1  0
  9 10  1  1
 11 12  1  0
 12 13  1  0
 13 14  1  0
 15  9  1  0
 15 17  1  0
 16 15  2  0
 18 17  1  0
 18 22  1  0
 18 19  1  6
 20 19  1  0
 21 20  2  0
 22 25  1  0
 23 22  2  0
 24 20  1  0
M  END
$$$$
