PKD.pdb
     RDKit          3D

 25 25  0  0  1  0  0  0  0  0999 V2000
   26.0761  -17.7767  -15.7668 N   0  0  0  0  0  0  0  0  0  0  0  0
   27.4944  -17.8992  -16.1549 C   0  0  0  0  0  0  0  0  0  0  0  0
   27.5154  -19.2365  -16.9086 C   0  0  0  0  0  0  0  0  0  0  0  0
   26.0873  -19.4601  -17.3151 C   0  0  0  0  0  0  0  0  0  0  0  0
   25.4650  -18.0805  -17.0481 C   0  0  1  0  0  0  0  0  0  0  0  0
   24.0177  -18.2917  -16.9565 C   0  0  0  0  0  0  0  0  0  0  0  0
   23.2596  -18.3617  -17.9544 O   0  0  0  0  0  0  0  0  0  0  0  0
   23.4381  -18.4265  -15.6681 N   0  0  0  0  0  0  0  0  0  0  0  0
   22.0025  -18.5965  -15.5210 C   0  0  1  0  0  0  0  0  0  0  0  0
   21.7770  -19.4980  -14.3319 C   0  0  0  0  0  0  0  0  0  0  0  0
   20.9377  -20.7043  -14.6165 C   0  0  0  0  0  0  0  0  0  0  0  0
   20.6402  -21.5111  -13.3814 C   0  0  0  0  0  0  0  0  0  0  0  0
   19.7924  -22.7130  -13.6914 C   0  0  0  0  0  0  0  0  0  0  0  0
   19.5839  -23.5237  -12.4997 N   0  0  0  0  0  0  0  0  0  0  0  0
   21.3371  -17.2927  -15.2874 C   0  0  0  0  0  0  0  0  0  0  0  0
   21.7653  -16.5022  -14.4119 O   0  0  0  0  0  0  0  0  0  0  0  0
   20.2050  -16.8945  -16.0377 N   0  0  0  0  0  0  0  0  0  0  0  0
   19.6055  -15.5839  -15.7738 C   0  0  1  0  0  0  0  0  0  0  0  0
   20.1602  -14.5249  -16.6605 C   0  0  0  0  0  0  0  0  0  0  0  0
   19.5042  -13.2075  -16.5692 C   0  0  0  0  0  0  0  0  0  0  0  0
   19.2980  -12.7327  -15.4160 O   0  0  0  0  0  0  0  0  0  0  0  0
   18.1384  -15.6499  -15.9249 C   0  0  0  0  0  0  0  0  0  0  0  0
   17.3615  -14.6963  -15.7874 O   0  0  0  0  0  0  0  0  0  0  0  0
   19.0870  -12.4350  -17.6310 O   0  0  0  0  0  0  0  0  0  0  0  0
   17.5784  -16.8975  -16.2497 O   0  0  0  0  0  0  0  0  0  0  0  0
  1  2  1  0
  3  2  1  0
  4  5  1  0
  4  3  1  0
  5  1  1  0
  5  6  1  1
  7  6  2  0
  8  6  1  0
  9  8  1  0
 10 11  1  0
  9 10  1  1
 11 12  1  0
 12 13  1  0
 13 14  1  0
 15  9  1  0
 15 17  1  0
 16 15  2  0
 18 17  1  0
 18 22  1  0
 18 19  1  6
 20 19  1  0
 21 20  2  0
 22 25  1  0
 23 22  2  0
 24 20  1  0
M  END
$$$$
