PKD.pdb
     RDKit          3D

 25 25  0  0  1  0  0  0  0  0999 V2000
   25.2082  -23.7823  -15.4203 N   0  0  0  0  0  0  0  0  0  0  0  0
   26.4927  -23.5077  -16.0924 C   0  0  0  0  0  0  0  0  0  0  0  0
   26.7011  -24.7739  -16.9350 C   0  0  0  0  0  0  0  0  0  0  0  0
   25.3284  -25.3686  -17.0637 C   0  0  0  0  0  0  0  0  0  0  0  0
   24.4392  -24.2152  -16.5730 C   0  0  1  0  0  0  0  0  0  0  0  0
   23.1511  -24.8129  -16.2103 C   0  0  0  0  0  0  0  0  0  0  0  0
   22.2285  -25.0314  -17.0327 O   0  0  0  0  0  0  0  0  0  0  0  0
   22.9327  -25.1673  -14.8536 N   0  0  0  0  0  0  0  0  0  0  0  0
   21.6974  -25.8191  -14.4528 C   0  0  1  0  0  0  0  0  0  0  0  0
   22.0330  -26.7600  -13.3216 C   0  0  0  0  0  0  0  0  0  0  0  0
   20.8686  -27.5392  -12.7947 C   0  0  0  0  0  0  0  0  0  0  0  0
   21.2621  -28.5220  -11.7250 C   0  0  0  0  0  0  0  0  0  0  0  0
   20.0816  -29.3108  -11.2312 C   0  0  0  0  0  0  0  0  0  0  0  0
   20.4822  -30.2530  -10.1955 N   0  0  0  0  0  0  0  0  0  0  0  0
   20.7006  -24.8242  -13.9906 C   0  0  0  0  0  0  0  0  0  0  0  0
   20.9931  -23.9898  -13.1000 O   0  0  0  0  0  0  0  0  0  0  0  0
   19.3940  -24.7785  -14.5328 N   0  0  0  0  0  0  0  0  0  0  0  0
   18.4815  -23.7197  -14.0936 C   0  0  1  0  0  0  0  0  0  0  0  0
   17.6883  -23.1596  -15.2216 C   0  0  0  0  0  0  0  0  0  0  0  0
   18.3377  -22.0765  -15.9828 C   0  0  0  0  0  0  0  0  0  0  0  0
   19.4567  -21.6577  -15.5702 O   0  0  0  0  0  0  0  0  0  0  0  0
   17.5758  -24.2247  -13.0428 C   0  0  0  0  0  0  0  0  0  0  0  0
   17.1765  -25.3920  -12.9428 O   0  0  0  0  0  0  0  0  0  0  0  0
   17.8368  -21.4674  -17.1126 O   0  0  0  0  0  0  0  0  0  0  0  0
   17.1294  -23.3047  -12.0784 O   0  0  0  0  0  0  0  0  0  0  0  0
  1  2  1  0
  3  2  1  0
  4  5  1  0
  4  3  1  0
  5  1  1  0
  5  6  1  1
  7  6  2  0
  8  6  1  0
  9  8  1  0
 10 11  1  0
  9 10  1  1
 11 12  1  0
 12 13  1  0
 13 14  1  0
 15  9  1  0
 15 17  1  0
 16 15  2  0
 18 17  1  0
 18 22  1  0
 18 19  1  6
 20 19  1  0
 21 20  2  0
 22 25  1  0
 23 22  2  0
 24 20  1  0
M  END
$$$$
