PKD.pdb
     RDKit          3D

 25 25  0  0  1  0  0  0  0  0999 V2000
   27.3931  -20.8950  -14.8464 N   0  0  0  0  0  0  0  0  0  0  0  0
   28.7921  -20.5873  -15.2002 C   0  0  0  0  0  0  0  0  0  0  0  0
   28.8381  -20.9349  -16.6947 C   0  0  0  0  0  0  0  0  0  0  0  0
   27.4028  -20.8936  -17.1335 C   0  0  0  0  0  0  0  0  0  0  0  0
   26.7282  -20.2048  -15.9367 C   0  0  1  0  0  0  0  0  0  0  0  0
   25.3004  -20.5222  -16.0293 C   0  0  0  0  0  0  0  0  0  0  0  0
   24.5314  -20.0280  -16.8894 O   0  0  0  0  0  0  0  0  0  0  0  0
   24.7541  -21.4411  -15.0959 N   0  0  0  0  0  0  0  0  0  0  0  0
   23.3673  -21.8618  -15.2027 C   0  0  1  0  0  0  0  0  0  0  0  0
   23.2745  -23.2524  -14.6237 C   0  0  0  0  0  0  0  0  0  0  0  0
   21.8907  -23.8223  -14.5937 C   0  0  0  0  0  0  0  0  0  0  0  0
   21.8205  -25.1431  -13.8756 C   0  0  0  0  0  0  0  0  0  0  0  0
   20.4237  -25.6981  -13.8646 C   0  0  0  0  0  0  0  0  0  0  0  0
   20.3513  -26.9084  -13.0579 N   0  0  0  0  0  0  0  0  0  0  0  0
   22.4783  -20.9493  -14.4450 C   0  0  0  0  0  0  0  0  0  0  0  0
   22.7771  -20.5817  -13.2830 O   0  0  0  0  0  0  0  0  0  0  0  0
   21.2707  -20.4626  -15.0001 N   0  0  0  0  0  0  0  0  0  0  0  0
   20.4102  -19.6045  -14.1817 C   0  0  1  0  0  0  0  0  0  0  0  0
   20.2536  -18.2453  -14.7677 C   0  0  0  0  0  0  0  0  0  0  0  0
   19.2941  -17.3608  -14.0813 C   0  0  0  0  0  0  0  0  0  0  0  0
   19.3306  -17.3219  -12.8183 O   0  0  0  0  0  0  0  0  0  0  0  0
   19.0854  -20.2298  -13.9987 C   0  0  0  0  0  0  0  0  0  0  0  0
   18.4056  -20.7418  -14.8973 O   0  0  0  0  0  0  0  0  0  0  0  0
   18.3485  -16.5642  -14.6894 O   0  0  0  0  0  0  0  0  0  0  0  0
   18.5521  -20.2432  -12.6982 O   0  0  0  0  0  0  0  0  0  0  0  0
  1  2  1  0
  3  2  1  0
  4  5  1  0
  4  3  1  0
  5  1  1  0
  5  6  1  6
  7  6  2  0
  8  6  1  0
  9  8  1  0
 10 11  1  0
  9 10  1  1
 11 12  1  0
 12 13  1  0
 13 14  1  0
 15  9  1  0
 15 17  1  0
 16 15  2  0
 18 17  1  0
 18 22  1  0
 18 19  1  6
 20 19  1  0
 21 20  2  0
 22 25  1  0
 23 22  2  0
 24 20  1  0
M  END
$$$$
