APS.pdb
     RDKit          3D

 19 19  0  0  1  0  0  0  0  0999 V2000
   19.1031  -11.2223  -18.1896 C   0  0  0  0  0  0  0  0  0  0  0  0
   19.5174  -11.7621  -16.8449 C   0  0  2  0  0  0  0  0  0  0  0  0
   18.3487  -12.3826  -16.2546 N   0  0  0  0  0  0  0  0  0  0  0  0
   20.0557  -10.7629  -15.9329 C   0  0  0  0  0  0  0  0  0  0  0  0
   19.2976   -9.8771  -15.4921 O   0  0  0  0  0  0  0  0  0  0  0  0
   21.4327  -10.7359  -15.5024 N   0  0  0  0  0  0  0  0  0  0  0  0
   22.4117  -11.7566  -15.6661 C   0  0  0  0  0  0  0  0  0  0  0  0
   23.7050  -11.0182  -15.8386 C   0  0  0  0  0  0  0  0  0  0  0  0
   23.5036   -9.9512  -14.7404 C   0  0  0  0  0  0  0  0  0  0  0  0
   22.0394   -9.6375  -14.8111 C   0  0  1  0  0  0  0  0  0  0  0  0
   21.7904   -8.3128  -15.4356 C   0  0  0  0  0  0  0  0  0  0  0  0
   21.7276   -8.1110  -16.6483 O   0  0  0  0  0  0  0  0  0  0  0  0
   19.4699   -5.5757  -13.8101 O   0  0  0  0  0  0  0  0  0  0  0  0
   20.0580   -5.4000  -15.0810 C   0  0  0  0  0  0  0  0  0  0  0  0
   21.4992   -5.8683  -15.0013 C   0  0  2  0  0  0  0  0  0  0  0  0
   21.6152   -7.2131  -14.5372 N   0  0  0  0  0  0  0  0  0  0  0  0
   22.2166   -4.8978  -14.1378 C   0  0  0  0  0  0  0  0  0  0  0  0
   22.7139   -5.3093  -13.0667 O   0  0  0  0  0  0  0  0  0  0  0  0
   22.3583   -3.5606  -14.4663 O   0  0  0  0  0  0  0  0  0  0  0  0
  2  3  1  0
  2  1  1  6
  4  5  2  0
  4  2  1  0
  6  4  1  0
  7  6  1  0
  8  7  1  0
  9 10  1  0
  9  8  1  0
 10  6  1  0
 10 11  1  6
 11 12  2  0
 14 13  1  0
 15 14  1  1
 16 11  1  0
 16 15  1  0
 17 15  1  0
 17 19  1  0
 18 17  2  0
M  END
$$$$
