APS.pdb
     RDKit          3D

 19 19  0  0  1  0  0  0  0  0999 V2000
   21.1377  -11.3388  -19.4713 C   0  0  0  0  0  0  0  0  0  0  0  0
   21.1509  -11.9615  -18.0989 C   0  0  2  0  0  0  0  0  0  0  0  0
   19.8960  -12.6677  -17.9377 N   0  0  0  0  0  0  0  0  0  0  0  0
   21.3240  -11.0136  -17.0073 C   0  0  0  0  0  0  0  0  0  0  0  0
   20.4580  -10.1353  -16.8274 O   0  0  0  0  0  0  0  0  0  0  0  0
   22.4530  -11.0299  -16.1088 N   0  0  0  0  0  0  0  0  0  0  0  0
   23.4545  -12.0353  -15.9943 C   0  0  0  0  0  0  0  0  0  0  0  0
   24.7014  -11.2889  -15.6259 C   0  0  0  0  0  0  0  0  0  0  0  0
   24.0881  -10.3235  -14.5882 C   0  0  0  0  0  0  0  0  0  0  0  0
   22.7387   -9.9997  -15.1551 C   0  0  1  0  0  0  0  0  0  0  0  0
   22.6925   -8.6236  -15.7131 C   0  0  0  0  0  0  0  0  0  0  0  0
   23.1041   -8.3062  -16.8290 O   0  0  0  0  0  0  0  0  0  0  0  0
   19.7411   -6.1676  -14.8935 O   0  0  0  0  0  0  0  0  0  0  0  0
   20.7420   -5.8364  -15.8319 C   0  0  0  0  0  0  0  0  0  0  0  0
   22.0839   -6.2434  -15.2517 C   0  0  2  0  0  0  0  0  0  0  0  0
   22.1232   -7.6180  -14.8695 N   0  0  0  0  0  0  0  0  0  0  0  0
   22.3565   -5.3234  -14.1198 C   0  0  0  0  0  0  0  0  0  0  0  0
   22.4211   -5.8026  -12.9664 O   0  0  0  0  0  0  0  0  0  0  0  0
   22.5419   -3.9617  -14.2854 O   0  0  0  0  0  0  0  0  0  0  0  0
  2  3  1  0
  2  1  1  6
  4  5  2  0
  4  2  1  0
  6  4  1  0
  7  6  1  0
  8  7  1  0
  9 10  1  0
  9  8  1  0
 10  6  1  0
 10 11  1  6
 11 12  2  0
 14 13  1  0
 15 14  1  1
 16 11  1  0
 16 15  1  0
 17 15  1  0
 17 19  1  0
 18 17  2  0
M  END
$$$$
