APS.pdb
     RDKit          3D

 19 19  0  0  1  0  0  0  0  0999 V2000
   22.4885  -31.6674   -9.7094 C   0  0  0  0  0  0  0  0  0  0  0  0
   23.1177  -33.0198   -9.9248 C   0  0  2  0  0  0  0  0  0  0  0  0
   22.0423  -33.9551  -10.1858 N   0  0  0  0  0  0  0  0  0  0  0  0
   23.9220  -33.4963   -8.8086 C   0  0  0  0  0  0  0  0  0  0  0  0
   23.3466  -33.9429   -7.7971 O   0  0  0  0  0  0  0  0  0  0  0  0
   25.3649  -33.4827   -8.8025 N   0  0  0  0  0  0  0  0  0  0  0  0
   26.2321  -33.1110   -9.8687 C   0  0  0  0  0  0  0  0  0  0  0  0
   27.4201  -32.4934   -9.1941 C   0  0  0  0  0  0  0  0  0  0  0  0
   27.5803  -33.5109   -8.0435 C   0  0  0  0  0  0  0  0  0  0  0  0
   26.1696  -33.8651   -7.6806 C   0  0  1  0  0  0  0  0  0  0  0  0
   25.7592  -33.2416   -6.3961 C   0  0  0  0  0  0  0  0  0  0  0  0
   25.3602  -32.0832   -6.2759 O   0  0  0  0  0  0  0  0  0  0  0  0
   24.7794  -35.7514   -3.2224 O   0  0  0  0  0  0  0  0  0  0  0  0
   24.3504  -34.4105   -3.3211 C   0  0  0  0  0  0  0  0  0  0  0  0
   25.4755  -33.6008   -3.9386 C   0  0  2  0  0  0  0  0  0  0  0  0
   25.8449  -34.0721   -5.2342 N   0  0  0  0  0  0  0  0  0  0  0  0
   26.6021  -33.6295   -2.9732 C   0  0  0  0  0  0  0  0  0  0  0  0
   26.4194  -33.1517   -1.8319 O   0  0  0  0  0  0  0  0  0  0  0  0
   27.8427  -34.1609   -3.2808 O   0  0  0  0  0  0  0  0  0  0  0  0
  2  3  1  0
  2  1  1  1
  4  5  2  0
  4  2  1  0
  6  4  1  0
  7  6  1  0
  8  7  1  0
  9 10  1  0
  9  8  1  0
 10  6  1  0
 10 11  1  1
 11 12  2  0
 14 13  1  0
 15 14  1  1
 16 11  1  0
 16 15  1  0
 17 15  1  0
 17 19  1  0
 18 17  2  0
M  END
$$$$
