APS.pdb
     RDKit          3D

 19 19  0  0  1  0  0  0  0  0999 V2000
   26.6781  -25.7623  -21.6449 C   0  0  0  0  0  0  0  0  0  0  0  0
   27.6598  -25.2192  -20.6386 C   0  0  2  0  0  0  0  0  0  0  0  0
   28.8866  -24.9276  -21.3522 N   0  0  0  0  0  0  0  0  0  0  0  0
   27.9409  -26.1146  -19.5254 C   0  0  0  0  0  0  0  0  0  0  0  0
   28.7619  -27.0386  -19.6862 O   0  0  0  0  0  0  0  0  0  0  0  0
   27.3180  -25.9952  -18.2292 N   0  0  0  0  0  0  0  0  0  0  0  0
   26.4748  -24.9453  -17.7668 C   0  0  0  0  0  0  0  0  0  0  0  0
   25.5084  -25.6160  -16.8373 C   0  0  0  0  0  0  0  0  0  0  0  0
   26.5061  -26.5358  -16.1001 C   0  0  0  0  0  0  0  0  0  0  0  0
   27.4698  -26.9492  -17.1713 C   0  0  1  0  0  0  0  0  0  0  0  0
   27.2571  -28.3593  -17.5879 C   0  0  0  0  0  0  0  0  0  0  0  0
   26.5624  -28.7106  -18.5415 O   0  0  0  0  0  0  0  0  0  0  0  0
   28.5618  -32.9468  -16.6538 O   0  0  0  0  0  0  0  0  0  0  0  0
   28.6790  -31.6110  -16.2132 C   0  0  0  0  0  0  0  0  0  0  0  0
   27.7719  -30.7507  -17.0734 C   0  0  2  0  0  0  0  0  0  0  0  0
   27.9203  -29.3567  -16.8054 N   0  0  0  0  0  0  0  0  0  0  0  0
   26.3870  -31.2352  -16.8510 C   0  0  0  0  0  0  0  0  0  0  0  0
   25.7264  -30.7373  -15.9130 O   0  0  0  0  0  0  0  0  0  0  0  0
   25.7969  -32.2116  -17.6349 O   0  0  0  0  0  0  0  0  0  0  0  0
  2  3  1  0
  2  1  1  6
  4  5  2  0
  4  2  1  0
  6  4  1  0
  7  6  1  0
  8  7  1  0
  9 10  1  0
  9  8  1  0
 10  6  1  0
 10 11  1  6
 11 12  2  0
 14 13  1  0
 15 14  1  1
 16 11  1  0
 16 15  1  0
 17 15  1  0
 17 19  1  0
 18 17  2  0
M  END
$$$$
