APS.pdb
     RDKit          3D

 19 19  0  0  1  0  0  0  0  0999 V2000
   17.9223   -8.2790  -19.8789 C   0  0  0  0  0  0  0  0  0  0  0  0
   18.3485   -9.3760  -18.9375 C   0  0  2  0  0  0  0  0  0  0  0  0
   17.1471  -10.0653  -18.5122 N   0  0  0  0  0  0  0  0  0  0  0  0
   19.0893   -8.9168  -17.7712 C   0  0  0  0  0  0  0  0  0  0  0  0
   18.4816   -8.3008  -16.8740 O   0  0  0  0  0  0  0  0  0  0  0  0
   20.5041   -9.1347  -17.5886 N   0  0  0  0  0  0  0  0  0  0  0  0
   21.3570   -9.9766  -18.3572 C   0  0  0  0  0  0  0  0  0  0  0  0
   22.6842   -9.2793  -18.3514 C   0  0  0  0  0  0  0  0  0  0  0  0
   22.7147   -8.8648  -16.8640 C   0  0  0  0  0  0  0  0  0  0  0  0
   21.2882   -8.5183  -16.5603 C   0  0  1  0  0  0  0  0  0  0  0  0
   21.0921   -7.0505  -16.4423 C   0  0  0  0  0  0  0  0  0  0  0  0
   20.8305   -6.3010  -17.3832 O   0  0  0  0  0  0  0  0  0  0  0  0
   19.9576   -3.4538  -13.5593 O   0  0  0  0  0  0  0  0  0  0  0  0
   20.1491   -4.8477  -13.6693 C   0  0  0  0  0  0  0  0  0  0  0  0
   21.0386   -5.1069  -14.8712 C   0  0  2  0  0  0  0  0  0  0  0  0
   21.2228   -6.4986  -15.1287 N   0  0  0  0  0  0  0  0  0  0  0  0
   22.3157   -4.3944  -14.6189 C   0  0  0  0  0  0  0  0  0  0  0  0
   23.2512   -5.0243  -14.0784 O   0  0  0  0  0  0  0  0  0  0  0  0
   22.5152   -3.0666  -14.9553 O   0  0  0  0  0  0  0  0  0  0  0  0
  2  3  1  0
  2  1  1  6
  4  5  2  0
  4  2  1  0
  6  4  1  0
  7  6  1  0
  8  7  1  0
  9 10  1  0
  9  8  1  0
 10  6  1  0
 10 11  1  6
 11 12  2  0
 14 13  1  0
 15 14  1  1
 16 11  1  0
 16 15  1  0
 17 15  1  0
 17 19  1  0
 18 17  2  0
M  END
$$$$
