ECD.pdb
     RDKit          3D

 24 23  0  0  1  0  0  0  0  0999 V2000
   12.8026  -10.7481  -10.0072 N   0  0  0  0  0  0  0  0  0  0  0  0
   14.2603  -10.6887   -9.7497 C   0  0  1  0  0  0  0  0  0  0  0  0
   14.9371  -11.7901  -10.5236 C   0  0  0  0  0  0  0  0  0  0  0  0
   14.6356  -11.6871  -11.9837 C   0  0  0  0  0  0  0  0  0  0  0  0
   15.3851  -12.6995  -12.7824 C   0  0  0  0  0  0  0  0  0  0  0  0
   14.7540  -13.4803  -13.5513 O   0  0  0  0  0  0  0  0  0  0  0  0
   14.6916   -9.3260  -10.1093 C   0  0  0  0  0  0  0  0  0  0  0  0
   14.0635   -8.6861  -11.0104 O   0  0  0  0  0  0  0  0  0  0  0  0
   16.7578  -12.8533  -12.7453 O   0  0  0  0  0  0  0  0  0  0  0  0
   15.7777   -8.6253   -9.5281 N   0  0  0  0  0  0  0  0  0  0  0  0
   16.1052   -7.2529   -9.9268 C   0  0  1  0  0  0  0  0  0  0  0  0
   16.1745   -6.3879   -8.6572 C   0  0  0  0  0  0  0  0  0  0  0  0
   14.5402   -5.9383   -8.0723 S   0  0  0  0  0  0  0  0  0  0  0  0
   17.4830   -7.2779  -10.4599 C   0  0  0  0  0  0  0  0  0  0  0  0
   18.3341   -8.0624   -9.9997 O   0  0  0  0  0  0  0  0  0  0  0  0
   17.9043   -6.4106  -11.5215 N   0  0  0  0  0  0  0  0  0  0  0  0
   19.1764   -6.5258  -12.1624 C   0  0  1  0  0  0  0  0  0  0  0  0
   19.2797   -7.8840  -12.8147 C   0  0  0  0  0  0  0  0  0  0  0  0
   20.5481   -8.0354  -13.5332 C   0  0  0  0  0  0  0  0  0  0  0  0
   21.6260   -7.7340  -13.0119 O   0  0  0  0  0  0  0  0  0  0  0  0
   19.3988   -5.5120  -13.2069 C   0  0  0  0  0  0  0  0  0  0  0  0
   20.6956   -5.2062  -13.5790 O   0  0  0  0  0  0  0  0  0  0  0  0
   20.5727   -8.5302  -14.8429 O   0  0  0  0  0  0  0  0  0  0  0  0
   18.4603   -4.9032  -13.7831 O   0  0  0  0  0  0  0  0  0  0  0  0
  2  1  1  6
  3  4  1  0
  3  2  1  0
  4  5  1  0
  5  6  2  0
  5  9  1  0
  7  8  2  0
  7  2  1  0
 10  7  1  0
 11 10  1  0
 11 14  1  0
 11 12  1  1
 13 12  1  0
 14 16  1  0
 15 14  2  0
 16 17  1  0
 17 21  1  0
 17 18  1  6
 19 18  1  0
 20 19  2  0
 21 24  2  0
 21 22  1  0
 23 19  1  0
M  END
$$$$
