ECD.pdb
     RDKit          3D

 24 23  0  0  1  0  0  0  0  0999 V2000
   20.4230  -13.4423  -16.7243 N   0  0  0  0  0  0  0  0  0  0  0  0
   19.9377  -12.0647  -16.9716 C   0  0  1  0  0  0  0  0  0  0  0  0
   18.5214  -11.9496  -16.4703 C   0  0  0  0  0  0  0  0  0  0  0  0
   17.6510  -13.0085  -17.0658 C   0  0  0  0  0  0  0  0  0  0  0  0
   16.6692  -13.5453  -16.0797 C   0  0  0  0  0  0  0  0  0  0  0  0
   17.0779  -13.9806  -14.9650 O   0  0  0  0  0  0  0  0  0  0  0  0
   20.9000  -11.1604  -16.3168 C   0  0  0  0  0  0  0  0  0  0  0  0
   21.3103  -11.4239  -15.1429 O   0  0  0  0  0  0  0  0  0  0  0  0
   15.3060  -13.6044  -16.2980 O   0  0  0  0  0  0  0  0  0  0  0  0
   21.4396   -9.9799  -16.8858 N   0  0  0  0  0  0  0  0  0  0  0  0
   22.3718   -9.1275  -16.1412 C   0  0  1  0  0  0  0  0  0  0  0  0
   23.7008   -9.0808  -16.9137 C   0  0  0  0  0  0  0  0  0  0  0  0
   24.8569   -7.9274  -16.1732 S   0  0  0  0  0  0  0  0  0  0  0  0
   21.8358   -7.7519  -16.1995 C   0  0  0  0  0  0  0  0  0  0  0  0
   21.5314   -7.2282  -17.2879 O   0  0  0  0  0  0  0  0  0  0  0  0
   21.6411   -6.9602  -15.0196 N   0  0  0  0  0  0  0  0  0  0  0  0
   21.1798   -5.6082  -15.0567 C   0  0  1  0  0  0  0  0  0  0  0  0
   20.0005   -5.4629  -14.1245 C   0  0  0  0  0  0  0  0  0  0  0  0
   18.8499   -6.2392  -14.5951 C   0  0  0  0  0  0  0  0  0  0  0  0
   18.3751   -6.0718  -15.7226 O   0  0  0  0  0  0  0  0  0  0  0  0
   22.1995   -4.6308  -14.6405 C   0  0  0  0  0  0  0  0  0  0  0  0
   21.8793   -3.2850  -14.6447 O   0  0  0  0  0  0  0  0  0  0  0  0
   18.2516   -7.2007  -13.7715 O   0  0  0  0  0  0  0  0  0  0  0  0
   23.3588   -4.9606  -14.2787 O   0  0  0  0  0  0  0  0  0  0  0  0
  2  1  1  1
  3  4  1  0
  3  2  1  0
  4  5  1  0
  5  6  2  0
  5  9  1  0
  7  8  2  0
  7  2  1  0
 10  7  1  0
 11 10  1  0
 11 14  1  0
 11 12  1  6
 13 12  1  0
 14 16  1  0
 15 14  2  0
 16 17  1  0
 17 21  1  0
 17 18  1  1
 19 18  1  0
 20 19  2  0
 21 24  2  0
 21 22  1  0
 23 19  1  0
M  END
$$$$
