ECD.pdb
     RDKit          3D

 24 23  0  0  1  0  0  0  0  0999 V2000
   19.4994  -11.2534  -15.8127 N   0  0  0  0  0  0  0  0  0  0  0  0
   19.8292  -10.0021  -16.5339 C   0  0  1  0  0  0  0  0  0  0  0  0
   18.7429   -9.7179  -17.5386 C   0  0  0  0  0  0  0  0  0  0  0  0
   18.9218  -10.5406  -18.7734 C   0  0  0  0  0  0  0  0  0  0  0  0
   17.9136  -10.2049  -19.8200 C   0  0  0  0  0  0  0  0  0  0  0  0
   16.8423  -10.8727  -19.8922 O   0  0  0  0  0  0  0  0  0  0  0  0
   20.0058   -8.9622  -15.5043 C   0  0  0  0  0  0  0  0  0  0  0  0
   19.3368   -9.0272  -14.4254 O   0  0  0  0  0  0  0  0  0  0  0  0
   18.0658   -9.1889  -20.7441 O   0  0  0  0  0  0  0  0  0  0  0  0
   20.8829   -7.8528  -15.5959 N   0  0  0  0  0  0  0  0  0  0  0  0
   20.9170   -6.8158  -14.5600 C   0  0  1  0  0  0  0  0  0  0  0  0
   22.2813   -6.8876  -13.8538 C   0  0  0  0  0  0  0  0  0  0  0  0
   22.5415   -5.4818  -12.7715 S   0  0  0  0  0  0  0  0  0  0  0  0
   20.9040   -5.5127  -15.2563 C   0  0  0  0  0  0  0  0  0  0  0  0
   21.7205   -5.2625  -16.1631 O   0  0  0  0  0  0  0  0  0  0  0  0
   19.9616   -4.4830  -14.9271 N   0  0  0  0  0  0  0  0  0  0  0  0
   20.0113   -3.1722  -15.4939 C   0  0  1  0  0  0  0  0  0  0  0  0
   18.6318   -2.5594  -15.4430 C   0  0  0  0  0  0  0  0  0  0  0  0
   17.6940   -3.2845  -16.3049 C   0  0  0  0  0  0  0  0  0  0  0  0
   18.0539   -3.7834  -17.3755 O   0  0  0  0  0  0  0  0  0  0  0  0
   20.9286   -2.2634  -14.7862 C   0  0  0  0  0  0  0  0  0  0  0  0
   21.0933   -0.9743  -15.2602 O   0  0  0  0  0  0  0  0  0  0  0  0
   16.3517   -3.4326  -15.9348 O   0  0  0  0  0  0  0  0  0  0  0  0
   21.5773   -2.6034  -13.7629 O   0  0  0  0  0  0  0  0  0  0  0  0
  2  1  1  1
  3  4  1  0
  3  2  1  0
  4  5  1  0
  5  6  2  0
  5  9  1  0
  7  8  2  0
  7  2  1  0
 10  7  1  0
 11 10  1  0
 11 14  1  0
 11 12  1  6
 13 12  1  0
 14 16  1  0
 15 14  2  0
 16 17  1  0
 17 21  1  0
 17 18  1  1
 19 18  1  0
 20 19  2  0
 21 24  2  0
 21 22  1  0
 23 19  1  0
M  END
$$$$
