ECD.pdb
     RDKit          3D

 24 23  0  0  1  0  0  0  0  0999 V2000
   21.2417  -13.1880  -17.6076 N   0  0  0  0  0  0  0  0  0  0  0  0
   20.3837  -11.9901  -17.4547 C   0  0  1  0  0  0  0  0  0  0  0  0
   18.9871  -12.4327  -17.1027 C   0  0  0  0  0  0  0  0  0  0  0  0
   18.9861  -13.2934  -15.8809 C   0  0  0  0  0  0  0  0  0  0  0  0
   17.6065  -13.6952  -15.4809 C   0  0  0  0  0  0  0  0  0  0  0  0
   17.2892  -14.9193  -15.4762 O   0  0  0  0  0  0  0  0  0  0  0  0
   21.0347  -11.1377  -16.4438 C   0  0  0  0  0  0  0  0  0  0  0  0
   21.6367  -11.6762  -15.4623 O   0  0  0  0  0  0  0  0  0  0  0  0
   16.6195  -12.8049  -15.1034 O   0  0  0  0  0  0  0  0  0  0  0  0
   21.0623   -9.7209  -16.4552 N   0  0  0  0  0  0  0  0  0  0  0  0
   21.8149   -8.9613  -15.4520 C   0  0  1  0  0  0  0  0  0  0  0  0
   23.3151   -9.1769  -15.7127 C   0  0  0  0  0  0  0  0  0  0  0  0
   23.7381   -8.8805  -17.4299 S   0  0  0  0  0  0  0  0  0  0  0  0
   21.5711   -7.5299  -15.7253 C   0  0  0  0  0  0  0  0  0  0  0  0
   21.0359   -7.1625  -16.7884 O   0  0  0  0  0  0  0  0  0  0  0  0
   21.9340   -6.5039  -14.7913 N   0  0  0  0  0  0  0  0  0  0  0  0
   21.3324   -5.2077  -14.7860 C   0  0  1  0  0  0  0  0  0  0  0  0
   19.8676   -5.3444  -14.4447 C   0  0  0  0  0  0  0  0  0  0  0  0
   19.1925   -4.0436  -14.4612 C   0  0  0  0  0  0  0  0  0  0  0  0
   19.7956   -3.0064  -14.7531 O   0  0  0  0  0  0  0  0  0  0  0  0
   21.9341   -4.2878  -13.8061 C   0  0  0  0  0  0  0  0  0  0  0  0
   21.8262   -2.9242  -14.0127 O   0  0  0  0  0  0  0  0  0  0  0  0
   17.8328   -3.9402  -14.1434 O   0  0  0  0  0  0  0  0  0  0  0  0
   22.5480   -4.6828  -12.7812 O   0  0  0  0  0  0  0  0  0  0  0  0
  2  1  1  1
  3  4  1  0
  3  2  1  0
  4  5  1  0
  5  6  2  0
  5  9  1  0
  7  8  2  0
  7  2  1  0
 10  7  1  0
 11 10  1  0
 11 14  1  0
 11 12  1  6
 13 12  1  0
 14 16  1  0
 15 14  2  0
 16 17  1  0
 17 21  1  0
 17 18  1  1
 19 18  1  0
 20 19  2  0
 21 24  2  0
 21 22  1  0
 23 19  1  0
M  END
$$$$
