ECD.pdb
     RDKit          3D

 24 23  0  0  1  0  0  0  0  0999 V2000
   17.6267  -11.7063  -15.9499 N   0  0  0  0  0  0  0  0  0  0  0  0
   17.9402  -10.3714  -16.5105 C   0  0  1  0  0  0  0  0  0  0  0  0
   16.6500   -9.6623  -16.8312 C   0  0  0  0  0  0  0  0  0  0  0  0
   16.1775   -9.9990  -18.2084 C   0  0  0  0  0  0  0  0  0  0  0  0
   16.9043   -9.2229  -19.2544 C   0  0  0  0  0  0  0  0  0  0  0  0
   17.0228   -7.9698  -19.1329 O   0  0  0  0  0  0  0  0  0  0  0  0
   18.7884   -9.6906  -15.5157 C   0  0  0  0  0  0  0  0  0  0  0  0
   18.5648   -9.8640  -14.2765 O   0  0  0  0  0  0  0  0  0  0  0  0
   17.4754   -9.7861  -20.3795 O   0  0  0  0  0  0  0  0  0  0  0  0
   19.8743   -8.8291  -15.8106 N   0  0  0  0  0  0  0  0  0  0  0  0
   20.6619   -8.1977  -14.7472 C   0  0  1  0  0  0  0  0  0  0  0  0
   22.0430   -8.8730  -14.7074 C   0  0  0  0  0  0  0  0  0  0  0  0
   23.1591   -8.0322  -13.5838 S   0  0  0  0  0  0  0  0  0  0  0  0
   20.9180   -6.8057  -15.1713 C   0  0  0  0  0  0  0  0  0  0  0  0
   21.3927   -6.5553  -16.2953 O   0  0  0  0  0  0  0  0  0  0  0  0
   20.6359   -5.6865  -14.3202 N   0  0  0  0  0  0  0  0  0  0  0  0
   20.9938   -4.3442  -14.6550 C   0  0  1  0  0  0  0  0  0  0  0  0
   19.8219   -3.4349  -14.3707 C   0  0  0  0  0  0  0  0  0  0  0  0
   18.7146   -3.6864  -15.2974 C   0  0  0  0  0  0  0  0  0  0  0  0
   18.9009   -3.7909  -16.5135 O   0  0  0  0  0  0  0  0  0  0  0  0
   22.1459   -3.8381  -13.8902 C   0  0  0  0  0  0  0  0  0  0  0  0
   22.6804   -4.6237  -12.8849 O   0  0  0  0  0  0  0  0  0  0  0  0
   17.4029   -3.8162  -14.8248 O   0  0  0  0  0  0  0  0  0  0  0  0
   22.6734   -2.7162  -14.1061 O   0  0  0  0  0  0  0  0  0  0  0  0
  2  1  1  1
  3  4  1  0
  3  2  1  0
  4  5  1  0
  5  6  2  0
  5  9  1  0
  7  8  2  0
  7  2  1  0
 10  7  1  0
 11 10  1  0
 11 14  1  0
 11 12  1  6
 13 12  1  0
 14 16  1  0
 15 14  2  0
 16 17  1  0
 17 21  1  0
 17 18  1  1
 19 18  1  0
 20 19  2  0
 21 24  2  0
 21 22  1  0
 23 19  1  0
M  END
$$$$
