ECD.pdb
     RDKit          3D

 24 23  0  0  1  0  0  0  0  0999 V2000
   18.9633  -11.7127  -17.1762 N   0  0  0  0  0  0  0  0  0  0  0  0
   18.5218  -11.3699  -15.8043 C   0  0  1  0  0  0  0  0  0  0  0  0
   18.0929  -12.6315  -15.1009 C   0  0  0  0  0  0  0  0  0  0  0  0
   17.0230  -13.3393  -15.8675 C   0  0  0  0  0  0  0  0  0  0  0  0
   16.6394  -14.6316  -15.2293 C   0  0  0  0  0  0  0  0  0  0  0  0
   15.6653  -15.2919  -15.6922 O   0  0  0  0  0  0  0  0  0  0  0  0
   19.6473  -10.6609  -15.1696 C   0  0  0  0  0  0  0  0  0  0  0  0
   19.5730  -10.3363  -13.9428 O   0  0  0  0  0  0  0  0  0  0  0  0
   17.2872  -15.1787  -14.1383 O   0  0  0  0  0  0  0  0  0  0  0  0
   20.8551  -10.2909  -15.8119 N   0  0  0  0  0  0  0  0  0  0  0  0
   21.8703   -9.4836  -15.1280 C   0  0  1  0  0  0  0  0  0  0  0  0
   23.2262   -9.7427  -15.8059 C   0  0  0  0  0  0  0  0  0  0  0  0
   23.9657  -11.2762  -15.2430 S   0  0  0  0  0  0  0  0  0  0  0  0
   21.5549   -8.0680  -15.4103 C   0  0  0  0  0  0  0  0  0  0  0  0
   20.8981   -7.7465  -16.4186 O   0  0  0  0  0  0  0  0  0  0  0  0
   21.9840   -7.0059  -14.5475 N   0  0  0  0  0  0  0  0  0  0  0  0
   21.5273   -5.6588  -14.6848 C   0  0  1  0  0  0  0  0  0  0  0  0
   20.0464   -5.6071  -14.3931 C   0  0  0  0  0  0  0  0  0  0  0  0
   19.5154   -4.2522  -14.5674 C   0  0  0  0  0  0  0  0  0  0  0  0
   19.2041   -3.5509  -13.6001 O   0  0  0  0  0  0  0  0  0  0  0  0
   22.1947   -4.7189  -13.7685 C   0  0  0  0  0  0  0  0  0  0  0  0
   22.3283   -3.3949  -14.1466 O   0  0  0  0  0  0  0  0  0  0  0  0
   19.3448   -3.7108  -15.8475 O   0  0  0  0  0  0  0  0  0  0  0  0
   22.6549   -5.0622  -12.6488 O   0  0  0  0  0  0  0  0  0  0  0  0
  2  1  1  6
  3  4  1  0
  3  2  1  0
  4  5  1  0
  5  6  2  0
  5  9  1  0
  7  8  2  0
  7  2  1  0
 10  7  1  0
 11 10  1  0
 11 14  1  0
 11 12  1  6
 13 12  1  0
 14 16  1  0
 15 14  2  0
 16 17  1  0
 17 21  1  0
 17 18  1  1
 19 18  1  0
 20 19  2  0
 21 24  2  0
 21 22  1  0
 23 19  1  0
M  END
$$$$
