ECD.pdb
     RDKit          3D

 24 23  0  0  1  0  0  0  0  0999 V2000
   17.8921  -13.9702  -16.2157 N   0  0  0  0  0  0  0  0  0  0  0  0
   17.5131  -12.5385  -16.2506 C   0  0  1  0  0  0  0  0  0  0  0  0
   16.7106  -12.2167  -15.0165 C   0  0  0  0  0  0  0  0  0  0  0  0
   15.3519  -12.8359  -15.0802 C   0  0  0  0  0  0  0  0  0  0  0  0
   14.5746  -12.6087  -13.8277 C   0  0  0  0  0  0  0  0  0  0  0  0
   14.8961  -11.6596  -13.0565 O   0  0  0  0  0  0  0  0  0  0  0  0
   18.7686  -11.7785  -16.3865 C   0  0  0  0  0  0  0  0  0  0  0  0
   19.8537  -12.2754  -15.9488 O   0  0  0  0  0  0  0  0  0  0  0  0
   13.4972  -13.3795  -13.4346 O   0  0  0  0  0  0  0  0  0  0  0  0
   18.8966  -10.4989  -16.9820 N   0  0  0  0  0  0  0  0  0  0  0  0
   20.1981   -9.8329  -17.0941 C   0  0  1  0  0  0  0  0  0  0  0  0
   20.4540   -9.5265  -18.5793 C   0  0  0  0  0  0  0  0  0  0  0  0
   21.9280   -8.5309  -18.8056 S   0  0  0  0  0  0  0  0  0  0  0  0
   20.0639   -8.5152  -16.4393 C   0  0  0  0  0  0  0  0  0  0  0  0
   19.0414   -7.8219  -16.5980 O   0  0  0  0  0  0  0  0  0  0  0  0
   21.0921   -7.9751  -15.5980 N   0  0  0  0  0  0  0  0  0  0  0  0
   21.0368   -6.6564  -15.0502 C   0  0  1  0  0  0  0  0  0  0  0  0
   21.9860   -6.5680  -13.8788 C   0  0  0  0  0  0  0  0  0  0  0  0
   21.8650   -5.2798  -13.1904 C   0  0  0  0  0  0  0  0  0  0  0  0
   21.0354   -4.4352  -13.5411 O   0  0  0  0  0  0  0  0  0  0  0  0
   21.4168   -5.6075  -16.0114 C   0  0  0  0  0  0  0  0  0  0  0  0
   22.6423   -5.6933  -16.6475 O   0  0  0  0  0  0  0  0  0  0  0  0
   22.6946   -4.9684  -12.1062 O   0  0  0  0  0  0  0  0  0  0  0  0
   20.6769   -4.6273  -16.2854 O   0  0  0  0  0  0  0  0  0  0  0  0
  2  1  1  1
  3  4  1  0
  3  2  1  0
  4  5  1  0
  5  6  2  0
  5  9  1  0
  7  8  2  0
  7  2  1  0
 10  7  1  0
 11 10  1  0
 11 14  1  0
 11 12  1  6
 13 12  1  0
 14 16  1  0
 15 14  2  0
 16 17  1  0
 17 21  1  0
 17 18  1  1
 19 18  1  0
 20 19  2  0
 21 24  2  0
 21 22  1  0
 23 19  1  0
M  END
$$$$
