ECD.pdb
     RDKit          3D

 24 23  0  0  1  0  0  0  0  0999 V2000
   22.5878  -13.4925  -17.1355 N   0  0  0  0  0  0  0  0  0  0  0  0
   21.8228  -12.3107  -17.5966 C   0  0  1  0  0  0  0  0  0  0  0  0
   20.3630  -12.6756  -17.6755 C   0  0  0  0  0  0  0  0  0  0  0  0
   20.0226  -13.7522  -16.6964 C   0  0  0  0  0  0  0  0  0  0  0  0
   18.5671  -14.0778  -16.7067 C   0  0  0  0  0  0  0  0  0  0  0  0
   18.1214  -14.9707  -15.9302 O   0  0  0  0  0  0  0  0  0  0  0  0
   22.1365  -11.2190  -16.6573 C   0  0  0  0  0  0  0  0  0  0  0  0
   22.2573  -11.4729  -15.4176 O   0  0  0  0  0  0  0  0  0  0  0  0
   17.6410  -13.4589  -17.5244 O   0  0  0  0  0  0  0  0  0  0  0  0
   22.3282   -9.8596  -17.0086 N   0  0  0  0  0  0  0  0  0  0  0  0
   22.7715   -8.8687  -16.0229 C   0  0  1  0  0  0  0  0  0  0  0  0
   24.2679   -8.5989  -16.2533 C   0  0  0  0  0  0  0  0  0  0  0  0
   24.6210   -8.2550  -17.9774 S   0  0  0  0  0  0  0  0  0  0  0  0
   22.0890   -7.6004  -16.3523 C   0  0  0  0  0  0  0  0  0  0  0  0
   21.8258   -7.3019  -17.5326 O   0  0  0  0  0  0  0  0  0  0  0  0
   21.6998   -6.6606  -15.3413 N   0  0  0  0  0  0  0  0  0  0  0  0
   21.1344   -5.3831  -15.6422 C   0  0  1  0  0  0  0  0  0  0  0  0
   19.6450   -5.4319  -15.3964 C   0  0  0  0  0  0  0  0  0  0  0  0
   19.0140   -4.1414  -15.6870 C   0  0  0  0  0  0  0  0  0  0  0  0
   19.6127   -3.2532  -16.3011 O   0  0  0  0  0  0  0  0  0  0  0  0
   21.6856   -4.2917  -14.8216 C   0  0  0  0  0  0  0  0  0  0  0  0
   21.3863   -2.9836  -15.1576 O   0  0  0  0  0  0  0  0  0  0  0  0
   17.7029   -3.8777  -15.2723 O   0  0  0  0  0  0  0  0  0  0  0  0
   22.4229   -4.4903  -13.8214 O   0  0  0  0  0  0  0  0  0  0  0  0
  2  1  1  1
  3  4  1  0
  3  2  1  0
  4  5  1  0
  5  6  2  0
  5  9  1  0
  7  8  2  0
  7  2  1  0
 10  7  1  0
 11 10  1  0
 11 14  1  0
 11 12  1  6
 13 12  1  0
 14 16  1  0
 15 14  2  0
 16 17  1  0
 17 21  1  0
 17 18  1  1
 19 18  1  0
 20 19  2  0
 21 24  2  0
 21 22  1  0
 23 19  1  0
M  END
$$$$
