WEA.pdb
     RDKit          3D

 29 30  0  0  1  0  0  0  0  0999 V2000
    6.4723  -18.1137   24.5776 N   0  0  0  0  0  0  0  0  0  0  0  0
    7.4925  -17.1639   24.7848 C   0  0  1  0  0  0  0  0  0  0  0  0
    7.3558  -16.3785   26.0588 C   0  0  0  0  0  0  0  0  0  0  0  0
    6.5278  -15.1443   25.9209 C   0  0  0  0  0  0  0  0  0  0  0  0
    5.1532  -15.1169   25.7635 C   0  0  0  0  0  0  0  0  0  0  0  0
    4.7979  -13.8391   25.6599 N   0  0  0  0  0  0  0  0  0  0  0  0
    5.8695  -13.0142   25.7409 C   0  0  0  0  0  0  0  0  0  0  0  0
    5.9502  -11.6379   25.6877 C   0  0  0  0  0  0  0  0  0  0  0  0
    7.2109  -11.0797   25.8107 C   0  0  0  0  0  0  0  0  0  0  0  0
    8.3187  -11.8805   25.9775 C   0  0  0  0  0  0  0  0  0  0  0  0
    8.2084  -13.2435   26.0262 C   0  0  0  0  0  0  0  0  0  0  0  0
    6.9467  -13.8347   25.9043 C   0  0  0  0  0  0  0  0  0  0  0  0
    8.8652  -17.7007   24.6032 C   0  0  0  0  0  0  0  0  0  0  0  0
    9.2294  -18.8514   24.8587 O   0  0  0  0  0  0  0  0  0  0  0  0
    9.8269  -16.7967   24.0920 N   0  0  0  0  0  0  0  0  0  0  0  0
   11.2920  -17.0547   24.1926 C   0  0  1  0  0  0  0  0  0  0  0  0
   11.9692  -16.4522   23.0537 C   0  0  0  0  0  0  0  0  0  0  0  0
   13.4277  -16.6169   22.9123 C   0  0  0  0  0  0  0  0  0  0  0  0
   14.0897  -15.9469   21.7893 C   0  0  0  0  0  0  0  0  0  0  0  0
   15.2529  -15.5032   21.9063 O   0  0  0  0  0  0  0  0  0  0  0  0
   11.6425  -16.7183   25.5455 C   0  0  0  0  0  0  0  0  0  0  0  0
   12.8280  -16.9854   25.9749 O   0  0  0  0  0  0  0  0  0  0  0  0
   13.4641  -15.7705   20.5508 O   0  0  0  0  0  0  0  0  0  0  0  0
   10.7157  -14.4623   28.3698 C   0  0  0  0  0  0  0  0  0  0  0  0
   11.3989  -15.7301   27.8488 C   0  0  2  0  0  0  0  0  0  0  0  0
   10.8320  -16.0793   26.5434 N   0  0  0  0  0  0  0  0  0  0  0  0
   11.2527  -16.8375   28.7806 C   0  0  0  0  0  0  0  0  0  0  0  0
   10.6519  -17.8764   28.4666 O   0  0  0  0  0  0  0  0  0  0  0  0
   11.7847  -16.7597   30.0536 O   0  0  0  0  0  0  0  0  0  0  0  0
  2  1  1  1
  2 13  1  0
  2  3  1  0
  3  4  1  0
  4 12  1  0
  5  4  2  0
  5  6  1  0
  6  7  1  0
  7  8  1  0
  8  9  2  0
 10  9  1  0
 11 10  2  0
 12  7  2  0
 12 11  1  0
 13 15  1  0
 14 13  2  0
 15 16  1  0
 16 17  1  6
 17 18  1  0
 19 20  2  0
 19 18  1  0
 21 22  2  0
 21 16  1  0
 23 19  1  0
 25 24  1  1
 25 27  1  0
 25 26  1  0
 26 21  1  0
 27 29  1  0
 28 27  2  0
M  END
$$$$
