WEA.pdb
     RDKit          3D

 29 30  0  0  1  0  0  0  0  0999 V2000
    6.3513  -17.7326   24.4215 N   0  0  0  0  0  0  0  0  0  0  0  0
    7.5876  -17.0730   24.2717 C   0  0  1  0  0  0  0  0  0  0  0  0
    8.0040  -16.2624   25.4667 C   0  0  0  0  0  0  0  0  0  0  0  0
    7.0804  -15.1328   25.7812 C   0  0  0  0  0  0  0  0  0  0  0  0
    5.7889  -15.2654   26.2603 C   0  0  0  0  0  0  0  0  0  0  0  0
    5.2950  -14.0376   26.3951 N   0  0  0  0  0  0  0  0  0  0  0  0
    6.1952  -13.0937   26.0290 C   0  0  0  0  0  0  0  0  0  0  0  0
    6.1000  -11.7173   26.0180 C   0  0  0  0  0  0  0  0  0  0  0  0
    7.2144  -11.0164   25.5902 C   0  0  0  0  0  0  0  0  0  0  0  0
    8.3539  -11.6830   25.1986 C   0  0  0  0  0  0  0  0  0  0  0  0
    8.4195  -13.0495   25.2197 C   0  0  0  0  0  0  0  0  0  0  0  0
    7.3082  -13.7834   25.6471 C   0  0  0  0  0  0  0  0  0  0  0  0
    8.6833  -17.9455   23.7784 C   0  0  0  0  0  0  0  0  0  0  0  0
    8.8202  -19.1450   24.0325 O   0  0  0  0  0  0  0  0  0  0  0  0
    9.6466  -17.3280   22.9453 N   0  0  0  0  0  0  0  0  0  0  0  0
   10.9092  -18.0141   22.5471 C   0  0  1  0  0  0  0  0  0  0  0  0
   11.3902  -17.4533   21.2929 C   0  0  0  0  0  0  0  0  0  0  0  0
   12.6341  -17.9772   20.6990 C   0  0  0  0  0  0  0  0  0  0  0  0
   13.0638  -17.4299   19.4090 C   0  0  0  0  0  0  0  0  0  0  0  0
   13.2787  -18.1843   18.4351 O   0  0  0  0  0  0  0  0  0  0  0  0
   11.7229  -18.0248   23.7321 C   0  0  0  0  0  0  0  0  0  0  0  0
   12.2829  -16.9316   24.1224 O   0  0  0  0  0  0  0  0  0  0  0  0
   13.2545  -16.0594   19.2052 O   0  0  0  0  0  0  0  0  0  0  0  0
   12.8282  -20.1448   26.6695 C   0  0  0  0  0  0  0  0  0  0  0  0
   12.9919  -18.9837   25.6843 C   0  0  2  0  0  0  0  0  0  0  0  0
   12.0103  -19.1272   24.6056 N   0  0  0  0  0  0  0  0  0  0  0  0
   14.3406  -18.9289   25.1420 C   0  0  0  0  0  0  0  0  0  0  0  0
   14.5832  -19.2504   23.9687 O   0  0  0  0  0  0  0  0  0  0  0  0
   15.3980  -18.5132   25.9287 O   0  0  0  0  0  0  0  0  0  0  0  0
  2  1  1  1
  2 13  1  0
  2  3  1  0
  3  4  1  0
  4 12  1  0
  5  4  2  0
  5  6  1  0
  6  7  1  0
  7  8  1  0
  8  9  2  0
 10  9  1  0
 11 10  2  0
 12  7  2  0
 12 11  1  0
 13 15  1  0
 14 13  2  0
 15 16  1  0
 16 17  1  6
 17 18  1  0
 19 20  2  0
 19 18  1  0
 21 22  2  0
 21 16  1  0
 23 19  1  0
 25 24  1  1
 25 27  1  0
 25 26  1  0
 26 21  1  0
 27 29  1  0
 28 27  2  0
M  END
$$$$
