WEA.pdb
     RDKit          3D

 29 30  0  0  1  0  0  0  0  0999 V2000
    6.6920  -17.4653   24.9748 N   0  0  0  0  0  0  0  0  0  0  0  0
    7.7549  -16.6121   24.6168 C   0  0  1  0  0  0  0  0  0  0  0  0
    8.0176  -15.5064   25.6003 C   0  0  0  0  0  0  0  0  0  0  0  0
    6.8334  -14.6357   25.8598 C   0  0  0  0  0  0  0  0  0  0  0  0
    5.5815  -15.0823   26.2454 C   0  0  0  0  0  0  0  0  0  0  0  0
    4.8023  -14.0099   26.3569 N   0  0  0  0  0  0  0  0  0  0  0  0
    5.4747  -12.8708   26.0644 C   0  0  0  0  0  0  0  0  0  0  0  0
    5.0562  -11.5560   26.0600 C   0  0  0  0  0  0  0  0  0  0  0  0
    5.9979  -10.6007   25.7187 C   0  0  0  0  0  0  0  0  0  0  0  0
    7.2865  -10.9686   25.4019 C   0  0  0  0  0  0  0  0  0  0  0  0
    7.6733  -12.2810   25.4143 C   0  0  0  0  0  0  0  0  0  0  0  0
    6.7423  -13.2677   25.7552 C   0  0  0  0  0  0  0  0  0  0  0  0
    8.9994  -17.3245   24.2307 C   0  0  0  0  0  0  0  0  0  0  0  0
    9.2428  -18.5158   24.4394 O   0  0  0  0  0  0  0  0  0  0  0  0
    9.9815  -16.5513   23.5667 N   0  0  0  0  0  0  0  0  0  0  0  0
   11.4278  -16.9135   23.5908 C   0  0  1  0  0  0  0  0  0  0  0  0
   12.1095  -16.2581   22.4843 C   0  0  0  0  0  0  0  0  0  0  0  0
   13.5365  -16.5437   22.2460 C   0  0  0  0  0  0  0  0  0  0  0  0
   14.1543  -15.9964   21.0348 C   0  0  0  0  0  0  0  0  0  0  0  0
   14.1872  -16.6634   19.9775 O   0  0  0  0  0  0  0  0  0  0  0  0
   11.8420  -16.7226   24.9540 C   0  0  0  0  0  0  0  0  0  0  0  0
   13.0119  -17.1212   25.3193 O   0  0  0  0  0  0  0  0  0  0  0  0
   14.7311  -14.7226   21.0005 O   0  0  0  0  0  0  0  0  0  0  0  0
   11.0729  -14.7495   28.0582 C   0  0  0  0  0  0  0  0  0  0  0  0
   11.7419  -15.9254   27.3405 C   0  0  2  0  0  0  0  0  0  0  0  0
   11.1157  -16.1060   26.0280 N   0  0  0  0  0  0  0  0  0  0  0  0
   11.6513  -17.1496   28.1211 C   0  0  0  0  0  0  0  0  0  0  0  0
   11.0918  -18.1638   27.6772 O   0  0  0  0  0  0  0  0  0  0  0  0
   12.1917  -17.2148   29.3913 O   0  0  0  0  0  0  0  0  0  0  0  0
  2  1  1  1
  2 13  1  0
  2  3  1  0
  3  4  1  0
  4 12  1  0
  5  4  2  0
  5  6  1  0
  6  7  1  0
  7  8  1  0
  8  9  2  0
 10  9  1  0
 11 10  2  0
 12  7  2  0
 12 11  1  0
 13 15  1  0
 14 13  2  0
 15 16  1  0
 16 17  1  6
 17 18  1  0
 19 20  2  0
 19 18  1  0
 21 22  2  0
 21 16  1  0
 23 19  1  0
 25 24  1  1
 25 27  1  0
 25 26  1  0
 26 21  1  0
 27 29  1  0
 28 27  2  0
M  END
$$$$
