WEA.pdb
     RDKit          3D

 29 30  0  0  1  0  0  0  0  0999 V2000
    6.1241  -17.1795   23.5277 N   0  0  0  0  0  0  0  0  0  0  0  0
    7.2081  -16.6241   22.8189 C   0  0  1  0  0  0  0  0  0  0  0  0
    7.5546  -15.2185   23.2223 C   0  0  0  0  0  0  0  0  0  0  0  0
    7.0208  -14.8254   24.5595 C   0  0  0  0  0  0  0  0  0  0  0  0
    6.3509  -15.6655   25.4317 C   0  0  0  0  0  0  0  0  0  0  0  0
    6.0253  -14.9406   26.4985 N   0  0  0  0  0  0  0  0  0  0  0  0
    6.4460  -13.6584   26.3791 C   0  0  0  0  0  0  0  0  0  0  0  0
    6.3253  -12.5888   27.2423 C   0  0  0  0  0  0  0  0  0  0  0  0
    6.8765  -11.3875   26.8310 C   0  0  0  0  0  0  0  0  0  0  0  0
    7.5111  -11.2881   25.6129 C   0  0  0  0  0  0  0  0  0  0  0  0
    7.6154  -12.3662   24.7769 C   0  0  0  0  0  0  0  0  0  0  0  0
    7.0673  -13.5926   25.1667 C   0  0  0  0  0  0  0  0  0  0  0  0
    8.4056  -17.5004   22.7600 C   0  0  0  0  0  0  0  0  0  0  0  0
    8.6766  -18.2914   21.8529 O   0  0  0  0  0  0  0  0  0  0  0  0
    9.3027  -17.4064   23.8507 N   0  0  0  0  0  0  0  0  0  0  0  0
   10.7019  -17.9162   23.7745 C   0  0  1  0  0  0  0  0  0  0  0  0
   11.4464  -17.1423   22.7920 C   0  0  0  0  0  0  0  0  0  0  0  0
   12.8884  -17.3962   22.6166 C   0  0  0  0  0  0  0  0  0  0  0  0
   13.6121  -16.5949   21.6254 C   0  0  0  0  0  0  0  0  0  0  0  0
   13.3003  -16.6423   20.4153 O   0  0  0  0  0  0  0  0  0  0  0  0
   11.1387  -18.0255   25.1397 C   0  0  0  0  0  0  0  0  0  0  0  0
   11.3861  -16.9531   25.8104 O   0  0  0  0  0  0  0  0  0  0  0  0
   14.6720  -15.7522   21.9758 O   0  0  0  0  0  0  0  0  0  0  0  0
   11.4641  -20.4112   28.0443 C   0  0  0  0  0  0  0  0  0  0  0  0
   11.8308  -19.1261   27.2962 C   0  0  2  0  0  0  0  0  0  0  0  0
   11.3374  -19.2146   25.9192 N   0  0  0  0  0  0  0  0  0  0  0  0
   13.2663  -18.8912   27.3091 C   0  0  0  0  0  0  0  0  0  0  0  0
   13.9564  -19.0263   26.2872 O   0  0  0  0  0  0  0  0  0  0  0  0
   13.9053  -18.5078   28.4729 O   0  0  0  0  0  0  0  0  0  0  0  0
  2  1  1  1
  2 13  1  0
  2  3  1  0
  3  4  1  0
  4 12  1  0
  5  4  2  0
  5  6  1  0
  6  7  1  0
  7  8  1  0
  8  9  2  0
 10  9  1  0
 11 10  2  0
 12  7  2  0
 12 11  1  0
 13 15  1  0
 14 13  2  0
 15 16  1  0
 16 17  1  6
 17 18  1  0
 19 20  2  0
 19 18  1  0
 21 22  2  0
 21 16  1  0
 23 19  1  0
 25 24  1  1
 25 27  1  0
 25 26  1  0
 26 21  1  0
 27 29  1  0
 28 27  2  0
M  END
$$$$
