WEA.pdb
     RDKit          3D

 29 30  0  0  1  0  0  0  0  0999 V2000
    6.7576  -17.2069   23.7358 N   0  0  0  0  0  0  0  0  0  0  0  0
    8.0442  -16.7116   24.0281 C   0  0  1  0  0  0  0  0  0  0  0  0
    8.2149  -16.2317   25.4420 C   0  0  0  0  0  0  0  0  0  0  0  0
    7.2268  -15.1897   25.8490 C   0  0  0  0  0  0  0  0  0  0  0  0
    5.9287  -15.4359   26.2608 C   0  0  0  0  0  0  0  0  0  0  0  0
    5.3704  -14.2559   26.5169 N   0  0  0  0  0  0  0  0  0  0  0  0
    6.2339  -13.2358   26.2958 C   0  0  0  0  0  0  0  0  0  0  0  0
    6.0710  -11.8732   26.4392 C   0  0  0  0  0  0  0  0  0  0  0  0
    7.1624  -11.0772   26.1371 C   0  0  0  0  0  0  0  0  0  0  0  0
    8.3456  -11.6411   25.7147 C   0  0  0  0  0  0  0  0  0  0  0  0
    8.4782  -12.9964   25.5813 C   0  0  0  0  0  0  0  0  0  0  0  0
    7.3914  -13.8249   25.8794 C   0  0  0  0  0  0  0  0  0  0  0  0
    9.1489  -17.6093   23.6049 C   0  0  0  0  0  0  0  0  0  0  0  0
    9.1474  -18.8406   23.6817 O   0  0  0  0  0  0  0  0  0  0  0  0
   10.2970  -16.9776   23.0698 N   0  0  0  0  0  0  0  0  0  0  0  0
   11.5962  -17.6922   22.9126 C   0  0  1  0  0  0  0  0  0  0  0  0
   12.4838  -16.9036   22.0706 C   0  0  0  0  0  0  0  0  0  0  0  0
   13.8582  -17.3794   21.8275 C   0  0  0  0  0  0  0  0  0  0  0  0
   14.6797  -16.6441   20.8617 C   0  0  0  0  0  0  0  0  0  0  0  0
   15.9279  -16.6799   20.9271 O   0  0  0  0  0  0  0  0  0  0  0  0
   11.9711  -18.0908   24.2419 C   0  0  0  0  0  0  0  0  0  0  0  0
   12.2197  -17.1857   25.1251 O   0  0  0  0  0  0  0  0  0  0  0  0
   14.1191  -15.8758   19.8361 O   0  0  0  0  0  0  0  0  0  0  0  0
   12.2004  -21.0568   26.5792 C   0  0  0  0  0  0  0  0  0  0  0  0
   12.5502  -19.6289   26.1497 C   0  0  2  0  0  0  0  0  0  0  0  0
   12.1028  -19.4192   24.7701 N   0  0  0  0  0  0  0  0  0  0  0  0
   13.9767  -19.3695   26.2678 C   0  0  0  0  0  0  0  0  0  0  0  0
   14.4842  -19.0023   27.3385 O   0  0  0  0  0  0  0  0  0  0  0  0
   14.8122  -19.5268   25.1784 O   0  0  0  0  0  0  0  0  0  0  0  0
  2  1  1  1
  2 13  1  0
  2  3  1  0
  3  4  1  0
  4 12  1  0
  5  4  2  0
  5  6  1  0
  6  7  1  0
  7  8  1  0
  8  9  2  0
 10  9  1  0
 11 10  2  0
 12  7  2  0
 12 11  1  0
 13 15  1  0
 14 13  2  0
 15 16  1  0
 16 17  1  1
 17 18  1  0
 19 20  2  0
 19 18  1  0
 21 22  2  0
 21 16  1  0
 23 19  1  0
 25 24  1  6
 25 27  1  0
 25 26  1  0
 26 21  1  0
 27 29  1  0
 28 27  2  0
M  END
$$$$
