WEA.pdb
     RDKit          3D

 29 30  0  0  1  0  0  0  0  0999 V2000
    6.3976  -17.4974   24.4051 N   0  0  0  0  0  0  0  0  0  0  0  0
    7.5506  -16.7250   24.1605 C   0  0  1  0  0  0  0  0  0  0  0  0
    8.0500  -15.9646   25.3568 C   0  0  0  0  0  0  0  0  0  0  0  0
    7.1416  -14.8643   25.7947 C   0  0  0  0  0  0  0  0  0  0  0  0
    5.8711  -15.0357   26.3159 C   0  0  0  0  0  0  0  0  0  0  0  0
    5.3846  -13.8227   26.5643 N   0  0  0  0  0  0  0  0  0  0  0  0
    6.2697  -12.8518   26.2339 C   0  0  0  0  0  0  0  0  0  0  0  0
    6.1756  -11.4787   26.3316 C   0  0  0  0  0  0  0  0  0  0  0  0
    7.2718  -10.7449   25.9123 C   0  0  0  0  0  0  0  0  0  0  0  0
    8.3933  -11.3774   25.4237 C   0  0  0  0  0  0  0  0  0  0  0  0
    8.4582  -12.7414   25.3380 C   0  0  0  0  0  0  0  0  0  0  0  0
    7.3649  -13.5081   25.7544 C   0  0  0  0  0  0  0  0  0  0  0  0
    8.6398  -17.4642   23.4731 C   0  0  0  0  0  0  0  0  0  0  0  0
    8.9950  -18.6195   23.7202 O   0  0  0  0  0  0  0  0  0  0  0  0
    9.3193  -16.7643   22.4475 N   0  0  0  0  0  0  0  0  0  0  0  0
   10.4955  -17.3422   21.7362 C   0  0  1  0  0  0  0  0  0  0  0  0
   10.6307  -16.7106   20.4318 C   0  0  0  0  0  0  0  0  0  0  0  0
   10.4570  -17.5252   19.2149 C   0  0  0  0  0  0  0  0  0  0  0  0
   11.3771  -18.6458   19.0004 C   0  0  0  0  0  0  0  0  0  0  0  0
   11.3277  -19.6609   19.7289 O   0  0  0  0  0  0  0  0  0  0  0  0
   11.5635  -17.3268   22.6983 C   0  0  0  0  0  0  0  0  0  0  0  0
   11.8651  -16.2212   23.2879 O   0  0  0  0  0  0  0  0  0  0  0  0
   12.3426  -18.6364   17.9884 O   0  0  0  0  0  0  0  0  0  0  0  0
   13.6433  -19.4852   24.9390 C   0  0  0  0  0  0  0  0  0  0  0  0
   13.4447  -18.2039   24.1238 C   0  0  2  0  0  0  0  0  0  0  0  0
   12.3814  -18.4211   23.1391 N   0  0  0  0  0  0  0  0  0  0  0  0
   14.6747  -17.7943   23.4638 C   0  0  0  0  0  0  0  0  0  0  0  0
   15.6685  -17.4286   24.1098 O   0  0  0  0  0  0  0  0  0  0  0  0
   14.7684  -17.8017   22.0851 O   0  0  0  0  0  0  0  0  0  0  0  0
  2  1  1  1
  2 13  1  0
  2  3  1  0
  3  4  1  0
  4 12  1  0
  5  4  2  0
  5  6  1  0
  6  7  1  0
  7  8  1  0
  8  9  2  0
 10  9  1  0
 11 10  2  0
 12  7  2  0
 12 11  1  0
 13 15  1  0
 14 13  2  0
 15 16  1  0
 16 17  1  6
 17 18  1  0
 19 20  2  0
 19 18  1  0
 21 22  2  0
 21 16  1  0
 23 19  1  0
 25 24  1  6
 25 27  1  0
 25 26  1  0
 26 21  1  0
 27 29  1  0
 28 27  2  0
M  END
$$$$
