WEA.pdb
     RDKit          3D

 29 30  0  0  1  0  0  0  0  0999 V2000
    6.2391  -17.5877   24.4661 N   0  0  0  0  0  0  0  0  0  0  0  0
    7.4755  -16.9338   24.2941 C   0  0  1  0  0  0  0  0  0  0  0  0
    7.9192  -16.1288   25.4831 C   0  0  0  0  0  0  0  0  0  0  0  0
    6.9828  -15.0254   25.8483 C   0  0  0  0  0  0  0  0  0  0  0  0
    5.6886  -15.1942   26.3086 C   0  0  0  0  0  0  0  0  0  0  0  0
    5.1824  -13.9794   26.5032 N   0  0  0  0  0  0  0  0  0  0  0  0
    6.0770  -13.0099   26.1950 C   0  0  0  0  0  0  0  0  0  0  0  0
    5.9693  -11.6356   26.2553 C   0  0  0  0  0  0  0  0  0  0  0  0
    7.0807  -10.9036   25.8746 C   0  0  0  0  0  0  0  0  0  0  0  0
    8.2295  -11.5388   25.4584 C   0  0  0  0  0  0  0  0  0  0  0  0
    8.3074  -12.9039   25.4085 C   0  0  0  0  0  0  0  0  0  0  0  0
    7.1992  -13.6689   25.7871 C   0  0  0  0  0  0  0  0  0  0  0  0
    8.5570  -17.8101   23.7769 C   0  0  0  0  0  0  0  0  0  0  0  0
    8.7134  -19.0023   24.0531 O   0  0  0  0  0  0  0  0  0  0  0  0
    9.4808  -17.2059   22.8910 N   0  0  0  0  0  0  0  0  0  0  0  0
   10.7958  -17.8300   22.5674 C   0  0  1  0  0  0  0  0  0  0  0  0
   11.4072  -17.1208   21.4531 C   0  0  0  0  0  0  0  0  0  0  0  0
   12.7394  -17.5372   20.9772 C   0  0  0  0  0  0  0  0  0  0  0  0
   13.3054  -16.8388   19.8195 C   0  0  0  0  0  0  0  0  0  0  0  0
   13.0174  -17.1945   18.6558 O   0  0  0  0  0  0  0  0  0  0  0  0
   11.4660  -17.9747   23.8309 C   0  0  0  0  0  0  0  0  0  0  0  0
   11.7641  -16.9213   24.5109 O   0  0  0  0  0  0  0  0  0  0  0  0
   14.1835  -15.7586   19.9547 O   0  0  0  0  0  0  0  0  0  0  0  0
   12.3604  -20.3801   26.5659 C   0  0  0  0  0  0  0  0  0  0  0  0
   12.6479  -19.1282   25.7317 C   0  0  2  0  0  0  0  0  0  0  0  0
   11.8623  -19.1837   24.4959 N   0  0  0  0  0  0  0  0  0  0  0  0
   14.0652  -19.0013   25.4294 C   0  0  0  0  0  0  0  0  0  0  0  0
   14.5068  -19.2009   24.2874 O   0  0  0  0  0  0  0  0  0  0  0  0
   14.9660  -18.6517   26.4173 O   0  0  0  0  0  0  0  0  0  0  0  0
  2  1  1  1
  2 13  1  0
  2  3  1  0
  3  4  1  0
  4 12  1  0
  5  4  2  0
  5  6  1  0
  6  7  1  0
  7  8  1  0
  8  9  2  0
 10  9  1  0
 11 10  2  0
 12  7  2  0
 12 11  1  0
 13 15  1  0
 14 13  2  0
 15 16  1  0
 16 17  1  6
 17 18  1  0
 19 20  2  0
 19 18  1  0
 21 22  2  0
 21 16  1  0
 23 19  1  0
 25 24  1  6
 25 27  1  0
 25 26  1  0
 26 21  1  0
 27 29  1  0
 28 27  2  0
M  END
$$$$
