WEA.pdb
     RDKit          3D

 29 30  0  0  1  0  0  0  0  0999 V2000
    6.6318  -17.4947   24.0268 N   0  0  0  0  0  0  0  0  0  0  0  0
    7.8973  -16.8814   23.9357 C   0  0  1  0  0  0  0  0  0  0  0  0
    8.2451  -16.0057   25.1066 C   0  0  0  0  0  0  0  0  0  0  0  0
    7.2011  -14.9895   25.4311 C   0  0  0  0  0  0  0  0  0  0  0  0
    5.8845  -15.2699   25.7521 C   0  0  0  0  0  0  0  0  0  0  0  0
    5.2760  -14.1045   25.9552 N   0  0  0  0  0  0  0  0  0  0  0  0
    6.1237  -13.0616   25.7853 C   0  0  0  0  0  0  0  0  0  0  0  0
    5.9122  -11.7032   25.9022 C   0  0  0  0  0  0  0  0  0  0  0  0
    6.9993  -10.8783   25.6700 C   0  0  0  0  0  0  0  0  0  0  0  0
    8.2252  -11.4111   25.3389 C   0  0  0  0  0  0  0  0  0  0  0  0
    8.4055  -12.7630   25.2297 C   0  0  0  0  0  0  0  0  0  0  0  0
    7.3243  -13.6203   25.4586 C   0  0  0  0  0  0  0  0  0  0  0  0
    8.9989  -17.8149   23.5889 C   0  0  0  0  0  0  0  0  0  0  0  0
    9.0093  -19.0298   23.8035 O   0  0  0  0  0  0  0  0  0  0  0  0
   10.1286  -17.2413   22.9581 N   0  0  0  0  0  0  0  0  0  0  0  0
   11.4577  -17.9172   22.9412 C   0  0  1  0  0  0  0  0  0  0  0  0
   12.3600  -17.1892   22.0612 C   0  0  0  0  0  0  0  0  0  0  0  0
   12.1786  -17.2878   20.6011 C   0  0  0  0  0  0  0  0  0  0  0  0
   13.3506  -17.0757   19.7468 C   0  0  0  0  0  0  0  0  0  0  0  0
   13.6030  -15.9439   19.2787 O   0  0  0  0  0  0  0  0  0  0  0  0
   11.7773  -18.1561   24.3222 C   0  0  0  0  0  0  0  0  0  0  0  0
   11.9923  -17.1530   25.1024 O   0  0  0  0  0  0  0  0  0  0  0  0
   14.2304  -18.1111   19.4150 O   0  0  0  0  0  0  0  0  0  0  0  0
   11.7969  -20.7973   27.0176 C   0  0  0  0  0  0  0  0  0  0  0  0
   12.2436  -19.4565   26.4275 C   0  0  2  0  0  0  0  0  0  0  0  0
   11.8839  -19.4131   25.0076 N   0  0  0  0  0  0  0  0  0  0  0  0
   13.6731  -19.2473   26.5977 C   0  0  0  0  0  0  0  0  0  0  0  0
   14.4772  -19.4755   25.6811 O   0  0  0  0  0  0  0  0  0  0  0  0
   14.1777  -18.7844   27.7980 O   0  0  0  0  0  0  0  0  0  0  0  0
  2  1  1  1
  2 13  1  0
  2  3  1  0
  3  4  1  0
  4 12  1  0
  5  4  2  0
  5  6  1  0
  6  7  1  0
  7  8  1  0
  8  9  2  0
 10  9  1  0
 11 10  2  0
 12  7  2  0
 12 11  1  0
 13 15  1  0
 14 13  2  0
 15 16  1  0
 16 17  1  1
 17 18  1  0
 19 20  2  0
 19 18  1  0
 21 22  2  0
 21 16  1  0
 23 19  1  0
 25 24  1  6
 25 27  1  0
 25 26  1  0
 26 21  1  0
 27 29  1  0
 28 27  2  0
M  END
$$$$
