YQY.pdb
     RDKit          3D

 34 35  0  0  1  0  0  0  0  0999 V2000
   24.4766  -33.4130  -15.8121 O   0  0  0  0  0  0  0  0  0  0  0  0
   24.6402  -32.1450  -16.3931 C   0  0  0  0  0  0  0  0  0  0  0  0
   23.5805  -31.3465  -16.7355 C   0  0  0  0  0  0  0  0  0  0  0  0
   23.7271  -30.1000  -17.3064 C   0  0  0  0  0  0  0  0  0  0  0  0
   25.0031  -29.6443  -17.5397 C   0  0  0  0  0  0  0  0  0  0  0  0
   25.2308  -28.3056  -18.1542 C   0  0  0  0  0  0  0  0  0  0  0  0
   25.7869  -27.4032  -17.0765 C   0  0  2  0  0  0  0  0  0  0  0  0
   25.1440  -26.1171  -17.1554 N   0  0  0  0  0  0  0  0  0  0  0  0
   27.2580  -27.2913  -17.1241 C   0  0  0  0  0  0  0  0  0  0  0  0
   27.8149  -26.2621  -16.6777 O   0  0  0  0  0  0  0  0  0  0  0  0
   26.0874  -30.4425  -17.1979 C   0  0  0  0  0  0  0  0  0  0  0  0
   25.9140  -31.6806  -16.6303 C   0  0  0  0  0  0  0  0  0  0  0  0
   30.9261  -31.7167  -16.8857 N   0  0  0  0  0  0  0  0  0  0  0  0
   31.8903  -30.7032  -16.6710 C   0  0  0  0  0  0  0  0  0  0  0  0
   33.0914  -31.0503  -16.6886 O   0  0  0  0  0  0  0  0  0  0  0  0
   31.5019  -29.3171  -16.4413 C   0  0  0  0  0  0  0  0  0  0  0  0
   30.0249  -29.1195  -16.4817 C   0  0  0  0  0  0  0  0  0  0  0  0
   29.4835  -28.4010  -17.6571 C   0  0  2  0  0  0  0  0  0  0  0  0
   28.0374  -28.3275  -17.6649 N   0  0  0  0  0  0  0  0  0  0  0  0
   30.0201  -29.0512  -18.9063 C   0  0  0  0  0  0  0  0  0  0  0  0
   31.2595  -29.2343  -19.0988 O   0  0  0  0  0  0  0  0  0  0  0  0
   30.5888  -28.6387  -27.4657 O   0  0  0  0  0  0  0  0  0  0  0  0
   30.3245  -28.5501  -26.1033 C   0  0  0  0  0  0  0  0  0  0  0  0
   29.0996  -28.9719  -25.6022 C   0  0  0  0  0  0  0  0  0  0  0  0
   28.8456  -28.8809  -24.2516 C   0  0  0  0  0  0  0  0  0  0  0  0
   29.8016  -28.3735  -23.4001 C   0  0  0  0  0  0  0  0  0  0  0  0
   29.5045  -28.2777  -21.9670 C   0  0  0  0  0  0  0  0  0  0  0  0
   29.4259  -29.5999  -21.2865 C   0  0  2  0  0  0  0  0  0  0  0  0
   29.0771  -29.4616  -19.8787 N   0  0  0  0  0  0  0  0  0  0  0  0
   30.7252  -30.2869  -21.3698 C   0  0  0  0  0  0  0  0  0  0  0  0
   31.2109  -30.7868  -20.3223 O   0  0  0  0  0  0  0  0  0  0  0  0
   31.0436  -27.9430  -23.8864 C   0  0  0  0  0  0  0  0  0  0  0  0
   31.2746  -28.0436  -25.2381 C   0  0  0  0  0  0  0  0  0  0  0  0
   31.4782  -30.4394  -22.5207 O   0  0  0  0  0  0  0  0  0  0  0  0
  2  1  1  0
  3  2  2  0
  4  3  1  0
  5 11  1  0
  5  4  2  0
  6  5  1  0
  7  6  1  0
  7  8  1  6
  9  7  1  0
  9 10  2  0
 11 12  2  0
 12  2  1  0
 13 14  1  0
 14 15  2  0
 16 17  1  0
 16 14  1  0
 18 17  1  1
 18 19  1  0
 18 20  1  0
 19  9  1  0
 20 29  1  0
 21 20  2  0
 23 22  1  0
 23 24  2  0
 25 24  1  0
 26 25  2  0
 27 26  1  0
 28 27  1  1
 28 30  1  0
 29 28  1  0
 30 31  2  0
 30 34  1  0
 32 33  2  0
 32 26  1  0
 33 23  1  0
M  END
$$$$
