YQY.pdb
     RDKit          3D

 34 35  0  0  1  0  0  0  0  0999 V2000
   22.5039  -24.8921  -24.0411 O   0  0  0  0  0  0  0  0  0  0  0  0
   22.7049  -25.2923  -22.7101 C   0  0  0  0  0  0  0  0  0  0  0  0
   22.2587  -26.4933  -22.2239 C   0  0  0  0  0  0  0  0  0  0  0  0
   22.4491  -26.8984  -20.9199 C   0  0  0  0  0  0  0  0  0  0  0  0
   23.1209  -26.0487  -20.0730 C   0  0  0  0  0  0  0  0  0  0  0  0
   23.3601  -26.4265  -18.6511 C   0  0  0  0  0  0  0  0  0  0  0  0
   22.2714  -25.7820  -17.8238 C   0  0  2  0  0  0  0  0  0  0  0  0
   22.4120  -24.3503  -17.8862 N   0  0  0  0  0  0  0  0  0  0  0  0
   22.2389  -26.2756  -16.4331 C   0  0  0  0  0  0  0  0  0  0  0  0
   22.5374  -25.5016  -15.4948 O   0  0  0  0  0  0  0  0  0  0  0  0
   23.5793  -24.8278  -20.5513 C   0  0  0  0  0  0  0  0  0  0  0  0
   23.3764  -24.4482  -21.8551 C   0  0  0  0  0  0  0  0  0  0  0  0
   19.1188  -26.0910  -12.2692 N   0  0  0  0  0  0  0  0  0  0  0  0
   18.5843  -26.6721  -13.4438 C   0  0  0  0  0  0  0  0  0  0  0  0
   17.3551  -26.5423  -13.6319 O   0  0  0  0  0  0  0  0  0  0  0  0
   19.4281  -27.3885  -14.3925 C   0  0  0  0  0  0  0  0  0  0  0  0
   20.8448  -27.4894  -13.9399 C   0  0  0  0  0  0  0  0  0  0  0  0
   21.7792  -28.2033  -14.8389 C   0  0  2  0  0  0  0  0  0  0  0  0
   21.8767  -27.6038  -16.1534 N   0  0  0  0  0  0  0  0  0  0  0  0
   21.3654  -29.6506  -14.9102 C   0  0  0  0  0  0  0  0  0  0  0  0
   20.5801  -30.0900  -15.8029 O   0  0  0  0  0  0  0  0  0  0  0  0
   21.6147  -38.2814  -14.3868 O   0  0  0  0  0  0  0  0  0  0  0  0
   21.8784  -36.9163  -14.4117 C   0  0  0  0  0  0  0  0  0  0  0  0
   22.6552  -36.3383  -13.4158 C   0  0  0  0  0  0  0  0  0  0  0  0
   22.9118  -34.9855  -13.4476 C   0  0  0  0  0  0  0  0  0  0  0  0
   22.4004  -34.2076  -14.4624 C   0  0  0  0  0  0  0  0  0  0  0  0
   22.6793  -32.7677  -14.4698 C   0  0  0  0  0  0  0  0  0  0  0  0
   21.5740  -31.9451  -13.9047 C   0  0  2  0  0  0  0  0  0  0  0  0
   21.8931  -30.5238  -13.9292 N   0  0  0  0  0  0  0  0  0  0  0  0
   21.3219  -32.3327  -12.5071 C   0  0  0  0  0  0  0  0  0  0  0  0
   20.8373  -33.4705  -12.2753 O   0  0  0  0  0  0  0  0  0  0  0  0
   21.6146  -34.7721  -15.4764 C   0  0  0  0  0  0  0  0  0  0  0  0
   21.3719  -36.1246  -15.4239 C   0  0  0  0  0  0  0  0  0  0  0  0
   21.5767  -31.5443  -11.3988 O   0  0  0  0  0  0  0  0  0  0  0  0
  2  1  1  0
  3  2  2  0
  4  3  1  0
  5 11  1  0
  5  4  2  0
  6  5  1  0
  7  6  1  0
  7  8  1  1
  9  7  1  0
  9 10  2  0
 11 12  2  0
 12  2  1  0
 13 14  1  0
 14 15  2  0
 16 17  1  0
 16 14  1  0
 18 17  1  1
 18 19  1  0
 18 20  1  0
 19  9  1  0
 20 29  1  0
 21 20  2  0
 23 22  1  0
 23 24  2  0
 25 24  1  0
 26 25  2  0
 27 26  1  0
 28 27  1  1
 28 30  1  0
 29 28  1  0
 30 31  2  0
 30 34  1  0
 32 33  2  0
 32 26  1  0
 33 23  1  0
M  END
$$$$
