YQY.pdb
     RDKit          3D

 34 35  0  0  1  0  0  0  0  0999 V2000
   31.8046  -28.0808  -18.0188 O   0  0  0  0  0  0  0  0  0  0  0  0
   31.2413  -26.8169  -17.7792 C   0  0  0  0  0  0  0  0  0  0  0  0
   31.1756  -25.8425  -18.7405 C   0  0  0  0  0  0  0  0  0  0  0  0
   30.6254  -24.5979  -18.5187 C   0  0  0  0  0  0  0  0  0  0  0  0
   30.1203  -24.3305  -17.2681 C   0  0  0  0  0  0  0  0  0  0  0  0
   29.5119  -23.0045  -16.9626 C   0  0  0  0  0  0  0  0  0  0  0  0
   28.0653  -23.2455  -16.5965 C   0  0  2  0  0  0  0  0  0  0  0  0
   27.3739  -23.7990  -17.7319 N   0  0  0  0  0  0  0  0  0  0  0  0
   27.3961  -22.0376  -16.0750 C   0  0  0  0  0  0  0  0  0  0  0  0
   27.9511  -21.3609  -15.1791 O   0  0  0  0  0  0  0  0  0  0  0  0
   30.1798  -25.3082  -16.2832 C   0  0  0  0  0  0  0  0  0  0  0  0
   30.7332  -26.5402  -16.5302 C   0  0  0  0  0  0  0  0  0  0  0  0
   25.4269  -17.1940  -18.7497 N   0  0  0  0  0  0  0  0  0  0  0  0
   25.2729  -18.4838  -19.3116 C   0  0  0  0  0  0  0  0  0  0  0  0
   25.1932  -18.5537  -20.5575 O   0  0  0  0  0  0  0  0  0  0  0  0
   25.2113  -19.6772  -18.4768 C   0  0  0  0  0  0  0  0  0  0  0  0
   25.3548  -19.3714  -17.0249 C   0  0  0  0  0  0  0  0  0  0  0  0
   25.3501  -20.5270  -16.0999 C   0  0  2  0  0  0  0  0  0  0  0  0
   26.1443  -21.6410  -16.5743 N   0  0  0  0  0  0  0  0  0  0  0  0
   23.9208  -20.9266  -15.8381 C   0  0  0  0  0  0  0  0  0  0  0  0
   23.3067  -21.7675  -16.5608 O   0  0  0  0  0  0  0  0  0  0  0  0
   16.0323  -20.6487  -11.9162 O   0  0  0  0  0  0  0  0  0  0  0  0
   17.3788  -20.4742  -12.2166 C   0  0  0  0  0  0  0  0  0  0  0  0
   17.8264  -19.2655  -12.7344 C   0  0  0  0  0  0  0  0  0  0  0  0
   19.1616  -19.1006  -13.0293 C   0  0  0  0  0  0  0  0  0  0  0  0
   20.0506  -20.1297  -12.8123 C   0  0  0  0  0  0  0  0  0  0  0  0
   21.4660  -19.9337  -13.1429 C   0  0  0  0  0  0  0  0  0  0  0  0
   21.8769  -20.5944  -14.4127 C   0  0  2  0  0  0  0  0  0  0  0  0
   23.2712  -20.3219  -14.7355 N   0  0  0  0  0  0  0  0  0  0  0  0
   21.0465  -20.1062  -15.5258 C   0  0  0  0  0  0  0  0  0  0  0  0
   21.3747  -19.0345  -16.0975 O   0  0  0  0  0  0  0  0  0  0  0  0
   19.6186  -21.3566  -12.2904 C   0  0  0  0  0  0  0  0  0  0  0  0
   18.2812  -21.4980  -12.0035 C   0  0  0  0  0  0  0  0  0  0  0  0
   19.9135  -20.7324  -16.0145 O   0  0  0  0  0  0  0  0  0  0  0  0
  2  1  1  0
  3  2  2  0
  4  3  1  0
  5 11  1  0
  5  4  2  0
  6  5  1  0
  7  6  1  0
  7  8  1  6
  9  7  1  0
  9 10  2  0
 11 12  2  0
 12  2  1  0
 13 14  1  0
 14 15  2  0
 16 17  1  0
 16 14  1  0
 18 17  1  6
 18 19  1  0
 18 20  1  0
 19  9  1  0
 20 29  1  0
 21 20  2  0
 23 22  1  0
 23 24  2  0
 25 24  1  0
 26 25  2  0
 27 26  1  0
 28 27  1  1
 28 30  1  0
 29 28  1  0
 30 31  2  0
 30 34  1  0
 32 33  2  0
 32 26  1  0
 33 23  1  0
M  END
$$$$
