YQY.pdb
     RDKit          3D

 34 35  0  0  1  0  0  0  0  0999 V2000
   23.3897  -17.7994  -20.0755 O   0  0  0  0  0  0  0  0  0  0  0  0
   22.7631  -16.5618  -19.8569 C   0  0  0  0  0  0  0  0  0  0  0  0
   22.5334  -16.0610  -18.6022 C   0  0  0  0  0  0  0  0  0  0  0  0
   21.9194  -14.8478  -18.3735 C   0  0  0  0  0  0  0  0  0  0  0  0
   21.5215  -14.1115  -19.4644 C   0  0  0  0  0  0  0  0  0  0  0  0
   20.8521  -12.7916  -19.2863 C   0  0  0  0  0  0  0  0  0  0  0  0
   19.5696  -13.0355  -18.5242 C   0  0  2  0  0  0  0  0  0  0  0  0
   18.7372  -13.9411  -19.2728 N   0  0  0  0  0  0  0  0  0  0  0  0
   18.8606  -11.7875  -18.1795 C   0  0  0  0  0  0  0  0  0  0  0  0
   18.6375  -10.9363  -19.0706 O   0  0  0  0  0  0  0  0  0  0  0  0
   21.7476  -14.6061  -20.7426 C   0  0  0  0  0  0  0  0  0  0  0  0
   22.3614  -15.8178  -20.9430 C   0  0  0  0  0  0  0  0  0  0  0  0
   14.7593  -12.3849  -13.8353 N   0  0  0  0  0  0  0  0  0  0  0  0
   14.4719  -11.8161  -15.0990 C   0  0  0  0  0  0  0  0  0  0  0  0
   13.2722  -11.5693  -15.3502 O   0  0  0  0  0  0  0  0  0  0  0  0
   15.5262  -11.5293  -16.0640 C   0  0  0  0  0  0  0  0  0  0  0  0
   16.6050  -10.6697  -15.4987 C   0  0  0  0  0  0  0  0  0  0  0  0
   17.7457  -10.3638  -16.3910 C   0  0  2  0  0  0  0  0  0  0  0  0
   18.4347  -11.5469  -16.8625 N   0  0  0  0  0  0  0  0  0  0  0  0
   18.6760   -9.4194  -15.6743 C   0  0  0  0  0  0  0  0  0  0  0  0
   19.6786   -9.8243  -15.0128 O   0  0  0  0  0  0  0  0  0  0  0  0
   22.7272   -1.7670  -14.4189 O   0  0  0  0  0  0  0  0  0  0  0  0
   22.1371   -2.9615  -14.8169 C   0  0  0  0  0  0  0  0  0  0  0  0
   21.3672   -3.0076  -15.9720 C   0  0  0  0  0  0  0  0  0  0  0  0
   20.7861   -4.1947  -16.3595 C   0  0  0  0  0  0  0  0  0  0  0  0
   20.9668   -5.3325  -15.6050 C   0  0  0  0  0  0  0  0  0  0  0  0
   20.3303   -6.5827  -16.0325 C   0  0  0  0  0  0  0  0  0  0  0  0
   19.2308   -7.0282  -15.1323 C   0  0  2  0  0  0  0  0  0  0  0  0
   18.3907   -8.0361  -15.7656 N   0  0  0  0  0  0  0  0  0  0  0  0
   18.3785   -5.8828  -14.7739 C   0  0  0  0  0  0  0  0  0  0  0  0
   18.6549   -5.2274  -13.7360 O   0  0  0  0  0  0  0  0  0  0  0  0
   21.7402   -5.3064  -14.4364 C   0  0  0  0  0  0  0  0  0  0  0  0
   22.3105   -4.1102  -14.0696 C   0  0  0  0  0  0  0  0  0  0  0  0
   17.2773   -5.4484  -15.4905 O   0  0  0  0  0  0  0  0  0  0  0  0
  2  1  1  0
  3  2  2  0
  4  3  1  0
  5 11  1  0
  5  4  2  0
  6  5  1  0
  7  6  1  0
  7  8  1  6
  9  7  1  0
  9 10  2  0
 11 12  2  0
 12  2  1  0
 13 14  1  0
 14 15  2  0
 16 17  1  0
 16 14  1  0
 18 17  1  1
 18 19  1  0
 18 20  1  0
 19  9  1  0
 20 29  1  0
 21 20  2  0
 23 22  1  0
 23 24  2  0
 25 24  1  0
 26 25  2  0
 27 26  1  0
 28 27  1  6
 28 30  1  0
 29 28  1  0
 30 31  2  0
 30 34  1  0
 32 33  2  0
 32 26  1  0
 33 23  1  0
M  END
$$$$
