EQS.pdb
     RDKit          3D

 25 24  0  0  1  0  0  0  0  0999 V2000
    9.4604  -16.5888   20.3524 N   0  0  0  0  0  0  0  0  0  0  0  0
    8.0359  -16.2746   20.3832 C   0  0  1  0  0  0  0  0  0  0  0  0
    7.3368  -17.4478   19.7286 C   0  0  0  0  0  0  0  0  0  0  0  0
    7.1966  -17.1889   18.2420 C   0  0  0  0  0  0  0  0  0  0  0  0
    7.3968  -18.4651   17.5255 C   0  0  0  0  0  0  0  0  0  0  0  0
    7.6067  -19.5171   18.1457 O   0  0  0  0  0  0  0  0  0  0  0  0
    7.6596  -16.1177   21.8098 C   0  0  0  0  0  0  0  0  0  0  0  0
    6.4843  -15.8600   22.1839 O   0  0  0  0  0  0  0  0  0  0  0  0
    7.3393  -18.4587   16.1125 O   0  0  0  0  0  0  0  0  0  0  0  0
    9.7764  -19.3536   27.6351 N   0  0  0  0  0  0  0  0  0  0  0  0
   10.1473  -18.5609   26.5077 C   0  0  0  0  0  0  0  0  0  0  0  0
   11.3585  -18.4485   26.2453 O   0  0  0  0  0  0  0  0  0  0  0  0
    9.0430  -17.9352   25.7399 C   0  0  0  0  0  0  0  0  0  0  0  0
    9.4504  -16.6629   25.0623 C   0  0  0  0  0  0  0  0  0  0  0  0
    8.3002  -16.0552   24.2487 C   0  0  2  0  0  0  0  0  0  0  0  0
    8.6330  -16.2535   22.8637 N   0  0  0  0  0  0  0  0  0  0  0  0
    8.2528  -14.6263   24.6326 C   0  0  0  0  0  0  0  0  0  0  0  0
    9.1656  -13.8946   24.1769 O   0  0  0  0  0  0  0  0  0  0  0  0
    5.2213  -12.8284   26.8028 O   0  0  0  0  0  0  0  0  0  0  0  0
    5.9767  -12.0377   25.9352 C   0  0  0  0  0  0  0  0  0  0  0  0
    7.3397  -12.6715   25.8577 C   0  0  2  0  0  0  0  0  0  0  0  0
    7.2697  -14.0559   25.4557 N   0  0  0  0  0  0  0  0  0  0  0  0
    8.0134  -12.5241   27.1903 C   0  0  0  0  0  0  0  0  0  0  0  0
    8.3505  -13.5599   27.8047 O   0  0  0  0  0  0  0  0  0  0  0  0
    8.2557  -11.2607   27.7219 O   0  0  0  0  0  0  0  0  0  0  0  0
  2  1  1  1
  2  7  1  0
  3  2  1  0
  4  3  1  0
  5  4  1  0
  5  6  2  0
  7  8  2  0
  9  5  1  0
 10 11  1  0
 11 12  2  0
 13 11  1  0
 13 14  1  0
 15 14  1  1
 16  7  1  0
 16 15  1  0
 17 18  2  0
 17 15  1  0
 19 20  1  0
 21 20  1  1
 21 22  1  0
 21 23  1  0
 22 17  1  0
 23 25  1  0
 24 23  2  0
M  END
$$$$
