EQS.pdb
     RDKit          3D

 25 24  0  0  1  0  0  0  0  0999 V2000
    7.4575  -15.0910   19.0480 N   0  0  0  0  0  0  0  0  0  0  0  0
    8.3791  -14.6714   20.0984 C   0  0  1  0  0  0  0  0  0  0  0  0
    8.6209  -13.1934   19.8737 C   0  0  0  0  0  0  0  0  0  0  0  0
    9.5355  -13.0053   18.6800 C   0  0  0  0  0  0  0  0  0  0  0  0
   10.8734  -13.5235   19.0313 C   0  0  0  0  0  0  0  0  0  0  0  0
   11.0934  -14.0125   20.1484 O   0  0  0  0  0  0  0  0  0  0  0  0
    7.7089  -14.9431   21.3940 C   0  0  0  0  0  0  0  0  0  0  0  0
    6.4684  -14.8047   21.5660 O   0  0  0  0  0  0  0  0  0  0  0  0
   11.8983  -13.4520   18.0595 O   0  0  0  0  0  0  0  0  0  0  0  0
    5.5147  -18.6973   22.8245 N   0  0  0  0  0  0  0  0  0  0  0  0
    6.3873  -18.3940   23.9123 C   0  0  0  0  0  0  0  0  0  0  0  0
    5.9088  -18.3874   25.0610 O   0  0  0  0  0  0  0  0  0  0  0  0
    7.8034  -18.1114   23.5729 C   0  0  0  0  0  0  0  0  0  0  0  0
    8.3676  -16.9536   24.3377 C   0  0  0  0  0  0  0  0  0  0  0  0
    7.8292  -15.6121   23.8232 C   0  0  2  0  0  0  0  0  0  0  0  0
    8.4517  -15.3874   22.5463 N   0  0  0  0  0  0  0  0  0  0  0  0
    8.2195  -14.6101   24.8404 C   0  0  0  0  0  0  0  0  0  0  0  0
    9.4497  -14.3951   24.9700 O   0  0  0  0  0  0  0  0  0  0  0  0
    5.5258  -12.6631   27.1437 O   0  0  0  0  0  0  0  0  0  0  0  0
    6.7126  -11.9460   26.9829 C   0  0  0  0  0  0  0  0  0  0  0  0
    7.7753  -12.9526   26.6325 C   0  0  2  0  0  0  0  0  0  0  0  0
    7.3158  -13.9028   25.6482 N   0  0  0  0  0  0  0  0  0  0  0  0
    8.2171  -13.6410   27.8903 C   0  0  0  0  0  0  0  0  0  0  0  0
    8.6584  -12.9414   28.8283 O   0  0  0  0  0  0  0  0  0  0  0  0
    8.1324  -15.0258   28.0034 O   0  0  0  0  0  0  0  0  0  0  0  0
  2  1  1  6
  2  7  1  0
  3  2  1  0
  4  3  1  0
  5  4  1  0
  5  6  2  0
  7  8  2  0
  9  5  1  0
 10 11  1  0
 11 12  2  0
 13 11  1  0
 13 14  1  0
 15 14  1  1
 16  7  1  0
 16 15  1  0
 17 18  2  0
 17 15  1  0
 19 20  1  0
 21 20  1  1
 21 22  1  0
 21 23  1  0
 22 17  1  0
 23 25  1  0
 24 23  2  0
M  END
$$$$
