EQS.pdb
     RDKit          3D

 25 24  0  0  1  0  0  0  0  0999 V2000
    9.6571  -18.3081   20.7934 N   0  0  0  0  0  0  0  0  0  0  0  0
   10.1704  -16.9446   20.8711 C   0  0  1  0  0  0  0  0  0  0  0  0
    9.6635  -16.2379   19.6312 C   0  0  0  0  0  0  0  0  0  0  0  0
    9.4736  -17.2458   18.5155 C   0  0  0  0  0  0  0  0  0  0  0  0
   10.7746  -17.4517   17.8468 C   0  0  0  0  0  0  0  0  0  0  0  0
   11.6983  -18.0456   18.4207 O   0  0  0  0  0  0  0  0  0  0  0  0
    9.6309  -16.3511   22.1194 C   0  0  0  0  0  0  0  0  0  0  0  0
    9.7559  -15.1308   22.4075 O   0  0  0  0  0  0  0  0  0  0  0  0
   10.9400  -16.9577   16.5320 O   0  0  0  0  0  0  0  0  0  0  0  0
    6.3578  -20.0411   25.7313 N   0  0  0  0  0  0  0  0  0  0  0  0
    5.6639  -19.3597   24.6868 C   0  0  0  0  0  0  0  0  0  0  0  0
    4.5690  -19.8199   24.3155 O   0  0  0  0  0  0  0  0  0  0  0  0
    6.3168  -18.1492   24.1311 C   0  0  0  0  0  0  0  0  0  0  0  0
    7.5135  -17.7163   24.9211 C   0  0  0  0  0  0  0  0  0  0  0  0
    8.2703  -16.5734   24.2317 C   0  0  2  0  0  0  0  0  0  0  0  0
    8.9226  -17.1502   23.0871 N   0  0  0  0  0  0  0  0  0  0  0  0
    9.2229  -16.0604   25.2420 C   0  0  0  0  0  0  0  0  0  0  0  0
   10.3256  -16.6550   25.3229 O   0  0  0  0  0  0  0  0  0  0  0  0
    8.4252  -12.8479   27.5434 O   0  0  0  0  0  0  0  0  0  0  0  0
    9.7944  -13.0721   27.3899 C   0  0  0  0  0  0  0  0  0  0  0  0
    9.9529  -14.5306   27.0538 C   0  0  2  0  0  0  0  0  0  0  0  0
    8.9710  -14.9735   26.0932 N   0  0  0  0  0  0  0  0  0  0  0  0
    9.8719  -15.3267   28.3231 C   0  0  0  0  0  0  0  0  0  0  0  0
    8.9705  -16.1870   28.4296 O   0  0  0  0  0  0  0  0  0  0  0  0
   10.7835  -15.1081   29.3519 O   0  0  0  0  0  0  0  0  0  0  0  0
  2  1  1  6
  2  7  1  0
  3  2  1  0
  4  3  1  0
  5  4  1  0
  5  6  2  0
  7  8  2  0
  9  5  1  0
 10 11  1  0
 11 12  2  0
 13 11  1  0
 13 14  1  0
 15 14  1  1
 16  7  1  0
 16 15  1  0
 17 18  2  0
 17 15  1  0
 19 20  1  0
 21 20  1  1
 21 22  1  0
 21 23  1  0
 22 17  1  0
 23 25  1  0
 24 23  2  0
M  END
$$$$
