EQS.pdb
     RDKit          3D

 25 24  0  0  1  0  0  0  0  0999 V2000
    9.8313  -18.2525   17.1541 N   0  0  0  0  0  0  0  0  0  0  0  0
   11.2614  -18.2178   17.4408 C   0  0  1  0  0  0  0  0  0  0  0  0
   11.9377  -17.8415   16.1390 C   0  0  0  0  0  0  0  0  0  0  0  0
   10.9157  -17.2487   15.1899 C   0  0  0  0  0  0  0  0  0  0  0  0
   11.6177  -16.7985   13.9706 C   0  0  0  0  0  0  0  0  0  0  0  0
   12.8539  -16.8381   13.8966 O   0  0  0  0  0  0  0  0  0  0  0  0
   11.4648  -17.1970   18.4981 C   0  0  0  0  0  0  0  0  0  0  0  0
   12.6040  -16.8752   18.9298 O   0  0  0  0  0  0  0  0  0  0  0  0
   10.8439  -16.3240   12.8861 O   0  0  0  0  0  0  0  0  0  0  0  0
    7.0080  -13.1752   20.1147 N   0  0  0  0  0  0  0  0  0  0  0  0
    7.7807  -13.1625   18.9149 C   0  0  0  0  0  0  0  0  0  0  0  0
    7.3688  -12.4768   17.9617 O   0  0  0  0  0  0  0  0  0  0  0  0
    9.0208  -13.9766   18.9114 C   0  0  0  0  0  0  0  0  0  0  0  0
    9.2425  -14.7089   20.1992 C   0  0  0  0  0  0  0  0  0  0  0  0
   10.5235  -15.5527   20.1634 C   0  0  2  0  0  0  0  0  0  0  0  0
   10.3527  -16.5057   19.0999 N   0  0  0  0  0  0  0  0  0  0  0  0
   10.6196  -16.1870   21.4974 C   0  0  0  0  0  0  0  0  0  0  0  0
    9.7432  -17.0423   21.7741 O   0  0  0  0  0  0  0  0  0  0  0  0
   12.6344  -18.3430   22.6467 O   0  0  0  0  0  0  0  0  0  0  0  0
   11.6613  -18.0486   23.6031 C   0  0  0  0  0  0  0  0  0  0  0  0
   11.6312  -16.5494   23.7338 C   0  0  2  0  0  0  0  0  0  0  0  0
   11.6105  -15.8953   22.4475 N   0  0  0  0  0  0  0  0  0  0  0  0
   12.8148  -16.1152   24.5474 C   0  0  0  0  0  0  0  0  0  0  0  0
   13.6856  -15.4045   23.9990 O   0  0  0  0  0  0  0  0  0  0  0  0
   12.9322  -16.4968   25.8808 O   0  0  0  0  0  0  0  0  0  0  0  0
  2  1  1  6
  2  7  1  0
  3  2  1  0
  4  3  1  0
  5  4  1  0
  5  6  2  0
  7  8  2  0
  9  5  1  0
 10 11  1  0
 11 12  2  0
 13 11  1  0
 13 14  1  0
 15 14  1  1
 16  7  1  0
 16 15  1  0
 17 18  2  0
 17 15  1  0
 19 20  1  0
 21 20  1  6
 21 22  1  0
 21 23  1  0
 22 17  1  0
 23 25  1  0
 24 23  2  0
M  END
$$$$
