EQS.pdb
     RDKit          3D

 25 24  0  0  1  0  0  0  0  0999 V2000
   11.1103  -17.7768   18.1878 N   0  0  0  0  0  0  0  0  0  0  0  0
   12.3775  -17.1072   18.4611 C   0  0  1  0  0  0  0  0  0  0  0  0
   12.9240  -16.6848   17.1134 C   0  0  0  0  0  0  0  0  0  0  0  0
   12.2018  -17.4387   16.0148 C   0  0  0  0  0  0  0  0  0  0  0  0
   12.8114  -17.0729   14.7199 C   0  0  0  0  0  0  0  0  0  0  0  0
   13.2235  -17.9445   13.9416 O   0  0  0  0  0  0  0  0  0  0  0  0
   12.0729  -15.9477   19.3353 C   0  0  0  0  0  0  0  0  0  0  0  0
   12.9584  -15.1577   19.7587 O   0  0  0  0  0  0  0  0  0  0  0  0
   12.9101  -15.7020   14.3870 O   0  0  0  0  0  0  0  0  0  0  0  0
    6.8039  -12.8416   19.2508 N   0  0  0  0  0  0  0  0  0  0  0  0
    7.7926  -13.0996   18.2544 C   0  0  0  0  0  0  0  0  0  0  0  0
    7.5289  -12.7956   17.0769 O   0  0  0  0  0  0  0  0  0  0  0  0
    9.0614  -13.7134   18.7168 C   0  0  0  0  0  0  0  0  0  0  0  0
    9.0698  -14.0002   20.1869 C   0  0  0  0  0  0  0  0  0  0  0  0
   10.4159  -14.5731   20.6496 C   0  0  2  0  0  0  0  0  0  0  0  0
   10.7256  -15.6560   19.7554 N   0  0  0  0  0  0  0  0  0  0  0  0
   10.2002  -15.0194   22.0444 C   0  0  0  0  0  0  0  0  0  0  0  0
    9.0425  -14.8695   22.5065 O   0  0  0  0  0  0  0  0  0  0  0  0
   10.4475  -18.2190   23.2682 O   0  0  0  0  0  0  0  0  0  0  0  0
    9.8796  -17.2440   24.0900 C   0  0  0  0  0  0  0  0  0  0  0  0
   10.8744  -16.1169   24.1650 C   0  0  2  0  0  0  0  0  0  0  0  0
   11.1907  -15.5878   22.8601 N   0  0  0  0  0  0  0  0  0  0  0  0
   12.1056  -16.6102   24.8665 C   0  0  0  0  0  0  0  0  0  0  0  0
   11.9831  -17.0988   26.0112 O   0  0  0  0  0  0  0  0  0  0  0  0
   13.3506  -16.5244   24.2500 O   0  0  0  0  0  0  0  0  0  0  0  0
  2  1  1  6
  2  7  1  0
  3  2  1  0
  4  3  1  0
  5  4  1  0
  5  6  2  0
  7  8  2  0
  9  5  1  0
 10 11  1  0
 11 12  2  0
 13 11  1  0
 13 14  1  0
 15 14  1  6
 16  7  1  0
 16 15  1  0
 17 18  2  0
 17 15  1  0
 19 20  1  0
 21 20  1  6
 21 22  1  0
 21 23  1  0
 22 17  1  0
 23 25  1  0
 24 23  2  0
M  END
$$$$
