EQS.pdb
     RDKit          3D

 25 24  0  0  1  0  0  0  0  0999 V2000
   11.5790  -17.2052   16.5519 N   0  0  0  0  0  0  0  0  0  0  0  0
   10.5022  -17.5616   17.4696 C   0  0  1  0  0  0  0  0  0  0  0  0
   10.6120  -19.0575   17.6789 C   0  0  0  0  0  0  0  0  0  0  0  0
    9.6342  -19.4922   18.7521 C   0  0  0  0  0  0  0  0  0  0  0  0
    9.8294  -20.9345   19.0043 C   0  0  0  0  0  0  0  0  0  0  0  0
   10.9638  -21.4329   19.0038 O   0  0  0  0  0  0  0  0  0  0  0  0
   10.7316  -16.7982   18.7210 C   0  0  0  0  0  0  0  0  0  0  0  0
   11.8375  -16.7888   19.3248 O   0  0  0  0  0  0  0  0  0  0  0  0
    8.6892  -21.7340   19.2508 O   0  0  0  0  0  0  0  0  0  0  0  0
    6.3508  -13.6440   19.4976 N   0  0  0  0  0  0  0  0  0  0  0  0
    7.4686  -12.9297   18.9712 C   0  0  0  0  0  0  0  0  0  0  0  0
    7.2584  -12.0960   18.0717 O   0  0  0  0  0  0  0  0  0  0  0  0
    8.7966  -13.2480   19.5507 C   0  0  0  0  0  0  0  0  0  0  0  0
    8.7279  -14.2737   20.6401 C   0  0  0  0  0  0  0  0  0  0  0  0
    9.8805  -15.2823   20.5487 C   0  0  2  0  0  0  0  0  0  0  0  0
    9.6854  -16.0126   19.3252 N   0  0  0  0  0  0  0  0  0  0  0  0
    9.7616  -16.1330   21.7543 C   0  0  0  0  0  0  0  0  0  0  0  0
    8.6452  -16.6734   21.9491 O   0  0  0  0  0  0  0  0  0  0  0  0
   10.7149  -19.0674   22.4242 O   0  0  0  0  0  0  0  0  0  0  0  0
   11.2190  -18.5742   23.6288 C   0  0  0  0  0  0  0  0  0  0  0  0
   10.6072  -17.2127   23.8219 C   0  0  2  0  0  0  0  0  0  0  0  0
   10.7998  -16.3655   22.6695 N   0  0  0  0  0  0  0  0  0  0  0  0
   11.1933  -16.5946   25.0571 C   0  0  0  0  0  0  0  0  0  0  0  0
   11.0727  -17.2041   26.1425 O   0  0  0  0  0  0  0  0  0  0  0  0
   11.8559  -15.3724   24.9878 O   0  0  0  0  0  0  0  0  0  0  0  0
  2  1  1  6
  2  7  1  0
  3  2  1  0
  4  3  1  0
  5  4  1  0
  5  6  2  0
  7  8  2  0
  9  5  1  0
 10 11  1  0
 11 12  2  0
 13 11  1  0
 13 14  1  0
 15 14  1  1
 16  7  1  0
 16 15  1  0
 17 18  2  0
 17 15  1  0
 19 20  1  0
 21 20  1  6
 21 22  1  0
 21 23  1  0
 22 17  1  0
 23 25  1  0
 24 23  2  0
M  END
$$$$
