EQS.pdb
     RDKit          3D

 25 24  0  0  1  0  0  0  0  0999 V2000
   10.0888  -19.3384   17.9836 N   0  0  0  0  0  0  0  0  0  0  0  0
   11.4885  -19.0354   18.2623 C   0  0  1  0  0  0  0  0  0  0  0  0
   12.1620  -18.9013   16.9125 C   0  0  0  0  0  0  0  0  0  0  0  0
   11.1545  -18.4165   15.8894 C   0  0  0  0  0  0  0  0  0  0  0  0
   11.8807  -17.6904   14.8276 C   0  0  0  0  0  0  0  0  0  0  0  0
   11.3572  -16.7350   14.2373 O   0  0  0  0  0  0  0  0  0  0  0  0
   11.5103  -17.7674   19.0324 C   0  0  0  0  0  0  0  0  0  0  0  0
   12.5776  -17.1898   19.3712 O   0  0  0  0  0  0  0  0  0  0  0  0
   13.1917  -18.1097   14.5026 O   0  0  0  0  0  0  0  0  0  0  0  0
    6.9412  -13.5337   19.2225 N   0  0  0  0  0  0  0  0  0  0  0  0
    7.8301  -12.9879   20.1965 C   0  0  0  0  0  0  0  0  0  0  0  0
    7.6332  -11.8200   20.5781 O   0  0  0  0  0  0  0  0  0  0  0  0
    8.9216  -13.8720   20.6733 C   0  0  0  0  0  0  0  0  0  0  0  0
    9.0582  -15.1223   19.8598 C   0  0  0  0  0  0  0  0  0  0  0  0
   10.2899  -15.9398   20.2707 C   0  0  2  0  0  0  0  0  0  0  0  0
   10.2922  -17.1154   19.4423 N   0  0  0  0  0  0  0  0  0  0  0  0
   10.1035  -16.2456   21.7070 C   0  0  0  0  0  0  0  0  0  0  0  0
    8.9644  -16.6473   22.0497 O   0  0  0  0  0  0  0  0  0  0  0  0
   11.5476  -18.6444   23.5669 O   0  0  0  0  0  0  0  0  0  0  0  0
   10.5255  -17.9403   24.2057 C   0  0  0  0  0  0  0  0  0  0  0  0
   10.8575  -16.4796   24.0592 C   0  0  2  0  0  0  0  0  0  0  0  0
   11.1026  -16.1165   22.6840 N   0  0  0  0  0  0  0  0  0  0  0  0
   12.0427  -16.1681   24.9250 C   0  0  0  0  0  0  0  0  0  0  0  0
   13.1028  -15.8000   24.3730 O   0  0  0  0  0  0  0  0  0  0  0  0
   11.9553  -16.2865   26.3091 O   0  0  0  0  0  0  0  0  0  0  0  0
  2  1  1  6
  2  7  1  0
  3  2  1  0
  4  3  1  0
  5  4  1  0
  5  6  2  0
  7  8  2  0
  9  5  1  0
 10 11  1  0
 11 12  2  0
 13 11  1  0
 13 14  1  0
 15 14  1  6
 16  7  1  0
 16 15  1  0
 17 18  2  0
 17 15  1  0
 19 20  1  0
 21 20  1  6
 21 22  1  0
 21 23  1  0
 22 17  1  0
 23 25  1  0
 24 23  2  0
M  END
$$$$
