EQS.pdb
     RDKit          3D

 25 24  0  0  1  0  0  0  0  0999 V2000
    9.6002  -16.9823   19.4912 N   0  0  0  0  0  0  0  0  0  0  0  0
    9.4321  -17.4625   20.8587 C   0  0  1  0  0  0  0  0  0  0  0  0
    9.7375  -18.9454   20.8194 C   0  0  0  0  0  0  0  0  0  0  0  0
   11.0452  -19.1742   20.0885 C   0  0  0  0  0  0  0  0  0  0  0  0
   11.3590  -20.6169   20.1349 C   0  0  0  0  0  0  0  0  0  0  0  0
   12.3890  -21.0269   20.6884 O   0  0  0  0  0  0  0  0  0  0  0  0
   10.3940  -16.7102   21.7014 C   0  0  0  0  0  0  0  0  0  0  0  0
   11.3564  -16.0530   21.2223 O   0  0  0  0  0  0  0  0  0  0  0  0
   10.4524  -21.5215   19.5349 O   0  0  0  0  0  0  0  0  0  0  0  0
    9.8936  -16.2389   27.9986 N   0  0  0  0  0  0  0  0  0  0  0  0
   11.1374  -15.5693   27.7948 C   0  0  0  0  0  0  0  0  0  0  0  0
   11.7018  -15.0706   28.7853 O   0  0  0  0  0  0  0  0  0  0  0  0
   11.6527  -15.5276   26.4044 C   0  0  0  0  0  0  0  0  0  0  0  0
   10.7221  -16.1627   25.4172 C   0  0  0  0  0  0  0  0  0  0  0  0
   11.2020  -15.9685   23.9729 C   0  0  2  0  0  0  0  0  0  0  0  0
   10.2792  -16.6891   23.1378 N   0  0  0  0  0  0  0  0  0  0  0  0
   12.5735  -16.5237   23.9312 C   0  0  0  0  0  0  0  0  0  0  0  0
   12.6762  -17.7692   24.0515 O   0  0  0  0  0  0  0  0  0  0  0  0
   17.0496  -16.3889   22.4466 O   0  0  0  0  0  0  0  0  0  0  0  0
   15.8822  -15.6394   22.6010 C   0  0  0  0  0  0  0  0  0  0  0  0
   15.0275  -16.3806   23.5937 C   0  0  2  0  0  0  0  0  0  0  0  0
   13.7376  -15.7570   23.7677 N   0  0  0  0  0  0  0  0  0  0  0  0
   15.7704  -16.4689   24.8943 C   0  0  0  0  0  0  0  0  0  0  0  0
   15.2449  -15.9726   25.9150 O   0  0  0  0  0  0  0  0  0  0  0  0
   17.0136  -17.0919   24.9554 O   0  0  0  0  0  0  0  0  0  0  0  0
  2  1  1  6
  2  7  1  0
  3  2  1  0
  4  3  1  0
  5  4  1  0
  5  6  2  0
  7  8  2  0
  9  5  1  0
 10 11  1  0
 11 12  2  0
 13 11  1  0
 13 14  1  0
 15 14  1  1
 16  7  1  0
 16 15  1  0
 17 18  2  0
 17 15  1  0
 19 20  1  0
 21 20  1  6
 21 22  1  0
 21 23  1  0
 22 17  1  0
 23 25  1  0
 24 23  2  0
M  END
$$$$
