TGP.pdb
     RDKit          3D

 19 19  0  0  1  0  0  0  0  0999 V2000
   22.6230  -18.9067  -17.2792 C   0  0  0  0  0  0  0  0  0  0  0  0
   23.5029  -17.7043  -17.3117 C   0  0  1  0  0  0  0  0  0  0  0  0
   22.7296  -16.5836  -16.9569 O   0  0  0  0  0  0  0  0  0  0  0  0
   24.6644  -17.7909  -16.3736 C   0  0  2  0  0  0  0  0  0  0  0  0
   24.1681  -17.8758  -15.0180 N   0  0  0  0  0  0  0  0  0  0  0  0
   25.5635  -16.6250  -16.5838 C   0  0  0  0  0  0  0  0  0  0  0  0
   26.1965  -16.5042  -17.6703 O   0  0  0  0  0  0  0  0  0  0  0  0
   25.7778  -15.5982  -15.6272 N   0  0  0  0  0  0  0  0  0  0  0  0
   26.6706  -14.4848  -15.8535 C   0  0  0  0  0  0  0  0  0  0  0  0
   26.0165  -13.3759  -16.6244 C   0  0  0  0  0  0  0  0  0  0  0  0
   25.1006  -13.7282  -17.3809 O   0  0  0  0  0  0  0  0  0  0  0  0
   26.4204  -12.0384  -16.4915 N   0  0  0  0  0  0  0  0  0  0  0  0
   27.2385  -11.6142  -15.3190 C   0  0  0  0  0  0  0  0  0  0  0  0
   28.0951  -10.4741  -15.8120 C   0  0  0  0  0  0  0  0  0  0  0  0
   27.7270  -10.3439  -17.2728 C   0  0  0  0  0  0  0  0  0  0  0  0
   26.2508  -10.8271  -17.2102 C   0  0  1  0  0  0  0  0  0  0  0  0
   25.6688  -10.8414  -18.5298 C   0  0  0  0  0  0  0  0  0  0  0  0
   26.0887  -11.5312  -19.4580 O   0  0  0  0  0  0  0  0  0  0  0  0
   24.5517  -10.0341  -18.8206 O   0  0  0  0  0  0  0  0  0  0  0  0
  2  1  1  1
  3  2  1  0
  4  2  1  0
  4  5  1  1
  6  8  1  0
  6  4  1  0
  7  6  2  0
  9  8  1  0
 10  9  1  0
 11 10  2  0
 12 10  1  0
 12 16  1  0
 13 14  1  0
 13 12  1  0
 14 15  1  0
 16 15  1  0
 17 19  1  0
 16 17  1  6
 18 17  2  0
M  END
$$$$
