TGP.pdb
     RDKit          3D

 19 19  0  0  1  0  0  0  0  0999 V2000
   21.0158  -13.1499  -16.8323 C   0  0  0  0  0  0  0  0  0  0  0  0
   19.5472  -13.3842  -16.9293 C   0  0  1  0  0  0  0  0  0  0  0  0
   19.2877  -14.7138  -16.5489 O   0  0  0  0  0  0  0  0  0  0  0  0
   18.7406  -12.4784  -16.0543 C   0  0  2  0  0  0  0  0  0  0  0  0
   17.3588  -12.9037  -16.0847 N   0  0  0  0  0  0  0  0  0  0  0  0
   18.9175  -11.0695  -16.4969 C   0  0  0  0  0  0  0  0  0  0  0  0
   18.3335  -10.6574  -17.5384 O   0  0  0  0  0  0  0  0  0  0  0  0
   19.7198  -10.1138  -15.8199 N   0  0  0  0  0  0  0  0  0  0  0  0
   19.9427   -8.7767  -16.3202 C   0  0  0  0  0  0  0  0  0  0  0  0
   20.8494   -7.9778  -15.4305 C   0  0  0  0  0  0  0  0  0  0  0  0
   21.1183   -8.5047  -14.3417 O   0  0  0  0  0  0  0  0  0  0  0  0
   21.3519   -6.7244  -15.8130 N   0  0  0  0  0  0  0  0  0  0  0  0
   21.3620   -6.3265  -17.2502 C   0  0  0  0  0  0  0  0  0  0  0  0
   21.2058   -4.8257  -17.2575 C   0  0  0  0  0  0  0  0  0  0  0  0
   21.0785   -4.4630  -15.7951 C   0  0  0  0  0  0  0  0  0  0  0  0
   21.9351   -5.6010  -15.1724 C   0  0  1  0  0  0  0  0  0  0  0  0
   21.9326   -5.5038  -13.7333 C   0  0  0  0  0  0  0  0  0  0  0  0
   20.9200   -5.5951  -13.0406 O   0  0  0  0  0  0  0  0  0  0  0  0
   23.1377   -5.2919  -13.0353 O   0  0  0  0  0  0  0  0  0  0  0  0
  2  1  1  1
  3  2  1  0
  4  2  1  0
  4  5  1  6
  6  8  1  0
  6  4  1  0
  7  6  2  0
  9  8  1  0
 10  9  1  0
 11 10  2  0
 12 10  1  0
 12 16  1  0
 13 14  1  0
 13 12  1  0
 14 15  1  0
 16 15  1  0
 17 19  1  0
 16 17  1  1
 18 17  2  0
M  END
$$$$
