TGP.pdb
     RDKit          3D

 19 19  0  0  1  0  0  0  0  0999 V2000
   21.6293  -12.3088  -17.6417 C   0  0  0  0  0  0  0  0  0  0  0  0
   20.3115  -11.9808  -18.2556 C   0  0  1  0  0  0  0  0  0  0  0  0
   19.6349  -13.1868  -18.5157 O   0  0  0  0  0  0  0  0  0  0  0  0
   19.4426  -11.1324  -17.3827 C   0  0  2  0  0  0  0  0  0  0  0  0
   18.1453  -10.9916  -18.0059 N   0  0  0  0  0  0  0  0  0  0  0  0
   20.1070   -9.8245  -17.1378 C   0  0  0  0  0  0  0  0  0  0  0  0
   20.0313   -8.9068  -18.0025 O   0  0  0  0  0  0  0  0  0  0  0  0
   20.8479   -9.5109  -15.9682 N   0  0  0  0  0  0  0  0  0  0  0  0
   21.5466   -8.2587  -15.7906 C   0  0  0  0  0  0  0  0  0  0  0  0
   20.6423   -7.1640  -15.3049 C   0  0  0  0  0  0  0  0  0  0  0  0
   19.4306   -7.4163  -15.3625 O   0  0  0  0  0  0  0  0  0  0  0  0
   21.1427   -5.9450  -14.8217 N   0  0  0  0  0  0  0  0  0  0  0  0
   22.5843   -5.8146  -14.4631 C   0  0  0  0  0  0  0  0  0  0  0  0
   22.9414   -4.3735  -14.7322 C   0  0  0  0  0  0  0  0  0  0  0  0
   21.6625   -3.7733  -15.2714 C   0  0  0  0  0  0  0  0  0  0  0  0
   20.6272   -4.6579  -14.5217 C   0  0  1  0  0  0  0  0  0  0  0  0
   19.2848   -4.3042  -14.9132 C   0  0  0  0  0  0  0  0  0  0  0  0
   18.8725   -4.3512  -16.0714 O   0  0  0  0  0  0  0  0  0  0  0  0
   18.3548   -3.8736  -13.9468 O   0  0  0  0  0  0  0  0  0  0  0  0
  2  1  1  1
  3  2  1  0
  4  2  1  0
  4  5  1  6
  6  8  1  0
  6  4  1  0
  7  6  2  0
  9  8  1  0
 10  9  1  0
 11 10  2  0
 12 10  1  0
 12 16  1  0
 13 14  1  0
 13 12  1  0
 14 15  1  0
 16 15  1  0
 17 19  1  0
 16 17  1  6
 18 17  2  0
M  END
$$$$
