TGP.pdb
     RDKit          3D

 19 19  0  0  1  0  0  0  0  0999 V2000
   25.6558  -20.3599   -8.9189 C   0  0  0  0  0  0  0  0  0  0  0  0
   26.3939  -20.5398  -10.2011 C   0  0  1  0  0  0  0  0  0  0  0  0
   27.0504  -21.7837  -10.1601 O   0  0  0  0  0  0  0  0  0  0  0  0
   25.5087  -20.5143  -11.4063 C   0  0  2  0  0  0  0  0  0  0  0  0
   24.6032  -21.6403  -11.3480 N   0  0  0  0  0  0  0  0  0  0  0  0
   26.3426  -20.5113  -12.6378 C   0  0  0  0  0  0  0  0  0  0  0  0
   26.4929  -21.5762  -13.3005 O   0  0  0  0  0  0  0  0  0  0  0  0
   27.0095  -19.3670  -13.1488 N   0  0  0  0  0  0  0  0  0  0  0  0
   27.7506  -19.3756  -14.3891 C   0  0  0  0  0  0  0  0  0  0  0  0
   26.8574  -19.2549  -15.5889 C   0  0  0  0  0  0  0  0  0  0  0  0
   25.8701  -20.0035  -15.5890 O   0  0  0  0  0  0  0  0  0  0  0  0
   27.1293  -18.3555  -16.6314 N   0  0  0  0  0  0  0  0  0  0  0  0
   27.9785  -17.1547  -16.3846 C   0  0  0  0  0  0  0  0  0  0  0  0
   28.6765  -16.8746  -17.6927 C   0  0  0  0  0  0  0  0  0  0  0  0
   28.1967  -17.9783  -18.6082 C   0  0  0  0  0  0  0  0  0  0  0  0
   26.7862  -18.2207  -18.0013 C   0  0  1  0  0  0  0  0  0  0  0  0
   26.1188  -19.2969  -18.6917 C   0  0  0  0  0  0  0  0  0  0  0  0
   25.0793  -19.1597  -19.3354 O   0  0  0  0  0  0  0  0  0  0  0  0
   26.6515  -20.6005  -18.6553 O   0  0  0  0  0  0  0  0  0  0  0  0
  2  1  1  1
  3  2  1  0
  4  2  1  0
  4  5  1  6
  6  8  1  0
  6  4  1  0
  7  6  2  0
  9  8  1  0
 10  9  1  0
 11 10  2  0
 12 10  1  0
 12 16  1  0
 13 14  1  0
 13 12  1  0
 14 15  1  0
 16 15  1  0
 17 19  1  0
 16 17  1  6
 18 17  2  0
M  END
$$$$
