TGP.pdb
     RDKit          3D

 19 19  0  0  1  0  0  0  0  0999 V2000
   26.0364  -19.4156  -11.9223 C   0  0  0  0  0  0  0  0  0  0  0  0
   24.5718  -19.4481  -11.6490 C   0  0  1  0  0  0  0  0  0  0  0  0
   23.8929  -19.2366  -12.8631 O   0  0  0  0  0  0  0  0  0  0  0  0
   24.1032  -20.7437  -11.0672 C   0  0  2  0  0  0  0  0  0  0  0  0
   22.6588  -20.7880  -11.1215 N   0  0  0  0  0  0  0  0  0  0  0  0
   24.6304  -20.8892   -9.6841 C   0  0  0  0  0  0  0  0  0  0  0  0
   23.8961  -20.6060   -8.6960 O   0  0  0  0  0  0  0  0  0  0  0  0
   25.9409  -21.3364   -9.3711 N   0  0  0  0  0  0  0  0  0  0  0  0
   26.4130  -21.5046   -8.0159 C   0  0  0  0  0  0  0  0  0  0  0  0
   26.8982  -20.2174   -7.4163 C   0  0  0  0  0  0  0  0  0  0  0  0
   26.9120  -19.2481   -8.1881 O   0  0  0  0  0  0  0  0  0  0  0  0
   27.3053  -20.1276   -6.0762 N   0  0  0  0  0  0  0  0  0  0  0  0
   26.8407  -21.1368   -5.0813 C   0  0  0  0  0  0  0  0  0  0  0  0
   27.9495  -21.2449   -4.0638 C   0  0  0  0  0  0  0  0  0  0  0  0
   29.0106  -20.2967   -4.5754 C   0  0  0  0  0  0  0  0  0  0  0  0
   28.1030  -19.2567   -5.2903 C   0  0  1  0  0  0  0  0  0  0  0  0
   28.9050  -18.2383   -5.9227 C   0  0  0  0  0  0  0  0  0  0  0  0
   29.3745  -18.3390   -7.0554 O   0  0  0  0  0  0  0  0  0  0  0  0
   29.1944  -17.0396   -5.2418 O   0  0  0  0  0  0  0  0  0  0  0  0
  2  1  1  6
  3  2  1  0
  4  2  1  0
  4  5  1  1
  6  8  1  0
  6  4  1  0
  7  6  2  0
  9  8  1  0
 10  9  1  0
 11 10  2  0
 12 10  1  0
 12 16  1  0
 13 14  1  0
 13 12  1  0
 14 15  1  0
 16 15  1  0
 17 19  1  0
 16 17  1  6
 18 17  2  0
M  END
$$$$
