TGP.pdb
     RDKit          3D

 19 19  0  0  1  0  0  0  0  0999 V2000
   17.2965  -11.3394  -19.2440 C   0  0  0  0  0  0  0  0  0  0  0  0
   17.9955  -10.5047  -18.2263 C   0  0  1  0  0  0  0  0  0  0  0  0
   17.0523  -10.1059  -17.2613 O   0  0  0  0  0  0  0  0  0  0  0  0
   19.1073  -11.2223  -17.5293 C   0  0  2  0  0  0  0  0  0  0  0  0
   18.5795  -12.4178  -16.9102 N   0  0  0  0  0  0  0  0  0  0  0  0
   19.7559  -10.3080  -16.5519 C   0  0  0  0  0  0  0  0  0  0  0  0
   19.4185  -10.3431  -15.3351 O   0  0  0  0  0  0  0  0  0  0  0  0
   20.7606   -9.3625  -16.8868 N   0  0  0  0  0  0  0  0  0  0  0  0
   21.3821   -8.4953  -15.9124 C   0  0  0  0  0  0  0  0  0  0  0  0
   20.6872   -7.1699  -15.8019 C   0  0  0  0  0  0  0  0  0  0  0  0
   19.8416   -6.9429  -16.6787 O   0  0  0  0  0  0  0  0  0  0  0  0
   20.9808   -6.2591  -14.7752 N   0  0  0  0  0  0  0  0  0  0  0  0
   21.6645   -6.7225  -13.5335 C   0  0  0  0  0  0  0  0  0  0  0  0
   22.4749   -5.5444  -13.0520 C   0  0  0  0  0  0  0  0  0  0  0  0
   22.2228   -4.4760  -14.0919 C   0  0  0  0  0  0  0  0  0  0  0  0
   20.7853   -4.8759  -14.5281 C   0  0  1  0  0  0  0  0  0  0  0  0
   20.3191   -4.0091  -15.5824 C   0  0  0  0  0  0  0  0  0  0  0  0
   20.8169   -3.9662  -16.7067 O   0  0  0  0  0  0  0  0  0  0  0  0
   19.2316   -3.1422  -15.3583 O   0  0  0  0  0  0  0  0  0  0  0  0
  2  1  1  6
  3  2  1  0
  4  2  1  0
  4  5  1  1
  6  8  1  0
  6  4  1  0
  7  6  2  0
  9  8  1  0
 10  9  1  0
 11 10  2  0
 12 10  1  0
 12 16  1  0
 13 14  1  0
 13 12  1  0
 14 15  1  0
 16 15  1  0
 17 19  1  0
 16 17  1  6
 18 17  2  0
M  END
$$$$
