TGP.pdb
     RDKit          3D

 19 19  0  0  1  0  0  0  0  0999 V2000
   23.1059  -24.3557  -12.4639 C   0  0  0  0  0  0  0  0  0  0  0  0
   22.2182  -23.2774  -12.9835 C   0  0  1  0  0  0  0  0  0  0  0  0
   21.2496  -22.9942  -12.0029 O   0  0  0  0  0  0  0  0  0  0  0  0
   22.9456  -22.0110  -13.3060 C   0  0  2  0  0  0  0  0  0  0  0  0
   21.9803  -20.9844  -13.6308 N   0  0  0  0  0  0  0  0  0  0  0  0
   23.9134  -22.2583  -14.4078 C   0  0  0  0  0  0  0  0  0  0  0  0
   23.5133  -22.2808  -15.6058 O   0  0  0  0  0  0  0  0  0  0  0  0
   25.3025  -22.4805  -14.2168 N   0  0  0  0  0  0  0  0  0  0  0  0
   26.2132  -22.7545  -15.3046 C   0  0  0  0  0  0  0  0  0  0  0  0
   26.2017  -21.6734  -16.3451 C   0  0  0  0  0  0  0  0  0  0  0  0
   25.0818  -21.2240  -16.6266 O   0  0  0  0  0  0  0  0  0  0  0  0
   27.3803  -21.2108  -16.9506 N   0  0  0  0  0  0  0  0  0  0  0  0
   28.7057  -21.4991  -16.3309 C   0  0  0  0  0  0  0  0  0  0  0  0
   29.6813  -21.5845  -17.4788 C   0  0  0  0  0  0  0  0  0  0  0  0
   28.8238  -21.3703  -18.7056 C   0  0  0  0  0  0  0  0  0  0  0  0
   27.7286  -20.4504  -18.0965 C   0  0  1  0  0  0  0  0  0  0  0  0
   26.7300  -20.1317  -19.0872 C   0  0  0  0  0  0  0  0  0  0  0  0
   26.6172  -19.0275  -19.6180 O   0  0  0  0  0  0  0  0  0  0  0  0
   25.8069  -21.1109  -19.5035 O   0  0  0  0  0  0  0  0  0  0  0  0
  2  1  1  1
  3  2  1  0
  4  2  1  0
  4  5  1  6
  6  8  1  0
  6  4  1  0
  7  6  2  0
  9  8  1  0
 10  9  1  0
 11 10  2  0
 12 10  1  0
 12 16  1  0
 13 14  1  0
 13 12  1  0
 14 15  1  0
 16 15  1  0
 17 19  1  0
 16 17  1  6
 18 17  2  0
M  END
$$$$
