TGP.pdb
     RDKit          3D

 19 19  0  0  1  0  0  0  0  0999 V2000
   18.0159  -20.9038  -14.7076 C   0  0  0  0  0  0  0  0  0  0  0  0
   19.2235  -20.9799  -13.8376 C   0  0  1  0  0  0  0  0  0  0  0  0
   19.1738  -22.1897  -13.1208 O   0  0  0  0  0  0  0  0  0  0  0  0
   20.5099  -20.9368  -14.5993 C   0  0  2  0  0  0  0  0  0  0  0  0
   20.6337  -22.1470  -15.3812 N   0  0  0  0  0  0  0  0  0  0  0  0
   21.6428  -20.7450  -13.6550 C   0  0  0  0  0  0  0  0  0  0  0  0
   21.7695  -19.6513  -13.0356 O   0  0  0  0  0  0  0  0  0  0  0  0
   22.6314  -21.7267  -13.3827 N   0  0  0  0  0  0  0  0  0  0  0  0
   23.8048  -21.4619  -12.5822 C   0  0  0  0  0  0  0  0  0  0  0  0
   24.7828  -20.5643  -13.2820 C   0  0  0  0  0  0  0  0  0  0  0  0
   24.3197  -19.9194  -14.2333 O   0  0  0  0  0  0  0  0  0  0  0  0
   26.1242  -20.4687  -12.8803 N   0  0  0  0  0  0  0  0  0  0  0  0
   26.5058  -20.7460  -11.4656 C   0  0  0  0  0  0  0  0  0  0  0  0
   27.9084  -21.2989  -11.5237 C   0  0  0  0  0  0  0  0  0  0  0  0
   28.2277  -21.3346  -13.0013 C   0  0  0  0  0  0  0  0  0  0  0  0
   27.3653  -20.1330  -13.4798 C   0  0  1  0  0  0  0  0  0  0  0  0
   27.4626  -19.9811  -14.9108 C   0  0  0  0  0  0  0  0  0  0  0  0
   27.1899  -20.8705  -15.7159 O   0  0  0  0  0  0  0  0  0  0  0  0
   27.8909  -18.7595  -15.4664 O   0  0  0  0  0  0  0  0  0  0  0  0
  2  1  1  6
  3  2  1  0
  4  2  1  0
  4  5  1  1
  6  8  1  0
  6  4  1  0
  7  6  2  0
  9  8  1  0
 10  9  1  0
 11 10  2  0
 12 10  1  0
 12 16  1  0
 13 14  1  0
 13 12  1  0
 14 15  1  0
 16 15  1  0
 17 19  1  0
 16 17  1  6
 18 17  2  0
M  END
$$$$
