TGP.pdb
     RDKit          3D

 19 19  0  0  1  0  0  0  0  0999 V2000
   21.7715  -12.2179  -14.6442 C   0  0  0  0  0  0  0  0  0  0  0  0
   23.1556  -12.5898  -15.0525 C   0  0  1  0  0  0  0  0  0  0  0  0
   23.1436  -13.9312  -15.4773 O   0  0  0  0  0  0  0  0  0  0  0  0
   23.6945  -11.7485  -16.1654 C   0  0  2  0  0  0  0  0  0  0  0  0
   24.9782  -12.2750  -16.5732 N   0  0  0  0  0  0  0  0  0  0  0  0
   23.7692  -10.3293  -15.7268 C   0  0  0  0  0  0  0  0  0  0  0  0
   24.7180   -9.9472  -14.9855 O   0  0  0  0  0  0  0  0  0  0  0  0
   22.8258   -9.3311  -16.0856 N   0  0  0  0  0  0  0  0  0  0  0  0
   22.8906   -7.9734  -15.5954 C   0  0  0  0  0  0  0  0  0  0  0  0
   21.5466   -7.4518  -15.1790 C   0  0  0  0  0  0  0  0  0  0  0  0
   20.5840   -8.1689  -15.4865 O   0  0  0  0  0  0  0  0  0  0  0  0
   21.4004   -6.2374  -14.4908 N   0  0  0  0  0  0  0  0  0  0  0  0
   22.5909   -5.5617  -13.8992 C   0  0  0  0  0  0  0  0  0  0  0  0
   22.2857   -4.0848  -13.9469 C   0  0  0  0  0  0  0  0  0  0  0  0
   20.9282   -4.0121  -14.6090 C   0  0  0  0  0  0  0  0  0  0  0  0
   20.3371   -5.3689  -14.1334 C   0  0  1  0  0  0  0  0  0  0  0  0
   19.0205   -5.5671  -14.6880 C   0  0  0  0  0  0  0  0  0  0  0  0
   17.9912   -5.6089  -14.0154 O   0  0  0  0  0  0  0  0  0  0  0  0
   18.8534   -5.7270  -16.0776 O   0  0  0  0  0  0  0  0  0  0  0  0
  2  1  1  6
  3  2  1  0
  4  2  1  0
  4  5  1  1
  6  8  1  0
  6  4  1  0
  7  6  2  0
  9  8  1  0
 10  9  1  0
 11 10  2  0
 12 10  1  0
 12 16  1  0
 13 14  1  0
 13 12  1  0
 14 15  1  0
 16 15  1  0
 17 19  1  0
 16 17  1  6
 18 17  2  0
M  END
$$$$
