YHR.pdb
     RDKit          3D

 34 35  0  0  1  0  0  0  0  0999 V2000
   10.7080  -14.1962   28.9924 O   0  0  0  0  0  0  0  0  0  0  0  0
    9.6541  -14.3231   28.0869 C   0  0  0  0  0  0  0  0  0  0  0  0
    9.6416  -13.5564   26.9260 C   0  0  0  0  0  0  0  0  0  0  0  0
    8.5892  -13.7014   26.0492 C   0  0  0  0  0  0  0  0  0  0  0  0
    7.5528  -14.6024   26.3209 C   0  0  0  0  0  0  0  0  0  0  0  0
    6.4688  -14.7071   25.3446 C   0  0  0  0  0  0  0  0  0  0  0  0
    6.5036  -16.0311   24.6264 C   0  0  2  0  0  0  0  0  0  0  0  0
    6.1399  -17.1200   25.4683 N   0  0  0  0  0  0  0  0  0  0  0  0
    7.8242  -16.2948   23.9946 C   0  0  0  0  0  0  0  0  0  0  0  0
    8.3775  -17.3904   24.2416 O   0  0  0  0  0  0  0  0  0  0  0  0
    7.5566  -15.3674   27.4701 C   0  0  0  0  0  0  0  0  0  0  0  0
    8.6145  -15.2105   28.3350 C   0  0  0  0  0  0  0  0  0  0  0  0
    8.4758  -15.3888   23.1450 N   0  0  0  0  0  0  0  0  0  0  0  0
    9.7183  -15.5173   22.4793 C   0  0  1  0  0  0  0  0  0  0  0  0
   10.0813  -14.4117   21.5068 C   0  0  0  0  0  0  0  0  0  0  0  0
    9.0864  -14.3138   20.3945 C   0  0  0  0  0  0  0  0  0  0  0  0
    8.0043  -15.2066   20.2938 C   0  0  0  0  0  0  0  0  0  0  0  0
    7.3356  -14.8279   19.2011 N   0  0  0  0  0  0  0  0  0  0  0  0
    7.9271  -13.7706   18.6260 C   0  0  0  0  0  0  0  0  0  0  0  0
    8.9905  -13.4787   19.3734 N   0  0  0  0  0  0  0  0  0  0  0  0
   10.8314  -15.8743   23.3399 C   0  0  0  0  0  0  0  0  0  0  0  0
   11.1113  -15.0836   24.3140 O   0  0  0  0  0  0  0  0  0  0  0  0
   11.0702  -20.5218   30.0394 N   0  0  0  0  0  0  0  0  0  0  0  0
   12.4439  -20.5633   29.6670 C   0  0  0  0  0  0  0  0  0  0  0  0
   13.2549  -21.3078   30.3138 N   0  0  0  0  0  0  0  0  0  0  0  0
   12.9359  -19.7832   28.5750 N   0  0  0  0  0  0  0  0  0  0  0  0
   12.0883  -19.3204   27.4959 C   0  0  0  0  0  0  0  0  0  0  0  0
   12.8743  -18.6514   26.3880 C   0  0  0  0  0  0  0  0  0  0  0  0
   11.8780  -18.1592   25.3625 C   0  0  0  0  0  0  0  0  0  0  0  0
   12.5434  -17.3858   24.2522 C   0  0  2  0  0  0  0  0  0  0  0  0
   11.6390  -17.0125   23.2090 N   0  0  0  0  0  0  0  0  0  0  0  0
   13.6740  -18.1314   23.6495 C   0  0  0  0  0  0  0  0  0  0  0  0
   13.5655  -18.6846   22.5263 O   0  0  0  0  0  0  0  0  0  0  0  0
   14.8955  -18.2532   24.2908 O   0  0  0  0  0  0  0  0  0  0  0  0
  2  1  1  0
  3  2  2  0
  4  3  1  0
  5  4  2  0
  5 11  1  0
  6  5  1  0
  7  6  1  0
  7  8  1  1
  9  7  1  0
 10  9  2  0
 11 12  2  0
 12  2  1  0
 13  9  1  0
 14 13  1  0
 14 21  1  0
 14 15  1  1
 16 15  1  0
 17 16  2  0
 18 19  1  0
 18 17  1  0
 19 20  2  0
 20 16  1  0
 21 22  2  0
 23 24  1  0
 24 26  1  0
 24 25  2  0
 26 27  1  0
 27 28  1  0
 29 28  1  0
 30 29  1  1
 31 21  1  0
 31 30  1  0
 32 30  1  0
 32 34  1  0
 33 32  2  0
M  END
$$$$
