YHR.pdb
     RDKit          3D

 34 35  0  0  1  0  0  0  0  0999 V2000
    7.0050  -11.9455   22.4833 O   0  0  0  0  0  0  0  0  0  0  0  0
    7.7226  -12.6228   21.4969 C   0  0  0  0  0  0  0  0  0  0  0  0
    7.4582  -12.3745   20.1537 C   0  0  0  0  0  0  0  0  0  0  0  0
    8.1814  -13.0569   19.2005 C   0  0  0  0  0  0  0  0  0  0  0  0
    9.1630  -13.9818   19.5758 C   0  0  0  0  0  0  0  0  0  0  0  0
    9.8943  -14.6678   18.5110 C   0  0  0  0  0  0  0  0  0  0  0  0
    9.1892  -15.9297   18.0865 C   0  0  2  0  0  0  0  0  0  0  0  0
    8.9494  -16.8151   19.1751 N   0  0  0  0  0  0  0  0  0  0  0  0
    9.9142  -16.6423   17.0006 C   0  0  0  0  0  0  0  0  0  0  0  0
   10.8824  -17.3660   17.3267 O   0  0  0  0  0  0  0  0  0  0  0  0
    9.4323  -14.2346   20.9060 C   0  0  0  0  0  0  0  0  0  0  0  0
    8.7014  -13.5451   21.8452 C   0  0  0  0  0  0  0  0  0  0  0  0
    9.5733  -16.5466   15.6434 N   0  0  0  0  0  0  0  0  0  0  0  0
   10.2438  -17.0671   14.5107 C   0  0  1  0  0  0  0  0  0  0  0  0
    9.4667  -17.0717   13.2085 C   0  0  0  0  0  0  0  0  0  0  0  0
   10.2447  -17.7232   12.1100 C   0  0  0  0  0  0  0  0  0  0  0  0
   11.5743  -18.1417   12.2975 C   0  0  0  0  0  0  0  0  0  0  0  0
   11.9454  -18.6709   11.1284 N   0  0  0  0  0  0  0  0  0  0  0  0
   10.9429  -18.6076   10.2399 C   0  0  0  0  0  0  0  0  0  0  0  0
    9.9198  -18.0261   10.8642 N   0  0  0  0  0  0  0  0  0  0  0  0
   11.6005  -16.5816   14.3350 C   0  0  0  0  0  0  0  0  0  0  0  0
   11.7697  -15.3137   14.2075 O   0  0  0  0  0  0  0  0  0  0  0  0
   15.0933  -13.6995   20.3186 N   0  0  0  0  0  0  0  0  0  0  0  0
   15.2264  -15.0985   20.0898 C   0  0  0  0  0  0  0  0  0  0  0  0
   15.2619  -15.9035   21.0803 N   0  0  0  0  0  0  0  0  0  0  0  0
   15.3207  -15.6233   18.7635 N   0  0  0  0  0  0  0  0  0  0  0  0
   15.2820  -14.7854   17.5831 C   0  0  0  0  0  0  0  0  0  0  0  0
   15.4171  -15.5822   16.3025 C   0  0  0  0  0  0  0  0  0  0  0  0
   14.0398  -16.0911   15.9410 C   0  0  0  0  0  0  0  0  0  0  0  0
   14.0323  -16.8136   14.6175 C   0  0  2  0  0  0  0  0  0  0  0  0
   12.7569  -17.3724   14.2912 N   0  0  0  0  0  0  0  0  0  0  0  0
   15.0464  -17.8934   14.5629 C   0  0  0  0  0  0  0  0  0  0  0  0
   16.0716  -17.7894   13.8434 O   0  0  0  0  0  0  0  0  0  0  0  0
   14.9138  -19.0603   15.2969 O   0  0  0  0  0  0  0  0  0  0  0  0
  2  1  1  0
  3  2  2  0
  4  3  1  0
  5  4  2  0
  5 11  1  0
  6  5  1  0
  7  6  1  0
  7  8  1  1
  9  7  1  0
 10  9  2  0
 11 12  2  0
 12  2  1  0
 13  9  1  0
 14 13  1  0
 14 21  1  0
 14 15  1  6
 16 15  1  0
 17 16  2  0
 18 19  1  0
 18 17  1  0
 19 20  2  0
 20 16  1  0
 21 22  2  0
 23 24  1  0
 24 26  1  0
 24 25  2  0
 26 27  1  0
 27 28  1  0
 29 28  1  0
 30 29  1  1
 31 21  1  0
 31 30  1  0
 32 30  1  0
 32 34  1  0
 33 32  2  0
M  END
$$$$
