YHR.pdb
     RDKit          3D

 34 35  0  0  1  0  0  0  0  0999 V2000
    8.5192  -10.8971   19.6487 O   0  0  0  0  0  0  0  0  0  0  0  0
    7.9343  -12.1058   20.0281 C   0  0  0  0  0  0  0  0  0  0  0  0
    7.3053  -12.2134   21.2644 C   0  0  0  0  0  0  0  0  0  0  0  0
    6.7361  -13.4181   21.6139 C   0  0  0  0  0  0  0  0  0  0  0  0
    6.7895  -14.5123   20.7423 C   0  0  0  0  0  0  0  0  0  0  0  0
    6.1616  -15.7597   21.1770 C   0  0  0  0  0  0  0  0  0  0  0  0
    7.1288  -16.6214   21.9463 C   0  0  2  0  0  0  0  0  0  0  0  0
    6.6982  -17.9748   22.0434 N   0  0  0  0  0  0  0  0  0  0  0  0
    7.4118  -16.0785   23.3020 C   0  0  0  0  0  0  0  0  0  0  0  0
    6.9929  -14.9286   23.5660 O   0  0  0  0  0  0  0  0  0  0  0  0
    7.4113  -14.4149   19.5136 C   0  0  0  0  0  0  0  0  0  0  0  0
    7.9747  -13.2053   19.1800 C   0  0  0  0  0  0  0  0  0  0  0  0
    8.1169  -16.7807   24.2905 N   0  0  0  0  0  0  0  0  0  0  0  0
    8.3786  -16.4197   25.6338 C   0  0  1  0  0  0  0  0  0  0  0  0
    7.2274  -15.8024   26.4041 C   0  0  0  0  0  0  0  0  0  0  0  0
    7.1436  -14.3273   26.1729 C   0  0  0  0  0  0  0  0  0  0  0  0
    5.9085  -13.6551   26.1462 C   0  0  0  0  0  0  0  0  0  0  0  0
    6.2097  -12.3731   25.9220 N   0  0  0  0  0  0  0  0  0  0  0  0
    7.5362  -12.2105   25.8097 C   0  0  0  0  0  0  0  0  0  0  0  0
    8.0801  -13.4164   25.9667 N   0  0  0  0  0  0  0  0  0  0  0  0
    9.0726  -17.4326   26.4081 C   0  0  0  0  0  0  0  0  0  0  0  0
    9.2482  -17.2103   27.6620 O   0  0  0  0  0  0  0  0  0  0  0  0
   15.1131  -16.4729   22.3837 N   0  0  0  0  0  0  0  0  0  0  0  0
   15.2902  -17.8272   21.9812 C   0  0  0  0  0  0  0  0  0  0  0  0
   16.1902  -18.1228   21.1251 N   0  0  0  0  0  0  0  0  0  0  0  0
   14.4752  -18.8698   22.5216 N   0  0  0  0  0  0  0  0  0  0  0  0
   13.0775  -18.6829   22.8511 C   0  0  0  0  0  0  0  0  0  0  0  0
   12.8840  -18.0058   24.1916 C   0  0  0  0  0  0  0  0  0  0  0  0
   11.3952  -17.9179   24.4413 C   0  0  0  0  0  0  0  0  0  0  0  0
   10.9631  -18.7815   25.5993 C   0  0  2  0  0  0  0  0  0  0  0  0
    9.5745  -18.6442   25.9135 N   0  0  0  0  0  0  0  0  0  0  0  0
   11.7513  -18.5105   26.8251 C   0  0  0  0  0  0  0  0  0  0  0  0
   11.5888  -17.4531   27.4845 O   0  0  0  0  0  0  0  0  0  0  0  0
   12.6981  -19.4033   27.2992 O   0  0  0  0  0  0  0  0  0  0  0  0
  2  1  1  0
  3  2  2  0
  4  3  1  0
  5  4  2  0
  5 11  1  0
  6  5  1  0
  7  6  1  0
  7  8  1  1
  9  7  1  0
 10  9  2  0
 11 12  2  0
 12  2  1  0
 13  9  1  0
 14 13  1  0
 14 21  1  0
 14 15  1  1
 16 15  1  0
 17 16  2  0
 18 19  1  0
 18 17  1  0
 19 20  2  0
 20 16  1  0
 21 22  2  0
 23 24  1  0
 24 26  1  0
 24 25  2  0
 26 27  1  0
 27 28  1  0
 29 28  1  0
 30 29  1  6
 31 21  1  0
 31 30  1  0
 32 30  1  0
 32 34  1  0
 33 32  2  0
M  END
$$$$
