YHR.pdb
     RDKit          3D

 34 35  0  0  1  0  0  0  0  0999 V2000
    5.8086  -12.6157   20.4261 O   0  0  0  0  0  0  0  0  0  0  0  0
    7.1312  -13.0451   20.3114 C   0  0  0  0  0  0  0  0  0  0  0  0
    7.5491  -14.1895   20.9833 C   0  0  0  0  0  0  0  0  0  0  0  0
    8.8602  -14.5911   20.8526 C   0  0  0  0  0  0  0  0  0  0  0  0
    9.7543  -13.8622   20.0595 C   0  0  0  0  0  0  0  0  0  0  0  0
   11.1306  -14.3481   19.9636 C   0  0  0  0  0  0  0  0  0  0  0  0
   11.5209  -14.6105   18.5323 C   0  0  2  0  0  0  0  0  0  0  0  0
   10.5919  -15.4521   17.8573 N   0  0  0  0  0  0  0  0  0  0  0  0
   12.8937  -15.1714   18.4163 C   0  0  0  0  0  0  0  0  0  0  0  0
   13.0107  -16.4173   18.3806 O   0  0  0  0  0  0  0  0  0  0  0  0
    9.3488  -12.7257   19.3891 C   0  0  0  0  0  0  0  0  0  0  0  0
    8.0366  -12.3382   19.5301 C   0  0  0  0  0  0  0  0  0  0  0  0
   14.0528  -14.3848   18.3458 N   0  0  0  0  0  0  0  0  0  0  0  0
   15.4099  -14.7864   18.3204 C   0  0  1  0  0  0  0  0  0  0  0  0
   16.4244  -13.7172   17.9636 C   0  0  0  0  0  0  0  0  0  0  0  0
   16.5443  -13.5501   16.4823 C   0  0  0  0  0  0  0  0  0  0  0  0
   15.8780  -14.4074   15.5883 C   0  0  0  0  0  0  0  0  0  0  0  0
   16.2065  -13.9699   14.3695 N   0  0  0  0  0  0  0  0  0  0  0  0
   17.0233  -12.9094   14.4508 C   0  0  0  0  0  0  0  0  0  0  0  0
   17.2123  -12.6756   15.7486 N   0  0  0  0  0  0  0  0  0  0  0  0
   15.8285  -15.5760   19.4643 C   0  0  0  0  0  0  0  0  0  0  0  0
   15.3183  -15.2876   20.6084 O   0  0  0  0  0  0  0  0  0  0  0  0
   16.1401  -24.2781   23.1478 N   0  0  0  0  0  0  0  0  0  0  0  0
   16.8630  -23.5223   22.1817 C   0  0  0  0  0  0  0  0  0  0  0  0
   17.4041  -24.1138   21.1879 N   0  0  0  0  0  0  0  0  0  0  0  0
   16.9947  -22.1041   22.3028 N   0  0  0  0  0  0  0  0  0  0  0  0
   16.7478  -21.1959   21.2022 C   0  0  0  0  0  0  0  0  0  0  0  0
   17.0265  -19.7532   21.5680 C   0  0  0  0  0  0  0  0  0  0  0  0
   16.7287  -18.9129   20.3467 C   0  0  0  0  0  0  0  0  0  0  0  0
   16.9536  -17.4438   20.6013 C   0  0  2  0  0  0  0  0  0  0  0  0
   16.7459  -16.6354   19.4399 N   0  0  0  0  0  0  0  0  0  0  0  0
   18.3109  -17.1681   21.1293 C   0  0  0  0  0  0  0  0  0  0  0  0
   19.1804  -16.5950   20.4257 O   0  0  0  0  0  0  0  0  0  0  0  0
   18.6835  -17.5262   22.4143 O   0  0  0  0  0  0  0  0  0  0  0  0
  2  1  1  0
  3  2  2  0
  4  3  1  0
  5  4  2  0
  5 11  1  0
  6  5  1  0
  7  6  1  0
  7  8  1  1
  9  7  1  0
 10  9  2  0
 11 12  2  0
 12  2  1  0
 13  9  1  0
 14 13  1  0
 14 21  1  0
 14 15  1  1
 16 15  1  0
 17 16  2  0
 18 19  1  0
 18 17  1  0
 19 20  2  0
 20 16  1  0
 21 22  2  0
 23 24  1  0
 24 26  1  0
 24 25  2  0
 26 27  1  0
 27 28  1  0
 29 28  1  0
 30 29  1  6
 31 21  1  0
 31 30  1  0
 32 30  1  0
 32 34  1  0
 33 32  2  0
M  END
$$$$
