YHR.pdb
     RDKit          3D

 34 35  0  0  1  0  0  0  0  0999 V2000
    6.6581  -10.2466   25.8157 O   0  0  0  0  0  0  0  0  0  0  0  0
    6.6757  -11.6250   26.0322 C   0  0  0  0  0  0  0  0  0  0  0  0
    7.8192  -12.3590   25.7334 C   0  0  0  0  0  0  0  0  0  0  0  0
    7.8095  -13.7182   25.9568 C   0  0  0  0  0  0  0  0  0  0  0  0
    6.6715  -14.3483   26.4743 C   0  0  0  0  0  0  0  0  0  0  0  0
    6.7326  -15.7938   26.6891 C   0  0  0  0  0  0  0  0  0  0  0  0
    6.1353  -16.5463   25.5285 C   0  0  2  0  0  0  0  0  0  0  0  0
    5.8589  -17.9070   25.8428 N   0  0  0  0  0  0  0  0  0  0  0  0
    6.9836  -16.4674   24.3092 C   0  0  0  0  0  0  0  0  0  0  0  0
    7.9620  -17.2446   24.2314 O   0  0  0  0  0  0  0  0  0  0  0  0
    5.5324  -13.6283   26.7738 C   0  0  0  0  0  0  0  0  0  0  0  0
    5.5585  -12.2723   26.5448 C   0  0  0  0  0  0  0  0  0  0  0  0
    6.7471  -15.5760   23.2524 N   0  0  0  0  0  0  0  0  0  0  0  0
    7.4810  -15.3863   22.0570 C   0  0  1  0  0  0  0  0  0  0  0  0
    6.9953  -14.2859   21.1334 C   0  0  0  0  0  0  0  0  0  0  0  0
    7.7642  -14.2698   19.8508 C   0  0  0  0  0  0  0  0  0  0  0  0
    8.8532  -15.1331   19.6343 C   0  0  0  0  0  0  0  0  0  0  0  0
    9.2898  -14.8480   18.4043 N   0  0  0  0  0  0  0  0  0  0  0  0
    8.5497  -13.8754   17.8523 C   0  0  0  0  0  0  0  0  0  0  0  0
    7.6283  -13.5422   18.7548 N   0  0  0  0  0  0  0  0  0  0  0  0
    8.9219  -15.3573   22.2301 C   0  0  0  0  0  0  0  0  0  0  0  0
    9.4307  -14.3446   22.8367 O   0  0  0  0  0  0  0  0  0  0  0  0
   10.8795  -20.4334   27.4988 N   0  0  0  0  0  0  0  0  0  0  0  0
   11.2185  -19.0619   27.6759 C   0  0  0  0  0  0  0  0  0  0  0  0
   11.7805  -18.6812   28.7574 N   0  0  0  0  0  0  0  0  0  0  0  0
   10.9411  -18.0962   26.6592 N   0  0  0  0  0  0  0  0  0  0  0  0
   11.5441  -18.1462   25.3435 C   0  0  0  0  0  0  0  0  0  0  0  0
   11.0779  -17.0167   24.4493 C   0  0  0  0  0  0  0  0  0  0  0  0
   11.7028  -17.2313   23.0892 C   0  0  0  0  0  0  0  0  0  0  0  0
   11.2186  -16.2230   22.0779 C   0  0  2  0  0  0  0  0  0  0  0  0
    9.8217  -16.3398   21.7944 N   0  0  0  0  0  0  0  0  0  0  0  0
   11.9661  -16.3073   20.8007 C   0  0  0  0  0  0  0  0  0  0  0  0
   11.4254  -16.7513   19.7567 O   0  0  0  0  0  0  0  0  0  0  0  0
   13.2869  -15.9035   20.6972 O   0  0  0  0  0  0  0  0  0  0  0  0
  2  1  1  0
  3  2  2  0
  4  3  1  0
  5  4  2  0
  5 11  1  0
  6  5  1  0
  7  6  1  0
  7  8  1  1
  9  7  1  0
 10  9  2  0
 11 12  2  0
 12  2  1  0
 13  9  1  0
 14 13  1  0
 14 21  1  0
 14 15  1  1
 16 15  1  0
 17 16  2  0
 18 19  1  0
 18 17  1  0
 19 20  2  0
 20 16  1  0
 21 22  2  0
 23 24  1  0
 24 26  1  0
 24 25  2  0
 26 27  1  0
 27 28  1  0
 29 28  1  0
 30 29  1  1
 31 21  1  0
 31 30  1  0
 32 30  1  0
 32 34  1  0
 33 32  2  0
M  END
$$$$
