YHR.pdb
     RDKit          3D

 34 35  0  0  1  0  0  0  0  0999 V2000
    8.2354  -14.3900   14.4774 O   0  0  0  0  0  0  0  0  0  0  0  0
    8.1283  -14.2023   15.8559 C   0  0  0  0  0  0  0  0  0  0  0  0
    8.8928  -13.2240   16.4837 C   0  0  0  0  0  0  0  0  0  0  0  0
    8.7675  -13.0599   17.8455 C   0  0  0  0  0  0  0  0  0  0  0  0
    7.8883  -13.8616   18.5832 C   0  0  0  0  0  0  0  0  0  0  0  0
    7.8038  -13.6304   20.0250 C   0  0  0  0  0  0  0  0  0  0  0  0
    8.5845  -14.6651   20.7929 C   0  0  2  0  0  0  0  0  0  0  0  0
    8.0881  -15.9843   20.5936 N   0  0  0  0  0  0  0  0  0  0  0  0
    8.6473  -14.3589   22.2472 C   0  0  0  0  0  0  0  0  0  0  0  0
    9.2671  -13.3290   22.5974 O   0  0  0  0  0  0  0  0  0  0  0  0
    7.1257  -14.8347   17.9690 C   0  0  0  0  0  0  0  0  0  0  0  0
    7.2627  -14.9858   16.6088 C   0  0  0  0  0  0  0  0  0  0  0  0
    8.0544  -15.1561   23.2372 N   0  0  0  0  0  0  0  0  0  0  0  0
    7.7967  -14.8559   24.5962 C   0  0  1  0  0  0  0  0  0  0  0  0
    7.1321  -13.5225   24.8793 C   0  0  0  0  0  0  0  0  0  0  0  0
    7.1321  -13.2114   26.3421 C   0  0  0  0  0  0  0  0  0  0  0  0
    6.0708  -13.6024   27.1780 C   0  0  0  0  0  0  0  0  0  0  0  0
    6.4030  -13.1667   28.3965 N   0  0  0  0  0  0  0  0  0  0  0  0
    7.5876  -12.5388   28.3686 C   0  0  0  0  0  0  0  0  0  0  0  0
    8.0089  -12.5807   27.1055 N   0  0  0  0  0  0  0  0  0  0  0  0
    7.1916  -15.9384   25.3505 C   0  0  0  0  0  0  0  0  0  0  0  0
    6.1232  -15.6785   26.0165 O   0  0  0  0  0  0  0  0  0  0  0  0
   15.0279  -15.6349   23.3451 N   0  0  0  0  0  0  0  0  0  0  0  0
   14.2110  -16.4720   22.5332 C   0  0  0  0  0  0  0  0  0  0  0  0
   14.7331  -17.1266   21.5691 N   0  0  0  0  0  0  0  0  0  0  0  0
   12.8083  -16.5958   22.7786 N   0  0  0  0  0  0  0  0  0  0  0  0
   12.1668  -16.0536   23.9583 C   0  0  0  0  0  0  0  0  0  0  0  0
   11.3828  -17.0990   24.7235 C   0  0  0  0  0  0  0  0  0  0  0  0
    9.9183  -16.7434   24.6006 C   0  0  0  0  0  0  0  0  0  0  0  0
    9.0641  -17.5170   25.5730 C   0  0  2  0  0  0  0  0  0  0  0  0
    7.6661  -17.2553   25.4223 N   0  0  0  0  0  0  0  0  0  0  0  0
    9.4420  -17.2551   26.9822 C   0  0  0  0  0  0  0  0  0  0  0  0
    9.5622  -16.0825   27.4181 O   0  0  0  0  0  0  0  0  0  0  0  0
    9.6792  -18.2828   27.8798 O   0  0  0  0  0  0  0  0  0  0  0  0
  2  1  1  0
  3  2  2  0
  4  3  1  0
  5  4  2  0
  5 11  1  0
  6  5  1  0
  7  6  1  0
  7  8  1  1
  9  7  1  0
 10  9  2  0
 11 12  2  0
 12  2  1  0
 13  9  1  0
 14 13  1  0
 14 21  1  0
 14 15  1  6
 16 15  1  0
 17 16  2  0
 18 19  1  0
 18 17  1  0
 19 20  2  0
 20 16  1  0
 21 22  2  0
 23 24  1  0
 24 26  1  0
 24 25  2  0
 26 27  1  0
 27 28  1  0
 29 28  1  0
 30 29  1  6
 31 21  1  0
 31 30  1  0
 32 30  1  0
 32 34  1  0
 33 32  2  0
M  END
$$$$
