YHR.pdb
     RDKit          3D

 34 35  0  0  1  0  0  0  0  0999 V2000
    6.7891  -10.7273   27.3298 O   0  0  0  0  0  0  0  0  0  0  0  0
    6.8077  -11.8503   26.5019 C   0  0  0  0  0  0  0  0  0  0  0  0
    7.8472  -12.7694   26.6038 C   0  0  0  0  0  0  0  0  0  0  0  0
    7.8409  -13.8691   25.7745 C   0  0  0  0  0  0  0  0  0  0  0  0
    6.8090  -14.0582   24.8475 C   0  0  0  0  0  0  0  0  0  0  0  0
    6.8646  -15.2496   24.0010 C   0  0  0  0  0  0  0  0  0  0  0  0
    7.6783  -15.0013   22.7575 C   0  0  2  0  0  0  0  0  0  0  0  0
    6.8749  -14.9207   21.5850 N   0  0  0  0  0  0  0  0  0  0  0  0
    8.7490  -16.0172   22.5725 C   0  0  0  0  0  0  0  0  0  0  0  0
    8.4493  -17.0735   21.9710 O   0  0  0  0  0  0  0  0  0  0  0  0
    5.7735  -13.1516   24.7392 C   0  0  0  0  0  0  0  0  0  0  0  0
    5.7947  -12.0591   25.5744 C   0  0  0  0  0  0  0  0  0  0  0  0
   10.0641  -15.8551   23.0325 N   0  0  0  0  0  0  0  0  0  0  0  0
   10.9582  -16.8210   23.5530 C   0  0  1  0  0  0  0  0  0  0  0  0
   12.4262  -16.6294   23.2243 C   0  0  0  0  0  0  0  0  0  0  0  0
   12.6461  -16.5195   21.7491 C   0  0  0  0  0  0  0  0  0  0  0  0
   11.6638  -16.9212   20.8263 C   0  0  0  0  0  0  0  0  0  0  0  0
   12.1926  -16.6834   19.6227 N   0  0  0  0  0  0  0  0  0  0  0  0
   13.4244  -16.1664   19.7401 C   0  0  0  0  0  0  0  0  0  0  0  0
   13.6750  -16.0774   21.0454 N   0  0  0  0  0  0  0  0  0  0  0  0
   10.7501  -17.1457   24.9524 C   0  0  0  0  0  0  0  0  0  0  0  0
   11.2466  -16.3493   25.8309 O   0  0  0  0  0  0  0  0  0  0  0  0
    4.8148  -22.5192   27.4502 N   0  0  0  0  0  0  0  0  0  0  0  0
    5.8095  -22.9878   26.5455 C   0  0  0  0  0  0  0  0  0  0  0  0
    5.7759  -24.1965   26.1353 N   0  0  0  0  0  0  0  0  0  0  0  0
    6.8515  -22.1253   26.0835 N   0  0  0  0  0  0  0  0  0  0  0  0
    6.9315  -20.7259   26.4473 C   0  0  0  0  0  0  0  0  0  0  0  0
    8.2161  -20.0774   25.9762 C   0  0  0  0  0  0  0  0  0  0  0  0
    8.9278  -19.5460   27.1999 C   0  0  0  0  0  0  0  0  0  0  0  0
    9.9350  -18.4795   26.8509 C   0  0  2  0  0  0  0  0  0  0  0  0
   10.0509  -18.2571   25.4429 N   0  0  0  0  0  0  0  0  0  0  0  0
   11.2817  -18.7824   27.3913 C   0  0  0  0  0  0  0  0  0  0  0  0
   11.5151  -18.7347   28.6252 O   0  0  0  0  0  0  0  0  0  0  0  0
   12.3399  -19.1300   26.5681 O   0  0  0  0  0  0  0  0  0  0  0  0
  2  1  1  0
  3  2  2  0
  4  3  1  0
  5  4  2  0
  5 11  1  0
  6  5  1  0
  7  6  1  0
  7  8  1  6
  9  7  1  0
 10  9  2  0
 11 12  2  0
 12  2  1  0
 13  9  1  0
 14 13  1  0
 14 21  1  0
 14 15  1  1
 16 15  1  0
 17 16  2  0
 18 19  1  0
 18 17  1  0
 19 20  2  0
 20 16  1  0
 21 22  2  0
 23 24  1  0
 24 26  1  0
 24 25  2  0
 26 27  1  0
 27 28  1  0
 29 28  1  0
 30 29  1  6
 31 21  1  0
 31 30  1  0
 32 30  1  0
 32 34  1  0
 33 32  2  0
M  END
$$$$
