YHR.pdb
     RDKit          3D

 34 35  0  0  1  0  0  0  0  0999 V2000
    4.5775  -10.3296   27.5709 O   0  0  0  0  0  0  0  0  0  0  0  0
    5.4519  -11.2764   27.0361 C   0  0  0  0  0  0  0  0  0  0  0  0
    5.8166  -11.2038   25.6955 C   0  0  0  0  0  0  0  0  0  0  0  0
    6.6813  -12.1511   25.1933 C   0  0  0  0  0  0  0  0  0  0  0  0
    7.1831  -13.1668   26.0158 C   0  0  0  0  0  0  0  0  0  0  0  0
    8.0991  -14.1371   25.4168 C   0  0  0  0  0  0  0  0  0  0  0  0
    7.3907  -15.0170   24.4199 C   0  0  2  0  0  0  0  0  0  0  0  0
    6.4974  -15.9363   25.0392 N   0  0  0  0  0  0  0  0  0  0  0  0
    8.3402  -15.7458   23.5368 C   0  0  0  0  0  0  0  0  0  0  0  0
    8.5116  -16.9673   23.7513 O   0  0  0  0  0  0  0  0  0  0  0  0
    6.8270  -13.2468   27.3472 C   0  0  0  0  0  0  0  0  0  0  0  0
    5.9627  -12.2934   27.8328 C   0  0  0  0  0  0  0  0  0  0  0  0
    9.0470  -15.1418   22.4866 N   0  0  0  0  0  0  0  0  0  0  0  0
   10.0126  -15.7013   21.6159 C   0  0  1  0  0  0  0  0  0  0  0  0
   10.4514  -14.8378   20.4491 C   0  0  0  0  0  0  0  0  0  0  0  0
    9.3096  -14.5387   19.5307 C   0  0  0  0  0  0  0  0  0  0  0  0
    8.0514  -15.1444   19.6987 C   0  0  0  0  0  0  0  0  0  0  0  0
    7.2894  -14.6518   18.7182 N   0  0  0  0  0  0  0  0  0  0  0  0
    7.9868  -13.7903   17.9633 C   0  0  0  0  0  0  0  0  0  0  0  0
    9.2134  -13.7405   18.4805 N   0  0  0  0  0  0  0  0  0  0  0  0
   11.1381  -16.3287   22.2843 C   0  0  0  0  0  0  0  0  0  0  0  0
   11.7720  -15.6377   23.1635 O   0  0  0  0  0  0  0  0  0  0  0  0
   14.3484  -24.1581   20.3384 N   0  0  0  0  0  0  0  0  0  0  0  0
   14.3264  -23.1306   19.3529 C   0  0  0  0  0  0  0  0  0  0  0  0
   14.6005  -23.4103   18.1376 N   0  0  0  0  0  0  0  0  0  0  0  0
   14.0000  -21.7828   19.6997 N   0  0  0  0  0  0  0  0  0  0  0  0
   13.6344  -21.3843   21.0431 C   0  0  0  0  0  0  0  0  0  0  0  0
   13.3883  -19.8947   21.1587 C   0  0  0  0  0  0  0  0  0  0  0  0
   12.9410  -19.6206   22.5768 C   0  0  0  0  0  0  0  0  0  0  0  0
   12.6983  -18.1524   22.8204 C   0  0  2  0  0  0  0  0  0  0  0  0
   11.6047  -17.6313   22.0602 N   0  0  0  0  0  0  0  0  0  0  0  0
   13.9001  -17.3316   22.5386 C   0  0  0  0  0  0  0  0  0  0  0  0
   14.7937  -17.1643   23.4063 O   0  0  0  0  0  0  0  0  0  0  0  0
   14.0944  -16.7141   21.3142 O   0  0  0  0  0  0  0  0  0  0  0  0
  2  1  1  0
  3  2  2  0
  4  3  1  0
  5  4  2  0
  5 11  1  0
  6  5  1  0
  7  6  1  0
  7  8  1  1
  9  7  1  0
 10  9  2  0
 11 12  2  0
 12  2  1  0
 13  9  1  0
 14 13  1  0
 14 21  1  0
 14 15  1  6
 16 15  1  0
 17 16  2  0
 18 19  1  0
 18 17  1  0
 19 20  2  0
 20 16  1  0
 21 22  2  0
 23 24  1  0
 24 26  1  0
 24 25  2  0
 26 27  1  0
 27 28  1  0
 29 28  1  0
 30 29  1  6
 31 21  1  0
 31 30  1  0
 32 30  1  0
 32 34  1  0
 33 32  2  0
M  END
$$$$
