YHR.pdb
     RDKit          3D

 34 35  0  0  1  0  0  0  0  0999 V2000
    4.9338  -10.0250   27.2017 O   0  0  0  0  0  0  0  0  0  0  0  0
    5.7203  -11.1397   26.9090 C   0  0  0  0  0  0  0  0  0  0  0  0
    6.4157  -11.2007   25.7055 C   0  0  0  0  0  0  0  0  0  0  0  0
    7.1847  -12.3126   25.4418 C   0  0  0  0  0  0  0  0  0  0  0  0
    7.2650  -13.3606   26.3666 C   0  0  0  0  0  0  0  0  0  0  0  0
    8.1027  -14.5091   26.0225 C   0  0  0  0  0  0  0  0  0  0  0  0
    7.4600  -15.3563   24.9552 C   0  0  2  0  0  0  0  0  0  0  0  0
    6.2564  -15.9743   25.3982 N   0  0  0  0  0  0  0  0  0  0  0  0
    8.3906  -16.3830   24.4144 C   0  0  0  0  0  0  0  0  0  0  0  0
    8.2637  -17.5575   24.8289 O   0  0  0  0  0  0  0  0  0  0  0  0
    6.5787  -13.3089   27.5634 C   0  0  0  0  0  0  0  0  0  0  0  0
    5.8154  -12.1919   27.8111 C   0  0  0  0  0  0  0  0  0  0  0  0
    9.3934  -16.1067   23.4735 N   0  0  0  0  0  0  0  0  0  0  0  0
   10.3650  -16.9724   22.9168 C   0  0  1  0  0  0  0  0  0  0  0  0
   10.6858  -16.7726   21.4481 C   0  0  0  0  0  0  0  0  0  0  0  0
    9.4479  -16.8004   20.6095 C   0  0  0  0  0  0  0  0  0  0  0  0
    8.7956  -18.0072   20.2995 C   0  0  0  0  0  0  0  0  0  0  0  0
    7.7468  -17.6583   19.5492 N   0  0  0  0  0  0  0  0  0  0  0  0
    7.7084  -16.3288   19.3772 C   0  0  0  0  0  0  0  0  0  0  0  0
    8.7558  -15.8317   20.0334 N   0  0  0  0  0  0  0  0  0  0  0  0
   11.5631  -17.1333   23.7203 C   0  0  0  0  0  0  0  0  0  0  0  0
   12.3314  -16.1120   23.8587 O   0  0  0  0  0  0  0  0  0  0  0  0
   12.4496  -21.3448   31.3149 N   0  0  0  0  0  0  0  0  0  0  0  0
   13.7154  -21.4520   30.6717 C   0  0  0  0  0  0  0  0  0  0  0  0
   14.6224  -22.1966   31.1750 N   0  0  0  0  0  0  0  0  0  0  0  0
   13.9921  -20.7383   29.4645 N   0  0  0  0  0  0  0  0  0  0  0  0
   13.0720  -19.7778   28.8918 C   0  0  0  0  0  0  0  0  0  0  0  0
   13.6428  -19.0849   27.6724 C   0  0  0  0  0  0  0  0  0  0  0  0
   12.5884  -19.1367   26.5898 C   0  0  0  0  0  0  0  0  0  0  0  0
   12.9436  -18.2659   25.4111 C   0  0  2  0  0  0  0  0  0  0  0  0
   11.9665  -18.3092   24.3676 N   0  0  0  0  0  0  0  0  0  0  0  0
   14.2635  -18.6153   24.8340 C   0  0  0  0  0  0  0  0  0  0  0  0
   15.3011  -17.9788   25.1466 O   0  0  0  0  0  0  0  0  0  0  0  0
   14.4156  -19.6525   23.9289 O   0  0  0  0  0  0  0  0  0  0  0  0
  2  1  1  0
  3  2  2  0
  4  3  1  0
  5  4  2  0
  5 11  1  0
  6  5  1  0
  7  6  1  0
  7  8  1  1
  9  7  1  0
 10  9  2  0
 11 12  2  0
 12  2  1  0
 13  9  1  0
 14 13  1  0
 14 21  1  0
 14 15  1  6
 16 15  1  0
 17 16  2  0
 18 19  1  0
 18 17  1  0
 19 20  2  0
 20 16  1  0
 21 22  2  0
 23 24  1  0
 24 26  1  0
 24 25  2  0
 26 27  1  0
 27 28  1  0
 29 28  1  0
 30 29  1  1
 31 21  1  0
 31 30  1  0
 32 30  1  0
 32 34  1  0
 33 32  2  0
M  END
$$$$
