YHR.pdb
     RDKit          3D

 34 35  0  0  1  0  0  0  0  0999 V2000
    7.9874  -13.2107   15.5549 O   0  0  0  0  0  0  0  0  0  0  0  0
    8.1672  -13.3014   16.9356 C   0  0  0  0  0  0  0  0  0  0  0  0
    9.4517  -13.2875   17.4697 C   0  0  0  0  0  0  0  0  0  0  0  0
    9.6006  -13.3784   18.8361 C   0  0  0  0  0  0  0  0  0  0  0  0
    8.4814  -13.4825   19.6707 C   0  0  0  0  0  0  0  0  0  0  0  0
    8.7135  -13.5722   21.1120 C   0  0  0  0  0  0  0  0  0  0  0  0
    9.3288  -14.8953   21.4870 C   0  0  2  0  0  0  0  0  0  0  0  0
    8.6330  -16.0018   20.9229 N   0  0  0  0  0  0  0  0  0  0  0  0
    9.4462  -15.0649   22.9601 C   0  0  0  0  0  0  0  0  0  0  0  0
   10.3941  -14.4856   23.5374 O   0  0  0  0  0  0  0  0  0  0  0  0
    7.2031  -13.4969   19.1498 C   0  0  0  0  0  0  0  0  0  0  0  0
    7.0718  -13.4055   17.7837 C   0  0  0  0  0  0  0  0  0  0  0  0
    8.5591  -15.8327   23.7288 N   0  0  0  0  0  0  0  0  0  0  0  0
    8.6490  -16.2145   25.0888 C   0  0  1  0  0  0  0  0  0  0  0  0
    7.3758  -16.1085   25.9059 C   0  0  0  0  0  0  0  0  0  0  0  0
    6.9048  -14.6924   26.0025 C   0  0  0  0  0  0  0  0  0  0  0  0
    7.6759  -13.6246   25.5092 C   0  0  0  0  0  0  0  0  0  0  0  0
    6.9580  -12.5262   25.7599 N   0  0  0  0  0  0  0  0  0  0  0  0
    5.8059  -12.8418   26.3694 C   0  0  0  0  0  0  0  0  0  0  0  0
    5.7997  -14.1671   26.5046 N   0  0  0  0  0  0  0  0  0  0  0  0
    9.3434  -17.4680   25.3205 C   0  0  0  0  0  0  0  0  0  0  0  0
    8.9571  -18.4972   24.6542 O   0  0  0  0  0  0  0  0  0  0  0  0
   13.5785  -16.5961   20.2999 N   0  0  0  0  0  0  0  0  0  0  0  0
   14.3457  -16.1142   21.3983 C   0  0  0  0  0  0  0  0  0  0  0  0
   15.2672  -15.2528   21.2000 N   0  0  0  0  0  0  0  0  0  0  0  0
   14.1021  -16.5783   22.7282 N   0  0  0  0  0  0  0  0  0  0  0  0
   13.0950  -17.5707   23.0413 C   0  0  0  0  0  0  0  0  0  0  0  0
   12.9793  -17.8293   24.5287 C   0  0  0  0  0  0  0  0  0  0  0  0
   11.9196  -18.8907   24.7205 C   0  0  0  0  0  0  0  0  0  0  0  0
   11.2667  -18.8007   26.0768 C   0  0  2  0  0  0  0  0  0  0  0  0
   10.4075  -17.6653   26.2111 N   0  0  0  0  0  0  0  0  0  0  0  0
   12.2606  -18.7708   27.1762 C   0  0  0  0  0  0  0  0  0  0  0  0
   12.4144  -17.7469   27.8886 O   0  0  0  0  0  0  0  0  0  0  0  0
   13.0618  -19.8619   27.4689 O   0  0  0  0  0  0  0  0  0  0  0  0
  2  1  1  0
  3  2  2  0
  4  3  1  0
  5  4  2  0
  5 11  1  0
  6  5  1  0
  7  6  1  0
  7  8  1  1
  9  7  1  0
 10  9  2  0
 11 12  2  0
 12  2  1  0
 13  9  1  0
 14 13  1  0
 14 21  1  0
 14 15  1  6
 16 15  1  0
 17 16  2  0
 18 19  1  0
 18 17  1  0
 19 20  2  0
 20 16  1  0
 21 22  2  0
 23 24  1  0
 24 26  1  0
 24 25  2  0
 26 27  1  0
 27 28  1  0
 29 28  1  0
 30 29  1  6
 31 21  1  0
 31 30  1  0
 32 30  1  0
 32 34  1  0
 33 32  2  0
M  END
$$$$
