EYV.pdb
     RDKit          3D

 29 29  0  0  1  0  0  0  0  0999 V2000
   10.5524  -16.6068   19.2190 N   0  0  0  0  0  0  0  0  0  0  0  0
   10.9359  -17.2105   20.4856 C   0  0  1  0  0  0  0  0  0  0  0  0
   12.4246  -17.4287   20.4373 C   0  0  0  0  0  0  0  0  0  0  0  0
   12.8409  -18.8467   20.2233 C   0  0  0  0  0  0  0  0  0  0  0  0
   14.2942  -19.0349   20.1263 C   0  0  0  0  0  0  0  0  0  0  0  0
   15.0616  -19.3451   21.0718 O   0  0  0  0  0  0  0  0  0  0  0  0
   10.5976  -16.3276   21.6218 C   0  0  0  0  0  0  0  0  0  0  0  0
   11.1668  -15.2402   21.7785 O   0  0  0  0  0  0  0  0  0  0  0  0
   14.8973  -18.8589   18.8850 O   0  0  0  0  0  0  0  0  0  0  0  0
    5.9027  -11.8334   27.5177 O   0  0  0  0  0  0  0  0  0  0  0  0
    6.3486  -12.7265   26.5471 C   0  0  0  0  0  0  0  0  0  0  0  0
    6.0979  -14.0862   26.6717 C   0  0  0  0  0  0  0  0  0  0  0  0
    6.5253  -15.0028   25.7277 C   0  0  0  0  0  0  0  0  0  0  0  0
    7.2220  -14.5941   24.6190 C   0  0  0  0  0  0  0  0  0  0  0  0
    7.6920  -15.5314   23.5956 C   0  0  0  0  0  0  0  0  0  0  0  0
    9.1599  -15.7939   23.6119 C   0  0  2  0  0  0  0  0  0  0  0  0
    9.5994  -16.6893   22.5894 N   0  0  0  0  0  0  0  0  0  0  0  0
    9.4904  -16.3296   24.9825 C   0  0  0  0  0  0  0  0  0  0  0  0
    9.4603  -17.5639   25.2170 O   0  0  0  0  0  0  0  0  0  0  0  0
    7.4830  -13.2373   24.4759 C   0  0  0  0  0  0  0  0  0  0  0  0
    7.0491  -12.3213   25.4311 C   0  0  0  0  0  0  0  0  0  0  0  0
   11.5117  -13.7497   27.3450 C   0  0  0  0  0  0  0  0  0  0  0  0
   10.8267  -14.7926   28.2009 C   0  0  1  0  0  0  0  0  0  0  0  0
    9.5623  -14.1969   28.7823 C   0  0  0  0  0  0  0  0  0  0  0  0
   10.4228  -15.9265   27.3020 C   0  0  2  0  0  0  0  0  0  0  0  0
    9.8464  -15.4659   26.0547 N   0  0  0  0  0  0  0  0  0  0  0  0
    9.5405  -16.9079   27.9630 C   0  0  0  0  0  0  0  0  0  0  0  0
    9.9946  -17.5394   28.9718 O   0  0  0  0  0  0  0  0  0  0  0  0
    8.2633  -17.1965   27.5762 O   0  0  0  0  0  0  0  0  0  0  0  0
  2  7  1  0
  2  1  1  6
  3  2  1  0
  4  3  1  0
  4  5  1  0
  5  6  2  0
  7  8  2  0
  9  5  1  0
 10 11  1  0
 11 21  2  0
 11 12  1  0
 12 13  2  0
 13 14  1  0
 14 15  1  0
 16 15  1  1
 17 16  1  0
 17  7  1  0
 18 19  2  0
 18 16  1  0
 20 14  2  0
 21 20  1  0
 23 22  1  6
 23 25  1  0
 24 23  1  0
 25 27  1  0
 25 26  1  6
 26 18  1  0
 27 29  1  0
 28 27  2  0
M  END
$$$$
