EYV.pdb
     RDKit          3D

 29 29  0  0  1  0  0  0  0  0999 V2000
   11.9244  -16.6261   19.9513 N   0  0  0  0  0  0  0  0  0  0  0  0
   11.0810  -17.3337   20.9021 C   0  0  1  0  0  0  0  0  0  0  0  0
   11.8647  -18.5247   21.3856 C   0  0  0  0  0  0  0  0  0  0  0  0
   11.9963  -19.6308   20.3910 C   0  0  0  0  0  0  0  0  0  0  0  0
   12.0837  -20.9679   20.9921 C   0  0  0  0  0  0  0  0  0  0  0  0
   12.7045  -21.2637   22.0438 O   0  0  0  0  0  0  0  0  0  0  0  0
   10.7281  -16.4700   22.0484 C   0  0  0  0  0  0  0  0  0  0  0  0
   11.5698  -15.7332   22.5772 O   0  0  0  0  0  0  0  0  0  0  0  0
   11.4276  -22.0172   20.3565 O   0  0  0  0  0  0  0  0  0  0  0  0
    6.0718  -11.4040   27.5948 O   0  0  0  0  0  0  0  0  0  0  0  0
    6.4454  -12.3348   26.6292 C   0  0  0  0  0  0  0  0  0  0  0  0
    6.1746  -13.6844   26.8089 C   0  0  0  0  0  0  0  0  0  0  0  0
    6.5307  -14.6377   25.8715 C   0  0  0  0  0  0  0  0  0  0  0  0
    7.1735  -14.2771   24.7146 C   0  0  0  0  0  0  0  0  0  0  0  0
    7.5674  -15.2542   23.6963 C   0  0  0  0  0  0  0  0  0  0  0  0
    9.0241  -15.5712   23.6613 C   0  0  2  0  0  0  0  0  0  0  0  0
    9.4008  -16.4467   22.5973 N   0  0  0  0  0  0  0  0  0  0  0  0
    9.3720  -16.1655   25.0032 C   0  0  0  0  0  0  0  0  0  0  0  0
    9.3672  -17.4100   25.1781 O   0  0  0  0  0  0  0  0  0  0  0  0
    7.4536  -12.9311   24.5159 C   0  0  0  0  0  0  0  0  0  0  0  0
    7.0915  -11.9781   25.4648 C   0  0  0  0  0  0  0  0  0  0  0  0
   11.6329  -13.8128   27.4290 C   0  0  0  0  0  0  0  0  0  0  0  0
   10.7775  -14.7563   28.2461 C   0  0  1  0  0  0  0  0  0  0  0  0
    9.5510  -14.0125   28.7297 C   0  0  0  0  0  0  0  0  0  0  0  0
   10.3119  -15.8554   27.3339 C   0  0  2  0  0  0  0  0  0  0  0  0
    9.7163  -15.3475   26.1142 N   0  0  0  0  0  0  0  0  0  0  0  0
    9.4166  -16.8231   27.9977 C   0  0  0  0  0  0  0  0  0  0  0  0
    8.2379  -16.9650   27.5359 O   0  0  0  0  0  0  0  0  0  0  0  0
    9.7536  -17.5865   29.0784 O   0  0  0  0  0  0  0  0  0  0  0  0
  2  7  1  0
  2  1  1  6
  3  2  1  0
  4  3  1  0
  4  5  1  0
  5  6  2  0
  7  8  2  0
  9  5  1  0
 10 11  1  0
 11 21  2  0
 11 12  1  0
 12 13  2  0
 13 14  1  0
 14 15  1  0
 16 15  1  1
 17 16  1  0
 17  7  1  0
 18 19  2  0
 18 16  1  0
 20 14  2  0
 21 20  1  0
 23 22  1  6
 23 25  1  0
 24 23  1  0
 25 27  1  0
 25 26  1  6
 26 18  1  0
 27 29  1  0
 28 27  2  0
M  END
$$$$
