EYV.pdb
     RDKit          3D

 29 29  0  0  1  0  0  0  0  0999 V2000
   12.3457  -15.7305   23.3060 N   0  0  0  0  0  0  0  0  0  0  0  0
   11.8924  -17.0331   23.7684 C   0  0  1  0  0  0  0  0  0  0  0  0
   12.8595  -17.4853   24.8299 C   0  0  0  0  0  0  0  0  0  0  0  0
   14.2770  -17.6002   24.3745 C   0  0  0  0  0  0  0  0  0  0  0  0
   14.9451  -16.3088   24.1679 C   0  0  0  0  0  0  0  0  0  0  0  0
   15.4023  -15.5631   25.0701 O   0  0  0  0  0  0  0  0  0  0  0  0
   10.5300  -16.9535   24.3360 C   0  0  0  0  0  0  0  0  0  0  0  0
    9.9789  -17.9505   24.8190 O   0  0  0  0  0  0  0  0  0  0  0  0
   15.0964  -15.8496   22.8633 O   0  0  0  0  0  0  0  0  0  0  0  0
   11.2819  -15.6929   30.5779 O   0  0  0  0  0  0  0  0  0  0  0  0
   10.5223  -15.4586   29.4349 C   0  0  0  0  0  0  0  0  0  0  0  0
   10.6684  -14.2767   28.7214 C   0  0  0  0  0  0  0  0  0  0  0  0
    9.9312  -14.0094   27.5815 C   0  0  0  0  0  0  0  0  0  0  0  0
    9.0165  -14.9161   27.1097 C   0  0  0  0  0  0  0  0  0  0  0  0
    8.2161  -14.6727   25.9068 C   0  0  0  0  0  0  0  0  0  0  0  0
    8.4339  -15.6483   24.8002 C   0  0  2  0  0  0  0  0  0  0  0  0
    9.7884  -15.7233   24.3528 N   0  0  0  0  0  0  0  0  0  0  0  0
    7.5119  -15.2444   23.6770 C   0  0  0  0  0  0  0  0  0  0  0  0
    6.2676  -15.2020   23.8477 O   0  0  0  0  0  0  0  0  0  0  0  0
    8.8554  -16.1051   27.8096 C   0  0  0  0  0  0  0  0  0  0  0  0
    9.6017  -16.3663   28.9562 C   0  0  0  0  0  0  0  0  0  0  0  0
    8.9896  -13.5932   19.9658 C   0  0  0  0  0  0  0  0  0  0  0  0
    7.6344  -13.2971   20.5702 C   0  0  1  0  0  0  0  0  0  0  0  0
    6.6540  -13.0014   19.4553 C   0  0  0  0  0  0  0  0  0  0  0  0
    7.1653  -14.5414   21.2692 C   0  0  2  0  0  0  0  0  0  0  0  0
    8.0105  -14.8983   22.3910 N   0  0  0  0  0  0  0  0  0  0  0  0
    6.9824  -15.6878   20.3576 C   0  0  0  0  0  0  0  0  0  0  0  0
    7.6985  -16.7244   20.5457 O   0  0  0  0  0  0  0  0  0  0  0  0
    6.0982  -15.7270   19.3180 O   0  0  0  0  0  0  0  0  0  0  0  0
  2  7  1  0
  2  1  1  1
  3  2  1  0
  4  3  1  0
  4  5  1  0
  5  6  2  0
  7  8  2  0
  9  5  1  0
 10 11  1  0
 11 21  2  0
 11 12  1  0
 12 13  2  0
 13 14  1  0
 14 15  1  0
 16 15  1  1
 17 16  1  0
 17  7  1  0
 18 19  2  0
 18 16  1  0
 20 14  2  0
 21 20  1  0
 23 22  1  6
 23 25  1  0
 24 23  1  0
 25 27  1  0
 25 26  1  1
 26 18  1  0
 27 29  1  0
 28 27  2  0
M  END
$$$$
