EYV.pdb
     RDKit          3D

 29 29  0  0  1  0  0  0  0  0999 V2000
   11.2440  -17.2225   19.4887 N   0  0  0  0  0  0  0  0  0  0  0  0
   11.4197  -17.6427   20.8702 C   0  0  1  0  0  0  0  0  0  0  0  0
   12.8749  -17.9868   21.0448 C   0  0  0  0  0  0  0  0  0  0  0  0
   13.3308  -19.1809   20.2728 C   0  0  0  0  0  0  0  0  0  0  0  0
   14.5736  -19.7797   20.7767 C   0  0  0  0  0  0  0  0  0  0  0  0
   15.1539  -20.7857   20.2971 O   0  0  0  0  0  0  0  0  0  0  0  0
   11.0463  -16.5631   21.8081 C   0  0  0  0  0  0  0  0  0  0  0  0
   11.5857  -15.4510   21.7509 O   0  0  0  0  0  0  0  0  0  0  0  0
   15.1807  -19.1967   21.8844 O   0  0  0  0  0  0  0  0  0  0  0  0
    6.7594  -12.9946   18.6126 O   0  0  0  0  0  0  0  0  0  0  0  0
    7.1205  -13.5578   19.8336 C   0  0  0  0  0  0  0  0  0  0  0  0
    6.6125  -14.7910   20.2188 C   0  0  0  0  0  0  0  0  0  0  0  0
    6.9486  -15.3813   21.4241 C   0  0  0  0  0  0  0  0  0  0  0  0
    7.8083  -14.7595   22.2935 C   0  0  0  0  0  0  0  0  0  0  0  0
    8.1905  -15.3499   23.5789 C   0  0  0  0  0  0  0  0  0  0  0  0
    9.6332  -15.7070   23.7010 C   0  0  2  0  0  0  0  0  0  0  0  0
   10.0469  -16.7543   22.8221 N   0  0  0  0  0  0  0  0  0  0  0  0
    9.8673  -16.0829   25.1428 C   0  0  0  0  0  0  0  0  0  0  0  0
   10.0081  -17.2850   25.4811 O   0  0  0  0  0  0  0  0  0  0  0  0
    8.3275  -13.5245   21.9264 C   0  0  0  0  0  0  0  0  0  0  0  0
    7.9839  -12.9373   20.7111 C   0  0  0  0  0  0  0  0  0  0  0  0
   10.7995  -14.5307   29.7577 C   0  0  0  0  0  0  0  0  0  0  0  0
   10.1390  -14.1932   28.4389 C   0  0  1  0  0  0  0  0  0  0  0  0
   10.9050  -13.0655   27.7808 C   0  0  0  0  0  0  0  0  0  0  0  0
   10.2532  -15.3990   27.5500 C   0  0  2  0  0  0  0  0  0  0  0  0
    9.9376  -15.0997   26.1677 N   0  0  0  0  0  0  0  0  0  0  0  0
    9.4727  -16.5548   28.0334 C   0  0  0  0  0  0  0  0  0  0  0  0
    8.2869  -16.7048   27.5931 O   0  0  0  0  0  0  0  0  0  0  0  0
    9.9243  -17.4861   28.9240 O   0  0  0  0  0  0  0  0  0  0  0  0
  2  7  1  0
  2  1  1  6
  3  2  1  0
  4  3  1  0
  4  5  1  0
  5  6  2  0
  7  8  2  0
  9  5  1  0
 10 11  1  0
 11 21  2  0
 11 12  1  0
 12 13  2  0
 13 14  1  0
 14 15  1  0
 16 15  1  1
 17 16  1  0
 17  7  1  0
 18 19  2  0
 18 16  1  0
 20 14  2  0
 21 20  1  0
 23 22  1  1
 23 25  1  0
 24 23  1  0
 25 27  1  0
 25 26  1  6
 26 18  1  0
 27 29  1  0
 28 27  2  0
M  END
$$$$
