EYV.pdb
     RDKit          3D

 29 29  0  0  1  0  0  0  0  0999 V2000
   10.6520  -17.3551   19.5220 N   0  0  0  0  0  0  0  0  0  0  0  0
   10.6862  -17.7800   20.9129 C   0  0  1  0  0  0  0  0  0  0  0  0
   12.0824  -18.2702   21.1899 C   0  0  0  0  0  0  0  0  0  0  0  0
   12.4399  -19.5518   20.5119 C   0  0  0  0  0  0  0  0  0  0  0  0
   13.7480  -20.0913   20.9050 C   0  0  0  0  0  0  0  0  0  0  0  0
   14.6623  -20.4507   20.1214 O   0  0  0  0  0  0  0  0  0  0  0  0
   10.3612  -16.6601   21.8212 C   0  0  0  0  0  0  0  0  0  0  0  0
   10.9328  -15.5675   21.7196 O   0  0  0  0  0  0  0  0  0  0  0  0
   14.0215  -20.2255   22.2624 O   0  0  0  0  0  0  0  0  0  0  0  0
    5.7673  -11.1877   26.9760 O   0  0  0  0  0  0  0  0  0  0  0  0
    6.2190  -12.3058   26.2801 C   0  0  0  0  0  0  0  0  0  0  0  0
    5.8922  -13.5841   26.7116 C   0  0  0  0  0  0  0  0  0  0  0  0
    6.3227  -14.7180   26.0460 C   0  0  0  0  0  0  0  0  0  0  0  0
    7.0991  -14.6172   24.9197 C   0  0  0  0  0  0  0  0  0  0  0  0
    7.5755  -15.7920   24.1849 C   0  0  0  0  0  0  0  0  0  0  0  0
    8.9743  -15.6903   23.6782 C   0  0  2  0  0  0  0  0  0  0  0  0
    9.3736  -16.7884   22.8564 N   0  0  0  0  0  0  0  0  0  0  0  0
    9.8666  -15.5636   24.8875 C   0  0  0  0  0  0  0  0  0  0  0  0
   10.9074  -14.8603   24.8501 O   0  0  0  0  0  0  0  0  0  0  0  0
    7.4372  -13.3465   24.4716 C   0  0  0  0  0  0  0  0  0  0  0  0
    6.9994  -12.2103   25.1478 C   0  0  0  0  0  0  0  0  0  0  0  0
   10.7089  -13.8311   26.7930 C   0  0  0  0  0  0  0  0  0  0  0  0
   10.4992  -14.8390   27.9019 C   0  0  1  0  0  0  0  0  0  0  0  0
    9.1638  -14.5711   28.5625 C   0  0  0  0  0  0  0  0  0  0  0  0
   10.4294  -16.2013   27.2725 C   0  0  2  0  0  0  0  0  0  0  0  0
    9.5675  -16.2296   26.1078 N   0  0  0  0  0  0  0  0  0  0  0  0
   10.0648  -17.2660   28.2275 C   0  0  0  0  0  0  0  0  0  0  0  0
    8.9723  -17.8934   28.0388 O   0  0  0  0  0  0  0  0  0  0  0  0
   10.8121  -17.6366   29.3085 O   0  0  0  0  0  0  0  0  0  0  0  0
  2  7  1  0
  2  1  1  6
  3  2  1  0
  4  3  1  0
  4  5  1  0
  5  6  2  0
  7  8  2  0
  9  5  1  0
 10 11  1  0
 11 21  2  0
 11 12  1  0
 12 13  2  0
 13 14  1  0
 14 15  1  0
 16 15  1  1
 17 16  1  0
 17  7  1  0
 18 19  2  0
 18 16  1  0
 20 14  2  0
 21 20  1  0
 23 22  1  6
 23 25  1  0
 24 23  1  0
 25 27  1  0
 25 26  1  6
 26 18  1  0
 27 29  1  0
 28 27  2  0
M  END
$$$$
