EYV.pdb
     RDKit          3D

 29 29  0  0  1  0  0  0  0  0999 V2000
   11.6653  -16.7634   19.3882 N   0  0  0  0  0  0  0  0  0  0  0  0
   11.0376  -17.4003   20.5356 C   0  0  1  0  0  0  0  0  0  0  0  0
   12.0456  -18.3564   21.1154 C   0  0  0  0  0  0  0  0  0  0  0  0
   12.3795  -19.5185   20.2392 C   0  0  0  0  0  0  0  0  0  0  0  0
   13.2931  -20.4890   20.8558 C   0  0  0  0  0  0  0  0  0  0  0  0
   14.5205  -20.3168   21.0631 O   0  0  0  0  0  0  0  0  0  0  0  0
   10.6523  -16.4023   21.5555 C   0  0  0  0  0  0  0  0  0  0  0  0
   11.3640  -15.4171   21.7874 O   0  0  0  0  0  0  0  0  0  0  0  0
   12.7745  -21.7169   21.2543 O   0  0  0  0  0  0  0  0  0  0  0  0
    6.0024  -11.3294   27.0766 O   0  0  0  0  0  0  0  0  0  0  0  0
    6.4000  -12.2855   26.1458 C   0  0  0  0  0  0  0  0  0  0  0  0
    6.0356  -13.6159   26.3022 C   0  0  0  0  0  0  0  0  0  0  0  0
    6.4121  -14.5931   25.3981 C   0  0  0  0  0  0  0  0  0  0  0  0
    7.1699  -14.2769   24.2993 C   0  0  0  0  0  0  0  0  0  0  0  0
    7.5893  -15.2807   23.3178 C   0  0  0  0  0  0  0  0  0  0  0  0
    9.0515  -15.5736   23.3057 C   0  0  2  0  0  0  0  0  0  0  0  0
    9.4422  -16.5298   22.3190 N   0  0  0  0  0  0  0  0  0  0  0  0
    9.4118  -16.0450   24.6923 C   0  0  0  0  0  0  0  0  0  0  0  0
    9.3651  -17.2647   24.9912 O   0  0  0  0  0  0  0  0  0  0  0  0
    7.5448  -12.9508   24.1248 C   0  0  0  0  0  0  0  0  0  0  0  0
    7.1614  -11.9733   25.0399 C   0  0  0  0  0  0  0  0  0  0  0  0
    9.3434  -13.7623   28.2166 C   0  0  0  0  0  0  0  0  0  0  0  0
   10.6814  -14.3817   27.8764 C   0  0  1  0  0  0  0  0  0  0  0  0
   11.3047  -14.9293   29.1425 C   0  0  0  0  0  0  0  0  0  0  0  0
   10.4260  -15.5423   26.9573 C   0  0  2  0  0  0  0  0  0  0  0  0
    9.8154  -15.1350   25.7077 N   0  0  0  0  0  0  0  0  0  0  0  0
    9.6573  -16.6303   27.5928 C   0  0  0  0  0  0  0  0  0  0  0  0
    8.4201  -16.7366   27.3085 O   0  0  0  0  0  0  0  0  0  0  0  0
   10.1709  -17.5417   28.4703 O   0  0  0  0  0  0  0  0  0  0  0  0
  2  7  1  0
  2  1  1  6
  3  2  1  0
  4  3  1  0
  4  5  1  0
  5  6  2  0
  7  8  2  0
  9  5  1  0
 10 11  1  0
 11 21  2  0
 11 12  1  0
 12 13  2  0
 13 14  1  0
 14 15  1  0
 16 15  1  1
 17 16  1  0
 17  7  1  0
 18 19  2  0
 18 16  1  0
 20 14  2  0
 21 20  1  0
 23 22  1  1
 23 25  1  0
 24 23  1  0
 25 27  1  0
 25 26  1  6
 26 18  1  0
 27 29  1  0
 28 27  2  0
M  END
$$$$
