EYV.pdb
     RDKit          3D

 29 29  0  0  1  0  0  0  0  0999 V2000
   10.7524  -18.6365   20.7808 N   0  0  0  0  0  0  0  0  0  0  0  0
   11.7878  -17.7885   21.3507 C   0  0  1  0  0  0  0  0  0  0  0  0
   12.4756  -17.0999   20.2022 C   0  0  0  0  0  0  0  0  0  0  0  0
   12.9299  -18.0112   19.1099 C   0  0  0  0  0  0  0  0  0  0  0  0
   13.5802  -17.3218   17.9880 C   0  0  0  0  0  0  0  0  0  0  0  0
   14.7056  -16.7636   18.0189 O   0  0  0  0  0  0  0  0  0  0  0  0
   11.2093  -16.7796   22.2630 C   0  0  0  0  0  0  0  0  0  0  0  0
   11.9083  -15.8831   22.7513 O   0  0  0  0  0  0  0  0  0  0  0  0
   12.9076  -17.2697   16.7712 O   0  0  0  0  0  0  0  0  0  0  0  0
    5.6230  -11.6291   26.7666 O   0  0  0  0  0  0  0  0  0  0  0  0
    6.1647  -12.6011   25.9299 C   0  0  0  0  0  0  0  0  0  0  0  0
    5.8796  -13.9445   26.1329 C   0  0  0  0  0  0  0  0  0  0  0  0
    6.3995  -14.9378   25.3222 C   0  0  0  0  0  0  0  0  0  0  0  0
    7.2272  -14.6253   24.2740 C   0  0  0  0  0  0  0  0  0  0  0  0
    7.7983  -15.6459   23.3914 C   0  0  0  0  0  0  0  0  0  0  0  0
    9.2597  -15.8830   23.5698 C   0  0  2  0  0  0  0  0  0  0  0  0
    9.8184  -16.7940   22.6220 N   0  0  0  0  0  0  0  0  0  0  0  0
    9.4501  -16.3816   24.9805 C   0  0  0  0  0  0  0  0  0  0  0  0
    9.4083  -17.6103   25.2414 O   0  0  0  0  0  0  0  0  0  0  0  0
    7.5247  -13.2863   24.0541 C   0  0  0  0  0  0  0  0  0  0  0  0
    6.9970  -12.2927   24.8752 C   0  0  0  0  0  0  0  0  0  0  0  0
   11.1500  -13.7361   27.6341 C   0  0  0  0  0  0  0  0  0  0  0  0
   10.2795  -14.7608   28.3281 C   0  0  1  0  0  0  0  0  0  0  0  0
    8.9163  -14.1543   28.5837 C   0  0  0  0  0  0  0  0  0  0  0  0
   10.0934  -15.9150   27.3846 C   0  0  2  0  0  0  0  0  0  0  0  0
    9.6825  -15.4882   26.0621 N   0  0  0  0  0  0  0  0  0  0  0  0
    9.1894  -16.9567   27.9100 C   0  0  0  0  0  0  0  0  0  0  0  0
    8.0252  -17.0532   27.4019 O   0  0  0  0  0  0  0  0  0  0  0  0
    9.5037  -17.8347   28.9074 O   0  0  0  0  0  0  0  0  0  0  0  0
  2  7  1  0
  2  1  1  6
  3  2  1  0
  4  3  1  0
  4  5  1  0
  5  6  2  0
  7  8  2  0
  9  5  1  0
 10 11  1  0
 11 21  2  0
 11 12  1  0
 12 13  2  0
 13 14  1  0
 14 15  1  0
 16 15  1  6
 17 16  1  0
 17  7  1  0
 18 19  2  0
 18 16  1  0
 20 14  2  0
 21 20  1  0
 23 22  1  6
 23 25  1  0
 24 23  1  0
 25 27  1  0
 25 26  1  6
 26 18  1  0
 27 29  1  0
 28 27  2  0
M  END
$$$$
