PCH.pdb
     RDKit          3D

 24 25  0  0  1  0  0  0  0  0999 V2000
    8.9472  -19.5046   18.8674 N   0  0  0  0  0  0  0  0  0  0  0  0
    8.0671  -18.7279   18.0484 C   0  0  0  0  0  0  0  0  0  0  0  0
    8.8397  -18.2567   16.8563 C   0  0  0  0  0  0  0  0  0  0  0  0
   10.2254  -18.8021   17.0067 C   0  0  0  0  0  0  0  0  0  0  0  0
   10.2895  -19.2738   18.4182 C   0  0  1  0  0  0  0  0  0  0  0  0
   10.9019  -18.2625   19.3396 C   0  0  0  0  0  0  0  0  0  0  0  0
   12.0294  -17.7420   19.1098 O   0  0  0  0  0  0  0  0  0  0  0  0
   10.2383  -17.8384   20.5238 N   0  0  0  0  0  0  0  0  0  0  0  0
   10.8177  -16.9444   21.4955 C   0  0  1  0  0  0  0  0  0  0  0  0
    9.6717  -16.3723   22.3218 C   0  0  0  0  0  0  0  0  0  0  0  0
   10.2717  -15.3738   23.6975 S   0  0  0  0  0  0  0  0  0  0  0  0
   11.8029  -17.6456   22.3502 C   0  0  0  0  0  0  0  0  0  0  0  0
   11.4432  -18.7013   22.9307 O   0  0  0  0  0  0  0  0  0  0  0  0
   13.1221  -17.2009   22.5529 N   0  0  0  0  0  0  0  0  0  0  0  0
   14.0581  -17.8740   23.4368 C   0  0  1  0  0  0  0  0  0  0  0  0
   15.2158  -18.3172   22.5712 C   0  0  0  0  0  0  0  0  0  0  0  0
   14.8991  -19.4365   21.6790 C   0  0  0  0  0  0  0  0  0  0  0  0
   14.1714  -20.5539   22.0010 C   0  0  0  0  0  0  0  0  0  0  0  0
   14.1042  -21.3405   20.9231 N   0  0  0  0  0  0  0  0  0  0  0  0
   14.7790  -20.7316   19.9315 C   0  0  0  0  0  0  0  0  0  0  0  0
   15.2628  -19.5711   20.3945 N   0  0  0  0  0  0  0  0  0  0  0  0
   14.4723  -17.0255   24.5573 C   0  0  0  0  0  0  0  0  0  0  0  0
   15.1036  -17.5007   25.6995 O   0  0  0  0  0  0  0  0  0  0  0  0
   14.2529  -15.7961   24.5012 O   0  0  0  0  0  0  0  0  0  0  0  0
  1  5  1  0
  1  2  1  0
  2  3  1  0
  4  3  1  0
  5  4  1  0
  6  8  1  0
  5  6  1  1
  7  6  2  0
  9  8  1  0
  9 12  1  0
  9 10  1  1
 11 10  1  0
 12 14  1  0
 13 12  2  0
 14 15  1  0
 15 16  1  6
 15 22  1  0
 17 16  1  0
 18 17  2  0
 19 20  1  0
 19 18  1  0
 20 21  2  0
 21 17  1  0
 22 23  1  0
 24 22  2  0
M  END
$$$$
