PCH.pdb
     RDKit          3D

 24 25  0  0  1  0  0  0  0  0999 V2000
    6.8634  -14.6653   20.4886 N   0  0  0  0  0  0  0  0  0  0  0  0
    6.3232  -13.3870   20.1381 C   0  0  0  0  0  0  0  0  0  0  0  0
    7.4323  -12.5547   19.5747 C   0  0  0  0  0  0  0  0  0  0  0  0
    8.6601  -13.4103   19.6017 C   0  0  0  0  0  0  0  0  0  0  0  0
    8.2937  -14.5611   20.4738 C   0  0  1  0  0  0  0  0  0  0  0  0
    8.7438  -14.3795   21.8919 C   0  0  0  0  0  0  0  0  0  0  0  0
    9.9526  -14.1669   22.1898 O   0  0  0  0  0  0  0  0  0  0  0  0
    7.8254  -14.4383   22.9762 N   0  0  0  0  0  0  0  0  0  0  0  0
    8.2040  -14.3010   24.3607 C   0  0  1  0  0  0  0  0  0  0  0  0
    7.0737  -13.5608   25.0662 C   0  0  0  0  0  0  0  0  0  0  0  0
    7.4895  -13.1790   26.7782 S   0  0  0  0  0  0  0  0  0  0  0  0
    8.4563  -15.6213   24.9820 C   0  0  0  0  0  0  0  0  0  0  0  0
    7.4794  -16.3932   25.1579 O   0  0  0  0  0  0  0  0  0  0  0  0
    9.7272  -16.0664   25.3891 N   0  0  0  0  0  0  0  0  0  0  0  0
    9.9556  -17.3696   25.9891 C   0  0  1  0  0  0  0  0  0  0  0  0
   11.2210  -17.9097   25.3622 C   0  0  0  0  0  0  0  0  0  0  0  0
   11.1461  -18.0649   23.9064 C   0  0  0  0  0  0  0  0  0  0  0  0
   10.0700  -17.7660   23.1098 C   0  0  0  0  0  0  0  0  0  0  0  0
   10.3902  -18.0459   21.8432 N   0  0  0  0  0  0  0  0  0  0  0  0
   11.6507  -18.5154   21.8357 C   0  0  0  0  0  0  0  0  0  0  0  0
   12.1095  -18.5262   23.0944 N   0  0  0  0  0  0  0  0  0  0  0  0
   10.0234  -17.3037   27.4513 C   0  0  0  0  0  0  0  0  0  0  0  0
    9.9273  -16.1259   28.1811 O   0  0  0  0  0  0  0  0  0  0  0  0
   10.1768  -18.3611   28.1001 O   0  0  0  0  0  0  0  0  0  0  0  0
  1  5  1  0
  1  2  1  0
  2  3  1  0
  4  3  1  0
  5  4  1  0
  6  8  1  0
  5  6  1  1
  7  6  2  0
  9  8  1  0
  9 12  1  0
  9 10  1  1
 11 10  1  0
 12 14  1  0
 13 12  2  0
 14 15  1  0
 15 16  1  6
 15 22  1  0
 17 16  1  0
 18 17  2  0
 19 20  1  0
 19 18  1  0
 20 21  2  0
 21 17  1  0
 22 23  1  0
 24 22  2  0
M  END
$$$$
