PCH.pdb
     RDKit          3D

 24 25  0  0  1  0  0  0  0  0999 V2000
    8.1553  -14.5274   18.2120 N   0  0  0  0  0  0  0  0  0  0  0  0
    6.9649  -13.7526   18.3886 C   0  0  0  0  0  0  0  0  0  0  0  0
    7.3703  -12.3445   18.6937 C   0  0  0  0  0  0  0  0  0  0  0  0
    8.8668  -12.3221   18.6811 C   0  0  0  0  0  0  0  0  0  0  0  0
    9.2616  -13.7583   18.7034 C   0  0  1  0  0  0  0  0  0  0  0  0
    9.5717  -14.2523   20.0841 C   0  0  0  0  0  0  0  0  0  0  0  0
   10.3781  -13.6495   20.8467 O   0  0  0  0  0  0  0  0  0  0  0  0
    8.9690  -15.4308   20.6044 N   0  0  0  0  0  0  0  0  0  0  0  0
    9.3519  -16.0489   21.8496 C   0  0  1  0  0  0  0  0  0  0  0  0
    8.3874  -17.2033   22.0955 C   0  0  0  0  0  0  0  0  0  0  0  0
    6.6678  -16.6721   21.9937 S   0  0  0  0  0  0  0  0  0  0  0  0
   10.7561  -16.5173   21.8071 C   0  0  0  0  0  0  0  0  0  0  0  0
   11.3102  -16.6377   20.6849 O   0  0  0  0  0  0  0  0  0  0  0  0
   11.5109  -16.8369   22.9504 N   0  0  0  0  0  0  0  0  0  0  0  0
   12.9625  -16.8945   22.9508 C   0  0  1  0  0  0  0  0  0  0  0  0
   13.4410  -15.5484   22.4560 C   0  0  0  0  0  0  0  0  0  0  0  0
   13.6975  -15.5001   21.0134 C   0  0  0  0  0  0  0  0  0  0  0  0
   13.4371  -16.4955   20.1061 C   0  0  0  0  0  0  0  0  0  0  0  0
   13.8115  -16.0731   18.8951 N   0  0  0  0  0  0  0  0  0  0  0  0
   14.3024  -14.8282   19.0314 C   0  0  0  0  0  0  0  0  0  0  0  0
   14.2320  -14.4809   20.3235 N   0  0  0  0  0  0  0  0  0  0  0  0
   13.5041  -17.2472   24.2659 C   0  0  0  0  0  0  0  0  0  0  0  0
   14.7666  -17.7902   24.4659 O   0  0  0  0  0  0  0  0  0  0  0  0
   12.8025  -17.0553   25.2826 O   0  0  0  0  0  0  0  0  0  0  0  0
  1  5  1  0
  1  2  1  0
  2  3  1  0
  4  3  1  0
  5  4  1  0
  6  8  1  0
  5  6  1  1
  7  6  2  0
  9  8  1  0
  9 12  1  0
  9 10  1  6
 11 10  1  0
 12 14  1  0
 13 12  2  0
 14 15  1  0
 15 16  1  1
 15 22  1  0
 17 16  1  0
 18 17  2  0
 19 20  1  0
 19 18  1  0
 20 21  2  0
 21 17  1  0
 22 23  1  0
 24 22  2  0
M  END
$$$$
