PCH.pdb
     RDKit          3D

 24 25  0  0  1  0  0  0  0  0999 V2000
    7.7845  -14.9325   18.4042 N   0  0  0  0  0  0  0  0  0  0  0  0
    6.8548  -13.8448   18.3705 C   0  0  0  0  0  0  0  0  0  0  0  0
    7.5714  -12.6395   17.8473 C   0  0  0  0  0  0  0  0  0  0  0  0
    8.9762  -13.0714   17.5639 C   0  0  0  0  0  0  0  0  0  0  0  0
    9.1032  -14.3935   18.2385 C   0  0  1  0  0  0  0  0  0  0  0  0
    9.7194  -14.2918   19.6010 C   0  0  0  0  0  0  0  0  0  0  0  0
   10.9195  -13.9361   19.7694 O   0  0  0  0  0  0  0  0  0  0  0  0
    8.9774  -14.5928   20.7764 N   0  0  0  0  0  0  0  0  0  0  0  0
    9.5270  -14.5502   22.1088 C   0  0  1  0  0  0  0  0  0  0  0  0
    8.3537  -14.4678   23.0783 C   0  0  0  0  0  0  0  0  0  0  0  0
    7.4271  -16.0128   23.1406 S   0  0  0  0  0  0  0  0  0  0  0  0
   10.3702  -15.7369   22.3801 C   0  0  0  0  0  0  0  0  0  0  0  0
   10.0045  -16.8463   21.9151 O   0  0  0  0  0  0  0  0  0  0  0  0
   11.5603  -15.6984   23.1294 N   0  0  0  0  0  0  0  0  0  0  0  0
   12.3977  -16.8654   23.3467 C   0  0  1  0  0  0  0  0  0  0  0  0
   13.8126  -16.4379   23.0288 C   0  0  0  0  0  0  0  0  0  0  0  0
   13.9852  -15.9088   21.6726 C   0  0  0  0  0  0  0  0  0  0  0  0
   13.5117  -16.4692   20.5134 C   0  0  0  0  0  0  0  0  0  0  0  0
   13.8753  -15.6928   19.4885 N   0  0  0  0  0  0  0  0  0  0  0  0
   14.5692  -14.6551   19.9895 C   0  0  0  0  0  0  0  0  0  0  0  0
   14.6350  -14.7887   21.3209 N   0  0  0  0  0  0  0  0  0  0  0  0
   12.2535  -17.4083   24.7001 C   0  0  0  0  0  0  0  0  0  0  0  0
   11.4007  -16.8817   25.6615 O   0  0  0  0  0  0  0  0  0  0  0  0
   12.9307  -18.4062   25.0292 O   0  0  0  0  0  0  0  0  0  0  0  0
  1  5  1  0
  1  2  1  0
  2  3  1  0
  4  3  1  0
  5  4  1  0
  6  8  1  0
  5  6  1  1
  7  6  2  0
  9  8  1  0
  9 12  1  0
  9 10  1  1
 11 10  1  0
 12 14  1  0
 13 12  2  0
 14 15  1  0
 15 16  1  1
 15 22  1  0
 17 16  1  0
 18 17  2  0
 19 20  1  0
 19 18  1  0
 20 21  2  0
 21 17  1  0
 22 23  1  0
 24 22  2  0
M  END
$$$$
