PCH.pdb
     RDKit          3D

 24 25  0  0  1  0  0  0  0  0999 V2000
    7.0943  -15.2107   19.8232 N   0  0  0  0  0  0  0  0  0  0  0  0
    6.4878  -13.9237   19.6667 C   0  0  0  0  0  0  0  0  0  0  0  0
    7.5164  -12.9926   19.1054 C   0  0  0  0  0  0  0  0  0  0  0  0
    8.7657  -13.7978   18.9289 C   0  0  0  0  0  0  0  0  0  0  0  0
    8.5137  -15.0501   19.6952 C   0  0  1  0  0  0  0  0  0  0  0  0
    9.0857  -15.0069   21.0799 C   0  0  0  0  0  0  0  0  0  0  0  0
   10.3147  -14.8073   21.2919 O   0  0  0  0  0  0  0  0  0  0  0  0
    8.2668  -15.1898   22.2282 N   0  0  0  0  0  0  0  0  0  0  0  0
    8.7635  -15.1784   23.5818 C   0  0  1  0  0  0  0  0  0  0  0  0
    7.6150  -14.7339   24.4800 C   0  0  0  0  0  0  0  0  0  0  0  0
    7.3437  -12.9541   24.3883 S   0  0  0  0  0  0  0  0  0  0  0  0
    9.2748  -16.5107   23.9775 C   0  0  0  0  0  0  0  0  0  0  0  0
    8.4781  -17.4832   23.9618 O   0  0  0  0  0  0  0  0  0  0  0  0
   10.6030  -16.7554   24.3715 N   0  0  0  0  0  0  0  0  0  0  0  0
   11.0803  -18.0662   24.7768 C   0  0  1  0  0  0  0  0  0  0  0  0
   12.4948  -18.1828   24.2557 C   0  0  0  0  0  0  0  0  0  0  0  0
   12.5953  -18.1599   22.7933 C   0  0  0  0  0  0  0  0  0  0  0  0
   11.7494  -18.7799   21.9091 C   0  0  0  0  0  0  0  0  0  0  0  0
   12.1739  -18.5258   20.6679 N   0  0  0  0  0  0  0  0  0  0  0  0
   13.2728  -17.7559   20.7628 C   0  0  0  0  0  0  0  0  0  0  0  0
   13.5279  -17.5341   22.0592 N   0  0  0  0  0  0  0  0  0  0  0  0
   10.9846  -18.2689   26.2249 C   0  0  0  0  0  0  0  0  0  0  0  0
   10.4891  -17.3211   27.1109 O   0  0  0  0  0  0  0  0  0  0  0  0
   11.3671  -19.3547   26.7124 O   0  0  0  0  0  0  0  0  0  0  0  0
  1  5  1  0
  1  2  1  0
  2  3  1  0
  4  3  1  0
  5  4  1  0
  6  8  1  0
  5  6  1  1
  7  6  2  0
  9  8  1  0
  9 12  1  0
  9 10  1  1
 11 10  1  0
 12 14  1  0
 13 12  2  0
 14 15  1  0
 15 16  1  1
 15 22  1  0
 17 16  1  0
 18 17  2  0
 19 20  1  0
 19 18  1  0
 20 21  2  0
 21 17  1  0
 22 23  1  0
 24 22  2  0
M  END
$$$$
