PCH.pdb
     RDKit          3D

 24 25  0  0  1  0  0  0  0  0999 V2000
    6.8607  -15.1075   21.2762 N   0  0  0  0  0  0  0  0  0  0  0  0
    6.3237  -13.9519   20.6244 C   0  0  0  0  0  0  0  0  0  0  0  0
    7.4468  -13.2503   19.9269 C   0  0  0  0  0  0  0  0  0  0  0  0
    8.6799  -14.0560   20.1925 C   0  0  0  0  0  0  0  0  0  0  0  0
    8.2895  -14.9847   21.2899 C   0  0  1  0  0  0  0  0  0  0  0  0
    8.6820  -14.4778   22.6447 C   0  0  0  0  0  0  0  0  0  0  0  0
    9.8739  -14.1691   22.9258 O   0  0  0  0  0  0  0  0  0  0  0  0
    7.7249  -14.3195   23.6847 N   0  0  0  0  0  0  0  0  0  0  0  0
    8.0351  -13.7957   24.9918 C   0  0  1  0  0  0  0  0  0  0  0  0
    6.7618  -13.1591   25.5366 C   0  0  0  0  0  0  0  0  0  0  0  0
    7.0004  -12.5000   27.1973 S   0  0  0  0  0  0  0  0  0  0  0  0
    8.5354  -14.8598   25.8920 C   0  0  0  0  0  0  0  0  0  0  0  0
    7.7637  -15.8109   26.1764 O   0  0  0  0  0  0  0  0  0  0  0  0
    9.8266  -14.8715   26.4504 N   0  0  0  0  0  0  0  0  0  0  0  0
   10.2476  -15.8354   27.4525 C   0  0  1  0  0  0  0  0  0  0  0  0
   11.6507  -16.2540   27.0759 C   0  0  0  0  0  0  0  0  0  0  0  0
   11.7218  -17.0853   25.8705 C   0  0  0  0  0  0  0  0  0  0  0  0
   10.6672  -17.4639   25.0790 C   0  0  0  0  0  0  0  0  0  0  0  0
   11.1366  -18.2172   24.0803 N   0  0  0  0  0  0  0  0  0  0  0  0
   12.4691  -18.3154   24.2354 C   0  0  0  0  0  0  0  0  0  0  0  0
   12.8237  -17.6247   25.3272 N   0  0  0  0  0  0  0  0  0  0  0  0
   10.1553  -15.2986   28.8128 C   0  0  0  0  0  0  0  0  0  0  0  0
   10.3782  -16.0483   29.9605 O   0  0  0  0  0  0  0  0  0  0  0  0
    9.8591  -14.0945   28.9714 O   0  0  0  0  0  0  0  0  0  0  0  0
  1  5  1  0
  1  2  1  0
  2  3  1  0
  4  3  1  0
  5  4  1  0
  6  8  1  0
  5  6  1  1
  7  6  2  0
  9  8  1  0
  9 12  1  0
  9 10  1  1
 11 10  1  0
 12 14  1  0
 13 12  2  0
 14 15  1  0
 15 16  1  6
 15 22  1  0
 17 16  1  0
 18 17  2  0
 19 20  1  0
 19 18  1  0
 20 21  2  0
 21 17  1  0
 22 23  1  0
 24 22  2  0
M  END
$$$$
