PCH.pdb
     RDKit          3D

 24 25  0  0  1  0  0  0  0  0999 V2000
    7.7203  -15.7255   21.2393 N   0  0  0  0  0  0  0  0  0  0  0  0
    6.3443  -15.3428   21.3343 C   0  0  0  0  0  0  0  0  0  0  0  0
    6.2523  -13.8745   21.0592 C   0  0  0  0  0  0  0  0  0  0  0  0
    7.6477  -13.4059   20.7874 C   0  0  0  0  0  0  0  0  0  0  0  0
    8.5135  -14.5307   21.2395 C   0  0  1  0  0  0  0  0  0  0  0  0
    9.0324  -14.3384   22.6325 C   0  0  0  0  0  0  0  0  0  0  0  0
    9.3676  -13.2030   23.0725 O   0  0  0  0  0  0  0  0  0  0  0  0
    9.1728  -15.4322   23.5307 N   0  0  0  0  0  0  0  0  0  0  0  0
    9.5202  -15.2915   24.9230 C   0  0  1  0  0  0  0  0  0  0  0  0
    8.4679  -14.3927   25.5619 C   0  0  0  0  0  0  0  0  0  0  0  0
    8.8128  -14.0933   27.3057 S   0  0  0  0  0  0  0  0  0  0  0  0
    9.5864  -16.6091   25.5958 C   0  0  0  0  0  0  0  0  0  0  0  0
    8.5070  -17.1752   25.9044 O   0  0  0  0  0  0  0  0  0  0  0  0
   10.7882  -17.2686   25.9119 N   0  0  0  0  0  0  0  0  0  0  0  0
   10.8322  -18.5621   26.5717 C   0  0  1  0  0  0  0  0  0  0  0  0
   11.9487  -19.3381   25.9105 C   0  0  0  0  0  0  0  0  0  0  0  0
   11.8706  -19.3652   24.4469 C   0  0  0  0  0  0  0  0  0  0  0  0
   10.7976  -19.7733   23.6959 C   0  0  0  0  0  0  0  0  0  0  0  0
   11.1145  -19.6520   22.4036 N   0  0  0  0  0  0  0  0  0  0  0  0
   12.3701  -19.1741   22.3351 C   0  0  0  0  0  0  0  0  0  0  0  0
   12.8290  -19.0000   23.5817 N   0  0  0  0  0  0  0  0  0  0  0  0
   10.9999  -18.4403   28.0222 C   0  0  0  0  0  0  0  0  0  0  0  0
   11.0772  -17.2284   28.6962 O   0  0  0  0  0  0  0  0  0  0  0  0
   11.0802  -19.4789   28.7133 O   0  0  0  0  0  0  0  0  0  0  0  0
  1  5  1  0
  1  2  1  0
  2  3  1  0
  4  3  1  0
  5  4  1  0
  6  8  1  0
  5  6  1  1
  7  6  2  0
  9  8  1  0
  9 12  1  0
  9 10  1  1
 11 10  1  0
 12 14  1  0
 13 12  2  0
 14 15  1  0
 15 16  1  6
 15 22  1  0
 17 16  1  0
 18 17  2  0
 19 20  1  0
 19 18  1  0
 20 21  2  0
 21 17  1  0
 22 23  1  0
 24 22  2  0
M  END
$$$$
