PCH.pdb
     RDKit          3D

 24 25  0  0  1  0  0  0  0  0999 V2000
    6.9186  -14.7779   20.8488 N   0  0  0  0  0  0  0  0  0  0  0  0
    6.3294  -13.5504   20.4075 C   0  0  0  0  0  0  0  0  0  0  0  0
    7.4051  -12.7200   19.7803 C   0  0  0  0  0  0  0  0  0  0  0  0
    8.6649  -13.5238   19.8652 C   0  0  0  0  0  0  0  0  0  0  0  0
    8.3439  -14.6206   20.8207 C   0  0  1  0  0  0  0  0  0  0  0  0
    8.7883  -14.3183   22.2199 C   0  0  0  0  0  0  0  0  0  0  0  0
    9.9954  -14.0784   22.5030 O   0  0  0  0  0  0  0  0  0  0  0  0
    7.8659  -14.2872   23.3020 N   0  0  0  0  0  0  0  0  0  0  0  0
    8.2410  -14.0466   24.6733 C   0  0  1  0  0  0  0  0  0  0  0  0
    7.0730  -13.3306   25.3415 C   0  0  0  0  0  0  0  0  0  0  0  0
    7.4696  -12.8322   27.0279 S   0  0  0  0  0  0  0  0  0  0  0  0
    8.5698  -15.3113   25.3700 C   0  0  0  0  0  0  0  0  0  0  0  0
    7.6456  -16.1409   25.5662 O   0  0  0  0  0  0  0  0  0  0  0  0
    9.8583  -15.6423   25.8275 N   0  0  0  0  0  0  0  0  0  0  0  0
   10.1498  -16.8628   26.5596 C   0  0  1  0  0  0  0  0  0  0  0  0
   11.5460  -17.2778   26.1544 C   0  0  0  0  0  0  0  0  0  0  0  0
   11.6649  -17.6780   24.7491 C   0  0  0  0  0  0  0  0  0  0  0  0
   10.6441  -17.7598   23.8364 C   0  0  0  0  0  0  0  0  0  0  0  0
   11.1522  -18.1611   22.6676 N   0  0  0  0  0  0  0  0  0  0  0  0
   12.4759  -18.3315   22.8358 C   0  0  0  0  0  0  0  0  0  0  0  0
   12.7863  -18.0365   24.1053 N   0  0  0  0  0  0  0  0  0  0  0  0
   10.0003  -16.6914   28.0071 C   0  0  0  0  0  0  0  0  0  0  0  0
    9.6639  -15.4895   28.6164 O   0  0  0  0  0  0  0  0  0  0  0  0
   10.1824  -17.6751   28.7568 O   0  0  0  0  0  0  0  0  0  0  0  0
  1  5  1  0
  1  2  1  0
  2  3  1  0
  4  3  1  0
  5  4  1  0
  6  8  1  0
  5  6  1  1
  7  6  2  0
  9  8  1  0
  9 12  1  0
  9 10  1  1
 11 10  1  0
 12 14  1  0
 13 12  2  0
 14 15  1  0
 15 16  1  1
 15 22  1  0
 17 16  1  0
 18 17  2  0
 19 20  1  0
 19 18  1  0
 20 21  2  0
 21 17  1  0
 22 23  1  0
 24 22  2  0
M  END
$$$$
