PCH.pdb
     RDKit          3D

 24 25  0  0  1  0  0  0  0  0999 V2000
    7.5823  -17.5718   19.2472 N   0  0  0  0  0  0  0  0  0  0  0  0
    6.8318  -16.5616   18.5654 C   0  0  0  0  0  0  0  0  0  0  0  0
    7.7393  -15.8991   17.5766 C   0  0  0  0  0  0  0  0  0  0  0  0
    9.0685  -16.5757   17.7016 C   0  0  0  0  0  0  0  0  0  0  0  0
    8.9722  -17.3564   18.9667 C   0  0  1  0  0  0  0  0  0  0  0  0
    9.5584  -16.6317   20.1405 C   0  0  0  0  0  0  0  0  0  0  0  0
   10.7157  -16.1271   20.1074 O   0  0  0  0  0  0  0  0  0  0  0  0
    8.8347  -16.4768   21.3550 N   0  0  0  0  0  0  0  0  0  0  0  0
    9.4298  -16.0555   22.5990 C   0  0  1  0  0  0  0  0  0  0  0  0
    8.3441  -15.3481   23.4017 C   0  0  0  0  0  0  0  0  0  0  0  0
    6.8746  -16.3751   23.5902 S   0  0  0  0  0  0  0  0  0  0  0  0
    9.9893  -17.2068   23.3437 C   0  0  0  0  0  0  0  0  0  0  0  0
    9.3407  -18.2838   23.3504 O   0  0  0  0  0  0  0  0  0  0  0  0
   11.2072  -17.1685   24.0469 N   0  0  0  0  0  0  0  0  0  0  0  0
   11.7243  -18.2996   24.7977 C   0  0  1  0  0  0  0  0  0  0  0  0
   13.1373  -18.5235   24.3088 C   0  0  0  0  0  0  0  0  0  0  0  0
   13.2267  -18.8961   22.8938 C   0  0  0  0  0  0  0  0  0  0  0  0
   12.3686  -19.7222   22.2134 C   0  0  0  0  0  0  0  0  0  0  0  0
   12.7857  -19.8159   20.9475 N   0  0  0  0  0  0  0  0  0  0  0  0
   13.8921  -19.0606   20.8260 C   0  0  0  0  0  0  0  0  0  0  0  0
   14.1592  -18.5008   22.0136 N   0  0  0  0  0  0  0  0  0  0  0  0
   11.6456  -18.0879   26.2455 C   0  0  0  0  0  0  0  0  0  0  0  0
   11.1433  -16.9354   26.8359 O   0  0  0  0  0  0  0  0  0  0  0  0
   12.0502  -18.9876   27.0134 O   0  0  0  0  0  0  0  0  0  0  0  0
  1  5  1  0
  1  2  1  0
  2  3  1  0
  4  3  1  0
  5  4  1  0
  6  8  1  0
  5  6  1  1
  7  6  2  0
  9  8  1  0
  9 12  1  0
  9 10  1  1
 11 10  1  0
 12 14  1  0
 13 12  2  0
 14 15  1  0
 15 16  1  6
 15 22  1  0
 17 16  1  0
 18 17  2  0
 19 20  1  0
 19 18  1  0
 20 21  2  0
 21 17  1  0
 22 23  1  0
 24 22  2  0
M  END
$$$$
