RVE.pdb
     RDKit          3D

 28 27  0  0  1  0  0  0  0  0999 V2000
   27.8291  -17.5315  -19.1119 N   0  0  0  0  0  0  0  0  0  0  0  0
   29.1271  -18.1039  -19.1021 C   0  0  0  0  0  0  0  0  0  0  0  0
   30.0673  -17.5326  -19.7763 N   0  0  0  0  0  0  0  0  0  0  0  0
   29.3864  -19.3036  -18.3510 N   0  0  0  0  0  0  0  0  0  0  0  0
   28.9936  -19.3829  -16.9662 C   0  0  0  0  0  0  0  0  0  0  0  0
   27.8437  -18.4563  -16.6564 C   0  0  0  0  0  0  0  0  0  0  0  0
   26.7613  -19.1239  -15.8453 C   0  0  0  0  0  0  0  0  0  0  0  0
   27.3366  -20.1472  -14.8808 C   0  0  2  0  0  0  0  0  0  0  0  0
   27.9007  -21.1959  -15.7249 N   0  0  0  0  0  0  0  0  0  0  0  0
   26.2737  -20.7699  -14.0591 C   0  0  0  0  0  0  0  0  0  0  0  0
   25.5196  -21.6351  -14.5574 O   0  0  0  0  0  0  0  0  0  0  0  0
   31.0369  -17.8915  -19.8517 C   0  0  0  0  0  0  0  0  0  0  0  0
   25.2372  -19.6305   -9.8239 C   0  0  1  0  0  0  0  0  0  0  0  0
   25.3673  -21.0047  -10.4414 C   0  0  0  0  0  0  0  0  0  0  0  0
   26.7346  -21.5610  -10.1618 C   0  0  1  0  0  0  0  0  0  0  0  0
   24.9963  -20.9939  -11.8959 N   0  0  0  0  0  0  0  0  0  0  0  0
   26.0670  -20.4146  -12.6829 C   0  0  0  0  0  0  0  0  0  0  0  0
   23.6892  -20.3739  -12.1795 O   0  0  0  0  0  0  0  0  0  0  0  0
   23.5968  -19.1210  -12.2213 N   0  0  0  0  0  0  0  0  0  0  0  0
   22.4973  -21.0913  -12.4162 C   0  0  1  0  0  0  0  0  0  0  0  0
   21.2499  -20.3998  -12.6968 C   0  0  0  0  0  0  0  0  0  0  0  0
   20.8606  -20.4020  -14.1048 C   0  0  0  0  0  0  0  0  0  0  0  0
   20.2923  -21.7091  -14.5586 C   0  0  0  0  0  0  0  0  0  0  0  0
   19.9314  -21.8082  -15.9656 O   0  0  0  0  0  0  0  0  0  0  0  0
   19.4864  -22.8891  -16.4186 C   0  0  0  0  0  0  0  0  0  0  0  0
   20.1737  -20.8857  -11.8001 O   0  0  0  0  0  0  0  0  0  0  0  0
   20.3058  -21.9348  -11.1407 O   0  0  0  0  0  0  0  0  0  0  0  0
   20.0714  -20.7365  -16.8139 O   0  0  0  0  0  0  0  0  0  0  0  0
  2  1  1  0
  3  2  2  0
  4  2  1  0
  5  4  1  0
  6  7  1  0
  6  5  1  0
  7  8  1  0
  8 10  1  0
  8  9  1  6
 10 11  2  0
 13 14  1  1
 13 12  1  0
 15 13  1  0
 15 16  1  1
 16 10  1  0
 17 15  1  0
 18 17  2  0
 19 17  1  0
 20 19  1  0
 20 21  1  1
 21 22  1  0
 23 22  1  0
 23 27  1  0
 24 23  2  0
 25 20  1  0
 25 28  1  0
 26 25  2  0
M  END
$$$$
