RVE.pdb
     RDKit          3D

 28 27  0  0  1  0  0  0  0  0999 V2000
   26.3157  -20.4482   -9.3124 N   0  0  0  0  0  0  0  0  0  0  0  0
   25.4772  -20.4160  -10.4561 C   0  0  0  0  0  0  0  0  0  0  0  0
   24.2664  -20.8506  -10.3561 N   0  0  0  0  0  0  0  0  0  0  0  0
   25.9738  -19.9062  -11.7069 N   0  0  0  0  0  0  0  0  0  0  0  0
   27.3057  -20.2447  -12.1423 C   0  0  0  0  0  0  0  0  0  0  0  0
   27.7367  -19.4123  -13.3248 C   0  0  0  0  0  0  0  0  0  0  0  0
   26.7291  -19.4311  -14.4472 C   0  0  0  0  0  0  0  0  0  0  0  0
   26.3848  -20.8506  -14.8650 C   0  0  2  0  0  0  0  0  0  0  0  0
   27.5253  -21.3061  -15.6539 N   0  0  0  0  0  0  0  0  0  0  0  0
   25.1992  -20.8784  -15.7518 C   0  0  0  0  0  0  0  0  0  0  0  0
   25.2897  -20.4816  -16.9349 O   0  0  0  0  0  0  0  0  0  0  0  0
   23.6224  -20.9838  -11.1574 C   0  0  0  0  0  0  0  0  0  0  0  0
   21.8850  -23.5088  -15.2146 C   0  0  1  0  0  0  0  0  0  0  0  0
   22.3688  -22.8037  -16.4618 C   0  0  0  0  0  0  0  0  0  0  0  0
   23.4442  -23.6186  -17.1224 C   0  0  1  0  0  0  0  0  0  0  0  0
   22.7649  -21.3844  -16.1753 N   0  0  0  0  0  0  0  0  0  0  0  0
   23.9206  -21.3524  -15.3008 C   0  0  0  0  0  0  0  0  0  0  0  0
   21.6619  -20.5390  -15.6832 O   0  0  0  0  0  0  0  0  0  0  0  0
   21.4575  -20.4501  -14.4462 N   0  0  0  0  0  0  0  0  0  0  0  0
   20.7910  -19.7978  -16.5100 C   0  0  1  0  0  0  0  0  0  0  0  0
   19.6632  -19.0718  -15.9497 C   0  0  0  0  0  0  0  0  0  0  0  0
   19.0819  -18.0738  -16.8442 C   0  0  0  0  0  0  0  0  0  0  0  0
   18.0669  -17.2014  -16.1760 C   0  0  0  0  0  0  0  0  0  0  0  0
   17.4653  -16.1587  -16.9949 O   0  0  0  0  0  0  0  0  0  0  0  0
   18.1872  -15.4714  -17.7552 C   0  0  0  0  0  0  0  0  0  0  0  0
   18.6568  -20.0150  -15.4060 O   0  0  0  0  0  0  0  0  0  0  0  0
   18.4548  -21.1232  -15.9389 O   0  0  0  0  0  0  0  0  0  0  0  0
   16.1151  -15.9083  -16.9503 O   0  0  0  0  0  0  0  0  0  0  0  0
  2  1  1  0
  3  2  2  0
  4  2  1  0
  5  4  1  0
  6  7  1  0
  6  5  1  0
  7  8  1  0
  8 10  1  0
  8  9  1  6
 10 11  2  0
 13 14  1  1
 13 12  1  0
 15 13  1  0
 15 16  1  1
 16 10  1  0
 17 15  1  0
 18 17  2  0
 19 17  1  0
 20 19  1  0
 20 21  1  1
 21 22  1  0
 23 22  1  0
 23 27  1  0
 24 23  2  0
 25 20  1  0
 25 28  1  0
 26 25  2  0
M  END
$$$$
