RVE.pdb
     RDKit          3D

 28 27  0  0  1  0  0  0  0  0999 V2000
   15.3799  -14.4813  -18.2338 N   0  0  0  0  0  0  0  0  0  0  0  0
   16.2145  -15.0232  -19.2448 C   0  0  0  0  0  0  0  0  0  0  0  0
   15.7273  -15.9038  -20.0522 N   0  0  0  0  0  0  0  0  0  0  0  0
   17.5832  -14.5948  -19.3639 N   0  0  0  0  0  0  0  0  0  0  0  0
   18.2225  -13.9188  -18.2627 C   0  0  0  0  0  0  0  0  0  0  0  0
   18.1149  -12.4189  -18.3881 C   0  0  0  0  0  0  0  0  0  0  0  0
   18.6913  -11.6932  -17.1979 C   0  0  0  0  0  0  0  0  0  0  0  0
   20.2005  -11.8519  -17.1240 C   0  0  2  0  0  0  0  0  0  0  0  0
   20.4227  -13.2491  -16.7648 N   0  0  0  0  0  0  0  0  0  0  0  0
   20.7766  -11.0235  -16.0403 C   0  0  0  0  0  0  0  0  0  0  0  0
   20.4427  -11.2232  -14.8512 O   0  0  0  0  0  0  0  0  0  0  0  0
   16.2611  -16.3603  -20.8147 C   0  0  0  0  0  0  0  0  0  0  0  0
   24.5855   -9.2183  -16.2636 C   0  0  1  0  0  0  0  0  0  0  0  0
   23.7567   -9.5742  -15.0497 C   0  0  0  0  0  0  0  0  0  0  0  0
   23.9699  -11.0181  -14.6935 C   0  0  1  0  0  0  0  0  0  0  0  0
   22.3160   -9.1953  -15.2343 N   0  0  0  0  0  0  0  0  0  0  0  0
   21.7243   -9.9765  -16.3025 C   0  0  0  0  0  0  0  0  0  0  0  0
   22.0907   -7.7482  -15.4026 O   0  0  0  0  0  0  0  0  0  0  0  0
   22.3509   -7.2078  -16.5073 N   0  0  0  0  0  0  0  0  0  0  0  0
   21.5910   -6.8934  -14.3972 C   0  0  1  0  0  0  0  0  0  0  0  0
   21.3822   -5.4778  -14.6530 C   0  0  0  0  0  0  0  0  0  0  0  0
   19.9843   -5.0558  -14.6138 C   0  0  0  0  0  0  0  0  0  0  0  0
   19.7919   -3.6153  -14.9682 C   0  0  0  0  0  0  0  0  0  0  0  0
   18.4249   -3.1152  -14.9388 O   0  0  0  0  0  0  0  0  0  0  0  0
   17.4807   -3.9010  -14.6886 C   0  0  0  0  0  0  0  0  0  0  0  0
   22.2569   -4.6580  -13.7805 O   0  0  0  0  0  0  0  0  0  0  0  0
   22.6779   -5.0956  -12.6923 O   0  0  0  0  0  0  0  0  0  0  0  0
   18.1450   -1.7924  -15.1836 O   0  0  0  0  0  0  0  0  0  0  0  0
  2  1  1  0
  3  2  2  0
  4  2  1  0
  5  4  1  0
  6  7  1  0
  6  5  1  0
  7  8  1  0
  8 10  1  0
  8  9  1  1
 10 11  2  0
 13 14  1  6
 13 12  1  0
 15 13  1  0
 15 16  1  6
 16 10  1  0
 17 15  1  0
 18 17  2  0
 19 17  1  0
 20 19  1  0
 20 21  1  1
 21 22  1  0
 23 22  1  0
 23 27  1  0
 24 23  2  0
 25 20  1  0
 25 28  1  0
 26 25  2  0
M  END
$$$$
