RVE.pdb
     RDKit          3D

 28 27  0  0  1  0  0  0  0  0999 V2000
   16.4411  -17.5607  -13.6989 N   0  0  0  0  0  0  0  0  0  0  0  0
   16.3752  -18.4524  -14.8003 C   0  0  0  0  0  0  0  0  0  0  0  0
   15.3283  -18.4380  -15.5544 N   0  0  0  0  0  0  0  0  0  0  0  0
   17.4612  -19.3577  -15.0682 N   0  0  0  0  0  0  0  0  0  0  0  0
   18.6784  -19.2661  -14.3010 C   0  0  0  0  0  0  0  0  0  0  0  0
   19.4600  -18.0201  -14.6377 C   0  0  0  0  0  0  0  0  0  0  0  0
   20.7032  -18.3128  -15.4403 C   0  0  0  0  0  0  0  0  0  0  0  0
   21.4595  -17.0405  -15.7829 C   0  0  2  0  0  0  0  0  0  0  0  0
   20.7017  -16.4233  -16.8672 N   0  0  0  0  0  0  0  0  0  0  0  0
   22.8106  -17.3420  -16.3085 C   0  0  0  0  0  0  0  0  0  0  0  0
   22.9455  -17.8310  -17.4522 O   0  0  0  0  0  0  0  0  0  0  0  0
   15.1837  -19.0613  -16.3701 C   0  0  0  0  0  0  0  0  0  0  0  0
   27.7152  -16.8762  -16.1361 C   0  0  1  0  0  0  0  0  0  0  0  0
   26.3298  -16.4520  -15.7031 C   0  0  0  0  0  0  0  0  0  0  0  0
   26.3566  -16.0183  -14.2650 C   0  0  2  0  0  0  0  0  0  0  0  0
   25.3087  -17.5102  -16.0047 N   0  0  0  0  0  0  0  0  0  0  0  0
   23.9999  -17.0912  -15.5433 C   0  0  0  0  0  0  0  0  0  0  0  0
   25.6734  -18.8542  -15.5209 O   0  0  0  0  0  0  0  0  0  0  0  0
   25.4115  -19.1747  -14.3340 N   0  0  0  0  0  0  0  0  0  0  0  0
   26.3101  -19.8412  -16.3030 C   0  0  1  0  0  0  0  0  0  0  0  0
   26.5694  -21.1681  -15.7691 C   0  0  0  0  0  0  0  0  0  0  0  0
   25.4322  -22.0820  -15.8416 C   0  0  0  0  0  0  0  0  0  0  0  0
   25.7342  -23.4448  -15.3038 C   0  0  0  0  0  0  0  0  0  0  0  0
   24.7011  -24.4560  -15.4767 O   0  0  0  0  0  0  0  0  0  0  0  0
   23.6122  -24.1465  -16.0153 C   0  0  0  0  0  0  0  0  0  0  0  0
   27.8037  -21.7350  -16.3636 O   0  0  0  0  0  0  0  0  0  0  0  0
   28.1969  -21.3856  -17.4933 O   0  0  0  0  0  0  0  0  0  0  0  0
   24.8939  -25.7501  -15.0572 O   0  0  0  0  0  0  0  0  0  0  0  0
  2  1  1  0
  3  2  2  0
  4  2  1  0
  5  4  1  0
  6  7  1  0
  6  5  1  0
  7  8  1  0
  8 10  1  0
  8  9  1  6
 10 11  2  0
 13 14  1  1
 13 12  1  0
 15 13  1  0
 15 16  1  1
 16 10  1  0
 17 15  1  0
 18 17  2  0
 19 17  1  0
 20 19  1  0
 20 21  1  1
 21 22  1  0
 23 22  1  0
 23 27  1  0
 24 23  2  0
 25 20  1  0
 25 28  1  0
 26 25  2  0
M  END
$$$$
