RVE.pdb
     RDKit          3D

 28 27  0  0  1  0  0  0  0  0999 V2000
   16.5356  -23.4147  -13.2575 N   0  0  0  0  0  0  0  0  0  0  0  0
   17.3468  -24.4130  -13.8556 C   0  0  0  0  0  0  0  0  0  0  0  0
   16.7802  -25.4432  -14.3873 N   0  0  0  0  0  0  0  0  0  0  0  0
   18.7792  -24.2750  -13.8663 N   0  0  0  0  0  0  0  0  0  0  0  0
   19.4384  -23.5470  -12.8111 C   0  0  0  0  0  0  0  0  0  0  0  0
   19.2381  -22.0577  -12.9485 C   0  0  0  0  0  0  0  0  0  0  0  0
   20.5177  -21.3262  -13.2695 C   0  0  0  0  0  0  0  0  0  0  0  0
   21.5035  -21.3923  -12.1153 C   0  0  2  0  0  0  0  0  0  0  0  0
   20.8982  -20.6023  -11.0475 N   0  0  0  0  0  0  0  0  0  0  0  0
   22.7878  -20.7441  -12.4663 C   0  0  0  0  0  0  0  0  0  0  0  0
   22.8816  -19.4965  -12.4711 O   0  0  0  0  0  0  0  0  0  0  0  0
   17.2900  -26.2501  -14.7917 C   0  0  0  0  0  0  0  0  0  0  0  0
   26.1992  -21.6032  -10.9680 C   0  0  2  0  0  0  0  0  0  0  0  0
   26.3532  -21.5868  -12.4722 C   0  0  0  0  0  0  0  0  0  0  0  0
   27.7113  -21.0593  -12.8389 C   0  0  2  0  0  0  0  0  0  0  0  0
   25.2165  -20.8653  -13.1359 N   0  0  0  0  0  0  0  0  0  0  0  0
   23.9570  -21.5045  -12.8093 C   0  0  0  0  0  0  0  0  0  0  0  0
   25.3910  -20.6720  -14.5869 O   0  0  0  0  0  0  0  0  0  0  0  0
   25.3743  -21.6717  -15.3488 N   0  0  0  0  0  0  0  0  0  0  0  0
   25.5797  -19.4205  -15.2110 C   0  0  1  0  0  0  0  0  0  0  0  0
   25.6594  -19.3094  -16.6581 C   0  0  0  0  0  0  0  0  0  0  0  0
   25.0884  -18.0801  -17.2027 C   0  0  0  0  0  0  0  0  0  0  0  0
   25.1670  -18.0024  -18.6945 C   0  0  0  0  0  0  0  0  0  0  0  0
   24.7276  -16.7558  -19.3050 O   0  0  0  0  0  0  0  0  0  0  0  0
   24.8569  -16.5895  -20.5408 C   0  0  0  0  0  0  0  0  0  0  0  0
   27.0458  -19.5565  -17.1223 O   0  0  0  0  0  0  0  0  0  0  0  0
   27.2744  -20.2195  -18.1523 O   0  0  0  0  0  0  0  0  0  0  0  0
   24.1731  -15.7501  -18.5508 O   0  0  0  0  0  0  0  0  0  0  0  0
  2  1  1  0
  3  2  2  0
  4  2  1  0
  5  4  1  0
  6  7  1  0
  6  5  1  0
  7  8  1  0
  8 10  1  0
  8  9  1  1
 10 11  2  0
 13 14  1  6
 13 12  1  0
 15 13  1  0
 15 16  1  1
 16 10  1  0
 17 15  1  0
 18 17  2  0
 19 17  1  0
 20 19  1  0
 20 21  1  6
 21 22  1  0
 23 22  1  0
 23 27  1  0
 24 23  2  0
 25 20  1  0
 25 28  1  0
 26 25  2  0
M  END
$$$$
