RVE.pdb
     RDKit          3D

 28 27  0  0  1  0  0  0  0  0999 V2000
   19.3226  -23.0910  -10.7703 N   0  0  0  0  0  0  0  0  0  0  0  0
   19.2409  -22.9082   -9.3659 C   0  0  0  0  0  0  0  0  0  0  0  0
   18.3689  -23.5844   -8.6972 N   0  0  0  0  0  0  0  0  0  0  0  0
   20.1186  -21.9813   -8.7017 N   0  0  0  0  0  0  0  0  0  0  0  0
   21.5276  -21.9817   -9.0070 C   0  0  0  0  0  0  0  0  0  0  0  0
   21.8614  -21.0089  -10.1112 C   0  0  0  0  0  0  0  0  0  0  0  0
   22.9656  -20.0542   -9.7307 C   0  0  0  0  0  0  0  0  0  0  0  0
   24.3319  -20.7107   -9.8336 C   0  0  2  0  0  0  0  0  0  0  0  0
   24.9642  -20.4868   -8.5372 N   0  0  0  0  0  0  0  0  0  0  0  0
   25.1740  -20.0445  -10.8532 C   0  0  0  0  0  0  0  0  0  0  0  0
   25.5713  -18.8720  -10.6719 O   0  0  0  0  0  0  0  0  0  0  0  0
   18.2179  -23.4992   -7.6751 C   0  0  0  0  0  0  0  0  0  0  0  0
   28.4699  -21.1194  -12.1112 C   0  0  1  0  0  0  0  0  0  0  0  0
   27.6121  -20.9202  -13.3406 C   0  0  0  0  0  0  0  0  0  0  0  0
   28.4599  -20.4255  -14.4780 C   0  0  2  0  0  0  0  0  0  0  0  0
   26.4181  -20.0590  -13.0472 N   0  0  0  0  0  0  0  0  0  0  0  0
   25.5630  -20.7024  -12.0692 C   0  0  0  0  0  0  0  0  0  0  0  0
   25.6775  -19.6274  -14.2465 O   0  0  0  0  0  0  0  0  0  0  0  0
   24.9350  -20.4486  -14.8418 N   0  0  0  0  0  0  0  0  0  0  0  0
   25.7333  -18.3297  -14.7981 C   0  0  1  0  0  0  0  0  0  0  0  0
   24.9745  -17.9892  -15.9903 C   0  0  0  0  0  0  0  0  0  0  0  0
   24.3140  -16.6874  -15.9355 C   0  0  0  0  0  0  0  0  0  0  0  0
   23.6367  -16.3142  -17.2159 C   0  0  0  0  0  0  0  0  0  0  0  0
   22.1870  -16.4452  -17.2472 O   0  0  0  0  0  0  0  0  0  0  0  0
   21.5366  -16.4120  -16.1760 C   0  0  0  0  0  0  0  0  0  0  0  0
   25.8087  -18.1621  -17.2038 O   0  0  0  0  0  0  0  0  0  0  0  0
   27.0162  -17.8544  -17.2077 O   0  0  0  0  0  0  0  0  0  0  0  0
   21.5120  -16.6081  -18.4328 O   0  0  0  0  0  0  0  0  0  0  0  0
  2  1  1  0
  3  2  2  0
  4  2  1  0
  5  4  1  0
  6  7  1  0
  6  5  1  0
  7  8  1  0
  8 10  1  0
  8  9  1  1
 10 11  2  0
 13 14  1  1
 13 12  1  0
 15 13  1  0
 15 16  1  1
 16 10  1  0
 17 15  1  0
 18 17  2  0
 19 17  1  0
 20 19  1  0
 20 21  1  6
 21 22  1  0
 23 22  1  0
 23 27  1  0
 24 23  2  0
 25 20  1  0
 25 28  1  0
 26 25  2  0
M  END
$$$$
