RVE.pdb
     RDKit          3D

 28 27  0  0  1  0  0  0  0  0999 V2000
   18.6054  -17.1482  -16.7542 N   0  0  0  0  0  0  0  0  0  0  0  0
   20.0004  -16.9069  -16.8438 C   0  0  0  0  0  0  0  0  0  0  0  0
   20.5678  -16.9419  -18.0021 N   0  0  0  0  0  0  0  0  0  0  0  0
   20.7671  -16.6284  -15.6582 N   0  0  0  0  0  0  0  0  0  0  0  0
   21.0150  -17.6770  -14.7005 C   0  0  0  0  0  0  0  0  0  0  0  0
   20.2197  -18.9205  -15.0134 C   0  0  0  0  0  0  0  0  0  0  0  0
   20.4343  -20.0180  -14.0011 C   0  0  0  0  0  0  0  0  0  0  0  0
   21.8853  -20.0922  -13.5567 C   0  0  2  0  0  0  0  0  0  0  0  0
   22.5748  -20.8215  -14.6165 N   0  0  0  0  0  0  0  0  0  0  0  0
   22.0281  -20.8850  -12.3142 C   0  0  0  0  0  0  0  0  0  0  0  0
   21.9425  -22.1327  -12.3514 O   0  0  0  0  0  0  0  0  0  0  0  0
   21.5757  -16.7650  -18.1677 C   0  0  0  0  0  0  0  0  0  0  0  0
   24.8016  -20.3640   -9.5854 C   0  0  1  0  0  0  0  0  0  0  0  0
   23.4411  -20.4204   -8.9276 C   0  0  0  0  0  0  0  0  0  0  0  0
   23.5546  -21.0723   -7.5788 C   0  0  2  0  0  0  0  0  0  0  0  0
   22.4181  -21.0499   -9.8278 N   0  0  0  0  0  0  0  0  0  0  0  0
   22.2662  -20.2682  -11.0392 C   0  0  0  0  0  0  0  0  0  0  0  0
   21.1279  -21.3286   -9.1712 O   0  0  0  0  0  0  0  0  0  0  0  0
   20.4079  -20.3697   -8.7941 N   0  0  0  0  0  0  0  0  0  0  0  0
   20.6179  -22.6209   -8.9242 C   0  0  1  0  0  0  0  0  0  0  0  0
   19.3544  -22.8076   -8.2301 C   0  0  0  0  0  0  0  0  0  0  0  0
   18.4149  -23.6942   -8.9122 C   0  0  0  0  0  0  0  0  0  0  0  0
   17.1184  -23.8545   -8.1835 C   0  0  0  0  0  0  0  0  0  0  0  0
   16.1836  -24.8301   -8.7257 O   0  0  0  0  0  0  0  0  0  0  0  0
   16.5752  -25.6559   -9.5838 C   0  0  0  0  0  0  0  0  0  0  0  0
   19.5897  -23.1930   -6.8179 O   0  0  0  0  0  0  0  0  0  0  0  0
   20.6547  -23.7349   -6.4643 O   0  0  0  0  0  0  0  0  0  0  0  0
   14.8724  -24.8639   -8.3167 O   0  0  0  0  0  0  0  0  0  0  0  0
  2  1  1  0
  3  2  2  0
  4  2  1  0
  5  4  1  0
  6  7  1  0
  6  5  1  0
  7  8  1  0
  8 10  1  0
  8  9  1  6
 10 11  2  0
 13 14  1  6
 13 12  1  0
 15 13  1  0
 15 16  1  6
 16 10  1  0
 17 15  1  0
 18 17  2  0
 19 17  1  0
 20 19  1  0
 20 21  1  1
 21 22  1  0
 23 22  1  0
 23 27  1  0
 24 23  2  0
 25 20  1  0
 25 28  1  0
 26 25  2  0
M  END
$$$$
