RVE.pdb
     RDKit          3D

 28 27  0  0  1  0  0  0  0  0999 V2000
   25.3163  -18.4840  -20.2200 N   0  0  0  0  0  0  0  0  0  0  0  0
   26.3360  -17.5983  -19.7865 C   0  0  0  0  0  0  0  0  0  0  0  0
   26.5361  -16.5059  -20.4433 N   0  0  0  0  0  0  0  0  0  0  0  0
   27.1332  -17.9178  -18.6318 N   0  0  0  0  0  0  0  0  0  0  0  0
   26.5550  -18.6685  -17.5453 C   0  0  0  0  0  0  0  0  0  0  0  0
   26.0176  -20.0002  -18.0085 C   0  0  0  0  0  0  0  0  0  0  0  0
   25.3293  -20.7649  -16.9054 C   0  0  0  0  0  0  0  0  0  0  0  0
   26.2193  -20.9028  -15.6817 C   0  0  2  0  0  0  0  0  0  0  0  0
   27.1659  -21.9634  -16.0128 N   0  0  0  0  0  0  0  0  0  0  0  0
   25.4471  -21.3566  -14.5026 C   0  0  0  0  0  0  0  0  0  0  0  0
   24.9049  -22.4842  -14.5022 O   0  0  0  0  0  0  0  0  0  0  0  0
   27.2954  -15.8299  -20.2409 C   0  0  0  0  0  0  0  0  0  0  0  0
   26.4342  -20.8178  -10.7165 C   0  0  2  0  0  0  0  0  0  0  0  0
   24.9969  -20.4004  -10.9332 C   0  0  0  0  0  0  0  0  0  0  0  0
   24.1771  -20.7521   -9.7243 C   0  0  2  0  0  0  0  0  0  0  0  0
   24.4522  -20.9443  -12.2218 N   0  0  0  0  0  0  0  0  0  0  0  0
   25.2906  -20.5383  -13.3326 C   0  0  0  0  0  0  0  0  0  0  0  0
   23.0279  -20.6399  -12.4499 O   0  0  0  0  0  0  0  0  0  0  0  0
   22.6431  -19.4433  -12.4366 N   0  0  0  0  0  0  0  0  0  0  0  0
   22.0306  -21.6088  -12.6902 C   0  0  1  0  0  0  0  0  0  0  0  0
   20.6378  -21.2258  -12.8529 C   0  0  0  0  0  0  0  0  0  0  0  0
   19.9569  -21.8800  -13.9675 C   0  0  0  0  0  0  0  0  0  0  0  0
   20.6455  -21.6794  -15.2802 C   0  0  0  0  0  0  0  0  0  0  0  0
   20.3824  -20.4232  -15.9676 O   0  0  0  0  0  0  0  0  0  0  0  0
   19.5385  -19.6232  -15.4991 C   0  0  0  0  0  0  0  0  0  0  0  0
   19.9079  -21.3643  -11.5698 O   0  0  0  0  0  0  0  0  0  0  0  0
   20.3100  -22.1349  -10.6769 O   0  0  0  0  0  0  0  0  0  0  0  0
   21.0414  -20.0944  -17.1275 O   0  0  0  0  0  0  0  0  0  0  0  0
  2  1  1  0
  3  2  2  0
  4  2  1  0
  5  4  1  0
  6  7  1  0
  6  5  1  0
  7  8  1  0
  8 10  1  0
  8  9  1  6
 10 11  2  0
 13 14  1  6
 13 12  1  0
 15 13  1  0
 15 16  1  6
 16 10  1  0
 17 15  1  0
 18 17  2  0
 19 17  1  0
 20 19  1  0
 20 21  1  1
 21 22  1  0
 23 22  1  0
 23 27  1  0
 24 23  2  0
 25 20  1  0
 25 28  1  0
 26 25  2  0
M  END
$$$$
