RVE.pdb
     RDKit          3D

 28 27  0  0  1  0  0  0  0  0999 V2000
   15.8733  -31.9591  -11.0094 N   0  0  0  0  0  0  0  0  0  0  0  0
   15.5388  -31.4245  -12.2801 C   0  0  0  0  0  0  0  0  0  0  0  0
   14.7363  -32.0852  -13.0446 N   0  0  0  0  0  0  0  0  0  0  0  0
   16.0889  -30.1648  -12.7060 N   0  0  0  0  0  0  0  0  0  0  0  0
   17.0373  -29.4751  -11.8675 C   0  0  0  0  0  0  0  0  0  0  0  0
   18.2852  -30.2931  -11.6434 C   0  0  0  0  0  0  0  0  0  0  0  0
   19.2365  -29.6470  -10.6672 C   0  0  0  0  0  0  0  0  0  0  0  0
   19.6444  -28.2560  -11.1222 C   0  0  2  0  0  0  0  0  0  0  0  0
   21.0308  -28.3863  -11.5600 N   0  0  0  0  0  0  0  0  0  0  0  0
   19.6288  -27.2949   -9.9959 C   0  0  0  0  0  0  0  0  0  0  0  0
   20.6139  -27.2087   -9.2293 O   0  0  0  0  0  0  0  0  0  0  0  0
   14.4917  -31.8124  -14.0143 C   0  0  0  0  0  0  0  0  0  0  0  0
   19.2900  -23.6727  -10.3731 C   0  0  2  0  0  0  0  0  0  0  0  0
   18.2473  -24.0622   -9.3494 C   0  0  0  0  0  0  0  0  0  0  0  0
   18.0732  -22.9518   -8.3526 C   0  0  2  0  0  0  0  0  0  0  0  0
   18.5505  -25.3967   -8.7326 N   0  0  0  0  0  0  0  0  0  0  0  0
   18.5050  -26.4378   -9.7404 C   0  0  0  0  0  0  0  0  0  0  0  0
   17.7253  -25.7168   -7.5537 O   0  0  0  0  0  0  0  0  0  0  0  0
   16.5288  -26.0668   -7.7149 N   0  0  0  0  0  0  0  0  0  0  0  0
   18.1805  -25.6627   -6.2191 C   0  0  1  0  0  0  0  0  0  0  0  0
   17.2902  -25.9669   -5.1110 C   0  0  0  0  0  0  0  0  0  0  0  0
   17.9690  -26.3861   -3.8873 C   0  0  0  0  0  0  0  0  0  0  0  0
   17.0277  -26.7086   -2.7703 C   0  0  0  0  0  0  0  0  0  0  0  0
   17.6273  -27.1777   -1.5293 O   0  0  0  0  0  0  0  0  0  0  0  0
   18.8724  -27.2985   -1.4473 C   0  0  0  0  0  0  0  0  0  0  0  0
   16.3375  -24.8527   -4.8893 O   0  0  0  0  0  0  0  0  0  0  0  0
   16.6664  -23.6692   -5.0991 O   0  0  0  0  0  0  0  0  0  0  0  0
   16.8529  -27.4954   -0.4397 O   0  0  0  0  0  0  0  0  0  0  0  0
  2  1  1  0
  3  2  2  0
  4  2  1  0
  5  4  1  0
  6  7  1  0
  6  5  1  0
  7  8  1  0
  8 10  1  0
  8  9  1  1
 10 11  2  0
 13 14  1  1
 13 12  1  0
 15 13  1  0
 15 16  1  1
 16 10  1  0
 17 15  1  0
 18 17  2  0
 19 17  1  0
 20 19  1  0
 20 21  1  1
 21 22  1  0
 23 22  1  0
 23 27  1  0
 24 23  2  0
 25 20  1  0
 25 28  1  0
 26 25  2  0
M  END
$$$$
