RVE.pdb
     RDKit          3D

 28 27  0  0  1  0  0  0  0  0999 V2000
   15.2806  -10.8362  -19.7288 N   0  0  0  0  0  0  0  0  0  0  0  0
   14.0776  -11.3719  -19.2014 C   0  0  0  0  0  0  0  0  0  0  0  0
   13.1771  -11.8074  -20.0164 N   0  0  0  0  0  0  0  0  0  0  0  0
   13.8689  -11.4262  -17.7786 N   0  0  0  0  0  0  0  0  0  0  0  0
   14.9029  -10.9710  -16.8831 C   0  0  0  0  0  0  0  0  0  0  0  0
   16.1714  -11.7733  -17.0388 C   0  0  0  0  0  0  0  0  0  0  0  0
   17.2669  -11.3151  -16.1087 C   0  0  0  0  0  0  0  0  0  0  0  0
   18.5804  -12.0201  -16.4024 C   0  0  2  0  0  0  0  0  0  0  0  0
   18.4029  -13.3830  -15.9110 N   0  0  0  0  0  0  0  0  0  0  0  0
   19.6967  -11.4198  -15.6369 C   0  0  0  0  0  0  0  0  0  0  0  0
   19.6190  -11.3110  -14.3928 O   0  0  0  0  0  0  0  0  0  0  0  0
   12.2788  -12.2349  -19.7249 C   0  0  0  0  0  0  0  0  0  0  0  0
   23.2521  -12.4262  -15.4949 C   0  0  1  0  0  0  0  0  0  0  0  0
   23.2720  -10.9519  -15.8309 C   0  0  0  0  0  0  0  0  0  0  0  0
   24.4471  -10.2940  -15.1649 C   0  0  2  0  0  0  0  0  0  0  0  0
   21.9539  -10.2994  -15.5311 N   0  0  0  0  0  0  0  0  0  0  0  0
   20.8922  -10.9462  -16.2767 C   0  0  0  0  0  0  0  0  0  0  0  0
   21.9534   -8.8353  -15.7042 O   0  0  0  0  0  0  0  0  0  0  0  0
   21.9823   -8.3514  -16.8640 N   0  0  0  0  0  0  0  0  0  0  0  0
   21.9209   -7.9038  -14.6447 C   0  0  1  0  0  0  0  0  0  0  0  0
   21.8137   -6.4776  -14.9043 C   0  0  0  0  0  0  0  0  0  0  0  0
   20.5849   -6.0774  -15.5853 C   0  0  0  0  0  0  0  0  0  0  0  0
   19.3550   -6.2977  -14.7627 C   0  0  0  0  0  0  0  0  0  0  0  0
   18.0946   -5.8636  -15.3480 O   0  0  0  0  0  0  0  0  0  0  0  0
   17.7475   -4.6625  -15.2557 C   0  0  0  0  0  0  0  0  0  0  0  0
   22.0643   -5.7039  -13.6645 O   0  0  0  0  0  0  0  0  0  0  0  0
   22.1316   -6.2657  -12.5542 O   0  0  0  0  0  0  0  0  0  0  0  0
   17.2707   -6.7479  -16.0013 O   0  0  0  0  0  0  0  0  0  0  0  0
  2  1  1  0
  3  2  2  0
  4  2  1  0
  5  4  1  0
  6  7  1  0
  6  5  1  0
  7  8  1  0
  8 10  1  0
  8  9  1  1
 10 11  2  0
 13 14  1  1
 13 12  1  0
 15 13  1  0
 15 16  1  1
 16 10  1  0
 17 15  1  0
 18 17  2  0
 19 17  1  0
 20 19  1  0
 20 21  1  6
 21 22  1  0
 23 22  1  0
 23 27  1  0
 24 23  2  0
 25 20  1  0
 25 28  1  0
 26 25  2  0
M  END
$$$$
