RVE.pdb
     RDKit          3D

 28 27  0  0  1  0  0  0  0  0999 V2000
   18.1014  -22.8247  -10.5737 N   0  0  0  0  0  0  0  0  0  0  0  0
   17.6368  -23.7046  -11.5847 C   0  0  0  0  0  0  0  0  0  0  0  0
   16.8733  -24.6904  -11.2529 N   0  0  0  0  0  0  0  0  0  0  0  0
   18.0144  -23.4975  -12.9578 N   0  0  0  0  0  0  0  0  0  0  0  0
   18.8277  -22.3623  -13.3156 C   0  0  0  0  0  0  0  0  0  0  0  0
   20.1817  -22.7839  -13.8312 C   0  0  0  0  0  0  0  0  0  0  0  0
   21.0122  -21.6174  -14.3055 C   0  0  0  0  0  0  0  0  0  0  0  0
   21.2050  -20.5856  -13.2071 C   0  0  2  0  0  0  0  0  0  0  0  0
   20.4743  -19.4047  -13.6569 N   0  0  0  0  0  0  0  0  0  0  0  0
   22.6280  -20.1974  -13.0766 C   0  0  0  0  0  0  0  0  0  0  0  0
   23.0509  -19.1616  -13.6367 O   0  0  0  0  0  0  0  0  0  0  0  0
   16.3823  -25.3056  -11.9276 C   0  0  0  0  0  0  0  0  0  0  0  0
   24.8343  -20.6956   -9.7423 C   0  0  2  0  0  0  0  0  0  0  0  0
   25.5690  -21.1764  -10.9735 C   0  0  0  0  0  0  0  0  0  0  0  0
   27.0395  -20.9060  -10.8266 C   0  0  2  0  0  0  0  0  0  0  0  0
   24.9662  -20.6179  -12.2296 N   0  0  0  0  0  0  0  0  0  0  0  0
   23.5646  -20.9775  -12.3170 C   0  0  0  0  0  0  0  0  0  0  0  0
   25.7118  -20.9532  -13.4563 O   0  0  0  0  0  0  0  0  0  0  0  0
   25.7715  -22.1507  -13.8339 N   0  0  0  0  0  0  0  0  0  0  0  0
   26.3834  -20.0137  -14.2672 C   0  0  1  0  0  0  0  0  0  0  0  0
   27.0810  -20.4280  -15.4732 C   0  0  0  0  0  0  0  0  0  0  0  0
   27.6487  -19.3297  -16.2512 C   0  0  0  0  0  0  0  0  0  0  0  0
   28.3192  -19.7818  -17.5096 C   0  0  0  0  0  0  0  0  0  0  0  0
   27.8403  -19.1901  -18.7507 O   0  0  0  0  0  0  0  0  0  0  0  0
   27.0469  -18.2202  -18.7113 C   0  0  0  0  0  0  0  0  0  0  0  0
   28.0714  -21.4868  -15.1625 O   0  0  0  0  0  0  0  0  0  0  0  0
   28.7707  -21.4359  -14.1323 O   0  0  0  0  0  0  0  0  0  0  0  0
   28.2395  -19.6764  -19.9721 O   0  0  0  0  0  0  0  0  0  0  0  0
  2  1  1  0
  3  2  2  0
  4  2  1  0
  5  4  1  0
  6  7  1  0
  6  5  1  0
  7  8  1  0
  8 10  1  0
  8  9  1  6
 10 11  2  0
 13 14  1  6
 13 12  1  0
 15 13  1  0
 15 16  1  6
 16 10  1  0
 17 15  1  0
 18 17  2  0
 19 17  1  0
 20 19  1  0
 20 21  1  1
 21 22  1  0
 23 22  1  0
 23 27  1  0
 24 23  2  0
 25 20  1  0
 25 28  1  0
 26 25  2  0
M  END
$$$$
