EYT.pdb
     RDKit          3D

 29 29  0  0  1  0  0  0  0  0999 V2000
   43.6075   -7.7569   -5.6731 N   0  0  0  0  0  0  0  0  0  0  0  0
   43.4296   -6.9133   -6.8632 C   0  0  1  0  0  0  0  0  0  0  0  0
   44.3447   -7.4597   -7.9228 C   0  0  0  0  0  0  0  0  0  0  0  0
   45.7933   -7.3538   -7.6276 C   0  0  0  0  0  0  0  0  0  0  0  0
   46.6227   -7.8379   -8.7317 C   0  0  0  0  0  0  0  0  0  0  0  0
   46.1454   -8.3465   -9.7623 O   0  0  0  0  0  0  0  0  0  0  0  0
   42.0308   -7.0165   -7.3547 C   0  0  0  0  0  0  0  0  0  0  0  0
   41.4988   -8.1497   -7.3819 O   0  0  0  0  0  0  0  0  0  0  0  0
   48.0183   -7.7502   -8.6799 O   0  0  0  0  0  0  0  0  0  0  0  0
   40.5136   -1.0345   -4.0786 O   0  0  0  0  0  0  0  0  0  0  0  0
   40.1016   -2.0955   -4.8718 C   0  0  0  0  0  0  0  0  0  0  0  0
   39.2649   -1.9888   -5.9473 C   0  0  0  0  0  0  0  0  0  0  0  0
   38.8876   -3.0805   -6.7017 C   0  0  0  0  0  0  0  0  0  0  0  0
   39.3442   -4.3246   -6.3953 C   0  0  0  0  0  0  0  0  0  0  0  0
   39.0090   -5.5566   -7.1309 C   0  0  0  0  0  0  0  0  0  0  0  0
   39.9948   -5.9048   -8.2025 C   0  0  2  0  0  0  0  0  0  0  0  0
   41.3545   -5.8450   -7.7704 N   0  0  0  0  0  0  0  0  0  0  0  0
   39.7464   -4.9547   -9.3462 C   0  0  0  0  0  0  0  0  0  0  0  0
   40.4281   -3.9008   -9.4802 O   0  0  0  0  0  0  0  0  0  0  0  0
   40.1918   -4.4481   -5.3096 C   0  0  0  0  0  0  0  0  0  0  0  0
   40.5745   -3.3577   -4.5484 C   0  0  0  0  0  0  0  0  0  0  0  0
   36.5515   -5.7149  -12.1742 C   0  0  0  0  0  0  0  0  0  0  0  0
   37.8554   -5.0564  -12.5820 C   0  0  1  0  0  0  0  0  0  0  0  0
   37.6264   -4.1948  -13.6282 O   0  0  0  0  0  0  0  0  0  0  0  0
   38.4673   -4.3359  -11.3978 C   0  0  2  0  0  0  0  0  0  0  0  0
   38.7318   -5.2322  -10.3010 N   0  0  0  0  0  0  0  0  0  0  0  0
   37.5397   -3.2745  -10.9420 C   0  0  0  0  0  0  0  0  0  0  0  0
   37.3937   -2.0730  -11.6447 O   0  0  0  0  0  0  0  0  0  0  0  0
   36.8615   -3.4323   -9.9100 O   0  0  0  0  0  0  0  0  0  0  0  0
  2  1  1  1
  3  2  1  0
  4  3  1  0
  4  5  1  0
  5  9  1  0
  5  6  2  0
  7  2  1  0
  7  8  2  0
 10 11  1  0
 11 12  2  0
 12 13  1  0
 14 13  2  0
 14 15  1  0
 16 15  1  1
 16 17  1  0
 17  7  1  0
 18 16  1  0
 19 18  2  0
 20 14  1  0
 21 11  1  0
 21 20  2  0
 23 22  1  1
 23 25  1  0
 24 23  1  0
 25 27  1  0
 25 26  1  1
 26 18  1  0
 27 28  1  0
 29 27  2  0
M  END
$$$$
