EYT.pdb
     RDKit          3D

 29 29  0  0  1  0  0  0  0  0999 V2000
   26.1700  -22.4534  -18.9753 N   0  0  0  0  0  0  0  0  0  0  0  0
   26.0911  -21.2122  -18.1925 C   0  0  1  0  0  0  0  0  0  0  0  0
   25.1516  -20.2962  -18.9253 C   0  0  0  0  0  0  0  0  0  0  0  0
   25.7424  -19.5636  -20.0703 C   0  0  0  0  0  0  0  0  0  0  0  0
   26.7096  -18.5518  -19.6438 C   0  0  0  0  0  0  0  0  0  0  0  0
   26.3880  -17.5437  -18.9890 O   0  0  0  0  0  0  0  0  0  0  0  0
   25.5181  -21.4936  -16.8503 C   0  0  0  0  0  0  0  0  0  0  0  0
   24.6927  -22.4295  -16.7474 O   0  0  0  0  0  0  0  0  0  0  0  0
   28.0678  -18.6722  -19.9582 O   0  0  0  0  0  0  0  0  0  0  0  0
   24.1097  -21.2182   -8.1476 O   0  0  0  0  0  0  0  0  0  0  0  0
   24.5656  -20.9533   -9.4308 C   0  0  0  0  0  0  0  0  0  0  0  0
   24.0242  -20.0263  -10.2770 C   0  0  0  0  0  0  0  0  0  0  0  0
   24.5195  -19.8047  -11.5454 C   0  0  0  0  0  0  0  0  0  0  0  0
   25.5844  -20.5145  -12.0064 C   0  0  0  0  0  0  0  0  0  0  0  0
   26.1950  -20.3597  -13.3384 C   0  0  0  0  0  0  0  0  0  0  0  0
   25.3733  -20.9385  -14.4481 C   0  0  2  0  0  0  0  0  0  0  0  0
   25.9194  -20.7042  -15.7465 N   0  0  0  0  0  0  0  0  0  0  0  0
   23.9943  -20.3426  -14.3235 C   0  0  0  0  0  0  0  0  0  0  0  0
   23.8034  -19.1024  -14.4609 O   0  0  0  0  0  0  0  0  0  0  0  0
   26.1428  -21.4560  -11.1612 C   0  0  0  0  0  0  0  0  0  0  0  0
   25.6514  -21.6838   -9.8879 C   0  0  0  0  0  0  0  0  0  0  0  0
   20.6243  -22.6456  -15.0731 C   0  0  0  0  0  0  0  0  0  0  0  0
   20.6443  -21.1293  -15.0561 C   0  0  1  0  0  0  0  0  0  0  0  0
   19.3623  -20.6553  -14.9111 O   0  0  0  0  0  0  0  0  0  0  0  0
   21.5451  -20.6331  -13.9432 C   0  0  2  0  0  0  0  0  0  0  0  0
   22.8764  -21.1744  -14.0472 N   0  0  0  0  0  0  0  0  0  0  0  0
   20.9648  -21.0238  -12.6372 C   0  0  0  0  0  0  0  0  0  0  0  0
   19.8072  -20.4182  -12.1355 O   0  0  0  0  0  0  0  0  0  0  0  0
   21.5030  -21.9115  -11.9501 O   0  0  0  0  0  0  0  0  0  0  0  0
  2  1  1  6
  3  2  1  0
  4  3  1  0
  4  5  1  0
  5  9  1  0
  5  6  2  0
  7  2  1  0
  7  8  2  0
 10 11  1  0
 11 12  2  0
 12 13  1  0
 14 13  2  0
 14 15  1  0
 16 15  1  1
 16 17  1  0
 17  7  1  0
 18 16  1  0
 19 18  2  0
 20 14  1  0
 21 11  1  0
 21 20  2  0
 23 22  1  1
 23 25  1  0
 24 23  1  0
 25 27  1  0
 25 26  1  6
 26 18  1  0
 27 28  1  0
 29 27  2  0
M  END
$$$$
