EYT.pdb
     RDKit          3D

 29 29  0  0  1  0  0  0  0  0999 V2000
   22.5375  -14.2298  -16.6456 N   0  0  0  0  0  0  0  0  0  0  0  0
   21.9495  -13.0154  -17.2278 C   0  0  1  0  0  0  0  0  0  0  0  0
   20.4608  -13.1282  -17.0544 C   0  0  0  0  0  0  0  0  0  0  0  0
   19.8259  -14.2764  -17.7436 C   0  0  0  0  0  0  0  0  0  0  0  0
   19.2107  -15.2167  -16.8064 C   0  0  0  0  0  0  0  0  0  0  0  0
   18.5980  -14.8507  -15.7870 O   0  0  0  0  0  0  0  0  0  0  0  0
   22.4176  -11.8171  -16.4836 C   0  0  0  0  0  0  0  0  0  0  0  0
   22.6595  -11.9410  -15.2612 O   0  0  0  0  0  0  0  0  0  0  0  0
   19.2837  -16.5983  -17.0160 O   0  0  0  0  0  0  0  0  0  0  0  0
   28.5659  -12.6358  -15.9834 O   0  0  0  0  0  0  0  0  0  0  0  0
   27.5314  -11.7656  -16.2953 C   0  0  0  0  0  0  0  0  0  0  0  0
   26.8419  -11.7620  -17.4756 C   0  0  0  0  0  0  0  0  0  0  0  0
   25.8199  -10.8715  -17.7320 C   0  0  0  0  0  0  0  0  0  0  0  0
   25.4562   -9.9487  -16.8012 C   0  0  0  0  0  0  0  0  0  0  0  0
   24.3818   -8.9540  -16.9670 C   0  0  0  0  0  0  0  0  0  0  0  0
   23.0440   -9.4281  -16.4904 C   0  0  2  0  0  0  0  0  0  0  0  0
   22.5729  -10.5908  -17.1725 N   0  0  0  0  0  0  0  0  0  0  0  0
   22.0887   -8.2745  -16.6607 C   0  0  0  0  0  0  0  0  0  0  0  0
   21.9258   -7.7210  -17.7834 O   0  0  0  0  0  0  0  0  0  0  0  0
   26.1449   -9.9404  -15.6020 C   0  0  0  0  0  0  0  0  0  0  0  0
   27.1710  -10.8304  -15.3378 C   0  0  0  0  0  0  0  0  0  0  0  0
   18.8653   -8.0556  -14.1670 C   0  0  0  0  0  0  0  0  0  0  0  0
   18.9417   -7.3346  -15.4990 C   0  0  1  0  0  0  0  0  0  0  0  0
   17.9928   -6.3409  -15.5376 O   0  0  0  0  0  0  0  0  0  0  0  0
   20.3344   -6.7759  -15.7093 C   0  0  2  0  0  0  0  0  0  0  0  0
   21.3490   -7.7867  -15.5503 N   0  0  0  0  0  0  0  0  0  0  0  0
   20.5758   -5.6902  -14.7308 C   0  0  0  0  0  0  0  0  0  0  0  0
   21.5362   -5.8106  -13.7199 O   0  0  0  0  0  0  0  0  0  0  0  0
   19.9200   -4.6337  -14.7890 O   0  0  0  0  0  0  0  0  0  0  0  0
  2  1  1  1
  3  2  1  0
  4  3  1  0
  4  5  1  0
  5  9  1  0
  5  6  2  0
  7  2  1  0
  7  8  2  0
 10 11  1  0
 11 12  2  0
 12 13  1  0
 14 13  2  0
 14 15  1  0
 16 15  1  6
 16 17  1  0
 17  7  1  0
 18 16  1  0
 19 18  2  0
 20 14  1  0
 21 11  1  0
 21 20  2  0
 23 22  1  1
 23 25  1  0
 24 23  1  0
 25 27  1  0
 25 26  1  1
 26 18  1  0
 27 28  1  0
 29 27  2  0
M  END
$$$$
