EYT.pdb
     RDKit          3D

 29 29  0  0  1  0  0  0  0  0999 V2000
   20.9156  -11.5309  -17.1546 N   0  0  0  0  0  0  0  0  0  0  0  0
   20.3619  -10.2128  -17.4943 C   0  0  1  0  0  0  0  0  0  0  0  0
   19.1240  -10.4595  -18.3102 C   0  0  0  0  0  0  0  0  0  0  0  0
   19.3591  -10.9492  -19.6892 C   0  0  0  0  0  0  0  0  0  0  0  0
   19.7623   -9.8764  -20.5991 C   0  0  0  0  0  0  0  0  0  0  0  0
   20.1121  -10.0842  -21.7752 O   0  0  0  0  0  0  0  0  0  0  0  0
   19.9693   -9.4920  -16.2552 C   0  0  0  0  0  0  0  0  0  0  0  0
   19.3155  -10.1198  -15.3913 O   0  0  0  0  0  0  0  0  0  0  0  0
   19.7740   -8.5408  -20.1820 O   0  0  0  0  0  0  0  0  0  0  0  0
   25.4220   -4.4267  -16.3797 O   0  0  0  0  0  0  0  0  0  0  0  0
   24.3770   -5.1440  -15.8156 C   0  0  0  0  0  0  0  0  0  0  0  0
   24.2869   -6.5078  -15.7938 C   0  0  0  0  0  0  0  0  0  0  0  0
   23.2221   -7.1693  -15.2178 C   0  0  0  0  0  0  0  0  0  0  0  0
   22.2057   -6.4738  -14.6404 C   0  0  0  0  0  0  0  0  0  0  0  0
   21.0245   -7.0749  -13.9965 C   0  0  0  0  0  0  0  0  0  0  0  0
   19.9164   -7.3953  -14.9510 C   0  0  2  0  0  0  0  0  0  0  0  0
   20.3429   -8.1365  -16.0945 N   0  0  0  0  0  0  0  0  0  0  0  0
   19.2983   -6.0812  -15.3554 C   0  0  0  0  0  0  0  0  0  0  0  0
   19.8439   -5.3410  -16.2201 O   0  0  0  0  0  0  0  0  0  0  0  0
   22.2832   -5.0931  -14.6547 C   0  0  0  0  0  0  0  0  0  0  0  0
   23.3479   -4.4228  -15.2306 C   0  0  0  0  0  0  0  0  0  0  0  0
   16.2436   -5.2960  -17.1589 C   0  0  0  0  0  0  0  0  0  0  0  0
   16.0843   -4.6656  -15.7888 C   0  0  1  0  0  0  0  0  0  0  0  0
   15.3107   -5.4798  -14.9964 O   0  0  0  0  0  0  0  0  0  0  0  0
   17.4443   -4.4213  -15.1669 C   0  0  2  0  0  0  0  0  0  0  0  0
   18.0803   -5.6502  -14.7649 N   0  0  0  0  0  0  0  0  0  0  0  0
   17.2870   -3.5477  -13.9809 C   0  0  0  0  0  0  0  0  0  0  0  0
   17.4870   -4.0276  -12.6816 O   0  0  0  0  0  0  0  0  0  0  0  0
   16.9693   -2.3518  -14.1182 O   0  0  0  0  0  0  0  0  0  0  0  0
  2  1  1  1
  3  2  1  0
  4  3  1  0
  4  5  1  0
  5  9  1  0
  5  6  2  0
  7  2  1  0
  7  8  2  0
 10 11  1  0
 11 12  2  0
 12 13  1  0
 14 13  2  0
 14 15  1  0
 16 15  1  1
 16 17  1  0
 17  7  1  0
 18 16  1  0
 19 18  2  0
 20 14  1  0
 21 11  1  0
 21 20  2  0
 23 22  1  6
 23 25  1  0
 24 23  1  0
 25 27  1  0
 25 26  1  1
 26 18  1  0
 27 28  1  0
 29 27  2  0
M  END
$$$$
