EYT.pdb
     RDKit          3D

 29 29  0  0  1  0  0  0  0  0999 V2000
   22.9980  -12.1550  -16.9664 N   0  0  0  0  0  0  0  0  0  0  0  0
   22.1562  -10.9846  -17.2512 C   0  0  1  0  0  0  0  0  0  0  0  0
   20.8759  -11.1750  -16.4874 C   0  0  0  0  0  0  0  0  0  0  0  0
   20.0238  -12.2978  -16.9455 C   0  0  0  0  0  0  0  0  0  0  0  0
   18.7152  -12.3059  -16.2907 C   0  0  0  0  0  0  0  0  0  0  0  0
   18.3421  -11.4065  -15.5158 O   0  0  0  0  0  0  0  0  0  0  0  0
   22.8179   -9.7499  -16.7545 C   0  0  0  0  0  0  0  0  0  0  0  0
   23.6578   -9.8626  -15.8326 O   0  0  0  0  0  0  0  0  0  0  0  0
   17.8040  -13.3452  -16.5090 O   0  0  0  0  0  0  0  0  0  0  0  0
   27.1660   -9.6851  -21.3466 O   0  0  0  0  0  0  0  0  0  0  0  0
   26.3932   -8.8955  -20.5075 C   0  0  0  0  0  0  0  0  0  0  0  0
   26.8791   -8.1453  -19.4733 C   0  0  0  0  0  0  0  0  0  0  0  0
   26.0622   -7.3773  -18.6694 C   0  0  0  0  0  0  0  0  0  0  0  0
   24.7194   -7.3393  -18.8826 C   0  0  0  0  0  0  0  0  0  0  0  0
   23.7561   -6.5550  -18.0900 C   0  0  0  0  0  0  0  0  0  0  0  0
   23.1644   -7.3117  -16.9416 C   0  0  2  0  0  0  0  0  0  0  0  0
   22.4812   -8.5030  -17.3328 N   0  0  0  0  0  0  0  0  0  0  0  0
   22.2354   -6.3623  -16.2288 C   0  0  0  0  0  0  0  0  0  0  0  0
   21.4619   -5.5992  -16.8711 O   0  0  0  0  0  0  0  0  0  0  0  0
   24.2133   -8.0933  -19.9256 C   0  0  0  0  0  0  0  0  0  0  0  0
   25.0264   -8.8659  -20.7359 C   0  0  0  0  0  0  0  0  0  0  0  0
   21.1100   -7.2139  -12.3114 C   0  0  0  0  0  0  0  0  0  0  0  0
   20.3179   -6.3337  -13.2589 C   0  0  1  0  0  0  0  0  0  0  0  0
   19.4552   -5.5433  -12.5377 O   0  0  0  0  0  0  0  0  0  0  0  0
   21.2593   -5.4968  -14.1014 C   0  0  2  0  0  0  0  0  0  0  0  0
   22.2148   -6.3104  -14.8093 N   0  0  0  0  0  0  0  0  0  0  0  0
   21.9862   -4.5503  -13.2236 C   0  0  0  0  0  0  0  0  0  0  0  0
   23.3733   -4.6225  -13.0523 O   0  0  0  0  0  0  0  0  0  0  0  0
   21.3689   -3.6588  -12.6120 O   0  0  0  0  0  0  0  0  0  0  0  0
  2  1  1  1
  3  2  1  0
  4  3  1  0
  4  5  1  0
  5  9  1  0
  5  6  2  0
  7  2  1  0
  7  8  2  0
 10 11  1  0
 11 12  2  0
 12 13  1  0
 14 13  2  0
 14 15  1  0
 16 15  1  6
 16 17  1  0
 17  7  1  0
 18 16  1  0
 19 18  2  0
 20 14  1  0
 21 11  1  0
 21 20  2  0
 23 22  1  1
 23 25  1  0
 24 23  1  0
 25 27  1  0
 25 26  1  1
 26 18  1  0
 27 28  1  0
 29 27  2  0
M  END
$$$$
