EYT.pdb
     RDKit          3D

 29 29  0  0  1  0  0  0  0  0999 V2000
   22.1976  -35.2122   -9.5103 N   0  0  0  0  0  0  0  0  0  0  0  0
   21.8063  -35.7331   -8.1931 C   0  0  1  0  0  0  0  0  0  0  0  0
   21.7666  -37.2307   -8.3132 C   0  0  0  0  0  0  0  0  0  0  0  0
   20.4508  -37.8555   -8.0394 C   0  0  0  0  0  0  0  0  0  0  0  0
   20.4012  -38.4934   -6.7234 C   0  0  0  0  0  0  0  0  0  0  0  0
   19.3739  -39.0316   -6.2721 O   0  0  0  0  0  0  0  0  0  0  0  0
   22.8313  -35.3723   -7.1791 C   0  0  0  0  0  0  0  0  0  0  0  0
   24.0254  -35.3004   -7.5492 O   0  0  0  0  0  0  0  0  0  0  0  0
   21.5278  -38.5290   -5.8943 O   0  0  0  0  0  0  0  0  0  0  0  0
   26.7107  -31.8474   -9.6109 O   0  0  0  0  0  0  0  0  0  0  0  0
   26.0310  -32.2005   -8.4542 C   0  0  0  0  0  0  0  0  0  0  0  0
   26.6064  -32.7675   -7.3515 C   0  0  0  0  0  0  0  0  0  0  0  0
   25.8800  -33.0988   -6.2264 C   0  0  0  0  0  0  0  0  0  0  0  0
   24.5405  -32.8680   -6.1746 C   0  0  0  0  0  0  0  0  0  0  0  0
   23.6695  -33.1791   -5.0275 C   0  0  0  0  0  0  0  0  0  0  0  0
   23.3638  -34.6375   -4.8820 C   0  0  2  0  0  0  0  0  0  0  0  0
   22.4289  -35.1248   -5.8451 N   0  0  0  0  0  0  0  0  0  0  0  0
   22.8504  -34.8356   -3.4786 C   0  0  0  0  0  0  0  0  0  0  0  0
   21.7823  -34.2867   -3.0899 O   0  0  0  0  0  0  0  0  0  0  0  0
   23.9445  -32.2946   -7.2829 C   0  0  0  0  0  0  0  0  0  0  0  0
   24.6665  -31.9597   -8.4149 C   0  0  0  0  0  0  0  0  0  0  0  0
   22.0316  -38.1571   -1.7976 C   0  0  0  0  0  0  0  0  0  0  0  0
   23.0723  -37.4381   -0.9608 C   0  0  1  0  0  0  0  0  0  0  0  0
   24.3133  -37.9719   -1.2145 O   0  0  0  0  0  0  0  0  0  0  0  0
   23.0404  -35.9520   -1.2547 C   0  0  2  0  0  0  0  0  0  0  0  0
   23.5667  -35.6509   -2.5619 N   0  0  0  0  0  0  0  0  0  0  0  0
   23.8419  -35.2371   -0.2343 C   0  0  0  0  0  0  0  0  0  0  0  0
   25.0037  -34.5333   -0.5714 O   0  0  0  0  0  0  0  0  0  0  0  0
   23.4930  -35.2482    0.9607 O   0  0  0  0  0  0  0  0  0  0  0  0
  2  1  1  6
  3  2  1  0
  4  3  1  0
  4  5  1  0
  5  9  1  0
  5  6  2  0
  7  2  1  0
  7  8  2  0
 10 11  1  0
 11 12  2  0
 12 13  1  0
 14 13  2  0
 14 15  1  0
 16 15  1  6
 16 17  1  0
 17  7  1  0
 18 16  1  0
 19 18  2  0
 20 14  1  0
 21 11  1  0
 21 20  2  0
 23 22  1  6
 23 25  1  0
 24 23  1  0
 25 27  1  0
 25 26  1  6
 26 18  1  0
 27 28  1  0
 29 27  2  0
M  END
$$$$
