EYT.pdb
     RDKit          3D

 29 29  0  0  1  0  0  0  0  0999 V2000
   28.0664  -35.0966   -9.4363 N   0  0  0  0  0  0  0  0  0  0  0  0
   27.5986  -35.1384   -8.0439 C   0  0  1  0  0  0  0  0  0  0  0  0
   27.0293  -36.5110   -7.8186 C   0  0  0  0  0  0  0  0  0  0  0  0
   25.7483  -36.7890   -8.5102 C   0  0  0  0  0  0  0  0  0  0  0  0
   25.2118  -38.1092   -8.1777 C   0  0  0  0  0  0  0  0  0  0  0  0
   24.1925  -38.5789   -8.7154 O   0  0  0  0  0  0  0  0  0  0  0  0
   28.7449  -34.9496   -7.1169 C   0  0  0  0  0  0  0  0  0  0  0  0
   29.9020  -35.0736   -7.5791 O   0  0  0  0  0  0  0  0  0  0  0  0
   25.8312  -38.9213   -7.2213 O   0  0  0  0  0  0  0  0  0  0  0  0
   32.6452  -31.0164   -9.3176 O   0  0  0  0  0  0  0  0  0  0  0  0
   32.0676  -31.5326   -8.1666 C   0  0  0  0  0  0  0  0  0  0  0  0
   32.7469  -32.1842   -7.1755 C   0  0  0  0  0  0  0  0  0  0  0  0
   32.1195  -32.6780   -6.0505 C   0  0  0  0  0  0  0  0  0  0  0  0
   30.7775  -32.5304   -5.8855 C   0  0  0  0  0  0  0  0  0  0  0  0
   30.0065  -33.0147   -4.7269 C   0  0  0  0  0  0  0  0  0  0  0  0
   29.5743  -34.4431   -4.8463 C   0  0  2  0  0  0  0  0  0  0  0  0
   28.4939  -34.6395   -5.7591 N   0  0  0  0  0  0  0  0  0  0  0  0
   29.2030  -34.9017   -3.4591 C   0  0  0  0  0  0  0  0  0  0  0  0
   28.2196  -34.4008   -2.8465 O   0  0  0  0  0  0  0  0  0  0  0  0
   30.0768  -31.8731   -6.8802 C   0  0  0  0  0  0  0  0  0  0  0  0
   30.6992  -31.3752   -8.0113 C   0  0  0  0  0  0  0  0  0  0  0  0
   28.2924  -38.4184   -2.3100 C   0  0  0  0  0  0  0  0  0  0  0  0
   29.5058  -37.9514   -1.5291 C   0  0  1  0  0  0  0  0  0  0  0  0
   30.6414  -38.5015   -2.0740 O   0  0  0  0  0  0  0  0  0  0  0  0
   29.5724  -36.4376   -1.5270 C   0  0  2  0  0  0  0  0  0  0  0  0
   29.9606  -35.9146   -2.8124 N   0  0  0  0  0  0  0  0  0  0  0  0
   30.5532  -35.9953   -0.5087 C   0  0  0  0  0  0  0  0  0  0  0  0
   30.3154  -36.1564    0.8610 O   0  0  0  0  0  0  0  0  0  0  0  0
   31.6242  -35.4640   -0.8559 O   0  0  0  0  0  0  0  0  0  0  0  0
  2  1  1  6
  3  2  1  0
  4  3  1  0
  4  5  1  0
  5  9  1  0
  5  6  2  0
  7  2  1  0
  7  8  2  0
 10 11  1  0
 11 12  2  0
 12 13  1  0
 14 13  2  0
 14 15  1  0
 16 15  1  1
 16 17  1  0
 17  7  1  0
 18 16  1  0
 19 18  2  0
 20 14  1  0
 21 11  1  0
 21 20  2  0
 23 22  1  6
 23 25  1  0
 24 23  1  0
 25 27  1  0
 25 26  1  6
 26 18  1  0
 27 28  1  0
 29 27  2  0
M  END
$$$$
