RAE.pdb
     RDKit          3D

 26 25  0  0  1  0  0  0  0  0999 V2000
   22.2354  -21.5567   -9.8370 N   0  0  0  0  0  0  0  0  0  0  0  0
   23.3987  -21.1602   -9.1339 C   0  0  0  0  0  0  0  0  0  0  0  0
   23.4555  -21.2351   -7.8548 N   0  0  0  0  0  0  0  0  0  0  0  0
   24.5238  -20.6679   -9.8819 N   0  0  0  0  0  0  0  0  0  0  0  0
   24.4498  -20.5732  -11.3223 C   0  0  0  0  0  0  0  0  0  0  0  0
   25.7134  -20.8610  -12.0341 C   0  0  0  0  0  0  0  0  0  0  0  0
   25.7622  -20.6380  -13.5087 C   0  0  0  0  0  0  0  0  0  0  0  0
   25.1882  -21.6877  -14.3800 C   0  0  2  0  0  0  0  0  0  0  0  0
   26.2656  -22.6407  -14.7170 N   0  0  0  0  0  0  0  0  0  0  0  0
   24.5850  -21.2732  -15.6500 C   0  0  0  0  0  0  0  0  0  0  0  0
   25.2615  -20.6201  -16.4973 O   0  0  0  0  0  0  0  0  0  0  0  0
   24.2521  -20.9924   -7.2583 C   0  0  0  0  0  0  0  0  0  0  0  0
   21.9393  -22.2466  -18.0077 C   0  0  1  0  0  0  0  0  0  0  0  0
   22.7286  -21.1098  -17.3438 N   0  0  0  0  0  0  0  0  0  0  0  0
   23.2327  -21.5468  -16.0466 C   0  0  0  0  0  0  0  0  0  0  0  0
   21.7367  -20.0341  -17.0972 O   0  0  0  0  0  0  0  0  0  0  0  0
   21.1825  -19.9425  -15.9759 N   0  0  0  0  0  0  0  0  0  0  0  0
   21.3746  -19.0904  -18.0692 C   0  0  2  0  0  0  0  0  0  0  0  0
   20.4462  -17.9680  -17.8216 C   0  0  0  0  0  0  0  0  0  0  0  0
   19.3232  -18.5101  -17.0307 C   0  0  0  0  0  0  0  0  0  0  0  0
   18.3267  -17.5127  -16.5949 C   0  0  0  0  0  0  0  0  0  0  0  0
   17.2472  -18.1412  -15.8108 O   0  0  0  0  0  0  0  0  0  0  0  0
   17.4367  -19.3078  -15.3743 C   0  0  0  0  0  0  0  0  0  0  0  0
   21.2355  -16.8543  -17.3553 O   0  0  0  0  0  0  0  0  0  0  0  0
   22.0987  -16.9788  -16.4148 O   0  0  0  0  0  0  0  0  0  0  0  0
   16.0311  -17.4869  -15.5326 O   0  0  0  0  0  0  0  0  0  0  0  0
  2  1  1  0
  3  2  2  0
  4  2  1  0
  5  4  1  0
  6  5  1  0
  7  6  1  0
  8 10  1  0
  8  7  1  0
  8  9  1  6
 10 14  1  0
 11 10  2  0
 13 12  1  6
 14 13  1  0
 15 17  1  0
 15 13  1  0
 16 15  2  0
 18 17  1  0
 18 19  1  6
 19 20  1  0
 20 21  1  0
 21 25  1  0
 22 21  2  0
 23 18  1  0
 24 23  2  0
 26 23  1  0
M  END
$$$$
