RAE.pdb
     RDKit          3D

 26 25  0  0  1  0  0  0  0  0999 V2000
   25.0091  -19.4588   -9.0794 N   0  0  0  0  0  0  0  0  0  0  0  0
   25.5831  -20.6430   -8.5566 C   0  0  0  0  0  0  0  0  0  0  0  0
   25.3494  -21.0144   -7.3515 N   0  0  0  0  0  0  0  0  0  0  0  0
   26.4392  -21.4281   -9.4041 N   0  0  0  0  0  0  0  0  0  0  0  0
   26.0660  -21.6778  -10.7780 C   0  0  0  0  0  0  0  0  0  0  0  0
   26.0397  -20.4816  -11.6466 C   0  0  0  0  0  0  0  0  0  0  0  0
   25.4996  -20.6230  -13.0305 C   0  0  0  0  0  0  0  0  0  0  0  0
   24.6495  -21.8000  -13.3175 C   0  0  2  0  0  0  0  0  0  0  0  0
   25.4151  -22.7142  -14.1898 N   0  0  0  0  0  0  0  0  0  0  0  0
   23.3613  -21.5729  -13.9788 C   0  0  0  0  0  0  0  0  0  0  0  0
   23.3120  -21.3379  -15.2216 O   0  0  0  0  0  0  0  0  0  0  0  0
   25.6777  -21.8714   -6.8964 C   0  0  0  0  0  0  0  0  0  0  0  0
   19.6464  -21.4317  -13.1292 C   0  0  1  0  0  0  0  0  0  0  0  0
   20.8642  -21.2539  -14.0465 N   0  0  0  0  0  0  0  0  0  0  0  0
   22.0850  -21.5891  -13.3218 C   0  0  0  0  0  0  0  0  0  0  0  0
   20.9142  -19.8037  -14.3569 O   0  0  0  0  0  0  0  0  0  0  0  0
   21.3365  -18.9961  -13.4955 N   0  0  0  0  0  0  0  0  0  0  0  0
   20.5068  -19.2709  -15.5885 C   0  0  1  0  0  0  0  0  0  0  0  0
   20.6579  -17.8492  -15.9610 C   0  0  0  0  0  0  0  0  0  0  0  0
   21.7510  -17.7817  -16.9515 C   0  0  0  0  0  0  0  0  0  0  0  0
   21.9306  -16.4663  -17.5956 C   0  0  0  0  0  0  0  0  0  0  0  0
   22.9530  -16.5246  -18.6571 O   0  0  0  0  0  0  0  0  0  0  0  0
   22.7655  -17.3221  -19.6142 C   0  0  0  0  0  0  0  0  0  0  0  0
   19.3396  -17.3395  -16.2491 O   0  0  0  0  0  0  0  0  0  0  0  0
   18.3721  -18.1095  -16.5899 O   0  0  0  0  0  0  0  0  0  0  0  0
   24.1125  -15.7248  -18.6391 O   0  0  0  0  0  0  0  0  0  0  0  0
  2  1  1  0
  3  2  2  0
  4  2  1  0
  5  4  1  0
  6  5  1  0
  7  6  1  0
  8 10  1  0
  8  7  1  0
  8  9  1  6
 10 14  1  0
 11 10  2  0
 13 12  1  6
 14 13  1  0
 15 17  1  0
 15 13  1  0
 16 15  2  0
 18 17  1  0
 18 19  1  1
 19 20  1  0
 20 21  1  0
 21 25  1  0
 22 21  2  0
 23 18  1  0
 24 23  2  0
 26 23  1  0
M  END
$$$$
