RAE.pdb
     RDKit          3D

 26 25  0  0  1  0  0  0  0  0999 V2000
   19.2994  -13.4640  -19.7775 N   0  0  0  0  0  0  0  0  0  0  0  0
   18.7883  -12.1456  -19.7042 C   0  0  0  0  0  0  0  0  0  0  0  0
   17.7992  -11.7787  -20.4335 N   0  0  0  0  0  0  0  0  0  0  0  0
   19.4006  -11.2171  -18.7928 N   0  0  0  0  0  0  0  0  0  0  0  0
   20.5630  -11.6117  -18.0297 C   0  0  0  0  0  0  0  0  0  0  0  0
   21.1520  -10.5462  -17.1906 C   0  0  0  0  0  0  0  0  0  0  0  0
   20.2703   -9.4286  -16.7430 C   0  0  0  0  0  0  0  0  0  0  0  0
   20.8811   -8.3614  -15.9194 C   0  0  2  0  0  0  0  0  0  0  0  0
   21.3522   -8.9709  -14.6588 N   0  0  0  0  0  0  0  0  0  0  0  0
   20.0437   -7.2187  -15.5434 C   0  0  0  0  0  0  0  0  0  0  0  0
   19.4416   -7.2049  -14.4301 O   0  0  0  0  0  0  0  0  0  0  0  0
   17.3784  -10.8458  -20.4769 C   0  0  0  0  0  0  0  0  0  0  0  0
   19.3139   -3.6800  -16.6776 C   0  0  1  0  0  0  0  0  0  0  0  0
   18.9972   -4.9532  -15.8807 N   0  0  0  0  0  0  0  0  0  0  0  0
   19.8259   -6.0555  -16.3560 C   0  0  0  0  0  0  0  0  0  0  0  0
   17.5877   -5.2817  -16.2084 O   0  0  0  0  0  0  0  0  0  0  0  0
   17.3312   -6.0121  -17.1951 N   0  0  0  0  0  0  0  0  0  0  0  0
   16.4991   -4.8116  -15.4599 C   0  0  1  0  0  0  0  0  0  0  0  0
   15.0874   -5.0891  -15.7960 C   0  0  0  0  0  0  0  0  0  0  0  0
   14.3824   -5.3195  -14.5192 C   0  0  0  0  0  0  0  0  0  0  0  0
   12.9309   -5.5559  -14.6404 C   0  0  0  0  0  0  0  0  0  0  0  0
   12.3152   -5.7960  -13.3218 O   0  0  0  0  0  0  0  0  0  0  0  0
   13.0309   -5.6339  -12.2977 C   0  0  0  0  0  0  0  0  0  0  0  0
   14.6609   -4.0725  -16.7263 O   0  0  0  0  0  0  0  0  0  0  0  0
   15.2038   -2.9110  -16.7607 O   0  0  0  0  0  0  0  0  0  0  0  0
   10.9708   -6.1890  -13.1719 O   0  0  0  0  0  0  0  0  0  0  0  0
  2  1  1  0
  3  2  2  0
  4  2  1  0
  5  4  1  0
  6  5  1  0
  7  6  1  0
  8 10  1  0
  8  7  1  0
  8  9  1  1
 10 14  1  0
 11 10  2  0
 13 12  1  1
 14 13  1  0
 15 17  1  0
 15 13  1  0
 16 15  2  0
 18 17  1  0
 18 19  1  6
 19 20  1  0
 20 21  1  0
 21 25  1  0
 22 21  2  0
 23 18  1  0
 24 23  2  0
 26 23  1  0
M  END
$$$$
