RAE.pdb
     RDKit          3D

 26 25  0  0  1  0  0  0  0  0999 V2000
   17.3667  -17.3412  -16.3309 N   0  0  0  0  0  0  0  0  0  0  0  0
   16.9792  -17.2584  -14.9716 C   0  0  0  0  0  0  0  0  0  0  0  0
   16.5393  -18.2878  -14.3459 N   0  0  0  0  0  0  0  0  0  0  0  0
   17.0866  -15.9921  -14.2987 N   0  0  0  0  0  0  0  0  0  0  0  0
   17.1475  -14.7681  -15.0649 C   0  0  0  0  0  0  0  0  0  0  0  0
   18.4458  -14.0622  -15.0145 C   0  0  0  0  0  0  0  0  0  0  0  0
   18.5120  -12.6638  -15.5310 C   0  0  0  0  0  0  0  0  0  0  0  0
   18.3441  -12.4624  -16.9876 C   0  0  2  0  0  0  0  0  0  0  0  0
   19.4716  -13.1267  -17.6733 N   0  0  0  0  0  0  0  0  0  0  0  0
   18.3013  -11.0865  -17.4911 C   0  0  0  0  0  0  0  0  0  0  0  0
   19.2260  -10.6482  -18.2361 O   0  0  0  0  0  0  0  0  0  0  0  0
   16.2083  -18.3250  -13.3771 C   0  0  0  0  0  0  0  0  0  0  0  0
   15.8966   -8.1444  -17.6176 C   0  0  2  0  0  0  0  0  0  0  0  0
   17.2589   -8.8192  -17.8295 N   0  0  0  0  0  0  0  0  0  0  0  0
   17.2623  -10.1378  -17.2058 C   0  0  0  0  0  0  0  0  0  0  0  0
   18.2339   -7.9760  -17.0944 O   0  0  0  0  0  0  0  0  0  0  0  0
   18.5195   -8.2472  -15.9037 N   0  0  0  0  0  0  0  0  0  0  0  0
   18.8706   -6.8662  -17.6684 C   0  0  1  0  0  0  0  0  0  0  0  0
   19.8131   -5.9906  -16.9418 C   0  0  0  0  0  0  0  0  0  0  0  0
   20.6164   -5.2885  -17.9626 C   0  0  0  0  0  0  0  0  0  0  0  0
   21.6269   -4.3547  -17.4295 C   0  0  0  0  0  0  0  0  0  0  0  0
   22.2699   -3.5860  -18.5116 O   0  0  0  0  0  0  0  0  0  0  0  0
   21.9574   -3.8645  -19.6999 C   0  0  0  0  0  0  0  0  0  0  0  0
   19.0519   -5.2728  -15.9487 O   0  0  0  0  0  0  0  0  0  0  0  0
   17.8688   -4.8365  -16.1829 O   0  0  0  0  0  0  0  0  0  0  0  0
   23.2040   -2.5612  -18.2634 O   0  0  0  0  0  0  0  0  0  0  0  0
  2  1  1  0
  3  2  2  0
  4  2  1  0
  5  4  1  0
  6  5  1  0
  7  6  1  0
  8 10  1  0
  8  7  1  0
  8  9  1  6
 10 14  1  0
 11 10  2  0
 13 12  1  6
 14 13  1  0
 15 17  1  0
 15 13  1  0
 16 15  2  0
 18 17  1  0
 18 19  1  1
 19 20  1  0
 20 21  1  0
 21 25  1  0
 22 21  2  0
 23 18  1  0
 24 23  2  0
 26 23  1  0
M  END
$$$$
