RAE.pdb
     RDKit          3D

 26 25  0  0  1  0  0  0  0  0999 V2000
   11.2012  -11.1453  -13.7589 N   0  0  0  0  0  0  0  0  0  0  0  0
   11.4313   -9.7560  -13.6118 C   0  0  0  0  0  0  0  0  0  0  0  0
   10.5063   -8.9030  -13.8599 N   0  0  0  0  0  0  0  0  0  0  0  0
   12.7285   -9.3129  -13.1773 N   0  0  0  0  0  0  0  0  0  0  0  0
   13.7624  -10.2792  -12.8832 C   0  0  0  0  0  0  0  0  0  0  0  0
   15.0441   -9.7036  -12.4225 C   0  0  0  0  0  0  0  0  0  0  0  0
   16.2055  -10.6214  -12.2341 C   0  0  0  0  0  0  0  0  0  0  0  0
   17.3963  -10.0859  -11.5374 C   0  0  2  0  0  0  0  0  0  0  0  0
   16.9373   -9.3918  -10.3167 N   0  0  0  0  0  0  0  0  0  0  0  0
   18.2483   -9.1381  -12.2614 C   0  0  0  0  0  0  0  0  0  0  0  0
   18.0797   -7.8912  -12.1237 O   0  0  0  0  0  0  0  0  0  0  0  0
   10.5592   -7.8863  -13.7461 C   0  0  0  0  0  0  0  0  0  0  0  0
   21.0526   -9.1606  -14.8458 C   0  0  1  0  0  0  0  0  0  0  0  0
   20.0252   -8.4895  -13.9238 N   0  0  0  0  0  0  0  0  0  0  0  0
   19.3074   -9.5032  -13.1591 C   0  0  0  0  0  0  0  0  0  0  0  0
   19.0471   -7.8404  -14.8316 O   0  0  0  0  0  0  0  0  0  0  0  0
   17.9778   -8.4291  -15.1191 N   0  0  0  0  0  0  0  0  0  0  0  0
   19.2543   -6.5754  -15.4002 C   0  0  1  0  0  0  0  0  0  0  0  0
   18.2494   -5.8659  -16.2185 C   0  0  0  0  0  0  0  0  0  0  0  0
   17.0286   -5.7571  -15.3949 C   0  0  0  0  0  0  0  0  0  0  0  0
   15.9543   -4.9290  -15.9759 C   0  0  0  0  0  0  0  0  0  0  0  0
   14.8081   -4.8149  -15.0547 O   0  0  0  0  0  0  0  0  0  0  0  0
   15.0283   -4.9372  -13.8203 C   0  0  0  0  0  0  0  0  0  0  0  0
   18.8952   -4.7028  -16.7763 O   0  0  0  0  0  0  0  0  0  0  0  0
   20.0817   -4.3547  -16.4358 O   0  0  0  0  0  0  0  0  0  0  0  0
   13.4951   -4.5710  -15.5030 O   0  0  0  0  0  0  0  0  0  0  0  0
  2  1  1  0
  3  2  2  0
  4  2  1  0
  5  4  1  0
  6  5  1  0
  7  6  1  0
  8 10  1  0
  8  7  1  0
  8  9  1  1
 10 14  1  0
 11 10  2  0
 13 12  1  1
 14 13  1  0
 15 17  1  0
 15 13  1  0
 16 15  2  0
 18 17  1  0
 18 19  1  6
 19 20  1  0
 20 21  1  0
 21 25  1  0
 22 21  2  0
 23 18  1  0
 24 23  2  0
 26 23  1  0
M  END
$$$$
