RAE.pdb
     RDKit          3D

 26 25  0  0  1  0  0  0  0  0999 V2000
   15.2429  -13.0080  -15.2266 N   0  0  0  0  0  0  0  0  0  0  0  0
   15.2848  -12.0263  -16.2462 C   0  0  0  0  0  0  0  0  0  0  0  0
   14.2247  -11.3996  -16.6041 N   0  0  0  0  0  0  0  0  0  0  0  0
   16.5440  -11.7414  -16.8793 N   0  0  0  0  0  0  0  0  0  0  0  0
   17.6086  -12.7185  -16.8457 C   0  0  0  0  0  0  0  0  0  0  0  0
   18.2306  -13.0115  -18.1547 C   0  0  0  0  0  0  0  0  0  0  0  0
   19.1851  -12.0156  -18.7240 C   0  0  0  0  0  0  0  0  0  0  0  0
   20.6123  -12.1454  -18.3547 C   0  0  2  0  0  0  0  0  0  0  0  0
   20.8956  -13.5768  -18.1230 N   0  0  0  0  0  0  0  0  0  0  0  0
   21.0829  -11.4288  -17.1658 C   0  0  0  0  0  0  0  0  0  0  0  0
   20.2616  -10.8270  -16.4139 O   0  0  0  0  0  0  0  0  0  0  0  0
   14.1278  -10.7533  -17.3929 C   0  0  0  0  0  0  0  0  0  0  0  0
   24.3319  -10.7202  -15.3002 C   0  0  2  0  0  0  0  0  0  0  0  0
   22.8289  -10.5646  -15.5700 N   0  0  0  0  0  0  0  0  0  0  0  0
   22.4539  -11.3354  -16.7503 C   0  0  0  0  0  0  0  0  0  0  0  0
   22.6341   -9.1298  -15.8943 O   0  0  0  0  0  0  0  0  0  0  0  0
   22.6627   -8.7514  -17.0896 N   0  0  0  0  0  0  0  0  0  0  0  0
   22.4138   -8.1482  -14.9174 C   0  0  1  0  0  0  0  0  0  0  0  0
   22.1151   -6.7340  -15.2237 C   0  0  0  0  0  0  0  0  0  0  0  0
   20.8983   -6.7267  -16.0603 C   0  0  0  0  0  0  0  0  0  0  0  0
   20.2627   -5.4056  -16.2278 C   0  0  0  0  0  0  0  0  0  0  0  0
   19.9143   -5.1536  -17.6386 O   0  0  0  0  0  0  0  0  0  0  0  0
   20.0643   -6.0960  -18.4612 C   0  0  0  0  0  0  0  0  0  0  0  0
   22.1876   -6.0024  -13.9825 O   0  0  0  0  0  0  0  0  0  0  0  0
   22.2366   -4.7212  -13.9500 O   0  0  0  0  0  0  0  0  0  0  0  0
   19.4204   -3.9136  -18.0888 O   0  0  0  0  0  0  0  0  0  0  0  0
  2  1  1  0
  3  2  2  0
  4  2  1  0
  5  4  1  0
  6  5  1  0
  7  6  1  0
  8 10  1  0
  8  7  1  0
  8  9  1  1
 10 14  1  0
 11 10  2  0
 13 12  1  1
 14 13  1  0
 15 17  1  0
 15 13  1  0
 16 15  2  0
 18 17  1  0
 18 19  1  6
 19 20  1  0
 20 21  1  0
 21 25  1  0
 22 21  2  0
 23 18  1  0
 24 23  2  0
 26 23  1  0
M  END
$$$$
