RAE.pdb
     RDKit          3D

 26 25  0  0  1  0  0  0  0  0999 V2000
   26.4953  -24.5309  -16.4506 N   0  0  0  0  0  0  0  0  0  0  0  0
   25.7429  -25.3962  -17.2813 C   0  0  0  0  0  0  0  0  0  0  0  0
   24.7472  -24.9592  -17.9612 N   0  0  0  0  0  0  0  0  0  0  0  0
   26.1152  -26.7834  -17.3508 N   0  0  0  0  0  0  0  0  0  0  0  0
   27.2732  -27.2592  -16.6284 C   0  0  0  0  0  0  0  0  0  0  0  0
   27.5998  -28.6858  -16.8394 C   0  0  0  0  0  0  0  0  0  0  0  0
   28.7860  -29.2526  -16.1334 C   0  0  0  0  0  0  0  0  0  0  0  0
   29.0902  -30.6852  -16.3460 C   0  0  2  0  0  0  0  0  0  0  0  0
   29.4776  -30.8646  -17.7604 N   0  0  0  0  0  0  0  0  0  0  0  0
   28.0299  -31.6607  -16.0766 C   0  0  0  0  0  0  0  0  0  0  0  0
   27.4353  -32.2405  -17.0318 O   0  0  0  0  0  0  0  0  0  0  0  0
   24.0731  -25.5166  -18.4943 C   0  0  0  0  0  0  0  0  0  0  0  0
   26.2386  -33.2584  -13.1135 C   0  0  1  0  0  0  0  0  0  0  0  0
   26.4527  -32.9586  -14.6036 N   0  0  0  0  0  0  0  0  0  0  0  0
   27.5742  -32.0408  -14.7694 C   0  0  0  0  0  0  0  0  0  0  0  0
   25.2262  -32.2475  -15.0418 O   0  0  0  0  0  0  0  0  0  0  0  0
   25.1263  -31.0100  -14.8645 N   0  0  0  0  0  0  0  0  0  0  0  0
   24.1459  -32.8951  -15.6583 C   0  0  1  0  0  0  0  0  0  0  0  0
   22.9400  -32.1977  -16.1507 C   0  0  0  0  0  0  0  0  0  0  0  0
   22.5882  -32.8162  -17.4445 C   0  0  0  0  0  0  0  0  0  0  0  0
   21.3750  -32.2747  -18.0869 C   0  0  0  0  0  0  0  0  0  0  0  0
   21.0262  -33.0362  -19.3008 O   0  0  0  0  0  0  0  0  0  0  0  0
   21.4430  -34.2215  -19.3945 C   0  0  0  0  0  0  0  0  0  0  0  0
   22.0019  -32.1401  -15.0564 O   0  0  0  0  0  0  0  0  0  0  0  0
   22.0944  -32.9163  -14.0395 O   0  0  0  0  0  0  0  0  0  0  0  0
   20.2484  -32.4915  -20.3414 O   0  0  0  0  0  0  0  0  0  0  0  0
  2  1  1  0
  3  2  2  0
  4  2  1  0
  5  4  1  0
  6  5  1  0
  7  6  1  0
  8 10  1  0
  8  7  1  0
  8  9  1  6
 10 14  1  0
 11 10  2  0
 13 12  1  6
 14 13  1  0
 15 17  1  0
 15 13  1  0
 16 15  2  0
 18 17  1  0
 18 19  1  1
 19 20  1  0
 20 21  1  0
 21 25  1  0
 22 21  2  0
 23 18  1  0
 24 23  2  0
 26 23  1  0
M  END
$$$$
