RAE.pdb
     RDKit          3D

 26 25  0  0  1  0  0  0  0  0999 V2000
   17.3854  -23.9264  -11.7905 N   0  0  0  0  0  0  0  0  0  0  0  0
   17.0655  -22.9206  -12.7344 C   0  0  0  0  0  0  0  0  0  0  0  0
   15.8932  -22.4022  -12.7761 N   0  0  0  0  0  0  0  0  0  0  0  0
   18.0832  -22.4866  -13.6530 N   0  0  0  0  0  0  0  0  0  0  0  0
   19.4441  -22.3147  -13.1973 C   0  0  0  0  0  0  0  0  0  0  0  0
   19.8823  -20.9101  -13.0510 C   0  0  0  0  0  0  0  0  0  0  0  0
   20.7832  -20.3372  -14.0935 C   0  0  0  0  0  0  0  0  0  0  0  0
   22.1442  -20.9065  -14.2113 C   0  0  2  0  0  0  0  0  0  0  0  0
   22.0571  -22.3569  -13.9437 N   0  0  0  0  0  0  0  0  0  0  0  0
   23.1884  -20.3808  -13.3271 C   0  0  0  0  0  0  0  0  0  0  0  0
   23.7153  -19.2533  -13.5581 O   0  0  0  0  0  0  0  0  0  0  0  0
   15.5598  -21.6845  -13.4265 C   0  0  0  0  0  0  0  0  0  0  0  0
   24.9637  -21.0629  -10.0667 C   0  0  2  0  0  0  0  0  0  0  0  0
   24.9431  -20.6226  -11.5370 N   0  0  0  0  0  0  0  0  0  0  0  0
   23.7004  -21.0543  -12.1673 C   0  0  0  0  0  0  0  0  0  0  0  0
   26.0527  -21.3645  -12.1852 O   0  0  0  0  0  0  0  0  0  0  0  0
   25.8113  -22.4216  -12.8154 N   0  0  0  0  0  0  0  0  0  0  0  0
   27.3886  -20.9413  -12.1330 C   0  0  1  0  0  0  0  0  0  0  0  0
   28.3728  -21.1871  -13.2073 C   0  0  0  0  0  0  0  0  0  0  0  0
   27.7377  -20.7658  -14.4720 C   0  0  0  0  0  0  0  0  0  0  0  0
   28.5637  -20.9556  -15.6799 C   0  0  0  0  0  0  0  0  0  0  0  0
   27.7256  -21.1853  -16.8716 O   0  0  0  0  0  0  0  0  0  0  0  0
   27.1804  -20.1860  -17.4115 C   0  0  0  0  0  0  0  0  0  0  0  0
   29.6316  -20.6355  -12.7691 O   0  0  0  0  0  0  0  0  0  0  0  0
   29.7003  -19.5396  -12.1063 O   0  0  0  0  0  0  0  0  0  0  0  0
   27.5224  -22.4662  -17.4215 O   0  0  0  0  0  0  0  0  0  0  0  0
  2  1  1  0
  3  2  2  0
  4  2  1  0
  5  4  1  0
  6  5  1  0
  7  6  1  0
  8 10  1  0
  8  7  1  0
  8  9  1  1
 10 14  1  0
 11 10  2  0
 13 12  1  1
 14 13  1  0
 15 17  1  0
 15 13  1  0
 16 15  2  0
 18 17  1  0
 18 19  1  6
 19 20  1  0
 20 21  1  0
 21 25  1  0
 22 21  2  0
 23 18  1  0
 24 23  2  0
 26 23  1  0
M  END
$$$$
