IPG.pdb
     RDKit          3D

 20 20  0  0  1  0  0  0  0  0999 V2000
   22.3054  -15.2485  -18.5345 C   0  0  0  0  0  0  0  0  0  0  0  0
   23.7532  -14.8901  -18.2478 C   0  0  0  0  0  0  0  0  0  0  0  0
   23.7468  -13.5652  -17.5555 C   0  0  2  0  0  0  0  0  0  0  0  0
   22.9784  -12.5367  -18.3589 C   0  0  0  0  0  0  0  0  0  0  0  0
   25.1548  -13.0827  -17.2593 C   0  0  2  0  0  0  0  0  0  0  0  0
   25.8115  -14.1535  -16.5414 N   0  0  0  0  0  0  0  0  0  0  0  0
   25.2081  -11.8434  -16.4881 C   0  0  0  0  0  0  0  0  0  0  0  0
   24.8145  -11.8213  -15.2678 O   0  0  0  0  0  0  0  0  0  0  0  0
   25.6985  -10.6436  -17.0858 N   0  0  0  0  0  0  0  0  0  0  0  0
   26.1994  -10.4383  -18.4195 C   0  0  0  0  0  0  0  0  0  0  0  0
   26.7493   -9.0135  -18.4814 C   0  0  0  0  0  0  0  0  0  0  0  0
   27.0198   -8.7615  -17.0099 C   0  0  0  0  0  0  0  0  0  0  0  0
   25.7886   -9.3410  -16.3991 C   0  0  1  0  0  0  0  0  0  0  0  0
   24.5592   -8.5771  -16.7376 C   0  0  0  0  0  0  0  0  0  0  0  0
   24.0092   -8.6588  -17.8718 O   0  0  0  0  0  0  0  0  0  0  0  0
   23.9798   -7.7220  -15.7478 N   0  0  0  0  0  0  0  0  0  0  0  0
   22.7278   -7.0742  -15.9379 C   0  0  0  0  0  0  0  0  0  0  0  0
   22.2401   -6.3584  -14.7377 C   0  0  0  0  0  0  0  0  0  0  0  0
   22.4565   -4.9881  -14.6945 O   0  0  0  0  0  0  0  0  0  0  0  0
   21.6543   -6.8976  -13.7733 O   0  0  0  0  0  0  0  0  0  0  0  0
  2  1  1  0
  3  2  1  0
  3  5  1  0
  3  4  1  6
  5  7  1  0
  5  6  1  1
  7  9  1  0
  8  7  2  0
  9 13  1  0
  9 10  1  0
 11 10  1  0
 12 11  1  0
 12 13  1  0
 13 14  1  6
 14 16  1  0
 14 15  2  0
 16 17  1  0
 17 18  1  0
 18 19  1  0
 20 18  2  0
M  END
$$$$
