IPG.pdb
     RDKit          3D

 20 20  0  0  1  0  0  0  0  0999 V2000
   22.4754  -20.9832   -8.5436 C   0  0  0  0  0  0  0  0  0  0  0  0
   23.9373  -21.0410   -8.9515 C   0  0  0  0  0  0  0  0  0  0  0  0
   24.0285  -20.4764  -10.3326 C   0  0  2  0  0  0  0  0  0  0  0  0
   23.1207  -21.2249  -11.2862 C   0  0  0  0  0  0  0  0  0  0  0  0
   25.4591  -20.4663  -10.8388 C   0  0  2  0  0  0  0  0  0  0  0  0
   26.2569  -19.8550   -9.7981 N   0  0  0  0  0  0  0  0  0  0  0  0
   25.6371  -19.7556  -12.1024 C   0  0  0  0  0  0  0  0  0  0  0  0
   25.2606  -18.5352  -12.2188 O   0  0  0  0  0  0  0  0  0  0  0  0
   26.2318  -20.4129  -13.2210 N   0  0  0  0  0  0  0  0  0  0  0  0
   26.7064  -21.7678  -13.3249 C   0  0  0  0  0  0  0  0  0  0  0  0
   27.4022  -21.9003  -14.6794 C   0  0  0  0  0  0  0  0  0  0  0  0
   27.7474  -20.4482  -14.9519 C   0  0  0  0  0  0  0  0  0  0  0  0
   26.4829  -19.7794  -14.5296 C   0  0  1  0  0  0  0  0  0  0  0  0
   25.3309  -20.1099  -15.4088 C   0  0  0  0  0  0  0  0  0  0  0  0
   24.5819  -21.1030  -15.1889 O   0  0  0  0  0  0  0  0  0  0  0  0
   25.0611  -19.2773  -16.5404 N   0  0  0  0  0  0  0  0  0  0  0  0
   24.2591  -18.1059  -16.4515 C   0  0  0  0  0  0  0  0  0  0  0  0
   22.8104  -18.3632  -16.6117 C   0  0  0  0  0  0  0  0  0  0  0  0
   22.2903  -18.2406  -17.8927 O   0  0  0  0  0  0  0  0  0  0  0  0
   22.0342  -18.6794  -15.6836 O   0  0  0  0  0  0  0  0  0  0  0  0
  2  1  1  0
  3  2  1  0
  3  5  1  0
  3  4  1  6
  5  7  1  0
  5  6  1  1
  7  9  1  0
  8  7  2  0
  9 13  1  0
  9 10  1  0
 11 10  1  0
 12 11  1  0
 12 13  1  0
 13 14  1  6
 14 16  1  0
 14 15  2  0
 16 17  1  0
 17 18  1  0
 18 19  1  0
 20 18  2  0
M  END
$$$$
