IPG.pdb
     RDKit          3D

 20 20  0  0  1  0  0  0  0  0999 V2000
   27.1130  -21.4440   -4.3789 C   0  0  0  0  0  0  0  0  0  0  0  0
   27.0181  -20.2650   -5.3318 C   0  0  0  0  0  0  0  0  0  0  0  0
   28.3698  -20.0888   -5.9454 C   0  0  2  0  0  0  0  0  0  0  0  0
   29.4109  -19.7867   -4.8878 C   0  0  0  0  0  0  0  0  0  0  0  0
   28.3601  -19.0179   -7.0205 C   0  0  2  0  0  0  0  0  0  0  0  0
   27.9993  -17.7810   -6.3625 N   0  0  0  0  0  0  0  0  0  0  0  0
   27.4456  -19.2939   -8.1255 C   0  0  0  0  0  0  0  0  0  0  0  0
   26.3291  -18.6693   -8.2149 O   0  0  0  0  0  0  0  0  0  0  0  0
   27.7856  -20.2624   -9.1172 N   0  0  0  0  0  0  0  0  0  0  0  0
   28.8599  -21.2204   -9.1131 C   0  0  0  0  0  0  0  0  0  0  0  0
   28.8717  -21.8921  -10.4861 C   0  0  0  0  0  0  0  0  0  0  0  0
   28.1658  -20.8341  -11.3133 C   0  0  0  0  0  0  0  0  0  0  0  0
   27.0603  -20.4515  -10.3879 C   0  0  1  0  0  0  0  0  0  0  0  0
   26.0767  -21.5458  -10.1765 C   0  0  0  0  0  0  0  0  0  0  0  0
   26.1261  -22.3076   -9.1701 O   0  0  0  0  0  0  0  0  0  0  0  0
   25.0408  -21.7431  -11.1433 N   0  0  0  0  0  0  0  0  0  0  0  0
   23.7947  -21.0606  -11.0760 C   0  0  0  0  0  0  0  0  0  0  0  0
   23.3387  -20.5249  -12.3783 C   0  0  0  0  0  0  0  0  0  0  0  0
   22.4028  -21.2788  -13.0726 O   0  0  0  0  0  0  0  0  0  0  0  0
   23.7345  -19.4537  -12.8880 O   0  0  0  0  0  0  0  0  0  0  0  0
  2  1  1  0
  3  2  1  0
  3  5  1  0
  3  4  1  1
  5  7  1  0
  5  6  1  1
  7  9  1  0
  8  7  2  0
  9 13  1  0
  9 10  1  0
 11 10  1  0
 12 11  1  0
 12 13  1  0
 13 14  1  1
 14 16  1  0
 14 15  2  0
 16 17  1  0
 17 18  1  0
 18 19  1  0
 20 18  2  0
M  END
$$$$
