IPG.pdb
     RDKit          3D

 20 20  0  0  1  0  0  0  0  0999 V2000
   19.6464  -22.1523  -12.8025 C   0  0  0  0  0  0  0  0  0  0  0  0
   20.8193  -21.9523  -11.8584 C   0  0  0  0  0  0  0  0  0  0  0  0
   21.8675  -21.2027  -12.6161 C   0  0  2  0  0  0  0  0  0  0  0  0
   22.3097  -21.9764  -13.8406 C   0  0  0  0  0  0  0  0  0  0  0  0
   23.0531  -20.8555  -11.7347 C   0  0  2  0  0  0  0  0  0  0  0  0
   22.5153  -20.1830  -10.5721 N   0  0  0  0  0  0  0  0  0  0  0  0
   24.0555  -20.0192  -12.3900 C   0  0  0  0  0  0  0  0  0  0  0  0
   23.7463  -18.8501  -12.8169 O   0  0  0  0  0  0  0  0  0  0  0  0
   25.3899  -20.4955  -12.5621 N   0  0  0  0  0  0  0  0  0  0  0  0
   25.9630  -21.7476  -12.1432 C   0  0  0  0  0  0  0  0  0  0  0  0
   27.4635  -21.6748  -12.4256 C   0  0  0  0  0  0  0  0  0  0  0  0
   27.6647  -20.1711  -12.4443 C   0  0  0  0  0  0  0  0  0  0  0  0
   26.4698  -19.7418  -13.2272 C   0  0  1  0  0  0  0  0  0  0  0  0
   26.5137  -20.1898  -14.6438 C   0  0  0  0  0  0  0  0  0  0  0  0
   26.1036  -21.3302  -15.0002 O   0  0  0  0  0  0  0  0  0  0  0  0
   27.0369  -19.3017  -15.6358 N   0  0  0  0  0  0  0  0  0  0  0  0
   26.3492  -19.0236  -16.8495 C   0  0  0  0  0  0  0  0  0  0  0  0
   26.3306  -17.5874  -17.2071 C   0  0  0  0  0  0  0  0  0  0  0  0
   27.3411  -17.1376  -18.0455 O   0  0  0  0  0  0  0  0  0  0  0  0
   25.4777  -16.7635  -16.8102 O   0  0  0  0  0  0  0  0  0  0  0  0
  2  1  1  0
  3  2  1  0
  3  5  1  0
  3  4  1  6
  5  7  1  0
  5  6  1  1
  7  9  1  0
  8  7  2  0
  9 13  1  0
  9 10  1  0
 11 10  1  0
 12 11  1  0
 12 13  1  0
 13 14  1  6
 14 16  1  0
 14 15  2  0
 16 17  1  0
 17 18  1  0
 18 19  1  0
 20 18  2  0
M  END
$$$$
