IPG.pdb
     RDKit          3D

 20 20  0  0  1  0  0  0  0  0999 V2000
   28.2482  -17.7150  -15.9611 C   0  0  0  0  0  0  0  0  0  0  0  0
   27.1748  -18.2603  -16.8871 C   0  0  0  0  0  0  0  0  0  0  0  0
   26.1295  -18.8885  -16.0225 C   0  0  2  0  0  0  0  0  0  0  0  0
   25.5591  -17.8837  -15.0434 C   0  0  0  0  0  0  0  0  0  0  0  0
   26.6636  -20.1106  -15.2985 C   0  0  2  0  0  0  0  0  0  0  0  0
   27.1965  -20.9890  -16.3172 N   0  0  0  0  0  0  0  0  0  0  0  0
   25.6639  -20.8087  -14.4944 C   0  0  0  0  0  0  0  0  0  0  0  0
   24.7165  -21.4617  -15.0609 O   0  0  0  0  0  0  0  0  0  0  0  0
   25.7312  -20.7707  -13.0693 N   0  0  0  0  0  0  0  0  0  0  0  0
   26.6709  -20.0775  -12.2277 C   0  0  0  0  0  0  0  0  0  0  0  0
   26.3941  -20.5113  -10.7884 C   0  0  0  0  0  0  0  0  0  0  0  0
   25.7033  -21.8400  -11.0321 C   0  0  0  0  0  0  0  0  0  0  0  0
   24.8045  -21.4804  -12.1669 C   0  0  1  0  0  0  0  0  0  0  0  0
   23.7401  -20.5175  -11.7804 C   0  0  0  0  0  0  0  0  0  0  0  0
   23.8833  -19.2696  -11.9135 O   0  0  0  0  0  0  0  0  0  0  0  0
   22.5141  -21.0195  -11.2403 N   0  0  0  0  0  0  0  0  0  0  0  0
   21.3231  -20.2428  -11.2017 C   0  0  0  0  0  0  0  0  0  0  0  0
   20.4520  -20.4304  -12.3835 C   0  0  0  0  0  0  0  0  0  0  0  0
   19.3069  -21.1936  -12.2028 O   0  0  0  0  0  0  0  0  0  0  0  0
   20.6751  -19.9542  -13.5182 O   0  0  0  0  0  0  0  0  0  0  0  0
  2  1  1  0
  3  2  1  0
  3  5  1  0
  3  4  1  1
  5  7  1  0
  5  6  1  6
  7  9  1  0
  8  7  2  0
  9 13  1  0
  9 10  1  0
 11 10  1  0
 12 11  1  0
 12 13  1  0
 13 14  1  1
 14 16  1  0
 14 15  2  0
 16 17  1  0
 17 18  1  0
 18 19  1  0
 20 18  2  0
M  END
$$$$
