IPG.pdb
     RDKit          3D

 20 20  0  0  1  0  0  0  0  0999 V2000
   15.6742   -9.7253  -18.6491 C   0  0  0  0  0  0  0  0  0  0  0  0
   16.7830  -10.6358  -18.1506 C   0  0  0  0  0  0  0  0  0  0  0  0
   17.4899   -9.9044  -17.0551 C   0  0  2  0  0  0  0  0  0  0  0  0
   18.1261   -8.6320  -17.5744 C   0  0  0  0  0  0  0  0  0  0  0  0
   18.5173  -10.7848  -16.3678 C   0  0  2  0  0  0  0  0  0  0  0  0
   17.8139  -11.9729  -15.9353 N   0  0  0  0  0  0  0  0  0  0  0  0
   19.1848  -10.1464  -15.2363 C   0  0  0  0  0  0  0  0  0  0  0  0
   18.5322   -9.8781  -14.1654 O   0  0  0  0  0  0  0  0  0  0  0  0
   20.5708   -9.8141  -15.3115 N   0  0  0  0  0  0  0  0  0  0  0  0
   21.4875  -10.0062  -16.4044 C   0  0  0  0  0  0  0  0  0  0  0  0
   22.8803   -9.6331  -15.8969 C   0  0  0  0  0  0  0  0  0  0  0  0
   22.6850   -9.8184  -14.4038 C   0  0  0  0  0  0  0  0  0  0  0  0
   21.3441   -9.1915  -14.2202 C   0  0  1  0  0  0  0  0  0  0  0  0
   21.3515   -7.7253  -14.4647 C   0  0  0  0  0  0  0  0  0  0  0  0
   21.1311   -7.2343  -15.6074 O   0  0  0  0  0  0  0  0  0  0  0  0
   21.6168   -6.8416  -13.3715 N   0  0  0  0  0  0  0  0  0  0  0  0
   21.3384   -5.4480  -13.4324 C   0  0  0  0  0  0  0  0  0  0  0  0
   22.2617   -4.6948  -14.3105 C   0  0  0  0  0  0  0  0  0  0  0  0
   21.9463   -3.3661  -14.5583 O   0  0  0  0  0  0  0  0  0  0  0  0
   23.2926   -5.1684  -14.8368 O   0  0  0  0  0  0  0  0  0  0  0  0
  2  1  1  0
  3  2  1  0
  3  5  1  0
  3  4  1  6
  5  7  1  0
  5  6  1  1
  7  9  1  0
  8  7  2  0
  9 13  1  0
  9 10  1  0
 11 10  1  0
 12 11  1  0
 12 13  1  0
 13 14  1  6
 14 16  1  0
 14 15  2  0
 16 17  1  0
 17 18  1  0
 18 19  1  0
 20 18  2  0
M  END
$$$$
