IPG.pdb
     RDKit          3D

 20 20  0  0  1  0  0  0  0  0999 V2000
   21.4408  -17.8727  -17.2481 C   0  0  0  0  0  0  0  0  0  0  0  0
   22.6128  -18.7786  -17.5838 C   0  0  0  0  0  0  0  0  0  0  0  0
   23.1418  -19.3070  -16.2893 C   0  0  2  0  0  0  0  0  0  0  0  0
   23.4434  -18.1787  -15.3252 C   0  0  0  0  0  0  0  0  0  0  0  0
   24.3629  -20.1829  -16.5006 C   0  0  2  0  0  0  0  0  0  0  0  0
   23.9862  -21.1809  -17.4780 N   0  0  0  0  0  0  0  0  0  0  0  0
   24.8538  -20.8214  -15.2821 C   0  0  0  0  0  0  0  0  0  0  0  0
   24.2013  -21.7878  -14.7481 O   0  0  0  0  0  0  0  0  0  0  0  0
   26.0651  -20.3756  -14.6730 N   0  0  0  0  0  0  0  0  0  0  0  0
   26.9436  -19.3116  -15.0826 C   0  0  0  0  0  0  0  0  0  0  0  0
   28.1763  -19.3708  -14.1808 C   0  0  0  0  0  0  0  0  0  0  0  0
   28.1185  -20.8199  -13.7349 C   0  0  0  0  0  0  0  0  0  0  0  0
   26.6600  -20.9664  -13.4591 C   0  0  1  0  0  0  0  0  0  0  0  0
   26.2042  -20.1518  -12.3023 C   0  0  0  0  0  0  0  0  0  0  0  0
   25.7785  -18.9705  -12.4394 O   0  0  0  0  0  0  0  0  0  0  0  0
   26.2489  -20.7232  -10.9915 N   0  0  0  0  0  0  0  0  0  0  0  0
   25.2754  -21.6525  -10.5310 C   0  0  0  0  0  0  0  0  0  0  0  0
   23.9143  -21.0817  -10.4190 C   0  0  0  0  0  0  0  0  0  0  0  0
   23.2153  -20.8920  -11.6028 O   0  0  0  0  0  0  0  0  0  0  0  0
   23.3596  -20.7634   -9.3443 O   0  0  0  0  0  0  0  0  0  0  0  0
  2  1  1  0
  3  2  1  0
  3  5  1  0
  3  4  1  1
  5  7  1  0
  5  6  1  6
  7  9  1  0
  8  7  2  0
  9 13  1  0
  9 10  1  0
 11 10  1  0
 12 11  1  0
 12 13  1  0
 13 14  1  1
 14 16  1  0
 14 15  2  0
 16 17  1  0
 17 18  1  0
 18 19  1  0
 20 18  2  0
M  END
$$$$
