IPG.pdb
     RDKit          3D

 20 20  0  0  1  0  0  0  0  0999 V2000
   19.1628  -11.9990    6.4211 C   0  0  0  0  0  0  0  0  0  0  0  0
   18.8278  -12.3648    4.9855 C   0  0  0  0  0  0  0  0  0  0  0  0
   17.8537  -13.4975    5.0388 C   0  0  2  0  0  0  0  0  0  0  0  0
   18.4192  -14.6633    5.8228 C   0  0  0  0  0  0  0  0  0  0  0  0
   17.4262  -13.9328    3.6494 C   0  0  2  0  0  0  0  0  0  0  0  0
   16.6526  -12.8412    3.0988 N   0  0  0  0  0  0  0  0  0  0  0  0
   16.6507  -15.1703    3.6269 C   0  0  0  0  0  0  0  0  0  0  0  0
   15.3904  -15.1504    3.8637 O   0  0  0  0  0  0  0  0  0  0  0  0
   17.2883  -16.4149    3.3415 N   0  0  0  0  0  0  0  0  0  0  0  0
   18.6809  -16.6800    3.0925 C   0  0  0  0  0  0  0  0  0  0  0  0
   18.7943  -18.1462    2.6753 C   0  0  0  0  0  0  0  0  0  0  0  0
   17.3828  -18.3985    2.1793 C   0  0  0  0  0  0  0  0  0  0  0  0
   16.5901  -17.7106    3.2392 C   0  0  1  0  0  0  0  0  0  0  0  0
   16.6953  -18.3751    4.5646 C   0  0  0  0  0  0  0  0  0  0  0  0
   17.5985  -18.0762    5.3955 O   0  0  0  0  0  0  0  0  0  0  0  0
   15.7435  -19.3854    4.9110 N   0  0  0  0  0  0  0  0  0  0  0  0
   15.7239  -20.0086    6.1895 C   0  0  0  0  0  0  0  0  0  0  0  0
   16.7767  -21.0336    6.3678 C   0  0  0  0  0  0  0  0  0  0  0  0
   16.3865  -22.3600    6.2465 O   0  0  0  0  0  0  0  0  0  0  0  0
   17.9775  -20.7884    6.6169 O   0  0  0  0  0  0  0  0  0  0  0  0
  2  1  1  0
  3  2  1  0
  3  5  1  0
  3  4  1  6
  5  7  1  0
  5  6  1  1
  7  9  1  0
  8  7  2  0
  9 13  1  0
  9 10  1  0
 11 10  1  0
 12 11  1  0
 12 13  1  0
 13 14  1  1
 14 16  1  0
 14 15  2  0
 16 17  1  0
 17 18  1  0
 18 19  1  0
 20 18  2  0
M  END
$$$$
