IPG.pdb
     RDKit          3D

 20 20  0  0  1  0  0  0  0  0999 V2000
   20.0109  -20.2849  -15.0766 C   0  0  0  0  0  0  0  0  0  0  0  0
   20.8405  -19.0900  -15.5133 C   0  0  0  0  0  0  0  0  0  0  0  0
   22.2388  -19.5788  -15.7151 C   0  0  2  0  0  0  0  0  0  0  0  0
   22.7765  -20.2216  -14.4537 C   0  0  0  0  0  0  0  0  0  0  0  0
   23.1556  -18.4678  -16.1927 C   0  0  2  0  0  0  0  0  0  0  0  0
   22.4779  -17.8247  -17.2974 N   0  0  0  0  0  0  0  0  0  0  0  0
   24.4802  -18.9262  -16.6036 C   0  0  0  0  0  0  0  0  0  0  0  0
   24.6215  -19.6352  -17.6629 O   0  0  0  0  0  0  0  0  0  0  0  0
   25.6311  -18.5899  -15.8295 N   0  0  0  0  0  0  0  0  0  0  0  0
   25.7046  -17.8622  -14.5898 C   0  0  0  0  0  0  0  0  0  0  0  0
   27.1854  -17.6377  -14.2846 C   0  0  0  0  0  0  0  0  0  0  0  0
   27.7730  -17.7632  -15.6778 C   0  0  0  0  0  0  0  0  0  0  0  0
   27.0173  -18.9421  -16.1916 C   0  0  1  0  0  0  0  0  0  0  0  0
   27.3538  -20.2019  -15.4781 C   0  0  0  0  0  0  0  0  0  0  0  0
   26.6113  -20.6809  -14.5753 O   0  0  0  0  0  0  0  0  0  0  0  0
   28.5566  -20.8947  -15.8243 N   0  0  0  0  0  0  0  0  0  0  0  0
   28.6639  -21.6998  -16.9920 C   0  0  0  0  0  0  0  0  0  0  0  0
   27.7938  -22.8970  -16.9712 C   0  0  0  0  0  0  0  0  0  0  0  0
   28.1916  -23.9463  -16.1544 O   0  0  0  0  0  0  0  0  0  0  0  0
   26.7391  -23.0250  -17.6308 O   0  0  0  0  0  0  0  0  0  0  0  0
  2  1  1  0
  3  2  1  0
  3  5  1  0
  3  4  1  1
  5  7  1  0
  5  6  1  6
  7  9  1  0
  8  7  2  0
  9 13  1  0
  9 10  1  0
 11 10  1  0
 12 11  1  0
 12 13  1  0
 13 14  1  1
 14 16  1  0
 14 15  2  0
 16 17  1  0
 17 18  1  0
 18 19  1  0
 20 18  2  0
M  END
$$$$
