NMS.pdb
     RDKit          3D

 23 22  0  0  1  0  0  0  0  0999 V2000
   26.5460   -5.9489  -20.9538 N   0  0  0  0  0  0  0  0  0  0  0  0
   26.2854   -6.6203  -19.7400 C   0  0  0  0  0  0  0  0  0  0  0  0
   27.2244   -6.8647  -18.9532 O   0  0  0  0  0  0  0  0  0  0  0  0
   24.9099   -7.0269  -19.4111 C   0  0  0  0  0  0  0  0  0  0  0  0
   24.9399   -8.1904  -18.4537 C   0  0  2  0  0  0  0  0  0  0  0  0
   25.3450   -9.3901  -19.1434 N   0  0  0  0  0  0  0  0  0  0  0  0
   23.6046   -8.3513  -17.8196 C   0  0  0  0  0  0  0  0  0  0  0  0
   22.7014   -8.9181  -18.4863 O   0  0  0  0  0  0  0  0  0  0  0  0
   19.7386   -9.9998  -11.3656 C   0  0  0  0  0  0  0  0  0  0  0  0
   21.3720   -9.6900  -12.0947 S   0  0  0  0  0  0  0  0  0  0  0  0
   21.0709   -8.9701  -13.7263 C   0  0  0  0  0  0  0  0  0  0  0  0
   22.3021   -8.7905  -14.5325 C   0  0  0  0  0  0  0  0  0  0  0  0
   22.1019   -8.0741  -15.8418 C   0  0  2  0  0  0  0  0  0  0  0  0
   23.3704   -7.8820  -16.5184 N   0  0  0  0  0  0  0  0  0  0  0  0
   21.4441   -6.7502  -15.6702 C   0  0  0  0  0  0  0  0  0  0  0  0
   22.0434   -5.8271  -15.0576 O   0  0  0  0  0  0  0  0  0  0  0  0
   17.8995   -5.8481  -17.5321 O   0  0  0  0  0  0  0  0  0  0  0  0
   18.7799   -4.7845  -17.2980 C   0  0  0  0  0  0  0  0  0  0  0  0
   19.6138   -5.1624  -16.0963 C   0  0  2  0  0  0  0  0  0  0  0  0
   20.1441   -6.4882  -16.1813 N   0  0  0  0  0  0  0  0  0  0  0  0
   18.8247   -5.0685  -14.8397 C   0  0  0  0  0  0  0  0  0  0  0  0
   18.3109   -3.8306  -14.4924 O   0  0  0  0  0  0  0  0  0  0  0  0
   18.6071   -6.0423  -14.0931 O   0  0  0  0  0  0  0  0  0  0  0  0
  2  1  1  0
  2  3  2  0
  4  2  1  0
  5  4  1  0
  5  6  1  6
  7  5  1  0
  8  7  2  0
 10  9  1  0
 10 11  1  0
 11 12  1  0
 13 12  1  1
 13 14  1  0
 14  7  1  0
 15 13  1  0
 15 20  1  0
 16 15  2  0
 18 17  1  0
 19 18  1  6
 19 20  1  0
 19 21  1  0
 21 23  2  0
 21 22  1  0
M  END
$$$$
