NMS.pdb
     RDKit          3D

 23 22  0  0  1  0  0  0  0  0999 V2000
   20.6746   -9.5822  -13.1160 N   0  0  0  0  0  0  0  0  0  0  0  0
   20.5098   -8.1837  -13.2104 C   0  0  0  0  0  0  0  0  0  0  0  0
   21.4362   -7.4801  -13.6658 O   0  0  0  0  0  0  0  0  0  0  0  0
   19.2485   -7.5656  -12.7718 C   0  0  0  0  0  0  0  0  0  0  0  0
   18.3671   -8.6085  -12.1339 C   0  0  2  0  0  0  0  0  0  0  0  0
   17.9944   -9.6055  -13.1066 N   0  0  0  0  0  0  0  0  0  0  0  0
   17.1716   -7.9562  -11.5371 C   0  0  0  0  0  0  0  0  0  0  0  0
   16.3161   -7.4681  -12.3190 O   0  0  0  0  0  0  0  0  0  0  0  0
   11.3857   -7.5950   -6.8934 C   0  0  0  0  0  0  0  0  0  0  0  0
   12.6430   -8.5018   -7.8385 S   0  0  0  0  0  0  0  0  0  0  0  0
   14.1800   -7.5640   -7.6679 C   0  0  0  0  0  0  0  0  0  0  0  0
   15.3171   -8.1455   -8.4209 C   0  0  0  0  0  0  0  0  0  0  0  0
   15.8572   -7.2740   -9.5237 C   0  0  2  0  0  0  0  0  0  0  0  0
   17.0127   -7.8928  -10.1446 N   0  0  0  0  0  0  0  0  0  0  0  0
   16.2394   -5.9189   -9.0415 C   0  0  0  0  0  0  0  0  0  0  0  0
   17.2301   -5.7825   -8.2757 O   0  0  0  0  0  0  0  0  0  0  0  0
   15.7882   -2.6366  -11.1044 O   0  0  0  0  0  0  0  0  0  0  0  0
   16.6203   -2.6411   -9.9780 C   0  0  0  0  0  0  0  0  0  0  0  0
   15.9315   -3.4807   -8.9278 C   0  0  2  0  0  0  0  0  0  0  0  0
   15.5143   -4.7570   -9.4209 N   0  0  0  0  0  0  0  0  0  0  0  0
   14.7326   -2.7896   -8.3841 C   0  0  0  0  0  0  0  0  0  0  0  0
   14.9182   -1.5596   -7.7763 O   0  0  0  0  0  0  0  0  0  0  0  0
   13.5812   -3.2619   -8.4499 O   0  0  0  0  0  0  0  0  0  0  0  0
  2  1  1  0
  2  3  2  0
  4  2  1  0
  5  4  1  0
  5  6  1  6
  7  5  1  0
  8  7  2  0
 10  9  1  0
 10 11  1  0
 11 12  1  0
 13 12  1  1
 13 14  1  0
 14  7  1  0
 15 13  1  0
 15 20  1  0
 16 15  2  0
 18 17  1  0
 19 18  1  6
 19 20  1  0
 19 21  1  0
 21 23  2  0
 21 22  1  0
M  END
$$$$
