NMS.pdb
     RDKit          3D

 23 22  0  0  1  0  0  0  0  0999 V2000
   15.8894  -12.7533  -15.2644 N   0  0  0  0  0  0  0  0  0  0  0  0
   14.8259  -12.8510  -14.3416 C   0  0  0  0  0  0  0  0  0  0  0  0
   13.9813  -13.7633  -14.4641 O   0  0  0  0  0  0  0  0  0  0  0  0
   14.7205  -11.8778  -13.2429 C   0  0  0  0  0  0  0  0  0  0  0  0
   15.8498  -10.8841  -13.3350 C   0  0  2  0  0  0  0  0  0  0  0  0
   17.0500  -11.4426  -12.7631 N   0  0  0  0  0  0  0  0  0  0  0  0
   15.4605   -9.6198  -12.6562 C   0  0  0  0  0  0  0  0  0  0  0  0
   14.4698   -8.9906  -13.1081 O   0  0  0  0  0  0  0  0  0  0  0  0
   14.4639   -5.0570   -6.8695 C   0  0  0  0  0  0  0  0  0  0  0  0
   14.5493   -6.6818   -7.6748 S   0  0  0  0  0  0  0  0  0  0  0  0
   16.0260   -6.6537   -8.7185 C   0  0  0  0  0  0  0  0  0  0  0  0
   16.2582   -7.9203   -9.4533 C   0  0  0  0  0  0  0  0  0  0  0  0
   15.8910   -7.8811  -10.9131 C   0  0  2  0  0  0  0  0  0  0  0  0
   16.1823   -9.1524  -11.5476 N   0  0  0  0  0  0  0  0  0  0  0  0
   16.6043   -6.8024  -11.6496 C   0  0  0  0  0  0  0  0  0  0  0  0
   17.8079   -6.9624  -11.9849 O   0  0  0  0  0  0  0  0  0  0  0  0
   17.1027   -3.6410  -14.8413 O   0  0  0  0  0  0  0  0  0  0  0  0
   16.4267   -4.7080  -14.2365 C   0  0  0  0  0  0  0  0  0  0  0  0
   16.6837   -4.6042  -12.7515 C   0  0  2  0  0  0  0  0  0  0  0  0
   15.9648   -5.5804  -11.9924 N   0  0  0  0  0  0  0  0  0  0  0  0
   16.3135   -3.2615  -12.2314 C   0  0  0  0  0  0  0  0  0  0  0  0
   17.0897   -2.1831  -12.6206 O   0  0  0  0  0  0  0  0  0  0  0  0
   15.3470   -3.0646  -11.4696 O   0  0  0  0  0  0  0  0  0  0  0  0
  2  1  1  0
  2  3  2  0
  4  2  1  0
  5  4  1  0
  5  6  1  1
  7  5  1  0
  8  7  2  0
 10  9  1  0
 10 11  1  0
 11 12  1  0
 13 12  1  1
 13 14  1  0
 14  7  1  0
 15 13  1  0
 15 20  1  0
 16 15  2  0
 18 17  1  0
 19 18  1  6
 19 20  1  0
 19 21  1  0
 21 23  2  0
 21 22  1  0
M  END
$$$$
