NMS.pdb
     RDKit          3D

 23 22  0  0  1  0  0  0  0  0999 V2000
   18.4883  -13.2291  -16.8499 N   0  0  0  0  0  0  0  0  0  0  0  0
   19.0745  -13.4171  -15.5799 C   0  0  0  0  0  0  0  0  0  0  0  0
   18.7518  -14.4067  -14.8890 O   0  0  0  0  0  0  0  0  0  0  0  0
   20.0607  -12.4462  -15.0797 C   0  0  0  0  0  0  0  0  0  0  0  0
   20.1724  -11.2936  -16.0442 C   0  0  2  0  0  0  0  0  0  0  0  0
   20.7374  -11.7438  -17.2920 N   0  0  0  0  0  0  0  0  0  0  0  0
   20.9889  -10.2097  -15.4362 C   0  0  0  0  0  0  0  0  0  0  0  0
   20.6255   -9.7543  -14.3217 O   0  0  0  0  0  0  0  0  0  0  0  0
   27.4607  -11.5730  -15.0951 C   0  0  0  0  0  0  0  0  0  0  0  0
   26.7712  -10.1457  -15.9800 S   0  0  0  0  0  0  0  0  0  0  0  0
   25.0705   -9.9586  -15.3937 C   0  0  0  0  0  0  0  0  0  0  0  0
   24.3690   -8.7869  -15.9708 C   0  0  0  0  0  0  0  0  0  0  0  0
   22.9307   -8.6403  -15.5497 C   0  0  2  0  0  0  0  0  0  0  0  0
   22.1266   -9.7179  -16.0935 N   0  0  0  0  0  0  0  0  0  0  0  0
   22.3436   -7.3409  -15.9760 C   0  0  0  0  0  0  0  0  0  0  0  0
   22.0827   -7.1398  -17.1918 O   0  0  0  0  0  0  0  0  0  0  0  0
   20.5984   -4.6272  -13.3987 O   0  0  0  0  0  0  0  0  0  0  0  0
   20.2455   -4.6854  -14.7527 C   0  0  0  0  0  0  0  0  0  0  0  0
   21.4896   -5.0806  -15.5132 C   0  0  2  0  0  0  0  0  0  0  0  0
   22.0632   -6.3045  -15.0449 N   0  0  0  0  0  0  0  0  0  0  0  0
   22.5344   -4.0264  -15.4254 C   0  0  0  0  0  0  0  0  0  0  0  0
   22.2208   -2.7667  -15.9066 O   0  0  0  0  0  0  0  0  0  0  0  0
   23.6669   -4.2229  -14.9438 O   0  0  0  0  0  0  0  0  0  0  0  0
  2  1  1  0
  2  3  2  0
  4  2  1  0
  5  4  1  0
  5  6  1  6
  7  5  1  0
  8  7  2  0
 10  9  1  0
 10 11  1  0
 11 12  1  0
 13 12  1  6
 13 14  1  0
 14  7  1  0
 15 13  1  0
 15 20  1  0
 16 15  2  0
 18 17  1  0
 19 18  1  1
 19 20  1  0
 19 21  1  0
 21 23  2  0
 21 22  1  0
M  END
$$$$
