NMS.pdb
     RDKit          3D

 23 22  0  0  1  0  0  0  0  0999 V2000
   18.8393  -12.9424  -18.7293 N   0  0  0  0  0  0  0  0  0  0  0  0
   18.1006  -12.2673  -17.7341 C   0  0  0  0  0  0  0  0  0  0  0  0
   16.8565  -12.3774  -17.7041 O   0  0  0  0  0  0  0  0  0  0  0  0
   18.8014  -11.4391  -16.7399 C   0  0  0  0  0  0  0  0  0  0  0  0
   20.2884  -11.5159  -16.9729 C   0  0  2  0  0  0  0  0  0  0  0  0
   20.7546  -12.8640  -16.7620 N   0  0  0  0  0  0  0  0  0  0  0  0
   20.9853  -10.5527  -16.0799 C   0  0  0  0  0  0  0  0  0  0  0  0
   20.5241  -10.3846  -14.9220 O   0  0  0  0  0  0  0  0  0  0  0  0
   27.1271  -12.2952  -14.9063 C   0  0  0  0  0  0  0  0  0  0  0  0
   26.6772  -10.7033  -15.6541 S   0  0  0  0  0  0  0  0  0  0  0  0
   24.9047  -10.4901  -15.3651 C   0  0  0  0  0  0  0  0  0  0  0  0
   24.3701   -9.2048  -15.8755 C   0  0  0  0  0  0  0  0  0  0  0  0
   22.8955   -8.9991  -15.6506 C   0  0  2  0  0  0  0  0  0  0  0  0
   22.1204   -9.8586  -16.5249 N   0  0  0  0  0  0  0  0  0  0  0  0
   22.4785   -7.5878  -15.8719 C   0  0  0  0  0  0  0  0  0  0  0  0
   22.5001   -7.1027  -17.0342 O   0  0  0  0  0  0  0  0  0  0  0  0
   19.6363   -5.8159  -13.9442 O   0  0  0  0  0  0  0  0  0  0  0  0
   20.1402   -5.2545  -15.1242 C   0  0  0  0  0  0  0  0  0  0  0  0
   21.6418   -5.4143  -15.0790 C   0  0  2  0  0  0  0  0  0  0  0  0
   22.0508   -6.7567  -14.8014 N   0  0  0  0  0  0  0  0  0  0  0  0
   22.2484   -4.5320  -14.0475 C   0  0  0  0  0  0  0  0  0  0  0  0
   22.0409   -3.1681  -14.1633 O   0  0  0  0  0  0  0  0  0  0  0  0
   22.9277   -4.9595  -13.0940 O   0  0  0  0  0  0  0  0  0  0  0  0
  2  1  1  0
  2  3  2  0
  4  2  1  0
  5  4  1  0
  5  6  1  1
  7  5  1  0
  8  7  2  0
 10  9  1  0
 10 11  1  0
 11 12  1  0
 13 12  1  6
 13 14  1  0
 14  7  1  0
 15 13  1  0
 15 20  1  0
 16 15  2  0
 18 17  1  0
 19 18  1  1
 19 20  1  0
 19 21  1  0
 21 23  2  0
 21 22  1  0
M  END
$$$$
