NMS.pdb
     RDKit          3D

 23 22  0  0  1  0  0  0  0  0999 V2000
   20.7219  -13.9986  -20.8342 N   0  0  0  0  0  0  0  0  0  0  0  0
   20.4937  -14.3891  -19.4972 C   0  0  0  0  0  0  0  0  0  0  0  0
   20.1627  -15.5668  -19.2437 O   0  0  0  0  0  0  0  0  0  0  0  0
   20.6473  -13.4062  -18.4129 C   0  0  0  0  0  0  0  0  0  0  0  0
   22.0175  -13.5374  -17.7993 C   0  0  2  0  0  0  0  0  0  0  0  0
   22.0986  -14.7483  -17.0207 N   0  0  0  0  0  0  0  0  0  0  0  0
   22.3126  -12.3374  -16.9724 C   0  0  0  0  0  0  0  0  0  0  0  0
   21.6521  -12.1753  -15.9145 O   0  0  0  0  0  0  0  0  0  0  0  0
   28.0241  -12.8419  -14.5368 C   0  0  0  0  0  0  0  0  0  0  0  0
   27.5533  -11.3963  -15.5289 S   0  0  0  0  0  0  0  0  0  0  0  0
   25.7469  -11.4075  -15.6163 C   0  0  0  0  0  0  0  0  0  0  0  0
   25.1812  -10.2582  -16.3626 C   0  0  0  0  0  0  0  0  0  0  0  0
   23.6866  -10.2944  -16.5423 C   0  0  2  0  0  0  0  0  0  0  0  0
   23.2985  -11.4213  -17.3688 N   0  0  0  0  0  0  0  0  0  0  0  0
   23.1575   -9.0453  -17.1545 C   0  0  0  0  0  0  0  0  0  0  0  0
   23.3351   -8.8248  -18.3818 O   0  0  0  0  0  0  0  0  0  0  0  0
   19.7757   -7.4880  -16.2276 O   0  0  0  0  0  0  0  0  0  0  0  0
   20.4367   -7.1110  -17.4033 C   0  0  0  0  0  0  0  0  0  0  0  0
   21.8950   -6.9364  -17.0494 C   0  0  2  0  0  0  0  0  0  0  0  0
   22.4487   -8.0791  -16.3905 N   0  0  0  0  0  0  0  0  0  0  0  0
   22.0993   -5.7588  -16.1650 C   0  0  0  0  0  0  0  0  0  0  0  0
   21.7478   -4.5138  -16.6583 O   0  0  0  0  0  0  0  0  0  0  0  0
   22.5673   -5.8404  -15.0128 O   0  0  0  0  0  0  0  0  0  0  0  0
  2  1  1  0
  2  3  2  0
  4  2  1  0
  5  4  1  0
  5  6  1  1
  7  5  1  0
  8  7  2  0
 10  9  1  0
 10 11  1  0
 11 12  1  0
 13 12  1  6
 13 14  1  0
 14  7  1  0
 15 13  1  0
 15 20  1  0
 16 15  2  0
 18 17  1  0
 19 18  1  1
 19 20  1  0
 19 21  1  0
 21 23  2  0
 21 22  1  0
M  END
$$$$
