NMS.pdb
     RDKit          3D

 23 22  0  0  1  0  0  0  0  0999 V2000
   17.6628   -8.9623  -16.4235 N   0  0  0  0  0  0  0  0  0  0  0  0
   18.0775   -7.6349  -16.1828 C   0  0  0  0  0  0  0  0  0  0  0  0
   17.2256   -6.7248  -16.1012 O   0  0  0  0  0  0  0  0  0  0  0  0
   19.5098   -7.3335  -16.0299 C   0  0  0  0  0  0  0  0  0  0  0  0
   20.1355   -8.3149  -15.0726 C   0  0  2  0  0  0  0  0  0  0  0  0
   19.5875   -8.1369  -13.7508 N   0  0  0  0  0  0  0  0  0  0  0  0
   21.6128   -8.1458  -15.0770 C   0  0  0  0  0  0  0  0  0  0  0  0
   22.1133   -7.3257  -14.2655 O   0  0  0  0  0  0  0  0  0  0  0  0
   28.4447  -11.6516  -15.5483 C   0  0  0  0  0  0  0  0  0  0  0  0
   26.6419  -11.8274  -15.4261 S   0  0  0  0  0  0  0  0  0  0  0  0
   25.9506  -10.1826  -15.7225 C   0  0  0  0  0  0  0  0  0  0  0  0
   24.4712  -10.1363  -15.6385 C   0  0  0  0  0  0  0  0  0  0  0  0
   23.8614   -8.7959  -15.9532 C   0  0  2  0  0  0  0  0  0  0  0  0
   22.4136   -8.8826  -15.9625 N   0  0  0  0  0  0  0  0  0  0  0  0
   24.3185   -8.2573  -17.2631 C   0  0  0  0  0  0  0  0  0  0  0  0
   23.8773   -8.7538  -18.3334 O   0  0  0  0  0  0  0  0  0  0  0  0
   24.6148   -4.5856  -18.3334 O   0  0  0  0  0  0  0  0  0  0  0  0
   25.8437   -5.1857  -18.6348 C   0  0  0  0  0  0  0  0  0  0  0  0
   25.6137   -6.6788  -18.6355 C   0  0  2  0  0  0  0  0  0  0  0  0
   25.2491   -7.1867  -17.3489 N   0  0  0  0  0  0  0  0  0  0  0  0
   26.8257   -7.4122  -19.0866 C   0  0  0  0  0  0  0  0  0  0  0  0
   27.2955   -7.1567  -20.3636 O   0  0  0  0  0  0  0  0  0  0  0  0
   27.4314   -8.2373  -18.3755 O   0  0  0  0  0  0  0  0  0  0  0  0
  2  1  1  0
  2  3  2  0
  4  2  1  0
  5  4  1  0
  5  6  1  1
  7  5  1  0
  8  7  2  0
 10  9  1  0
 10 11  1  0
 11 12  1  0
 13 12  1  6
 13 14  1  0
 14  7  1  0
 15 13  1  0
 15 20  1  0
 16 15  2  0
 18 17  1  0
 19 18  1  1
 19 20  1  0
 19 21  1  0
 21 23  2  0
 21 22  1  0
M  END
$$$$
