NMS.pdb
     RDKit          3D

 23 22  0  0  1  0  0  0  0  0999 V2000
   12.1421   -9.6206  -15.8927 N   0  0  0  0  0  0  0  0  0  0  0  0
   13.3660  -10.3151  -15.7854 C   0  0  0  0  0  0  0  0  0  0  0  0
   13.9268  -10.7452  -16.8156 O   0  0  0  0  0  0  0  0  0  0  0  0
   13.9718  -10.5272  -14.4612 C   0  0  0  0  0  0  0  0  0  0  0  0
   15.4704  -10.6125  -14.5964 C   0  0  2  0  0  0  0  0  0  0  0  0
   15.8614  -11.9562  -14.9440 N   0  0  0  0  0  0  0  0  0  0  0  0
   16.1131  -10.1684  -13.3313 C   0  0  0  0  0  0  0  0  0  0  0  0
   16.0740  -10.9491  -12.3461 O   0  0  0  0  0  0  0  0  0  0  0  0
   22.1269   -6.3950  -10.2822 C   0  0  0  0  0  0  0  0  0  0  0  0
   21.2055   -6.7144  -11.8135 S   0  0  0  0  0  0  0  0  0  0  0  0
   19.6203   -7.4266  -11.3125 C   0  0  0  0  0  0  0  0  0  0  0  0
   18.8280   -7.9666  -12.4432 C   0  0  0  0  0  0  0  0  0  0  0  0
   17.4657   -8.4879  -12.0691 C   0  0  2  0  0  0  0  0  0  0  0  0
   16.7404   -8.9161  -13.2499 N   0  0  0  0  0  0  0  0  0  0  0  0
   16.6494   -7.4760  -11.3450 C   0  0  0  0  0  0  0  0  0  0  0  0
   16.0518   -6.5744  -11.9904 O   0  0  0  0  0  0  0  0  0  0  0  0
   14.4078   -5.9508   -7.4116 O   0  0  0  0  0  0  0  0  0  0  0  0
   15.1537   -7.0053   -7.9527 C   0  0  0  0  0  0  0  0  0  0  0  0
   15.6638   -6.5373   -9.2955 C   0  0  2  0  0  0  0  0  0  0  0  0
   16.5192   -7.4924   -9.9299 N   0  0  0  0  0  0  0  0  0  0  0  0
   16.4189   -5.2625   -9.1724 C   0  0  0  0  0  0  0  0  0  0  0  0
   15.7267   -4.1424   -8.7444 O   0  0  0  0  0  0  0  0  0  0  0  0
   17.6328   -5.1573   -9.4340 O   0  0  0  0  0  0  0  0  0  0  0  0
  2  1  1  0
  2  3  2  0
  4  2  1  0
  5  4  1  0
  5  6  1  1
  7  5  1  0
  8  7  2  0
 10  9  1  0
 10 11  1  0
 11 12  1  0
 13 12  1  6
 13 14  1  0
 14  7  1  0
 15 13  1  0
 15 20  1  0
 16 15  2  0
 18 17  1  0
 19 18  1  1
 19 20  1  0
 19 21  1  0
 21 23  2  0
 21 22  1  0
M  END
$$$$
