NMS.pdb
     RDKit          3D

 23 22  0  0  1  0  0  0  0  0999 V2000
   27.4830  -17.6693  -18.3313 N   0  0  0  0  0  0  0  0  0  0  0  0
   27.8034  -18.3518  -17.1383 C   0  0  0  0  0  0  0  0  0  0  0  0
   28.9568  -18.2658  -16.6659 O   0  0  0  0  0  0  0  0  0  0  0  0
   26.7767  -19.1590  -16.4603 C   0  0  0  0  0  0  0  0  0  0  0  0
   27.4040  -20.4072  -15.8947 C   0  0  2  0  0  0  0  0  0  0  0  0
   27.7038  -21.3363  -16.9558 N   0  0  0  0  0  0  0  0  0  0  0  0
   26.4956  -21.0098  -14.8836 C   0  0  0  0  0  0  0  0  0  0  0  0
   25.8155  -22.0107  -15.2262 O   0  0  0  0  0  0  0  0  0  0  0  0
   24.4014  -21.2080   -7.2935 C   0  0  0  0  0  0  0  0  0  0  0  0
   25.6806  -20.6653   -8.4618 S   0  0  0  0  0  0  0  0  0  0  0  0
   25.0731  -21.0889  -10.1119 C   0  0  0  0  0  0  0  0  0  0  0  0
   25.9758  -20.6575  -11.2059 C   0  0  0  0  0  0  0  0  0  0  0  0
   25.4971  -20.9979  -12.5924 C   0  0  2  0  0  0  0  0  0  0  0  0
   26.4075  -20.4713  -13.5911 N   0  0  0  0  0  0  0  0  0  0  0  0
   24.1305  -20.4757  -12.8657 C   0  0  0  0  0  0  0  0  0  0  0  0
   23.9457  -19.2354  -12.9853 O   0  0  0  0  0  0  0  0  0  0  0  0
   21.3462  -22.4811  -14.8442 O   0  0  0  0  0  0  0  0  0  0  0  0
   21.2441  -21.0941  -14.6799 C   0  0  0  0  0  0  0  0  0  0  0  0
   21.7252  -20.7818  -13.2823 C   0  0  2  0  0  0  0  0  0  0  0  0
   23.0109  -21.3409  -12.9981 N   0  0  0  0  0  0  0  0  0  0  0  0
   20.7737  -21.2869  -12.2576 C   0  0  0  0  0  0  0  0  0  0  0  0
   19.4731  -20.8138  -12.2972 O   0  0  0  0  0  0  0  0  0  0  0  0
   21.0898  -22.1076  -11.3746 O   0  0  0  0  0  0  0  0  0  0  0  0
  2  1  1  0
  2  3  2  0
  4  2  1  0
  5  4  1  0
  5  6  1  6
  7  5  1  0
  8  7  2  0
 10  9  1  0
 10 11  1  0
 11 12  1  0
 13 12  1  1
 13 14  1  0
 14  7  1  0
 15 13  1  0
 15 20  1  0
 16 15  2  0
 18 17  1  0
 19 18  1  6
 19 20  1  0
 19 21  1  0
 21 23  2  0
 21 22  1  0
M  END
$$$$
