NMS.pdb
     RDKit          3D

 23 22  0  0  1  0  0  0  0  0999 V2000
   17.3452  -23.8061  -10.4779 N   0  0  0  0  0  0  0  0  0  0  0  0
   18.3202  -24.8174  -10.6140 C   0  0  0  0  0  0  0  0  0  0  0  0
   18.6083  -25.2515  -11.7495 O   0  0  0  0  0  0  0  0  0  0  0  0
   18.9896  -25.3523   -9.4176 C   0  0  0  0  0  0  0  0  0  0  0  0
   18.4678  -24.6531   -8.1888 C   0  0  2  0  0  0  0  0  0  0  0  0
   19.4883  -23.7997   -7.6326 N   0  0  0  0  0  0  0  0  0  0  0  0
   18.0019  -25.6607   -7.1996 C   0  0  0  0  0  0  0  0  0  0  0  0
   18.5046  -26.8123   -7.2518 O   0  0  0  0  0  0  0  0  0  0  0  0
   18.7822  -28.1778   -0.7488 C   0  0  0  0  0  0  0  0  0  0  0  0
   19.0233  -27.8368   -2.5155 S   0  0  0  0  0  0  0  0  0  0  0  0
   18.3392  -26.1891   -2.8122 C   0  0  0  0  0  0  0  0  0  0  0  0
   18.3303  -25.7984   -4.2423 C   0  0  0  0  0  0  0  0  0  0  0  0
   16.9971  -25.9388   -4.9281 C   0  0  2  0  0  0  0  0  0  0  0  0
   17.0317  -25.3270   -6.2427 N   0  0  0  0  0  0  0  0  0  0  0  0
   15.8881  -25.3299   -4.1443 C   0  0  0  0  0  0  0  0  0  0  0  0
   15.9307  -24.1074   -3.8436 O   0  0  0  0  0  0  0  0  0  0  0  0
   12.8571  -27.5519   -2.6404 O   0  0  0  0  0  0  0  0  0  0  0  0
   12.4026  -26.3121   -3.1069 C   0  0  0  0  0  0  0  0  0  0  0  0
   13.6125  -25.4137   -3.2131 C   0  0  2  0  0  0  0  0  0  0  0  0
   14.7669  -26.0915   -3.7173 N   0  0  0  0  0  0  0  0  0  0  0  0
   13.9692  -24.8291   -1.8934 C   0  0  0  0  0  0  0  0  0  0  0  0
   12.9927  -24.1155   -1.2196 O   0  0  0  0  0  0  0  0  0  0  0  0
   15.0945  -24.9509   -1.3719 O   0  0  0  0  0  0  0  0  0  0  0  0
  2  1  1  0
  2  3  2  0
  4  2  1  0
  5  4  1  0
  5  6  1  1
  7  5  1  0
  8  7  2  0
 10  9  1  0
 10 11  1  0
 11 12  1  0
 13 12  1  1
 13 14  1  0
 14  7  1  0
 15 13  1  0
 15 20  1  0
 16 15  2  0
 18 17  1  0
 19 18  1  1
 19 20  1  0
 19 21  1  0
 21 23  2  0
 21 22  1  0
M  END
$$$$
