HTC.pdb
     RDKit          3D

 24 24  0  0  1  0  0  0  0  0999 V2000
   25.7788  -22.1200  -12.0278 N   0  0  0  0  0  0  0  0  0  0  0  0
   25.3401  -20.7706  -12.2045 C   0  0  1  0  0  0  0  0  0  0  0  0
   25.7074  -19.9725  -10.9707 C   0  0  0  0  0  0  0  0  0  0  0  0
   24.8428  -20.4613   -9.8529 C   0  0  0  0  0  0  0  0  0  0  0  0
   23.4969  -20.8132   -9.9592 C   0  0  0  0  0  0  0  0  0  0  0  0
   23.0503  -21.2046   -8.7547 N   0  0  0  0  0  0  0  0  0  0  0  0
   24.0876  -21.1028   -7.9083 C   0  0  0  0  0  0  0  0  0  0  0  0
   25.1742  -20.6518   -8.5756 N   0  0  0  0  0  0  0  0  0  0  0  0
   25.9412  -20.1372  -13.4189 C   0  0  0  0  0  0  0  0  0  0  0  0
   27.1798  -20.2377  -13.6132 O   0  0  0  0  0  0  0  0  0  0  0  0
   25.9367  -20.9094  -16.8926 C   0  0  0  0  0  0  0  0  0  0  0  0
   25.3624  -19.5297  -16.8101 C   0  0  1  0  0  0  0  0  0  0  0  0
   23.9794  -19.4999  -16.9053 O   0  0  0  0  0  0  0  0  0  0  0  0
   25.7471  -18.8132  -15.5209 C   0  0  2  0  0  0  0  0  0  0  0  0
   25.1612  -19.4210  -14.3682 N   0  0  0  0  0  0  0  0  0  0  0  0
   25.3291  -17.3940  -15.6973 C   0  0  0  0  0  0  0  0  0  0  0  0
   24.1977  -17.0323  -15.2861 O   0  0  0  0  0  0  0  0  0  0  0  0
   26.1577  -16.4105  -16.3175 N   0  0  0  0  0  0  0  0  0  0  0  0
   25.7440  -15.0450  -16.5114 C   0  0  1  0  0  0  0  0  0  0  0  0
   26.8947  -14.1676  -16.9788 C   0  0  0  0  0  0  0  0  0  0  0  0
   28.1275  -14.1614  -15.6476 S   0  0  0  0  0  0  0  0  0  0  0  0
   24.6733  -14.9917  -17.5334 C   0  0  0  0  0  0  0  0  0  0  0  0
   23.5329  -14.2688  -17.2657 O   0  0  0  0  0  0  0  0  0  0  0  0
   24.7780  -15.5853  -18.6314 O   0  0  0  0  0  0  0  0  0  0  0  0
  2  3  1  0
  2  1  1  1
  4  3  1  0
  5  4  2  0
  6  7  1  0
  6  5  1  0
  7  8  2  0
  8  4  1  0
  9 10  2  0
  9  2  1  0
 12 11  1  1
 12 14  1  0
 13 12  1  0
 14 15  1  1
 15  9  1  0
 16 14  1  0
 17 16  2  0
 18 16  1  0
 19 18  1  0
 20 21  1  0
 19 20  1  6
 22 23  1  0
 22 19  1  0
 24 22  2  0
M  END
$$$$
