HTC.pdb
     RDKit          3D

 24 24  0  0  1  0  0  0  0  0999 V2000
   29.0054  -24.1120  -18.3415 N   0  0  0  0  0  0  0  0  0  0  0  0
   28.2219  -24.3121  -17.1623 C   0  0  1  0  0  0  0  0  0  0  0  0
   28.7351  -25.5393  -16.4378 C   0  0  0  0  0  0  0  0  0  0  0  0
   28.1078  -26.7317  -17.0863 C   0  0  0  0  0  0  0  0  0  0  0  0
   26.9514  -27.3802  -16.6518 C   0  0  0  0  0  0  0  0  0  0  0  0
   26.6884  -28.4063  -17.4773 N   0  0  0  0  0  0  0  0  0  0  0  0
   27.6542  -28.4066  -18.4100 C   0  0  0  0  0  0  0  0  0  0  0  0
   28.5145  -27.3904  -18.1718 N   0  0  0  0  0  0  0  0  0  0  0  0
   28.2636  -23.1273  -16.2504 C   0  0  0  0  0  0  0  0  0  0  0  0
   29.3745  -22.6086  -15.9697 O   0  0  0  0  0  0  0  0  0  0  0  0
   27.6905  -19.6339  -16.3525 C   0  0  0  0  0  0  0  0  0  0  0  0
   26.7056  -20.1608  -15.3564 C   0  0  1  0  0  0  0  0  0  0  0  0
   25.4349  -20.3458  -15.8798 O   0  0  0  0  0  0  0  0  0  0  0  0
   27.1453  -21.4862  -14.7453 C   0  0  2  0  0  0  0  0  0  0  0  0
   27.0880  -22.5610  -15.6850 N   0  0  0  0  0  0  0  0  0  0  0  0
   26.2647  -21.7080  -13.5641 C   0  0  0  0  0  0  0  0  0  0  0  0
   25.3115  -22.5225  -13.6541 O   0  0  0  0  0  0  0  0  0  0  0  0
   26.4497  -21.0347  -12.3187 N   0  0  0  0  0  0  0  0  0  0  0  0
   25.4932  -21.0955  -11.2441 C   0  0  1  0  0  0  0  0  0  0  0  0
   26.0032  -20.3951   -9.9944 C   0  0  0  0  0  0  0  0  0  0  0  0
   24.6949  -20.5279   -8.7444 S   0  0  0  0  0  0  0  0  0  0  0  0
   24.2334  -20.4394  -11.6638 C   0  0  0  0  0  0  0  0  0  0  0  0
   23.0348  -21.0448  -11.3615 O   0  0  0  0  0  0  0  0  0  0  0  0
   24.2302  -19.3516  -12.2847 O   0  0  0  0  0  0  0  0  0  0  0  0
  2  3  1  0
  2  1  1  6
  4  3  1  0
  5  4  2  0
  6  7  1  0
  6  5  1  0
  7  8  2  0
  8  4  1  0
  9 10  2  0
  9  2  1  0
 12 11  1  6
 12 14  1  0
 13 12  1  0
 14 15  1  6
 15  9  1  0
 16 14  1  0
 17 16  2  0
 18 16  1  0
 19 18  1  0
 20 21  1  0
 19 20  1  1
 22 23  1  0
 22 19  1  0
 24 22  2  0
M  END
$$$$
