HTC.pdb
     RDKit          3D

 24 24  0  0  1  0  0  0  0  0999 V2000
   22.4374  -12.6580  -21.4477 N   0  0  0  0  0  0  0  0  0  0  0  0
   21.5814  -12.4725  -20.3175 C   0  0  1  0  0  0  0  0  0  0  0  0
   21.4830  -13.7804  -19.5599 C   0  0  0  0  0  0  0  0  0  0  0  0
   20.7269  -14.7378  -20.4246 C   0  0  0  0  0  0  0  0  0  0  0  0
   19.3534  -14.9763  -20.3670 C   0  0  0  0  0  0  0  0  0  0  0  0
   19.0296  -15.8960  -21.2904 N   0  0  0  0  0  0  0  0  0  0  0  0
   20.1694  -16.2306  -21.9160 C   0  0  0  0  0  0  0  0  0  0  0  0
   21.1982  -15.5274  -21.3900 N   0  0  0  0  0  0  0  0  0  0  0  0
   22.0751  -11.3926  -19.4080 C   0  0  0  0  0  0  0  0  0  0  0  0
   23.2467  -11.4604  -18.9555 O   0  0  0  0  0  0  0  0  0  0  0  0
   22.1738   -7.6775  -20.2143 C   0  0  0  0  0  0  0  0  0  0  0  0
   21.4933   -7.8473  -18.8921 C   0  0  1  0  0  0  0  0  0  0  0  0
   20.1157   -7.7034  -18.9568 O   0  0  0  0  0  0  0  0  0  0  0  0
   21.7818   -9.2024  -18.2567 C   0  0  2  0  0  0  0  0  0  0  0  0
   21.2656  -10.2852  -19.0328 N   0  0  0  0  0  0  0  0  0  0  0  0
   21.1985   -9.1480  -16.8867 C   0  0  0  0  0  0  0  0  0  0  0  0
   20.0965   -9.7111  -16.6666 O   0  0  0  0  0  0  0  0  0  0  0  0
   21.8345   -8.4807  -15.7964 N   0  0  0  0  0  0  0  0  0  0  0  0
   21.2374   -8.3647  -14.4913 C   0  0  1  0  0  0  0  0  0  0  0  0
   22.0526   -9.0887  -13.4313 C   0  0  0  0  0  0  0  0  0  0  0  0
   21.2653   -8.7436  -11.8336 S   0  0  0  0  0  0  0  0  0  0  0  0
   21.1465   -6.9357  -14.1128 C   0  0  0  0  0  0  0  0  0  0  0  0
   20.1195   -6.5286  -13.2917 O   0  0  0  0  0  0  0  0  0  0  0  0
   21.9769   -6.0906  -14.5191 O   0  0  0  0  0  0  0  0  0  0  0  0
  2  3  1  0
  2  1  1  6
  4  3  1  0
  5  4  2  0
  6  7  1  0
  6  5  1  0
  7  8  2  0
  8  4  1  0
  9 10  2  0
  9  2  1  0
 12 11  1  6
 12 14  1  0
 13 12  1  0
 14 15  1  6
 15  9  1  0
 16 14  1  0
 17 16  2  0
 18 16  1  0
 19 18  1  0
 20 21  1  0
 19 20  1  1
 22 23  1  0
 22 19  1  0
 24 22  2  0
M  END
$$$$
