HTC.pdb
     RDKit          3D

 24 24  0  0  1  0  0  0  0  0999 V2000
   23.9716  -19.5608  -16.1215 N   0  0  0  0  0  0  0  0  0  0  0  0
   22.7857  -19.1740  -15.4227 C   0  0  1  0  0  0  0  0  0  0  0  0
   21.7411  -18.7469  -16.4330 C   0  0  0  0  0  0  0  0  0  0  0  0
   22.2278  -17.4828  -17.0664 C   0  0  0  0  0  0  0  0  0  0  0  0
   23.1461  -17.3982  -18.1133 C   0  0  0  0  0  0  0  0  0  0  0  0
   23.3429  -16.1056  -18.4198 N   0  0  0  0  0  0  0  0  0  0  0  0
   22.5686  -15.3910  -17.5877 C   0  0  0  0  0  0  0  0  0  0  0  0
   21.8927  -16.2274  -16.7673 N   0  0  0  0  0  0  0  0  0  0  0  0
   22.2482  -20.2792  -14.5701 C   0  0  0  0  0  0  0  0  0  0  0  0
   22.4019  -21.4707  -14.9425 O   0  0  0  0  0  0  0  0  0  0  0  0
   22.3703  -20.3709  -10.4459 C   0  0  0  0  0  0  0  0  0  0  0  0
   21.0310  -20.6747  -11.0410 C   0  0  1  0  0  0  0  0  0  0  0  0
   20.1413  -19.6134  -10.9710 O   0  0  0  0  0  0  0  0  0  0  0  0
   21.1237  -21.0974  -12.5025 C   0  0  2  0  0  0  0  0  0  0  0  0
   21.5657  -20.0330  -13.3470 N   0  0  0  0  0  0  0  0  0  0  0  0
   19.7712  -21.6009  -12.8728 C   0  0  0  0  0  0  0  0  0  0  0  0
   19.0078  -20.8670  -13.5501 O   0  0  0  0  0  0  0  0  0  0  0  0
   19.2906  -22.8907  -12.4933 N   0  0  0  0  0  0  0  0  0  0  0  0
   18.0103  -23.4039  -12.9066 C   0  0  1  0  0  0  0  0  0  0  0  0
   17.9522  -24.9204  -12.8095 C   0  0  0  0  0  0  0  0  0  0  0  0
   16.4696  -25.4500  -13.7113 S   0  0  0  0  0  0  0  0  0  0  0  0
   16.9478  -22.8412  -12.0416 C   0  0  0  0  0  0  0  0  0  0  0  0
   15.7388  -22.5037  -12.6064 O   0  0  0  0  0  0  0  0  0  0  0  0
   17.1201  -22.6649  -10.8136 O   0  0  0  0  0  0  0  0  0  0  0  0
  2  3  1  0
  2  1  1  6
  4  3  1  0
  5  4  2  0
  6  7  1  0
  6  5  1  0
  7  8  2  0
  8  4  1  0
  9 10  2  0
  9  2  1  0
 12 11  1  6
 12 14  1  0
 13 12  1  0
 14 15  1  6
 15  9  1  0
 16 14  1  0
 17 16  2  0
 18 16  1  0
 19 18  1  0
 20 21  1  0
 19 20  1  1
 22 23  1  0
 22 19  1  0
 24 22  2  0
M  END
$$$$
