HTC.pdb
     RDKit          3D

 24 24  0  0  1  0  0  0  0  0999 V2000
   21.6564  -16.0018  -17.7285 N   0  0  0  0  0  0  0  0  0  0  0  0
   21.1502  -15.1010  -16.7401 C   0  0  1  0  0  0  0  0  0  0  0  0
   21.6299  -15.5531  -15.3764 C   0  0  0  0  0  0  0  0  0  0  0  0
   21.0438  -16.9058  -15.1262 C   0  0  0  0  0  0  0  0  0  0  0  0
   19.6840  -17.1939  -15.0051 C   0  0  0  0  0  0  0  0  0  0  0  0
   19.5332  -18.5100  -14.7848 N   0  0  0  0  0  0  0  0  0  0  0  0
   20.7664  -19.0406  -14.7670 C   0  0  0  0  0  0  0  0  0  0  0  0
   21.6817  -18.0666  -14.9742 N   0  0  0  0  0  0  0  0  0  0  0  0
   21.5806  -13.6905  -16.9900 C   0  0  0  0  0  0  0  0  0  0  0  0
   22.8069  -13.4350  -17.1041 O   0  0  0  0  0  0  0  0  0  0  0  0
   20.6705  -11.4484  -19.9157 C   0  0  0  0  0  0  0  0  0  0  0  0
   20.3131  -10.7425  -18.6452 C   0  0  1  0  0  0  0  0  0  0  0  0
   18.9594  -10.7894  -18.3486 O   0  0  0  0  0  0  0  0  0  0  0  0
   21.0644  -11.2946  -17.4393 C   0  0  2  0  0  0  0  0  0  0  0  0
   20.6508  -12.6206  -17.1044 N   0  0  0  0  0  0  0  0  0  0  0  0
   20.8362  -10.3244  -16.3317 C   0  0  0  0  0  0  0  0  0  0  0  0
   20.0397  -10.6256  -15.4071 O   0  0  0  0  0  0  0  0  0  0  0  0
   21.4836   -9.0536  -16.2651 N   0  0  0  0  0  0  0  0  0  0  0  0
   21.3120   -8.1422  -15.1636 C   0  0  1  0  0  0  0  0  0  0  0  0
   22.5627   -7.3131  -14.9171 C   0  0  0  0  0  0  0  0  0  0  0  0
   22.2039   -6.2224  -13.5123 S   0  0  0  0  0  0  0  0  0  0  0  0
   20.1912   -7.2186  -15.4542 C   0  0  0  0  0  0  0  0  0  0  0  0
   19.3582   -6.8387  -14.4264 O   0  0  0  0  0  0  0  0  0  0  0  0
   19.9822   -6.7756  -16.6069 O   0  0  0  0  0  0  0  0  0  0  0  0
  2  3  1  0
  2  1  1  6
  4  3  1  0
  5  4  2  0
  6  7  1  0
  6  5  1  0
  7  8  2  0
  8  4  1  0
  9 10  2  0
  9  2  1  0
 12 11  1  6
 12 14  1  0
 13 12  1  0
 14 15  1  1
 15  9  1  0
 16 14  1  0
 17 16  2  0
 18 16  1  0
 19 18  1  0
 20 21  1  0
 19 20  1  6
 22 23  1  0
 22 19  1  0
 24 22  2  0
M  END
$$$$
