HTC.pdb
     RDKit          3D

 24 24  0  0  1  0  0  0  0  0999 V2000
   23.4482  -16.0891  -16.7631 N   0  0  0  0  0  0  0  0  0  0  0  0
   23.6744  -14.9276  -15.9605 C   0  0  1  0  0  0  0  0  0  0  0  0
   25.1569  -14.6171  -15.9582 C   0  0  0  0  0  0  0  0  0  0  0  0
   25.8638  -15.8336  -15.4519 C   0  0  0  0  0  0  0  0  0  0  0  0
   25.2645  -17.0574  -15.1520 C   0  0  0  0  0  0  0  0  0  0  0  0
   26.2069  -17.9134  -14.7248 N   0  0  0  0  0  0  0  0  0  0  0  0
   27.3725  -17.2477  -14.7538 C   0  0  0  0  0  0  0  0  0  0  0  0
   27.1631  -15.9864  -15.1951 N   0  0  0  0  0  0  0  0  0  0  0  0
   22.9064  -13.7430  -16.4546 C   0  0  0  0  0  0  0  0  0  0  0  0
   22.9106  -13.4793  -17.6844 O   0  0  0  0  0  0  0  0  0  0  0  0
   19.2913  -13.0732  -16.5646 C   0  0  0  0  0  0  0  0  0  0  0  0
   19.9102  -11.9584  -15.7808 C   0  0  1  0  0  0  0  0  0  0  0  0
   19.7667  -12.1009  -14.4090 O   0  0  0  0  0  0  0  0  0  0  0  0
   21.3981  -11.7972  -16.0701 C   0  0  2  0  0  0  0  0  0  0  0  0
   22.1670  -12.8980  -15.5818 N   0  0  0  0  0  0  0  0  0  0  0  0
   21.7990  -10.4995  -15.4575 C   0  0  0  0  0  0  0  0  0  0  0  0
   22.2616  -10.4901  -14.2888 O   0  0  0  0  0  0  0  0  0  0  0  0
   21.6836   -9.2496  -16.1378 N   0  0  0  0  0  0  0  0  0  0  0  0
   22.0942   -7.9983  -15.5556 C   0  0  1  0  0  0  0  0  0  0  0  0
   22.2423   -6.9087  -16.6060 C   0  0  0  0  0  0  0  0  0  0  0  0
   23.5345   -7.4567  -17.7558 S   0  0  0  0  0  0  0  0  0  0  0  0
   21.0845   -7.5567  -14.5662 C   0  0  0  0  0  0  0  0  0  0  0  0
   21.3500   -6.4493  -13.7930 O   0  0  0  0  0  0  0  0  0  0  0  0
   19.9988   -8.1626  -14.4150 O   0  0  0  0  0  0  0  0  0  0  0  0
  2  3  1  0
  2  1  1  6
  4  3  1  0
  5  4  2  0
  6  7  1  0
  6  5  1  0
  7  8  2  0
  8  4  1  0
  9 10  2  0
  9  2  1  0
 12 11  1  6
 12 14  1  0
 13 12  1  0
 14 15  1  1
 15  9  1  0
 16 14  1  0
 17 16  2  0
 18 16  1  0
 19 18  1  0
 20 21  1  0
 19 20  1  6
 22 23  1  0
 22 19  1  0
 24 22  2  0
M  END
$$$$
