DRE.pdb
     RDKit          3D

 29 28  0  0  1  0  0  0  0  0999 V2000
   27.2167  -19.4043  -16.1171 N   0  0  0  0  0  0  0  0  0  0  0  0
   27.1710  -18.1491  -16.8350 C   0  0  1  0  0  0  0  0  0  0  0  0
   26.8078  -18.3376  -18.2988 C   0  0  0  0  0  0  0  0  0  0  0  0
   27.9987  -18.5891  -19.1493 C   0  0  0  0  0  0  0  0  0  0  0  0
   28.9572  -19.3234  -18.7312 O   0  0  0  0  0  0  0  0  0  0  0  0
   26.2867  -17.1661  -16.1784 C   0  0  0  0  0  0  0  0  0  0  0  0
   25.4257  -17.6141  -15.3772 O   0  0  0  0  0  0  0  0  0  0  0  0
   28.1527  -18.0684  -20.4049 O   0  0  0  0  0  0  0  0  0  0  0  0
   23.1450  -10.0042  -16.1673 N   0  0  0  0  0  0  0  0  0  0  0  0
   23.4320   -9.7688  -14.7817 C   0  0  0  0  0  0  0  0  0  0  0  0
   22.5859   -9.0853  -14.0928 N   0  0  0  0  0  0  0  0  0  0  0  0
   24.6011  -10.2628  -14.1705 N   0  0  0  0  0  0  0  0  0  0  0  0
   25.5307  -11.1555  -14.8399 C   0  0  0  0  0  0  0  0  0  0  0  0
   24.9651  -12.5468  -14.9785 C   0  0  0  0  0  0  0  0  0  0  0  0
   25.9600  -13.4911  -15.5956 C   0  0  0  0  0  0  0  0  0  0  0  0
   25.4429  -14.8966  -15.7112 C   0  0  2  0  0  0  0  0  0  0  0  0
   26.3603  -15.7694  -16.4042 N   0  0  0  0  0  0  0  0  0  0  0  0
   24.1116  -14.9601  -16.3685 C   0  0  0  0  0  0  0  0  0  0  0  0
   24.0275  -14.8429  -17.6147 O   0  0  0  0  0  0  0  0  0  0  0  0
   22.7564   -8.8913  -13.0949 N   0  0  0  0  0  0  0  0  0  0  0  0
   22.9315  -15.1505  -15.6220 C   0  0  2  0  0  0  0  0  0  0  0  0
   21.6045  -15.3295  -16.2579 C   0  0  0  0  0  0  0  0  0  0  0  0
   20.8209  -16.2346  -15.3430 C   0  0  0  0  0  0  0  0  0  0  0  0
   19.3992  -16.4505  -15.7140 C   0  0  0  0  0  0  0  0  0  0  0  0
   18.7203  -17.2969  -14.6776 O   0  0  0  0  0  0  0  0  0  0  0  0
   19.3856  -17.6259  -13.6701 C   0  0  0  0  0  0  0  0  0  0  0  0
   20.9307  -14.0212  -16.3734 O   0  0  0  0  0  0  0  0  0  0  0  0
   21.1782  -13.0981  -15.5693 O   0  0  0  0  0  0  0  0  0  0  0  0
   17.4068  -17.7178  -14.7971 O   0  0  0  0  0  0  0  0  0  0  0  0
  2  1  1  1
  2  3  1  0
  3  4  1  0
  4  8  1  0
  5  4  2  0
  6  2  1  0
  7  6  2  0
 10  9  1  0
 10 12  1  0
 11 10  2  0
 12 13  1  0
 13 14  1  0
 16 15  1  6
 15 14  1  0
 16 17  1  0
 17  6  1  0
 18 20  1  0
 18 16  1  0
 19 18  2  0
 21 26  1  0
 21 20  1  0
 21 22  1  1
 23 22  1  0
 23 24  1  0
 24 25  2  0
 26 29  1  0
 27 26  2  0
 28 24  1  0
M  END
$$$$
