DRE.pdb
     RDKit          3D

 29 28  0  0  1  0  0  0  0  0999 V2000
   25.5575  -18.6103  -17.8396 N   0  0  0  0  0  0  0  0  0  0  0  0
   24.3863  -17.9736  -17.2775 C   0  0  1  0  0  0  0  0  0  0  0  0
   23.4554  -17.4336  -18.3508 C   0  0  0  0  0  0  0  0  0  0  0  0
   23.6599  -15.9842  -18.6000 C   0  0  0  0  0  0  0  0  0  0  0  0
   24.6404  -15.3614  -18.0677 O   0  0  0  0  0  0  0  0  0  0  0  0
   23.6729  -18.8574  -16.3345 C   0  0  0  0  0  0  0  0  0  0  0  0
   22.7548  -19.5778  -16.8058 O   0  0  0  0  0  0  0  0  0  0  0  0
   22.8380  -15.2317  -19.3937 O   0  0  0  0  0  0  0  0  0  0  0  0
   25.7192  -23.6763  -14.9261 N   0  0  0  0  0  0  0  0  0  0  0  0
   24.8836  -24.0040  -13.8071 C   0  0  0  0  0  0  0  0  0  0  0  0
   24.1143  -25.0319  -13.9026 N   0  0  0  0  0  0  0  0  0  0  0  0
   24.8886  -23.2364  -12.6258 N   0  0  0  0  0  0  0  0  0  0  0  0
   25.7693  -22.1000  -12.4210 C   0  0  0  0  0  0  0  0  0  0  0  0
   25.4106  -20.9473  -13.3251 C   0  0  0  0  0  0  0  0  0  0  0  0
   24.0889  -20.3365  -12.9473 C   0  0  0  0  0  0  0  0  0  0  0  0
   23.2798  -19.9043  -14.1366 C   0  0  2  0  0  0  0  0  0  0  0  0
   23.9675  -18.9306  -14.9506 N   0  0  0  0  0  0  0  0  0  0  0  0
   21.9463  -19.3717  -13.7535 C   0  0  0  0  0  0  0  0  0  0  0  0
   21.8570  -18.2310  -13.2391 O   0  0  0  0  0  0  0  0  0  0  0  0
   23.4556  -25.2667  -13.1455 N   0  0  0  0  0  0  0  0  0  0  0  0
   20.7699  -20.1211  -13.9551 C   0  0  2  0  0  0  0  0  0  0  0  0
   19.4347  -19.6428  -13.5237 C   0  0  0  0  0  0  0  0  0  0  0  0
   18.4328  -20.3647  -14.3870 C   0  0  0  0  0  0  0  0  0  0  0  0
   18.4626  -20.0220  -15.8317 C   0  0  0  0  0  0  0  0  0  0  0  0
   17.4340  -20.8254  -16.5720 O   0  0  0  0  0  0  0  0  0  0  0  0
   16.7365  -21.6263  -15.9101 C   0  0  0  0  0  0  0  0  0  0  0  0
   19.2206  -19.9875  -12.1044 O   0  0  0  0  0  0  0  0  0  0  0  0
   19.9357  -20.8386  -11.5352 O   0  0  0  0  0  0  0  0  0  0  0  0
   17.2350  -20.7118  -17.9373 O   0  0  0  0  0  0  0  0  0  0  0  0
  2  1  1  6
  2  3  1  0
  3  4  1  0
  4  8  1  0
  5  4  2  0
  6  2  1  0
  7  6  2  0
 10  9  1  0
 10 12  1  0
 11 10  2  0
 12 13  1  0
 13 14  1  0
 16 15  1  1
 15 14  1  0
 16 17  1  0
 17  6  1  0
 18 20  1  0
 18 16  1  0
 19 18  2  0
 21 26  1  0
 21 20  1  0
 21 22  1  6
 23 22  1  0
 23 24  1  0
 24 25  2  0
 26 29  1  0
 27 26  2  0
 28 24  1  0
M  END
$$$$
