DRE.pdb
     RDKit          3D

 29 28  0  0  1  0  0  0  0  0999 V2000
   27.8714  -22.4565  -16.5437 N   0  0  0  0  0  0  0  0  0  0  0  0
   27.1002  -21.2794  -16.2079 C   0  0  1  0  0  0  0  0  0  0  0  0
   26.3370  -20.7327  -17.4031 C   0  0  0  0  0  0  0  0  0  0  0  0
   25.5755  -19.5014  -17.0731 C   0  0  0  0  0  0  0  0  0  0  0  0
   26.0348  -18.6540  -16.2343 O   0  0  0  0  0  0  0  0  0  0  0  0
   26.2090  -21.5105  -15.0539 C   0  0  0  0  0  0  0  0  0  0  0  0
   25.3565  -22.4300  -15.1623 O   0  0  0  0  0  0  0  0  0  0  0  0
   24.3626  -19.1935  -17.6258 O   0  0  0  0  0  0  0  0  0  0  0  0
   27.1693  -19.7217   -6.6190 N   0  0  0  0  0  0  0  0  0  0  0  0
   27.7451  -20.4722   -7.6975 C   0  0  0  0  0  0  0  0  0  0  0  0
   28.9982  -20.7613   -7.6365 N   0  0  0  0  0  0  0  0  0  0  0  0
   26.9792  -20.8921   -8.8028 N   0  0  0  0  0  0  0  0  0  0  0  0
   25.5731  -20.5667   -8.9642 C   0  0  0  0  0  0  0  0  0  0  0  0
   25.0337  -21.0650  -10.2816 C   0  0  0  0  0  0  0  0  0  0  0  0
   25.9209  -20.6688  -11.4297 C   0  0  0  0  0  0  0  0  0  0  0  0
   25.3884  -21.1095  -12.7633 C   0  0  2  0  0  0  0  0  0  0  0  0
   26.2669  -20.7595  -13.8539 N   0  0  0  0  0  0  0  0  0  0  0  0
   24.0283  -20.5765  -13.0365 C   0  0  0  0  0  0  0  0  0  0  0  0
   23.8732  -19.3506  -13.2536 O   0  0  0  0  0  0  0  0  0  0  0  0
   29.4613  -21.2555   -8.4134 N   0  0  0  0  0  0  0  0  0  0  0  0
   22.8992  -21.4194  -13.0583 C   0  0  2  0  0  0  0  0  0  0  0  0
   21.5265  -20.9096  -13.2896 C   0  0  0  0  0  0  0  0  0  0  0  0
   20.7835  -22.0144  -13.9951 C   0  0  0  0  0  0  0  0  0  0  0  0
   19.3357  -21.7738  -14.2218 C   0  0  0  0  0  0  0  0  0  0  0  0
   18.7334  -22.9278  -14.9682 O   0  0  0  0  0  0  0  0  0  0  0  0
   19.5158  -23.7482  -15.4979 C   0  0  0  0  0  0  0  0  0  0  0  0
   20.8834  -20.6149  -11.9940 O   0  0  0  0  0  0  0  0  0  0  0  0
   21.2292  -21.2142  -10.9543 O   0  0  0  0  0  0  0  0  0  0  0  0
   17.3664  -23.1113  -15.0877 O   0  0  0  0  0  0  0  0  0  0  0  0
  2  1  1  6
  2  3  1  0
  3  4  1  0
  4  8  1  0
  5  4  2  0
  6  2  1  0
  7  6  2  0
 10  9  1  0
 10 12  1  0
 11 10  2  0
 12 13  1  0
 13 14  1  0
 16 15  1  1
 15 14  1  0
 16 17  1  0
 17  6  1  0
 18 20  1  0
 18 16  1  0
 19 18  2  0
 21 26  1  0
 21 20  1  0
 21 22  1  6
 23 22  1  0
 23 24  1  0
 24 25  2  0
 26 29  1  0
 27 26  2  0
 28 24  1  0
M  END
$$$$
