DRE.pdb
     RDKit          3D

 29 28  0  0  1  0  0  0  0  0999 V2000
   18.2373  -14.0515  -17.9752 N   0  0  0  0  0  0  0  0  0  0  0  0
   18.0360  -13.8541  -16.5562 C   0  0  1  0  0  0  0  0  0  0  0  0
   19.2204  -14.3373  -15.7354 C   0  0  0  0  0  0  0  0  0  0  0  0
   19.3539  -15.8161  -15.7511 C   0  0  0  0  0  0  0  0  0  0  0  0
   18.3213  -16.5662  -15.6906 O   0  0  0  0  0  0  0  0  0  0  0  0
   17.6866  -12.4563  -16.2345 C   0  0  0  0  0  0  0  0  0  0  0  0
   18.2296  -11.5554  -16.9256 O   0  0  0  0  0  0  0  0  0  0  0  0
   20.5560  -16.4644  -15.8287 O   0  0  0  0  0  0  0  0  0  0  0  0
   10.9117   -8.8170  -12.2875 N   0  0  0  0  0  0  0  0  0  0  0  0
   11.8979   -9.8233  -12.0181 C   0  0  0  0  0  0  0  0  0  0  0  0
   11.5824  -10.7877  -11.2257 N   0  0  0  0  0  0  0  0  0  0  0  0
   13.1828   -9.7778  -12.5941 N   0  0  0  0  0  0  0  0  0  0  0  0
   13.6202   -8.7103  -13.4762 C   0  0  0  0  0  0  0  0  0  0  0  0
   15.0097   -8.9604  -14.0068 C   0  0  0  0  0  0  0  0  0  0  0  0
   15.2292  -10.4144  -14.3234 C   0  0  0  0  0  0  0  0  0  0  0  0
   16.5815  -10.6892  -14.9164 C   0  0  2  0  0  0  0  0  0  0  0  0
   16.7866  -12.0889  -15.2038 N   0  0  0  0  0  0  0  0  0  0  0  0
   17.6896  -10.1957  -14.0577 C   0  0  0  0  0  0  0  0  0  0  0  0
   18.0043  -10.8314  -13.0229 O   0  0  0  0  0  0  0  0  0  0  0  0
   12.2579  -11.5374  -11.0162 N   0  0  0  0  0  0  0  0  0  0  0  0
   18.4017   -9.0227  -14.3785 C   0  0  2  0  0  0  0  0  0  0  0  0
   19.4581   -8.4647  -13.5009 C   0  0  0  0  0  0  0  0  0  0  0  0
   20.1155   -7.3607  -14.2878 C   0  0  0  0  0  0  0  0  0  0  0  0
   21.1250   -6.5583  -13.5512 C   0  0  0  0  0  0  0  0  0  0  0  0
   21.6651   -5.4737  -14.4364 O   0  0  0  0  0  0  0  0  0  0  0  0
   21.3117   -5.4745  -15.6368 C   0  0  0  0  0  0  0  0  0  0  0  0
   18.8444   -7.9160  -12.2756 O   0  0  0  0  0  0  0  0  0  0  0  0
   17.6865   -7.4484  -12.2911 O   0  0  0  0  0  0  0  0  0  0  0  0
   22.5253   -4.4909  -13.9773 O   0  0  0  0  0  0  0  0  0  0  0  0
  2  1  1  6
  2  3  1  0
  3  4  1  0
  4  8  1  0
  5  4  2  0
  6  2  1  0
  7  6  2  0
 10  9  1  0
 10 12  1  0
 11 10  2  0
 12 13  1  0
 13 14  1  0
 16 15  1  1
 15 14  1  0
 16 17  1  0
 17  6  1  0
 18 20  1  0
 18 16  1  0
 19 18  2  0
 21 26  1  0
 21 20  1  0
 21 22  1  6
 23 22  1  0
 23 24  1  0
 24 25  2  0
 26 29  1  0
 27 26  2  0
 28 24  1  0
M  END
$$$$
