DRE.pdb
     RDKit          3D

 29 28  0  0  1  0  0  0  0  0999 V2000
   28.5302  -19.9847  -17.5261 N   0  0  0  0  0  0  0  0  0  0  0  0
   27.4925  -20.9799  -17.6873 C   0  0  1  0  0  0  0  0  0  0  0  0
   28.0124  -22.2518  -18.3368 C   0  0  0  0  0  0  0  0  0  0  0  0
   28.5945  -22.0038  -19.6801 C   0  0  0  0  0  0  0  0  0  0  0  0
   28.6361  -20.8230  -20.1666 O   0  0  0  0  0  0  0  0  0  0  0  0
   26.7947  -21.2645  -16.4178 C   0  0  0  0  0  0  0  0  0  0  0  0
   25.7149  -21.9073  -16.4881 O   0  0  0  0  0  0  0  0  0  0  0  0
   29.1130  -22.9916  -20.4719 O   0  0  0  0  0  0  0  0  0  0  0  0
   25.8407  -20.0203   -7.8076 N   0  0  0  0  0  0  0  0  0  0  0  0
   24.9210  -20.8641   -8.5147 C   0  0  0  0  0  0  0  0  0  0  0  0
   23.7308  -20.9971   -8.0421 N   0  0  0  0  0  0  0  0  0  0  0  0
   25.2883  -21.5380   -9.6960 N   0  0  0  0  0  0  0  0  0  0  0  0
   26.5848  -21.3788  -10.3307 C   0  0  0  0  0  0  0  0  0  0  0  0
   26.5039  -20.4919  -11.5479 C   0  0  0  0  0  0  0  0  0  0  0  0
   27.2656  -21.0715  -12.7082 C   0  0  0  0  0  0  0  0  0  0  0  0
   26.4659  -21.1038  -13.9792 C   0  0  2  0  0  0  0  0  0  0  0  0
   27.2742  -20.8553  -15.1490 N   0  0  0  0  0  0  0  0  0  0  0  0
   25.3256  -20.1510  -13.9574 C   0  0  0  0  0  0  0  0  0  0  0  0
   25.5398  -18.9296  -13.7671 O   0  0  0  0  0  0  0  0  0  0  0  0
   23.0381  -21.5894   -8.5234 N   0  0  0  0  0  0  0  0  0  0  0  0
   23.9991  -20.5876  -14.1468 C   0  0  2  0  0  0  0  0  0  0  0  0
   22.8368  -19.6718  -14.0590 C   0  0  0  0  0  0  0  0  0  0  0  0
   22.5742  -19.1934  -15.4634 C   0  0  0  0  0  0  0  0  0  0  0  0
   21.8636  -20.1518  -16.3476 C   0  0  0  0  0  0  0  0  0  0  0  0
   21.7077  -19.5664  -17.7204 O   0  0  0  0  0  0  0  0  0  0  0  0
   22.0958  -18.3900  -17.8972 C   0  0  0  0  0  0  0  0  0  0  0  0
   21.6640  -20.4085  -13.5482 O   0  0  0  0  0  0  0  0  0  0  0  0
   20.6465  -19.8016  -13.1532 O   0  0  0  0  0  0  0  0  0  0  0  0
   21.1591  -20.2718  -18.7778 O   0  0  0  0  0  0  0  0  0  0  0  0
  2  1  1  1
  2  3  1  0
  3  4  1  0
  4  8  1  0
  5  4  2  0
  6  2  1  0
  7  6  2  0
 10  9  1  0
 10 12  1  0
 11 10  2  0
 12 13  1  0
 13 14  1  0
 16 15  1  1
 15 14  1  0
 16 17  1  0
 17  6  1  0
 18 20  1  0
 18 16  1  0
 19 18  2  0
 21 26  1  0
 21 20  1  0
 21 22  1  6
 23 22  1  0
 23 24  1  0
 24 25  2  0
 26 29  1  0
 27 26  2  0
 28 24  1  0
M  END
$$$$
