DRE.pdb
     RDKit          3D

 29 28  0  0  1  0  0  0  0  0999 V2000
   18.7238  -29.9649  -12.5161 N   0  0  0  0  0  0  0  0  0  0  0  0
   18.2875  -31.3350  -12.3559 C   0  0  1  0  0  0  0  0  0  0  0  0
   18.1806  -32.0628  -13.6859 C   0  0  0  0  0  0  0  0  0  0  0  0
   17.1197  -31.4966  -14.5569 C   0  0  0  0  0  0  0  0  0  0  0  0
   17.2537  -31.4861  -15.8276 O   0  0  0  0  0  0  0  0  0  0  0  0
   19.1296  -32.0771  -11.3970 C   0  0  0  0  0  0  0  0  0  0  0  0
   18.7475  -33.2311  -11.0710 O   0  0  0  0  0  0  0  0  0  0  0  0
   15.9561  -30.9604  -14.0774 O   0  0  0  0  0  0  0  0  0  0  0  0
   27.6809  -32.1238   -8.4420 N   0  0  0  0  0  0  0  0  0  0  0  0
   26.8998  -33.0442   -7.6671 C   0  0  0  0  0  0  0  0  0  0  0  0
   27.4948  -33.7272   -6.7523 N   0  0  0  0  0  0  0  0  0  0  0  0
   25.5179  -33.2120   -7.8836 N   0  0  0  0  0  0  0  0  0  0  0  0
   24.7611  -32.4184   -8.8358 C   0  0  0  0  0  0  0  0  0  0  0  0
   23.3052  -32.8118   -8.8561 C   0  0  0  0  0  0  0  0  0  0  0  0
   22.5225  -31.9904   -9.8435 C   0  0  0  0  0  0  0  0  0  0  0  0
   21.0708  -32.3713   -9.9049 C   0  0  2  0  0  0  0  0  0  0  0  0
   20.3241  -31.5605  -10.8369 N   0  0  0  0  0  0  0  0  0  0  0  0
   20.4135  -32.3218   -8.5730 C   0  0  0  0  0  0  0  0  0  0  0  0
   19.9365  -31.2394   -8.1551 O   0  0  0  0  0  0  0  0  0  0  0  0
   26.9726  -34.4103   -6.1839 N   0  0  0  0  0  0  0  0  0  0  0  0
   20.3111  -33.4689   -7.7607 C   0  0  2  0  0  0  0  0  0  0  0  0
   19.6065  -33.4635   -6.4565 C   0  0  0  0  0  0  0  0  0  0  0  0
   19.3313  -34.9071   -6.1238 C   0  0  0  0  0  0  0  0  0  0  0  0
   18.6059  -35.1472   -4.8503 C   0  0  0  0  0  0  0  0  0  0  0  0
   18.5033  -36.6209   -4.5872 O   0  0  0  0  0  0  0  0  0  0  0  0
   19.0607  -37.3953   -5.3968 C   0  0  0  0  0  0  0  0  0  0  0  0
   20.4775  -32.8643   -5.4262 O   0  0  0  0  0  0  0  0  0  0  0  0
   21.7210  -32.9383   -5.5142 O   0  0  0  0  0  0  0  0  0  0  0  0
   17.8250  -37.1421   -3.4986 O   0  0  0  0  0  0  0  0  0  0  0  0
  2  1  1  6
  2  3  1  0
  3  4  1  0
  4  8  1  0
  5  4  2  0
  6  2  1  0
  7  6  2  0
 10  9  1  0
 10 12  1  0
 11 10  2  0
 12 13  1  0
 13 14  1  0
 16 15  1  1
 15 14  1  0
 16 17  1  0
 17  6  1  0
 18 20  1  0
 18 16  1  0
 19 18  2  0
 21 26  1  0
 21 20  1  0
 21 22  1  6
 23 22  1  0
 23 24  1  0
 24 25  2  0
 26 29  1  0
 27 26  2  0
 28 24  1  0
M  END
$$$$
