DRE.pdb
     RDKit          3D

 29 28  0  0  1  0  0  0  0  0999 V2000
   24.6053  -11.9560  -17.9646 N   0  0  0  0  0  0  0  0  0  0  0  0
   24.3210  -11.5363  -16.6096 C   0  0  1  0  0  0  0  0  0  0  0  0
   25.5649  -11.0452  -15.8875 C   0  0  0  0  0  0  0  0  0  0  0  0
   26.6054  -12.0984  -15.7730 C   0  0  0  0  0  0  0  0  0  0  0  0
   27.6993  -11.8718  -15.1528 O   0  0  0  0  0  0  0  0  0  0  0  0
   23.2322  -10.5408  -16.5539 C   0  0  0  0  0  0  0  0  0  0  0  0
   23.3158   -9.5549  -17.3318 O   0  0  0  0  0  0  0  0  0  0  0  0
   26.4733  -13.3507  -16.3075 O   0  0  0  0  0  0  0  0  0  0  0  0
   18.4749  -13.9653  -17.3140 N   0  0  0  0  0  0  0  0  0  0  0  0
   18.2380  -13.9352  -15.8995 C   0  0  0  0  0  0  0  0  0  0  0  0
   18.3990  -15.0244  -15.2324 N   0  0  0  0  0  0  0  0  0  0  0  0
   17.8399  -12.7570  -15.2376 N   0  0  0  0  0  0  0  0  0  0  0  0
   17.7171  -11.4735  -15.9059 C   0  0  0  0  0  0  0  0  0  0  0  0
   19.0550  -10.9601  -16.3761 C   0  0  0  0  0  0  0  0  0  0  0  0
   19.7469  -10.1567  -15.3093 C   0  0  0  0  0  0  0  0  0  0  0  0
   21.0870   -9.6347  -15.7428 C   0  0  2  0  0  0  0  0  0  0  0  0
   22.1199  -10.6413  -15.6822 N   0  0  0  0  0  0  0  0  0  0  0  0
   21.5132   -8.4446  -14.9613 C   0  0  0  0  0  0  0  0  0  0  0  0
   22.0667   -8.5990  -13.8461 O   0  0  0  0  0  0  0  0  0  0  0  0
   18.2062  -15.0534  -14.2203 N   0  0  0  0  0  0  0  0  0  0  0  0
   21.3102   -7.1365  -15.4447 C   0  0  2  0  0  0  0  0  0  0  0  0
   21.7808   -5.9341  -14.7165 C   0  0  0  0  0  0  0  0  0  0  0  0
   22.3008   -4.9863  -15.7661 C   0  0  0  0  0  0  0  0  0  0  0  0
   22.7837   -3.6741  -15.2660 C   0  0  0  0  0  0  0  0  0  0  0  0
   23.1495   -2.7872  -16.4198 O   0  0  0  0  0  0  0  0  0  0  0  0
   22.5660   -1.6840  -16.5116 C   0  0  0  0  0  0  0  0  0  0  0  0
   20.6497   -5.3184  -13.9951 O   0  0  0  0  0  0  0  0  0  0  0  0
   19.4717   -5.5143  -14.3608 O   0  0  0  0  0  0  0  0  0  0  0  0
   24.0935   -3.1426  -17.3680 O   0  0  0  0  0  0  0  0  0  0  0  0
  2  1  1  6
  2  3  1  0
  3  4  1  0
  4  8  1  0
  5  4  2  0
  6  2  1  0
  7  6  2  0
 10  9  1  0
 10 12  1  0
 11 10  2  0
 12 13  1  0
 13 14  1  0
 16 15  1  1
 15 14  1  0
 16 17  1  0
 17  6  1  0
 18 20  1  0
 18 16  1  0
 19 18  2  0
 21 26  1  0
 21 20  1  0
 21 22  1  6
 23 22  1  0
 23 24  1  0
 24 25  2  0
 26 29  1  0
 27 26  2  0
 28 24  1  0
M  END
$$$$
