RTM.pdb
     RDKit          3D

 27 26  0  0  1  0  0  0  0  0999 V2000
   34.1603  -26.1679  -15.7356 N   0  0  0  0  0  0  0  0  0  0  0  0
   33.1702  -26.1383  -16.7512 C   0  0  0  0  0  0  0  0  0  0  0  0
   33.4184  -26.5830  -17.9438 N   0  0  0  0  0  0  0  0  0  0  0  0
   31.8664  -25.6446  -16.5304 N   0  0  0  0  0  0  0  0  0  0  0  0
   31.5568  -24.4189  -15.8473 C   0  0  0  0  0  0  0  0  0  0  0  0
   31.6290  -23.2081  -16.7050 C   0  0  0  0  0  0  0  0  0  0  0  0
   30.3992  -22.4040  -16.8717 C   0  0  0  0  0  0  0  0  0  0  0  0
   29.2273  -22.7904  -16.0293 C   0  0  2  0  0  0  0  0  0  0  0  0
   28.1526  -23.1562  -16.9126 N   0  0  0  0  0  0  0  0  0  0  0  0
   28.8340  -21.7083  -15.0824 C   0  0  0  0  0  0  0  0  0  0  0  0
   29.3138  -20.5601  -15.2248 O   0  0  0  0  0  0  0  0  0  0  0  0
   32.6971  -26.6457  -18.6753 C   0  0  0  0  0  0  0  0  0  0  0  0
   27.6518  -19.2883  -15.1341 C   0  0  2  0  0  0  0  0  0  0  0  0
   26.7197  -19.8010  -14.0692 O   0  0  0  0  0  0  0  0  0  0  0  0
   25.6132  -20.4523  -14.6095 C   0  0  2  0  0  0  0  0  0  0  0  0
   27.5072  -20.8064  -13.2135 N   0  0  0  0  0  0  0  0  0  0  0  0
   27.9301  -21.9122  -14.0100 C   0  0  0  0  0  0  0  0  0  0  0  0
   26.6302  -21.2339  -12.0745 O   0  0  0  0  0  0  0  0  0  0  0  0
   26.0130  -22.3346  -12.1074 C   0  0  0  0  0  0  0  0  0  0  0  0
   28.6398  -19.6389   -6.1060 S   0  0  0  0  0  0  0  0  0  0  0  0
   26.8709  -19.1347   -6.0894 C   0  0  0  0  0  0  0  0  0  0  0  0
   25.9776  -20.1555   -7.2293 C   0  0  0  0  0  0  0  0  0  0  0  0
   26.3963  -20.1955   -8.6132 C   0  0  1  0  0  0  0  0  0  0  0  0
   25.8025  -21.0421   -9.6753 N   0  0  0  0  0  0  0  0  0  0  0  0
   26.4477  -20.4508  -10.9257 C   0  0  0  0  0  0  0  0  0  0  0  0
   24.3430  -20.8056   -9.9223 O   0  0  0  0  0  0  0  0  0  0  0  0
   23.9943  -19.9105  -10.8034 O   0  0  0  0  0  0  0  0  0  0  0  0
  2  3  2  0
  2  1  1  0
  4  2  1  0
  5  4  1  0
  6  5  1  0
  7  6  1  0
  8 10  1  0
  8  7  1  0
  8  9  1  6
 10 16  1  0
 10 11  2  0
 13 12  1  6
 13 14  1  0
 15 13  1  0
 15 16  1  1
 17 18  2  0
 17 15  1  0
 19 20  1  0
 21 20  1  0
 23 22  1  1
 22 21  1  0
 23 24  1  0
 24 17  1  0
 25 23  1  0
 26 25  2  0
 27 25  1  0
M  END
$$$$
