RTM.pdb
     RDKit          3D

 27 26  0  0  1  0  0  0  0  0999 V2000
   25.9860  -19.8642   -7.1188 N   0  0  0  0  0  0  0  0  0  0  0  0
   25.0181  -20.8713   -7.3670 C   0  0  0  0  0  0  0  0  0  0  0  0
   24.5386  -21.5937   -6.4027 N   0  0  0  0  0  0  0  0  0  0  0  0
   24.5106  -21.1393   -8.6565 N   0  0  0  0  0  0  0  0  0  0  0  0
   24.7939  -20.3591   -9.8295 C   0  0  0  0  0  0  0  0  0  0  0  0
   26.1988  -20.4572  -10.3021 C   0  0  0  0  0  0  0  0  0  0  0  0
   26.4396  -21.0376  -11.6407 C   0  0  0  0  0  0  0  0  0  0  0  0
   25.2839  -21.7279  -12.2888 C   0  0  2  0  0  0  0  0  0  0  0  0
   25.6087  -23.1254  -12.3926 N   0  0  0  0  0  0  0  0  0  0  0  0
   24.9409  -21.1302  -13.6107 C   0  0  0  0  0  0  0  0  0  0  0  0
   25.7649  -21.2007  -14.5514 O   0  0  0  0  0  0  0  0  0  0  0  0
   23.7953  -22.2909   -6.5467 C   0  0  0  0  0  0  0  0  0  0  0  0
   22.1377  -21.9611  -15.8247 C   0  0  2  0  0  0  0  0  0  0  0  0
   22.0451  -20.4702  -15.6404 O   0  0  0  0  0  0  0  0  0  0  0  0
   21.1003  -20.1179  -14.6792 C   0  0  2  0  0  0  0  0  0  0  0  0
   23.4239  -19.9778  -15.1718 N   0  0  0  0  0  0  0  0  0  0  0  0
   23.7106  -20.4744  -13.8652 C   0  0  0  0  0  0  0  0  0  0  0  0
   23.4220  -18.4787  -15.2180 O   0  0  0  0  0  0  0  0  0  0  0  0
   22.9807  -17.7995  -14.2499 C   0  0  0  0  0  0  0  0  0  0  0  0
   28.1574  -15.7744  -18.3278 S   0  0  0  0  0  0  0  0  0  0  0  0
   26.8712  -14.5528  -18.8146 C   0  0  0  0  0  0  0  0  0  0  0  0
   25.5212  -14.6622  -17.6723 C   0  0  0  0  0  0  0  0  0  0  0  0
   25.0771  -15.9667  -17.2329 C   0  0  1  0  0  0  0  0  0  0  0  0
   23.9745  -16.2318  -16.2782 N   0  0  0  0  0  0  0  0  0  0  0  0
   23.9024  -17.7558  -16.3192 C   0  0  0  0  0  0  0  0  0  0  0  0
   22.6146  -15.8308  -16.7647 O   0  0  0  0  0  0  0  0  0  0  0  0
   22.2053  -14.6127  -16.5452 O   0  0  0  0  0  0  0  0  0  0  0  0
  2  3  2  0
  2  1  1  0
  4  2  1  0
  5  4  1  0
  6  5  1  0
  7  6  1  0
  8 10  1  0
  8  7  1  0
  8  9  1  6
 10 16  1  0
 10 11  2  0
 13 12  1  6
 13 14  1  0
 15 13  1  0
 15 16  1  6
 17 18  2  0
 17 15  1  0
 19 20  1  0
 21 20  1  0
 23 22  1  1
 22 21  1  0
 23 24  1  0
 24 17  1  0
 25 23  1  0
 26 25  2  0
 27 25  1  0
M  END
$$$$
