RTM.pdb
     RDKit          3D

 27 26  0  0  1  0  0  0  0  0999 V2000
   32.4468  -21.0493  -10.7638 N   0  0  0  0  0  0  0  0  0  0  0  0
   32.1638  -22.4303  -10.9228 C   0  0  0  0  0  0  0  0  0  0  0  0
   32.8469  -23.3327  -10.2900 N   0  0  0  0  0  0  0  0  0  0  0  0
   31.1275  -22.9049  -11.7553 N   0  0  0  0  0  0  0  0  0  0  0  0
   30.5052  -22.1471  -12.8057 C   0  0  0  0  0  0  0  0  0  0  0  0
   30.8213  -20.6958  -12.7799 C   0  0  0  0  0  0  0  0  0  0  0  0
   30.1380  -19.8213  -13.7571 C   0  0  0  0  0  0  0  0  0  0  0  0
   28.8498  -20.3261  -14.3211 C   0  0  2  0  0  0  0  0  0  0  0  0
   28.7518  -19.8603  -15.6785 N   0  0  0  0  0  0  0  0  0  0  0  0
   27.6763  -19.9148  -13.4989 C   0  0  0  0  0  0  0  0  0  0  0  0
   27.3258  -18.7124  -13.4831 O   0  0  0  0  0  0  0  0  0  0  0  0
   32.6640  -24.3406  -10.3901 C   0  0  0  0  0  0  0  0  0  0  0  0
   23.4323  -20.2576  -11.5576 C   0  0  2  0  0  0  0  0  0  0  0  0
   24.5096  -20.8853  -12.4008 O   0  0  0  0  0  0  0  0  0  0  0  0
   24.3814  -20.5544  -13.7478 C   0  0  1  0  0  0  0  0  0  0  0  0
   25.8596  -20.3523  -11.8943 N   0  0  0  0  0  0  0  0  0  0  0  0
   26.9221  -20.8273  -12.7198 C   0  0  0  0  0  0  0  0  0  0  0  0
   26.0208  -20.7789  -10.4656 O   0  0  0  0  0  0  0  0  0  0  0  0
   27.1232  -21.2236  -10.0408 C   0  0  0  0  0  0  0  0  0  0  0  0
   29.3499  -19.2562   -5.9107 S   0  0  0  0  0  0  0  0  0  0  0  0
   27.6743  -18.4972   -5.9081 C   0  0  0  0  0  0  0  0  0  0  0  0
   26.4775  -19.7593   -6.2458 C   0  0  0  0  0  0  0  0  0  0  0  0
   26.1082  -20.0278   -7.6183 C   0  0  1  0  0  0  0  0  0  0  0  0
   25.2033  -21.1082   -8.0778 N   0  0  0  0  0  0  0  0  0  0  0  0
   24.9756  -20.7096   -9.5334 C   0  0  0  0  0  0  0  0  0  0  0  0
   23.8185  -21.0510   -7.5068 O   0  0  0  0  0  0  0  0  0  0  0  0
   22.8977  -20.4012   -8.1619 O   0  0  0  0  0  0  0  0  0  0  0  0
  2  3  2  0
  2  1  1  0
  4  2  1  0
  5  4  1  0
  6  5  1  0
  7  6  1  0
  8 10  1  0
  8  7  1  0
  8  9  1  6
 10 16  1  0
 10 11  2  0
 13 12  1  6
 13 14  1  0
 15 13  1  0
 15 16  1  1
 17 18  2  0
 17 15  1  0
 19 20  1  0
 21 20  1  0
 23 22  1  6
 22 21  1  0
 23 24  1  0
 24 17  1  0
 25 23  1  0
 26 25  2  0
 27 25  1  0
M  END
$$$$
