RTM.pdb
     RDKit          3D

 27 26  0  0  1  0  0  0  0  0999 V2000
   29.6441  -19.1868  -17.9599 N   0  0  0  0  0  0  0  0  0  0  0  0
   29.5480  -18.3109  -19.0717 C   0  0  0  0  0  0  0  0  0  0  0  0
   30.6084  -17.8104  -19.6255 N   0  0  0  0  0  0  0  0  0  0  0  0
   28.3131  -17.9439  -19.6484 N   0  0  0  0  0  0  0  0  0  0  0  0
   27.0238  -18.3251  -19.1410 C   0  0  0  0  0  0  0  0  0  0  0  0
   26.9839  -18.5303  -17.6702 C   0  0  0  0  0  0  0  0  0  0  0  0
   25.9554  -17.8010  -16.8975 C   0  0  0  0  0  0  0  0  0  0  0  0
   24.6083  -18.4405  -16.8059 C   0  0  2  0  0  0  0  0  0  0  0  0
   23.7078  -17.6900  -17.6397 N   0  0  0  0  0  0  0  0  0  0  0  0
   24.1252  -18.5354  -15.3988 C   0  0  0  0  0  0  0  0  0  0  0  0
   23.7773  -17.4946  -14.7950 O   0  0  0  0  0  0  0  0  0  0  0  0
   30.5655  -17.1575  -20.4200 C   0  0  0  0  0  0  0  0  0  0  0  0
   21.2101  -19.6394  -14.0888 C   0  0  2  0  0  0  0  0  0  0  0  0
   22.1768  -20.4786  -13.2971 O   0  0  0  0  0  0  0  0  0  0  0  0
   22.3119  -21.7612  -13.8236 C   0  0  2  0  0  0  0  0  0  0  0  0
   23.5457  -19.7815  -13.3548 N   0  0  0  0  0  0  0  0  0  0  0  0
   24.0368  -19.7620  -14.6944 C   0  0  0  0  0  0  0  0  0  0  0  0
   24.4740  -20.5033  -12.4238 O   0  0  0  0  0  0  0  0  0  0  0  0
   25.6547  -20.7834  -12.7716 C   0  0  0  0  0  0  0  0  0  0  0  0
   28.1698  -18.1602   -9.8037 S   0  0  0  0  0  0  0  0  0  0  0  0
   27.7568  -19.0475   -8.2462 C   0  0  0  0  0  0  0  0  0  0  0  0
   26.8518  -20.5160   -8.6508 C   0  0  0  0  0  0  0  0  0  0  0  0
   25.9227  -20.4854   -9.7589 C   0  0  1  0  0  0  0  0  0  0  0  0
   25.0806  -21.6162  -10.2167 N   0  0  0  0  0  0  0  0  0  0  0  0
   24.0925  -20.9018  -11.1347 C   0  0  0  0  0  0  0  0  0  0  0  0
   24.1835  -22.1955   -9.1647 O   0  0  0  0  0  0  0  0  0  0  0  0
   23.0393  -21.6166   -8.9299 O   0  0  0  0  0  0  0  0  0  0  0  0
  2  3  2  0
  2  1  1  0
  4  2  1  0
  5  4  1  0
  6  5  1  0
  7  6  1  0
  8 10  1  0
  8  7  1  0
  8  9  1  6
 10 16  1  0
 10 11  2  0
 13 12  1  1
 13 14  1  0
 15 13  1  0
 15 16  1  1
 17 18  2  0
 17 15  1  0
 19 20  1  0
 21 20  1  0
 23 22  1  6
 22 21  1  0
 23 24  1  0
 24 17  1  0
 25 23  1  0
 26 25  2  0
 27 25  1  0
M  END
$$$$
