RTM.pdb
     RDKit          3D

 27 26  0  0  1  0  0  0  0  0999 V2000
   31.7038  -26.8415  -17.1174 N   0  0  0  0  0  0  0  0  0  0  0  0
   31.4487  -26.0760  -18.2842 C   0  0  0  0  0  0  0  0  0  0  0  0
   31.2547  -26.6467  -19.4324 N   0  0  0  0  0  0  0  0  0  0  0  0
   31.3758  -24.6665  -18.2701 N   0  0  0  0  0  0  0  0  0  0  0  0
   31.4712  -23.8506  -17.0911 C   0  0  0  0  0  0  0  0  0  0  0  0
   30.3139  -23.9756  -16.1681 C   0  0  0  0  0  0  0  0  0  0  0  0
   29.7595  -22.7363  -15.5819 C   0  0  0  0  0  0  0  0  0  0  0  0
   28.3927  -22.3356  -16.0330 C   0  0  2  0  0  0  0  0  0  0  0  0
   28.4949  -21.8796  -17.3934 N   0  0  0  0  0  0  0  0  0  0  0  0
   27.7840  -21.3090  -15.1397 C   0  0  0  0  0  0  0  0  0  0  0  0
   27.7252  -20.1173  -15.5207 O   0  0  0  0  0  0  0  0  0  0  0  0
   31.1657  -26.1156  -20.3095 C   0  0  0  0  0  0  0  0  0  0  0  0
   25.8556  -19.3957  -15.0949 C   0  0  2  0  0  0  0  0  0  0  0  0
   25.3705  -20.0780  -13.8440 O   0  0  0  0  0  0  0  0  0  0  0  0
   24.5360  -21.1574  -14.1248 C   0  0  2  0  0  0  0  0  0  0  0  0
   26.6074  -20.6001  -13.0953 N   0  0  0  0  0  0  0  0  0  0  0  0
   27.2588  -21.6141  -13.8592 C   0  0  0  0  0  0  0  0  0  0  0  0
   26.1609  -21.1028  -11.7546 O   0  0  0  0  0  0  0  0  0  0  0  0
   25.7529  -22.2883  -11.6083 C   0  0  0  0  0  0  0  0  0  0  0  0
   28.8479  -19.1805   -6.6498 S   0  0  0  0  0  0  0  0  0  0  0  0
   27.3132  -19.6656   -5.7592 C   0  0  0  0  0  0  0  0  0  0  0  0
   25.9747  -19.7176   -6.9189 C   0  0  0  0  0  0  0  0  0  0  0  0
   26.2723  -19.8159   -8.3309 C   0  0  1  0  0  0  0  0  0  0  0  0
   25.8048  -20.8861   -9.2438 N   0  0  0  0  0  0  0  0  0  0  0  0
   26.1708  -20.3003  -10.6048 C   0  0  0  0  0  0  0  0  0  0  0  0
   24.3150  -21.0210   -9.3402 O   0  0  0  0  0  0  0  0  0  0  0  0
   23.6600  -20.1946  -10.1066 O   0  0  0  0  0  0  0  0  0  0  0  0
  2  3  2  0
  2  1  1  0
  4  2  1  0
  5  4  1  0
  6  5  1  0
  7  6  1  0
  8 10  1  0
  8  7  1  0
  8  9  1  6
 10 16  1  0
 10 11  2  0
 13 12  1  1
 13 14  1  0
 15 13  1  0
 15 16  1  1
 17 18  2  0
 17 15  1  0
 19 20  1  0
 21 20  1  0
 23 22  1  1
 22 21  1  0
 23 24  1  0
 24 17  1  0
 25 23  1  0
 26 25  2  0
 27 25  1  0
M  END
$$$$
