RTM.pdb
     RDKit          3D

 27 26  0  0  1  0  0  0  0  0999 V2000
   26.5536  -24.8497  -18.5788 N   0  0  0  0  0  0  0  0  0  0  0  0
   26.5608  -25.3484  -17.2507 C   0  0  0  0  0  0  0  0  0  0  0  0
   27.4626  -26.1923  -16.8554 N   0  0  0  0  0  0  0  0  0  0  0  0
   25.6112  -24.9545  -16.2835 N   0  0  0  0  0  0  0  0  0  0  0  0
   24.5285  -24.0398  -16.5200 C   0  0  0  0  0  0  0  0  0  0  0  0
   24.2695  -23.0991  -15.3998 C   0  0  0  0  0  0  0  0  0  0  0  0
   25.1070  -21.8838  -15.3092 C   0  0  0  0  0  0  0  0  0  0  0  0
   24.7686  -20.9171  -14.2214 C   0  0  2  0  0  0  0  0  0  0  0  0
   24.9315  -21.5960  -12.9637 N   0  0  0  0  0  0  0  0  0  0  0  0
   23.4001  -20.3478  -14.3805 C   0  0  0  0  0  0  0  0  0  0  0  0
   22.5870  -20.4231  -13.4307 O   0  0  0  0  0  0  0  0  0  0  0  0
   27.4504  -26.6221  -15.9203 C   0  0  0  0  0  0  0  0  0  0  0  0
   22.6131  -16.8273  -15.8363 C   0  0  2  0  0  0  0  0  0  0  0  0
   21.7279  -17.8395  -16.5126 O   0  0  0  0  0  0  0  0  0  0  0  0
   22.2187  -18.2150  -17.7610 C   0  0  2  0  0  0  0  0  0  0  0  0
   21.6815  -19.0847  -15.6124 N   0  0  0  0  0  0  0  0  0  0  0  0
   22.9612  -19.7145  -15.5699 C   0  0  0  0  0  0  0  0  0  0  0  0
   20.6188  -20.0011  -16.1419 O   0  0  0  0  0  0  0  0  0  0  0  0
   20.9190  -21.0089  -16.8402 C   0  0  0  0  0  0  0  0  0  0  0  0
   13.2391  -22.1079  -14.4935 S   0  0  0  0  0  0  0  0  0  0  0  0
   14.8929  -21.4565  -14.0198 C   0  0  0  0  0  0  0  0  0  0  0  0
   15.9508  -21.5022  -15.4404 C   0  0  0  0  0  0  0  0  0  0  0  0
   17.2213  -20.8127  -15.3923 C   0  0  1  0  0  0  0  0  0  0  0  0
   18.2065  -20.7310  -16.4969 N   0  0  0  0  0  0  0  0  0  0  0  0
   19.2535  -19.7969  -15.8963 C   0  0  0  0  0  0  0  0  0  0  0  0
   17.7399  -19.9640  -17.6973 O   0  0  0  0  0  0  0  0  0  0  0  0
   18.0402  -18.6987  -17.7871 O   0  0  0  0  0  0  0  0  0  0  0  0
  2  3  2  0
  2  1  1  0
  4  2  1  0
  5  4  1  0
  6  5  1  0
  7  6  1  0
  8 10  1  0
  8  7  1  0
  8  9  1  1
 10 16  1  0
 10 11  2  0
 13 12  1  6
 13 14  1  0
 15 13  1  0
 15 16  1  1
 17 18  2  0
 17 15  1  0
 19 20  1  0
 21 20  1  0
 23 22  1  1
 22 21  1  0
 23 24  1  0
 24 17  1  0
 25 23  1  0
 26 25  2  0
 27 25  1  0
M  END
$$$$
