RTM.pdb
     RDKit          3D

 27 26  0  0  1  0  0  0  0  0999 V2000
   20.5345  -24.4346  -12.9675 N   0  0  0  0  0  0  0  0  0  0  0  0
   21.1110  -24.6319  -14.2487 C   0  0  0  0  0  0  0  0  0  0  0  0
   20.4576  -25.2340  -15.1932 N   0  0  0  0  0  0  0  0  0  0  0  0
   22.4068  -24.1804  -14.5790 N   0  0  0  0  0  0  0  0  0  0  0  0
   23.2365  -23.3714  -13.7293 C   0  0  0  0  0  0  0  0  0  0  0  0
   22.4864  -22.4062  -12.8851 C   0  0  0  0  0  0  0  0  0  0  0  0
   23.2649  -21.4775  -12.0376 C   0  0  0  0  0  0  0  0  0  0  0  0
   24.7487  -21.4971  -12.2111 C   0  0  2  0  0  0  0  0  0  0  0  0
   25.3436  -21.5529  -10.9026 N   0  0  0  0  0  0  0  0  0  0  0  0
   25.2379  -20.3322  -13.0024 C   0  0  0  0  0  0  0  0  0  0  0  0
   25.2728  -19.1979  -12.4722 O   0  0  0  0  0  0  0  0  0  0  0  0
   20.8594  -25.4061  -16.1250 C   0  0  0  0  0  0  0  0  0  0  0  0
   28.3708  -19.3478  -14.1345 C   0  0  2  0  0  0  0  0  0  0  0  0
   27.5880  -19.3876  -15.4195 O   0  0  0  0  0  0  0  0  0  0  0  0
   27.7848  -20.5771  -16.1173 C   0  0  2  0  0  0  0  0  0  0  0  0
   26.0987  -19.2773  -15.0548 N   0  0  0  0  0  0  0  0  0  0  0  0
   25.6736  -20.4408  -14.3466 C   0  0  0  0  0  0  0  0  0  0  0  0
   25.3240  -19.0738  -16.3228 O   0  0  0  0  0  0  0  0  0  0  0  0
   24.6933  -20.0269  -16.8588 C   0  0  0  0  0  0  0  0  0  0  0  0
   23.5245  -13.1686  -21.3390 S   0  0  0  0  0  0  0  0  0  0  0  0
   24.3633  -13.7846  -19.8222 C   0  0  0  0  0  0  0  0  0  0  0  0
   24.0903  -15.5303  -19.6902 C   0  0  0  0  0  0  0  0  0  0  0  0
   24.6117  -16.2377  -18.5414 C   0  0  1  0  0  0  0  0  0  0  0  0
   24.5396  -17.7013  -18.3175 N   0  0  0  0  0  0  0  0  0  0  0  0
   25.2549  -17.8349  -16.9759 C   0  0  0  0  0  0  0  0  0  0  0  0
   25.4060  -18.5179  -19.2283 O   0  0  0  0  0  0  0  0  0  0  0  0
   26.7009  -18.4264  -19.1086 O   0  0  0  0  0  0  0  0  0  0  0  0
  2  3  2  0
  2  1  1  0
  4  2  1  0
  5  4  1  0
  6  5  1  0
  7  6  1  0
  8 10  1  0
  8  7  1  0
  8  9  1  1
 10 16  1  0
 10 11  2  0
 13 12  1  6
 13 14  1  0
 15 13  1  0
 15 16  1  6
 17 18  2  0
 17 15  1  0
 19 20  1  0
 21 20  1  0
 23 22  1  1
 22 21  1  0
 23 24  1  0
 24 17  1  0
 25 23  1  0
 26 25  2  0
 27 25  1  0
M  END
$$$$
