RTM.pdb
     RDKit          3D

 27 26  0  0  1  0  0  0  0  0999 V2000
   30.8481  -22.8902   -9.7654 N   0  0  0  0  0  0  0  0  0  0  0  0
   30.7621  -21.9157   -8.7379 C   0  0  0  0  0  0  0  0  0  0  0  0
   31.7732  -21.6625   -7.9666 N   0  0  0  0  0  0  0  0  0  0  0  0
   29.5941  -21.1595   -8.5007 N   0  0  0  0  0  0  0  0  0  0  0  0
   28.3066  -21.4337   -9.0769 C   0  0  0  0  0  0  0  0  0  0  0  0
   28.3166  -21.5653  -10.5566 C   0  0  0  0  0  0  0  0  0  0  0  0
   27.3128  -20.7992  -11.3261 C   0  0  0  0  0  0  0  0  0  0  0  0
   27.2582  -21.0559  -12.7969 C   0  0  2  0  0  0  0  0  0  0  0  0
   28.4747  -20.5525  -13.3765 N   0  0  0  0  0  0  0  0  0  0  0  0
   26.0459  -20.4599  -13.4274 C   0  0  0  0  0  0  0  0  0  0  0  0
   25.8681  -19.2213  -13.3719 O   0  0  0  0  0  0  0  0  0  0  0  0
   31.7232  -20.9942   -7.1854 C   0  0  0  0  0  0  0  0  0  0  0  0
   22.7515  -20.2529  -16.8458 C   0  0  2  0  0  0  0  0  0  0  0  0
   23.9189  -20.9764  -16.2299 O   0  0  0  0  0  0  0  0  0  0  0  0
   25.1289  -20.6178  -16.8195 C   0  0  1  0  0  0  0  0  0  0  0  0
   23.9677  -20.5892  -14.7430 N   0  0  0  0  0  0  0  0  0  0  0  0
   25.0657  -21.2331  -14.0981 C   0  0  0  0  0  0  0  0  0  0  0  0
   22.6531  -20.9596  -14.1233 O   0  0  0  0  0  0  0  0  0  0  0  0
   22.4596  -22.1144  -13.6517 C   0  0  0  0  0  0  0  0  0  0  0  0
   18.7791  -16.1460  -12.5586 S   0  0  0  0  0  0  0  0  0  0  0  0
   17.4677  -17.3782  -12.9403 C   0  0  0  0  0  0  0  0  0  0  0  0
   18.1772  -19.0007  -12.8819 C   0  0  0  0  0  0  0  0  0  0  0  0
   19.5322  -19.1920  -13.3504 C   0  0  1  0  0  0  0  0  0  0  0  0
   20.2716  -20.4767  -13.3660 N   0  0  0  0  0  0  0  0  0  0  0  0
   21.5805  -20.0611  -14.0321 C   0  0  0  0  0  0  0  0  0  0  0  0
   19.7329  -21.4981  -14.3217 O   0  0  0  0  0  0  0  0  0  0  0  0
   19.9242  -21.3224  -15.5992 O   0  0  0  0  0  0  0  0  0  0  0  0
  2  3  2  0
  2  1  1  0
  4  2  1  0
  5  4  1  0
  6  5  1  0
  7  6  1  0
  8 10  1  0
  8  7  1  0
  8  9  1  6
 10 16  1  0
 10 11  2  0
 13 12  1  6
 13 14  1  0
 15 13  1  0
 15 16  1  6
 17 18  2  0
 17 15  1  0
 19 20  1  0
 21 20  1  0
 23 22  1  1
 22 21  1  0
 23 24  1  0
 24 17  1  0
 25 23  1  0
 26 25  2  0
 27 25  1  0
M  END
$$$$
