VFS.pdb
     RDKit          3D

 25 25  0  0  1  0  0  0  0  0999 V2000
   10.0235  -18.9722   20.8437 C   0  0  0  0  0  0  0  0  0  0  0  0
    8.5925  -18.5330   20.7383 C   0  0  2  0  0  0  0  0  0  0  0  0
    7.8950  -19.2524   19.6199 C   0  0  0  0  0  0  0  0  0  0  0  0
    8.3925  -17.0318   20.7108 C   0  0  2  0  0  0  0  0  0  0  0  0
    8.9908  -16.6182   19.4212 N   0  0  0  0  0  0  0  0  0  0  0  0
    9.0053  -16.3067   21.8358 C   0  0  0  0  0  0  0  0  0  0  0  0
   10.2236  -15.9456   21.7885 O   0  0  0  0  0  0  0  0  0  0  0  0
    8.3197  -15.9595   23.0157 N   0  0  0  0  0  0  0  0  0  0  0  0
    8.8164  -15.4172   24.2177 C   0  0  1  0  0  0  0  0  0  0  0  0
    7.5895  -15.0193   25.0873 C   0  0  0  0  0  0  0  0  0  0  0  0
    8.0255  -14.3364   26.3285 C   0  0  0  0  0  0  0  0  0  0  0  0
    8.3633  -15.0649   27.4794 C   0  0  0  0  0  0  0  0  0  0  0  0
    8.8165  -14.4439   28.6213 C   0  0  0  0  0  0  0  0  0  0  0  0
    8.9557  -13.0680   28.6668 C   0  0  0  0  0  0  0  0  0  0  0  0
    8.6272  -12.3354   27.5515 C   0  0  0  0  0  0  0  0  0  0  0  0
    8.1701  -12.9742   26.4097 C   0  0  0  0  0  0  0  0  0  0  0  0
    9.7378  -16.1705   25.0201 C   0  0  0  0  0  0  0  0  0  0  0  0
    9.3542  -17.3096   25.4376 O   0  0  0  0  0  0  0  0  0  0  0  0
   13.5677  -15.2226   25.0808 O   0  0  0  0  0  0  0  0  0  0  0  0
   13.3473  -16.5486   25.4219 C   0  0  0  0  0  0  0  0  0  0  0  0
   11.9292  -16.7462   25.9827 C   0  0  2  0  0  0  0  0  0  0  0  0
   11.0420  -15.7646   25.3839 N   0  0  0  0  0  0  0  0  0  0  0  0
   11.9554  -16.6965   27.4434 C   0  0  0  0  0  0  0  0  0  0  0  0
   11.2085  -15.9090   28.0667 O   0  0  0  0  0  0  0  0  0  0  0  0
   12.7841  -17.5149   28.1615 O   0  0  0  0  0  0  0  0  0  0  0  0
  2  1  1  6
  2  3  1  0
  4  2  1  0
  4  5  1  6
  6  4  1  0
  6  7  2  0
  8  6  1  0
  9  8  1  0
 10 11  1  0
  9 10  1  1
 11 12  2  0
 12 13  1  0
 14 13  2  0
 15 14  1  0
 16 15  2  0
 16 11  1  0
 17 22  1  0
 17  9  1  0
 18 17  2  0
 20 19  1  0
 21 22  1  0
 21 20  1  6
 23 21  1  0
 24 23  2  0
 25 23  1  0
M  END
$$$$
