VFS.pdb
     RDKit          3D

 25 25  0  0  1  0  0  0  0  0999 V2000
    7.5426  -18.0139   17.8889 C   0  0  0  0  0  0  0  0  0  0  0  0
    8.0700  -17.4619   19.1808 C   0  0  2  0  0  0  0  0  0  0  0  0
    7.8007  -18.4088   20.3147 C   0  0  0  0  0  0  0  0  0  0  0  0
    7.6579  -16.0339   19.4731 C   0  0  2  0  0  0  0  0  0  0  0  0
    8.1404  -15.2778   18.2951 N   0  0  0  0  0  0  0  0  0  0  0  0
    8.2053  -15.4766   20.7208 C   0  0  0  0  0  0  0  0  0  0  0  0
    9.4441  -15.2086   20.8233 O   0  0  0  0  0  0  0  0  0  0  0  0
    7.4323  -15.1982   21.8644 N   0  0  0  0  0  0  0  0  0  0  0  0
    7.8356  -14.7239   23.1286 C   0  0  1  0  0  0  0  0  0  0  0  0
    6.5558  -14.2481   23.8738 C   0  0  0  0  0  0  0  0  0  0  0  0
    6.9043  -13.6440   25.1817 C   0  0  0  0  0  0  0  0  0  0  0  0
    6.9858  -12.2522   25.3415 C   0  0  0  0  0  0  0  0  0  0  0  0
    7.2601  -11.6794   26.5629 C   0  0  0  0  0  0  0  0  0  0  0  0
    7.4636  -12.4684   27.6811 C   0  0  0  0  0  0  0  0  0  0  0  0
    7.3915  -13.8341   27.5457 C   0  0  0  0  0  0  0  0  0  0  0  0
    7.1167  -14.3967   26.3092 C   0  0  0  0  0  0  0  0  0  0  0  0
    8.6031  -15.5660   24.0015 C   0  0  0  0  0  0  0  0  0  0  0  0
    8.1673  -16.7429   24.2112 O   0  0  0  0  0  0  0  0  0  0  0  0
   13.0126  -16.9417   25.0299 O   0  0  0  0  0  0  0  0  0  0  0  0
   12.1313  -15.9429   24.6439 C   0  0  0  0  0  0  0  0  0  0  0  0
   10.6964  -16.2702   25.0891 C   0  0  2  0  0  0  0  0  0  0  0  0
    9.8093  -15.2089   24.6461 N   0  0  0  0  0  0  0  0  0  0  0  0
   10.6584  -16.4997   26.5322 C   0  0  0  0  0  0  0  0  0  0  0  0
    9.9385  -15.7904   27.2706 O   0  0  0  0  0  0  0  0  0  0  0  0
   11.3958  -17.4991   27.1064 O   0  0  0  0  0  0  0  0  0  0  0  0
  2  1  1  6
  2  3  1  0
  4  2  1  0
  4  5  1  6
  6  4  1  0
  6  7  2  0
  8  6  1  0
  9  8  1  0
 10 11  1  0
  9 10  1  1
 11 12  2  0
 12 13  1  0
 14 13  2  0
 15 14  1  0
 16 15  2  0
 16 11  1  0
 17 22  1  0
 17  9  1  0
 18 17  2  0
 20 19  1  0
 21 22  1  0
 21 20  1  1
 23 21  1  0
 24 23  2  0
 25 23  1  0
M  END
$$$$
