VFS.pdb
     RDKit          3D

 25 25  0  0  1  0  0  0  0  0999 V2000
    7.3686  -12.6857   19.4158 C   0  0  0  0  0  0  0  0  0  0  0  0
    8.2892  -13.6410   18.7145 C   0  0  2  0  0  0  0  0  0  0  0  0
    7.7871  -13.9484   17.3331 C   0  0  0  0  0  0  0  0  0  0  0  0
    8.6504  -14.8743   19.5163 C   0  0  2  0  0  0  0  0  0  0  0  0
    7.4591  -15.7436   19.3850 N   0  0  0  0  0  0  0  0  0  0  0  0
    8.9673  -14.6198   20.9312 C   0  0  0  0  0  0  0  0  0  0  0  0
   10.1048  -14.1631   21.2694 O   0  0  0  0  0  0  0  0  0  0  0  0
    8.0700  -14.8473   21.9922 N   0  0  0  0  0  0  0  0  0  0  0  0
    8.2563  -14.6798   23.3789 C   0  0  1  0  0  0  0  0  0  0  0  0
    6.8842  -14.2653   23.9832 C   0  0  0  0  0  0  0  0  0  0  0  0
    7.0556  -13.7272   25.3536 C   0  0  0  0  0  0  0  0  0  0  0  0
    7.3033  -12.3636   25.5740 C   0  0  0  0  0  0  0  0  0  0  0  0
    7.4149  -11.8450   26.8443 C   0  0  0  0  0  0  0  0  0  0  0  0
    7.2825  -12.6623   27.9529 C   0  0  0  0  0  0  0  0  0  0  0  0
    7.0428  -14.0015   27.7591 C   0  0  0  0  0  0  0  0  0  0  0  0
    6.9350  -14.5099   26.4742 C   0  0  0  0  0  0  0  0  0  0  0  0
    8.8140  -15.7445   24.1635 C   0  0  0  0  0  0  0  0  0  0  0  0
    8.2448  -16.8805   24.0966 O   0  0  0  0  0  0  0  0  0  0  0  0
   12.6632  -16.2393   25.0819 O   0  0  0  0  0  0  0  0  0  0  0  0
   11.7512  -17.2839   25.0778 C   0  0  0  0  0  0  0  0  0  0  0  0
   10.4072  -16.8461   25.6830 C   0  0  2  0  0  0  0  0  0  0  0  0
    9.9484  -15.6485   25.0014 N   0  0  0  0  0  0  0  0  0  0  0  0
   10.5375  -16.6818   27.1296 C   0  0  0  0  0  0  0  0  0  0  0  0
   10.2047  -15.6084   27.6806 O   0  0  0  0  0  0  0  0  0  0  0  0
   11.0124  -17.6973   27.9141 O   0  0  0  0  0  0  0  0  0  0  0  0
  2  1  1  1
  2  3  1  0
  4  2  1  0
  4  5  1  1
  6  4  1  0
  6  7  2  0
  8  6  1  0
  9  8  1  0
 10 11  1  0
  9 10  1  1
 11 12  2  0
 12 13  1  0
 14 13  2  0
 15 14  1  0
 16 15  2  0
 16 11  1  0
 17 22  1  0
 17  9  1  0
 18 17  2  0
 20 19  1  0
 21 22  1  0
 21 20  1  6
 23 21  1  0
 24 23  2  0
 25 23  1  0
M  END
$$$$
