VFS.pdb
     RDKit          3D

 25 25  0  0  1  0  0  0  0  0999 V2000
    9.6016  -19.1571   20.5602 C   0  0  0  0  0  0  0  0  0  0  0  0
    8.3968  -18.4404   20.0247 C   0  0  2  0  0  0  0  0  0  0  0  0
    7.8578  -19.1381   18.8092 C   0  0  0  0  0  0  0  0  0  0  0  0
    8.5810  -16.9489   19.8353 C   0  0  2  0  0  0  0  0  0  0  0  0
    9.6499  -16.8506   18.8155 N   0  0  0  0  0  0  0  0  0  0  0  0
    8.9447  -16.2118   21.0566 C   0  0  0  0  0  0  0  0  0  0  0  0
   10.1629  -16.0808   21.3970 O   0  0  0  0  0  0  0  0  0  0  0  0
    8.0101  -15.6070   21.9189 N   0  0  0  0  0  0  0  0  0  0  0  0
    8.2078  -14.9976   23.1740 C   0  0  1  0  0  0  0  0  0  0  0  0
    6.9264  -14.1768   23.4965 C   0  0  0  0  0  0  0  0  0  0  0  0
    7.0716  -13.4633   24.7876 C   0  0  0  0  0  0  0  0  0  0  0  0
    6.3602  -13.8692   25.9271 C   0  0  0  0  0  0  0  0  0  0  0  0
    6.5248  -13.2448   27.1428 C   0  0  0  0  0  0  0  0  0  0  0  0
    7.4079  -12.1883   27.2782 C   0  0  0  0  0  0  0  0  0  0  0  0
    8.1123  -11.7728   26.1737 C   0  0  0  0  0  0  0  0  0  0  0  0
    7.9346  -12.4097   24.9556 C   0  0  0  0  0  0  0  0  0  0  0  0
    8.5548  -15.7966   24.3148 C   0  0  0  0  0  0  0  0  0  0  0  0
    7.7147  -16.6749   24.6912 O   0  0  0  0  0  0  0  0  0  0  0  0
   12.2778  -16.6146   25.1550 O   0  0  0  0  0  0  0  0  0  0  0  0
   11.3093  -17.4877   25.6271 C   0  0  0  0  0  0  0  0  0  0  0  0
   10.0382  -16.7295   26.0439 C   0  0  2  0  0  0  0  0  0  0  0  0
    9.7541  -15.7025   25.0571 N   0  0  0  0  0  0  0  0  0  0  0  0
   10.1859  -16.2102   27.4023 C   0  0  0  0  0  0  0  0  0  0  0  0
   10.0693  -14.9853   27.6314 O   0  0  0  0  0  0  0  0  0  0  0  0
   10.4414  -17.0485   28.4531 O   0  0  0  0  0  0  0  0  0  0  0  0
  2  1  1  6
  2  3  1  0
  4  2  1  0
  4  5  1  6
  6  4  1  0
  6  7  2  0
  8  6  1  0
  9  8  1  0
 10 11  1  0
  9 10  1  1
 11 12  2  0
 12 13  1  0
 14 13  2  0
 15 14  1  0
 16 15  2  0
 16 11  1  0
 17 22  1  0
 17  9  1  0
 18 17  2  0
 20 19  1  0
 21 22  1  0
 21 20  1  6
 23 21  1  0
 24 23  2  0
 25 23  1  0
M  END
$$$$
