VFS.pdb
     RDKit          3D

 25 25  0  0  1  0  0  0  0  0999 V2000
    9.4228  -19.7794   19.5574 C   0  0  0  0  0  0  0  0  0  0  0  0
    9.6679  -18.8197   20.6848 C   0  0  2  0  0  0  0  0  0  0  0  0
    9.2637  -19.4255   21.9980 C   0  0  0  0  0  0  0  0  0  0  0  0
    9.1119  -17.4283   20.4627 C   0  0  2  0  0  0  0  0  0  0  0  0
    9.7638  -16.9821   19.2105 N   0  0  0  0  0  0  0  0  0  0  0  0
    9.3659  -16.4798   21.5594 C   0  0  0  0  0  0  0  0  0  0  0  0
   10.5445  -16.0689   21.8020 O   0  0  0  0  0  0  0  0  0  0  0  0
    8.3624  -15.9614   22.4002 N   0  0  0  0  0  0  0  0  0  0  0  0
    8.4822  -15.1857   23.5705 C   0  0  1  0  0  0  0  0  0  0  0  0
    7.1273  -14.4503   23.7786 C   0  0  0  0  0  0  0  0  0  0  0  0
    7.1681  -13.6106   24.9994 C   0  0  0  0  0  0  0  0  0  0  0  0
    7.9720  -12.4623   25.0658 C   0  0  0  0  0  0  0  0  0  0  0  0
    7.9799  -11.6484   26.1759 C   0  0  0  0  0  0  0  0  0  0  0  0
    7.1849  -11.9413   27.2698 C   0  0  0  0  0  0  0  0  0  0  0  0
    6.3924  -13.0633   27.2265 C   0  0  0  0  0  0  0  0  0  0  0  0
    6.3965  -13.8746   26.1029 C   0  0  0  0  0  0  0  0  0  0  0  0
    8.8777  -15.8023   24.8049 C   0  0  0  0  0  0  0  0  0  0  0  0
    8.0558  -16.6095   25.3451 O   0  0  0  0  0  0  0  0  0  0  0  0
   12.7516  -15.9350   26.0447 O   0  0  0  0  0  0  0  0  0  0  0  0
   11.9064  -16.9947   26.3377 C   0  0  0  0  0  0  0  0  0  0  0  0
   10.4635  -16.5077   26.5507 C   0  0  2  0  0  0  0  0  0  0  0  0
   10.1061  -15.6004   25.4744 N   0  0  0  0  0  0  0  0  0  0  0  0
   10.3231  -15.9200   27.8817 C   0  0  0  0  0  0  0  0  0  0  0  0
    9.8910  -14.7536   28.0198 O   0  0  0  0  0  0  0  0  0  0  0  0
   10.6473  -16.6322   29.0041 O   0  0  0  0  0  0  0  0  0  0  0  0
  2  1  1  6
  2  3  1  0
  4  2  1  0
  4  5  1  6
  6  4  1  0
  6  7  2  0
  8  6  1  0
  9  8  1  0
 10 11  1  0
  9 10  1  1
 11 12  2  0
 12 13  1  0
 14 13  2  0
 15 14  1  0
 16 15  2  0
 16 11  1  0
 17 22  1  0
 17  9  1  0
 18 17  2  0
 20 19  1  0
 21 22  1  0
 21 20  1  6
 23 21  1  0
 24 23  2  0
 25 23  1  0
M  END
$$$$
