VFS.pdb
     RDKit          3D

 25 25  0  0  1  0  0  0  0  0999 V2000
    7.1489  -13.0340   18.8881 C   0  0  0  0  0  0  0  0  0  0  0  0
    8.3462  -13.8491   18.4958 C   0  0  2  0  0  0  0  0  0  0  0  0
    8.1596  -14.4483   17.1316 C   0  0  0  0  0  0  0  0  0  0  0  0
    8.7999  -14.8487   19.5396 C   0  0  2  0  0  0  0  0  0  0  0  0
    7.8340  -15.9629   19.4066 N   0  0  0  0  0  0  0  0  0  0  0  0
    8.8268  -14.3325   20.9180 C   0  0  0  0  0  0  0  0  0  0  0  0
    8.8043  -13.0811   21.1428 O   0  0  0  0  0  0  0  0  0  0  0  0
    8.8733  -15.1495   22.0638 N   0  0  0  0  0  0  0  0  0  0  0  0
    8.7728  -14.7965   23.4244 C   0  0  1  0  0  0  0  0  0  0  0  0
    7.4431  -14.0088   23.6007 C   0  0  0  0  0  0  0  0  0  0  0  0
    7.3459  -13.4428   24.9672 C   0  0  0  0  0  0  0  0  0  0  0  0
    6.5618  -14.0579   25.9552 C   0  0  0  0  0  0  0  0  0  0  0  0
    6.5036  -13.5688   27.2407 C   0  0  0  0  0  0  0  0  0  0  0  0
    7.2263  -12.4449   27.6000 C   0  0  0  0  0  0  0  0  0  0  0  0
    7.9981  -11.8254   26.6466 C   0  0  0  0  0  0  0  0  0  0  0  0
    8.0452  -12.3280   25.3558 C   0  0  0  0  0  0  0  0  0  0  0  0
    8.8584  -15.8089   24.4384 C   0  0  0  0  0  0  0  0  0  0  0  0
    7.9678  -16.7176   24.4343 O   0  0  0  0  0  0  0  0  0  0  0  0
   11.9605  -18.7834   26.2187 O   0  0  0  0  0  0  0  0  0  0  0  0
   11.5963  -17.5820   25.6296 C   0  0  0  0  0  0  0  0  0  0  0  0
   10.1550  -17.1982   26.0033 C   0  0  2  0  0  0  0  0  0  0  0  0
    9.8511  -15.8940   25.4409 N   0  0  0  0  0  0  0  0  0  0  0  0
    9.9770  -17.2658   27.4526 C   0  0  0  0  0  0  0  0  0  0  0  0
    9.7020  -16.2360   28.1086 O   0  0  0  0  0  0  0  0  0  0  0  0
   10.0937  -18.4534   28.1221 O   0  0  0  0  0  0  0  0  0  0  0  0
  2  1  1  1
  2  3  1  0
  4  2  1  0
  4  5  1  1
  6  4  1  0
  6  7  2  0
  8  6  1  0
  9  8  1  0
 10 11  1  0
  9 10  1  6
 11 12  2  0
 12 13  1  0
 14 13  2  0
 15 14  1  0
 16 15  2  0
 16 11  1  0
 17 22  1  0
 17  9  1  0
 18 17  2  0
 20 19  1  0
 21 22  1  0
 21 20  1  1
 23 21  1  0
 24 23  2  0
 25 23  1  0
M  END
$$$$
