VFS.pdb
     RDKit          3D

 25 25  0  0  1  0  0  0  0  0999 V2000
    7.4397  -12.5024   21.3063 C   0  0  0  0  0  0  0  0  0  0  0  0
    8.1829  -13.3283   20.2977 C   0  0  2  0  0  0  0  0  0  0  0  0
    7.5286  -13.2389   18.9491 C   0  0  0  0  0  0  0  0  0  0  0  0
    8.4759  -14.7484   20.7360 C   0  0  2  0  0  0  0  0  0  0  0  0
    7.1696  -15.4341   20.6117 N   0  0  0  0  0  0  0  0  0  0  0  0
    9.0128  -14.8747   22.1008 C   0  0  0  0  0  0  0  0  0  0  0  0
   10.1806  -14.4561   22.3801 O   0  0  0  0  0  0  0  0  0  0  0  0
    8.3043  -15.4447   23.1760 N   0  0  0  0  0  0  0  0  0  0  0  0
    8.7097  -15.6551   24.5090 C   0  0  1  0  0  0  0  0  0  0  0  0
    7.4509  -15.4866   25.4072 C   0  0  0  0  0  0  0  0  0  0  0  0
    7.2780  -14.0700   25.8079 C   0  0  0  0  0  0  0  0  0  0  0  0
    6.0651  -13.3969   25.5957 C   0  0  0  0  0  0  0  0  0  0  0  0
    5.8776  -12.0971   26.0083 C   0  0  0  0  0  0  0  0  0  0  0  0
    6.8905  -11.4099   26.6534 C   0  0  0  0  0  0  0  0  0  0  0  0
    8.0876  -12.0497   26.8682 C   0  0  0  0  0  0  0  0  0  0  0  0
    8.2626  -13.3579   26.4452 C   0  0  0  0  0  0  0  0  0  0  0  0
    9.3883  -16.8668   24.8718 C   0  0  0  0  0  0  0  0  0  0  0  0
    8.7168  -17.9469   24.8343 O   0  0  0  0  0  0  0  0  0  0  0  0
   13.1625  -17.1869   24.6246 O   0  0  0  0  0  0  0  0  0  0  0  0
   12.7348  -18.3721   25.2040 C   0  0  0  0  0  0  0  0  0  0  0  0
   11.2583  -18.2804   25.6235 C   0  0  2  0  0  0  0  0  0  0  0  0
   10.7431  -16.9718   25.2607 N   0  0  0  0  0  0  0  0  0  0  0  0
   11.1201  -18.5896   27.0454 C   0  0  0  0  0  0  0  0  0  0  0  0
   10.5556  -17.7844   27.8197 O   0  0  0  0  0  0  0  0  0  0  0  0
   11.5911  -19.7669   27.5595 O   0  0  0  0  0  0  0  0  0  0  0  0
  2  1  1  1
  2  3  1  0
  4  2  1  0
  4  5  1  1
  6  4  1  0
  6  7  2  0
  8  6  1  0
  9  8  1  0
 10 11  1  0
  9 10  1  1
 11 12  2  0
 12 13  1  0
 14 13  2  0
 15 14  1  0
 16 15  2  0
 16 11  1  0
 17 22  1  0
 17  9  1  0
 18 17  2  0
 20 19  1  0
 21 22  1  0
 21 20  1  1
 23 21  1  0
 24 23  2  0
 25 23  1  0
M  END
$$$$
