CFA.pdb
     RDKit          3D

 23 23  0  0  1  0  0  0  0  0999 V2000
   15.5575  -16.9079    4.7410 N   0  0  0  0  0  0  0  0  0  0  0  0
   15.2934  -15.4746    5.0109 C   0  0  1  0  0  0  0  0  0  0  0  0
   14.0673  -15.3740    5.8346 C   0  0  0  0  0  0  0  0  0  0  0  0
   12.5822  -15.5947    4.8323 S   0  0  0  0  0  0  0  0  0  0  0  0
   16.5143  -14.8824    5.5291 C   0  0  0  0  0  0  0  0  0  0  0  0
   17.3776  -15.6641    6.0673 O   0  0  0  0  0  0  0  0  0  0  0  0
   16.9009  -13.5338    5.5252 N   0  0  0  0  0  0  0  0  0  0  0  0
   18.0850  -13.0220    6.1648 C   0  0  1  0  0  0  0  0  0  0  0  0
   18.4695  -11.6871    5.6422 C   0  0  0  0  0  0  0  0  0  0  0  0
   19.6820  -11.0973    6.2063 C   0  0  0  0  0  0  0  0  0  0  0  0
   19.6838  -10.1847    7.2624 C   0  0  0  0  0  0  0  0  0  0  0  0
   20.8655   -9.6728    7.7616 C   0  0  0  0  0  0  0  0  0  0  0  0
   22.0776  -10.0374    7.2437 C   0  0  0  0  0  0  0  0  0  0  0  0
   22.1012  -10.9383    6.1991 C   0  0  0  0  0  0  0  0  0  0  0  0
   20.9254  -11.4367    5.7151 C   0  0  0  0  0  0  0  0  0  0  0  0
   18.0376  -13.0881    7.6449 C   0  0  0  0  0  0  0  0  0  0  0  0
   17.0094  -12.6885    8.2322 O   0  0  0  0  0  0  0  0  0  0  0  0
   19.1877  -15.0177   10.4345 C   0  0  0  0  0  0  0  0  0  0  0  0
   19.1513  -13.6342    9.8647 C   0  0  2  0  0  0  0  0  0  0  0  0
   19.1126  -13.5866    8.4222 N   0  0  0  0  0  0  0  0  0  0  0  0
   20.2277  -12.7931   10.4512 C   0  0  0  0  0  0  0  0  0  0  0  0
   20.0337  -12.3040   11.7311 O   0  0  0  0  0  0  0  0  0  0  0  0
   21.2520  -12.5562    9.7905 O   0  0  0  0  0  0  0  0  0  0  0  0
  2  1  1  1
  3  2  1  0
  4  3  1  0
  5  6  2  0
  5  2  1  0
  7  5  1  0
  8  7  1  0
  8  9  1  1
  9 10  1  0
 10 15  2  0
 11 12  2  0
 11 10  1  0
 12 13  1  0
 13 14  2  0
 15 14  1  0
 16  8  1  0
 17 16  2  0
 19 18  1  6
 19 20  1  0
 20 16  1  0
 21 22  1  0
 21 19  1  0
 23 21  2  0
M  END
$$$$
