CFA.pdb
     RDKit          3D

 23 23  0  0  1  0  0  0  0  0999 V2000
   23.5123  -13.2028  -17.6297 N   0  0  0  0  0  0  0  0  0  0  0  0
   22.8070  -12.0827  -18.2965 C   0  0  1  0  0  0  0  0  0  0  0  0
   21.5413  -12.6008  -18.8635 C   0  0  0  0  0  0  0  0  0  0  0  0
   21.8516  -13.8356  -20.1433 S   0  0  0  0  0  0  0  0  0  0  0  0
   22.7320  -10.9765  -17.3581 C   0  0  0  0  0  0  0  0  0  0  0  0
   22.5001  -11.2506  -16.1265 O   0  0  0  0  0  0  0  0  0  0  0  0
   22.8831   -9.6048  -17.6110 N   0  0  0  0  0  0  0  0  0  0  0  0
   22.7819   -8.5742  -16.6107 C   0  0  1  0  0  0  0  0  0  0  0  0
   24.0855   -7.9108  -16.3583 C   0  0  0  0  0  0  0  0  0  0  0  0
   25.1832   -8.7812  -15.9418 C   0  0  0  0  0  0  0  0  0  0  0  0
   25.1809   -9.5240  -14.7600 C   0  0  0  0  0  0  0  0  0  0  0  0
   26.2440  -10.3409  -14.4282 C   0  0  0  0  0  0  0  0  0  0  0  0
   27.3383  -10.4552  -15.2405 C   0  0  0  0  0  0  0  0  0  0  0  0
   27.3635   -9.7306  -16.4142 C   0  0  0  0  0  0  0  0  0  0  0  0
   26.3056   -8.9266  -16.7302 C   0  0  0  0  0  0  0  0  0  0  0  0
   21.6689   -7.6239  -16.8459 C   0  0  0  0  0  0  0  0  0  0  0  0
   21.6087   -7.0276  -17.9426 O   0  0  0  0  0  0  0  0  0  0  0  0
   18.3650   -6.8360  -15.1571 C   0  0  0  0  0  0  0  0  0  0  0  0
   19.5070   -6.5296  -16.0747 C   0  0  2  0  0  0  0  0  0  0  0  0
   20.6689   -7.3634  -15.8762 N   0  0  0  0  0  0  0  0  0  0  0  0
   19.8187   -5.0760  -16.0629 C   0  0  0  0  0  0  0  0  0  0  0  0
   21.1207   -4.7018  -15.7809 O   0  0  0  0  0  0  0  0  0  0  0  0
   18.9205   -4.2525  -16.3015 O   0  0  0  0  0  0  0  0  0  0  0  0
  2  1  1  1
  3  2  1  0
  4  3  1  0
  5  6  2  0
  5  2  1  0
  7  5  1  0
  8  7  1  0
  8  9  1  6
  9 10  1  0
 10 15  2  0
 11 12  2  0
 11 10  1  0
 12 13  1  0
 13 14  2  0
 15 14  1  0
 16  8  1  0
 17 16  2  0
 19 18  1  1
 19 20  1  0
 20 16  1  0
 21 22  1  0
 21 19  1  0
 23 21  2  0
M  END
$$$$
