CFA.pdb
     RDKit          3D

 23 23  0  0  1  0  0  0  0  0999 V2000
   19.3973  -11.8758  -16.9252 N   0  0  0  0  0  0  0  0  0  0  0  0
   19.1068  -10.5890  -17.6010 C   0  0  1  0  0  0  0  0  0  0  0  0
   17.8639  -10.7473  -18.3897 C   0  0  0  0  0  0  0  0  0  0  0  0
   18.1382  -11.7731  -19.8495 S   0  0  0  0  0  0  0  0  0  0  0  0
   19.1514   -9.5362  -16.6012 C   0  0  0  0  0  0  0  0  0  0  0  0
   18.5792   -9.7559  -15.4742 O   0  0  0  0  0  0  0  0  0  0  0  0
   19.7511   -8.2711  -16.6912 N   0  0  0  0  0  0  0  0  0  0  0  0
   19.7204   -7.2770  -15.6501 C   0  0  1  0  0  0  0  0  0  0  0  0
   21.0698   -7.0103  -15.0924 C   0  0  0  0  0  0  0  0  0  0  0  0
   21.7468   -8.1454  -14.4685 C   0  0  0  0  0  0  0  0  0  0  0  0
   21.4333   -8.6361  -13.2000 C   0  0  0  0  0  0  0  0  0  0  0  0
   22.1007   -9.7229  -12.6698 C   0  0  0  0  0  0  0  0  0  0  0  0
   23.0922  -10.3605  -13.3632 C   0  0  0  0  0  0  0  0  0  0  0  0
   23.4199   -9.8937  -14.6194 C   0  0  0  0  0  0  0  0  0  0  0  0
   22.7520   -8.8181  -15.1316 C   0  0  0  0  0  0  0  0  0  0  0  0
   18.9792   -6.0485  -16.0221 C   0  0  0  0  0  0  0  0  0  0  0  0
   19.3238   -5.4259  -17.0495 O   0  0  0  0  0  0  0  0  0  0  0  0
   15.6817   -4.4553  -15.1601 C   0  0  0  0  0  0  0  0  0  0  0  0
   17.1174   -4.3751  -15.5754 C   0  0  2  0  0  0  0  0  0  0  0  0
   17.8941   -5.5502  -15.2587 N   0  0  0  0  0  0  0  0  0  0  0  0
   17.7374   -3.1136  -15.0913 C   0  0  0  0  0  0  0  0  0  0  0  0
   18.9043   -3.2144  -14.3543 O   0  0  0  0  0  0  0  0  0  0  0  0
   17.2027   -2.0245  -15.3556 O   0  0  0  0  0  0  0  0  0  0  0  0
  2  1  1  1
  3  2  1  0
  4  3  1  0
  5  6  2  0
  5  2  1  0
  7  5  1  0
  8  7  1  0
  8  9  1  6
  9 10  1  0
 10 15  2  0
 11 12  2  0
 11 10  1  0
 12 13  1  0
 13 14  2  0
 15 14  1  0
 16  8  1  0
 17 16  2  0
 19 18  1  1
 19 20  1  0
 20 16  1  0
 21 22  1  0
 21 19  1  0
 23 21  2  0
M  END
$$$$
