CFA.pdb
     RDKit          3D

 23 23  0  0  1  0  0  0  0  0999 V2000
   29.2124  -26.5484  -20.4447 N   0  0  0  0  0  0  0  0  0  0  0  0
   28.0481  -27.3610  -20.0194 C   0  0  1  0  0  0  0  0  0  0  0  0
   27.0886  -27.4249  -21.1451 C   0  0  0  0  0  0  0  0  0  0  0  0
   25.6715  -28.4683  -20.7424 S   0  0  0  0  0  0  0  0  0  0  0  0
   28.5474  -28.6122  -19.4764 C   0  0  0  0  0  0  0  0  0  0  0  0
   29.5927  -29.1245  -20.0157 O   0  0  0  0  0  0  0  0  0  0  0  0
   28.0364  -29.3674  -18.4101 N   0  0  0  0  0  0  0  0  0  0  0  0
   28.6259  -30.5840  -17.9149 C   0  0  1  0  0  0  0  0  0  0  0  0
   29.1580  -30.4268  -16.5382 C   0  0  0  0  0  0  0  0  0  0  0  0
   30.1543  -29.3748  -16.3469 C   0  0  0  0  0  0  0  0  0  0  0  0
   29.8386  -28.0555  -16.0185 C   0  0  0  0  0  0  0  0  0  0  0  0
   30.8276  -27.1087  -15.8367 C   0  0  0  0  0  0  0  0  0  0  0  0
   32.1517  -27.4236  -15.9704 C   0  0  0  0  0  0  0  0  0  0  0  0
   32.4886  -28.7216  -16.2947 C   0  0  0  0  0  0  0  0  0  0  0  0
   31.5006  -29.6479  -16.4717 C   0  0  0  0  0  0  0  0  0  0  0  0
   27.7610  -31.7760  -18.0837 C   0  0  0  0  0  0  0  0  0  0  0  0
   26.5263  -31.6488  -17.9381 O   0  0  0  0  0  0  0  0  0  0  0  0
   26.2990  -34.3473  -17.6838 C   0  0  0  0  0  0  0  0  0  0  0  0
   27.4945  -34.2557  -18.5795 C   0  0  2  0  0  0  0  0  0  0  0  0
   28.2783  -33.0560  -18.4037 N   0  0  0  0  0  0  0  0  0  0  0  0
   27.1144  -34.5064  -19.9948 C   0  0  0  0  0  0  0  0  0  0  0  0
   26.5105  -35.7155  -20.2919 O   0  0  0  0  0  0  0  0  0  0  0  0
   27.3442  -33.6417  -20.8558 O   0  0  0  0  0  0  0  0  0  0  0  0
  2  1  1  6
  3  2  1  0
  4  3  1  0
  5  6  2  0
  5  2  1  0
  7  5  1  0
  8  7  1  0
  8  9  1  1
  9 10  1  0
 10 15  2  0
 11 12  2  0
 11 10  1  0
 12 13  1  0
 13 14  2  0
 15 14  1  0
 16  8  1  0
 17 16  2  0
 19 18  1  1
 19 20  1  0
 20 16  1  0
 21 22  1  0
 21 19  1  0
 23 21  2  0
M  END
$$$$
