CFA.pdb
     RDKit          3D

 23 23  0  0  1  0  0  0  0  0999 V2000
   18.6812  -13.4095  -18.0782 N   0  0  0  0  0  0  0  0  0  0  0  0
   18.9167  -12.0905  -18.7120 C   0  0  1  0  0  0  0  0  0  0  0  0
   17.8409  -11.8498  -19.7002 C   0  0  0  0  0  0  0  0  0  0  0  0
   18.1322  -12.7698  -21.2259 S   0  0  0  0  0  0  0  0  0  0  0  0
   19.1047  -11.1114  -17.6556 C   0  0  0  0  0  0  0  0  0  0  0  0
   18.2261  -11.0614  -16.7221 O   0  0  0  0  0  0  0  0  0  0  0  0
   20.1437  -10.1815  -17.5014 N   0  0  0  0  0  0  0  0  0  0  0  0
   20.2254   -9.2178  -16.4348 C   0  0  1  0  0  0  0  0  0  0  0  0
   21.5917   -9.1344  -15.8607 C   0  0  0  0  0  0  0  0  0  0  0  0
   21.7950   -8.1280  -14.8206 C   0  0  0  0  0  0  0  0  0  0  0  0
   21.5041   -8.3348  -13.4712 C   0  0  0  0  0  0  0  0  0  0  0  0
   21.7321   -7.3479  -12.5323 C   0  0  0  0  0  0  0  0  0  0  0  0
   22.2502   -6.1322  -12.8846 C   0  0  0  0  0  0  0  0  0  0  0  0
   22.5458   -5.9043  -14.2127 C   0  0  0  0  0  0  0  0  0  0  0  0
   22.3154   -6.8889  -15.1308 C   0  0  0  0  0  0  0  0  0  0  0  0
   19.6458   -7.8979  -16.7797 C   0  0  0  0  0  0  0  0  0  0  0  0
   20.0320   -7.3249  -17.8211 O   0  0  0  0  0  0  0  0  0  0  0  0
   16.6469   -6.0127  -16.6522 C   0  0  0  0  0  0  0  0  0  0  0  0
   18.0845   -5.9650  -16.2387 C   0  0  2  0  0  0  0  0  0  0  0  0
   18.6701   -7.2582  -15.9752 N   0  0  0  0  0  0  0  0  0  0  0  0
   18.2834   -4.9938  -15.1309 C   0  0  0  0  0  0  0  0  0  0  0  0
   18.6246   -3.6961  -15.4695 O   0  0  0  0  0  0  0  0  0  0  0  0
   18.1411   -5.3650  -13.9545 O   0  0  0  0  0  0  0  0  0  0  0  0
  2  1  1  1
  3  2  1  0
  4  3  1  0
  5  6  2  0
  5  2  1  0
  7  5  1  0
  8  7  1  0
  8  9  1  6
  9 10  1  0
 10 15  2  0
 11 12  2  0
 11 10  1  0
 12 13  1  0
 13 14  2  0
 15 14  1  0
 16  8  1  0
 17 16  2  0
 19 18  1  1
 19 20  1  0
 20 16  1  0
 21 22  1  0
 21 19  1  0
 23 21  2  0
M  END
$$$$
