CFA.pdb
     RDKit          3D

 23 23  0  0  1  0  0  0  0  0999 V2000
   27.5559  -21.8830  -17.2669 N   0  0  0  0  0  0  0  0  0  0  0  0
   26.8550  -20.7188  -16.6753 C   0  0  1  0  0  0  0  0  0  0  0  0
   25.9598  -20.1420  -17.7039 C   0  0  0  0  0  0  0  0  0  0  0  0
   26.8937  -19.2324  -18.9525 S   0  0  0  0  0  0  0  0  0  0  0  0
   26.2656  -21.1409  -15.4167 C   0  0  0  0  0  0  0  0  0  0  0  0
   26.2675  -22.3947  -15.1451 O   0  0  0  0  0  0  0  0  0  0  0  0
   25.6756  -20.3496  -14.4196 N   0  0  0  0  0  0  0  0  0  0  0  0
   25.1461  -20.8577  -13.1808 C   0  0  1  0  0  0  0  0  0  0  0  0
   25.2741  -19.8765  -12.0745 C   0  0  0  0  0  0  0  0  0  0  0  0
   24.8206  -20.3235  -10.7590 C   0  0  0  0  0  0  0  0  0  0  0  0
   23.4787  -20.3916  -10.3810 C   0  0  0  0  0  0  0  0  0  0  0  0
   23.1121  -20.8367   -9.1260 C   0  0  0  0  0  0  0  0  0  0  0  0
   24.0451  -21.2276   -8.2056 C   0  0  0  0  0  0  0  0  0  0  0  0
   25.3781  -21.1692   -8.5562 C   0  0  0  0  0  0  0  0  0  0  0  0
   25.7267  -20.7270   -9.8005 C   0  0  0  0  0  0  0  0  0  0  0  0
   23.7867  -21.4348  -13.3070 C   0  0  0  0  0  0  0  0  0  0  0  0
   23.4305  -22.3178  -12.4975 O   0  0  0  0  0  0  0  0  0  0  0  0
   21.4312  -23.0247  -14.4763 C   0  0  0  0  0  0  0  0  0  0  0  0
   21.5311  -21.5314  -14.4772 C   0  0  2  0  0  0  0  0  0  0  0  0
   22.8730  -21.0255  -14.3101 N   0  0  0  0  0  0  0  0  0  0  0  0
   20.5566  -20.9364  -13.5250 C   0  0  0  0  0  0  0  0  0  0  0  0
   19.2340  -21.3290  -13.6322 O   0  0  0  0  0  0  0  0  0  0  0  0
   20.9472  -20.1192  -12.6756 O   0  0  0  0  0  0  0  0  0  0  0  0
  2  1  1  6
  3  2  1  0
  4  3  1  0
  5  6  2  0
  5  2  1  0
  7  5  1  0
  8  7  1  0
  8  9  1  1
  9 10  1  0
 10 15  2  0
 11 12  2  0
 11 10  1  0
 12 13  1  0
 13 14  2  0
 15 14  1  0
 16  8  1  0
 17 16  2  0
 19 18  1  1
 19 20  1  0
 20 16  1  0
 21 22  1  0
 21 19  1  0
 23 21  2  0
M  END
$$$$
