CFA.pdb
     RDKit          3D

 23 23  0  0  1  0  0  0  0  0999 V2000
   27.3464  -22.3963  -16.9711 N   0  0  0  0  0  0  0  0  0  0  0  0
   26.6771  -21.2227  -16.3615 C   0  0  1  0  0  0  0  0  0  0  0  0
   25.4503  -20.9311  -17.1373 C   0  0  0  0  0  0  0  0  0  0  0  0
   25.7538  -19.6772  -18.4000 S   0  0  0  0  0  0  0  0  0  0  0  0
   26.5406  -21.4727  -14.9372 C   0  0  0  0  0  0  0  0  0  0  0  0
   26.3080  -22.6766  -14.5600 O   0  0  0  0  0  0  0  0  0  0  0  0
   26.6309  -20.5580  -13.8773 N   0  0  0  0  0  0  0  0  0  0  0  0
   26.4112  -20.8879  -12.4931 C   0  0  1  0  0  0  0  0  0  0  0  0
   27.2037  -20.0260  -11.5808 C   0  0  0  0  0  0  0  0  0  0  0  0
   27.0001  -20.2412  -10.1497 C   0  0  0  0  0  0  0  0  0  0  0  0
   27.7515  -21.1334   -9.3831 C   0  0  0  0  0  0  0  0  0  0  0  0
   27.5203  -21.2820   -8.0295 C   0  0  0  0  0  0  0  0  0  0  0  0
   26.5497  -20.5640   -7.3872 C   0  0  0  0  0  0  0  0  0  0  0  0
   25.7939  -19.6757   -8.1240 C   0  0  0  0  0  0  0  0  0  0  0  0
   26.0329  -19.5385   -9.4617 C   0  0  0  0  0  0  0  0  0  0  0  0
   24.9787  -20.9824  -12.1240 C   0  0  0  0  0  0  0  0  0  0  0  0
   24.6720  -21.5105  -11.0336 O   0  0  0  0  0  0  0  0  0  0  0  0
   21.8350  -19.2087  -13.0367 C   0  0  0  0  0  0  0  0  0  0  0  0
   22.5391  -20.4606  -12.6160 C   0  0  2  0  0  0  0  0  0  0  0  0
   23.9412  -20.4975  -12.9587 N   0  0  0  0  0  0  0  0  0  0  0  0
   21.7924  -21.6640  -13.0684 C   0  0  0  0  0  0  0  0  0  0  0  0
   22.4586  -22.5636  -13.8818 O   0  0  0  0  0  0  0  0  0  0  0  0
   20.6143  -21.8269  -12.7116 O   0  0  0  0  0  0  0  0  0  0  0  0
  2  1  1  6
  3  2  1  0
  4  3  1  0
  5  6  2  0
  5  2  1  0
  7  5  1  0
  8  7  1  0
  8  9  1  1
  9 10  1  0
 10 15  2  0
 11 12  2  0
 11 10  1  0
 12 13  1  0
 13 14  2  0
 15 14  1  0
 16  8  1  0
 17 16  2  0
 19 18  1  6
 19 20  1  0
 20 16  1  0
 21 22  1  0
 21 19  1  0
 23 21  2  0
M  END
$$$$
