WEV.pdb
     RDKit          3D

 31 32  0  0  1  0  0  0  0  0999 V2000
   10.1745  -16.2994   20.9799 N   0  0  0  0  0  0  0  0  0  0  0  0
    9.2536  -15.9217   22.0261 C   0  0  1  0  0  0  0  0  0  0  0  0
    7.8514  -16.2448   21.5339 C   0  0  0  0  0  0  0  0  0  0  0  0
    7.5438  -15.4350   20.3394 C   0  0  0  0  0  0  0  0  0  0  0  0
    7.1825  -15.9205   19.1058 C   0  0  0  0  0  0  0  0  0  0  0  0
    6.9883  -14.8472   18.2850 N   0  0  0  0  0  0  0  0  0  0  0  0
    7.2191  -13.7317   18.9780 C   0  0  0  0  0  0  0  0  0  0  0  0
    7.1678  -12.4055   18.6385 C   0  0  0  0  0  0  0  0  0  0  0  0
    7.4561  -11.3929   19.5497 C   0  0  0  0  0  0  0  0  0  0  0  0
    7.8017  -11.7398   20.8257 C   0  0  0  0  0  0  0  0  0  0  0  0
    7.8618  -13.0598   21.1955 C   0  0  0  0  0  0  0  0  0  0  0  0
    7.5699  -14.0674   20.2709 C   0  0  0  0  0  0  0  0  0  0  0  0
    9.4988  -16.7055   23.2759 C   0  0  0  0  0  0  0  0  0  0  0  0
    8.5622  -16.9251   24.0796 O   0  0  0  0  0  0  0  0  0  0  0  0
   10.7917  -17.1918   23.5369 N   0  0  0  0  0  0  0  0  0  0  0  0
   11.1714  -17.8313   24.7814 C   0  0  1  0  0  0  0  0  0  0  0  0
   12.3589  -18.7021   24.5177 C   0  0  0  0  0  0  0  0  0  0  0  0
   12.8026  -19.4528   25.7517 C   0  0  0  0  0  0  0  0  0  0  0  0
   13.9858  -20.2805   25.4290 C   0  0  0  0  0  0  0  0  0  0  0  0
   13.9637  -21.5125   25.6370 O   0  0  0  0  0  0  0  0  0  0  0  0
   11.4389  -16.8020   25.8356 C   0  0  0  0  0  0  0  0  0  0  0  0
   12.4077  -16.0137   25.6659 O   0  0  0  0  0  0  0  0  0  0  0  0
   15.1508  -19.7445   24.8926 O   0  0  0  0  0  0  0  0  0  0  0  0
    8.6667  -14.8492   28.1348 C   0  0  0  0  0  0  0  0  0  0  0  0
   10.1452  -14.5417   28.0437 C   0  0  2  0  0  0  0  0  0  0  0  0
   10.3573  -13.6725   26.8434 C   0  0  0  0  0  0  0  0  0  0  0  0
   10.9871  -15.7861   28.0334 C   0  0  2  0  0  0  0  0  0  0  0  0
   10.6285  -16.7087   26.9986 N   0  0  0  0  0  0  0  0  0  0  0  0
   10.7830  -16.4767   29.3513 C   0  0  0  0  0  0  0  0  0  0  0  0
   10.2097  -17.5973   29.3440 O   0  0  0  0  0  0  0  0  0  0  0  0
   11.2091  -15.9056   30.5422 O   0  0  0  0  0  0  0  0  0  0  0  0
  2 13  1  0
  2  1  1  6
  3  2  1  0
  4  3  1  0
  4  5  2  0
  6  5  1  0
  7  6  1  0
  8  7  2  0
  9  8  1  0
 10  9  2  0
 10 11  1  0
 11 12  2  0
 12  7  1  0
 12  4  1  0
 13 14  2  0
 15 16  1  0
 15 13  1  0
 16 21  1  0
 16 17  1  6
 18 17  1  0
 19 18  1  0
 20 19  2  0
 21 22  2  0
 23 19  1  0
 25 24  1  6
 25 27  1  0
 26 25  1  0
 27 29  1  0
 27 28  1  6
 28 21  1  0
 29 30  2  0
 29 31  1  0
M  END
$$$$
