WEV.pdb
     RDKit          3D

 31 32  0  0  1  0  0  0  0  0999 V2000
    6.2404  -17.5111   24.7752 N   0  0  0  0  0  0  0  0  0  0  0  0
    7.3739  -16.6757   24.4547 C   0  0  1  0  0  0  0  0  0  0  0  0
    7.6536  -15.8058   25.6703 C   0  0  0  0  0  0  0  0  0  0  0  0
    6.6780  -14.7003   25.7270 C   0  0  0  0  0  0  0  0  0  0  0  0
    5.3886  -14.7843   26.1945 C   0  0  0  0  0  0  0  0  0  0  0  0
    4.8284  -13.5454   26.0734 N   0  0  0  0  0  0  0  0  0  0  0  0
    5.7323  -12.7167   25.5501 C   0  0  0  0  0  0  0  0  0  0  0  0
    5.6887  -11.3861   25.2272 C   0  0  0  0  0  0  0  0  0  0  0  0
    6.7805  -10.7175   24.6797 C   0  0  0  0  0  0  0  0  0  0  0  0
    7.9332  -11.4179   24.4590 C   0  0  0  0  0  0  0  0  0  0  0  0
    8.0073  -12.7518   24.7721 C   0  0  0  0  0  0  0  0  0  0  0  0
    6.9037  -13.4117   25.3214 C   0  0  0  0  0  0  0  0  0  0  0  0
    8.5939  -17.4958   24.1802 C   0  0  0  0  0  0  0  0  0  0  0  0
    8.7106  -18.6422   24.6735 O   0  0  0  0  0  0  0  0  0  0  0  0
    9.6066  -16.9644   23.3626 N   0  0  0  0  0  0  0  0  0  0  0  0
   11.0160  -17.2525   23.5430 C   0  0  1  0  0  0  0  0  0  0  0  0
   11.7638  -16.6813   22.3800 C   0  0  0  0  0  0  0  0  0  0  0  0
   13.2446  -16.9718   22.4541 C   0  0  0  0  0  0  0  0  0  0  0  0
   13.8308  -16.9053   21.0972 C   0  0  0  0  0  0  0  0  0  0  0  0
   13.6701  -17.8528   20.2985 O   0  0  0  0  0  0  0  0  0  0  0  0
   11.4950  -16.7102   24.8539 C   0  0  0  0  0  0  0  0  0  0  0  0
   12.3675  -15.8006   24.8390 O   0  0  0  0  0  0  0  0  0  0  0  0
   14.5701  -15.8150   20.6536 O   0  0  0  0  0  0  0  0  0  0  0  0
   10.1859  -14.3804   26.9949 C   0  0  0  0  0  0  0  0  0  0  0  0
   10.3309  -15.6223   27.8468 C   0  0  2  0  0  0  0  0  0  0  0  0
   10.5987  -15.1825   29.2524 C   0  0  0  0  0  0  0  0  0  0  0  0
   11.3710  -16.5641   27.3095 C   0  0  2  0  0  0  0  0  0  0  0  0
   10.9862  -17.2010   26.0861 N   0  0  0  0  0  0  0  0  0  0  0  0
   11.5772  -17.6388   28.3381 C   0  0  0  0  0  0  0  0  0  0  0  0
   11.0962  -18.7777   28.1014 O   0  0  0  0  0  0  0  0  0  0  0  0
   12.2736  -17.3930   29.5131 O   0  0  0  0  0  0  0  0  0  0  0  0
  2 13  1  0
  2  1  1  1
  3  2  1  0
  4  3  1  0
  4  5  2  0
  6  5  1  0
  7  6  1  0
  8  7  2  0
  9  8  1  0
 10  9  2  0
 10 11  1  0
 11 12  2  0
 12  7  1  0
 12  4  1  0
 13 14  2  0
 15 16  1  0
 15 13  1  0
 16 21  1  0
 16 17  1  6
 18 17  1  0
 19 18  1  0
 20 19  2  0
 21 22  2  0
 23 19  1  0
 25 24  1  6
 25 27  1  0
 26 25  1  0
 27 29  1  0
 27 28  1  6
 28 21  1  0
 29 30  2  0
 29 31  1  0
M  END
$$$$
