WEV.pdb
     RDKit          3D

 31 32  0  0  1  0  0  0  0  0999 V2000
    5.7405  -18.5508   22.1894 N   0  0  0  0  0  0  0  0  0  0  0  0
    6.7946  -17.5726   22.0578 C   0  0  1  0  0  0  0  0  0  0  0  0
    6.1331  -16.2137   21.8886 C   0  0  0  0  0  0  0  0  0  0  0  0
    6.7633  -15.4888   20.7686 C   0  0  0  0  0  0  0  0  0  0  0  0
    6.8866  -15.9455   19.4785 C   0  0  0  0  0  0  0  0  0  0  0  0
    7.5261  -14.9761   18.7611 N   0  0  0  0  0  0  0  0  0  0  0  0
    7.7933  -13.9510   19.5708 C   0  0  0  0  0  0  0  0  0  0  0  0
    8.4099  -12.7455   19.3631 C   0  0  0  0  0  0  0  0  0  0  0  0
    8.5797  -11.8117   20.3819 C   0  0  0  0  0  0  0  0  0  0  0  0
    8.1132  -12.1136   21.6305 C   0  0  0  0  0  0  0  0  0  0  0  0
    7.4913  -13.3131   21.8695 C   0  0  0  0  0  0  0  0  0  0  0  0
    7.3269  -14.2425   20.8377 C   0  0  0  0  0  0  0  0  0  0  0  0
    7.6480  -17.5238   23.2848 C   0  0  0  0  0  0  0  0  0  0  0  0
    7.1223  -17.5365   24.4227 O   0  0  0  0  0  0  0  0  0  0  0  0
    9.0455  -17.4636   23.1452 N   0  0  0  0  0  0  0  0  0  0  0  0
    9.9660  -17.5206   24.2639 C   0  0  1  0  0  0  0  0  0  0  0  0
   11.3356  -17.7986   23.7302 C   0  0  0  0  0  0  0  0  0  0  0  0
   12.3847  -17.7932   24.8175 C   0  0  0  0  0  0  0  0  0  0  0  0
   13.7120  -18.0730   24.2264 C   0  0  0  0  0  0  0  0  0  0  0  0
   13.8481  -19.0060   23.4063 O   0  0  0  0  0  0  0  0  0  0  0  0
    9.9060  -16.2496   25.0532 C   0  0  0  0  0  0  0  0  0  0  0  0
   10.5192  -15.2424   24.6077 O   0  0  0  0  0  0  0  0  0  0  0  0
   14.8444  -17.3324   24.5445 O   0  0  0  0  0  0  0  0  0  0  0  0
    7.2316  -13.9136   26.4629 C   0  0  0  0  0  0  0  0  0  0  0  0
    8.0782  -14.4306   27.6051 C   0  0  2  0  0  0  0  0  0  0  0  0
    8.2756  -13.3052   28.5724 C   0  0  0  0  0  0  0  0  0  0  0  0
    9.3668  -15.0397   27.1298 C   0  0  2  0  0  0  0  0  0  0  0  0
    9.1806  -16.1712   26.2721 N   0  0  0  0  0  0  0  0  0  0  0  0
   10.1174  -15.5061   28.3440 C   0  0  0  0  0  0  0  0  0  0  0  0
   10.1578  -16.7439   28.5693 O   0  0  0  0  0  0  0  0  0  0  0  0
   10.7483  -14.6093   29.1946 O   0  0  0  0  0  0  0  0  0  0  0  0
  2 13  1  0
  2  1  1  1
  3  2  1  0
  4  3  1  0
  4  5  2  0
  6  5  1  0
  7  6  1  0
  8  7  2  0
  9  8  1  0
 10  9  2  0
 10 11  1  0
 11 12  2  0
 12  7  1  0
 12  4  1  0
 13 14  2  0
 15 16  1  0
 15 13  1  0
 16 21  1  0
 16 17  1  6
 18 17  1  0
 19 18  1  0
 20 19  2  0
 21 22  2  0
 23 19  1  0
 25 24  1  6
 25 27  1  0
 26 25  1  0
 27 29  1  0
 27 28  1  6
 28 21  1  0
 29 30  2  0
 29 31  1  0
M  END
$$$$
