WEV.pdb
     RDKit          3D

 31 32  0  0  1  0  0  0  0  0999 V2000
    8.3996  -17.7148   21.2082 N   0  0  0  0  0  0  0  0  0  0  0  0
    8.9581  -16.6547   22.0140 C   0  0  1  0  0  0  0  0  0  0  0  0
    7.7949  -15.8581   22.5843 C   0  0  0  0  0  0  0  0  0  0  0  0
    7.0690  -15.1840   21.4909 C   0  0  0  0  0  0  0  0  0  0  0  0
    5.8044  -15.4924   21.0505 C   0  0  0  0  0  0  0  0  0  0  0  0
    5.5070  -14.6364   20.0297 N   0  0  0  0  0  0  0  0  0  0  0  0
    6.5455  -13.8225   19.8378 C   0  0  0  0  0  0  0  0  0  0  0  0
    6.7660  -12.7978   18.9558 C   0  0  0  0  0  0  0  0  0  0  0  0
    7.9546  -12.0727   18.9403 C   0  0  0  0  0  0  0  0  0  0  0  0
    8.9318  -12.3990   19.8383 C   0  0  0  0  0  0  0  0  0  0  0  0
    8.7403  -13.4206   20.7342 C   0  0  0  0  0  0  0  0  0  0  0  0
    7.5419  -14.1411   20.7395 C   0  0  0  0  0  0  0  0  0  0  0  0
    9.7518  -17.2008   23.1577 C   0  0  0  0  0  0  0  0  0  0  0  0
    9.1870  -17.8571   24.0642 O   0  0  0  0  0  0  0  0  0  0  0  0
   11.1375  -16.9687   23.2025 N   0  0  0  0  0  0  0  0  0  0  0  0
   11.9737  -17.3244   24.3323 C   0  0  1  0  0  0  0  0  0  0  0  0
   13.3908  -17.4045   23.8597 C   0  0  0  0  0  0  0  0  0  0  0  0
   13.5840  -18.4744   22.8105 C   0  0  0  0  0  0  0  0  0  0  0  0
   14.8669  -18.2528   22.1076 C   0  0  0  0  0  0  0  0  0  0  0  0
   14.9007  -18.2289   20.8586 O   0  0  0  0  0  0  0  0  0  0  0  0
   11.7956  -16.3369   25.4436 C   0  0  0  0  0  0  0  0  0  0  0  0
   12.4504  -15.2610   25.3949 O   0  0  0  0  0  0  0  0  0  0  0  0
   16.0676  -18.0650   22.7823 O   0  0  0  0  0  0  0  0  0  0  0  0
    9.7177  -13.7989   28.7876 C   0  0  0  0  0  0  0  0  0  0  0  0
    9.7450  -14.7162   27.5849 C   0  0  2  0  0  0  0  0  0  0  0  0
    8.4036  -15.3725   27.4812 C   0  0  0  0  0  0  0  0  0  0  0  0
   10.8837  -15.6949   27.6398 C   0  0  2  0  0  0  0  0  0  0  0  0
   10.9150  -16.5965   26.5277 N   0  0  0  0  0  0  0  0  0  0  0  0
   10.7115  -16.5140   28.8866 C   0  0  0  0  0  0  0  0  0  0  0  0
   10.3408  -17.7099   28.7565 O   0  0  0  0  0  0  0  0  0  0  0  0
   10.9509  -15.9784   30.1443 O   0  0  0  0  0  0  0  0  0  0  0  0
  2 13  1  0
  2  1  1  6
  3  2  1  0
  4  3  1  0
  4  5  2  0
  6  5  1  0
  7  6  1  0
  8  7  2  0
  9  8  1  0
 10  9  2  0
 10 11  1  0
 11 12  2  0
 12  7  1  0
 12  4  1  0
 13 14  2  0
 15 16  1  0
 15 13  1  0
 16 21  1  0
 16 17  1  6
 18 17  1  0
 19 18  1  0
 20 19  2  0
 21 22  2  0
 23 19  1  0
 25 24  1  1
 25 27  1  0
 26 25  1  0
 27 29  1  0
 27 28  1  6
 28 21  1  0
 29 30  2  0
 29 31  1  0
M  END
$$$$
