KFD.pdb
     RDKit          3D

 29 29  0  0  1  0  0  0  0  0999 V2000
   27.8939  -19.7734  -14.6773 N   0  0  0  0  0  0  0  0  0  0  0  0
   27.3202  -21.0864  -14.6951 C   0  0  1  0  0  0  0  0  0  0  0  0
   28.3559  -22.1881  -14.6248 C   0  0  0  0  0  0  0  0  0  0  0  0
   28.4130  -22.9848  -15.9098 C   0  0  0  0  0  0  0  0  0  0  0  0
   29.5919  -22.4598  -16.7125 C   0  0  0  0  0  0  0  0  0  0  0  0
   29.6902  -23.1268  -18.0549 C   0  0  0  0  0  0  0  0  0  0  0  0
   30.7934  -22.5923  -18.7992 N   0  0  0  0  0  0  0  0  0  0  0  0
   26.4292  -21.2684  -13.5196 C   0  0  0  0  0  0  0  0  0  0  0  0
   25.8609  -22.3742  -13.3522 O   0  0  0  0  0  0  0  0  0  0  0  0
   26.2230  -20.2034  -12.5970 N   0  0  0  0  0  0  0  0  0  0  0  0
   25.1478  -20.2338  -11.6304 C   0  0  1  0  0  0  0  0  0  0  0  0
   25.3260  -19.2931  -10.4925 C   0  0  0  0  0  0  0  0  0  0  0  0
   25.9769  -19.8238   -9.2996 C   0  0  0  0  0  0  0  0  0  0  0  0
   26.9739  -19.1139   -8.6399 C   0  0  0  0  0  0  0  0  0  0  0  0
   27.5850  -19.6420   -7.5127 C   0  0  0  0  0  0  0  0  0  0  0  0
   27.2366  -20.8807   -6.9999 C   0  0  0  0  0  0  0  0  0  0  0  0
   26.2522  -21.5769   -7.6549 C   0  0  0  0  0  0  0  0  0  0  0  0
   25.6460  -21.0518   -8.7739 C   0  0  0  0  0  0  0  0  0  0  0  0
   23.8219  -20.1536  -12.3097 C   0  0  0  0  0  0  0  0  0  0  0  0
   23.6812  -19.6344  -13.4415 O   0  0  0  0  0  0  0  0  0  0  0  0
   22.6847  -20.6789  -11.6546 N   0  0  0  0  0  0  0  0  0  0  0  0
   21.4140  -20.9468  -12.3366 C   0  0  1  0  0  0  0  0  0  0  0  0
   21.6270  -21.9320  -13.4474 C   0  0  0  0  0  0  0  0  0  0  0  0
   20.4059  -22.2541  -14.1823 C   0  0  0  0  0  0  0  0  0  0  0  0
   19.3193  -21.6516  -13.9068 O   0  0  0  0  0  0  0  0  0  0  0  0
   20.4449  -21.4001  -11.3357 C   0  0  0  0  0  0  0  0  0  0  0  0
   20.4335  -22.6337  -10.7025 O   0  0  0  0  0  0  0  0  0  0  0  0
   20.3414  -23.1998  -15.1885 O   0  0  0  0  0  0  0  0  0  0  0  0
   19.5058  -20.6183  -10.9840 O   0  0  0  0  0  0  0  0  0  0  0  0
  2  3  1  0
  2  1  1  1
  4  5  1  0
  4  3  1  0
  6  7  1  0
  6  5  1  0
  8  2  1  0
  9  8  2  0
 10  8  1  0
 11 10  1  0
 12 13  1  0
 11 12  1  1
 13 14  2  0
 14 15  1  0
 16 15  2  0
 17 16  1  0
 18 17  2  0
 18 13  1  0
 19 21  1  0
 19 11  1  0
 20 19  2  0
 22 23  1  6
 22 21  1  0
 23 24  1  0
 24 28  1  0
 24 25  2  0
 26 22  1  0
 26 27  1  0
 29 26  2  0
M  END
$$$$
