KFD.pdb
     RDKit          3D

 29 29  0  0  1  0  0  0  0  0999 V2000
   23.2585  -18.4560  -17.7262 N   0  0  0  0  0  0  0  0  0  0  0  0
   22.6391  -17.5294  -18.6269 C   0  0  1  0  0  0  0  0  0  0  0  0
   21.2057  -17.8885  -18.9553 C   0  0  0  0  0  0  0  0  0  0  0  0
   21.0967  -19.2823  -19.5337 C   0  0  0  0  0  0  0  0  0  0  0  0
   19.6659  -19.4592  -20.0144 C   0  0  0  0  0  0  0  0  0  0  0  0
   19.4853  -20.7539  -20.7545 C   0  0  0  0  0  0  0  0  0  0  0  0
   18.1083  -20.9382  -21.1107 N   0  0  0  0  0  0  0  0  0  0  0  0
   22.6065  -16.1735  -18.0193 C   0  0  0  0  0  0  0  0  0  0  0  0
   22.0982  -16.0287  -16.8815 O   0  0  0  0  0  0  0  0  0  0  0  0
   23.1437  -15.0550  -18.7181 N   0  0  0  0  0  0  0  0  0  0  0  0
   23.3346  -13.7759  -18.0709 C   0  0  1  0  0  0  0  0  0  0  0  0
   24.7572  -13.4373  -17.8005 C   0  0  0  0  0  0  0  0  0  0  0  0
   25.5317  -14.4168  -17.0461 C   0  0  0  0  0  0  0  0  0  0  0  0
   26.2650  -15.4105  -17.6849 C   0  0  0  0  0  0  0  0  0  0  0  0
   26.9869  -16.3364  -16.9470 C   0  0  0  0  0  0  0  0  0  0  0  0
   27.0108  -16.3149  -15.5622 C   0  0  0  0  0  0  0  0  0  0  0  0
   26.2854  -15.3322  -14.9370 C   0  0  0  0  0  0  0  0  0  0  0  0
   25.5690  -14.4134  -15.6704 C   0  0  0  0  0  0  0  0  0  0  0  0
   22.5564  -12.7091  -18.7653 C   0  0  0  0  0  0  0  0  0  0  0  0
   22.3804  -12.7105  -20.0060 O   0  0  0  0  0  0  0  0  0  0  0  0
   21.9998  -11.6596  -17.9990 N   0  0  0  0  0  0  0  0  0  0  0  0
   21.1886  -10.5827  -18.5766 C   0  0  1  0  0  0  0  0  0  0  0  0
   20.1148  -10.1766  -17.6114 C   0  0  0  0  0  0  0  0  0  0  0  0
   19.3166   -9.0425  -18.0714 C   0  0  0  0  0  0  0  0  0  0  0  0
   18.6928   -9.1105  -19.1786 O   0  0  0  0  0  0  0  0  0  0  0  0
   22.0843   -9.4836  -18.9457 C   0  0  0  0  0  0  0  0  0  0  0  0
   21.7457   -8.3612  -19.6863 O   0  0  0  0  0  0  0  0  0  0  0  0
   19.1862   -7.8592  -17.3689 O   0  0  0  0  0  0  0  0  0  0  0  0
   23.2988   -9.5218  -18.5716 O   0  0  0  0  0  0  0  0  0  0  0  0
  2  3  1  0
  2  1  1  1
  4  5  1  0
  4  3  1  0
  6  7  1  0
  6  5  1  0
  8  2  1  0
  9  8  2  0
 10  8  1  0
 11 10  1  0
 12 13  1  0
 11 12  1  6
 13 14  2  0
 14 15  1  0
 16 15  2  0
 17 16  1  0
 18 17  2  0
 18 13  1  0
 19 21  1  0
 19 11  1  0
 20 19  2  0
 22 23  1  1
 22 21  1  0
 23 24  1  0
 24 28  1  0
 24 25  2  0
 26 22  1  0
 26 27  1  0
 29 26  2  0
M  END
$$$$
