KFD.pdb
     RDKit          3D

 29 29  0  0  1  0  0  0  0  0999 V2000
   28.2850  -20.3510  -14.2153 N   0  0  0  0  0  0  0  0  0  0  0  0
   27.8262  -19.3802  -13.2664 C   0  0  1  0  0  0  0  0  0  0  0  0
   26.5985  -18.6277  -13.7330 C   0  0  0  0  0  0  0  0  0  0  0  0
   26.5122  -18.5797  -15.2428 C   0  0  0  0  0  0  0  0  0  0  0  0
   27.2748  -17.3464  -15.6979 C   0  0  0  0  0  0  0  0  0  0  0  0
   26.3464  -16.2563  -16.1520 C   0  0  0  0  0  0  0  0  0  0  0  0
   26.4232  -16.0948  -17.5750 N   0  0  0  0  0  0  0  0  0  0  0  0
   27.4529  -20.0500  -11.9932 C   0  0  0  0  0  0  0  0  0  0  0  0
   27.4248  -21.3035  -11.9507 O   0  0  0  0  0  0  0  0  0  0  0  0
   27.1312  -19.2808  -10.8388 N   0  0  0  0  0  0  0  0  0  0  0  0
   26.9425  -19.8971   -9.5443 C   0  0  1  0  0  0  0  0  0  0  0  0
   27.1186  -18.9678   -8.3967 C   0  0  0  0  0  0  0  0  0  0  0  0
   27.1939  -19.5714   -7.0707 C   0  0  0  0  0  0  0  0  0  0  0  0
   26.0956  -20.2015   -6.4963 C   0  0  0  0  0  0  0  0  0  0  0  0
   26.1877  -20.7606   -5.2307 C   0  0  0  0  0  0  0  0  0  0  0  0
   27.3588  -20.7184   -4.4919 C   0  0  0  0  0  0  0  0  0  0  0  0
   28.4394  -20.0954   -5.0636 C   0  0  0  0  0  0  0  0  0  0  0  0
   28.3470  -19.5405   -6.3202 C   0  0  0  0  0  0  0  0  0  0  0  0
   25.6837  -20.6974   -9.5167 C   0  0  0  0  0  0  0  0  0  0  0  0
   25.5284  -21.6721   -8.7446 O   0  0  0  0  0  0  0  0  0  0  0  0
   24.6304  -20.3464  -10.3918 N   0  0  0  0  0  0  0  0  0  0  0  0
   23.3669  -21.0871  -10.4697 C   0  0  1  0  0  0  0  0  0  0  0  0
   22.2464  -20.2456   -9.9348 C   0  0  0  0  0  0  0  0  0  0  0  0
   20.9325  -20.8701  -10.0712 C   0  0  0  0  0  0  0  0  0  0  0  0
   20.8011  -22.1229   -9.8901 O   0  0  0  0  0  0  0  0  0  0  0  0
   23.1671  -21.5053  -11.8595 C   0  0  0  0  0  0  0  0  0  0  0  0
   22.7428  -22.7537  -12.2891 O   0  0  0  0  0  0  0  0  0  0  0  0
   19.7818  -20.1762  -10.3959 O   0  0  0  0  0  0  0  0  0  0  0  0
   23.3933  -20.6746  -12.7952 O   0  0  0  0  0  0  0  0  0  0  0  0
  2  3  1  0
  2  1  1  6
  4  5  1  0
  4  3  1  0
  6  7  1  0
  6  5  1  0
  8  2  1  0
  9  8  2  0
 10  8  1  0
 11 10  1  0
 12 13  1  0
 11 12  1  1
 13 14  2  0
 14 15  1  0
 16 15  2  0
 17 16  1  0
 18 17  2  0
 18 13  1  0
 19 21  1  0
 19 11  1  0
 20 19  2  0
 22 23  1  6
 22 21  1  0
 23 24  1  0
 24 28  1  0
 24 25  2  0
 26 22  1  0
 26 27  1  0
 29 26  2  0
M  END
$$$$
