KFD.pdb
     RDKit          3D

 29 29  0  0  1  0  0  0  0  0999 V2000
   19.5812  -13.3306  -18.4228 N   0  0  0  0  0  0  0  0  0  0  0  0
   19.5712  -11.9611  -18.8446 C   0  0  1  0  0  0  0  0  0  0  0  0
   18.3473  -11.5995  -19.6586 C   0  0  0  0  0  0  0  0  0  0  0  0
   18.0839  -12.6115  -20.7522 C   0  0  0  0  0  0  0  0  0  0  0  0
   16.9253  -12.0847  -21.5828 C   0  0  0  0  0  0  0  0  0  0  0  0
   16.5819  -13.0166  -22.7099 C   0  0  0  0  0  0  0  0  0  0  0  0
   15.3730  -12.5952  -23.3563 N   0  0  0  0  0  0  0  0  0  0  0  0
   19.5710  -11.0638  -17.6598 C   0  0  0  0  0  0  0  0  0  0  0  0
   18.6151  -11.1259  -16.8497 O   0  0  0  0  0  0  0  0  0  0  0  0
   20.6395  -10.1467  -17.4473 N   0  0  0  0  0  0  0  0  0  0  0  0
   20.6288   -9.2111  -16.3447 C   0  0  1  0  0  0  0  0  0  0  0  0
   21.9195   -9.1202  -15.6115 C   0  0  0  0  0  0  0  0  0  0  0  0
   22.0031   -8.1186  -14.5541 C   0  0  0  0  0  0  0  0  0  0  0  0
   22.3556   -6.8018  -14.8276 C   0  0  0  0  0  0  0  0  0  0  0  0
   22.4373   -5.8686  -13.8051 C   0  0  0  0  0  0  0  0  0  0  0  0
   22.1758   -6.1992  -12.4856 C   0  0  0  0  0  0  0  0  0  0  0  0
   21.8285   -7.5001  -12.2214 C   0  0  0  0  0  0  0  0  0  0  0  0
   21.7476   -8.4259  -13.2372 C   0  0  0  0  0  0  0  0  0  0  0  0
   20.0528   -7.9012  -16.7665 C   0  0  0  0  0  0  0  0  0  0  0  0
   20.3732   -7.3459  -17.8432 O   0  0  0  0  0  0  0  0  0  0  0  0
   19.1149   -7.2627  -15.9231 N   0  0  0  0  0  0  0  0  0  0  0  0
   18.5401   -5.9442  -16.2098 C   0  0  1  0  0  0  0  0  0  0  0  0
   17.0912   -6.0851  -16.5715 C   0  0  0  0  0  0  0  0  0  0  0  0
   16.4395   -4.8124  -16.8725 C   0  0  0  0  0  0  0  0  0  0  0  0
   17.1230   -3.7394  -16.9060 O   0  0  0  0  0  0  0  0  0  0  0  0
   18.7675   -5.0835  -15.0462 C   0  0  0  0  0  0  0  0  0  0  0  0
   19.1695   -3.7566  -15.0717 O   0  0  0  0  0  0  0  0  0  0  0  0
   15.0876   -4.6834  -17.1304 O   0  0  0  0  0  0  0  0  0  0  0  0
   18.5911   -5.5587  -13.8801 O   0  0  0  0  0  0  0  0  0  0  0  0
  2  3  1  0
  2  1  1  1
  4  5  1  0
  4  3  1  0
  6  7  1  0
  6  5  1  0
  8  2  1  0
  9  8  2  0
 10  8  1  0
 11 10  1  0
 12 13  1  0
 11 12  1  6
 13 14  2  0
 14 15  1  0
 16 15  2  0
 17 16  1  0
 18 17  2  0
 18 13  1  0
 19 21  1  0
 19 11  1  0
 20 19  2  0
 22 23  1  1
 22 21  1  0
 23 24  1  0
 24 28  1  0
 24 25  2  0
 26 22  1  0
 26 27  1  0
 29 26  2  0
M  END
$$$$
