KFD.pdb
     RDKit          3D

 29 29  0  0  1  0  0  0  0  0999 V2000
   26.9513  -19.4693  -18.1199 N   0  0  0  0  0  0  0  0  0  0  0  0
   25.6033  -19.9549  -18.1426 C   0  0  1  0  0  0  0  0  0  0  0  0
   25.3639  -20.9922  -19.2187 C   0  0  0  0  0  0  0  0  0  0  0  0
   25.8626  -20.5234  -20.5681 C   0  0  0  0  0  0  0  0  0  0  0  0
   25.5473  -19.0404  -20.6738 C   0  0  0  0  0  0  0  0  0  0  0  0
   25.8873  -18.4964  -22.0321 C   0  0  0  0  0  0  0  0  0  0  0  0
   25.6761  -17.0784  -22.0698 N   0  0  0  0  0  0  0  0  0  0  0  0
   25.2752  -20.6061  -16.8475 C   0  0  0  0  0  0  0  0  0  0  0  0
   24.5666  -21.6414  -16.8493 O   0  0  0  0  0  0  0  0  0  0  0  0
   25.7574  -20.0631  -15.6226 N   0  0  0  0  0  0  0  0  0  0  0  0
   25.3277  -20.5794  -14.3420 C   0  0  1  0  0  0  0  0  0  0  0  0
   26.2333  -20.2372  -13.2131 C   0  0  0  0  0  0  0  0  0  0  0  0
   25.8214  -20.6799  -11.8855 C   0  0  0  0  0  0  0  0  0  0  0  0
   26.1288  -21.9522  -11.4165 C   0  0  0  0  0  0  0  0  0  0  0  0
   25.7193  -22.3545  -10.1542 C   0  0  0  0  0  0  0  0  0  0  0  0
   24.9969  -21.5216   -9.3156 C   0  0  0  0  0  0  0  0  0  0  0  0
   24.6962  -20.2673   -9.7836 C   0  0  0  0  0  0  0  0  0  0  0  0
   25.1033  -19.8687  -11.0369 C   0  0  0  0  0  0  0  0  0  0  0  0
   23.8863  -20.2760  -14.1047 C   0  0  0  0  0  0  0  0  0  0  0  0
   23.4235  -19.1152  -14.1987 O   0  0  0  0  0  0  0  0  0  0  0  0
   23.0124  -21.3325  -13.7604 N   0  0  0  0  0  0  0  0  0  0  0  0
   21.5763  -21.1467  -13.5273 C   0  0  1  0  0  0  0  0  0  0  0  0
   20.8146  -22.3231  -14.0618 C   0  0  0  0  0  0  0  0  0  0  0  0
   19.3732  -22.2336  -13.8394 C   0  0  0  0  0  0  0  0  0  0  0  0
   18.8723  -22.6359  -12.7409 O   0  0  0  0  0  0  0  0  0  0  0  0
   21.3709  -20.9241  -12.0939 C   0  0  0  0  0  0  0  0  0  0  0  0
   22.1183  -21.4714  -11.0619 O   0  0  0  0  0  0  0  0  0  0  0  0
   18.4823  -21.7283  -14.7678 O   0  0  0  0  0  0  0  0  0  0  0  0
   20.4265  -20.1621  -11.7143 O   0  0  0  0  0  0  0  0  0  0  0  0
  2  3  1  0
  2  1  1  1
  4  5  1  0
  4  3  1  0
  6  7  1  0
  6  5  1  0
  8  2  1  0
  9  8  2  0
 10  8  1  0
 11 10  1  0
 12 13  1  0
 11 12  1  1
 13 14  2  0
 14 15  1  0
 16 15  2  0
 17 16  1  0
 18 17  2  0
 18 13  1  0
 19 21  1  0
 19 11  1  0
 20 19  2  0
 22 23  1  1
 22 21  1  0
 23 24  1  0
 24 28  1  0
 24 25  2  0
 26 22  1  0
 26 27  1  0
 29 26  2  0
M  END
$$$$
