MIF.pdb
     RDKit          3D

 28 28  0  0  1  0  0  0  0  0999 V2000
    8.7985  -12.5810   20.2378 C   0  0  0  0  0  0  0  0  0  0  0  0
    7.8097  -13.4543   18.9938 S   0  0  0  0  0  0  0  0  0  0  0  0
    7.5401  -15.1297   19.5804 C   0  0  0  0  0  0  0  0  0  0  0  0
    7.0242  -15.1693   21.0130 C   0  0  0  0  0  0  0  0  0  0  0  0
    6.7768  -16.6190   21.3405 C   0  0  2  0  0  0  0  0  0  0  0  0
    5.6066  -17.1339   20.6637 N   0  0  0  0  0  0  0  0  0  0  0  0
    6.6467  -16.8786   22.7824 C   0  0  0  0  0  0  0  0  0  0  0  0
    5.5818  -16.5568   23.3442 O   0  0  0  0  0  0  0  0  0  0  0  0
    7.2491  -20.5798   27.2623 C   0  0  0  0  0  0  0  0  0  0  0  0
    7.3340  -19.0885   26.9174 C   0  0  0  0  0  0  0  0  0  0  0  0
    7.4274  -18.8992   25.4302 C   0  0  2  0  0  0  0  0  0  0  0  0
    8.4998  -19.7182   24.7866 C   0  0  0  0  0  0  0  0  0  0  0  0
    7.5504  -17.4645   25.0050 C   0  0  2  0  0  0  0  0  0  0  0  0
    7.6707  -17.4748   23.5605 N   0  0  0  0  0  0  0  0  0  0  0  0
    8.7060  -16.7689   25.6329 C   0  0  0  0  0  0  0  0  0  0  0  0
    9.8629  -16.8078   25.1485 O   0  0  0  0  0  0  0  0  0  0  0  0
    8.4977  -16.0334   26.8230 N   0  0  0  0  0  0  0  0  0  0  0  0
    9.5520  -15.2493   27.4585 C   0  0  1  0  0  0  0  0  0  0  0  0
    8.8546  -14.1450   28.2127 C   0  0  0  0  0  0  0  0  0  0  0  0
    7.9782  -13.3073   27.3842 C   0  0  0  0  0  0  0  0  0  0  0  0
    7.8484  -13.4589   26.0124 C   0  0  0  0  0  0  0  0  0  0  0  0
    7.0197  -12.6768   25.2386 C   0  0  0  0  0  0  0  0  0  0  0  0
    6.2778  -11.6962   25.8230 C   0  0  0  0  0  0  0  0  0  0  0  0
    6.3859  -11.5209   27.1866 C   0  0  0  0  0  0  0  0  0  0  0  0
    7.2106  -12.2967   27.9688 C   0  0  0  0  0  0  0  0  0  0  0  0
   10.3335  -16.0583   28.3968 C   0  0  0  0  0  0  0  0  0  0  0  0
   11.5412  -15.5848   28.8885 O   0  0  0  0  0  0  0  0  0  0  0  0
    9.9625  -17.1890   28.7938 O   0  0  0  0  0  0  0  0  0  0  0  0
  1  2  1  0
  3  2  1  0
  4  3  1  0
  5  6  1  6
  5  4  1  0
  7  8  2  0
  7  5  1  0
 10 11  1  0
 10  9  1  0
 11 12  1  1
 13 14  1  6
 13 11  1  0
 14  7  1  0
 15 13  1  0
 16 15  2  0
 17 15  1  0
 18 17  1  0
 18 19  1  1
 20 19  1  0
 21 20  2  0
 22 21  1  0
 23 22  2  0
 23 24  1  0
 24 25  2  0
 25 20  1  0
 26 27  1  0
 26 18  1  0
 28 26  2  0
M  END
$$$$
