MIF.pdb
     RDKit          3D

 28 28  0  0  1  0  0  0  0  0999 V2000
    5.9417  -18.1829   26.8166 C   0  0  0  0  0  0  0  0  0  0  0  0
    5.8744  -19.8046   26.0081 S   0  0  0  0  0  0  0  0  0  0  0  0
    6.3355  -19.5824   24.2872 C   0  0  0  0  0  0  0  0  0  0  0  0
    5.3706  -18.6724   23.5384 C   0  0  0  0  0  0  0  0  0  0  0  0
    5.8722  -18.5885   22.1201 C   0  0  2  0  0  0  0  0  0  0  0  0
    6.1411  -19.8964   21.5638 N   0  0  0  0  0  0  0  0  0  0  0  0
    7.0728  -17.7517   21.9733 C   0  0  0  0  0  0  0  0  0  0  0  0
    8.1570  -18.3161   21.7302 O   0  0  0  0  0  0  0  0  0  0  0  0
    6.7187  -12.8180   19.6745 C   0  0  0  0  0  0  0  0  0  0  0  0
    7.3368  -14.1880   19.9765 C   0  0  0  0  0  0  0  0  0  0  0  0
    7.8529  -14.2307   21.3865 C   0  0  2  0  0  0  0  0  0  0  0  0
    8.9409  -13.2421   21.6581 C   0  0  0  0  0  0  0  0  0  0  0  0
    8.2752  -15.5984   21.8397 C   0  0  2  0  0  0  0  0  0  0  0  0
    7.0557  -16.3394   22.0949 N   0  0  0  0  0  0  0  0  0  0  0  0
    9.1451  -15.5684   23.0462 C   0  0  0  0  0  0  0  0  0  0  0  0
   10.3247  -15.1411   23.0187 O   0  0  0  0  0  0  0  0  0  0  0  0
    8.6270  -16.0390   24.2753 N   0  0  0  0  0  0  0  0  0  0  0  0
    9.3236  -15.8562   25.5448 C   0  0  1  0  0  0  0  0  0  0  0  0
    8.2523  -15.6119   26.5780 C   0  0  0  0  0  0  0  0  0  0  0  0
    7.6229  -14.2878   26.4942 C   0  0  0  0  0  0  0  0  0  0  0  0
    8.3202  -13.0987   26.6397 C   0  0  0  0  0  0  0  0  0  0  0  0
    7.7286  -11.8578   26.5529 C   0  0  0  0  0  0  0  0  0  0  0  0
    6.3920  -11.7627   26.3130 C   0  0  0  0  0  0  0  0  0  0  0  0
    5.6710  -12.9288   26.1640 C   0  0  0  0  0  0  0  0  0  0  0  0
    6.2521  -14.1735   26.2487 C   0  0  0  0  0  0  0  0  0  0  0  0
   10.0905  -17.0482   25.9147 C   0  0  0  0  0  0  0  0  0  0  0  0
   10.8878  -17.0404   27.0499 O   0  0  0  0  0  0  0  0  0  0  0  0
   10.0672  -18.1080   25.2440 O   0  0  0  0  0  0  0  0  0  0  0  0
  1  2  1  0
  3  2  1  0
  4  3  1  0
  5  6  1  1
  5  4  1  0
  7  8  2  0
  7  5  1  0
 10 11  1  0
 10  9  1  0
 11 12  1  6
 13 14  1  1
 13 11  1  0
 14  7  1  0
 15 13  1  0
 16 15  2  0
 17 15  1  0
 18 17  1  0
 18 19  1  1
 20 19  1  0
 21 20  2  0
 22 21  1  0
 23 22  2  0
 23 24  1  0
 24 25  2  0
 25 20  1  0
 26 27  1  0
 26 18  1  0
 28 26  2  0
M  END
$$$$
