MIF.pdb
     RDKit          3D

 28 28  0  0  1  0  0  0  0  0999 V2000
    9.0762  -22.1849   20.3955 C   0  0  0  0  0  0  0  0  0  0  0  0
   10.3808  -22.2234   19.1367 S   0  0  0  0  0  0  0  0  0  0  0  0
   10.5952  -20.5533   18.5135 C   0  0  0  0  0  0  0  0  0  0  0  0
    9.6774  -19.5520   19.2026 C   0  0  0  0  0  0  0  0  0  0  0  0
   10.0313  -18.1950   18.6518 C   0  0  2  0  0  0  0  0  0  0  0  0
   11.2996  -18.2081   17.9564 N   0  0  0  0  0  0  0  0  0  0  0  0
   10.0588  -17.1381   19.6743 C   0  0  0  0  0  0  0  0  0  0  0  0
   11.1627  -16.8071   20.1485 O   0  0  0  0  0  0  0  0  0  0  0  0
    6.9906  -12.5948   19.4241 C   0  0  0  0  0  0  0  0  0  0  0  0
    8.1429  -13.5903   19.6008 C   0  0  0  0  0  0  0  0  0  0  0  0
    7.9217  -14.4364   20.8220 C   0  0  2  0  0  0  0  0  0  0  0  0
    7.6060  -13.6462   22.0512 C   0  0  0  0  0  0  0  0  0  0  0  0
    9.0355  -15.4031   21.1036 C   0  0  2  0  0  0  0  0  0  0  0  0
    8.8941  -16.4807   20.1444 N   0  0  0  0  0  0  0  0  0  0  0  0
    9.0165  -15.9223   22.4977 C   0  0  0  0  0  0  0  0  0  0  0  0
    8.1970  -16.7902   22.8847 O   0  0  0  0  0  0  0  0  0  0  0  0
    9.9571  -15.4211   23.4275 N   0  0  0  0  0  0  0  0  0  0  0  0
    9.9098  -15.7481   24.8491 C   0  0  1  0  0  0  0  0  0  0  0  0
   10.4584  -14.5442   25.5734 C   0  0  0  0  0  0  0  0  0  0  0  0
   10.4472  -14.6627   27.0370 C   0  0  0  0  0  0  0  0  0  0  0  0
   11.2081  -15.5872   27.7356 C   0  0  0  0  0  0  0  0  0  0  0  0
   11.2016  -15.6910   29.1090 C   0  0  0  0  0  0  0  0  0  0  0  0
   10.4173  -14.8566   29.8451 C   0  0  0  0  0  0  0  0  0  0  0  0
    9.6484  -13.9261   29.1783 C   0  0  0  0  0  0  0  0  0  0  0  0
    9.6476  -13.8138   27.8067 C   0  0  0  0  0  0  0  0  0  0  0  0
    8.5386  -16.0003   25.2983 C   0  0  0  0  0  0  0  0  0  0  0  0
    8.2753  -17.0267   26.1935 O   0  0  0  0  0  0  0  0  0  0  0  0
    7.5586  -15.3210   24.9084 O   0  0  0  0  0  0  0  0  0  0  0  0
  1  2  1  0
  3  2  1  0
  4  3  1  0
  5  6  1  1
  5  4  1  0
  7  8  2  0
  7  5  1  0
 10 11  1  0
 10  9  1  0
 11 12  1  1
 13 14  1  6
 13 11  1  0
 14  7  1  0
 15 13  1  0
 16 15  2  0
 17 15  1  0
 18 17  1  0
 18 19  1  1
 20 19  1  0
 21 20  2  0
 22 21  1  0
 23 22  2  0
 23 24  1  0
 24 25  2  0
 25 20  1  0
 26 27  1  0
 26 18  1  0
 28 26  2  0
M  END
$$$$
