MIF.pdb
     RDKit          3D

 28 28  0  0  1  0  0  0  0  0999 V2000
    9.4268  -19.0772   19.8160 C   0  0  0  0  0  0  0  0  0  0  0  0
    7.6379  -19.3124   19.9963 S   0  0  0  0  0  0  0  0  0  0  0  0
    6.8571  -17.6984   19.9008 C   0  0  0  0  0  0  0  0  0  0  0  0
    7.8336  -16.6019   19.4960 C   0  0  0  0  0  0  0  0  0  0  0  0
    7.2485  -15.3030   19.9864 C   0  0  2  0  0  0  0  0  0  0  0  0
    7.2013  -14.3031   18.9422 N   0  0  0  0  0  0  0  0  0  0  0  0
    7.9558  -14.7454   21.1492 C   0  0  0  0  0  0  0  0  0  0  0  0
    9.1301  -14.3581   20.9931 O   0  0  0  0  0  0  0  0  0  0  0  0
    6.7521  -11.5856   26.0413 C   0  0  0  0  0  0  0  0  0  0  0  0
    7.7898  -12.2243   25.1111 C   0  0  0  0  0  0  0  0  0  0  0  0
    7.2391  -13.4784   24.4944 C   0  0  2  0  0  0  0  0  0  0  0  0
    6.7341  -14.4680   25.4947 C   0  0  0  0  0  0  0  0  0  0  0  0
    8.1796  -14.1498   23.5357 C   0  0  2  0  0  0  0  0  0  0  0  0
    7.3680  -14.6279   22.4338 N   0  0  0  0  0  0  0  0  0  0  0  0
    8.9468  -15.2628   24.1570 C   0  0  0  0  0  0  0  0  0  0  0  0
    8.4277  -16.3723   24.4293 O   0  0  0  0  0  0  0  0  0  0  0  0
   10.3157  -15.0677   24.4546 N   0  0  0  0  0  0  0  0  0  0  0  0
   11.0648  -15.9592   25.3346 C   0  0  1  0  0  0  0  0  0  0  0  0
   10.0878  -16.4295   26.3829 C   0  0  0  0  0  0  0  0  0  0  0  0
   10.1326  -15.6660   27.6365 C   0  0  0  0  0  0  0  0  0  0  0  0
    9.7020  -14.3532   27.7485 C   0  0  0  0  0  0  0  0  0  0  0  0
    9.7380  -13.6418   28.9274 C   0  0  0  0  0  0  0  0  0  0  0  0
   10.2160  -14.2318   30.0573 C   0  0  0  0  0  0  0  0  0  0  0  0
   10.6522  -15.5376   29.9773 C   0  0  0  0  0  0  0  0  0  0  0  0
   10.6205  -16.2573   28.8047 C   0  0  0  0  0  0  0  0  0  0  0  0
   11.5899  -17.1173   24.6075 C   0  0  0  0  0  0  0  0  0  0  0  0
   11.1444  -17.3959   23.3237 O   0  0  0  0  0  0  0  0  0  0  0  0
   12.4453  -17.8957   25.0936 O   0  0  0  0  0  0  0  0  0  0  0  0
  1  2  1  0
  3  2  1  0
  4  3  1  0
  5  6  1  6
  5  4  1  0
  7  8  2  0
  7  5  1  0
 10 11  1  0
 10  9  1  0
 11 12  1  1
 13 14  1  6
 13 11  1  0
 14  7  1  0
 15 13  1  0
 16 15  2  0
 17 15  1  0
 18 17  1  0
 18 19  1  1
 20 19  1  0
 21 20  2  0
 22 21  1  0
 23 22  2  0
 23 24  1  0
 24 25  2  0
 25 20  1  0
 26 27  1  0
 26 18  1  0
 28 26  2  0
M  END
$$$$
