PEW.pdb
     RDKit          3D

 31 33  0  0  1  0  0  0  0  0999 V2000
    9.0436  -14.3796   19.1016 N   0  0  0  0  0  0  0  0  0  0  0  0
    8.4095  -13.5623   18.0850 C   0  0  0  0  0  0  0  0  0  0  0  0
    7.0954  -13.0937   18.6429 C   0  0  0  0  0  0  0  0  0  0  0  0
    6.9274  -13.9528   19.8789 C   0  0  0  0  0  0  0  0  0  0  0  0
    8.3616  -14.1189   20.3278 C   0  0  1  0  0  0  0  0  0  0  0  0
    8.5242  -15.1220   21.3744 C   0  0  0  0  0  0  0  0  0  0  0  0
    7.7807  -15.0525   22.3960 O   0  0  0  0  0  0  0  0  0  0  0  0
    9.4570  -16.1928   21.3579 N   0  0  0  0  0  0  0  0  0  0  0  0
    9.5414  -17.1678   22.4334 C   0  0  1  0  0  0  0  0  0  0  0  0
   10.4283  -18.3322   22.0597 C   0  0  0  0  0  0  0  0  0  0  0  0
   10.1745  -18.8151   20.6530 C   0  0  0  0  0  0  0  0  0  0  0  0
   11.1754  -19.8722   20.3535 C   0  0  0  0  0  0  0  0  0  0  0  0
   12.2871  -19.6362   19.8204 O   0  0  0  0  0  0  0  0  0  0  0  0
   10.0093  -16.5076   23.6999 C   0  0  0  0  0  0  0  0  0  0  0  0
   10.9125  -15.6211   23.6902 O   0  0  0  0  0  0  0  0  0  0  0  0
   10.8852  -21.1917   20.6715 O   0  0  0  0  0  0  0  0  0  0  0  0
    9.4556  -16.8565   24.9371 N   0  0  0  0  0  0  0  0  0  0  0  0
    9.9769  -16.3766   26.2372 C   0  0  1  0  0  0  0  0  0  0  0  0
    8.7345  -16.1685   27.0630 C   0  0  0  0  0  0  0  0  0  0  0  0
    7.7235  -15.2674   26.4810 C   0  0  0  0  0  0  0  0  0  0  0  0
    6.5489  -15.6526   25.8187 C   0  0  0  0  0  0  0  0  0  0  0  0
    5.8809  -14.5732   25.3895 N   0  0  0  0  0  0  0  0  0  0  0  0
    6.5872  -13.4897   25.7544 C   0  0  0  0  0  0  0  0  0  0  0  0
    6.2687  -12.1454   25.5351 C   0  0  0  0  0  0  0  0  0  0  0  0
    7.1376  -11.1938   26.0190 C   0  0  0  0  0  0  0  0  0  0  0  0
    8.2744  -11.5883   26.6928 C   0  0  0  0  0  0  0  0  0  0  0  0
    8.5880  -12.9100   26.9080 C   0  0  0  0  0  0  0  0  0  0  0  0
    7.7244  -13.8799   26.4268 C   0  0  0  0  0  0  0  0  0  0  0  0
   10.8584  -17.4149   26.7659 C   0  0  0  0  0  0  0  0  0  0  0  0
   11.6568  -17.2515   27.8968 O   0  0  0  0  0  0  0  0  0  0  0  0
   10.9125  -18.5392   26.1619 O   0  0  0  0  0  0  0  0  0  0  0  0
  1  5  1  0
  2  1  1  0
  2  3  1  0
  3  4  1  0
  5  4  1  0
  6  7  2  0
  5  6  1  1
  8  6  1  0
  9  8  1  0
  9 10  1  6
 11 10  1  0
 12 11  1  0
 13 12  2  0
 14  9  1  0
 15 14  2  0
 16 12  1  0
 17 14  1  0
 18 29  1  0
 18 17  1  0
 19 20  1  0
 18 19  1  1
 20 21  2  0
 20 28  1  0
 21 22  1  0
 22 23  1  0
 23 24  2  0
 24 25  1  0
 26 25  2  0
 27 26  1  0
 28 27  2  0
 28 23  1  0
 29 30  1  0
 31 29  2  0
M  END
$$$$
