PEW.pdb
     RDKit          3D

 31 33  0  0  1  0  0  0  0  0999 V2000
    9.1364  -13.7138   19.6661 N   0  0  0  0  0  0  0  0  0  0  0  0
    8.4367  -12.8841   18.7040 C   0  0  0  0  0  0  0  0  0  0  0  0
    6.9719  -12.9582   19.0306 C   0  0  0  0  0  0  0  0  0  0  0  0
    6.9029  -14.1072   20.0150 C   0  0  0  0  0  0  0  0  0  0  0  0
    8.2252  -13.9672   20.7348 C   0  0  1  0  0  0  0  0  0  0  0  0
    8.5408  -15.1096   21.5853 C   0  0  0  0  0  0  0  0  0  0  0  0
    7.7300  -15.4163   22.5072 O   0  0  0  0  0  0  0  0  0  0  0  0
    9.6956  -15.9293   21.4768 N   0  0  0  0  0  0  0  0  0  0  0  0
    9.9805  -17.0006   22.4179 C   0  0  1  0  0  0  0  0  0  0  0  0
   11.1242  -17.8666   21.9446 C   0  0  0  0  0  0  0  0  0  0  0  0
   11.3770  -19.0335   22.8669 C   0  0  0  0  0  0  0  0  0  0  0  0
   12.5445  -19.7829   22.3338 C   0  0  0  0  0  0  0  0  0  0  0  0
   13.7303  -19.3913   22.4616 O   0  0  0  0  0  0  0  0  0  0  0  0
   10.2504  -16.4359   23.7843 C   0  0  0  0  0  0  0  0  0  0  0  0
   10.9532  -15.3956   23.9442 O   0  0  0  0  0  0  0  0  0  0  0  0
   12.3339  -20.9770   21.6584 O   0  0  0  0  0  0  0  0  0  0  0  0
    9.7284  -17.0488   24.9293 N   0  0  0  0  0  0  0  0  0  0  0  0
   10.0245  -16.6025   26.3096 C   0  0  1  0  0  0  0  0  0  0  0  0
    8.6788  -16.6242   26.9862 C   0  0  0  0  0  0  0  0  0  0  0  0
    7.7180  -15.6031   26.5312 C   0  0  0  0  0  0  0  0  0  0  0  0
    6.5260  -15.8366   25.8301 C   0  0  0  0  0  0  0  0  0  0  0  0
    5.9168  -14.6769   25.5482 N   0  0  0  0  0  0  0  0  0  0  0  0
    6.6785  -13.6887   26.0475 C   0  0  0  0  0  0  0  0  0  0  0  0
    6.4318  -12.3125   26.0064 C   0  0  0  0  0  0  0  0  0  0  0  0
    7.3487  -11.4790   26.6058 C   0  0  0  0  0  0  0  0  0  0  0  0
    8.4617  -12.0170   27.2170 C   0  0  0  0  0  0  0  0  0  0  0  0
    8.7048  -13.3701   27.2570 C   0  0  0  0  0  0  0  0  0  0  0  0
    7.7922  -14.2224   26.6579 C   0  0  0  0  0  0  0  0  0  0  0  0
   10.9774  -17.5508   26.8818 C   0  0  0  0  0  0  0  0  0  0  0  0
   11.5842  -17.3844   28.1257 O   0  0  0  0  0  0  0  0  0  0  0  0
   11.2834  -18.5932   26.2099 O   0  0  0  0  0  0  0  0  0  0  0  0
  1  5  1  0
  2  1  1  0
  2  3  1  0
  3  4  1  0
  5  4  1  0
  6  7  2  0
  5  6  1  6
  8  6  1  0
  9  8  1  0
  9 10  1  6
 11 10  1  0
 12 11  1  0
 13 12  2  0
 14  9  1  0
 15 14  2  0
 16 12  1  0
 17 14  1  0
 18 29  1  0
 18 17  1  0
 19 20  1  0
 18 19  1  1
 20 21  2  0
 20 28  1  0
 21 22  1  0
 22 23  1  0
 23 24  2  0
 24 25  1  0
 26 25  2  0
 27 26  1  0
 28 27  2  0
 28 23  1  0
 29 30  1  0
 31 29  2  0
M  END
$$$$
