PEW.pdb
     RDKit          3D

 31 33  0  0  1  0  0  0  0  0999 V2000
    9.0729  -14.0904   19.2130 N   0  0  0  0  0  0  0  0  0  0  0  0
    8.3431  -13.2611   18.2733 C   0  0  0  0  0  0  0  0  0  0  0  0
    7.0231  -12.9225   18.9064 C   0  0  0  0  0  0  0  0  0  0  0  0
    6.9652  -13.8642   20.0912 C   0  0  0  0  0  0  0  0  0  0  0  0
    8.4244  -13.9536   20.4769 C   0  0  1  0  0  0  0  0  0  0  0  0
    8.6984  -15.0035   21.4519 C   0  0  0  0  0  0  0  0  0  0  0  0
    7.9855  -15.0567   22.4961 O   0  0  0  0  0  0  0  0  0  0  0  0
    9.7103  -15.9939   21.3406 N   0  0  0  0  0  0  0  0  0  0  0  0
    9.8732  -17.0536   22.3230 C   0  0  1  0  0  0  0  0  0  0  0  0
   10.9119  -18.0603   21.8873 C   0  0  0  0  0  0  0  0  0  0  0  0
   10.6381  -18.6023   20.5062 C   0  0  0  0  0  0  0  0  0  0  0  0
   11.8270  -19.3909   20.0893 C   0  0  0  0  0  0  0  0  0  0  0  0
   12.4459  -20.1632   20.8615 O   0  0  0  0  0  0  0  0  0  0  0  0
   10.2056  -16.4710   23.6679 C   0  0  0  0  0  0  0  0  0  0  0  0
   11.0117  -15.5029   23.7896 O   0  0  0  0  0  0  0  0  0  0  0  0
   12.2910  -19.2819   18.7858 O   0  0  0  0  0  0  0  0  0  0  0  0
    9.6288  -16.9859   24.8347 N   0  0  0  0  0  0  0  0  0  0  0  0
    9.9770  -16.5250   26.1979 C   0  0  1  0  0  0  0  0  0  0  0  0
    8.6586  -16.5422   26.9262 C   0  0  0  0  0  0  0  0  0  0  0  0
    7.6625  -15.5568   26.4685 C   0  0  0  0  0  0  0  0  0  0  0  0
    6.4479  -15.8388   25.8266 C   0  0  0  0  0  0  0  0  0  0  0  0
    5.8075  -14.7020   25.5217 N   0  0  0  0  0  0  0  0  0  0  0  0
    6.5708  -13.6815   25.9481 C   0  0  0  0  0  0  0  0  0  0  0  0
    6.2983  -12.3124   25.8598 C   0  0  0  0  0  0  0  0  0  0  0  0
    7.2235  -11.4397   26.3863 C   0  0  0  0  0  0  0  0  0  0  0  0
    8.3693  -11.9334   26.9738 C   0  0  0  0  0  0  0  0  0  0  0  0
    8.6377  -13.2795   27.0601 C   0  0  0  0  0  0  0  0  0  0  0  0
    7.7172  -14.1710   26.5345 C   0  0  0  0  0  0  0  0  0  0  0  0
   10.9535  -17.4657   26.7423 C   0  0  0  0  0  0  0  0  0  0  0  0
   11.6253  -17.2738   27.9485 O   0  0  0  0  0  0  0  0  0  0  0  0
   11.2185  -18.5257   26.0806 O   0  0  0  0  0  0  0  0  0  0  0  0
  1  5  1  0
  2  1  1  0
  2  3  1  0
  3  4  1  0
  5  4  1  0
  6  7  2  0
  5  6  1  1
  8  6  1  0
  9  8  1  0
  9 10  1  6
 11 10  1  0
 12 11  1  0
 13 12  2  0
 14  9  1  0
 15 14  2  0
 16 12  1  0
 17 14  1  0
 18 29  1  0
 18 17  1  0
 19 20  1  0
 18 19  1  1
 20 21  2  0
 20 28  1  0
 21 22  1  0
 22 23  1  0
 23 24  2  0
 24 25  1  0
 26 25  2  0
 27 26  1  0
 28 27  2  0
 28 23  1  0
 29 30  1  0
 31 29  2  0
M  END
$$$$
