RPC.pdb
     RDKit          3D

 25 25  0  0  1  0  0  0  0  0999 V2000
    3.7712  -18.5293   20.0866 N   0  0  0  0  0  0  0  0  0  0  0  0
    4.0152  -19.7132   19.3027 C   0  0  0  0  0  0  0  0  0  0  0  0
    3.0728  -20.5758   19.2013 N   0  0  0  0  0  0  0  0  0  0  0  0
    5.2517  -19.9270   18.6608 N   0  0  0  0  0  0  0  0  0  0  0  0
    6.4023  -19.1081   19.0361 C   0  0  0  0  0  0  0  0  0  0  0  0
    6.8485  -18.3998   17.7945 C   0  0  0  0  0  0  0  0  0  0  0  0
    6.4951  -16.9628   17.6856 C   0  0  0  0  0  0  0  0  0  0  0  0
    7.5790  -16.0630   17.1502 C   0  0  2  0  0  0  0  0  0  0  0  0
    8.3454  -16.9143   16.2082 N   0  0  0  0  0  0  0  0  0  0  0  0
    8.5242  -15.7428   18.2596 C   0  0  0  0  0  0  0  0  0  0  0  0
    9.6024  -16.3948   18.3368 O   0  0  0  0  0  0  0  0  0  0  0  0
    3.0970  -21.4461   18.6541 N   0  0  0  0  0  0  0  0  0  0  0  0
    8.2853  -14.7432   19.2371 C   0  0  0  0  0  0  0  0  0  0  0  0
    7.0429  -13.9781   19.3278 C   0  0  0  0  0  0  0  0  0  0  0  0
    7.1733  -13.0261   20.4677 C   0  0  0  0  0  0  0  0  0  0  0  0
    8.6403  -12.9743   20.7403 C   0  0  2  0  0  0  0  0  0  0  0  0
    9.1630  -14.3252   20.2952 C   0  0  0  0  0  0  0  0  0  0  0  0
    9.0150  -15.2231   21.5001 O   0  0  0  0  0  0  0  0  0  0  0  0
    7.8612  -15.6257   21.7720 N   0  0  0  0  0  0  0  0  0  0  0  0
   10.0845  -15.6238   22.3187 C   0  0  1  0  0  0  0  0  0  0  0  0
   10.0382  -16.6255   23.3306 C   0  0  0  0  0  0  0  0  0  0  0  0
   10.8802  -17.8346   23.0839 S   0  0  0  0  0  0  0  0  0  0  0  0
   12.5571  -17.2281   22.6460 C   0  0  0  0  0  0  0  0  0  0  0  0
   10.3895  -16.1047   24.6811 O   0  0  0  0  0  0  0  0  0  0  0  0
   10.8466  -14.9405   24.7896 O   0  0  0  0  0  0  0  0  0  0  0  0
  2  1  1  0
  2  3  2  0
  4  5  1  0
  4  2  1  0
  6  5  1  0
  6  7  1  0
  7  8  1  0
  8 10  1  0
  8  9  1  6
 10 12  1  0
 11 10  2  0
 12 13  1  0
 12 16  1  0
 13 14  1  0
 14 15  1  0
 16 15  1  0
 17 19  1  0
 16 17  1  1
 18 17  2  0
 20 21  1  1
 20 23  1  0
 20 19  1  0
 22 21  1  0
 23 25  1  0
 24 23  2  0
M  END
$$$$
