RPC.pdb
     RDKit          3D

 25 25  0  0  1  0  0  0  0  0999 V2000
    4.6379  -19.3049   14.2341 N   0  0  0  0  0  0  0  0  0  0  0  0
    6.0142  -19.7149   14.1173 C   0  0  0  0  0  0  0  0  0  0  0  0
    6.5672  -19.6533   12.9628 N   0  0  0  0  0  0  0  0  0  0  0  0
    6.7415  -20.1722   15.2346 N   0  0  0  0  0  0  0  0  0  0  0  0
    6.7309  -19.3843   16.4652 C   0  0  0  0  0  0  0  0  0  0  0  0
    7.1571  -17.9984   16.0913 C   0  0  0  0  0  0  0  0  0  0  0  0
    8.1826  -17.3625   16.9549 C   0  0  0  0  0  0  0  0  0  0  0  0
    8.5088  -15.9271   16.6320 C   0  0  2  0  0  0  0  0  0  0  0  0
    9.4416  -16.0015   15.4814 N   0  0  0  0  0  0  0  0  0  0  0  0
    9.3054  -15.3545   17.7563 C   0  0  0  0  0  0  0  0  0  0  0  0
   10.5173  -15.6905   17.8657 O   0  0  0  0  0  0  0  0  0  0  0  0
    7.5200  -19.9579   12.7243 N   0  0  0  0  0  0  0  0  0  0  0  0
    8.7821  -14.4485   18.7141 C   0  0  0  0  0  0  0  0  0  0  0  0
    7.4497  -13.8537   18.6244 C   0  0  0  0  0  0  0  0  0  0  0  0
    7.2683  -12.9568   19.8014 C   0  0  0  0  0  0  0  0  0  0  0  0
    8.6528  -12.7341   20.3136 C   0  0  1  0  0  0  0  0  0  0  0  0
    9.4163  -13.9811   19.9157 C   0  0  0  0  0  0  0  0  0  0  0  0
    9.2007  -14.9553   21.0490 O   0  0  0  0  0  0  0  0  0  0  0  0
    8.1693  -15.6633   21.0029 N   0  0  0  0  0  0  0  0  0  0  0  0
   10.0804  -15.1068   22.1342 C   0  0  1  0  0  0  0  0  0  0  0  0
   10.3763  -16.3244   22.8119 C   0  0  0  0  0  0  0  0  0  0  0  0
   10.8960  -17.4326   21.9554 S   0  0  0  0  0  0  0  0  0  0  0  0
   11.0802  -18.8986   23.0455 C   0  0  0  0  0  0  0  0  0  0  0  0
   11.3333  -16.1449   23.9392 O   0  0  0  0  0  0  0  0  0  0  0  0
   12.3285  -15.3953   23.7853 O   0  0  0  0  0  0  0  0  0  0  0  0
  2  1  1  0
  2  3  2  0
  4  5  1  0
  4  2  1  0
  6  5  1  0
  6  7  1  0
  7  8  1  0
  8 10  1  0
  8  9  1  6
 10 12  1  0
 11 10  2  0
 12 13  1  0
 12 16  1  0
 13 14  1  0
 14 15  1  0
 16 15  1  0
 17 19  1  0
 16 17  1  1
 18 17  2  0
 20 21  1  1
 20 23  1  0
 20 19  1  0
 22 21  1  0
 23 25  1  0
 24 23  2  0
M  END
$$$$
