RPC.pdb
     RDKit          3D

 25 25  0  0  1  0  0  0  0  0999 V2000
   15.2338  -15.3260   18.0000 N   0  0  0  0  0  0  0  0  0  0  0  0
   14.5968  -14.4805   18.9774 C   0  0  0  0  0  0  0  0  0  0  0  0
   15.3403  -13.8641   19.8198 N   0  0  0  0  0  0  0  0  0  0  0  0
   13.1961  -14.3282   19.0151 N   0  0  0  0  0  0  0  0  0  0  0  0
   12.3449  -15.4438   18.6075 C   0  0  0  0  0  0  0  0  0  0  0  0
   11.1053  -15.3661   19.4439 C   0  0  0  0  0  0  0  0  0  0  0  0
   10.3908  -14.0657   19.4542 C   0  0  0  0  0  0  0  0  0  0  0  0
    8.8901  -14.1447   19.3419 C   0  0  2  0  0  0  0  0  0  0  0  0
    8.4981  -12.8995   18.6381 N   0  0  0  0  0  0  0  0  0  0  0  0
    8.3029  -14.0332   20.7091 C   0  0  0  0  0  0  0  0  0  0  0  0
    8.2547  -12.8940   21.2509 O   0  0  0  0  0  0  0  0  0  0  0  0
   15.0229  -13.2440   20.5762 N   0  0  0  0  0  0  0  0  0  0  0  0
    7.7904  -15.1349   21.4410 C   0  0  0  0  0  0  0  0  0  0  0  0
    7.8404  -16.5169   20.9672 C   0  0  0  0  0  0  0  0  0  0  0  0
    7.2004  -17.3792   22.0013 C   0  0  0  0  0  0  0  0  0  0  0  0
    6.4254  -16.4259   22.8497 C   0  0  2  0  0  0  0  0  0  0  0  0
    7.1760  -15.1141   22.7397 C   0  0  0  0  0  0  0  0  0  0  0  0
    8.2216  -15.1643   23.8278 O   0  0  0  0  0  0  0  0  0  0  0  0
    9.2033  -15.9183   23.6400 N   0  0  0  0  0  0  0  0  0  0  0  0
    8.1530  -14.4232   25.0196 C   0  0  1  0  0  0  0  0  0  0  0  0
    9.0797  -14.4820   26.0999 C   0  0  0  0  0  0  0  0  0  0  0  0
    8.8120  -13.5478   27.2345 S   0  0  0  0  0  0  0  0  0  0  0  0
   10.2504  -13.6717   28.3691 C   0  0  0  0  0  0  0  0  0  0  0  0
    9.2203  -15.8503   26.6717 O   0  0  0  0  0  0  0  0  0  0  0  0
    8.1892  -16.5311   26.8938 O   0  0  0  0  0  0  0  0  0  0  0  0
  2  1  1  0
  2  3  2  0
  4  5  1  0
  4  2  1  0
  6  5  1  0
  6  7  1  0
  7  8  1  0
  8 10  1  0
  8  9  1  6
 10 12  1  0
 11 10  2  0
 12 13  1  0
 12 16  1  0
 13 14  1  0
 14 15  1  0
 16 15  1  0
 17 19  1  0
 16 17  1  1
 18 17  2  0
 20 21  1  1
 20 23  1  0
 20 19  1  0
 22 21  1  0
 23 25  1  0
 24 23  2  0
M  END
$$$$
