RPC.pdb
     RDKit          3D

 25 25  0  0  1  0  0  0  0  0999 V2000
    7.5121  -19.5724   23.1174 N   0  0  0  0  0  0  0  0  0  0  0  0
    7.7351  -19.4309   21.7010 C   0  0  0  0  0  0  0  0  0  0  0  0
    8.4341  -20.3258   21.1069 N   0  0  0  0  0  0  0  0  0  0  0  0
    7.2041  -18.3430   20.9792 N   0  0  0  0  0  0  0  0  0  0  0  0
    6.3282  -17.3926   21.6610 C   0  0  0  0  0  0  0  0  0  0  0  0
    7.2081  -16.3061   22.1972 C   0  0  0  0  0  0  0  0  0  0  0  0
    7.7647  -15.3518   21.2066 C   0  0  0  0  0  0  0  0  0  0  0  0
    7.7015  -13.8971   21.5949 C   0  0  2  0  0  0  0  0  0  0  0  0
    8.5890  -13.2088   20.6263 N   0  0  0  0  0  0  0  0  0  0  0  0
    8.3557  -13.7298   22.9255 C   0  0  0  0  0  0  0  0  0  0  0  0
    9.6166  -13.7542   22.9821 O   0  0  0  0  0  0  0  0  0  0  0  0
    8.6620  -20.3578   20.1046 N   0  0  0  0  0  0  0  0  0  0  0  0
    7.6436  -13.5416   24.1378 C   0  0  0  0  0  0  0  0  0  0  0  0
    6.1979  -13.7174   24.2647 C   0  0  0  0  0  0  0  0  0  0  0  0
    5.8232  -13.4246   25.6777 C   0  0  0  0  0  0  0  0  0  0  0  0
    6.9972  -12.6825   26.2255 C   0  0  2  0  0  0  0  0  0  0  0  0
    8.1798  -13.1851   25.4223 C   0  0  0  0  0  0  0  0  0  0  0  0
    8.6659  -14.4103   26.1586 O   0  0  0  0  0  0  0  0  0  0  0  0
    8.3081  -15.5233   25.7107 N   0  0  0  0  0  0  0  0  0  0  0  0
    9.4841  -14.3691   27.3003 C   0  0  2  0  0  0  0  0  0  0  0  0
   10.5549  -15.2600   27.5989 C   0  0  0  0  0  0  0  0  0  0  0  0
   11.4412  -14.8511   28.7298 S   0  0  0  0  0  0  0  0  0  0  0  0
   10.3737  -13.9907   29.9510 C   0  0  0  0  0  0  0  0  0  0  0  0
   10.0957  -16.6505   27.8716 O   0  0  0  0  0  0  0  0  0  0  0  0
    8.8652  -16.8843   27.9574 O   0  0  0  0  0  0  0  0  0  0  0  0
  2  1  1  0
  2  3  2  0
  4  5  1  0
  4  2  1  0
  6  5  1  0
  6  7  1  0
  7  8  1  0
  8 10  1  0
  8  9  1  6
 10 12  1  0
 11 10  2  0
 12 13  1  0
 12 16  1  0
 13 14  1  0
 14 15  1  0
 16 15  1  0
 17 19  1  0
 16 17  1  1
 18 17  2  0
 20 21  1  1
 20 23  1  0
 20 19  1  0
 22 21  1  0
 23 25  1  0
 24 23  2  0
M  END
$$$$
