RPC.pdb
     RDKit          3D

 25 25  0  0  1  0  0  0  0  0999 V2000
    9.5475  -13.4231   17.4965 N   0  0  0  0  0  0  0  0  0  0  0  0
    8.1874  -13.6815   17.8954 C   0  0  0  0  0  0  0  0  0  0  0  0
    7.2834  -13.6953   16.9871 N   0  0  0  0  0  0  0  0  0  0  0  0
    7.8492  -13.9142   19.2438 N   0  0  0  0  0  0  0  0  0  0  0  0
    8.2269  -15.1809   19.8667 C   0  0  0  0  0  0  0  0  0  0  0  0
    7.0593  -15.6160   20.6972 C   0  0  0  0  0  0  0  0  0  0  0  0
    7.1832  -15.4350   22.1647 C   0  0  0  0  0  0  0  0  0  0  0  0
    6.9561  -14.0339   22.6709 C   0  0  2  0  0  0  0  0  0  0  0  0
    7.3307  -13.1568   21.5352 N   0  0  0  0  0  0  0  0  0  0  0  0
    7.9530  -13.7470   23.7436 C   0  0  0  0  0  0  0  0  0  0  0  0
    9.1759  -13.7102   23.4326 O   0  0  0  0  0  0  0  0  0  0  0  0
    6.2771  -13.8534   17.1285 N   0  0  0  0  0  0  0  0  0  0  0  0
    7.6086  -13.5092   25.0989 C   0  0  0  0  0  0  0  0  0  0  0  0
    6.2372  -13.5391   25.6044 C   0  0  0  0  0  0  0  0  0  0  0  0
    6.2800  -13.2353   27.0633 C   0  0  0  0  0  0  0  0  0  0  0  0
    7.6268  -12.6268   27.2750 C   0  0  1  0  0  0  0  0  0  0  0  0
    8.4978  -13.2326   26.1931 C   0  0  0  0  0  0  0  0  0  0  0  0
    9.0318  -14.5141   26.7866 O   0  0  0  0  0  0  0  0  0  0  0  0
    8.2518  -15.4927   26.8240 N   0  0  0  0  0  0  0  0  0  0  0  0
   10.3347  -14.6647   27.2908 C   0  0  1  0  0  0  0  0  0  0  0  0
   10.8849  -15.8511   27.8556 C   0  0  0  0  0  0  0  0  0  0  0  0
   12.3660  -16.0013   27.7308 S   0  0  0  0  0  0  0  0  0  0  0  0
   12.7980  -17.6138   28.4954 C   0  0  0  0  0  0  0  0  0  0  0  0
   10.5378  -16.0259   29.2935 O   0  0  0  0  0  0  0  0  0  0  0  0
   10.1594  -15.0305   29.9585 O   0  0  0  0  0  0  0  0  0  0  0  0
  2  1  1  0
  2  3  2  0
  4  5  1  0
  4  2  1  0
  6  5  1  0
  6  7  1  0
  7  8  1  0
  8 10  1  0
  8  9  1  6
 10 12  1  0
 11 10  2  0
 12 13  1  0
 12 16  1  0
 13 14  1  0
 14 15  1  0
 16 15  1  0
 17 19  1  0
 16 17  1  1
 18 17  2  0
 20 21  1  1
 20 23  1  0
 20 19  1  0
 22 21  1  0
 23 25  1  0
 24 23  2  0
M  END
$$$$
