RPC.pdb
     RDKit          3D

 25 25  0  0  1  0  0  0  0  0999 V2000
    7.9471  -13.9019   15.1047 N   0  0  0  0  0  0  0  0  0  0  0  0
    8.0560  -14.7897   16.2342 C   0  0  0  0  0  0  0  0  0  0  0  0
    8.9796  -15.6780   16.2179 N   0  0  0  0  0  0  0  0  0  0  0  0
    7.1770  -14.6927   17.3318 N   0  0  0  0  0  0  0  0  0  0  0  0
    7.2797  -15.6656   18.4173 C   0  0  0  0  0  0  0  0  0  0  0  0
    8.3430  -15.1636   19.3445 C   0  0  0  0  0  0  0  0  0  0  0  0
    7.9792  -15.0600   20.7793 C   0  0  0  0  0  0  0  0  0  0  0  0
    7.8694  -13.6596   21.3252 C   0  0  2  0  0  0  0  0  0  0  0  0
    8.6829  -12.8302   20.4034 N   0  0  0  0  0  0  0  0  0  0  0  0
    8.5730  -13.6037   22.6399 C   0  0  0  0  0  0  0  0  0  0  0  0
    9.8296  -13.7233   22.6540 O   0  0  0  0  0  0  0  0  0  0  0  0
    9.1720  -16.3733   16.9507 N   0  0  0  0  0  0  0  0  0  0  0  0
    7.9129  -13.4210   23.8820 C   0  0  0  0  0  0  0  0  0  0  0  0
    6.4593  -13.4298   24.0368 C   0  0  0  0  0  0  0  0  0  0  0  0
    6.1506  -13.1991   25.4770 C   0  0  0  0  0  0  0  0  0  0  0  0
    7.4170  -12.6469   26.0429 C   0  0  1  0  0  0  0  0  0  0  0  0
    8.5134  -13.2279   25.1730 C   0  0  0  0  0  0  0  0  0  0  0  0
    8.8599  -14.5539   25.8064 O   0  0  0  0  0  0  0  0  0  0  0  0
    8.5487  -15.5870   25.1714 N   0  0  0  0  0  0  0  0  0  0  0  0
    9.5015  -14.6884   27.0493 C   0  0  2  0  0  0  0  0  0  0  0  0
   10.7172  -15.3888   27.2956 C   0  0  0  0  0  0  0  0  0  0  0  0
   11.6084  -14.7933   28.3363 S   0  0  0  0  0  0  0  0  0  0  0  0
   10.5488  -14.4293   29.7911 C   0  0  0  0  0  0  0  0  0  0  0  0
   10.5024  -16.8180   27.6562 O   0  0  0  0  0  0  0  0  0  0  0  0
    9.3440  -17.2121   27.9373 O   0  0  0  0  0  0  0  0  0  0  0  0
  2  1  1  0
  2  3  2  0
  4  5  1  0
  4  2  1  0
  6  5  1  0
  6  7  1  0
  7  8  1  0
  8 10  1  0
  8  9  1  6
 10 12  1  0
 11 10  2  0
 12 13  1  0
 12 16  1  0
 13 14  1  0
 14 15  1  0
 16 15  1  0
 17 19  1  0
 16 17  1  1
 18 17  2  0
 20 21  1  1
 20 23  1  0
 20 19  1  0
 22 21  1  0
 23 25  1  0
 24 23  2  0
M  END
$$$$
