RPC.pdb
     RDKit          3D

 25 25  0  0  1  0  0  0  0  0999 V2000
    9.2103  -20.3094   18.7349 N   0  0  0  0  0  0  0  0  0  0  0  0
   10.0714  -20.2485   17.5813 C   0  0  0  0  0  0  0  0  0  0  0  0
   11.3205  -20.4830   17.7465 N   0  0  0  0  0  0  0  0  0  0  0  0
    9.5651  -19.9409   16.3024 N   0  0  0  0  0  0  0  0  0  0  0  0
    8.4513  -19.0026   16.1818 C   0  0  0  0  0  0  0  0  0  0  0  0
    8.4034  -18.2264   17.4615 C   0  0  0  0  0  0  0  0  0  0  0  0
    7.3500  -17.1868   17.5693 C   0  0  0  0  0  0  0  0  0  0  0  0
    7.7791  -15.7845   17.2221 C   0  0  2  0  0  0  0  0  0  0  0  0
    8.6404  -15.9388   16.0247 N   0  0  0  0  0  0  0  0  0  0  0  0
    8.6794  -15.2806   18.3001 C   0  0  0  0  0  0  0  0  0  0  0  0
    9.9215  -15.4737   18.1843 O   0  0  0  0  0  0  0  0  0  0  0  0
   12.0553  -20.4139   17.0305 N   0  0  0  0  0  0  0  0  0  0  0  0
    8.2227  -14.5916   19.4528 C   0  0  0  0  0  0  0  0  0  0  0  0
    6.8108  -14.3617   19.7539 C   0  0  0  0  0  0  0  0  0  0  0  0
    6.7332  -13.6030   21.0350 C   0  0  0  0  0  0  0  0  0  0  0  0
    8.1080  -13.0522   21.2224 C   0  0  2  0  0  0  0  0  0  0  0  0
    9.0172  -14.0351   20.5129 C   0  0  0  0  0  0  0  0  0  0  0  0
    9.3451  -15.0869   21.5454 O   0  0  0  0  0  0  0  0  0  0  0  0
    8.4745  -15.9592   21.7660 N   0  0  0  0  0  0  0  0  0  0  0  0
   10.5539  -15.1381   22.2598 C   0  0  1  0  0  0  0  0  0  0  0  0
   10.9260  -16.1311   23.2111 C   0  0  0  0  0  0  0  0  0  0  0  0
   12.3666  -16.1416   23.6066 S   0  0  0  0  0  0  0  0  0  0  0  0
   12.5965  -17.5836   24.7198 C   0  0  0  0  0  0  0  0  0  0  0  0
   10.1199  -16.0690   24.4622 O   0  0  0  0  0  0  0  0  0  0  0  0
    9.5239  -15.0037   24.7555 O   0  0  0  0  0  0  0  0  0  0  0  0
  2  1  1  0
  2  3  2  0
  4  5  1  0
  4  2  1  0
  6  5  1  0
  6  7  1  0
  7  8  1  0
  8 10  1  0
  8  9  1  6
 10 12  1  0
 11 10  2  0
 12 13  1  0
 12 16  1  0
 13 14  1  0
 14 15  1  0
 16 15  1  0
 17 19  1  0
 16 17  1  1
 18 17  2  0
 20 21  1  1
 20 23  1  0
 20 19  1  0
 22 21  1  0
 23 25  1  0
 24 23  2  0
M  END
$$$$
