RPC.pdb
     RDKit          3D

 25 25  0  0  1  0  0  0  0  0999 V2000
   10.1191  -17.8039   20.8291 N   0  0  0  0  0  0  0  0  0  0  0  0
    9.8264  -18.0538   22.2176 C   0  0  0  0  0  0  0  0  0  0  0  0
   10.7524  -18.5516   22.9504 N   0  0  0  0  0  0  0  0  0  0  0  0
    8.5607  -17.7625   22.7651 N   0  0  0  0  0  0  0  0  0  0  0  0
    7.4290  -17.5378   21.8684 C   0  0  0  0  0  0  0  0  0  0  0  0
    7.5274  -16.1188   21.4002 C   0  0  0  0  0  0  0  0  0  0  0  0
    6.6020  -15.1451   22.0304 C   0  0  0  0  0  0  0  0  0  0  0  0
    7.1530  -13.7569   22.2312 C   0  0  2  0  0  0  0  0  0  0  0  0
    7.9914  -13.5066   21.0337 N   0  0  0  0  0  0  0  0  0  0  0  0
    8.0999  -13.7818   23.3842 C   0  0  0  0  0  0  0  0  0  0  0  0
    9.3093  -14.0678   23.1620 O   0  0  0  0  0  0  0  0  0  0  0  0
   10.6843  -18.7792   23.9509 N   0  0  0  0  0  0  0  0  0  0  0  0
    7.7229  -13.4999   24.7222 C   0  0  0  0  0  0  0  0  0  0  0  0
    6.3365  -13.3403   25.1576 C   0  0  0  0  0  0  0  0  0  0  0  0
    6.3463  -13.0466   26.6192 C   0  0  0  0  0  0  0  0  0  0  0  0
    7.7516  -12.6305   26.9035 C   0  0  2  0  0  0  0  0  0  0  0  0
    8.5848  -13.3499   25.8621 C   0  0  0  0  0  0  0  0  0  0  0  0
    8.9056  -14.6936   26.4715 O   0  0  0  0  0  0  0  0  0  0  0  0
    7.9526  -15.4903   26.6275 N   0  0  0  0  0  0  0  0  0  0  0  0
   10.1943  -15.0907   26.8667 C   0  0  1  0  0  0  0  0  0  0  0  0
   10.5680  -16.3826   27.3365 C   0  0  0  0  0  0  0  0  0  0  0  0
   11.9569  -16.8175   26.9996 S   0  0  0  0  0  0  0  0  0  0  0  0
   12.2583  -16.3153   25.2593 C   0  0  0  0  0  0  0  0  0  0  0  0
   10.3957  -16.5387   28.8078 O   0  0  0  0  0  0  0  0  0  0  0  0
   10.0825  -15.5380   29.4982 O   0  0  0  0  0  0  0  0  0  0  0  0
  2  1  1  0
  2  3  2  0
  4  5  1  0
  4  2  1  0
  6  5  1  0
  6  7  1  0
  7  8  1  0
  8 10  1  0
  8  9  1  6
 10 12  1  0
 11 10  2  0
 12 13  1  0
 12 16  1  0
 13 14  1  0
 14 15  1  0
 16 15  1  0
 17 19  1  0
 16 17  1  1
 18 17  2  0
 20 21  1  1
 20 23  1  0
 20 19  1  0
 22 21  1  0
 23 25  1  0
 24 23  2  0
M  END
$$$$
