VKQ.pdb
     RDKit          3D

 26 25  0  0  1  0  0  0  0  0999 V2000
    8.4027  -12.9192   17.1308 C   0  0  0  0  0  0  0  0  0  0  0  0
    8.8304  -13.9063   18.2124 C   0  0  1  0  0  0  0  0  0  0  0  0
   10.2162  -13.4840   18.6473 C   0  0  0  0  0  0  0  0  0  0  0  0
    7.8467  -13.7633   19.3590 C   0  0  2  0  0  0  0  0  0  0  0  0
    7.7284  -12.3835   19.7854 N   0  0  0  0  0  0  0  0  0  0  0  0
    8.1919  -14.6604   20.4867 C   0  0  0  0  0  0  0  0  0  0  0  0
    8.7653  -14.1702   21.4992 O   0  0  0  0  0  0  0  0  0  0  0  0
    7.9094  -16.0492   20.4861 N   0  0  0  0  0  0  0  0  0  0  0  0
    8.3506  -16.8607   21.5729 C   0  0  1  0  0  0  0  0  0  0  0  0
    7.7313  -18.2395   21.5732 C   0  0  0  0  0  0  0  0  0  0  0  0
    7.9521  -18.9889   20.3026 C   0  0  0  0  0  0  0  0  0  0  0  0
    7.2010  -20.3095   20.4188 C   0  0  0  0  0  0  0  0  0  0  0  0
    7.4296  -21.1839   19.2071 C   0  0  0  0  0  0  0  0  0  0  0  0
    6.7036  -22.4203   19.4352 N   0  0  0  0  0  0  0  0  0  0  0  0
    9.8194  -17.0665   21.4777 C   0  0  0  0  0  0  0  0  0  0  0  0
   10.3466  -17.2082   20.3521 O   0  0  0  0  0  0  0  0  0  0  0  0
   13.0757  -14.8958   19.3407 N   0  0  0  0  0  0  0  0  0  0  0  0
   14.0388  -14.8087   20.3635 C   0  0  0  0  0  0  0  0  0  0  0  0
   15.2023  -14.4642   20.0879 O   0  0  0  0  0  0  0  0  0  0  0  0
   13.6887  -15.1242   21.7856 C   0  0  0  0  0  0  0  0  0  0  0  0
   12.2491  -15.5052   21.9153 C   0  0  0  0  0  0  0  0  0  0  0  0
   12.0842  -16.8806   22.5007 C   0  0  2  0  0  0  0  0  0  0  0  0
   10.6316  -17.1062   22.6183 N   0  0  0  0  0  0  0  0  0  0  0  0
   12.7140  -16.9933   23.8197 C   0  0  0  0  0  0  0  0  0  0  0  0
   12.0103  -17.0291   25.0072 O   0  0  0  0  0  0  0  0  0  0  0  0
   13.9792  -17.0629   23.9303 O   0  0  0  0  0  0  0  0  0  0  0  0
  2  4  1  0
  2  1  1  6
  3  2  1  0
  4  6  1  0
  4  5  1  1
  6  7  2  0
  8  9  1  0
  8  6  1  0
 10 11  1  0
  9 10  1  6
 11 12  1  0
 12 13  1  0
 13 14  1  0
 15  9  1  0
 15 16  2  0
 17 18  1  0
 18 20  1  0
 19 18  2  0
 20 21  1  0
 22 21  1  1
 22 23  1  0
 22 24  1  0
 23 15  1  0
 24 26  2  0
 24 25  1  0
M  END
$$$$
