VKQ.pdb
     RDKit          3D

 26 25  0  0  1  0  0  0  0  0999 V2000
    8.5579  -12.0625   19.1792 C   0  0  0  0  0  0  0  0  0  0  0  0
    8.6938  -13.0485   20.3353 C   0  0  1  0  0  0  0  0  0  0  0  0
    7.6108  -12.6891   21.3282 C   0  0  0  0  0  0  0  0  0  0  0  0
    8.4553  -14.4353   19.7673 C   0  0  2  0  0  0  0  0  0  0  0  0
    7.2021  -14.5020   19.0430 N   0  0  0  0  0  0  0  0  0  0  0  0
    8.5393  -15.4756   20.8192 C   0  0  0  0  0  0  0  0  0  0  0  0
    7.4815  -15.8257   21.4129 O   0  0  0  0  0  0  0  0  0  0  0  0
    9.7544  -16.1011   21.1947 N   0  0  0  0  0  0  0  0  0  0  0  0
    9.7525  -17.0877   22.2247 C   0  0  1  0  0  0  0  0  0  0  0  0
   10.3426  -18.4074   21.7830 C   0  0  0  0  0  0  0  0  0  0  0  0
    9.5829  -19.0554   20.6750 C   0  0  0  0  0  0  0  0  0  0  0  0
   10.3664  -20.2913   20.2504 C   0  0  0  0  0  0  0  0  0  0  0  0
    9.6376  -21.0656   19.1759 C   0  0  0  0  0  0  0  0  0  0  0  0
   10.4985  -22.1705   18.7938 N   0  0  0  0  0  0  0  0  0  0  0  0
   10.5863  -16.6218   23.3634 C   0  0  0  0  0  0  0  0  0  0  0  0
   11.6865  -16.0728   23.1330 O   0  0  0  0  0  0  0  0  0  0  0  0
    8.7655  -13.8715   28.4271 N   0  0  0  0  0  0  0  0  0  0  0  0
   10.0781  -14.2150   28.8013 C   0  0  0  0  0  0  0  0  0  0  0  0
   10.5245  -13.8405   29.9007 O   0  0  0  0  0  0  0  0  0  0  0  0
   10.9536  -15.0273   27.8968 C   0  0  0  0  0  0  0  0  0  0  0  0
   10.2115  -15.4609   26.6738 C   0  0  0  0  0  0  0  0  0  0  0  0
   11.0479  -16.3519   25.7975 C   0  0  2  0  0  0  0  0  0  0  0  0
   10.1716  -16.7815   24.6918 N   0  0  0  0  0  0  0  0  0  0  0  0
   11.5441  -17.5246   26.5238 C   0  0  0  0  0  0  0  0  0  0  0  0
   12.7437  -17.5551   27.2069 O   0  0  0  0  0  0  0  0  0  0  0  0
   10.8686  -18.6019   26.5547 O   0  0  0  0  0  0  0  0  0  0  0  0
  2  4  1  0
  2  1  1  6
  3  2  1  0
  4  6  1  0
  4  5  1  1
  6  7  2  0
  8  9  1  0
  8  6  1  0
 10 11  1  0
  9 10  1  6
 11 12  1  0
 12 13  1  0
 13 14  1  0
 15  9  1  0
 15 16  2  0
 17 18  1  0
 18 20  1  0
 19 18  2  0
 20 21  1  0
 22 21  1  1
 22 23  1  0
 22 24  1  0
 23 15  1  0
 24 26  2  0
 24 25  1  0
M  END
$$$$
