VKQ.pdb
     RDKit          3D

 26 25  0  0  1  0  0  0  0  0999 V2000
    8.8558  -13.3236   20.9909 C   0  0  0  0  0  0  0  0  0  0  0  0
    7.6496  -13.6189   20.1049 C   0  0  1  0  0  0  0  0  0  0  0  0
    7.9683  -13.0343   18.7467 C   0  0  0  0  0  0  0  0  0  0  0  0
    7.5214  -15.1285   20.0171 C   0  0  2  0  0  0  0  0  0  0  0  0
    6.5450  -15.5194   19.0204 N   0  0  0  0  0  0  0  0  0  0  0  0
    7.2275  -15.7271   21.3403 C   0  0  0  0  0  0  0  0  0  0  0  0
    6.1196  -15.4723   21.8895 O   0  0  0  0  0  0  0  0  0  0  0  0
    8.1327  -16.5762   22.0247 N   0  0  0  0  0  0  0  0  0  0  0  0
    7.7635  -17.1342   23.2843 C   0  0  1  0  0  0  0  0  0  0  0  0
    7.6514  -18.6413   23.2555 C   0  0  0  0  0  0  0  0  0  0  0  0
    7.2637  -19.2322   24.5690 C   0  0  0  0  0  0  0  0  0  0  0  0
    7.2193  -20.7447   24.3902 C   0  0  0  0  0  0  0  0  0  0  0  0
    6.8059  -21.4403   25.6671 C   0  0  0  0  0  0  0  0  0  0  0  0
    6.8193  -22.8664   25.3947 N   0  0  0  0  0  0  0  0  0  0  0  0
    8.8051  -16.8158   24.2955 C   0  0  0  0  0  0  0  0  0  0  0  0
    9.9990  -17.1032   24.0569 O   0  0  0  0  0  0  0  0  0  0  0  0
    8.6538  -12.2901   28.7891 N   0  0  0  0  0  0  0  0  0  0  0  0
    8.1660  -12.4561   27.4793 C   0  0  0  0  0  0  0  0  0  0  0  0
    7.2756  -11.6995   27.0517 O   0  0  0  0  0  0  0  0  0  0  0  0
    8.7009  -13.5321   26.5845 C   0  0  0  0  0  0  0  0  0  0  0  0
    8.9932  -14.7792   27.3550 C   0  0  0  0  0  0  0  0  0  0  0  0
    9.5500  -15.8640   26.4749 C   0  0  2  0  0  0  0  0  0  0  0  0
    8.4845  -16.2004   25.5124 N   0  0  0  0  0  0  0  0  0  0  0  0
    9.9212  -17.0560   27.2434 C   0  0  0  0  0  0  0  0  0  0  0  0
   11.1646  -17.2476   27.8124 O   0  0  0  0  0  0  0  0  0  0  0  0
    9.0855  -17.9980   27.4228 O   0  0  0  0  0  0  0  0  0  0  0  0
  2  4  1  0
  2  1  1  1
  3  2  1  0
  4  6  1  0
  4  5  1  6
  6  7  2  0
  8  9  1  0
  8  6  1  0
 10 11  1  0
  9 10  1  6
 11 12  1  0
 12 13  1  0
 13 14  1  0
 15  9  1  0
 15 16  2  0
 17 18  1  0
 18 20  1  0
 19 18  2  0
 20 21  1  0
 22 21  1  1
 22 23  1  0
 22 24  1  0
 23 15  1  0
 24 26  2  0
 24 25  1  0
M  END
$$$$
