VKQ.pdb
     RDKit          3D

 26 25  0  0  1  0  0  0  0  0999 V2000
    7.3738  -13.1659   17.7816 C   0  0  0  0  0  0  0  0  0  0  0  0
    8.3112  -13.0313   18.9776 C   0  0  1  0  0  0  0  0  0  0  0  0
    7.4261  -12.9167   20.1988 C   0  0  0  0  0  0  0  0  0  0  0  0
    9.1393  -14.3015   19.0386 C   0  0  2  0  0  0  0  0  0  0  0  0
    8.3087  -15.4814   18.9062 N   0  0  0  0  0  0  0  0  0  0  0  0
    9.9723  -14.3492   20.2632 C   0  0  0  0  0  0  0  0  0  0  0  0
   10.9366  -13.5417   20.3736 O   0  0  0  0  0  0  0  0  0  0  0  0
    9.7399  -15.2610   21.3231 N   0  0  0  0  0  0  0  0  0  0  0  0
   10.6643  -15.3356   22.4066 C   0  0  1  0  0  0  0  0  0  0  0  0
   10.2057  -16.2551   23.5153 C   0  0  0  0  0  0  0  0  0  0  0  0
   11.2463  -16.4927   24.5571 C   0  0  0  0  0  0  0  0  0  0  0  0
   10.6857  -17.5212   25.5315 C   0  0  0  0  0  0  0  0  0  0  0  0
   11.6314  -17.7617   26.6861 C   0  0  0  0  0  0  0  0  0  0  0  0
   12.1349  -19.1161   26.5448 N   0  0  0  0  0  0  0  0  0  0  0  0
   11.9577  -15.8844   21.9221 C   0  0  0  0  0  0  0  0  0  0  0  0
   11.9814  -17.0138   21.3845 O   0  0  0  0  0  0  0  0  0  0  0  0
   15.1893  -13.2885   17.9547 N   0  0  0  0  0  0  0  0  0  0  0  0
   16.1957  -14.1606   18.4105 C   0  0  0  0  0  0  0  0  0  0  0  0
   17.2799  -14.2231   17.8033 O   0  0  0  0  0  0  0  0  0  0  0  0
   15.9860  -15.0202   19.6196 C   0  0  0  0  0  0  0  0  0  0  0  0
   14.6833  -14.7094   20.2835 C   0  0  0  0  0  0  0  0  0  0  0  0
   14.3861  -15.6626   21.4080 C   0  0  2  0  0  0  0  0  0  0  0  0
   13.1548  -15.1684   22.0518 N   0  0  0  0  0  0  0  0  0  0  0  0
   15.4755  -15.7102   22.3878 C   0  0  0  0  0  0  0  0  0  0  0  0
   16.6556  -16.3999   22.1927 O   0  0  0  0  0  0  0  0  0  0  0  0
   15.3755  -15.0990   23.4988 O   0  0  0  0  0  0  0  0  0  0  0  0
  2  4  1  0
  2  1  1  6
  3  2  1  0
  4  6  1  0
  4  5  1  1
  6  7  2  0
  8  9  1  0
  8  6  1  0
 10 11  1  0
  9 10  1  1
 11 12  1  0
 12 13  1  0
 13 14  1  0
 15  9  1  0
 15 16  2  0
 17 18  1  0
 18 20  1  0
 19 18  2  0
 20 21  1  0
 22 21  1  6
 22 23  1  0
 22 24  1  0
 23 15  1  0
 24 26  2  0
 24 25  1  0
M  END
$$$$
