VKQ.pdb
     RDKit          3D

 26 25  0  0  1  0  0  0  0  0999 V2000
    8.5306  -22.6498   18.2453 C   0  0  0  0  0  0  0  0  0  0  0  0
    9.0864  -21.3437   18.8042 C   0  0  1  0  0  0  0  0  0  0  0  0
   10.5449  -21.2990   18.4056 C   0  0  0  0  0  0  0  0  0  0  0  0
    8.3194  -20.2144   18.1414 C   0  0  2  0  0  0  0  0  0  0  0  0
    8.4444  -20.2653   16.6987 N   0  0  0  0  0  0  0  0  0  0  0  0
    8.7198  -18.8943   18.6825 C   0  0  0  0  0  0  0  0  0  0  0  0
    9.6650  -18.2705   18.1243 O   0  0  0  0  0  0  0  0  0  0  0  0
    8.0916  -18.2930   19.8017 N   0  0  0  0  0  0  0  0  0  0  0  0
    8.5014  -16.9956   20.2296 C   0  0  1  0  0  0  0  0  0  0  0  0
    7.3925  -16.2128   20.8947 C   0  0  0  0  0  0  0  0  0  0  0  0
    7.7876  -14.8230   21.2652 C   0  0  0  0  0  0  0  0  0  0  0  0
    7.9343  -14.0330   19.9707 C   0  0  0  0  0  0  0  0  0  0  0  0
    8.2686  -12.5840   20.2422 C   0  0  0  0  0  0  0  0  0  0  0  0
    8.4793  -11.9503   18.9531 N   0  0  0  0  0  0  0  0  0  0  0  0
    9.5829  -17.1223   21.2411 C   0  0  0  0  0  0  0  0  0  0  0  0
    9.4013  -17.8462   22.2450 O   0  0  0  0  0  0  0  0  0  0  0  0
   16.2519  -14.3971   22.5711 N   0  0  0  0  0  0  0  0  0  0  0  0
   15.3994  -15.3517   21.9853 C   0  0  0  0  0  0  0  0  0  0  0  0
   15.6981  -15.8549   20.8873 O   0  0  0  0  0  0  0  0  0  0  0  0
   14.1319  -15.7764   22.6619 C   0  0  0  0  0  0  0  0  0  0  0  0
   12.9642  -15.6732   21.7344 C   0  0  0  0  0  0  0  0  0  0  0  0
   11.8766  -16.6481   22.0923 C   0  0  2  0  0  0  0  0  0  0  0  0
   10.8040  -16.4506   21.0997 N   0  0  0  0  0  0  0  0  0  0  0  0
   11.3547  -16.4147   23.4423 C   0  0  0  0  0  0  0  0  0  0  0  0
   11.6415  -17.2192   24.5272 O   0  0  0  0  0  0  0  0  0  0  0  0
   10.5870  -15.4287   23.6792 O   0  0  0  0  0  0  0  0  0  0  0  0
  2  4  1  0
  2  1  1  6
  3  2  1  0
  4  6  1  0
  4  5  1  6
  6  7  2  0
  8  9  1  0
  8  6  1  0
 10 11  1  0
  9 10  1  1
 11 12  1  0
 12 13  1  0
 13 14  1  0
 15  9  1  0
 15 16  2  0
 17 18  1  0
 18 20  1  0
 19 18  2  0
 20 21  1  0
 22 21  1  6
 22 23  1  0
 22 24  1  0
 23 15  1  0
 24 26  2  0
 24 25  1  0
M  END
$$$$
