VKQ.pdb
     RDKit          3D

 26 25  0  0  1  0  0  0  0  0999 V2000
    5.7671  -11.6957   27.1240 C   0  0  0  0  0  0  0  0  0  0  0  0
    6.7378  -12.4902   26.2557 C   0  0  1  0  0  0  0  0  0  0  0  0
    7.7549  -13.0923   27.1995 C   0  0  0  0  0  0  0  0  0  0  0  0
    5.9334  -13.5817   25.5742 C   0  0  2  0  0  0  0  0  0  0  0  0
    5.4189  -14.5375   26.5341 N   0  0  0  0  0  0  0  0  0  0  0  0
    6.7138  -14.2435   24.5024 C   0  0  0  0  0  0  0  0  0  0  0  0
    7.2239  -15.3752   24.7329 O   0  0  0  0  0  0  0  0  0  0  0  0
    6.9179  -13.6667   23.2239 N   0  0  0  0  0  0  0  0  0  0  0  0
    7.6248  -14.3974   22.2236 C   0  0  1  0  0  0  0  0  0  0  0  0
    7.7348  -13.6536   20.9123 C   0  0  0  0  0  0  0  0  0  0  0  0
    8.2323  -14.5009   19.7900 C   0  0  0  0  0  0  0  0  0  0  0  0
    8.1024  -13.6819   18.5118 C   0  0  0  0  0  0  0  0  0  0  0  0
    8.3726  -14.5241   17.2859 C   0  0  0  0  0  0  0  0  0  0  0  0
    8.0901  -13.6913   16.1305 N   0  0  0  0  0  0  0  0  0  0  0  0
    9.0183  -14.6445   22.6776 C   0  0  0  0  0  0  0  0  0  0  0  0
    9.5128  -13.9134   23.5641 O   0  0  0  0  0  0  0  0  0  0  0  0
   11.0825  -17.5874   26.5405 N   0  0  0  0  0  0  0  0  0  0  0  0
   10.3749  -18.2476   25.5185 C   0  0  0  0  0  0  0  0  0  0  0  0
    9.7808  -19.3121   25.7675 O   0  0  0  0  0  0  0  0  0  0  0  0
   10.3225  -17.6905   24.1287 C   0  0  0  0  0  0  0  0  0  0  0  0
   11.0364  -16.3799   24.0452 C   0  0  0  0  0  0  0  0  0  0  0  0
   11.1685  -15.9033   22.6250 C   0  0  2  0  0  0  0  0  0  0  0  0
    9.7951  -15.6775   22.1374 N   0  0  0  0  0  0  0  0  0  0  0  0
   11.8420  -16.8910   21.7765 C   0  0  0  0  0  0  0  0  0  0  0  0
   11.2155  -17.5887   20.7630 O   0  0  0  0  0  0  0  0  0  0  0  0
   13.0740  -17.1582   21.9452 O   0  0  0  0  0  0  0  0  0  0  0  0
  2  4  1  0
  2  1  1  1
  3  2  1  0
  4  6  1  0
  4  5  1  1
  6  7  2  0
  8  9  1  0
  8  6  1  0
 10 11  1  0
  9 10  1  6
 11 12  1  0
 12 13  1  0
 13 14  1  0
 15  9  1  0
 15 16  2  0
 17 18  1  0
 18 20  1  0
 19 18  2  0
 20 21  1  0
 22 21  1  1
 22 23  1  0
 22 24  1  0
 23 15  1  0
 24 26  2  0
 24 25  1  0
M  END
$$$$
