VKQ.pdb
     RDKit          3D

 26 25  0  0  1  0  0  0  0  0999 V2000
    8.9467  -12.7976   20.8499 C   0  0  0  0  0  0  0  0  0  0  0  0
    7.7994  -13.3305   19.9973 C   0  0  1  0  0  0  0  0  0  0  0  0
    7.5681  -12.3052   18.9096 C   0  0  0  0  0  0  0  0  0  0  0  0
    8.2639  -14.6452   19.3985 C   0  0  2  0  0  0  0  0  0  0  0  0
    7.3327  -15.1299   18.3997 N   0  0  0  0  0  0  0  0  0  0  0  0
    8.5230  -15.6591   20.4476 C   0  0  0  0  0  0  0  0  0  0  0  0
    7.5417  -16.1572   21.0665 O   0  0  0  0  0  0  0  0  0  0  0  0
    9.8247  -16.1005   20.7935 N   0  0  0  0  0  0  0  0  0  0  0  0
    9.9905  -17.0754   21.8213 C   0  0  1  0  0  0  0  0  0  0  0  0
   10.9393  -18.1873   21.4366 C   0  0  0  0  0  0  0  0  0  0  0  0
   10.3407  -19.1789   20.4967 C   0  0  0  0  0  0  0  0  0  0  0  0
   11.4391  -20.1644   20.1174 C   0  0  0  0  0  0  0  0  0  0  0  0
   10.9350  -21.2068   19.1456 C   0  0  0  0  0  0  0  0  0  0  0  0
   12.0525  -22.0860   18.8518 N   0  0  0  0  0  0  0  0  0  0  0  0
   10.5728  -16.4334   23.0286 C   0  0  0  0  0  0  0  0  0  0  0  0
   11.5432  -15.6543   22.9008 O   0  0  0  0  0  0  0  0  0  0  0  0
    8.0047  -13.0622   27.0002 N   0  0  0  0  0  0  0  0  0  0  0  0
    9.1230  -13.4211   27.7759 C   0  0  0  0  0  0  0  0  0  0  0  0
    9.2691  -12.9328   28.9110 O   0  0  0  0  0  0  0  0  0  0  0  0
   10.1469  -14.3849   27.2588 C   0  0  0  0  0  0  0  0  0  0  0  0
    9.6783  -15.0486   26.0041 C   0  0  0  0  0  0  0  0  0  0  0  0
   10.6819  -16.0422   25.4874 C   0  0  2  0  0  0  0  0  0  0  0  0
   10.0624  -16.6784   24.3100 N   0  0  0  0  0  0  0  0  0  0  0  0
   11.0093  -17.0611   26.4893 C   0  0  0  0  0  0  0  0  0  0  0  0
   12.0732  -16.9652   27.3642 O   0  0  0  0  0  0  0  0  0  0  0  0
   10.3045  -18.1144   26.5971 O   0  0  0  0  0  0  0  0  0  0  0  0
  2  4  1  0
  2  1  1  1
  3  2  1  0
  4  6  1  0
  4  5  1  6
  6  7  2  0
  8  9  1  0
  8  6  1  0
 10 11  1  0
  9 10  1  6
 11 12  1  0
 12 13  1  0
 13 14  1  0
 15  9  1  0
 15 16  2  0
 17 18  1  0
 18 20  1  0
 19 18  2  0
 20 21  1  0
 22 21  1  1
 22 23  1  0
 22 24  1  0
 23 15  1  0
 24 26  2  0
 24 25  1  0
M  END
$$$$
