VKQ.pdb
     RDKit          3D

 26 25  0  0  1  0  0  0  0  0999 V2000
    8.8103  -12.2365   18.4571 C   0  0  0  0  0  0  0  0  0  0  0  0
    8.7875  -13.0136   19.7696 C   0  0  1  0  0  0  0  0  0  0  0  0
    7.7216  -12.3670   20.6262 C   0  0  0  0  0  0  0  0  0  0  0  0
    8.4046  -14.4430   19.4334 C   0  0  2  0  0  0  0  0  0  0  0  0
    7.2527  -14.4896   18.5556 N   0  0  0  0  0  0  0  0  0  0  0  0
    8.1973  -15.2525   20.6571 C   0  0  0  0  0  0  0  0  0  0  0  0
    7.0685  -15.2218   21.2217 O   0  0  0  0  0  0  0  0  0  0  0  0
    9.2084  -16.0644   21.2292 N   0  0  0  0  0  0  0  0  0  0  0  0
    8.9552  -16.7508   22.4535 C   0  0  1  0  0  0  0  0  0  0  0  0
    8.7914  -18.2427   22.2742 C   0  0  0  0  0  0  0  0  0  0  0  0
    9.7723  -18.8365   21.3201 C   0  0  0  0  0  0  0  0  0  0  0  0
    9.3959  -20.3014   21.1361 C   0  0  0  0  0  0  0  0  0  0  0  0
   10.3413  -20.9998   20.1855 C   0  0  0  0  0  0  0  0  0  0  0  0
    9.9338  -22.3923   20.1314 N   0  0  0  0  0  0  0  0  0  0  0  0
   10.1069  -16.5686   23.3750 C   0  0  0  0  0  0  0  0  0  0  0  0
   11.2696  -16.5854   22.9137 O   0  0  0  0  0  0  0  0  0  0  0  0
    9.8799  -13.4403   28.6681 N   0  0  0  0  0  0  0  0  0  0  0  0
   10.1812  -14.7620   29.0466 C   0  0  0  0  0  0  0  0  0  0  0  0
   10.1291  -15.0876   30.2464 O   0  0  0  0  0  0  0  0  0  0  0  0
   10.5658  -15.7907   28.0275 C   0  0  0  0  0  0  0  0  0  0  0  0
   10.6850  -15.1840   26.6666 C   0  0  0  0  0  0  0  0  0  0  0  0
   11.0917  -16.1991   25.6343 C   0  0  2  0  0  0  0  0  0  0  0  0
    9.9245  -16.3779   24.7508 N   0  0  0  0  0  0  0  0  0  0  0  0
   11.4571  -17.4820   26.2423 C   0  0  0  0  0  0  0  0  0  0  0  0
   12.6896  -17.7415   26.8081 O   0  0  0  0  0  0  0  0  0  0  0  0
   10.6265  -18.4448   26.2732 O   0  0  0  0  0  0  0  0  0  0  0  0
  2  4  1  0
  2  1  1  6
  3  2  1  0
  4  6  1  0
  4  5  1  1
  6  7  2  0
  8  9  1  0
  8  6  1  0
 10 11  1  0
  9 10  1  6
 11 12  1  0
 12 13  1  0
 13 14  1  0
 15  9  1  0
 15 16  2  0
 17 18  1  0
 18 20  1  0
 19 18  2  0
 20 21  1  0
 22 21  1  1
 22 23  1  0
 22 24  1  0
 23 15  1  0
 24 26  2  0
 24 25  1  0
M  END
$$$$
