VKQ.pdb
     RDKit          3D

 26 25  0  0  1  0  0  0  0  0999 V2000
    6.9414  -14.2444   17.9502 C   0  0  0  0  0  0  0  0  0  0  0  0
    7.4304  -14.6839   19.3268 C   0  0  1  0  0  0  0  0  0  0  0  0
    8.6462  -15.5513   19.0875 C   0  0  0  0  0  0  0  0  0  0  0  0
    7.8152  -13.4264   20.0842 C   0  0  2  0  0  0  0  0  0  0  0  0
    8.7746  -12.6343   19.3414 N   0  0  0  0  0  0  0  0  0  0  0  0
    8.2995  -13.7405   21.4489 C   0  0  0  0  0  0  0  0  0  0  0  0
    9.5405  -13.8770   21.6365 O   0  0  0  0  0  0  0  0  0  0  0  0
    7.4347  -13.8963   22.5609 N   0  0  0  0  0  0  0  0  0  0  0  0
    7.9847  -14.1055   23.8602 C   0  0  1  0  0  0  0  0  0  0  0  0
    6.9885  -13.8660   24.9715 C   0  0  0  0  0  0  0  0  0  0  0  0
    6.9049  -12.4384   25.3954 C   0  0  0  0  0  0  0  0  0  0  0  0
    5.8341  -12.3482   26.4756 C   0  0  0  0  0  0  0  0  0  0  0  0
    5.7762  -10.9650   27.0824 C   0  0  0  0  0  0  0  0  0  0  0  0
    4.8144  -11.0200   28.1687 N   0  0  0  0  0  0  0  0  0  0  0  0
    8.4232  -15.5191   23.9946 C   0  0  0  0  0  0  0  0  0  0  0  0
    8.0032  -16.3711   23.1806 O   0  0  0  0  0  0  0  0  0  0  0  0
   12.5219  -18.8047   22.3381 N   0  0  0  0  0  0  0  0  0  0  0  0
   12.8178  -17.5572   22.9188 C   0  0  0  0  0  0  0  0  0  0  0  0
   13.9366  -17.0429   22.7401 O   0  0  0  0  0  0  0  0  0  0  0  0
   11.8062  -16.8320   23.7529 C   0  0  0  0  0  0  0  0  0  0  0  0
   10.5096  -17.5746   23.7955 C   0  0  0  0  0  0  0  0  0  0  0  0
    9.7614  -17.3224   25.0754 C   0  0  2  0  0  0  0  0  0  0  0  0
    9.2970  -15.9241   25.0119 N   0  0  0  0  0  0  0  0  0  0  0  0
   10.6129  -17.5111   26.2537 C   0  0  0  0  0  0  0  0  0  0  0  0
   11.0865  -18.7391   26.6714 O   0  0  0  0  0  0  0  0  0  0  0  0
   10.9617  -16.5178   26.9674 O   0  0  0  0  0  0  0  0  0  0  0  0
  2  4  1  0
  2  1  1  6
  3  2  1  0
  4  6  1  0
  4  5  1  6
  6  7  2  0
  8  9  1  0
  8  6  1  0
 10 11  1  0
  9 10  1  1
 11 12  1  0
 12 13  1  0
 13 14  1  0
 15  9  1  0
 15 16  2  0
 17 18  1  0
 18 20  1  0
 19 18  2  0
 20 21  1  0
 22 21  1  6
 22 23  1  0
 22 24  1  0
 23 15  1  0
 24 26  2  0
 24 25  1  0
M  END
$$$$
