VKQ.pdb
     RDKit          3D

 26 25  0  0  1  0  0  0  0  0999 V2000
   13.2883  -15.0254   16.8589 C   0  0  0  0  0  0  0  0  0  0  0  0
   12.8541  -15.5495   18.2242 C   0  0  1  0  0  0  0  0  0  0  0  0
   13.4921  -14.6392   19.2499 C   0  0  0  0  0  0  0  0  0  0  0  0
   11.3418  -15.4387   18.2826 C   0  0  2  0  0  0  0  0  0  0  0  0
   10.8998  -14.0850   18.0148 N   0  0  0  0  0  0  0  0  0  0  0  0
   10.8085  -15.9478   19.5680 C   0  0  0  0  0  0  0  0  0  0  0  0
   10.7730  -15.1697   20.5616 O   0  0  0  0  0  0  0  0  0  0  0  0
   10.3335  -17.2721   19.7393 N   0  0  0  0  0  0  0  0  0  0  0  0
    9.8232  -17.6815   21.0066 C   0  0  1  0  0  0  0  0  0  0  0  0
    8.8280  -18.8149   20.9073 C   0  0  0  0  0  0  0  0  0  0  0  0
    7.5422  -18.4202   20.2626 C   0  0  0  0  0  0  0  0  0  0  0  0
    6.6506  -19.6555   20.2358 C   0  0  0  0  0  0  0  0  0  0  0  0
    5.3812  -19.4040   19.4545 C   0  0  0  0  0  0  0  0  0  0  0  0
    4.6537  -20.6599   19.4148 N   0  0  0  0  0  0  0  0  0  0  0  0
   10.9365  -18.1812   21.8550 C   0  0  0  0  0  0  0  0  0  0  0  0
   11.7214  -19.0389   21.3933 O   0  0  0  0  0  0  0  0  0  0  0  0
   15.3461  -15.1426   23.1785 N   0  0  0  0  0  0  0  0  0  0  0  0
   15.6118  -16.1450   24.1301 C   0  0  0  0  0  0  0  0  0  0  0  0
   16.6875  -16.1329   24.7555 O   0  0  0  0  0  0  0  0  0  0  0  0
   14.6193  -17.2327   24.4067 C   0  0  0  0  0  0  0  0  0  0  0  0
   13.3717  -17.0414   23.6059 C   0  0  0  0  0  0  0  0  0  0  0  0
   12.3435  -18.0957   23.9101 C   0  0  2  0  0  0  0  0  0  0  0  0
   11.1308  -17.7158   23.1619 N   0  0  0  0  0  0  0  0  0  0  0  0
   12.0420  -18.1692   25.3429 C   0  0  0  0  0  0  0  0  0  0  0  0
   12.0180  -17.0720   26.1808 O   0  0  0  0  0  0  0  0  0  0  0  0
   11.7831  -19.2856   25.8946 O   0  0  0  0  0  0  0  0  0  0  0  0
  2  4  1  0
  2  1  1  6
  3  2  1  0
  4  6  1  0
  4  5  1  1
  6  7  2  0
  8  9  1  0
  8  6  1  0
 10 11  1  0
  9 10  1  6
 11 12  1  0
 12 13  1  0
 13 14  1  0
 15  9  1  0
 15 16  2  0
 17 18  1  0
 18 20  1  0
 19 18  2  0
 20 21  1  0
 22 21  1  1
 22 23  1  0
 22 24  1  0
 23 15  1  0
 24 26  2  0
 24 25  1  0
M  END
$$$$
