WKT.pdb
     RDKit          3D

 31 32  0  0  1  0  0  0  0  0999 V2000
    5.8013  -18.1082   24.5899 N   0  0  0  0  0  0  0  0  0  0  0  0
    6.4753  -16.8582   24.3754 C   0  0  1  0  0  0  0  0  0  0  0  0
    7.3743  -16.4854   25.5300 C   0  0  0  0  0  0  0  0  0  0  0  0
    6.9062  -15.1948   26.0973 C   0  0  0  0  0  0  0  0  0  0  0  0
    5.8238  -15.0268   26.9196 C   0  0  0  0  0  0  0  0  0  0  0  0
    5.7154  -13.7223   27.2261 N   0  0  0  0  0  0  0  0  0  0  0  0
    6.6978  -13.0201   26.6286 C   0  0  0  0  0  0  0  0  0  0  0  0
    7.0044  -11.6594   26.6411 C   0  0  0  0  0  0  0  0  0  0  0  0
    8.1001  -11.2755   25.9051 C   0  0  0  0  0  0  0  0  0  0  0  0
    8.8527  -12.1920   25.1940 C   0  0  0  0  0  0  0  0  0  0  0  0
    8.5339  -13.5296   25.1945 C   0  0  0  0  0  0  0  0  0  0  0  0
    7.4426  -13.9396   25.9228 C   0  0  0  0  0  0  0  0  0  0  0  0
    7.2006  -16.9038   23.0897 C   0  0  0  0  0  0  0  0  0  0  0  0
    7.8075  -17.9476   22.6926 O   0  0  0  0  0  0  0  0  0  0  0  0
    7.2350  -15.7714   22.2631 N   0  0  0  0  0  0  0  0  0  0  0  0
    8.0195  -15.7590   21.0344 C   0  0  1  0  0  0  0  0  0  0  0  0
    7.7410  -14.5237   20.2293 C   0  0  0  0  0  0  0  0  0  0  0  0
    8.5172  -14.5210   18.9555 C   0  0  0  0  0  0  0  0  0  0  0  0
    7.8121  -13.8125   17.8307 C   0  0  0  0  0  0  0  0  0  0  0  0
    8.5853  -13.9264   16.5330 C   0  0  0  0  0  0  0  0  0  0  0  0
    7.8693  -13.2313   15.4922 N   0  0  0  0  0  0  0  0  0  0  0  0
    9.4882  -15.8308   21.3849 C   0  0  0  0  0  0  0  0  0  0  0  0
   10.0240  -15.0044   22.1593 O   0  0  0  0  0  0  0  0  0  0  0  0
   11.5744  -18.9346   22.7086 C   0  0  0  0  0  0  0  0  0  0  0  0
   12.0624  -18.4386   21.3637 C   0  0  1  0  0  0  0  0  0  0  0  0
   11.6045  -19.2333   20.3379 O   0  0  0  0  0  0  0  0  0  0  0  0
   11.6962  -16.9937   21.1418 C   0  0  2  0  0  0  0  0  0  0  0  0
   10.2976  -16.8547   20.8314 N   0  0  0  0  0  0  0  0  0  0  0  0
   12.5657  -16.3750   20.1080 C   0  0  0  0  0  0  0  0  0  0  0  0
   13.8242  -15.8757   20.4309 O   0  0  0  0  0  0  0  0  0  0  0  0
   12.1328  -16.3147   18.9310 O   0  0  0  0  0  0  0  0  0  0  0  0
  2  1  1  1
  3  4  1  0
  3  2  1  0
  4  5  2  0
  5  6  1  0
  7  6  1  0
  8  7  2  0
  9  8  1  0
 10 11  1  0
 10  9  2  0
 11 12  2  0
 12  4  1  0
 12  7  1  0
 13  2  1  0
 13 15  1  0
 14 13  2  0
 16 15  1  0
 16 22  1  0
 16 17  1  1
 18 17  1  0
 19 18  1  0
 20 19  1  0
 21 20  1  0
 22 23  2  0
 22 28  1  0
 25 24  1  1
 25 26  1  0
 27 25  1  0
 27 29  1  0
 27 28  1  6
 29 30  1  0
 31 29  2  0
M  END
$$$$
