WKT.pdb
     RDKit          3D

 31 32  0  0  1  0  0  0  0  0999 V2000
    6.9686  -18.3864   24.7539 N   0  0  0  0  0  0  0  0  0  0  0  0
    7.1805  -17.0293   24.3342 C   0  0  1  0  0  0  0  0  0  0  0  0
    7.9503  -16.2263   25.3555 C   0  0  0  0  0  0  0  0  0  0  0  0
    7.0486  -15.1901   25.9209 C   0  0  0  0  0  0  0  0  0  0  0  0
    5.8095  -15.4139   26.4598 C   0  0  0  0  0  0  0  0  0  0  0  0
    5.2986  -14.2384   26.8654 N   0  0  0  0  0  0  0  0  0  0  0  0
    6.1665  -13.2401   26.6097 C   0  0  0  0  0  0  0  0  0  0  0  0
    6.0944  -11.8665   26.8420 C   0  0  0  0  0  0  0  0  0  0  0  0
    7.1824  -11.1245   26.4478 C   0  0  0  0  0  0  0  0  0  0  0  0
    8.2842  -11.7129   25.8546 C   0  0  0  0  0  0  0  0  0  0  0  0
    8.3360  -13.0692   25.6342 C   0  0  0  0  0  0  0  0  0  0  0  0
    7.2606  -13.8339   26.0193 C   0  0  0  0  0  0  0  0  0  0  0  0
    7.8278  -17.0194   23.0068 C   0  0  0  0  0  0  0  0  0  0  0  0
    8.4650  -18.0235   22.5580 O   0  0  0  0  0  0  0  0  0  0  0  0
    7.7506  -15.8769   22.1972 N   0  0  0  0  0  0  0  0  0  0  0  0
    8.2478  -15.8896   20.8268 C   0  0  1  0  0  0  0  0  0  0  0  0
    7.8076  -14.6634   20.0821 C   0  0  0  0  0  0  0  0  0  0  0  0
    8.3149  -14.6705   18.6794 C   0  0  0  0  0  0  0  0  0  0  0  0
    7.8995  -13.4582   17.8905 C   0  0  0  0  0  0  0  0  0  0  0  0
    8.3183  -13.5714   16.4391 C   0  0  0  0  0  0  0  0  0  0  0  0
    7.8247  -12.4278   15.7129 N   0  0  0  0  0  0  0  0  0  0  0  0
    9.7572  -15.9701   20.8493 C   0  0  0  0  0  0  0  0  0  0  0  0
   10.4362  -15.9418   19.7968 O   0  0  0  0  0  0  0  0  0  0  0  0
   11.5792  -17.1813   24.4854 C   0  0  0  0  0  0  0  0  0  0  0  0
   12.3351  -16.2099   23.6033 C   0  0  1  0  0  0  0  0  0  0  0  0
   13.6946  -16.4039   23.6911 O   0  0  0  0  0  0  0  0  0  0  0  0
   11.8635  -16.2801   22.1737 C   0  0  2  0  0  0  0  0  0  0  0  0
   10.4406  -16.0809   22.0864 N   0  0  0  0  0  0  0  0  0  0  0  0
   12.2941  -17.5485   21.5309 C   0  0  0  0  0  0  0  0  0  0  0  0
   13.5185  -17.6439   20.8758 O   0  0  0  0  0  0  0  0  0  0  0  0
   11.5207  -18.5354   21.5949 O   0  0  0  0  0  0  0  0  0  0  0  0
  2  1  1  1
  3  4  1  0
  3  2  1  0
  4  5  2  0
  5  6  1  0
  7  6  1  0
  8  7  2  0
  9  8  1  0
 10 11  1  0
 10  9  2  0
 11 12  2  0
 12  4  1  0
 12  7  1  0
 13  2  1  0
 13 15  1  0
 14 13  2  0
 16 15  1  0
 16 22  1  0
 16 17  1  1
 18 17  1  0
 19 18  1  0
 20 19  1  0
 21 20  1  0
 22 23  2  0
 22 28  1  0
 25 24  1  1
 25 26  1  0
 27 25  1  0
 27 29  1  0
 27 28  1  1
 29 30  1  0
 31 29  2  0
M  END
$$$$
