WKT.pdb
     RDKit          3D

 31 32  0  0  1  0  0  0  0  0999 V2000
    6.5884  -18.0439   24.1989 N   0  0  0  0  0  0  0  0  0  0  0  0
    6.9679  -16.7317   23.7553 C   0  0  1  0  0  0  0  0  0  0  0  0
    8.0232  -16.1101   24.6388 C   0  0  0  0  0  0  0  0  0  0  0  0
    7.3527  -15.2307   25.6305 C   0  0  0  0  0  0  0  0  0  0  0  0
    6.5170  -15.6454   26.6333 C   0  0  0  0  0  0  0  0  0  0  0  0
    6.1066  -14.5676   27.3241 N   0  0  0  0  0  0  0  0  0  0  0  0
    6.6482  -13.4481   26.8058 C   0  0  0  0  0  0  0  0  0  0  0  0
    6.5276  -12.1063   27.1677 C   0  0  0  0  0  0  0  0  0  0  0  0
    7.2331  -11.2048   26.4066 C   0  0  0  0  0  0  0  0  0  0  0  0
    8.0169  -11.6116   25.3426 C   0  0  0  0  0  0  0  0  0  0  0  0
    8.1227  -12.9396   25.0017 C   0  0  0  0  0  0  0  0  0  0  0  0
    7.4271  -13.8614   25.7472 C   0  0  0  0  0  0  0  0  0  0  0  0
    7.3835  -16.7913   22.3394 C   0  0  0  0  0  0  0  0  0  0  0  0
    7.5210  -17.8932   21.7210 O   0  0  0  0  0  0  0  0  0  0  0  0
    7.6404  -15.6071   21.6332 N   0  0  0  0  0  0  0  0  0  0  0  0
    7.9674  -15.6328   20.2128 C   0  0  1  0  0  0  0  0  0  0  0  0
    7.7379  -14.2905   19.5823 C   0  0  0  0  0  0  0  0  0  0  0  0
    8.1060  -14.3011   18.1368 C   0  0  0  0  0  0  0  0  0  0  0  0
    7.8321  -12.9938   17.4436 C   0  0  0  0  0  0  0  0  0  0  0  0
    7.5728  -13.1946   15.9647 C   0  0  0  0  0  0  0  0  0  0  0  0
    8.6365  -13.9879   15.4005 N   0  0  0  0  0  0  0  0  0  0  0  0
    9.4120  -16.0453   20.0455 C   0  0  0  0  0  0  0  0  0  0  0  0
    9.9350  -16.1769   18.9146 O   0  0  0  0  0  0  0  0  0  0  0  0
   12.4945  -14.3633   21.3703 C   0  0  0  0  0  0  0  0  0  0  0  0
   12.4669  -15.7700   21.9302 C   0  0  1  0  0  0  0  0  0  0  0  0
   12.0802  -15.7783   23.2508 O   0  0  0  0  0  0  0  0  0  0  0  0
   11.5972  -16.6782   21.0996 C   0  0  2  0  0  0  0  0  0  0  0  0
   10.2127  -16.2945   21.1885 N   0  0  0  0  0  0  0  0  0  0  0  0
   11.8105  -18.1025   21.4646 C   0  0  0  0  0  0  0  0  0  0  0  0
   13.0446  -18.7174   21.2738 O   0  0  0  0  0  0  0  0  0  0  0  0
   10.8438  -18.7386   21.9516 O   0  0  0  0  0  0  0  0  0  0  0  0
  2  1  1  1
  3  4  1  0
  3  2  1  0
  4  5  2  0
  5  6  1  0
  7  6  1  0
  8  7  2  0
  9  8  1  0
 10 11  1  0
 10  9  2  0
 11 12  2  0
 12  4  1  0
 12  7  1  0
 13  2  1  0
 13 15  1  0
 14 13  2  0
 16 15  1  0
 16 22  1  0
 16 17  1  1
 18 17  1  0
 19 18  1  0
 20 19  1  0
 21 20  1  0
 22 23  2  0
 22 28  1  0
 25 24  1  6
 25 26  1  0
 27 25  1  0
 27 29  1  0
 27 28  1  1
 29 30  1  0
 31 29  2  0
M  END
$$$$
