WKT.pdb
     RDKit          3D

 31 32  0  0  1  0  0  0  0  0999 V2000
    6.4309  -18.1701   24.5554 N   0  0  0  0  0  0  0  0  0  0  0  0
    6.8209  -16.8105   24.3057 C   0  0  1  0  0  0  0  0  0  0  0  0
    7.7570  -16.2783   25.3644 C   0  0  0  0  0  0  0  0  0  0  0  0
    7.0831  -15.1608   26.0741 C   0  0  0  0  0  0  0  0  0  0  0  0
    5.8955  -15.2423   26.7515 C   0  0  0  0  0  0  0  0  0  0  0  0
    5.6071  -14.0318   27.2603 N   0  0  0  0  0  0  0  0  0  0  0  0
    6.5725  -13.1489   26.9381 C   0  0  0  0  0  0  0  0  0  0  0  0
    6.7236  -11.7930   27.2287 C   0  0  0  0  0  0  0  0  0  0  0  0
    7.8530  -11.1862   26.7328 C   0  0  0  0  0  0  0  0  0  0  0  0
    8.7839  -11.8864   25.9878 C   0  0  0  0  0  0  0  0  0  0  0  0
    8.6168  -13.2232   25.7121 C   0  0  0  0  0  0  0  0  0  0  0  0
    7.4955  -13.8536   26.1967 C   0  0  0  0  0  0  0  0  0  0  0  0
    7.3890  -16.7026   22.9467 C   0  0  0  0  0  0  0  0  0  0  0  0
    8.0324  -17.6558   22.4054 O   0  0  0  0  0  0  0  0  0  0  0  0
    7.2264  -15.5203   22.2102 N   0  0  0  0  0  0  0  0  0  0  0  0
    7.8744  -15.3434   20.9164 C   0  0  1  0  0  0  0  0  0  0  0  0
    7.7451  -13.9271   20.4378 C   0  0  0  0  0  0  0  0  0  0  0  0
    8.4266  -13.7348   19.1249 C   0  0  0  0  0  0  0  0  0  0  0  0
    7.7344  -14.4354   17.9871 C   0  0  0  0  0  0  0  0  0  0  0  0
    8.5412  -14.3456   16.7081 C   0  0  0  0  0  0  0  0  0  0  0  0
    7.9561  -13.3473   15.8478 N   0  0  0  0  0  0  0  0  0  0  0  0
    9.3334  -15.7195   21.0388 C   0  0  0  0  0  0  0  0  0  0  0  0
   10.0662  -15.2411   21.9354 O   0  0  0  0  0  0  0  0  0  0  0  0
   12.8551  -18.9330   19.6096 C   0  0  0  0  0  0  0  0  0  0  0  0
   11.4534  -18.3843   19.4440 C   0  0  1  0  0  0  0  0  0  0  0  0
   10.5031  -19.3319   19.7481 O   0  0  0  0  0  0  0  0  0  0  0  0
   11.2526  -17.1287   20.2529 C   0  0  2  0  0  0  0  0  0  0  0  0
    9.9059  -16.6374   20.1226 N   0  0  0  0  0  0  0  0  0  0  0  0
   12.2634  -16.0986   19.8999 C   0  0  0  0  0  0  0  0  0  0  0  0
   13.3804  -15.8819   20.7016 O   0  0  0  0  0  0  0  0  0  0  0  0
   12.0820  -15.4266   18.8550 O   0  0  0  0  0  0  0  0  0  0  0  0
  2  1  1  1
  3  4  1  0
  3  2  1  0
  4  5  2  0
  5  6  1  0
  7  6  1  0
  8  7  2  0
  9  8  1  0
 10 11  1  0
 10  9  2  0
 11 12  2  0
 12  4  1  0
 12  7  1  0
 13  2  1  0
 13 15  1  0
 14 13  2  0
 16 15  1  0
 16 22  1  0
 16 17  1  1
 18 17  1  0
 19 18  1  0
 20 19  1  0
 21 20  1  0
 22 23  2  0
 22 28  1  0
 25 24  1  1
 25 26  1  0
 27 25  1  0
 27 29  1  0
 27 28  1  6
 29 30  1  0
 31 29  2  0
M  END
$$$$
