WKT.pdb
     RDKit          3D

 31 32  0  0  1  0  0  0  0  0999 V2000
    6.1825  -17.4693   24.8067 N   0  0  0  0  0  0  0  0  0  0  0  0
    7.3591  -16.6526   24.6986 C   0  0  1  0  0  0  0  0  0  0  0  0
    7.6137  -15.8447   25.9488 C   0  0  0  0  0  0  0  0  0  0  0  0
    6.7249  -14.6547   25.9330 C   0  0  0  0  0  0  0  0  0  0  0  0
    5.3850  -14.6516   26.2173 C   0  0  0  0  0  0  0  0  0  0  0  0
    4.9236  -13.3944   26.0993 N   0  0  0  0  0  0  0  0  0  0  0  0
    5.9224  -12.5629   25.7440 C   0  0  0  0  0  0  0  0  0  0  0  0
    5.9439  -11.1890   25.5035 C   0  0  0  0  0  0  0  0  0  0  0  0
    7.1595  -10.6514   25.1528 C   0  0  0  0  0  0  0  0  0  0  0  0
    8.2943  -11.4341   25.0459 C   0  0  0  0  0  0  0  0  0  0  0  0
    8.2524  -12.7872   25.2873 C   0  0  0  0  0  0  0  0  0  0  0  0
    7.0487  -13.3496   25.6398 C   0  0  0  0  0  0  0  0  0  0  0  0
    8.5130  -17.4974   24.3301 C   0  0  0  0  0  0  0  0  0  0  0  0
    8.6824  -18.6598   24.8157 O   0  0  0  0  0  0  0  0  0  0  0  0
    9.4660  -17.0236   23.4167 N   0  0  0  0  0  0  0  0  0  0  0  0
   10.7826  -17.6408   23.3134 C   0  0  1  0  0  0  0  0  0  0  0  0
   11.4323  -17.3089   22.0020 C   0  0  0  0  0  0  0  0  0  0  0  0
   12.7330  -18.0223   21.8461 C   0  0  0  0  0  0  0  0  0  0  0  0
   13.4014  -17.7584   20.5239 C   0  0  0  0  0  0  0  0  0  0  0  0
   14.6874  -18.5471   20.3861 C   0  0  0  0  0  0  0  0  0  0  0  0
   15.2062  -18.3780   19.0514 N   0  0  0  0  0  0  0  0  0  0  0  0
   11.6455  -17.1594   24.4574 C   0  0  0  0  0  0  0  0  0  0  0  0
   12.5577  -16.3174   24.2883 O   0  0  0  0  0  0  0  0  0  0  0  0
   11.3506  -14.9204   27.0033 C   0  0  0  0  0  0  0  0  0  0  0  0
   11.4956  -16.2392   27.7333 C   0  0  1  0  0  0  0  0  0  0  0  0
   10.2760  -16.7188   28.1528 O   0  0  0  0  0  0  0  0  0  0  0  0
   12.2250  -17.2572   26.8949 C   0  0  2  0  0  0  0  0  0  0  0  0
   11.4312  -17.6635   25.7650 N   0  0  0  0  0  0  0  0  0  0  0  0
   12.6625  -18.4133   27.7193 C   0  0  0  0  0  0  0  0  0  0  0  0
   12.1653  -19.6923   27.4867 O   0  0  0  0  0  0  0  0  0  0  0  0
   13.4961  -18.2042   28.6346 O   0  0  0  0  0  0  0  0  0  0  0  0
  2  1  1  1
  3  4  1  0
  3  2  1  0
  4  5  2  0
  5  6  1  0
  7  6  1  0
  8  7  2  0
  9  8  1  0
 10 11  1  0
 10  9  2  0
 11 12  2  0
 12  4  1  0
 12  7  1  0
 13  2  1  0
 13 15  1  0
 14 13  2  0
 16 15  1  0
 16 22  1  0
 16 17  1  6
 18 17  1  0
 19 18  1  0
 20 19  1  0
 21 20  1  0
 22 23  2  0
 22 28  1  0
 25 24  1  6
 25 26  1  0
 27 25  1  0
 27 29  1  0
 27 28  1  6
 29 30  1  0
 31 29  2  0
M  END
$$$$
