WKT.pdb
     RDKit          3D

 31 32  0  0  1  0  0  0  0  0999 V2000
    6.8903  -17.5517   25.8560 N   0  0  0  0  0  0  0  0  0  0  0  0
    7.2942  -16.3089   25.2601 C   0  0  1  0  0  0  0  0  0  0  0  0
    8.5304  -15.7355   25.9108 C   0  0  0  0  0  0  0  0  0  0  0  0
    8.1124  -14.7089   26.8997 C   0  0  0  0  0  0  0  0  0  0  0  0
    8.2590  -14.7989   28.2585 C   0  0  0  0  0  0  0  0  0  0  0  0
    7.7650  -13.6812   28.8190 N   0  0  0  0  0  0  0  0  0  0  0  0
    7.2944  -12.8517   27.8674 C   0  0  0  0  0  0  0  0  0  0  0  0
    6.6967  -11.5938   27.9468 C   0  0  0  0  0  0  0  0  0  0  0  0
    6.3296  -11.0178   26.7538 C   0  0  0  0  0  0  0  0  0  0  0  0
    6.5435  -11.6550   25.5455 C   0  0  0  0  0  0  0  0  0  0  0  0
    7.1344  -12.8954   25.4883 C   0  0  0  0  0  0  0  0  0  0  0  0
    7.5110  -13.4931   26.6674 C   0  0  0  0  0  0  0  0  0  0  0  0
    7.4580  -16.4910   23.8037 C   0  0  0  0  0  0  0  0  0  0  0  0
    7.6097  -17.6385   23.2787 O   0  0  0  0  0  0  0  0  0  0  0  0
    7.4494  -15.3767   22.9521 N   0  0  0  0  0  0  0  0  0  0  0  0
    7.6440  -15.5253   21.5150 C   0  0  1  0  0  0  0  0  0  0  0  0
    7.3223  -14.2499   20.7926 C   0  0  0  0  0  0  0  0  0  0  0  0
    7.1995  -14.4760   19.3233 C   0  0  0  0  0  0  0  0  0  0  0  0
    8.2348  -13.7372   18.5191 C   0  0  0  0  0  0  0  0  0  0  0  0
    7.9855  -13.8783   17.0317 C   0  0  0  0  0  0  0  0  0  0  0  0
    8.9379  -13.0690   16.3126 N   0  0  0  0  0  0  0  0  0  0  0  0
    9.0771  -15.9260   21.2490 C   0  0  0  0  0  0  0  0  0  0  0  0
   10.0410  -15.3139   21.7647 O   0  0  0  0  0  0  0  0  0  0  0  0
   12.0021  -19.5732   19.5419 C   0  0  0  0  0  0  0  0  0  0  0  0
   10.6230  -18.9558   19.6422 C   0  0  1  0  0  0  0  0  0  0  0  0
    9.7551  -19.7725   20.3302 O   0  0  0  0  0  0  0  0  0  0  0  0
   10.6774  -17.5785   20.2514 C   0  0  2  0  0  0  0  0  0  0  0  0
    9.3575  -17.0222   20.3950 N   0  0  0  0  0  0  0  0  0  0  0  0
   11.5817  -16.6881   19.4787 C   0  0  0  0  0  0  0  0  0  0  0  0
   11.1751  -16.1179   18.2759 O   0  0  0  0  0  0  0  0  0  0  0  0
   12.7267  -16.4633   19.9421 O   0  0  0  0  0  0  0  0  0  0  0  0
  2  1  1  1
  3  4  1  0
  3  2  1  0
  4  5  2  0
  5  6  1  0
  7  6  1  0
  8  7  2  0
  9  8  1  0
 10 11  1  0
 10  9  2  0
 11 12  2  0
 12  4  1  0
 12  7  1  0
 13  2  1  0
 13 15  1  0
 14 13  2  0
 16 15  1  0
 16 22  1  0
 16 17  1  6
 18 17  1  0
 19 18  1  0
 20 19  1  0
 21 20  1  0
 22 23  2  0
 22 28  1  0
 25 24  1  1
 25 26  1  0
 27 25  1  0
 27 29  1  0
 27 28  1  6
 29 30  1  0
 31 29  2  0
M  END
$$$$
