WKT.pdb
     RDKit          3D

 31 32  0  0  1  0  0  0  0  0999 V2000
    6.2391  -18.4018   24.6342 N   0  0  0  0  0  0  0  0  0  0  0  0
    6.7774  -17.0757   24.5140 C   0  0  1  0  0  0  0  0  0  0  0  0
    7.4216  -16.5996   25.7942 C   0  0  0  0  0  0  0  0  0  0  0  0
    6.7113  -15.3797   26.2567 C   0  0  0  0  0  0  0  0  0  0  0  0
    5.4512  -15.3409   26.7921 C   0  0  0  0  0  0  0  0  0  0  0  0
    5.1501  -14.0651   27.0903 N   0  0  0  0  0  0  0  0  0  0  0  0
    6.1777  -13.2560   26.7667 C   0  0  0  0  0  0  0  0  0  0  0  0
    6.3433  -11.8758   26.8828 C   0  0  0  0  0  0  0  0  0  0  0  0
    7.5437  -11.3679   26.4461 C   0  0  0  0  0  0  0  0  0  0  0  0
    8.5284  -12.1848   25.9219 C   0  0  0  0  0  0  0  0  0  0  0  0
    8.3458  -13.5436   25.8159 C   0  0  0  0  0  0  0  0  0  0  0  0
    7.1539  -14.0767   26.2456 C   0  0  0  0  0  0  0  0  0  0  0  0
    7.7032  -17.0221   23.3646 C   0  0  0  0  0  0  0  0  0  0  0  0
    8.4420  -18.0058   23.0451 O   0  0  0  0  0  0  0  0  0  0  0  0
    7.7877  -15.8590   22.5855 N   0  0  0  0  0  0  0  0  0  0  0  0
    8.7996  -15.7208   21.5453 C   0  0  1  0  0  0  0  0  0  0  0  0
    8.6015  -14.4543   20.7651 C   0  0  0  0  0  0  0  0  0  0  0  0
    8.1674  -14.7416   19.3673 C   0  0  0  0  0  0  0  0  0  0  0  0
    8.1411  -13.5196   18.4895 C   0  0  0  0  0  0  0  0  0  0  0  0
    7.7569  -13.8679   17.0662 C   0  0  0  0  0  0  0  0  0  0  0  0
    7.8426  -12.6833   16.2488 N   0  0  0  0  0  0  0  0  0  0  0  0
   10.1696  -15.7287   22.1842 C   0  0  0  0  0  0  0  0  0  0  0  0
   10.4844  -14.9146   23.0830 O   0  0  0  0  0  0  0  0  0  0  0  0
   11.9972  -17.8301   24.4911 C   0  0  0  0  0  0  0  0  0  0  0  0
   12.6834  -17.9484   23.1464 C   0  0  1  0  0  0  0  0  0  0  0  0
   12.2847  -19.0822   22.4762 O   0  0  0  0  0  0  0  0  0  0  0  0
   12.4719  -16.7142   22.3079 C   0  0  2  0  0  0  0  0  0  0  0  0
   11.1382  -16.6763   21.7676 N   0  0  0  0  0  0  0  0  0  0  0  0
   13.5100  -16.6022   21.2510 C   0  0  0  0  0  0  0  0  0  0  0  0
   14.8395  -16.3439   21.5724 O   0  0  0  0  0  0  0  0  0  0  0  0
   13.1542  -16.7474   20.0557 O   0  0  0  0  0  0  0  0  0  0  0  0
  2  1  1  1
  3  4  1  0
  3  2  1  0
  4  5  2  0
  5  6  1  0
  7  6  1  0
  8  7  2  0
  9  8  1  0
 10 11  1  0
 10  9  2  0
 11 12  2  0
 12  4  1  0
 12  7  1  0
 13  2  1  0
 13 15  1  0
 14 13  2  0
 16 15  1  0
 16 22  1  0
 16 17  1  1
 18 17  1  0
 19 18  1  0
 20 19  1  0
 21 20  1  0
 22 23  2  0
 22 28  1  0
 25 24  1  1
 25 26  1  0
 27 25  1  0
 27 29  1  0
 27 28  1  6
 29 30  1  0
 31 29  2  0
M  END
$$$$
