WKT.pdb
     RDKit          3D

 31 32  0  0  1  0  0  0  0  0999 V2000
    5.7868  -18.1005   23.6799 N   0  0  0  0  0  0  0  0  0  0  0  0
    6.5016  -16.8570   23.7535 C   0  0  1  0  0  0  0  0  0  0  0  0
    7.2631  -16.7085   25.0490 C   0  0  0  0  0  0  0  0  0  0  0  0
    6.7703  -15.4962   25.7519 C   0  0  0  0  0  0  0  0  0  0  0  0
    5.5937  -15.3950   26.4456 C   0  0  0  0  0  0  0  0  0  0  0  0
    5.4929  -14.1494   26.9413 N   0  0  0  0  0  0  0  0  0  0  0  0
    6.5721  -13.4212   26.5946 C   0  0  0  0  0  0  0  0  0  0  0  0
    6.9240  -12.0987   26.8645 C   0  0  0  0  0  0  0  0  0  0  0  0
    8.1225  -11.6696   26.3457 C   0  0  0  0  0  0  0  0  0  0  0  0
    8.9300  -12.5072   25.5986 C   0  0  0  0  0  0  0  0  0  0  0  0
    8.5652  -13.8082   25.3435 C   0  0  0  0  0  0  0  0  0  0  0  0
    7.3711  -14.2621   25.8511 C   0  0  0  0  0  0  0  0  0  0  0  0
    7.3736  -16.7191   22.5695 C   0  0  0  0  0  0  0  0  0  0  0  0
    7.8304  -17.7276   21.9452 O   0  0  0  0  0  0  0  0  0  0  0  0
    7.7227  -15.4445   22.1000 N   0  0  0  0  0  0  0  0  0  0  0  0
    8.6616  -15.2789   20.9972 C   0  0  1  0  0  0  0  0  0  0  0  0
    8.5397  -13.9140   20.3856 C   0  0  0  0  0  0  0  0  0  0  0  0
    7.5511  -13.9075   19.2686 C   0  0  0  0  0  0  0  0  0  0  0  0
    8.1919  -13.8778   17.9073 C   0  0  0  0  0  0  0  0  0  0  0  0
    7.1553  -13.7535   16.8096 C   0  0  0  0  0  0  0  0  0  0  0  0
    7.8169  -13.7729   15.5286 N   0  0  0  0  0  0  0  0  0  0  0  0
   10.0677  -15.4956   21.5083 C   0  0  0  0  0  0  0  0  0  0  0  0
   11.0722  -15.2777   20.7920 O   0  0  0  0  0  0  0  0  0  0  0  0
   10.9812  -15.1371   25.6032 C   0  0  0  0  0  0  0  0  0  0  0  0
   11.5117  -16.3604   24.8855 C   0  0  1  0  0  0  0  0  0  0  0  0
   10.7718  -17.4808   25.1868 O   0  0  0  0  0  0  0  0  0  0  0  0
   11.5867  -16.1382   23.3968 C   0  0  2  0  0  0  0  0  0  0  0  0
   10.2749  -15.9578   22.8324 N   0  0  0  0  0  0  0  0  0  0  0  0
   12.3397  -17.2322   22.7308 C   0  0  0  0  0  0  0  0  0  0  0  0
   13.6900  -17.4416   22.9958 O   0  0  0  0  0  0  0  0  0  0  0  0
   11.7226  -17.9654   21.9196 O   0  0  0  0  0  0  0  0  0  0  0  0
  2  1  1  1
  3  4  1  0
  3  2  1  0
  4  5  2  0
  5  6  1  0
  7  6  1  0
  8  7  2  0
  9  8  1  0
 10 11  1  0
 10  9  2  0
 11 12  2  0
 12  4  1  0
 12  7  1  0
 13  2  1  0
 13 15  1  0
 14 13  2  0
 16 15  1  0
 16 22  1  0
 16 17  1  1
 18 17  1  0
 19 18  1  0
 20 19  1  0
 21 20  1  0
 22 23  2  0
 22 28  1  0
 25 24  1  1
 25 26  1  0
 27 25  1  0
 27 29  1  0
 27 28  1  6
 29 30  1  0
 31 29  2  0
M  END
$$$$
