WKT.pdb
     RDKit          3D

 31 32  0  0  1  0  0  0  0  0999 V2000
    6.2442  -17.9449   24.5301 N   0  0  0  0  0  0  0  0  0  0  0  0
    6.9361  -16.7077   24.2990 C   0  0  1  0  0  0  0  0  0  0  0  0
    7.5873  -16.1717   25.5517 C   0  0  0  0  0  0  0  0  0  0  0  0
    6.8157  -14.9914   26.0188 C   0  0  0  0  0  0  0  0  0  0  0  0
    5.5061  -14.9980   26.4198 C   0  0  0  0  0  0  0  0  0  0  0  0
    5.1578  -13.7479   26.7708 N   0  0  0  0  0  0  0  0  0  0  0  0
    6.2023  -12.9116   26.6130 C   0  0  0  0  0  0  0  0  0  0  0  0
    6.3358  -11.5417   26.8396 C   0  0  0  0  0  0  0  0  0  0  0  0
    7.5682  -10.9968   26.5674 C   0  0  0  0  0  0  0  0  0  0  0  0
    8.6135  -11.7691   26.0954 C   0  0  0  0  0  0  0  0  0  0  0  0
    8.4618  -13.1185   25.8785 C   0  0  0  0  0  0  0  0  0  0  0  0
    7.2390  -13.6879   26.1430 C   0  0  0  0  0  0  0  0  0  0  0  0
    7.9004  -16.8814   23.1940 C   0  0  0  0  0  0  0  0  0  0  0  0
    8.5120  -17.9780   22.9965 O   0  0  0  0  0  0  0  0  0  0  0  0
    8.1665  -15.8164   22.3212 N   0  0  0  0  0  0  0  0  0  0  0  0
    9.3227  -15.8404   21.4337 C   0  0  1  0  0  0  0  0  0  0  0  0
    9.3399  -14.6367   20.5377 C   0  0  0  0  0  0  0  0  0  0  0  0
    8.4557  -14.8313   19.3522 C   0  0  0  0  0  0  0  0  0  0  0  0
    8.4795  -13.6701   18.3954 C   0  0  0  0  0  0  0  0  0  0  0  0
    7.5039  -13.8724   17.2543 C   0  0  0  0  0  0  0  0  0  0  0  0
    7.5225  -12.7088   16.4030 N   0  0  0  0  0  0  0  0  0  0  0  0
   10.5838  -15.8868   22.2659 C   0  0  0  0  0  0  0  0  0  0  0  0
   10.7467  -15.1433   23.2610 O   0  0  0  0  0  0  0  0  0  0  0  0
   12.1363  -17.9913   24.7281 C   0  0  0  0  0  0  0  0  0  0  0  0
   12.9732  -18.0931   23.4702 C   0  0  1  0  0  0  0  0  0  0  0  0
   12.6445  -19.2096   22.7362 O   0  0  0  0  0  0  0  0  0  0  0  0
   12.8725  -16.8413   22.6370 C   0  0  2  0  0  0  0  0  0  0  0  0
   11.6220  -16.7905   21.9260 N   0  0  0  0  0  0  0  0  0  0  0  0
   14.0411  -16.7086   21.7291 C   0  0  0  0  0  0  0  0  0  0  0  0
   15.3195  -16.4803   22.2302 O   0  0  0  0  0  0  0  0  0  0  0  0
   13.8434  -16.8084   20.4933 O   0  0  0  0  0  0  0  0  0  0  0  0
  2  1  1  1
  3  4  1  0
  3  2  1  0
  4  5  2  0
  5  6  1  0
  7  6  1  0
  8  7  2  0
  9  8  1  0
 10 11  1  0
 10  9  2  0
 11 12  2  0
 12  4  1  0
 12  7  1  0
 13  2  1  0
 13 15  1  0
 14 13  2  0
 16 15  1  0
 16 22  1  0
 16 17  1  1
 18 17  1  0
 19 18  1  0
 20 19  1  0
 21 20  1  0
 22 23  2  0
 22 28  1  0
 25 24  1  1
 25 26  1  0
 27 25  1  0
 27 29  1  0
 27 28  1  6
 29 30  1  0
 31 29  2  0
M  END
$$$$
