HQM.pdb
     RDKit          3D

 28 28  0  0  1  0  0  0  0  0999 V2000
    9.6553  -15.7180   18.9715 N   0  0  0  0  0  0  0  0  0  0  0  0
    8.6362  -15.0424   19.7136 C   0  0  1  0  0  0  0  0  0  0  0  0
    7.3457  -14.9229   18.9197 C   0  0  0  0  0  0  0  0  0  0  0  0
    7.6633  -14.3215   17.5868 C   0  0  0  0  0  0  0  0  0  0  0  0
    7.9775  -12.9862   17.3616 C   0  0  0  0  0  0  0  0  0  0  0  0
    8.2058  -12.8003   16.0431 N   0  0  0  0  0  0  0  0  0  0  0  0
    8.0422  -13.9865   15.4376 C   0  0  0  0  0  0  0  0  0  0  0  0
    7.7118  -14.9113   16.3806 N   0  0  0  0  0  0  0  0  0  0  0  0
    8.3046  -15.7292   20.9877 C   0  0  0  0  0  0  0  0  0  0  0  0
    7.3218  -15.3557   21.6418 O   0  0  0  0  0  0  0  0  0  0  0  0
   10.8771  -20.9279   22.1681 N   0  0  0  0  0  0  0  0  0  0  0  0
    9.5254  -21.0344   21.7641 C   0  0  0  0  0  0  0  0  0  0  0  0
    9.1178  -22.0749   21.2286 O   0  0  0  0  0  0  0  0  0  0  0  0
    8.6372  -19.8449   22.0152 C   0  0  0  0  0  0  0  0  0  0  0  0
    9.4625  -18.8160   22.7154 C   0  0  0  0  0  0  0  0  0  0  0  0
    8.8557  -17.4407   22.7422 C   0  0  2  0  0  0  0  0  0  0  0  0
    9.1080  -16.8028   21.4489 N   0  0  0  0  0  0  0  0  0  0  0  0
    9.3423  -16.5889   23.8440 C   0  0  0  0  0  0  0  0  0  0  0  0
   10.5266  -16.1841   23.9395 O   0  0  0  0  0  0  0  0  0  0  0  0
    6.4318  -11.0797   27.6053 C   0  0  0  0  0  0  0  0  0  0  0  0
    6.4965  -12.0123   26.0573 S   0  0  0  0  0  0  0  0  0  0  0  0
    8.0247  -12.9834   26.0490 C   0  0  0  0  0  0  0  0  0  0  0  0
    7.7563  -14.4237   26.4820 C   0  0  0  0  0  0  0  0  0  0  0  0
    8.8444  -15.3023   25.9440 C   0  0  2  0  0  0  0  0  0  0  0  0
    8.4376  -16.1769   24.8895 N   0  0  0  0  0  0  0  0  0  0  0  0
    9.5155  -16.0289   27.0609 C   0  0  0  0  0  0  0  0  0  0  0  0
    9.3019  -17.2626   27.1690 O   0  0  0  0  0  0  0  0  0  0  0  0
   10.3498  -15.4295   27.9741 O   0  0  0  0  0  0  0  0  0  0  0  0
  2  1  1  6
  2  9  1  0
  3  2  1  0
  4  3  1  0
  5  4  2  0
  6  5  1  0
  7  6  1  0
  7  8  2  0
  8  4  1  0
  9 17  1  0
 10  9  2  0
 12 11  1  0
 13 12  2  0
 14 12  1  0
 15 14  1  0
 16 15  1  6
 17 16  1  0
 18 16  1  0
 18 19  2  0
 21 22  1  0
 21 20  1  0
 22 23  1  0
 24 23  1  1
 24 25  1  0
 24 26  1  0
 25 18  1  0
 26 28  1  0
 27 26  2  0
M  END
$$$$
