HQM.pdb
     RDKit          3D

 28 28  0  0  1  0  0  0  0  0999 V2000
    6.5842  -17.7362   18.8910 N   0  0  0  0  0  0  0  0  0  0  0  0
    7.0739  -16.8953   19.9392 C   0  0  1  0  0  0  0  0  0  0  0  0
    6.5833  -15.4645   19.7903 C   0  0  0  0  0  0  0  0  0  0  0  0
    7.4400  -14.7729   18.7771 C   0  0  0  0  0  0  0  0  0  0  0  0
    8.5583  -15.3220   18.1605 C   0  0  0  0  0  0  0  0  0  0  0  0
    9.0829  -14.4172   17.3054 N   0  0  0  0  0  0  0  0  0  0  0  0
    8.3203  -13.3151   17.3717 C   0  0  0  0  0  0  0  0  0  0  0  0
    7.3202  -13.5348   18.2690 N   0  0  0  0  0  0  0  0  0  0  0  0
    6.6618  -17.3615   21.2875 C   0  0  0  0  0  0  0  0  0  0  0  0
    5.4743  -17.6431   21.4968 O   0  0  0  0  0  0  0  0  0  0  0  0
    7.7220  -20.8457   25.9213 N   0  0  0  0  0  0  0  0  0  0  0  0
    8.7608  -20.7493   24.9657 C   0  0  0  0  0  0  0  0  0  0  0  0
    9.7892  -21.4281   25.0962 O   0  0  0  0  0  0  0  0  0  0  0  0
    8.5502  -19.8017   23.8147 C   0  0  0  0  0  0  0  0  0  0  0  0
    7.2298  -19.1364   24.0249 C   0  0  0  0  0  0  0  0  0  0  0  0
    7.2161  -17.6645   23.7190 C   0  0  2  0  0  0  0  0  0  0  0  0
    7.6217  -17.4821   22.3242 N   0  0  0  0  0  0  0  0  0  0  0  0
    8.0633  -16.8551   24.6153 C   0  0  0  0  0  0  0  0  0  0  0  0
    9.2691  -16.5939   24.3846 O   0  0  0  0  0  0  0  0  0  0  0  0
    6.6330  -10.1757   26.7440 C   0  0  0  0  0  0  0  0  0  0  0  0
    6.3088  -11.6261   27.7742 S   0  0  0  0  0  0  0  0  0  0  0  0
    7.5583  -12.8793   27.3908 C   0  0  0  0  0  0  0  0  0  0  0  0
    6.9089  -14.1363   26.8145 C   0  0  0  0  0  0  0  0  0  0  0  0
    7.9861  -15.0947   26.4064 C   0  0  2  0  0  0  0  0  0  0  0  0
    7.5122  -16.3157   25.8346 N   0  0  0  0  0  0  0  0  0  0  0  0
    8.9255  -15.3237   27.5427 C   0  0  0  0  0  0  0  0  0  0  0  0
    9.0490  -16.4979   27.9730 O   0  0  0  0  0  0  0  0  0  0  0  0
    9.6599  -14.3290   28.1431 O   0  0  0  0  0  0  0  0  0  0  0  0
  2  1  1  6
  2  9  1  0
  3  2  1  0
  4  3  1  0
  5  4  2  0
  6  5  1  0
  7  6  1  0
  7  8  2  0
  8  4  1  0
  9 17  1  0
 10  9  2  0
 12 11  1  0
 13 12  2  0
 14 12  1  0
 15 14  1  0
 16 15  1  1
 17 16  1  0
 18 16  1  0
 18 19  2  0
 21 22  1  0
 21 20  1  0
 22 23  1  0
 24 23  1  1
 24 25  1  0
 24 26  1  0
 25 18  1  0
 26 28  1  0
 27 26  2  0
M  END
$$$$
