HQM.pdb
     RDKit          3D

 28 28  0  0  1  0  0  0  0  0999 V2000
    6.5654  -16.9059   19.2261 N   0  0  0  0  0  0  0  0  0  0  0  0
    7.5882  -17.3001   20.1448 C   0  0  1  0  0  0  0  0  0  0  0  0
    8.8716  -16.5144   19.9312 C   0  0  0  0  0  0  0  0  0  0  0  0
    8.5123  -15.0969   19.6143 C   0  0  0  0  0  0  0  0  0  0  0  0
    7.2344  -14.5551   19.6910 C   0  0  0  0  0  0  0  0  0  0  0  0
    7.2825  -13.2528   19.3349 N   0  0  0  0  0  0  0  0  0  0  0  0
    8.5591  -12.9663   19.0371 C   0  0  0  0  0  0  0  0  0  0  0  0
    9.3060  -14.0916   19.2083 N   0  0  0  0  0  0  0  0  0  0  0  0
    7.1893  -17.1103   21.5624 C   0  0  0  0  0  0  0  0  0  0  0  0
    6.3912  -16.2095   21.8541 O   0  0  0  0  0  0  0  0  0  0  0  0
    7.2932  -21.6979   25.4100 N   0  0  0  0  0  0  0  0  0  0  0  0
    6.8438  -20.7663   26.3752 C   0  0  0  0  0  0  0  0  0  0  0  0
    6.4990  -21.1554   27.5000 O   0  0  0  0  0  0  0  0  0  0  0  0
    6.8097  -19.3171   25.9682 C   0  0  0  0  0  0  0  0  0  0  0  0
    7.2859  -19.2429   24.5547 C   0  0  0  0  0  0  0  0  0  0  0  0
    7.2596  -17.8632   23.9582 C   0  0  2  0  0  0  0  0  0  0  0  0
    7.7191  -17.9543   22.5712 N   0  0  0  0  0  0  0  0  0  0  0  0
    8.0551  -16.8693   24.7035 C   0  0  0  0  0  0  0  0  0  0  0  0
    9.2909  -16.7114   24.5509 O   0  0  0  0  0  0  0  0  0  0  0  0
    6.2723   -9.9964   25.8577 C   0  0  0  0  0  0  0  0  0  0  0  0
    5.9861  -11.5809   26.6809 S   0  0  0  0  0  0  0  0  0  0  0  0
    7.4392  -12.6266   26.4094 C   0  0  0  0  0  0  0  0  0  0  0  0
    7.2590  -13.9911   27.0724 C   0  0  0  0  0  0  0  0  0  0  0  0
    8.1271  -14.9899   26.3696 C   0  0  2  0  0  0  0  0  0  0  0  0
    7.4138  -16.0122   25.6708 N   0  0  0  0  0  0  0  0  0  0  0  0
    9.1387  -15.5448   27.3155 C   0  0  0  0  0  0  0  0  0  0  0  0
    8.8874  -16.6489   27.8604 O   0  0  0  0  0  0  0  0  0  0  0  0
   10.3240  -14.9207   27.6238 O   0  0  0  0  0  0  0  0  0  0  0  0
  2  1  1  6
  2  9  1  0
  3  2  1  0
  4  3  1  0
  5  4  2  0
  6  5  1  0
  7  6  1  0
  7  8  2  0
  8  4  1  0
  9 17  1  0
 10  9  2  0
 12 11  1  0
 13 12  2  0
 14 12  1  0
 15 14  1  0
 16 15  1  1
 17 16  1  0
 18 16  1  0
 18 19  2  0
 21 22  1  0
 21 20  1  0
 22 23  1  0
 24 23  1  1
 24 25  1  0
 24 26  1  0
 25 18  1  0
 26 28  1  0
 27 26  2  0
M  END
$$$$
