HQM.pdb
     RDKit          3D

 28 28  0  0  1  0  0  0  0  0999 V2000
    7.4663  -16.9500   19.6344 N   0  0  0  0  0  0  0  0  0  0  0  0
    8.5536  -16.2988   20.2973 C   0  0  1  0  0  0  0  0  0  0  0  0
    8.3105  -14.8059   20.4465 C   0  0  0  0  0  0  0  0  0  0  0  0
    8.1678  -14.2102   19.0812 C   0  0  0  0  0  0  0  0  0  0  0  0
    8.3442  -14.8934   17.8836 C   0  0  0  0  0  0  0  0  0  0  0  0
    8.1362  -14.0444   16.8535 N   0  0  0  0  0  0  0  0  0  0  0  0
    7.8338  -12.8466   17.3772 C   0  0  0  0  0  0  0  0  0  0  0  0
    7.8538  -12.9507   18.7345 N   0  0  0  0  0  0  0  0  0  0  0  0
    8.8024  -16.8401   21.6574 C   0  0  0  0  0  0  0  0  0  0  0  0
    7.8416  -17.1679   22.3664 O   0  0  0  0  0  0  0  0  0  0  0  0
   10.2928  -21.2641   22.0666 N   0  0  0  0  0  0  0  0  0  0  0  0
   11.2050  -20.5626   22.8895 C   0  0  0  0  0  0  0  0  0  0  0  0
   11.5051  -21.0101   24.0054 O   0  0  0  0  0  0  0  0  0  0  0  0
   11.7734  -19.2784   22.3465 C   0  0  0  0  0  0  0  0  0  0  0  0
   11.6931  -18.2623   23.4379 C   0  0  0  0  0  0  0  0  0  0  0  0
   10.4023  -17.4926   23.4811 C   0  0  2  0  0  0  0  0  0  0  0  0
   10.1294  -16.9791   22.1376 N   0  0  0  0  0  0  0  0  0  0  0  0
   10.3874  -16.3962   24.4679 C   0  0  0  0  0  0  0  0  0  0  0  0
   11.1691  -15.4148   24.4294 O   0  0  0  0  0  0  0  0  0  0  0  0
    6.6019  -11.8227   25.6566 C   0  0  0  0  0  0  0  0  0  0  0  0
    6.7517  -12.3362   27.3841 S   0  0  0  0  0  0  0  0  0  0  0  0
    8.1687  -13.4557   27.5174 C   0  0  0  0  0  0  0  0  0  0  0  0
    8.1166  -14.5305   26.4329 C   0  0  0  0  0  0  0  0  0  0  0  0
    9.3604  -15.3622   26.5146 C   0  0  2  0  0  0  0  0  0  0  0  0
    9.4367  -16.4164   25.5528 N   0  0  0  0  0  0  0  0  0  0  0  0
    9.5609  -15.8481   27.9109 C   0  0  0  0  0  0  0  0  0  0  0  0
    9.6296  -14.9892   28.8257 O   0  0  0  0  0  0  0  0  0  0  0  0
    9.6743  -17.1747   28.2525 O   0  0  0  0  0  0  0  0  0  0  0  0
  2  1  1  1
  2  9  1  0
  3  2  1  0
  4  3  1  0
  5  4  2  0
  6  5  1  0
  7  6  1  0
  7  8  2  0
  8  4  1  0
  9 17  1  0
 10  9  2  0
 12 11  1  0
 13 12  2  0
 14 12  1  0
 15 14  1  0
 16 15  1  6
 17 16  1  0
 18 16  1  0
 18 19  2  0
 21 22  1  0
 21 20  1  0
 22 23  1  0
 24 23  1  1
 24 25  1  0
 24 26  1  0
 25 18  1  0
 26 28  1  0
 27 26  2  0
M  END
$$$$
