HQM.pdb
     RDKit          3D

 28 28  0  0  1  0  0  0  0  0999 V2000
    7.7136  -17.2623   18.8168 N   0  0  0  0  0  0  0  0  0  0  0  0
    8.7429  -16.6003   19.5570 C   0  0  1  0  0  0  0  0  0  0  0  0
    8.5128  -15.0994   19.6246 C   0  0  0  0  0  0  0  0  0  0  0  0
    8.5145  -14.5566   18.2302 C   0  0  0  0  0  0  0  0  0  0  0  0
    8.7268  -15.3032   17.0770 C   0  0  0  0  0  0  0  0  0  0  0  0
    8.6577  -14.4884   16.0017 N   0  0  0  0  0  0  0  0  0  0  0  0
    8.4074  -13.2500   16.4536 C   0  0  0  0  0  0  0  0  0  0  0  0
    8.3207  -13.2946   17.8116 N   0  0  0  0  0  0  0  0  0  0  0  0
    8.8492  -17.0904   20.9547 C   0  0  0  0  0  0  0  0  0  0  0  0
    7.8174  -17.3508   21.5878 O   0  0  0  0  0  0  0  0  0  0  0  0
   13.6696  -19.9340   23.1564 N   0  0  0  0  0  0  0  0  0  0  0  0
   13.1306  -19.6668   24.4369 C   0  0  0  0  0  0  0  0  0  0  0  0
   13.6954  -20.1007   25.4509 O   0  0  0  0  0  0  0  0  0  0  0  0
   11.8680  -18.8485   24.4942 C   0  0  0  0  0  0  0  0  0  0  0  0
   11.5287  -18.4592   23.0930 C   0  0  0  0  0  0  0  0  0  0  0  0
   10.2542  -17.6739   22.9539 C   0  0  2  0  0  0  0  0  0  0  0  0
   10.1222  -17.2577   21.5566 N   0  0  0  0  0  0  0  0  0  0  0  0
   10.1639  -16.5078   23.8529 C   0  0  0  0  0  0  0  0  0  0  0  0
   10.8135  -15.4471   23.6839 O   0  0  0  0  0  0  0  0  0  0  0  0
    6.5592  -11.1346   27.7981 C   0  0  0  0  0  0  0  0  0  0  0  0
    6.4218  -12.5101   26.6322 S   0  0  0  0  0  0  0  0  0  0  0  0
    7.8958  -13.5469   26.8091 C   0  0  0  0  0  0  0  0  0  0  0  0
    7.8906  -14.6791   25.7834 C   0  0  0  0  0  0  0  0  0  0  0  0
    9.1715  -15.4475   25.9032 C   0  0  2  0  0  0  0  0  0  0  0  0
    9.2919  -16.5496   25.0015 N   0  0  0  0  0  0  0  0  0  0  0  0
    9.3999  -15.8444   27.3231 C   0  0  0  0  0  0  0  0  0  0  0  0
    9.3638  -17.0693   27.6018 O   0  0  0  0  0  0  0  0  0  0  0  0
    9.6461  -14.9518   28.3389 O   0  0  0  0  0  0  0  0  0  0  0  0
  2  1  1  1
  2  9  1  0
  3  2  1  0
  4  3  1  0
  5  4  2  0
  6  5  1  0
  7  6  1  0
  7  8  2  0
  8  4  1  0
  9 17  1  0
 10  9  2  0
 12 11  1  0
 13 12  2  0
 14 12  1  0
 15 14  1  0
 16 15  1  6
 17 16  1  0
 18 16  1  0
 18 19  2  0
 21 22  1  0
 21 20  1  0
 22 23  1  0
 24 23  1  1
 24 25  1  0
 24 26  1  0
 25 18  1  0
 26 28  1  0
 27 26  2  0
M  END
$$$$
