HQM.pdb
     RDKit          3D

 28 28  0  0  1  0  0  0  0  0999 V2000
    7.0164  -17.0287   19.7831 N   0  0  0  0  0  0  0  0  0  0  0  0
    7.9621  -16.2308   20.5004 C   0  0  1  0  0  0  0  0  0  0  0  0
    7.5042  -14.7866   20.6222 C   0  0  0  0  0  0  0  0  0  0  0  0
    7.8072  -14.0834   19.3366 C   0  0  0  0  0  0  0  0  0  0  0  0
    8.3638  -12.8144   19.2262 C   0  0  0  0  0  0  0  0  0  0  0  0
    8.4964  -12.5002   17.9190 N   0  0  0  0  0  0  0  0  0  0  0  0
    8.0365  -13.5414   17.2085 C   0  0  0  0  0  0  0  0  0  0  0  0
    7.6172  -14.5044   18.0749 N   0  0  0  0  0  0  0  0  0  0  0  0
    8.2060  -16.7304   21.8772 C   0  0  0  0  0  0  0  0  0  0  0  0
    7.2497  -17.1176   22.5619 O   0  0  0  0  0  0  0  0  0  0  0  0
   12.3910  -20.5250   23.3439 N   0  0  0  0  0  0  0  0  0  0  0  0
   12.3556  -19.9454   24.6340 C   0  0  0  0  0  0  0  0  0  0  0  0
   13.2213  -20.2391   25.4705 O   0  0  0  0  0  0  0  0  0  0  0  0
   11.2375  -18.9792   24.9231 C   0  0  0  0  0  0  0  0  0  0  0  0
   10.9154  -18.2793   23.6438 C   0  0  0  0  0  0  0  0  0  0  0  0
    9.7962  -17.2804   23.7428 C   0  0  2  0  0  0  0  0  0  0  0  0
    9.5234  -16.7627   22.4009 N   0  0  0  0  0  0  0  0  0  0  0  0
   10.0579  -16.1734   24.6822 C   0  0  0  0  0  0  0  0  0  0  0  0
   10.8999  -15.2666   24.4715 O   0  0  0  0  0  0  0  0  0  0  0  0
    6.5173  -10.9020   25.3574 C   0  0  0  0  0  0  0  0  0  0  0  0
    6.6402  -12.2416   26.5660 S   0  0  0  0  0  0  0  0  0  0  0  0
    8.1528  -13.1748   26.2197 C   0  0  0  0  0  0  0  0  0  0  0  0
    8.3733  -14.2625   27.2696 C   0  0  0  0  0  0  0  0  0  0  0  0
    9.5771  -15.0686   26.8870 C   0  0  2  0  0  0  0  0  0  0  0  0
    9.3263  -16.0934   25.9230 N   0  0  0  0  0  0  0  0  0  0  0  0
   10.2549  -15.5892   28.1098 C   0  0  0  0  0  0  0  0  0  0  0  0
   10.3180  -16.8354   28.2588 O   0  0  0  0  0  0  0  0  0  0  0  0
   10.8115  -14.7880   29.0781 O   0  0  0  0  0  0  0  0  0  0  0  0
  2  1  1  1
  2  9  1  0
  3  2  1  0
  4  3  1  0
  5  4  2  0
  6  5  1  0
  7  6  1  0
  7  8  2  0
  8  4  1  0
  9 17  1  0
 10  9  2  0
 12 11  1  0
 13 12  2  0
 14 12  1  0
 15 14  1  0
 16 15  1  6
 17 16  1  0
 18 16  1  0
 18 19  2  0
 21 22  1  0
 21 20  1  0
 22 23  1  0
 24 23  1  1
 24 25  1  0
 24 26  1  0
 25 18  1  0
 26 28  1  0
 27 26  2  0
M  END
$$$$
