HQM.pdb
     RDKit          3D

 28 28  0  0  1  0  0  0  0  0999 V2000
    8.1888  -19.6158   21.3408 N   0  0  0  0  0  0  0  0  0  0  0  0
    9.5909  -19.3868   21.1760 C   0  0  1  0  0  0  0  0  0  0  0  0
   10.1017  -19.9413   19.8563 C   0  0  0  0  0  0  0  0  0  0  0  0
    9.1397  -20.9817   19.3753 C   0  0  0  0  0  0  0  0  0  0  0  0
    7.9995  -21.3971   20.0533 C   0  0  0  0  0  0  0  0  0  0  0  0
    7.3717  -22.3465   19.3256 N   0  0  0  0  0  0  0  0  0  0  0  0
    8.0911  -22.5356   18.2089 C   0  0  0  0  0  0  0  0  0  0  0  0
    9.1676  -21.7028   18.2419 N   0  0  0  0  0  0  0  0  0  0  0  0
    9.9441  -17.9450   21.2112 C   0  0  0  0  0  0  0  0  0  0  0  0
   11.1226  -17.6034   21.0449 O   0  0  0  0  0  0  0  0  0  0  0  0
    6.8893  -11.8119   19.4686 N   0  0  0  0  0  0  0  0  0  0  0  0
    7.8820  -12.8132   19.3523 C   0  0  0  0  0  0  0  0  0  0  0  0
    8.2023  -13.2431   18.2352 O   0  0  0  0  0  0  0  0  0  0  0  0
    8.5083  -13.3115   20.6277 C   0  0  0  0  0  0  0  0  0  0  0  0
    8.2641  -14.7832   20.6954 C   0  0  0  0  0  0  0  0  0  0  0  0
    9.2657  -15.5455   21.5175 C   0  0  2  0  0  0  0  0  0  0  0  0
    8.9388  -16.9700   21.4337 N   0  0  0  0  0  0  0  0  0  0  0  0
    9.3429  -15.1134   22.9259 C   0  0  0  0  0  0  0  0  0  0  0  0
    9.3232  -13.9113   23.2868 O   0  0  0  0  0  0  0  0  0  0  0  0
    6.4425  -11.4665   27.0465 C   0  0  0  0  0  0  0  0  0  0  0  0
    6.2307  -13.2037   26.5912 S   0  0  0  0  0  0  0  0  0  0  0  0
    7.7750  -13.7814   25.8427 C   0  0  0  0  0  0  0  0  0  0  0  0
    7.6838  -15.2633   25.4823 C   0  0  0  0  0  0  0  0  0  0  0  0
    9.0700  -15.8099   25.3246 C   0  0  2  0  0  0  0  0  0  0  0  0
    9.4477  -16.0966   23.9764 N   0  0  0  0  0  0  0  0  0  0  0  0
    9.2668  -16.9771   26.2328 C   0  0  0  0  0  0  0  0  0  0  0  0
    9.1781  -16.7776   27.4703 O   0  0  0  0  0  0  0  0  0  0  0  0
    9.5384  -18.2517   25.7958 O   0  0  0  0  0  0  0  0  0  0  0  0
  2  1  1  6
  2  9  1  0
  3  2  1  0
  4  3  1  0
  5  4  2  0
  6  5  1  0
  7  6  1  0
  7  8  2  0
  8  4  1  0
  9 17  1  0
 10  9  2  0
 12 11  1  0
 13 12  2  0
 14 12  1  0
 15 14  1  0
 16 15  1  6
 17 16  1  0
 18 16  1  0
 18 19  2  0
 21 22  1  0
 21 20  1  0
 22 23  1  0
 24 23  1  6
 24 25  1  0
 24 26  1  0
 25 18  1  0
 26 28  1  0
 27 26  2  0
M  END
$$$$
