SFD.pdb
     RDKit          3D

 26 26  0  0  1  0  0  0  0  0999 V2000
   25.6974  -20.4630  -17.9198 O   0  0  0  0  0  0  0  0  0  0  0  0
   27.0079  -20.4374  -17.4759 C   0  0  0  0  0  0  0  0  0  0  0  0
   27.3867  -21.7641  -16.8550 C   0  0  2  0  0  0  0  0  0  0  0  0
   27.1138  -22.8467  -17.7517 N   0  0  0  0  0  0  0  0  0  0  0  0
   26.5928  -21.9659  -15.6154 C   0  0  0  0  0  0  0  0  0  0  0  0
   25.8577  -22.9816  -15.4812 O   0  0  0  0  0  0  0  0  0  0  0  0
   26.6322  -21.0376  -14.5536 N   0  0  0  0  0  0  0  0  0  0  0  0
   25.8720  -21.1914  -13.3041 C   0  0  1  0  0  0  0  0  0  0  0  0
   26.5931  -20.4614  -12.2264 C   0  0  0  0  0  0  0  0  0  0  0  0
   25.9568  -20.4875  -10.8981 C   0  0  0  0  0  0  0  0  0  0  0  0
   24.7880  -19.8088  -10.6585 C   0  0  0  0  0  0  0  0  0  0  0  0
   24.1653  -19.8114   -9.4117 C   0  0  0  0  0  0  0  0  0  0  0  0
   24.7263  -20.5127   -8.3734 C   0  0  0  0  0  0  0  0  0  0  0  0
   25.8987  -21.2016   -8.5892 C   0  0  0  0  0  0  0  0  0  0  0  0
   26.5010  -21.1864   -9.8338 C   0  0  0  0  0  0  0  0  0  0  0  0
   24.4690  -20.8449  -13.5167 C   0  0  0  0  0  0  0  0  0  0  0  0
   24.1940  -19.7448  -14.1135 O   0  0  0  0  0  0  0  0  0  0  0  0
   23.3485  -21.6263  -13.1216 N   0  0  0  0  0  0  0  0  0  0  0  0
   21.9617  -21.1675  -13.2706 C   0  0  1  0  0  0  0  0  0  0  0  0
   21.1478  -22.3341  -13.7699 C   0  0  0  0  0  0  0  0  0  0  0  0
   19.7400  -21.9800  -13.9637 C   0  0  0  0  0  0  0  0  0  0  0  0
   19.3832  -21.0986  -14.7758 O   0  0  0  0  0  0  0  0  0  0  0  0
   21.4012  -20.6635  -11.9905 C   0  0  0  0  0  0  0  0  0  0  0  0
   20.3883  -19.7273  -12.0555 O   0  0  0  0  0  0  0  0  0  0  0  0
   18.7279  -22.6183  -13.2423 O   0  0  0  0  0  0  0  0  0  0  0  0
   21.8073  -21.0504  -10.8797 O   0  0  0  0  0  0  0  0  0  0  0  0
  2  1  1  0
  3  5  1  0
  3  2  1  0
  3  4  1  6
  5  7  1  0
  6  5  2  0
  7  8  1  0
  8  9  1  1
  9 10  1  0
 10 11  2  0
 11 12  1  0
 13 12  2  0
 14 13  1  0
 15 10  1  0
 15 14  2  0
 16 17  2  0
 16  8  1  0
 18 16  1  0
 19 23  1  0
 19 18  1  0
 19 20  1  1
 21 22  2  0
 21 20  1  0
 23 24  1  0
 25 21  1  0
 26 23  2  0
M  END
$$$$
