SFD.pdb
     RDKit          3D

 26 26  0  0  1  0  0  0  0  0999 V2000
   25.9459  -20.1082  -17.9909 O   0  0  0  0  0  0  0  0  0  0  0  0
   27.2260  -19.9737  -17.4824 C   0  0  0  0  0  0  0  0  0  0  0  0
   27.7036  -21.2804  -16.8877 C   0  0  2  0  0  0  0  0  0  0  0  0
   27.6063  -22.3440  -17.8414 N   0  0  0  0  0  0  0  0  0  0  0  0
   26.8575  -21.6194  -15.7142 C   0  0  0  0  0  0  0  0  0  0  0  0
   26.0240  -22.5637  -15.7742 O   0  0  0  0  0  0  0  0  0  0  0  0
   26.9548  -20.9040  -14.5020 N   0  0  0  0  0  0  0  0  0  0  0  0
   26.0770  -21.1329  -13.3444 C   0  0  1  0  0  0  0  0  0  0  0  0
   26.6927  -20.4824  -12.1561 C   0  0  0  0  0  0  0  0  0  0  0  0
   25.9136  -20.5583  -10.9083 C   0  0  0  0  0  0  0  0  0  0  0  0
   26.1426  -21.5514   -9.9888 C   0  0  0  0  0  0  0  0  0  0  0  0
   25.4190  -21.6513   -8.8020 C   0  0  0  0  0  0  0  0  0  0  0  0
   24.4376  -20.7322   -8.5251 C   0  0  0  0  0  0  0  0  0  0  0  0
   24.1894  -19.7264   -9.4320 C   0  0  0  0  0  0  0  0  0  0  0  0
   24.9185  -19.6447  -10.6041 C   0  0  0  0  0  0  0  0  0  0  0  0
   24.7022  -20.7600  -13.6675 C   0  0  0  0  0  0  0  0  0  0  0  0
   24.4980  -19.6660  -14.3027 O   0  0  0  0  0  0  0  0  0  0  0  0
   23.5375  -21.5088  -13.3434 N   0  0  0  0  0  0  0  0  0  0  0  0
   22.1783  -21.0439  -13.6469 C   0  0  1  0  0  0  0  0  0  0  0  0
   21.5798  -22.0058  -14.6414 C   0  0  0  0  0  0  0  0  0  0  0  0
   20.2082  -21.6411  -15.0028 C   0  0  0  0  0  0  0  0  0  0  0  0
   19.8313  -20.4501  -15.0599 O   0  0  0  0  0  0  0  0  0  0  0  0
   21.3294  -20.9727  -12.4298 C   0  0  0  0  0  0  0  0  0  0  0  0
   20.1042  -20.3446  -12.5354 O   0  0  0  0  0  0  0  0  0  0  0  0
   19.2551  -22.6181  -15.3017 O   0  0  0  0  0  0  0  0  0  0  0  0
   21.6797  -21.4522  -11.3363 O   0  0  0  0  0  0  0  0  0  0  0  0
  2  1  1  0
  3  5  1  0
  3  2  1  0
  3  4  1  6
  5  7  1  0
  6  5  2  0
  7  8  1  0
  8  9  1  1
  9 10  1  0
 10 11  2  0
 11 12  1  0
 13 12  2  0
 14 13  1  0
 15 10  1  0
 15 14  2  0
 16 17  2  0
 16  8  1  0
 18 16  1  0
 19 23  1  0
 19 18  1  0
 19 20  1  6
 21 22  2  0
 21 20  1  0
 23 24  1  0
 25 21  1  0
 26 23  2  0
M  END
$$$$
