SFD.pdb
     RDKit          3D

 26 26  0  0  1  0  0  0  0  0999 V2000
   18.6097   -9.7286  -21.0617 O   0  0  0  0  0  0  0  0  0  0  0  0
   19.9745   -9.9575  -21.0595 C   0  0  0  0  0  0  0  0  0  0  0  0
   20.3508  -10.9280  -19.9615 C   0  0  2  0  0  0  0  0  0  0  0  0
   19.5630  -12.1212  -20.0393 N   0  0  0  0  0  0  0  0  0  0  0  0
   20.1097  -10.2881  -18.6423 C   0  0  0  0  0  0  0  0  0  0  0  0
   19.0875  -10.5795  -17.9639 O   0  0  0  0  0  0  0  0  0  0  0  0
   21.0068   -9.3404  -18.1059 N   0  0  0  0  0  0  0  0  0  0  0  0
   20.8144   -8.6746  -16.8088 C   0  0  1  0  0  0  0  0  0  0  0  0
   22.1041   -8.7152  -16.0676 C   0  0  0  0  0  0  0  0  0  0  0  0
   22.1162   -8.0289  -14.7644 C   0  0  0  0  0  0  0  0  0  0  0  0
   21.8636   -8.7122  -13.6010 C   0  0  0  0  0  0  0  0  0  0  0  0
   21.8640   -8.0894  -12.3542 C   0  0  0  0  0  0  0  0  0  0  0  0
   22.1245   -6.7443  -12.2667 C   0  0  0  0  0  0  0  0  0  0  0  0
   22.3810   -6.0372  -13.4199 C   0  0  0  0  0  0  0  0  0  0  0  0
   22.3759   -6.6738  -14.6474 C   0  0  0  0  0  0  0  0  0  0  0  0
   20.1977   -7.3640  -16.9967 C   0  0  0  0  0  0  0  0  0  0  0  0
   20.6277   -6.6154  -17.9437 O   0  0  0  0  0  0  0  0  0  0  0  0
   19.1389   -6.8217  -16.2176 N   0  0  0  0  0  0  0  0  0  0  0  0
   18.6321   -5.4555  -16.3982 C   0  0  1  0  0  0  0  0  0  0  0  0
   17.2020   -5.5586  -16.8637 C   0  0  0  0  0  0  0  0  0  0  0  0
   16.5927   -4.2422  -17.0654 C   0  0  0  0  0  0  0  0  0  0  0  0
   17.2201   -3.1812  -16.8541 O   0  0  0  0  0  0  0  0  0  0  0  0
   18.7056   -4.6638  -15.1433 C   0  0  0  0  0  0  0  0  0  0  0  0
   18.6657   -5.3502  -13.9458 O   0  0  0  0  0  0  0  0  0  0  0  0
   15.2730   -4.1160  -17.5063 O   0  0  0  0  0  0  0  0  0  0  0  0
   18.8003   -3.4231  -15.1353 O   0  0  0  0  0  0  0  0  0  0  0  0
  2  1  1  0
  3  5  1  0
  3  2  1  0
  3  4  1  1
  5  7  1  0
  6  5  2  0
  7  8  1  0
  8  9  1  6
  9 10  1  0
 10 11  2  0
 11 12  1  0
 13 12  2  0
 14 13  1  0
 15 10  1  0
 15 14  2  0
 16 17  2  0
 16  8  1  0
 18 16  1  0
 19 23  1  0
 19 18  1  0
 19 20  1  1
 21 22  2  0
 21 20  1  0
 23 24  1  0
 25 21  1  0
 26 23  2  0
M  END
$$$$
