SFD.pdb
     RDKit          3D

 26 26  0  0  1  0  0  0  0  0999 V2000
   16.4396   -9.8853  -19.3360 O   0  0  0  0  0  0  0  0  0  0  0  0
   17.6327  -10.5824  -19.4115 C   0  0  0  0  0  0  0  0  0  0  0  0
   17.8806  -11.3552  -18.1346 C   0  0  2  0  0  0  0  0  0  0  0  0
   16.7608  -12.1879  -17.8133 N   0  0  0  0  0  0  0  0  0  0  0  0
   18.0922  -10.3971  -17.0188 C   0  0  0  0  0  0  0  0  0  0  0  0
   17.2745  -10.3353  -16.0610 O   0  0  0  0  0  0  0  0  0  0  0  0
   19.2049   -9.5300  -16.9907 N   0  0  0  0  0  0  0  0  0  0  0  0
   19.4448   -8.5413  -15.9287 C   0  0  1  0  0  0  0  0  0  0  0  0
   20.8180   -8.7527  -15.3960 C   0  0  0  0  0  0  0  0  0  0  0  0
   21.2880   -7.7537  -14.4209 C   0  0  0  0  0  0  0  0  0  0  0  0
   22.0143   -6.6598  -14.8208 C   0  0  0  0  0  0  0  0  0  0  0  0
   22.4759   -5.7006  -13.9213 C   0  0  0  0  0  0  0  0  0  0  0  0
   22.2041   -5.8379  -12.5826 C   0  0  0  0  0  0  0  0  0  0  0  0
   21.4770   -6.9269  -12.1570 C   0  0  0  0  0  0  0  0  0  0  0  0
   21.0280   -7.8676  -13.0656 C   0  0  0  0  0  0  0  0  0  0  0  0
   19.1151   -7.1988  -16.4002 C   0  0  0  0  0  0  0  0  0  0  0  0
   19.5279   -6.8384  -17.5585 O   0  0  0  0  0  0  0  0  0  0  0  0
   18.3600   -6.2271  -15.6875 N   0  0  0  0  0  0  0  0  0  0  0  0
   18.1653   -4.8543  -16.1704 C   0  0  1  0  0  0  0  0  0  0  0  0
   16.7341   -4.4723  -15.8907 C   0  0  0  0  0  0  0  0  0  0  0  0
   16.4139   -3.1339  -16.3919 C   0  0  0  0  0  0  0  0  0  0  0  0
   16.6786   -2.7828  -17.5626 O   0  0  0  0  0  0  0  0  0  0  0  0
   19.0888   -3.8957  -15.5106 C   0  0  0  0  0  0  0  0  0  0  0  0
   19.4543   -2.7655  -16.2147 O   0  0  0  0  0  0  0  0  0  0  0  0
   15.7934   -2.1853  -15.5752 O   0  0  0  0  0  0  0  0  0  0  0  0
   19.5366   -4.0742  -14.3634 O   0  0  0  0  0  0  0  0  0  0  0  0
  2  1  1  0
  3  5  1  0
  3  2  1  0
  3  4  1  1
  5  7  1  0
  6  5  2  0
  7  8  1  0
  8  9  1  6
  9 10  1  0
 10 11  2  0
 11 12  1  0
 13 12  2  0
 14 13  1  0
 15 10  1  0
 15 14  2  0
 16 17  2  0
 16  8  1  0
 18 16  1  0
 19 23  1  0
 19 18  1  0
 19 20  1  1
 21 22  2  0
 21 20  1  0
 23 24  1  0
 25 21  1  0
 26 23  2  0
M  END
$$$$
