SFD.pdb
     RDKit          3D

 26 26  0  0  1  0  0  0  0  0999 V2000
   25.9529  -19.6975  -16.6706 O   0  0  0  0  0  0  0  0  0  0  0  0
   27.2773  -19.8350  -16.2936 C   0  0  0  0  0  0  0  0  0  0  0  0
   27.5425  -21.2323  -15.7772 C   0  0  2  0  0  0  0  0  0  0  0  0
   27.2125  -22.2153  -16.7647 N   0  0  0  0  0  0  0  0  0  0  0  0
   26.7062  -21.4732  -14.5729 C   0  0  0  0  0  0  0  0  0  0  0  0
   25.6061  -22.0823  -14.6659 O   0  0  0  0  0  0  0  0  0  0  0  0
   27.1087  -21.0337  -13.2940 N   0  0  0  0  0  0  0  0  0  0  0  0
   26.2794  -21.1627  -12.0863 C   0  0  1  0  0  0  0  0  0  0  0  0
   27.1342  -20.8816  -10.9012 C   0  0  0  0  0  0  0  0  0  0  0  0
   26.4247  -20.7414   -9.6180 C   0  0  0  0  0  0  0  0  0  0  0  0
   25.4453  -21.6295   -9.2488 C   0  0  0  0  0  0  0  0  0  0  0  0
   24.7541  -21.5201   -8.0435 C   0  0  0  0  0  0  0  0  0  0  0  0
   25.0498  -20.4935   -7.1814 C   0  0  0  0  0  0  0  0  0  0  0  0
   26.0287  -19.5899   -7.5295 C   0  0  0  0  0  0  0  0  0  0  0  0
   26.7030  -19.7159   -8.7302 C   0  0  0  0  0  0  0  0  0  0  0  0
   25.0558  -20.3770  -12.2237 C   0  0  0  0  0  0  0  0  0  0  0  0
   25.1575  -19.1262  -12.4825 O   0  0  0  0  0  0  0  0  0  0  0  0
   23.7287  -20.8727  -12.0994 N   0  0  0  0  0  0  0  0  0  0  0  0
   22.5425  -20.0116  -12.1856 C   0  0  1  0  0  0  0  0  0  0  0  0
   22.2603  -19.7709  -13.6467 C   0  0  0  0  0  0  0  0  0  0  0  0
   21.8331  -20.9920  -14.3331 C   0  0  0  0  0  0  0  0  0  0  0  0
   20.6265  -21.2546  -14.5309 O   0  0  0  0  0  0  0  0  0  0  0  0
   21.3593  -20.6265  -11.5308 C   0  0  0  0  0  0  0  0  0  0  0  0
   21.4805  -21.9217  -11.0675 O   0  0  0  0  0  0  0  0  0  0  0  0
   22.7647  -21.9229  -14.7997 O   0  0  0  0  0  0  0  0  0  0  0  0
   20.2802  -20.0234  -11.3882 O   0  0  0  0  0  0  0  0  0  0  0  0
  2  1  1  0
  3  5  1  0
  3  2  1  0
  3  4  1  6
  5  7  1  0
  6  5  2  0
  7  8  1  0
  8  9  1  1
  9 10  1  0
 10 11  2  0
 11 12  1  0
 13 12  2  0
 14 13  1  0
 15 10  1  0
 15 14  2  0
 16 17  2  0
 16  8  1  0
 18 16  1  0
 19 23  1  0
 19 18  1  0
 19 20  1  6
 21 22  2  0
 21 20  1  0
 23 24  1  0
 25 21  1  0
 26 23  2  0
M  END
$$$$
