SFD.pdb
     RDKit          3D

 26 26  0  0  1  0  0  0  0  0999 V2000
   25.6872  -16.9477  -17.0141 O   0  0  0  0  0  0  0  0  0  0  0  0
   26.5649  -16.6527  -15.9857 C   0  0  0  0  0  0  0  0  0  0  0  0
   27.5392  -17.7907  -15.7731 C   0  0  2  0  0  0  0  0  0  0  0  0
   28.1973  -18.1379  -16.9966 N   0  0  0  0  0  0  0  0  0  0  0  0
   26.7979  -18.9808  -15.2813 C   0  0  0  0  0  0  0  0  0  0  0  0
   26.6398  -19.9901  -16.0204 O   0  0  0  0  0  0  0  0  0  0  0  0
   26.2494  -19.0246  -13.9821 N   0  0  0  0  0  0  0  0  0  0  0  0
   25.6321  -20.2233  -13.3948 C   0  0  1  0  0  0  0  0  0  0  0  0
   26.2789  -20.4849  -12.0805 C   0  0  0  0  0  0  0  0  0  0  0  0
   27.7101  -20.8303  -12.1280 C   0  0  0  0  0  0  0  0  0  0  0  0
   28.6683  -19.9405  -11.7106 C   0  0  0  0  0  0  0  0  0  0  0  0
   30.0295  -20.2372  -11.7477 C   0  0  0  0  0  0  0  0  0  0  0  0
   30.4461  -21.4588  -12.2154 C   0  0  0  0  0  0  0  0  0  0  0  0
   29.5036  -22.3684  -12.6397 C   0  0  0  0  0  0  0  0  0  0  0  0
   28.1577  -22.0546  -12.5949 C   0  0  0  0  0  0  0  0  0  0  0  0
   24.1764  -20.1028  -13.4060 C   0  0  0  0  0  0  0  0  0  0  0  0
   23.6561  -18.9507  -13.1960 O   0  0  0  0  0  0  0  0  0  0  0  0
   23.2543  -21.1607  -13.6357 N   0  0  0  0  0  0  0  0  0  0  0  0
   21.8448  -20.9322  -13.9775 C   0  0  1  0  0  0  0  0  0  0  0  0
   21.8064  -20.2733  -15.3328 C   0  0  0  0  0  0  0  0  0  0  0  0
   21.1180  -18.9811  -15.2972 C   0  0  0  0  0  0  0  0  0  0  0  0
   20.7014  -18.4805  -14.2296 O   0  0  0  0  0  0  0  0  0  0  0  0
   21.0656  -22.1968  -14.0015 C   0  0  0  0  0  0  0  0  0  0  0  0
   19.9740  -22.2964  -13.1616 O   0  0  0  0  0  0  0  0  0  0  0  0
   20.8963  -18.2474  -16.4653 O   0  0  0  0  0  0  0  0  0  0  0  0
   21.3588  -23.1537  -14.7410 O   0  0  0  0  0  0  0  0  0  0  0  0
  2  1  1  0
  3  5  1  0
  3  2  1  0
  3  4  1  6
  5  7  1  0
  6  5  2  0
  7  8  1  0
  8  9  1  1
  9 10  1  0
 10 11  2  0
 11 12  1  0
 13 12  2  0
 14 13  1  0
 15 10  1  0
 15 14  2  0
 16 17  2  0
 16  8  1  0
 18 16  1  0
 19 23  1  0
 19 18  1  0
 19 20  1  6
 21 22  2  0
 21 20  1  0
 23 24  1  0
 25 21  1  0
 26 23  2  0
M  END
$$$$
