SFD.pdb
     RDKit          3D

 26 26  0  0  1  0  0  0  0  0999 V2000
   26.7397  -19.5007  -13.7383 O   0  0  0  0  0  0  0  0  0  0  0  0
   28.1081  -19.6476  -13.5941 C   0  0  0  0  0  0  0  0  0  0  0  0
   28.4511  -21.0586  -13.1690 C   0  0  2  0  0  0  0  0  0  0  0  0
   27.8944  -22.0171  -14.0754 N   0  0  0  0  0  0  0  0  0  0  0  0
   27.8923  -21.3087  -11.8151 C   0  0  0  0  0  0  0  0  0  0  0  0
   26.8741  -22.0371  -11.6647 O   0  0  0  0  0  0  0  0  0  0  0  0
   28.4749  -20.7459  -10.6599 N   0  0  0  0  0  0  0  0  0  0  0  0
   27.8870  -20.8462   -9.3156 C   0  0  1  0  0  0  0  0  0  0  0  0
   28.8704  -20.3112   -8.3352 C   0  0  0  0  0  0  0  0  0  0  0  0
   28.3932  -20.1963   -6.9464 C   0  0  0  0  0  0  0  0  0  0  0  0
   27.6771  -19.1014   -6.5311 C   0  0  0  0  0  0  0  0  0  0  0  0
   27.2162  -18.9629   -5.2232 C   0  0  0  0  0  0  0  0  0  0  0  0
   27.4782  -19.9471   -4.3027 C   0  0  0  0  0  0  0  0  0  0  0  0
   28.1947  -21.0554   -4.6954 C   0  0  0  0  0  0  0  0  0  0  0  0
   28.6432  -21.1738   -5.9981 C   0  0  0  0  0  0  0  0  0  0  0  0
   26.5491  -20.2604   -9.3009 C   0  0  0  0  0  0  0  0  0  0  0  0
   26.3647  -19.1407   -9.8962 O   0  0  0  0  0  0  0  0  0  0  0  0
   25.3999  -20.8226   -8.6800 N   0  0  0  0  0  0  0  0  0  0  0  0
   24.0287  -20.4513   -9.0512 C   0  0  1  0  0  0  0  0  0  0  0  0
   23.8171  -20.8668  -10.4848 C   0  0  0  0  0  0  0  0  0  0  0  0
   22.4404  -20.6350  -10.9274 C   0  0  0  0  0  0  0  0  0  0  0  0
   21.5962  -21.5561  -10.9796 O   0  0  0  0  0  0  0  0  0  0  0  0
   23.0195  -21.1015   -8.1761 C   0  0  0  0  0  0  0  0  0  0  0  0
   23.4769  -21.9369   -7.1763 O   0  0  0  0  0  0  0  0  0  0  0  0
   22.0093  -19.3632  -11.3132 O   0  0  0  0  0  0  0  0  0  0  0  0
   21.7957  -20.9214   -8.3117 O   0  0  0  0  0  0  0  0  0  0  0  0
  2  1  1  0
  3  5  1  0
  3  2  1  0
  3  4  1  6
  5  7  1  0
  6  5  2  0
  7  8  1  0
  8  9  1  1
  9 10  1  0
 10 11  2  0
 11 12  1  0
 13 12  2  0
 14 13  1  0
 15 10  1  0
 15 14  2  0
 16 17  2  0
 16  8  1  0
 18 16  1  0
 19 23  1  0
 19 18  1  0
 19 20  1  6
 21 22  2  0
 21 20  1  0
 23 24  1  0
 25 21  1  0
 26 23  2  0
M  END
$$$$
