SFD.pdb
     RDKit          3D

 26 26  0  0  1  0  0  0  0  0999 V2000
   22.1064   -7.9065    9.4787 O   0  0  0  0  0  0  0  0  0  0  0  0
   23.4608   -8.1399    9.3169 C   0  0  0  0  0  0  0  0  0  0  0  0
   23.7533   -8.6344    7.9172 C   0  0  2  0  0  0  0  0  0  0  0  0
   23.3301   -9.9926    7.7541 N   0  0  0  0  0  0  0  0  0  0  0  0
   25.2170   -8.5630    7.6715 C   0  0  0  0  0  0  0  0  0  0  0  0
   25.9614   -9.5463    7.9339 O   0  0  0  0  0  0  0  0  0  0  0  0
   25.8213   -7.4037    7.1409 N   0  0  0  0  0  0  0  0  0  0  0  0
   27.2684   -7.2641    6.9189 C   0  0  1  0  0  0  0  0  0  0  0  0
   27.4762   -6.4039    5.7226 C   0  0  0  0  0  0  0  0  0  0  0  0
   28.8782   -6.1061    5.3831 C   0  0  0  0  0  0  0  0  0  0  0  0
   29.2565   -4.8533    4.9689 C   0  0  0  0  0  0  0  0  0  0  0  0
   30.5740   -4.5428    4.6369 C   0  0  0  0  0  0  0  0  0  0  0  0
   31.5424   -5.5122    4.7212 C   0  0  0  0  0  0  0  0  0  0  0  0
   31.1875   -6.7767    5.1345 C   0  0  0  0  0  0  0  0  0  0  0  0
   29.8746   -7.0646    5.4593 C   0  0  0  0  0  0  0  0  0  0  0  0
   27.9350   -6.8570    8.1532 C   0  0  0  0  0  0  0  0  0  0  0  0
   27.3407   -6.0229    8.9232 O   0  0  0  0  0  0  0  0  0  0  0  0
   29.2079   -7.3066    8.6003 N   0  0  0  0  0  0  0  0  0  0  0  0
   29.8454   -6.8104    9.8264 C   0  0  1  0  0  0  0  0  0  0  0  0
   29.6243   -7.8418   10.9034 C   0  0  0  0  0  0  0  0  0  0  0  0
   29.9934   -7.3406   12.2292 C   0  0  0  0  0  0  0  0  0  0  0  0
   29.9375   -6.1253   12.5184 O   0  0  0  0  0  0  0  0  0  0  0  0
   31.2994   -6.5695    9.6398 C   0  0  0  0  0  0  0  0  0  0  0  0
   31.8285   -5.3995   10.1475 O   0  0  0  0  0  0  0  0  0  0  0  0
   30.4271   -8.2079   13.2350 O   0  0  0  0  0  0  0  0  0  0  0  0
   32.0444   -7.3737    9.0508 O   0  0  0  0  0  0  0  0  0  0  0  0
  2  1  1  0
  3  5  1  0
  3  2  1  0
  3  4  1  1
  5  7  1  0
  6  5  2  0
  7  8  1  0
  8  9  1  6
  9 10  1  0
 10 11  2  0
 11 12  1  0
 13 12  2  0
 14 13  1  0
 15 10  1  0
 15 14  2  0
 16 17  2  0
 16  8  1  0
 18 16  1  0
 19 23  1  0
 19 18  1  0
 19 20  1  1
 21 22  2  0
 21 20  1  0
 23 24  1  0
 25 21  1  0
 26 23  2  0
M  END
$$$$
