SFD.pdb
     RDKit          3D

 26 26  0  0  1  0  0  0  0  0999 V2000
   24.0518  -11.9428  -18.5917 O   0  0  0  0  0  0  0  0  0  0  0  0
   23.1665  -11.5705  -17.5953 C   0  0  0  0  0  0  0  0  0  0  0  0
   23.4874  -10.1815  -17.0884 C   0  0  2  0  0  0  0  0  0  0  0  0
   24.6933  -10.1832  -16.3163 N   0  0  0  0  0  0  0  0  0  0  0  0
   22.3743   -9.7091  -16.2249 C   0  0  0  0  0  0  0  0  0  0  0  0
   22.3894   -9.9234  -14.9824 O   0  0  0  0  0  0  0  0  0  0  0  0
   21.2708   -9.0104  -16.7585 N   0  0  0  0  0  0  0  0  0  0  0  0
   20.1220   -8.5613  -15.9575 C   0  0  1  0  0  0  0  0  0  0  0  0
   20.0249   -7.0807  -16.0702 C   0  0  0  0  0  0  0  0  0  0  0  0
   20.9740   -6.3117  -15.2469 C   0  0  0  0  0  0  0  0  0  0  0  0
   20.8326   -6.2388  -13.8836 C   0  0  0  0  0  0  0  0  0  0  0  0
   21.7118   -5.5160  -13.0793 C   0  0  0  0  0  0  0  0  0  0  0  0
   22.7635   -4.8461  -13.6537 C   0  0  0  0  0  0  0  0  0  0  0  0
   22.9265   -4.9044  -15.0197 C   0  0  0  0  0  0  0  0  0  0  0  0
   22.0430   -5.6272  -15.8001 C   0  0  0  0  0  0  0  0  0  0  0  0
   18.9303   -9.3328  -16.3010 C   0  0  0  0  0  0  0  0  0  0  0  0
   18.5351   -9.3383  -17.5199 O   0  0  0  0  0  0  0  0  0  0  0  0
   18.1457  -10.1010  -15.3974 N   0  0  0  0  0  0  0  0  0  0  0  0
   16.9255  -10.8103  -15.8020 C   0  0  1  0  0  0  0  0  0  0  0  0
   16.8530  -12.0848  -15.0001 C   0  0  0  0  0  0  0  0  0  0  0  0
   15.7110  -12.9153  -15.3889 C   0  0  0  0  0  0  0  0  0  0  0  0
   14.9307  -12.5824  -16.3076 O   0  0  0  0  0  0  0  0  0  0  0  0
   15.7055   -9.9936  -15.5754 C   0  0  0  0  0  0  0  0  0  0  0  0
   14.7193  -10.0277  -16.5413 O   0  0  0  0  0  0  0  0  0  0  0  0
   15.4438  -14.1252  -14.7432 O   0  0  0  0  0  0  0  0  0  0  0  0
   15.5451   -9.2911  -14.5609 O   0  0  0  0  0  0  0  0  0  0  0  0
  2  1  1  0
  3  5  1  0
  3  2  1  0
  3  4  1  1
  5  7  1  0
  6  5  2  0
  7  8  1  0
  8  9  1  6
  9 10  1  0
 10 11  2  0
 11 12  1  0
 13 12  2  0
 14 13  1  0
 15 10  1  0
 15 14  2  0
 16 17  2  0
 16  8  1  0
 18 16  1  0
 19 23  1  0
 19 18  1  0
 19 20  1  1
 21 22  2  0
 21 20  1  0
 23 24  1  0
 25 21  1  0
 26 23  2  0
M  END
$$$$
