FKV.pdb
     RDKit          3D

 28 28  0  0  1  0  0  0  0  0999 V2000
   28.3810  -21.3648  -10.4536 N   0  0  0  0  0  0  0  0  0  0  0  0
   26.9922  -20.9722  -10.2771 C   0  0  1  0  0  0  0  0  0  0  0  0
   26.9709  -19.7258   -9.4698 C   0  0  0  0  0  0  0  0  0  0  0  0
   27.4920  -19.8147   -8.1170 C   0  0  0  0  0  0  0  0  0  0  0  0
   26.6109  -20.2016   -7.1138 C   0  0  0  0  0  0  0  0  0  0  0  0
   27.0190  -20.3129   -5.8064 C   0  0  0  0  0  0  0  0  0  0  0  0
   28.3095  -20.0457   -5.4488 C   0  0  0  0  0  0  0  0  0  0  0  0
   29.1956  -19.6614   -6.4280 C   0  0  0  0  0  0  0  0  0  0  0  0
   28.7817  -19.5520   -7.7331 C   0  0  0  0  0  0  0  0  0  0  0  0
   26.3066  -20.8354  -11.6024 C   0  0  0  0  0  0  0  0  0  0  0  0
   26.7988  -20.0991  -12.4863 O   0  0  0  0  0  0  0  0  0  0  0  0
   25.1172  -21.4989  -11.9203 N   0  0  0  0  0  0  0  0  0  0  0  0
   24.3676  -21.6067  -13.0990 C   0  0  1  0  0  0  0  0  0  0  0  0
   24.2398  -22.9104  -13.8136 C   0  0  0  0  0  0  0  0  0  0  0  0
   25.5130  -23.3559  -14.4768 C   0  0  0  0  0  0  0  0  0  0  0  0
   25.3784  -24.7395  -15.0857 C   0  0  0  0  0  0  0  0  0  0  0  0
   26.7343  -25.0781  -15.7113 C   0  0  0  0  0  0  0  0  0  0  0  0
   26.7634  -26.4605  -16.1151 N   0  0  0  0  0  0  0  0  0  0  0  0
   23.0916  -20.9042  -12.9746 C   0  0  0  0  0  0  0  0  0  0  0  0
   22.5567  -20.8252  -11.8193 O   0  0  0  0  0  0  0  0  0  0  0  0
   22.0423  -17.3675  -14.1834 C   0  0  0  0  0  0  0  0  0  0  0  0
   20.9991  -18.3521  -14.5888 C   0  0  1  0  0  0  0  0  0  0  0  0
   21.0988  -18.5808  -16.0767 C   0  0  0  0  0  0  0  0  0  0  0  0
   21.0732  -19.6465  -13.8144 C   0  0  2  0  0  0  0  0  0  0  0  0
   22.3604  -20.2844  -14.0133 N   0  0  0  0  0  0  0  0  0  0  0  0
   19.9611  -20.5519  -14.0941 C   0  0  0  0  0  0  0  0  0  0  0  0
   20.0129  -21.5306  -14.8779 O   0  0  0  0  0  0  0  0  0  0  0  0
   18.7206  -20.3497  -13.4598 O   0  0  0  0  0  0  0  0  0  0  0  0
  2  1  1  6
  3  4  1  0
  3  2  1  0
  4  5  2  0
  5  6  1  0
  7  6  2  0
  8  7  1  0
  9  4  1  0
  9  8  2  0
 10  2  1  0
 10 11  2  0
 12 10  1  0
 13 12  1  0
 13 14  1  1
 14 15  1  0
 15 16  1  0
 17 16  1  0
 18 17  1  0
 19 13  1  0
 20 19  2  0
 22 21  1  1
 23 22  1  0
 24 22  1  0
 24 25  1  6
 25 19  1  0
 26 28  1  0
 26 24  1  0
 27 26  2  0
M  END
$$$$
