FKV.pdb
     RDKit          3D

 28 28  0  0  1  0  0  0  0  0999 V2000
   25.0883  -19.8665   -8.0203 N   0  0  0  0  0  0  0  0  0  0  0  0
   26.2230  -20.2482   -8.8454 C   0  0  1  0  0  0  0  0  0  0  0  0
   27.0898  -21.1456   -8.0398 C   0  0  0  0  0  0  0  0  0  0  0  0
   27.8947  -20.5204   -7.0051 C   0  0  0  0  0  0  0  0  0  0  0  0
   29.2213  -20.9207   -6.8940 C   0  0  0  0  0  0  0  0  0  0  0  0
   30.0548  -20.3809   -5.9442 C   0  0  0  0  0  0  0  0  0  0  0  0
   29.6046  -19.4292   -5.0746 C   0  0  0  0  0  0  0  0  0  0  0  0
   28.2947  -19.0206   -5.1695 C   0  0  0  0  0  0  0  0  0  0  0  0
   27.4665  -19.5640   -6.1211 C   0  0  0  0  0  0  0  0  0  0  0  0
   25.7613  -20.8627  -10.1317 C   0  0  0  0  0  0  0  0  0  0  0  0
   24.6456  -21.4263  -10.1886 O   0  0  0  0  0  0  0  0  0  0  0  0
   26.5225  -20.8440  -11.3048 N   0  0  0  0  0  0  0  0  0  0  0  0
   26.3008  -20.3092  -12.5806 C   0  0  1  0  0  0  0  0  0  0  0  0
   27.4400  -19.8888  -13.4478 C   0  0  0  0  0  0  0  0  0  0  0  0
   27.0073  -19.3349  -14.7764 C   0  0  0  0  0  0  0  0  0  0  0  0
   28.1937  -18.9593  -15.6451 C   0  0  0  0  0  0  0  0  0  0  0  0
   27.6235  -18.3349  -16.9216 C   0  0  0  0  0  0  0  0  0  0  0  0
   28.6921  -17.8537  -17.7591 N   0  0  0  0  0  0  0  0  0  0  0  0
   25.2956  -21.0839  -13.3061 C   0  0  0  0  0  0  0  0  0  0  0  0
   25.5369  -22.3140  -13.5421 O   0  0  0  0  0  0  0  0  0  0  0  0
   21.7266  -21.6733  -12.3699 C   0  0  0  0  0  0  0  0  0  0  0  0
   21.7264  -21.3288  -13.8202 C   0  0  1  0  0  0  0  0  0  0  0  0
   21.1618  -19.9400  -13.9896 C   0  0  0  0  0  0  0  0  0  0  0  0
   23.0865  -21.4652  -14.4619 C   0  0  2  0  0  0  0  0  0  0  0  0
   24.0525  -20.6171  -13.7903 N   0  0  0  0  0  0  0  0  0  0  0  0
   23.0694  -21.2433  -15.9060 C   0  0  0  0  0  0  0  0  0  0  0  0
   23.3996  -20.1724  -16.4709 O   0  0  0  0  0  0  0  0  0  0  0  0
   22.6590  -22.2795  -16.7661 O   0  0  0  0  0  0  0  0  0  0  0  0
  2  1  1  1
  3  4  1  0
  3  2  1  0
  4  5  2  0
  5  6  1  0
  7  6  2  0
  8  7  1  0
  9  4  1  0
  9  8  2  0
 10  2  1  0
 10 11  2  0
 12 10  1  0
 13 12  1  0
 13 14  1  6
 14 15  1  0
 15 16  1  0
 17 16  1  0
 18 17  1  0
 19 13  1  0
 20 19  2  0
 22 21  1  1
 23 22  1  0
 24 22  1  0
 24 25  1  1
 25 19  1  0
 26 28  1  0
 26 24  1  0
 27 26  2  0
M  END
$$$$
