FKV.pdb
     RDKit          3D

 28 28  0  0  1  0  0  0  0  0999 V2000
   29.0606  -19.5985  -13.1542 N   0  0  0  0  0  0  0  0  0  0  0  0
   28.0789  -20.6447  -12.9179 C   0  0  1  0  0  0  0  0  0  0  0  0
   28.2069  -21.0775  -11.5030 C   0  0  0  0  0  0  0  0  0  0  0  0
   29.5085  -21.5681  -11.0852 C   0  0  0  0  0  0  0  0  0  0  0  0
   30.2652  -22.2604  -12.0235 C   0  0  0  0  0  0  0  0  0  0  0  0
   31.5081  -22.7585  -11.7143 C   0  0  0  0  0  0  0  0  0  0  0  0
   32.0423  -22.5885  -10.4692 C   0  0  0  0  0  0  0  0  0  0  0  0
   31.3081  -21.9060   -9.5276 C   0  0  0  0  0  0  0  0  0  0  0  0
   30.0664  -21.4105   -9.8427 C   0  0  0  0  0  0  0  0  0  0  0  0
   26.7024  -20.1715  -13.2740 C   0  0  0  0  0  0  0  0  0  0  0  0
   26.1956  -19.2072  -12.6585 O   0  0  0  0  0  0  0  0  0  0  0  0
   25.9284  -20.7583  -14.2803 N   0  0  0  0  0  0  0  0  0  0  0  0
   24.6634  -20.4663  -14.8070 C   0  0  1  0  0  0  0  0  0  0  0  0
   24.3701  -20.6593  -16.2573 C   0  0  0  0  0  0  0  0  0  0  0  0
   22.9777  -20.2471  -16.6455 C   0  0  0  0  0  0  0  0  0  0  0  0
   22.9852  -19.1454  -17.6894 C   0  0  0  0  0  0  0  0  0  0  0  0
   21.5236  -18.7567  -17.9285 C   0  0  0  0  0  0  0  0  0  0  0  0
   21.4331  -17.8039  -19.0050 N   0  0  0  0  0  0  0  0  0  0  0  0
   23.6039  -20.9846  -13.9433 C   0  0  0  0  0  0  0  0  0  0  0  0
   23.7115  -22.1782  -13.5068 O   0  0  0  0  0  0  0  0  0  0  0  0
   22.6149  -19.9846  -10.6150 C   0  0  0  0  0  0  0  0  0  0  0  0
   21.3324  -20.0713  -11.3699 C   0  0  1  0  0  0  0  0  0  0  0  0
   20.8289  -18.6740  -11.6345 C   0  0  0  0  0  0  0  0  0  0  0  0
   21.4466  -20.8783  -12.6412 C   0  0  2  0  0  0  0  0  0  0  0  0
   22.4416  -20.2990  -13.5230 N   0  0  0  0  0  0  0  0  0  0  0  0
   20.1657  -21.0808  -13.3144 C   0  0  0  0  0  0  0  0  0  0  0  0
   19.8520  -20.5843  -14.4234 O   0  0  0  0  0  0  0  0  0  0  0  0
   19.1801  -21.8851  -12.7111 O   0  0  0  0  0  0  0  0  0  0  0  0
  2  1  1  1
  3  4  1  0
  3  2  1  0
  4  5  2  0
  5  6  1  0
  7  6  2  0
  8  7  1  0
  9  4  1  0
  9  8  2  0
 10  2  1  0
 10 11  2  0
 12 10  1  0
 13 12  1  0
 13 14  1  6
 14 15  1  0
 15 16  1  0
 17 16  1  0
 18 17  1  0
 19 13  1  0
 20 19  2  0
 22 21  1  6
 23 22  1  0
 24 22  1  0
 24 25  1  6
 25 19  1  0
 26 28  1  0
 26 24  1  0
 27 26  2  0
M  END
$$$$
