FKV.pdb
     RDKit          3D

 28 28  0  0  1  0  0  0  0  0999 V2000
   24.7695  -18.0743  -19.2986 N   0  0  0  0  0  0  0  0  0  0  0  0
   23.3381  -18.2022  -19.5191 C   0  0  1  0  0  0  0  0  0  0  0  0
   23.0408  -19.6380  -19.7554 C   0  0  0  0  0  0  0  0  0  0  0  0
   23.2079  -20.1249  -21.1134 C   0  0  0  0  0  0  0  0  0  0  0  0
   24.2146  -21.0557  -21.3425 C   0  0  0  0  0  0  0  0  0  0  0  0
   24.4422  -21.5702  -22.5962 C   0  0  0  0  0  0  0  0  0  0  0  0
   23.6830  -21.1817  -23.6627 C   0  0  0  0  0  0  0  0  0  0  0  0
   22.6822  -20.2614  -23.4552 C   0  0  0  0  0  0  0  0  0  0  0  0
   22.4596  -19.7508  -22.1997 C   0  0  0  0  0  0  0  0  0  0  0  0
   22.5699  -17.6152  -18.3743 C   0  0  0  0  0  0  0  0  0  0  0  0
   23.0088  -17.7237  -17.2076 O   0  0  0  0  0  0  0  0  0  0  0  0
   21.3587  -16.9346  -18.5350 N   0  0  0  0  0  0  0  0  0  0  0  0
   20.4934  -16.2968  -17.6365 C   0  0  1  0  0  0  0  0  0  0  0  0
   19.5973  -15.1908  -18.0840 C   0  0  0  0  0  0  0  0  0  0  0  0
   18.8197  -14.5605  -16.9627 C   0  0  0  0  0  0  0  0  0  0  0  0
   17.8752  -13.4843  -17.4657 C   0  0  0  0  0  0  0  0  0  0  0  0
   17.2034  -12.8771  -16.2309 C   0  0  0  0  0  0  0  0  0  0  0  0
   16.1534  -11.9754  -16.6299 N   0  0  0  0  0  0  0  0  0  0  0  0
   19.8073  -17.2707  -16.7890 C   0  0  0  0  0  0  0  0  0  0  0  0
   19.1077  -18.1751  -17.3542 O   0  0  0  0  0  0  0  0  0  0  0  0
   21.2823  -19.0625  -13.5468 C   0  0  0  0  0  0  0  0  0  0  0  0
   19.8716  -18.6350  -13.3246 C   0  0  1  0  0  0  0  0  0  0  0  0
   19.8641  -17.4511  -12.3895 C   0  0  0  0  0  0  0  0  0  0  0  0
   19.1319  -18.3427  -14.6083 C   0  0  2  0  0  0  0  0  0  0  0  0
   19.8291  -17.3297  -15.3770 N   0  0  0  0  0  0  0  0  0  0  0  0
   17.7254  -18.0054  -14.4011 C   0  0  0  0  0  0  0  0  0  0  0  0
   17.2369  -16.8566  -14.5302 O   0  0  0  0  0  0  0  0  0  0  0  0
   16.8144  -19.0119  -14.0281 O   0  0  0  0  0  0  0  0  0  0  0  0
  2  1  1  1
  3  4  1  0
  3  2  1  0
  4  5  2  0
  5  6  1  0
  7  6  2  0
  8  7  1  0
  9  4  1  0
  9  8  2  0
 10  2  1  0
 10 11  2  0
 12 10  1  0
 13 12  1  0
 13 14  1  6
 14 15  1  0
 15 16  1  0
 17 16  1  0
 18 17  1  0
 19 13  1  0
 20 19  2  0
 22 21  1  6
 23 22  1  0
 24 22  1  0
 24 25  1  1
 25 19  1  0
 26 28  1  0
 26 24  1  0
 27 26  2  0
M  END
$$$$
