FKV.pdb
     RDKit          3D

 28 28  0  0  1  0  0  0  0  0999 V2000
   25.9205  -18.8872   -7.6881 N   0  0  0  0  0  0  0  0  0  0  0  0
   26.7497  -19.8062   -8.4510 C   0  0  1  0  0  0  0  0  0  0  0  0
   27.2340  -20.8595   -7.5228 C   0  0  0  0  0  0  0  0  0  0  0  0
   28.0693  -20.4227   -6.4178 C   0  0  0  0  0  0  0  0  0  0  0  0
   29.4052  -20.1518   -6.6907 C   0  0  0  0  0  0  0  0  0  0  0  0
   30.2664  -19.7326   -5.7054 C   0  0  0  0  0  0  0  0  0  0  0  0
   29.8356  -19.5678   -4.4202 C   0  0  0  0  0  0  0  0  0  0  0  0
   28.5170  -19.8311   -4.1312 C   0  0  0  0  0  0  0  0  0  0  0  0
   27.6610  -20.2499   -5.1204 C   0  0  0  0  0  0  0  0  0  0  0  0
   25.9969  -20.3490   -9.6274 C   0  0  0  0  0  0  0  0  0  0  0  0
   24.7487  -20.4270   -9.5872 O   0  0  0  0  0  0  0  0  0  0  0  0
   26.6217  -20.7856  -10.8000 N   0  0  0  0  0  0  0  0  0  0  0  0
   26.3291  -20.6168  -12.1597 C   0  0  1  0  0  0  0  0  0  0  0  0
   27.3989  -20.7149  -13.1953 C   0  0  0  0  0  0  0  0  0  0  0  0
   26.9012  -20.4762  -14.5934 C   0  0  0  0  0  0  0  0  0  0  0  0
   28.0062  -20.6365  -15.6213 C   0  0  0  0  0  0  0  0  0  0  0  0
   27.4055  -20.2509  -16.9759 C   0  0  0  0  0  0  0  0  0  0  0  0
   28.4062  -20.3458  -18.0078 N   0  0  0  0  0  0  0  0  0  0  0  0
   25.1175  -21.3464  -12.5294 C   0  0  0  0  0  0  0  0  0  0  0  0
   25.1116  -22.6145  -12.3923 O   0  0  0  0  0  0  0  0  0  0  0  0
   21.4953  -20.5903  -11.4150 C   0  0  0  0  0  0  0  0  0  0  0  0
   21.4917  -20.8823  -12.8768 C   0  0  1  0  0  0  0  0  0  0  0  0
   21.2593  -19.5951  -13.6287 C   0  0  0  0  0  0  0  0  0  0  0  0
   22.7425  -21.5882  -13.3431 C   0  0  2  0  0  0  0  0  0  0  0  0
   23.9177  -20.7962  -13.0350 N   0  0  0  0  0  0  0  0  0  0  0  0
   22.6954  -21.9787  -14.7503 C   0  0  0  0  0  0  0  0  0  0  0  0
   23.1242  -21.2826  -15.7024 O   0  0  0  0  0  0  0  0  0  0  0  0
   22.1363  -23.2193  -15.1116 O   0  0  0  0  0  0  0  0  0  0  0  0
  2  1  1  1
  3  4  1  0
  3  2  1  0
  4  5  2  0
  5  6  1  0
  7  6  2  0
  8  7  1  0
  9  4  1  0
  9  8  2  0
 10  2  1  0
 10 11  2  0
 12 10  1  0
 13 12  1  0
 13 14  1  6
 14 15  1  0
 15 16  1  0
 17 16  1  0
 18 17  1  0
 19 13  1  0
 20 19  2  0
 22 21  1  1
 23 22  1  0
 24 22  1  0
 24 25  1  6
 25 19  1  0
 26 28  1  0
 26 24  1  0
 27 26  2  0
M  END
$$$$
