FKV.pdb
     RDKit          3D

 28 28  0  0  1  0  0  0  0  0999 V2000
   22.6903  -12.0514  -16.3588 N   0  0  0  0  0  0  0  0  0  0  0  0
   22.6961  -10.6442  -15.9930 C   0  0  1  0  0  0  0  0  0  0  0  0
   23.8615  -10.0064  -16.6570 C   0  0  0  0  0  0  0  0  0  0  0  0
   25.1734  -10.5285  -16.3171 C   0  0  0  0  0  0  0  0  0  0  0  0
   25.8651   -9.9046  -15.2852 C   0  0  0  0  0  0  0  0  0  0  0  0
   27.1115  -10.3336  -14.8969 C   0  0  0  0  0  0  0  0  0  0  0  0
   27.7138  -11.3916  -15.5153 C   0  0  0  0  0  0  0  0  0  0  0  0
   27.0445  -12.0214  -16.5386 C   0  0  0  0  0  0  0  0  0  0  0  0
   25.7988  -11.5880  -16.9221 C   0  0  0  0  0  0  0  0  0  0  0  0
   21.3878  -10.0004  -16.3381 C   0  0  0  0  0  0  0  0  0  0  0  0
   20.6192  -10.5502  -17.1583 O   0  0  0  0  0  0  0  0  0  0  0  0
   20.9617   -8.7891  -15.7840 N   0  0  0  0  0  0  0  0  0  0  0  0
   19.7788   -8.0475  -15.9005 C   0  0  1  0  0  0  0  0  0  0  0  0
   18.5294   -8.4772  -15.2070 C   0  0  0  0  0  0  0  0  0  0  0  0
   17.3180   -7.6849  -15.6122 C   0  0  0  0  0  0  0  0  0  0  0  0
   16.2483   -8.5657  -16.2314 C   0  0  0  0  0  0  0  0  0  0  0  0
   15.4185   -9.1285  -15.0742 C   0  0  0  0  0  0  0  0  0  0  0  0
   15.7098  -10.5271  -14.8887 N   0  0  0  0  0  0  0  0  0  0  0  0
   20.0409   -6.6166  -15.7555 C   0  0  0  0  0  0  0  0  0  0  0  0
   20.5238   -6.2009  -14.6505 O   0  0  0  0  0  0  0  0  0  0  0  0
   20.8329   -2.1157  -17.7085 C   0  0  0  0  0  0  0  0  0  0  0  0
   20.5002   -3.5626  -17.8423 C   0  0  1  0  0  0  0  0  0  0  0  0
   21.6399   -4.2605  -18.5422 C   0  0  0  0  0  0  0  0  0  0  0  0
   20.1640   -4.2176  -16.5238 C   0  0  2  0  0  0  0  0  0  0  0  0
   19.8160   -5.6114  -16.7232 N   0  0  0  0  0  0  0  0  0  0  0  0
   19.1434   -3.4986  -15.7647 C   0  0  0  0  0  0  0  0  0  0  0  0
   17.9058   -3.6176  -15.9356 O   0  0  0  0  0  0  0  0  0  0  0  0
   19.5309   -2.5950  -14.7570 O   0  0  0  0  0  0  0  0  0  0  0  0
  2  1  1  6
  3  4  1  0
  3  2  1  0
  4  5  2  0
  5  6  1  0
  7  6  2  0
  8  7  1  0
  9  4  1  0
  9  8  2  0
 10  2  1  0
 10 11  2  0
 12 10  1  0
 13 12  1  0
 13 14  1  1
 14 15  1  0
 15 16  1  0
 17 16  1  0
 18 17  1  0
 19 13  1  0
 20 19  2  0
 22 21  1  1
 23 22  1  0
 24 22  1  0
 24 25  1  6
 25 19  1  0
 26 28  1  0
 26 24  1  0
 27 26  2  0
M  END
$$$$
