FKV.pdb
     RDKit          3D

 28 28  0  0  1  0  0  0  0  0999 V2000
   28.1322  -21.4818  -15.7331 N   0  0  0  0  0  0  0  0  0  0  0  0
   27.5112  -20.4972  -14.8618 C   0  0  1  0  0  0  0  0  0  0  0  0
   26.8780  -19.4645  -15.7210 C   0  0  0  0  0  0  0  0  0  0  0  0
   27.7704  -18.6391  -16.5158 C   0  0  0  0  0  0  0  0  0  0  0  0
   27.8459  -18.9030  -17.8785 C   0  0  0  0  0  0  0  0  0  0  0  0
   28.6634  -18.1707  -18.7053 C   0  0  0  0  0  0  0  0  0  0  0  0
   29.4317  -17.1551  -18.2125 C   0  0  0  0  0  0  0  0  0  0  0  0
   29.3702  -16.8794  -16.8665 C   0  0  0  0  0  0  0  0  0  0  0  0
   28.5511  -17.6150  -16.0451 C   0  0  0  0  0  0  0  0  0  0  0  0
   26.5530  -21.1546  -13.9159 C   0  0  0  0  0  0  0  0  0  0  0  0
   25.8887  -22.1468  -14.2901 O   0  0  0  0  0  0  0  0  0  0  0  0
   26.3503  -20.7146  -12.6039 N   0  0  0  0  0  0  0  0  0  0  0  0
   25.2325  -20.7073  -11.7593 C   0  0  1  0  0  0  0  0  0  0  0  0
   25.2968  -20.0897  -10.4025 C   0  0  0  0  0  0  0  0  0  0  0  0
   23.9888  -20.1334   -9.6632 C   0  0  0  0  0  0  0  0  0  0  0  0
   24.0095  -21.1523   -8.5386 C   0  0  0  0  0  0  0  0  0  0  0  0
   22.5874  -21.2128   -7.9742 C   0  0  0  0  0  0  0  0  0  0  0  0
   22.5323  -22.1295   -6.8644 N   0  0  0  0  0  0  0  0  0  0  0  0
   24.0242  -20.3334  -12.4925 C   0  0  0  0  0  0  0  0  0  0  0  0
   24.0083  -19.2097  -13.0958 O   0  0  0  0  0  0  0  0  0  0  0  0
   21.7465  -22.7793  -14.7688 C   0  0  0  0  0  0  0  0  0  0  0  0
   21.7673  -21.2889  -14.7906 C   0  0  1  0  0  0  0  0  0  0  0  0
   20.6491  -20.8004  -15.6779 C   0  0  0  0  0  0  0  0  0  0  0  0
   21.7009  -20.6751  -13.4125 C   0  0  2  0  0  0  0  0  0  0  0  0
   22.8383  -21.0925  -12.6152 N   0  0  0  0  0  0  0  0  0  0  0  0
   20.4317  -20.9199  -12.7312 C   0  0  0  0  0  0  0  0  0  0  0  0
   20.2976  -21.6078  -11.6901 O   0  0  0  0  0  0  0  0  0  0  0  0
   19.2454  -20.3626  -13.2451 O   0  0  0  0  0  0  0  0  0  0  0  0
  2  1  1  6
  3  4  1  0
  3  2  1  0
  4  5  2  0
  5  6  1  0
  7  6  2  0
  8  7  1  0
  9  4  1  0
  9  8  2  0
 10  2  1  0
 10 11  2  0
 12 10  1  0
 13 12  1  0
 13 14  1  1
 14 15  1  0
 15 16  1  0
 17 16  1  0
 18 17  1  0
 19 13  1  0
 20 19  2  0
 22 21  1  1
 23 22  1  0
 24 22  1  0
 24 25  1  1
 25 19  1  0
 26 28  1  0
 26 24  1  0
 27 26  2  0
M  END
$$$$
