FKV.pdb
     RDKit          3D

 28 28  0  0  1  0  0  0  0  0999 V2000
   24.8723  -17.6630  -16.7679 N   0  0  0  0  0  0  0  0  0  0  0  0
   25.5706  -18.3343  -15.6835 C   0  0  1  0  0  0  0  0  0  0  0  0
   26.7707  -17.5269  -15.3466 C   0  0  0  0  0  0  0  0  0  0  0  0
   27.7905  -17.4123  -16.3743 C   0  0  0  0  0  0  0  0  0  0  0  0
   28.5737  -18.5321  -16.6295 C   0  0  0  0  0  0  0  0  0  0  0  0
   29.5607  -18.5126  -17.5853 C   0  0  0  0  0  0  0  0  0  0  0  0
   29.8052  -17.3872  -18.3189 C   0  0  0  0  0  0  0  0  0  0  0  0
   29.0403  -16.2694  -18.0804 C   0  0  0  0  0  0  0  0  0  0  0  0
   28.0551  -16.2950  -17.1236 C   0  0  0  0  0  0  0  0  0  0  0  0
   24.6546  -18.5550  -14.5184 C   0  0  0  0  0  0  0  0  0  0  0  0
   24.1818  -17.5740  -13.9021 O   0  0  0  0  0  0  0  0  0  0  0  0
   24.2858  -19.8257  -14.0653 N   0  0  0  0  0  0  0  0  0  0  0  0
   23.5040  -20.2683  -12.9903 C   0  0  1  0  0  0  0  0  0  0  0  0
   22.3533  -21.1938  -13.2048 C   0  0  0  0  0  0  0  0  0  0  0  0
   21.4722  -21.3423  -11.9961 C   0  0  0  0  0  0  0  0  0  0  0  0
   20.3213  -22.2984  -12.2504 C   0  0  0  0  0  0  0  0  0  0  0  0
   19.4798  -22.3230  -10.9714 C   0  0  0  0  0  0  0  0  0  0  0  0
   18.3920  -23.2570  -11.1107 N   0  0  0  0  0  0  0  0  0  0  0  0
   24.3429  -20.6638  -11.8602 C   0  0  0  0  0  0  0  0  0  0  0  0
   25.2166  -21.5741  -12.0472 O   0  0  0  0  0  0  0  0  0  0  0  0
   26.3571  -20.1671   -7.3878 C   0  0  0  0  0  0  0  0  0  0  0  0
   25.6337  -19.6359   -8.5780 C   0  0  1  0  0  0  0  0  0  0  0  0
   26.5757  -18.7627   -9.3693 C   0  0  0  0  0  0  0  0  0  0  0  0
   25.0209  -20.7204   -9.4316 C   0  0  2  0  0  0  0  0  0  0  0  0
   24.2985  -20.1410  -10.5478 N   0  0  0  0  0  0  0  0  0  0  0  0
   24.1986  -21.6591   -8.6716 C   0  0  0  0  0  0  0  0  0  0  0  0
   22.9454  -21.6296   -8.6124 O   0  0  0  0  0  0  0  0  0  0  0  0
   24.8150  -22.6892   -7.9360 O   0  0  0  0  0  0  0  0  0  0  0  0
  2  1  1  6
  3  4  1  0
  3  2  1  0
  4  5  2  0
  5  6  1  0
  7  6  2  0
  8  7  1  0
  9  4  1  0
  9  8  2  0
 10  2  1  0
 10 11  2  0
 12 10  1  0
 13 12  1  0
 13 14  1  6
 14 15  1  0
 15 16  1  0
 17 16  1  0
 18 17  1  0
 19 13  1  0
 20 19  2  0
 22 21  1  1
 23 22  1  0
 24 22  1  0
 24 25  1  6
 25 19  1  0
 26 28  1  0
 26 24  1  0
 27 26  2  0
M  END
$$$$
