FKV.pdb
     RDKit          3D

 28 28  0  0  1  0  0  0  0  0999 V2000
   24.2913  -16.2513  -20.4568 N   0  0  0  0  0  0  0  0  0  0  0  0
   24.4719  -15.8109  -19.0829 C   0  0  1  0  0  0  0  0  0  0  0  0
   23.4826  -14.7359  -18.8160 C   0  0  0  0  0  0  0  0  0  0  0  0
   23.6190  -13.5154  -19.5914 C   0  0  0  0  0  0  0  0  0  0  0  0
   22.5089  -13.0820  -20.3071 C   0  0  0  0  0  0  0  0  0  0  0  0
   22.5488  -11.9373  -21.0663 C   0  0  0  0  0  0  0  0  0  0  0  0
   23.6859  -11.1851  -21.1426 C   0  0  0  0  0  0  0  0  0  0  0  0
   24.7944  -11.5984  -20.4412 C   0  0  0  0  0  0  0  0  0  0  0  0
   24.7482  -12.7435  -19.6840 C   0  0  0  0  0  0  0  0  0  0  0  0
   24.3650  -16.9674  -18.1362 C   0  0  0  0  0  0  0  0  0  0  0  0
   23.5293  -17.8738  -18.3504 O   0  0  0  0  0  0  0  0  0  0  0  0
   25.1645  -17.0992  -16.9962 N   0  0  0  0  0  0  0  0  0  0  0  0
   25.2560  -18.0802  -16.0002 C   0  0  1  0  0  0  0  0  0  0  0  0
   26.4879  -18.2221  -15.1703 C   0  0  0  0  0  0  0  0  0  0  0  0
   27.5502  -19.0665  -15.8168 C   0  0  0  0  0  0  0  0  0  0  0  0
   27.1894  -20.5406  -15.7972 C   0  0  0  0  0  0  0  0  0  0  0  0
   28.3978  -21.2962  -16.3570 C   0  0  0  0  0  0  0  0  0  0  0  0
   28.1921  -22.7172  -16.2408 N   0  0  0  0  0  0  0  0  0  0  0  0
   24.0306  -18.1354  -15.2049 C   0  0  0  0  0  0  0  0  0  0  0  0
   23.8668  -17.2636  -14.2882 O   0  0  0  0  0  0  0  0  0  0  0  0
   19.2650  -18.7904  -14.7229 C   0  0  0  0  0  0  0  0  0  0  0  0
   20.5590  -18.8224  -15.4623 C   0  0  1  0  0  0  0  0  0  0  0  0
   20.6731  -17.5705  -16.2963 C   0  0  0  0  0  0  0  0  0  0  0  0
   21.7540  -19.0066  -14.5576 C   0  0  2  0  0  0  0  0  0  0  0  0
   22.9761  -19.0672  -15.3362 N   0  0  0  0  0  0  0  0  0  0  0  0
   21.6224  -20.1443  -13.6504 C   0  0  0  0  0  0  0  0  0  0  0  0
   20.8415  -20.1925  -12.6691 O   0  0  0  0  0  0  0  0  0  0  0  0
   22.4100  -21.2934  -13.8538 O   0  0  0  0  0  0  0  0  0  0  0  0
  2  1  1  6
  3  4  1  0
  3  2  1  0
  4  5  2  0
  5  6  1  0
  7  6  2  0
  8  7  1  0
  9  4  1  0
  9  8  2  0
 10  2  1  0
 10 11  2  0
 12 10  1  0
 13 12  1  0
 13 14  1  1
 14 15  1  0
 15 16  1  0
 17 16  1  0
 18 17  1  0
 19 13  1  0
 20 19  2  0
 22 21  1  1
 23 22  1  0
 24 22  1  0
 24 25  1  6
 25 19  1  0
 26 28  1  0
 26 24  1  0
 27 26  2  0
M  END
$$$$
