FKV.pdb
     RDKit          3D

 28 28  0  0  1  0  0  0  0  0999 V2000
   28.3228  -27.1510  -16.3842 N   0  0  0  0  0  0  0  0  0  0  0  0
   27.0448  -26.5842  -16.7838 C   0  0  1  0  0  0  0  0  0  0  0  0
   25.9763  -27.5189  -16.3476 C   0  0  0  0  0  0  0  0  0  0  0  0
   25.7184  -28.6622  -17.2054 C   0  0  0  0  0  0  0  0  0  0  0  0
   26.1315  -29.9102  -16.7534 C   0  0  0  0  0  0  0  0  0  0  0  0
   25.9269  -31.0457  -17.4997 C   0  0  0  0  0  0  0  0  0  0  0  0
   25.3081  -30.9844  -18.7155 C   0  0  0  0  0  0  0  0  0  0  0  0
   24.8925  -29.7581  -19.1791 C   0  0  0  0  0  0  0  0  0  0  0  0
   25.0999  -28.6267  -18.4285 C   0  0  0  0  0  0  0  0  0  0  0  0
   26.8841  -25.1985  -16.2367 C   0  0  0  0  0  0  0  0  0  0  0  0
   27.5287  -24.8496  -15.2225 O   0  0  0  0  0  0  0  0  0  0  0  0
   26.0340  -24.2451  -16.8062 N   0  0  0  0  0  0  0  0  0  0  0  0
   25.8153  -22.8849  -16.5517 C   0  0  1  0  0  0  0  0  0  0  0  0
   25.4936  -21.9366  -17.6580 C   0  0  0  0  0  0  0  0  0  0  0  0
   25.3112  -20.5181  -17.1954 C   0  0  0  0  0  0  0  0  0  0  0  0
   24.8230  -19.6174  -18.3152 C   0  0  0  0  0  0  0  0  0  0  0  0
   24.6374  -18.2238  -17.7087 C   0  0  0  0  0  0  0  0  0  0  0  0
   24.2022  -17.2958  -18.7209 N   0  0  0  0  0  0  0  0  0  0  0  0
   24.9550  -22.7020  -15.3840 C   0  0  0  0  0  0  0  0  0  0  0  0
   23.7955  -23.2333  -15.4000 O   0  0  0  0  0  0  0  0  0  0  0  0
   26.1710  -22.6517  -11.5453 C   0  0  0  0  0  0  0  0  0  0  0  0
   25.1268  -21.6200  -11.8048 C   0  0  1  0  0  0  0  0  0  0  0  0
   25.7752  -20.2579  -11.7901 C   0  0  0  0  0  0  0  0  0  0  0  0
   24.3579  -21.8633  -13.0816 C   0  0  2  0  0  0  0  0  0  0  0  0
   25.2659  -21.9858  -14.2058 N   0  0  0  0  0  0  0  0  0  0  0  0
   23.3120  -20.8724  -13.3243 C   0  0  0  0  0  0  0  0  0  0  0  0
   23.3651  -19.9728  -14.1977 O   0  0  0  0  0  0  0  0  0  0  0  0
   22.1400  -20.8900  -12.5444 O   0  0  0  0  0  0  0  0  0  0  0  0
  2  1  1  1
  3  4  1  0
  3  2  1  0
  4  5  2  0
  5  6  1  0
  7  6  2  0
  8  7  1  0
  9  4  1  0
  9  8  2  0
 10  2  1  0
 10 11  2  0
 12 10  1  0
 13 12  1  0
 13 14  1  6
 14 15  1  0
 15 16  1  0
 17 16  1  0
 18 17  1  0
 19 13  1  0
 20 19  2  0
 22 21  1  6
 23 22  1  0
 24 22  1  0
 24 25  1  6
 25 19  1  0
 26 28  1  0
 26 24  1  0
 27 26  2  0
M  END
$$$$
