LHH.pdb
     RDKit          3D

 29 30  0  0  1  0  0  0  0  0999 V2000
    8.2631  -11.9293   18.8125 C   0  0  0  0  0  0  0  0  0  0  0  0
    8.7109  -13.0267   19.7565 C   0  0  1  0  0  0  0  0  0  0  0  0
    8.2284  -12.8087   21.1557 C   0  0  0  0  0  0  0  0  0  0  0  0
    8.4035  -14.3865   19.2198 C   0  0  0  0  0  0  0  0  0  0  0  0
    8.9570  -15.5080   20.0261 C   0  0  2  0  0  0  0  0  0  0  0  0
    9.0249  -15.2213   21.4407 N   0  0  0  0  0  0  0  0  0  0  0  0
   10.3219  -15.8216   19.4815 C   0  0  0  0  0  0  0  0  0  0  0  0
   10.3695  -16.2978   18.3184 O   0  0  0  0  0  0  0  0  0  0  0  0
   11.5051  -15.5999   20.2227 N   0  0  0  0  0  0  0  0  0  0  0  0
   12.8277  -15.9336   19.6704 C   0  0  1  0  0  0  0  0  0  0  0  0
   13.2386  -14.9197   18.6481 C   0  0  0  0  0  0  0  0  0  0  0  0
   13.1376  -15.4663   17.2924 C   0  0  0  0  0  0  0  0  0  0  0  0
   12.7713  -16.7317   16.9235 C   0  0  0  0  0  0  0  0  0  0  0  0
   12.8448  -16.7897   15.5936 N   0  0  0  0  0  0  0  0  0  0  0  0
   13.2413  -15.6150   15.1212 C   0  0  0  0  0  0  0  0  0  0  0  0
   13.4290  -14.7820   16.1425 N   0  0  0  0  0  0  0  0  0  0  0  0
   13.7830  -15.9719   20.7843 C   0  0  0  0  0  0  0  0  0  0  0  0
   13.9165  -15.0559   21.6329 O   0  0  0  0  0  0  0  0  0  0  0  0
   14.6287  -17.0994   20.9474 N   0  0  0  0  0  0  0  0  0  0  0  0
   15.5003  -17.2347   22.1222 C   0  0  1  0  0  0  0  0  0  0  0  0
   15.7064  -18.6936   22.3570 C   0  0  0  0  0  0  0  0  0  0  0  0
   14.5428  -19.3886   22.9013 C   0  0  0  0  0  0  0  0  0  0  0  0
   13.6664  -18.8831   23.8266 C   0  0  0  0  0  0  0  0  0  0  0  0
   12.7444  -19.8302   24.0592 N   0  0  0  0  0  0  0  0  0  0  0  0
   13.0380  -20.8953   23.3004 C   0  0  0  0  0  0  0  0  0  0  0  0
   14.1402  -20.6206   22.5928 N   0  0  0  0  0  0  0  0  0  0  0  0
   16.7712  -16.4953   21.9142 C   0  0  0  0  0  0  0  0  0  0  0  0
   17.0270  -15.9894   20.7925 O   0  0  0  0  0  0  0  0  0  0  0  0
   17.7179  -16.3266   22.9142 O   0  0  0  0  0  0  0  0  0  0  0  0
  2  1  1  6
  2  3  1  0
  4  2  1  0
  5  4  1  0
  5  6  1  1
  7  8  2  0
  7  5  1  0
  9  7  1  0
 10 11  1  6
 10  9  1  0
 11 12  1  0
 12 13  2  0
 12 16  1  0
 13 14  1  0
 14 15  1  0
 16 15  2  0
 17 10  1  0
 18 17  2  0
 19 17  1  0
 20 19  1  0
 21 22  1  0
 20 21  1  6
 22 23  2  0
 23 24  1  0
 25 24  1  0
 26 22  1  0
 26 25  2  0
 27 20  1  0
 27 29  1  0
 28 27  2  0
M  END
$$$$
