LHH.pdb
     RDKit          3D

 29 30  0  0  1  0  0  0  0  0999 V2000
    6.0786  -10.9315   26.0720 C   0  0  0  0  0  0  0  0  0  0  0  0
    6.5863  -12.1100   26.8778 C   0  0  1  0  0  0  0  0  0  0  0  0
    6.3825  -11.9268   28.3484 C   0  0  0  0  0  0  0  0  0  0  0  0
    6.0665  -13.4099   26.3564 C   0  0  0  0  0  0  0  0  0  0  0  0
    7.1108  -14.4448   26.1269 C   0  0  2  0  0  0  0  0  0  0  0  0
    8.4346  -14.0256   26.5266 N   0  0  0  0  0  0  0  0  0  0  0  0
    7.0829  -14.7945   24.6658 C   0  0  0  0  0  0  0  0  0  0  0  0
    6.0199  -15.3047   24.2280 O   0  0  0  0  0  0  0  0  0  0  0  0
    8.1848  -14.5695   23.8094 N   0  0  0  0  0  0  0  0  0  0  0  0
    8.1202  -14.8991   22.3767 C   0  0  1  0  0  0  0  0  0  0  0  0
    8.3122  -13.6673   21.5474 C   0  0  0  0  0  0  0  0  0  0  0  0
    8.2106  -13.9724   20.1179 C   0  0  0  0  0  0  0  0  0  0  0  0
    7.5058  -14.9833   19.5241 C   0  0  0  0  0  0  0  0  0  0  0  0
    7.7220  -14.8945   18.2116 N   0  0  0  0  0  0  0  0  0  0  0  0
    8.5309  -13.8722   17.9652 C   0  0  0  0  0  0  0  0  0  0  0  0
    8.8477  -13.2868   19.1181 N   0  0  0  0  0  0  0  0  0  0  0  0
    9.1673  -15.8888   22.0956 C   0  0  0  0  0  0  0  0  0  0  0  0
    9.4029  -16.3649   20.9577 O   0  0  0  0  0  0  0  0  0  0  0  0
    9.9879  -16.3639   23.1511 N   0  0  0  0  0  0  0  0  0  0  0  0
   10.9374  -17.4651   22.9416 C   0  0  1  0  0  0  0  0  0  0  0  0
   12.2156  -17.0830   23.6095 C   0  0  0  0  0  0  0  0  0  0  0  0
   13.2324  -18.1315   23.6139 C   0  0  0  0  0  0  0  0  0  0  0  0
   13.2633  -19.2227   22.7844 C   0  0  0  0  0  0  0  0  0  0  0  0
   14.3523  -19.9372   23.1087 N   0  0  0  0  0  0  0  0  0  0  0  0
   14.9817  -19.3089   24.1114 C   0  0  0  0  0  0  0  0  0  0  0  0
   14.2924  -18.2034   24.4178 N   0  0  0  0  0  0  0  0  0  0  0  0
   10.3746  -18.7407   23.4527 C   0  0  0  0  0  0  0  0  0  0  0  0
   10.8403  -19.8375   23.0528 O   0  0  0  0  0  0  0  0  0  0  0  0
    9.3360  -18.7924   24.3711 O   0  0  0  0  0  0  0  0  0  0  0  0
  2  1  1  6
  2  3  1  0
  4  2  1  0
  5  4  1  0
  5  6  1  6
  7  8  2  0
  7  5  1  0
  9  7  1  0
 10 11  1  6
 10  9  1  0
 11 12  1  0
 12 13  2  0
 12 16  1  0
 13 14  1  0
 14 15  1  0
 16 15  2  0
 17 10  1  0
 18 17  2  0
 19 17  1  0
 20 19  1  0
 21 22  1  0
 20 21  1  1
 22 23  2  0
 23 24  1  0
 25 24  1  0
 26 22  1  0
 26 25  2  0
 27 20  1  0
 27 29  1  0
 28 27  2  0
M  END
$$$$
