LHH.pdb
     RDKit          3D

 29 30  0  0  1  0  0  0  0  0999 V2000
    6.9755  -12.8507   18.0872 C   0  0  0  0  0  0  0  0  0  0  0  0
    8.3654  -13.3531   18.4216 C   0  0  1  0  0  0  0  0  0  0  0  0
    9.3507  -12.2397   18.5873 C   0  0  0  0  0  0  0  0  0  0  0  0
    8.3522  -14.3186   19.5613 C   0  0  0  0  0  0  0  0  0  0  0  0
    9.6994  -14.7719   20.0019 C   0  0  2  0  0  0  0  0  0  0  0  0
   10.4596  -15.4184   18.9569 N   0  0  0  0  0  0  0  0  0  0  0  0
    9.5020  -15.6999   21.1671 C   0  0  0  0  0  0  0  0  0  0  0  0
    8.6802  -15.3347   22.0463 O   0  0  0  0  0  0  0  0  0  0  0  0
   10.1950  -16.9261   21.2877 N   0  0  0  0  0  0  0  0  0  0  0  0
    9.9801  -17.8163   22.4397 C   0  0  1  0  0  0  0  0  0  0  0  0
   10.5633  -19.1690   22.1715 C   0  0  0  0  0  0  0  0  0  0  0  0
    9.7156  -19.9370   21.2559 C   0  0  0  0  0  0  0  0  0  0  0  0
    8.3771  -19.7796   21.0209 C   0  0  0  0  0  0  0  0  0  0  0  0
    8.0219  -20.7103   20.1350 N   0  0  0  0  0  0  0  0  0  0  0  0
    9.0820  -21.4389   19.8102 C   0  0  0  0  0  0  0  0  0  0  0  0
   10.1374  -20.9865   20.4838 N   0  0  0  0  0  0  0  0  0  0  0  0
   10.6115  -17.1959   23.6108 C   0  0  0  0  0  0  0  0  0  0  0  0
   11.7869  -16.7539   23.6290 O   0  0  0  0  0  0  0  0  0  0  0  0
    9.8800  -17.0690   24.8199 N   0  0  0  0  0  0  0  0  0  0  0  0
   10.4800  -16.4564   26.0127 C   0  0  1  0  0  0  0  0  0  0  0  0
    9.3741  -15.8310   26.7950 C   0  0  0  0  0  0  0  0  0  0  0  0
    9.7776  -15.3020   28.0953 C   0  0  0  0  0  0  0  0  0  0  0  0
   11.0433  -15.3431   28.6207 C   0  0  0  0  0  0  0  0  0  0  0  0
   10.9923  -14.7545   29.8258 N   0  0  0  0  0  0  0  0  0  0  0  0
    9.7308  -14.3581   30.0449 C   0  0  0  0  0  0  0  0  0  0  0  0
    8.9901  -14.6954   28.9825 N   0  0  0  0  0  0  0  0  0  0  0  0
   11.2403  -17.4679   26.7897 C   0  0  0  0  0  0  0  0  0  0  0  0
   12.4448  -17.2595   27.0825 O   0  0  0  0  0  0  0  0  0  0  0  0
   10.6823  -18.6620   27.2225 O   0  0  0  0  0  0  0  0  0  0  0  0
  2  1  1  1
  2  3  1  0
  4  2  1  0
  5  4  1  0
  5  6  1  6
  7  8  2  0
  7  5  1  0
  9  7  1  0
 10 11  1  6
 10  9  1  0
 11 12  1  0
 12 13  2  0
 12 16  1  0
 13 14  1  0
 14 15  1  0
 16 15  2  0
 17 10  1  0
 18 17  2  0
 19 17  1  0
 20 19  1  0
 21 22  1  0
 20 21  1  1
 22 23  2  0
 23 24  1  0
 25 24  1  0
 26 22  1  0
 26 25  2  0
 27 20  1  0
 27 29  1  0
 28 27  2  0
M  END
$$$$
