LHH.pdb
     RDKit          3D

 29 30  0  0  1  0  0  0  0  0999 V2000
    7.7218  -12.1907   19.8381 C   0  0  0  0  0  0  0  0  0  0  0  0
    8.6647  -13.1658   19.1628 C   0  0  1  0  0  0  0  0  0  0  0  0
    9.9410  -12.5180   18.7275 C   0  0  0  0  0  0  0  0  0  0  0  0
    8.8655  -14.4036   19.9747 C   0  0  0  0  0  0  0  0  0  0  0  0
    9.7722  -15.4079   19.3553 C   0  0  2  0  0  0  0  0  0  0  0  0
    9.2357  -16.0038   18.1532 N   0  0  0  0  0  0  0  0  0  0  0  0
   10.0512  -16.4601   20.3911 C   0  0  0  0  0  0  0  0  0  0  0  0
    9.1609  -17.3315   20.5640 O   0  0  0  0  0  0  0  0  0  0  0  0
   11.2474  -16.4871   21.1438 N   0  0  0  0  0  0  0  0  0  0  0  0
   11.4881  -17.5228   22.1611 C   0  0  1  0  0  0  0  0  0  0  0  0
   12.9492  -17.8368   22.2525 C   0  0  0  0  0  0  0  0  0  0  0  0
   13.3734  -18.7008   21.1478 C   0  0  0  0  0  0  0  0  0  0  0  0
   12.5840  -19.4431   20.3129 C   0  0  0  0  0  0  0  0  0  0  0  0
   13.3962  -20.0908   19.4774 N   0  0  0  0  0  0  0  0  0  0  0  0
   14.6558  -19.7827   19.7579 C   0  0  0  0  0  0  0  0  0  0  0  0
   14.6726  -18.9302   20.7802 N   0  0  0  0  0  0  0  0  0  0  0  0
   10.9786  -17.0204   23.4430 C   0  0  0  0  0  0  0  0  0  0  0  0
   11.4265  -16.0064   24.0331 O   0  0  0  0  0  0  0  0  0  0  0  0
    9.9117  -17.6962   24.0895 N   0  0  0  0  0  0  0  0  0  0  0  0
    9.4147  -17.2573   25.4005 C   0  0  1  0  0  0  0  0  0  0  0  0
    7.9313  -17.4168   25.3895 C   0  0  0  0  0  0  0  0  0  0  0  0
    7.2543  -16.7002   24.3118 C   0  0  0  0  0  0  0  0  0  0  0  0
    7.8168  -15.7432   23.5071 C   0  0  0  0  0  0  0  0  0  0  0  0
    6.8671  -15.3364   22.6505 N   0  0  0  0  0  0  0  0  0  0  0  0
    5.7451  -16.0204   22.9139 C   0  0  0  0  0  0  0  0  0  0  0  0
    5.9866  -16.8547   23.9322 N   0  0  0  0  0  0  0  0  0  0  0  0
   10.0726  -18.0240   26.4888 C   0  0  0  0  0  0  0  0  0  0  0  0
    9.7713  -17.7968   27.6877 O   0  0  0  0  0  0  0  0  0  0  0  0
   11.0265  -19.0030   26.2516 O   0  0  0  0  0  0  0  0  0  0  0  0
  2  1  1  1
  2  3  1  0
  4  2  1  0
  5  4  1  0
  5  6  1  6
  7  8  2  0
  7  5  1  0
  9  7  1  0
 10 11  1  1
 10  9  1  0
 11 12  1  0
 12 13  2  0
 12 16  1  0
 13 14  1  0
 14 15  1  0
 16 15  2  0
 17 10  1  0
 18 17  2  0
 19 17  1  0
 20 19  1  0
 21 22  1  0
 20 21  1  6
 22 23  2  0
 23 24  1  0
 25 24  1  0
 26 22  1  0
 26 25  2  0
 27 20  1  0
 27 29  1  0
 28 27  2  0
M  END
$$$$
