LHH.pdb
     RDKit          3D

 29 30  0  0  1  0  0  0  0  0999 V2000
    6.9501  -12.4282   19.0278 C   0  0  0  0  0  0  0  0  0  0  0  0
    7.6389  -13.1520   20.1669 C   0  0  1  0  0  0  0  0  0  0  0  0
    7.4082  -12.4886   21.4878 C   0  0  0  0  0  0  0  0  0  0  0  0
    7.3331  -14.6142   20.1672 C   0  0  0  0  0  0  0  0  0  0  0  0
    7.9930  -15.3826   21.2573 C   0  0  2  0  0  0  0  0  0  0  0  0
    8.5963  -14.5450   22.2684 N   0  0  0  0  0  0  0  0  0  0  0  0
    9.0231  -16.2716   20.6198 C   0  0  0  0  0  0  0  0  0  0  0  0
    8.5977  -17.1470   19.8233 O   0  0  0  0  0  0  0  0  0  0  0  0
   10.4054  -16.1467   20.8883 N   0  0  0  0  0  0  0  0  0  0  0  0
   11.3888  -17.0539   20.2756 C   0  0  1  0  0  0  0  0  0  0  0  0
   12.3086  -16.2943   19.3707 C   0  0  0  0  0  0  0  0  0  0  0  0
   11.5874  -15.7608   18.2123 C   0  0  0  0  0  0  0  0  0  0  0  0
   11.1258  -16.4473   17.1228 C   0  0  0  0  0  0  0  0  0  0  0  0
   10.5560  -15.5571   16.3102 N   0  0  0  0  0  0  0  0  0  0  0  0
   10.6444  -14.3476   16.8482 C   0  0  0  0  0  0  0  0  0  0  0  0
   11.2736  -14.4420   18.0175 N   0  0  0  0  0  0  0  0  0  0  0  0
   12.1372  -17.7031   21.3589 C   0  0  0  0  0  0  0  0  0  0  0  0
   13.3451  -17.4771   21.6178 O   0  0  0  0  0  0  0  0  0  0  0  0
   11.4899  -18.6536   22.1899 N   0  0  0  0  0  0  0  0  0  0  0  0
   12.2090  -19.3293   23.2783 C   0  0  1  0  0  0  0  0  0  0  0  0
   11.3619  -19.2257   24.5021 C   0  0  0  0  0  0  0  0  0  0  0  0
   11.0045  -17.8598   24.8760 C   0  0  0  0  0  0  0  0  0  0  0  0
   11.6417  -16.7203   24.4573 C   0  0  0  0  0  0  0  0  0  0  0  0
   11.0091  -15.6808   25.0234 N   0  0  0  0  0  0  0  0  0  0  0  0
   10.0065  -16.1590   25.7733 C   0  0  0  0  0  0  0  0  0  0  0  0
   10.0072  -17.4941   25.6802 N   0  0  0  0  0  0  0  0  0  0  0  0
   12.5184  -20.7326   22.9040 C   0  0  0  0  0  0  0  0  0  0  0  0
   13.2126  -21.4482   23.6694 O   0  0  0  0  0  0  0  0  0  0  0  0
   12.0732  -21.3146   21.7259 O   0  0  0  0  0  0  0  0  0  0  0  0
  2  1  1  6
  2  3  1  0
  4  2  1  0
  5  4  1  0
  5  6  1  1
  7  8  2  0
  7  5  1  0
  9  7  1  0
 10 11  1  6
 10  9  1  0
 11 12  1  0
 12 13  2  0
 12 16  1  0
 13 14  1  0
 14 15  1  0
 16 15  2  0
 17 10  1  0
 18 17  2  0
 19 17  1  0
 20 19  1  0
 21 22  1  0
 20 21  1  1
 22 23  2  0
 23 24  1  0
 25 24  1  0
 26 22  1  0
 26 25  2  0
 27 20  1  0
 27 29  1  0
 28 27  2  0
M  END
$$$$
