LHH.pdb
     RDKit          3D

 29 30  0  0  1  0  0  0  0  0999 V2000
    6.7733  -12.5938   18.8814 C   0  0  0  0  0  0  0  0  0  0  0  0
    8.1444  -13.1528   19.2028 C   0  0  1  0  0  0  0  0  0  0  0  0
    9.2169  -12.1125   19.1303 C   0  0  0  0  0  0  0  0  0  0  0  0
    8.1467  -13.9305   20.4783 C   0  0  0  0  0  0  0  0  0  0  0  0
    9.4863  -14.4239   20.8981 C   0  0  2  0  0  0  0  0  0  0  0  0
   10.2876  -14.9176   19.8015 N   0  0  0  0  0  0  0  0  0  0  0  0
    9.2674  -15.5007   21.9229 C   0  0  0  0  0  0  0  0  0  0  0  0
    8.1728  -15.4762   22.5419 O   0  0  0  0  0  0  0  0  0  0  0  0
   10.2301  -16.5001   22.1927 N   0  0  0  0  0  0  0  0  0  0  0  0
    9.9913  -17.5383   23.2078 C   0  0  1  0  0  0  0  0  0  0  0  0
   10.8678  -18.7261   22.9575 C   0  0  0  0  0  0  0  0  0  0  0  0
   10.4077  -19.4853   21.7919 C   0  0  0  0  0  0  0  0  0  0  0  0
    9.1249  -19.6328   21.3401 C   0  0  0  0  0  0  0  0  0  0  0  0
    9.1744  -20.4252   20.2692 N   0  0  0  0  0  0  0  0  0  0  0  0
   10.4326  -20.7762   20.0369 C   0  0  0  0  0  0  0  0  0  0  0  0
   11.2129  -20.2134   20.9570 N   0  0  0  0  0  0  0  0  0  0  0  0
   10.2674  -16.9511   24.5246 C   0  0  0  0  0  0  0  0  0  0  0  0
   11.3177  -16.3263   24.8138 O   0  0  0  0  0  0  0  0  0  0  0  0
    9.3110  -17.0759   25.5652 N   0  0  0  0  0  0  0  0  0  0  0  0
    9.6158  -16.6444   26.9360 C   0  0  1  0  0  0  0  0  0  0  0  0
    8.3378  -16.1800   27.5501 C   0  0  0  0  0  0  0  0  0  0  0  0
    7.8437  -14.9083   27.0288 C   0  0  0  0  0  0  0  0  0  0  0  0
    8.4887  -14.1080   26.1214 C   0  0  0  0  0  0  0  0  0  0  0  0
    7.7052  -13.0397   25.9066 N   0  0  0  0  0  0  0  0  0  0  0  0
    6.6035  -13.1708   26.6586 C   0  0  0  0  0  0  0  0  0  0  0  0
    6.6924  -14.3166   27.3443 N   0  0  0  0  0  0  0  0  0  0  0  0
   10.2583  -17.7460   27.6967 C   0  0  0  0  0  0  0  0  0  0  0  0
   10.2980  -18.9046   27.2112 O   0  0  0  0  0  0  0  0  0  0  0  0
   10.8328  -17.5645   28.9465 O   0  0  0  0  0  0  0  0  0  0  0  0
  2  1  1  1
  2  3  1  0
  4  2  1  0
  5  4  1  0
  5  6  1  6
  7  8  2  0
  7  5  1  0
  9  7  1  0
 10 11  1  6
 10  9  1  0
 11 12  1  0
 12 13  2  0
 12 16  1  0
 13 14  1  0
 14 15  1  0
 16 15  2  0
 17 10  1  0
 18 17  2  0
 19 17  1  0
 20 19  1  0
 21 22  1  0
 20 21  1  1
 22 23  2  0
 23 24  1  0
 25 24  1  0
 26 22  1  0
 26 25  2  0
 27 20  1  0
 27 29  1  0
 28 27  2  0
M  END
$$$$
