LHH.pdb
     RDKit          3D

 29 30  0  0  1  0  0  0  0  0999 V2000
    6.8790  -12.4573   18.5646 C   0  0  0  0  0  0  0  0  0  0  0  0
    8.2184  -13.1053   18.8512 C   0  0  1  0  0  0  0  0  0  0  0  0
    9.3205  -12.1029   18.9873 C   0  0  0  0  0  0  0  0  0  0  0  0
    8.1408  -14.0712   19.9881 C   0  0  0  0  0  0  0  0  0  0  0  0
    9.4587  -14.5748   20.4613 C   0  0  2  0  0  0  0  0  0  0  0  0
   10.2723  -15.1367   19.4076 N   0  0  0  0  0  0  0  0  0  0  0  0
    9.1914  -15.5977   21.5290 C   0  0  0  0  0  0  0  0  0  0  0  0
    8.2627  -15.3403   22.3371 O   0  0  0  0  0  0  0  0  0  0  0  0
    9.9345  -16.7954   21.6370 N   0  0  0  0  0  0  0  0  0  0  0  0
    9.5797  -17.8299   22.6215 C   0  0  1  0  0  0  0  0  0  0  0  0
   10.2777  -19.1159   22.3038 C   0  0  0  0  0  0  0  0  0  0  0  0
    9.6651  -19.7774   21.1488 C   0  0  0  0  0  0  0  0  0  0  0  0
    8.4308  -19.5453   20.6065 C   0  0  0  0  0  0  0  0  0  0  0  0
    8.2839  -20.3924   19.5877 N   0  0  0  0  0  0  0  0  0  0  0  0
    9.3737  -21.1406   19.4744 C   0  0  0  0  0  0  0  0  0  0  0  0
   10.2398  -20.7850   20.4208 N   0  0  0  0  0  0  0  0  0  0  0  0
    9.9663  -17.3377   23.9495 C   0  0  0  0  0  0  0  0  0  0  0  0
   11.0710  -16.8004   24.2101 O   0  0  0  0  0  0  0  0  0  0  0  0
    9.0613  -17.4586   25.0355 N   0  0  0  0  0  0  0  0  0  0  0  0
    9.3680  -16.8808   26.3509 C   0  0  1  0  0  0  0  0  0  0  0  0
    8.0704  -16.5081   26.9860 C   0  0  0  0  0  0  0  0  0  0  0  0
    7.3636  -15.4162   26.3215 C   0  0  0  0  0  0  0  0  0  0  0  0
    7.8287  -14.6908   25.2551 C   0  0  0  0  0  0  0  0  0  0  0  0
    6.8843  -13.7884   24.9466 N   0  0  0  0  0  0  0  0  0  0  0  0
    5.8602  -13.9473   25.7964 C   0  0  0  0  0  0  0  0  0  0  0  0
    6.1579  -14.9453   26.6369 N   0  0  0  0  0  0  0  0  0  0  0  0
   10.1597  -17.8364   27.1663 C   0  0  0  0  0  0  0  0  0  0  0  0
   10.1428  -19.0623   26.8896 O   0  0  0  0  0  0  0  0  0  0  0  0
   10.9380  -17.4428   28.2453 O   0  0  0  0  0  0  0  0  0  0  0  0
  2  1  1  1
  2  3  1  0
  4  2  1  0
  5  4  1  0
  5  6  1  6
  7  8  2  0
  7  5  1  0
  9  7  1  0
 10 11  1  6
 10  9  1  0
 11 12  1  0
 12 13  2  0
 12 16  1  0
 13 14  1  0
 14 15  1  0
 16 15  2  0
 17 10  1  0
 18 17  2  0
 19 17  1  0
 20 19  1  0
 21 22  1  0
 20 21  1  1
 22 23  2  0
 23 24  1  0
 25 24  1  0
 26 22  1  0
 26 25  2  0
 27 20  1  0
 27 29  1  0
 28 27  2  0
M  END
$$$$
