LHH.pdb
     RDKit          3D

 29 30  0  0  1  0  0  0  0  0999 V2000
    6.3604  -12.7484   19.1337 C   0  0  0  0  0  0  0  0  0  0  0  0
    7.8572  -12.9832   19.1531 C   0  0  1  0  0  0  0  0  0  0  0  0
    8.6317  -11.7171   19.3401 C   0  0  0  0  0  0  0  0  0  0  0  0
    8.2411  -14.0687   20.1049 C   0  0  0  0  0  0  0  0  0  0  0  0
    9.7069  -14.2164   20.3141 C   0  0  2  0  0  0  0  0  0  0  0  0
   10.4843  -13.9994   19.1155 N   0  0  0  0  0  0  0  0  0  0  0  0
    9.9458  -15.5959   20.8597 C   0  0  0  0  0  0  0  0  0  0  0  0
    9.3092  -15.9099   21.8979 O   0  0  0  0  0  0  0  0  0  0  0  0
   10.8368  -16.5097   20.2518 N   0  0  0  0  0  0  0  0  0  0  0  0
   11.1032  -17.8291   20.8465 C   0  0  1  0  0  0  0  0  0  0  0  0
   11.0096  -18.9009   19.8051 C   0  0  0  0  0  0  0  0  0  0  0  0
    9.6887  -18.9067   19.1711 C   0  0  0  0  0  0  0  0  0  0  0  0
    8.4667  -18.8072   19.7779 C   0  0  0  0  0  0  0  0  0  0  0  0
    7.5444  -18.8831   18.8182 N   0  0  0  0  0  0  0  0  0  0  0  0
    8.1413  -19.0257   17.6419 C   0  0  0  0  0  0  0  0  0  0  0  0
    9.4593  -19.0436   17.8279 N   0  0  0  0  0  0  0  0  0  0  0  0
   12.4449  -17.7913   21.4409 C   0  0  0  0  0  0  0  0  0  0  0  0
   13.0805  -18.8072   21.8166 O   0  0  0  0  0  0  0  0  0  0  0  0
   13.1003  -16.5458   21.6198 N   0  0  0  0  0  0  0  0  0  0  0  0
   14.4392  -16.4684   22.2194 C   0  0  1  0  0  0  0  0  0  0  0  0
   15.1711  -15.3652   21.5314 C   0  0  0  0  0  0  0  0  0  0  0  0
   14.9813  -15.3245   20.0838 C   0  0  0  0  0  0  0  0  0  0  0  0
   14.2594  -14.3840   19.3953 C   0  0  0  0  0  0  0  0  0  0  0  0
   14.3322  -14.7023   18.0935 N   0  0  0  0  0  0  0  0  0  0  0  0
   15.0781  -15.8095   17.9745 C   0  0  0  0  0  0  0  0  0  0  0  0
   15.4737  -16.1872   19.1959 N   0  0  0  0  0  0  0  0  0  0  0  0
   14.3403  -16.2716   23.6879 C   0  0  0  0  0  0  0  0  0  0  0  0
   15.3845  -16.1513   24.3771 O   0  0  0  0  0  0  0  0  0  0  0  0
   13.1286  -16.2113   24.3608 O   0  0  0  0  0  0  0  0  0  0  0  0
  2  1  1  1
  2  3  1  0
  4  2  1  0
  5  4  1  0
  5  6  1  6
  7  8  2  0
  7  5  1  0
  9  7  1  0
 10 11  1  6
 10  9  1  0
 11 12  1  0
 12 13  2  0
 12 16  1  0
 13 14  1  0
 14 15  1  0
 16 15  2  0
 17 10  1  0
 18 17  2  0
 19 17  1  0
 20 19  1  0
 21 22  1  0
 20 21  1  6
 22 23  2  0
 23 24  1  0
 25 24  1  0
 26 22  1  0
 26 25  2  0
 27 20  1  0
 27 29  1  0
 28 27  2  0
M  END
$$$$
