LHH.pdb
     RDKit          3D

 29 30  0  0  1  0  0  0  0  0999 V2000
    7.1477  -13.0525   18.7081 C   0  0  0  0  0  0  0  0  0  0  0  0
    8.5881  -13.3034   19.1056 C   0  0  1  0  0  0  0  0  0  0  0  0
    9.3677  -12.0358   19.2582 C   0  0  0  0  0  0  0  0  0  0  0  0
    8.6928  -14.2185   20.2817 C   0  0  0  0  0  0  0  0  0  0  0  0
   10.0839  -14.4699   20.7465 C   0  0  2  0  0  0  0  0  0  0  0  0
   10.9886  -14.8393   19.6820 N   0  0  0  0  0  0  0  0  0  0  0  0
   10.0207  -15.5502   21.7888 C   0  0  0  0  0  0  0  0  0  0  0  0
    9.1302  -15.4333   22.6693 O   0  0  0  0  0  0  0  0  0  0  0  0
   10.9079  -16.6508   21.7973 N   0  0  0  0  0  0  0  0  0  0  0  0
   10.8474  -17.6742   22.8531 C   0  0  1  0  0  0  0  0  0  0  0  0
   11.3465  -18.9881   22.3371 C   0  0  0  0  0  0  0  0  0  0  0  0
   10.3888  -19.5868   21.4038 C   0  0  0  0  0  0  0  0  0  0  0  0
    9.1309  -19.1463   21.0954 C   0  0  0  0  0  0  0  0  0  0  0  0
    8.6150  -20.0115   20.2221 N   0  0  0  0  0  0  0  0  0  0  0  0
    9.4983  -20.9702   19.9754 C   0  0  0  0  0  0  0  0  0  0  0  0
   10.5981  -20.7353   20.6878 N   0  0  0  0  0  0  0  0  0  0  0  0
   11.6664  -17.2075   23.9785 C   0  0  0  0  0  0  0  0  0  0  0  0
   12.8347  -16.7612   23.8653 O   0  0  0  0  0  0  0  0  0  0  0  0
   11.1402  -17.2472   25.2956 N   0  0  0  0  0  0  0  0  0  0  0  0
   11.9843  -16.9575   26.4624 C   0  0  1  0  0  0  0  0  0  0  0  0
   12.0588  -15.4737   26.5996 C   0  0  0  0  0  0  0  0  0  0  0  0
   10.8310  -14.8491   27.0849 C   0  0  0  0  0  0  0  0  0  0  0  0
    9.7079  -14.6007   26.3388 C   0  0  0  0  0  0  0  0  0  0  0  0
    8.8114  -14.0204   27.1518 N   0  0  0  0  0  0  0  0  0  0  0  0
    9.3604  -13.9104   28.3695 C   0  0  0  0  0  0  0  0  0  0  0  0
   10.5974  -14.4192   28.3241 N   0  0  0  0  0  0  0  0  0  0  0  0
   11.4439  -17.6257   27.6734 C   0  0  0  0  0  0  0  0  0  0  0  0
   10.3573  -18.2543   27.6117 O   0  0  0  0  0  0  0  0  0  0  0  0
   12.0871  -17.5949   28.9023 O   0  0  0  0  0  0  0  0  0  0  0  0
  2  1  1  1
  2  3  1  0
  4  2  1  0
  5  4  1  0
  5  6  1  6
  7  8  2  0
  7  5  1  0
  9  7  1  0
 10 11  1  6
 10  9  1  0
 11 12  1  0
 12 13  2  0
 12 16  1  0
 13 14  1  0
 14 15  1  0
 16 15  2  0
 17 10  1  0
 18 17  2  0
 19 17  1  0
 20 19  1  0
 21 22  1  0
 20 21  1  1
 22 23  2  0
 23 24  1  0
 25 24  1  0
 26 22  1  0
 26 25  2  0
 27 20  1  0
 27 29  1  0
 28 27  2  0
M  END
$$$$
