IHY.pdb
     RDKit          3D

 31 32  0  0  1  0  0  0  0  0999 V2000
   18.6574  -15.7853  -16.4350 C   0  0  0  0  0  0  0  0  0  0  0  0
   18.8323  -14.4762  -17.1250 C   0  0  0  0  0  0  0  0  0  0  0  0
   18.7196  -13.2691  -16.2350 C   0  0  2  0  0  0  0  0  0  0  0  0
   17.3625  -13.3253  -15.5720 C   0  0  0  0  0  0  0  0  0  0  0  0
   18.9390  -12.0161  -17.0112 C   0  0  2  0  0  0  0  0  0  0  0  0
   20.0804  -12.2019  -17.8842 N   0  0  0  0  0  0  0  0  0  0  0  0
   19.1072  -10.8244  -16.1580 C   0  0  0  0  0  0  0  0  0  0  0  0
   18.3722  -10.5290  -15.2033 O   0  0  0  0  0  0  0  0  0  0  0  0
   20.1874   -9.9212  -16.4230 N   0  0  0  0  0  0  0  0  0  0  0  0
   20.3245   -8.6761  -15.7195 C   0  0  1  0  0  0  0  0  0  0  0  0
   21.5819   -7.9500  -15.8483 C   0  0  0  0  0  0  0  0  0  0  0  0
   21.7261   -6.6105  -15.3060 C   0  0  0  0  0  0  0  0  0  0  0  0
   21.8752   -5.3707  -15.8380 C   0  0  0  0  0  0  0  0  0  0  0  0
   21.9462   -4.4573  -14.8624 N   0  0  0  0  0  0  0  0  0  0  0  0
   21.8397   -5.1361  -13.7109 C   0  0  0  0  0  0  0  0  0  0  0  0
   21.7057   -6.4360  -13.9412 N   0  0  0  0  0  0  0  0  0  0  0  0
   19.1036   -7.8449  -15.9424 C   0  0  0  0  0  0  0  0  0  0  0  0
   18.6749   -7.8128  -17.1412 O   0  0  0  0  0  0  0  0  0  0  0  0
   16.6708   -7.1829   -8.9867 O   0  0  0  0  0  0  0  0  0  0  0  0
   16.5168   -7.0679  -10.3652 C   0  0  0  0  0  0  0  0  0  0  0  0
   16.1799   -5.8876  -10.9785 C   0  0  0  0  0  0  0  0  0  0  0  0
   16.0282   -5.7744  -12.3363 C   0  0  0  0  0  0  0  0  0  0  0  0
   16.2128   -6.8680  -13.1514 C   0  0  0  0  0  0  0  0  0  0  0  0
   16.0579   -6.8235  -14.6151 C   0  0  0  0  0  0  0  0  0  0  0  0
   17.3232   -6.2961  -15.2395 C   0  0  2  0  0  0  0  0  0  0  0  0
   18.4553   -7.1379  -14.9149 N   0  0  0  0  0  0  0  0  0  0  0  0
   17.6311   -4.9238  -14.7792 C   0  0  0  0  0  0  0  0  0  0  0  0
   18.8531   -4.6873  -14.1171 O   0  0  0  0  0  0  0  0  0  0  0  0
   16.5561   -8.0721  -12.5314 C   0  0  0  0  0  0  0  0  0  0  0  0
   16.7038   -8.1670  -11.1719 C   0  0  0  0  0  0  0  0  0  0  0  0
   16.8900   -3.9240  -14.9249 O   0  0  0  0  0  0  0  0  0  0  0  0
  2  1  1  0
  2  3  1  0
  3  4  1  6
  5  3  1  0
  5  6  1  1
  7  8  2  0
  7  5  1  0
  9  7  1  0
 10  9  1  0
 10 11  1  6
 12 11  1  0
 13 12  2  0
 14 15  1  0
 14 13  1  0
 15 16  2  0
 16 12  1  0
 17 10  1  0
 17 18  2  0
 19 20  1  0
 20 21  2  0
 21 22  1  0
 23 24  1  0
 23 22  2  0
 25 26  1  0
 25 24  1  1
 26 17  1  0
 27 25  1  0
 28 27  1  0
 29 23  1  0
 30 29  2  0
 30 20  1  0
 31 27  2  0
M  END
$$$$
