IHY.pdb
     RDKit          3D

 31 32  0  0  1  0  0  0  0  0999 V2000
   27.7108  -26.3671  -21.8554 C   0  0  0  0  0  0  0  0  0  0  0  0
   29.1379  -26.4178  -21.4294 C   0  0  0  0  0  0  0  0  0  0  0  0
   29.7017  -27.8019  -21.2616 C   0  0  2  0  0  0  0  0  0  0  0  0
   28.8952  -28.4874  -20.1827 C   0  0  0  0  0  0  0  0  0  0  0  0
   31.1591  -27.7467  -20.9554 C   0  0  2  0  0  0  0  0  0  0  0  0
   31.8416  -27.0894  -22.0515 N   0  0  0  0  0  0  0  0  0  0  0  0
   31.7464  -29.0713  -20.6776 C   0  0  0  0  0  0  0  0  0  0  0  0
   32.0916  -29.8876  -21.5456 O   0  0  0  0  0  0  0  0  0  0  0  0
   31.9465  -29.4765  -19.3180 N   0  0  0  0  0  0  0  0  0  0  0  0
   32.5343  -30.7441  -18.9834 C   0  0  1  0  0  0  0  0  0  0  0  0
   33.9730  -30.7943  -18.7546 C   0  0  0  0  0  0  0  0  0  0  0  0
   34.9017  -30.8544  -19.8695 C   0  0  0  0  0  0  0  0  0  0  0  0
   34.7823  -31.0369  -21.2092 C   0  0  0  0  0  0  0  0  0  0  0  0
   35.9871  -30.9853  -21.7894 N   0  0  0  0  0  0  0  0  0  0  0  0
   36.8658  -30.7679  -20.8000 C   0  0  0  0  0  0  0  0  0  0  0  0
   36.2459  -30.6836  -19.6298 N   0  0  0  0  0  0  0  0  0  0  0  0
   31.7151  -31.4048  -17.9233 C   0  0  0  0  0  0  0  0  0  0  0  0
   31.6826  -30.8022  -16.8019 O   0  0  0  0  0  0  0  0  0  0  0  0
   25.1085  -33.0619  -13.1388 O   0  0  0  0  0  0  0  0  0  0  0  0
   26.1459  -32.7076  -13.9964 C   0  0  0  0  0  0  0  0  0  0  0  0
   25.9300  -32.1587  -15.2353 C   0  0  0  0  0  0  0  0  0  0  0  0
   26.9519  -31.8096  -16.0800 C   0  0  0  0  0  0  0  0  0  0  0  0
   28.2622  -32.0029  -15.7053 C   0  0  0  0  0  0  0  0  0  0  0  0
   29.4094  -31.6611  -16.5629 C   0  0  0  0  0  0  0  0  0  0  0  0
   29.8169  -32.8699  -17.3640 C   0  0  2  0  0  0  0  0  0  0  0  0
   31.0193  -32.6091  -18.1267 N   0  0  0  0  0  0  0  0  0  0  0  0
   28.7581  -33.2815  -18.3124 C   0  0  0  0  0  0  0  0  0  0  0  0
   27.7244  -34.1231  -17.8533 O   0  0  0  0  0  0  0  0  0  0  0  0
   28.4869  -32.5614  -14.4445 C   0  0  0  0  0  0  0  0  0  0  0  0
   27.4528  -32.9043  -13.6126 C   0  0  0  0  0  0  0  0  0  0  0  0
   28.6897  -32.9451  -19.5175 O   0  0  0  0  0  0  0  0  0  0  0  0
  2  1  1  0
  2  3  1  0
  3  4  1  1
  5  3  1  0
  5  6  1  6
  7  8  2  0
  7  5  1  0
  9  7  1  0
 10  9  1  0
 10 11  1  1
 12 11  1  0
 13 12  2  0
 14 15  1  0
 14 13  1  0
 15 16  2  0
 16 12  1  0
 17 10  1  0
 17 18  2  0
 19 20  1  0
 20 21  2  0
 21 22  1  0
 23 24  1  0
 23 22  2  0
 25 26  1  0
 25 24  1  6
 26 17  1  0
 27 25  1  0
 28 27  1  0
 29 23  1  0
 30 29  2  0
 30 20  1  0
 31 27  2  0
M  END
$$$$
