IHY.pdb
     RDKit          3D

 31 32  0  0  1  0  0  0  0  0999 V2000
   27.6744  -20.1235   -6.1904 C   0  0  0  0  0  0  0  0  0  0  0  0
   28.0512  -20.9462   -7.3744 C   0  0  0  0  0  0  0  0  0  0  0  0
   27.2821  -20.6413   -8.6303 C   0  0  2  0  0  0  0  0  0  0  0  0
   25.8309  -20.9637   -8.3575 C   0  0  0  0  0  0  0  0  0  0  0  0
   27.8398  -21.3942   -9.7891 C   0  0  2  0  0  0  0  0  0  0  0  0
   29.2701  -21.1694   -9.8468 N   0  0  0  0  0  0  0  0  0  0  0  0
   27.1932  -21.0536  -11.0706 C   0  0  0  0  0  0  0  0  0  0  0  0
   27.4521  -20.0467  -11.7474 O   0  0  0  0  0  0  0  0  0  0  0  0
   26.1889  -21.9269  -11.6012 N   0  0  0  0  0  0  0  0  0  0  0  0
   25.6029  -21.7108  -12.8950 C   0  0  1  0  0  0  0  0  0  0  0  0
   25.9154  -22.6591  -13.9570 C   0  0  0  0  0  0  0  0  0  0  0  0
   25.3561  -22.4968  -15.2873 C   0  0  0  0  0  0  0  0  0  0  0  0
   24.4648  -21.6458  -15.8564 C   0  0  0  0  0  0  0  0  0  0  0  0
   24.3171  -21.9353  -17.1546 N   0  0  0  0  0  0  0  0  0  0  0  0
   25.1256  -22.9775  -17.3961 C   0  0  0  0  0  0  0  0  0  0  0  0
   25.7669  -23.3415  -16.2929 N   0  0  0  0  0  0  0  0  0  0  0  0
   24.1471  -21.4167  -12.7358 C   0  0  0  0  0  0  0  0  0  0  0  0
   23.6714  -21.6221  -11.5725 O   0  0  0  0  0  0  0  0  0  0  0  0
   16.5891  -17.4541  -12.1574 O   0  0  0  0  0  0  0  0  0  0  0  0
   17.9035  -17.8797  -12.3260 C   0  0  0  0  0  0  0  0  0  0  0  0
   18.5551  -18.6598  -11.4042 C   0  0  0  0  0  0  0  0  0  0  0  0
   19.8498  -19.0790  -11.5704 C   0  0  0  0  0  0  0  0  0  0  0  0
   20.5584  -18.7227  -12.6954 C   0  0  0  0  0  0  0  0  0  0  0  0
   21.9534  -19.1277  -12.9368 C   0  0  0  0  0  0  0  0  0  0  0  0
   21.9821  -20.5252  -13.4980 C   0  0  2  0  0  0  0  0  0  0  0  0
   23.3377  -20.9449  -13.7838 N   0  0  0  0  0  0  0  0  0  0  0  0
   21.2011  -20.6291  -14.7506 C   0  0  0  0  0  0  0  0  0  0  0  0
   19.9486  -21.2756  -14.7187 O   0  0  0  0  0  0  0  0  0  0  0  0
   19.8989  -17.9286  -13.6369 C   0  0  0  0  0  0  0  0  0  0  0  0
   18.6036  -17.5187  -13.4544 C   0  0  0  0  0  0  0  0  0  0  0  0
   21.5552  -20.1859  -15.8678 O   0  0  0  0  0  0  0  0  0  0  0  0
  2  1  1  0
  2  3  1  0
  3  4  1  1
  5  3  1  0
  5  6  1  6
  7  8  2  0
  7  5  1  0
  9  7  1  0
 10  9  1  0
 10 11  1  6
 12 11  1  0
 13 12  2  0
 14 15  1  0
 14 13  1  0
 15 16  2  0
 16 12  1  0
 17 10  1  0
 17 18  2  0
 19 20  1  0
 20 21  2  0
 21 22  1  0
 23 24  1  0
 23 22  2  0
 25 26  1  0
 25 24  1  6
 26 17  1  0
 27 25  1  0
 28 27  1  0
 29 23  1  0
 30 29  2  0
 30 20  1  0
 31 27  2  0
M  END
$$$$
