IHY.pdb
     RDKit          3D

 31 32  0  0  1  0  0  0  0  0999 V2000
   14.0574  -10.5982  -15.8162 C   0  0  0  0  0  0  0  0  0  0  0  0
   15.5399  -10.6660  -15.6813 C   0  0  0  0  0  0  0  0  0  0  0  0
   16.2972   -9.6314  -16.4674 C   0  0  2  0  0  0  0  0  0  0  0  0
   15.8705   -9.7636  -17.9113 C   0  0  0  0  0  0  0  0  0  0  0  0
   17.7663   -9.7907  -16.2755 C   0  0  2  0  0  0  0  0  0  0  0  0
   18.1632  -11.0929  -16.7717 N   0  0  0  0  0  0  0  0  0  0  0  0
   18.1953   -9.5982  -14.8771 C   0  0  0  0  0  0  0  0  0  0  0  0
   18.4698  -10.5162  -14.0892 O   0  0  0  0  0  0  0  0  0  0  0  0
   18.3142   -8.2678  -14.3588 N   0  0  0  0  0  0  0  0  0  0  0  0
   18.8059   -8.0116  -13.0334 C   0  0  1  0  0  0  0  0  0  0  0  0
   20.1595   -7.4893  -12.8926 C   0  0  0  0  0  0  0  0  0  0  0  0
   21.2943   -8.2047  -13.4488 C   0  0  0  0  0  0  0  0  0  0  0  0
   22.1294   -8.0100  -14.5010 C   0  0  0  0  0  0  0  0  0  0  0  0
   23.0391   -8.9902  -14.5534 N   0  0  0  0  0  0  0  0  0  0  0  0
   22.7673   -9.8034  -13.5225 C   0  0  0  0  0  0  0  0  0  0  0  0
   21.7221   -9.3599  -12.8358 N   0  0  0  0  0  0  0  0  0  0  0  0
   17.7703   -7.2657  -12.2572 C   0  0  0  0  0  0  0  0  0  0  0  0
   17.2849   -6.2408  -12.8366 O   0  0  0  0  0  0  0  0  0  0  0  0
   11.4622   -4.6398   -6.8764 O   0  0  0  0  0  0  0  0  0  0  0  0
   12.4155   -5.4003   -7.5473 C   0  0  0  0  0  0  0  0  0  0  0  0
   12.3446   -5.6608   -8.8926 C   0  0  0  0  0  0  0  0  0  0  0  0
   13.2837   -6.4099   -9.5534 C   0  0  0  0  0  0  0  0  0  0  0  0
   14.3565   -6.9400   -8.8731 C   0  0  0  0  0  0  0  0  0  0  0  0
   15.3974   -7.7609   -9.5140 C   0  0  0  0  0  0  0  0  0  0  0  0
   16.3231   -6.8735  -10.3041 C   0  0  2  0  0  0  0  0  0  0  0  0
   17.3450   -7.6500  -10.9736 N   0  0  0  0  0  0  0  0  0  0  0  0
   17.0002   -5.8805   -9.4407 C   0  0  0  0  0  0  0  0  0  0  0  0
   16.4150   -4.6079   -9.2807 O   0  0  0  0  0  0  0  0  0  0  0  0
   14.4329   -6.6772   -7.5030 C   0  0  0  0  0  0  0  0  0  0  0  0
   13.4847   -5.9258   -6.8585 C   0  0  0  0  0  0  0  0  0  0  0  0
   18.0732   -6.0667   -8.8210 O   0  0  0  0  0  0  0  0  0  0  0  0
  2  1  1  0
  2  3  1  0
  3  4  1  6
  5  3  1  0
  5  6  1  1
  7  8  2  0
  7  5  1  0
  9  7  1  0
 10  9  1  0
 10 11  1  6
 12 11  1  0
 13 12  2  0
 14 15  1  0
 14 13  1  0
 15 16  2  0
 16 12  1  0
 17 10  1  0
 17 18  2  0
 19 20  1  0
 20 21  2  0
 21 22  1  0
 23 24  1  0
 23 22  2  0
 25 26  1  0
 25 24  1  1
 26 17  1  0
 27 25  1  0
 28 27  1  0
 29 23  1  0
 30 29  2  0
 30 20  1  0
 31 27  2  0
M  END
$$$$
