IHY.pdb
     RDKit          3D

 31 32  0  0  1  0  0  0  0  0999 V2000
   26.2407  -34.3233  -15.2131 C   0  0  0  0  0  0  0  0  0  0  0  0
   24.8493  -34.2100  -14.6916 C   0  0  0  0  0  0  0  0  0  0  0  0
   24.7381  -33.6788  -13.2891 C   0  0  2  0  0  0  0  0  0  0  0  0
   25.5641  -34.5805  -12.4007 C   0  0  0  0  0  0  0  0  0  0  0  0
   23.3116  -33.5910  -12.8672 C   0  0  2  0  0  0  0  0  0  0  0  0
   22.6524  -32.5729  -13.6601 N   0  0  0  0  0  0  0  0  0  0  0  0
   23.1457  -33.3349  -11.4239 C   0  0  0  0  0  0  0  0  0  0  0  0
   23.0015  -32.2118  -10.9172 O   0  0  0  0  0  0  0  0  0  0  0  0
   23.1465  -34.4406  -10.5126 N   0  0  0  0  0  0  0  0  0  0  0  0
   22.8298  -34.2763   -9.1210 C   0  0  1  0  0  0  0  0  0  0  0  0
   21.5889  -34.8594   -8.6261 C   0  0  0  0  0  0  0  0  0  0  0  0
   20.4251  -34.0282   -8.3741 C   0  0  0  0  0  0  0  0  0  0  0  0
   20.1554  -32.7011   -8.4671 C   0  0  0  0  0  0  0  0  0  0  0  0
   18.8842  -32.4650   -8.1214 N   0  0  0  0  0  0  0  0  0  0  0  0
   18.3572  -33.6581   -7.8103 C   0  0  0  0  0  0  0  0  0  0  0  0
   19.2580  -34.6221   -7.9517 N   0  0  0  0  0  0  0  0  0  0  0  0
   24.0352  -34.5950   -8.2983 C   0  0  0  0  0  0  0  0  0  0  0  0
   24.6795  -35.6351   -8.6519 O   0  0  0  0  0  0  0  0  0  0  0  0
   30.5086  -34.9504   -2.5014 O   0  0  0  0  0  0  0  0  0  0  0  0
   29.4031  -34.5067   -3.2214 C   0  0  0  0  0  0  0  0  0  0  0  0
   28.1212  -34.5894   -2.7391 C   0  0  0  0  0  0  0  0  0  0  0  0
   27.0324  -34.1524   -3.4483 C   0  0  0  0  0  0  0  0  0  0  0  0
   27.1915  -33.6022   -4.7000 C   0  0  0  0  0  0  0  0  0  0  0  0
   26.0690  -33.1206   -5.5224 C   0  0  0  0  0  0  0  0  0  0  0  0
   25.6146  -34.2194   -6.4472 C   0  0  2  0  0  0  0  0  0  0  0  0
   24.4491  -33.8151   -7.2045 N   0  0  0  0  0  0  0  0  0  0  0  0
   25.2689  -35.4523   -5.7054 C   0  0  0  0  0  0  0  0  0  0  0  0
   24.0277  -35.5196   -5.0402 O   0  0  0  0  0  0  0  0  0  0  0  0
   28.4951  -33.5157   -5.1952 C   0  0  0  0  0  0  0  0  0  0  0  0
   29.5724  -33.9577   -4.4719 C   0  0  0  0  0  0  0  0  0  0  0  0
   25.9928  -36.4704   -5.6087 O   0  0  0  0  0  0  0  0  0  0  0  0
  2  1  1  0
  2  3  1  0
  3  4  1  1
  5  3  1  0
  5  6  1  6
  7  8  2  0
  7  5  1  0
  9  7  1  0
 10  9  1  0
 10 11  1  1
 12 11  1  0
 13 12  2  0
 14 15  1  0
 14 13  1  0
 15 16  2  0
 16 12  1  0
 17 10  1  0
 17 18  2  0
 19 20  1  0
 20 21  2  0
 21 22  1  0
 23 24  1  0
 23 22  2  0
 25 26  1  0
 25 24  1  1
 26 17  1  0
 27 25  1  0
 28 27  1  0
 29 23  1  0
 30 29  2  0
 30 20  1  0
 31 27  2  0
M  END
$$$$
