IHY.pdb
     RDKit          3D

 31 32  0  0  1  0  0  0  0  0999 V2000
   22.1780  -24.0597  -30.3533 C   0  0  0  0  0  0  0  0  0  0  0  0
   22.3471  -23.4540  -29.0024 C   0  0  0  0  0  0  0  0  0  0  0  0
   22.5836  -24.4383  -27.8902 C   0  0  2  0  0  0  0  0  0  0  0  0
   21.2323  -24.8077  -27.3227 C   0  0  0  0  0  0  0  0  0  0  0  0
   23.5106  -23.8723  -26.8699 C   0  0  2  0  0  0  0  0  0  0  0  0
   24.7852  -23.5945  -27.5006 N   0  0  0  0  0  0  0  0  0  0  0  0
   23.6769  -24.7405  -25.6888 C   0  0  0  0  0  0  0  0  0  0  0  0
   24.4730  -25.6889  -25.6150 O   0  0  0  0  0  0  0  0  0  0  0  0
   22.8769  -24.4989  -24.5249 N   0  0  0  0  0  0  0  0  0  0  0  0
   22.9931  -25.3084  -23.3437 C   0  0  1  0  0  0  0  0  0  0  0  0
   23.7222  -24.7617  -22.2061 C   0  0  0  0  0  0  0  0  0  0  0  0
   25.0937  -24.3066  -22.3509 C   0  0  0  0  0  0  0  0  0  0  0  0
   26.0005  -24.2984  -23.3609 C   0  0  0  0  0  0  0  0  0  0  0  0
   27.1405  -23.7301  -22.9505 N   0  0  0  0  0  0  0  0  0  0  0  0
   26.9408  -23.3805  -21.6715 C   0  0  0  0  0  0  0  0  0  0  0  0
   25.7180  -23.7130  -21.2779 N   0  0  0  0  0  0  0  0  0  0  0  0
   21.6568  -25.8833  -23.0045 C   0  0  0  0  0  0  0  0  0  0  0  0
   20.6536  -25.2237  -23.4294 O   0  0  0  0  0  0  0  0  0  0  0  0
   14.3987  -30.2171  -22.0110 O   0  0  0  0  0  0  0  0  0  0  0  0
   15.6111  -29.5996  -22.3045 C   0  0  0  0  0  0  0  0  0  0  0  0
   15.7917  -28.2419  -22.2222 C   0  0  0  0  0  0  0  0  0  0  0  0
   16.9859  -27.6338  -22.5114 C   0  0  0  0  0  0  0  0  0  0  0  0
   18.0718  -28.3828  -22.9044 C   0  0  0  0  0  0  0  0  0  0  0  0
   19.3812  -27.7983  -23.2396 C   0  0  0  0  0  0  0  0  0  0  0  0
   20.1569  -27.5419  -21.9741 C   0  0  2  0  0  0  0  0  0  0  0  0
   21.4932  -27.0694  -22.2681 N   0  0  0  0  0  0  0  0  0  0  0  0
   20.2789  -28.7641  -21.1487 C   0  0  0  0  0  0  0  0  0  0  0  0
   21.5633  -29.2864  -20.8937 O   0  0  0  0  0  0  0  0  0  0  0  0
   17.8927  -29.7658  -22.9895 C   0  0  0  0  0  0  0  0  0  0  0  0
   16.6912  -30.3570  -22.6963 C   0  0  0  0  0  0  0  0  0  0  0  0
   19.3244  -29.3972  -20.6406 O   0  0  0  0  0  0  0  0  0  0  0  0
  2  1  1  0
  2  3  1  0
  3  4  1  1
  5  3  1  0
  5  6  1  6
  7  8  2  0
  7  5  1  0
  9  7  1  0
 10  9  1  0
 10 11  1  1
 12 11  1  0
 13 12  2  0
 14 15  1  0
 14 13  1  0
 15 16  2  0
 16 12  1  0
 17 10  1  0
 17 18  2  0
 19 20  1  0
 20 21  2  0
 21 22  1  0
 23 24  1  0
 23 22  2  0
 25 26  1  0
 25 24  1  6
 26 17  1  0
 27 25  1  0
 28 27  1  0
 29 23  1  0
 30 29  2  0
 30 20  1  0
 31 27  2  0
M  END
$$$$
