IHY.pdb
     RDKit          3D

 31 32  0  0  1  0  0  0  0  0999 V2000
   30.8093  -20.3628  -11.8858 C   0  0  0  0  0  0  0  0  0  0  0  0
   29.5499  -21.0793  -12.2342 C   0  0  0  0  0  0  0  0  0  0  0  0
   28.4182  -20.1945  -12.6792 C   0  0  2  0  0  0  0  0  0  0  0  0
   28.1021  -19.2598  -11.5342 C   0  0  0  0  0  0  0  0  0  0  0  0
   27.2465  -21.0088  -13.1090 C   0  0  2  0  0  0  0  0  0  0  0  0
   27.6808  -21.9565  -14.1153 N   0  0  0  0  0  0  0  0  0  0  0  0
   26.1173  -20.1932  -13.5950 C   0  0  0  0  0  0  0  0  0  0  0  0
   25.3809  -19.5038  -12.8730 O   0  0  0  0  0  0  0  0  0  0  0  0
   25.8214  -20.1729  -14.9967 N   0  0  0  0  0  0  0  0  0  0  0  0
   24.7456  -19.3861  -15.5332 C   0  0  1  0  0  0  0  0  0  0  0  0
   25.0087  -18.5832  -16.7210 C   0  0  0  0  0  0  0  0  0  0  0  0
   23.9420  -17.8390  -17.3669 C   0  0  0  0  0  0  0  0  0  0  0  0
   22.6131  -17.6764  -17.1426 C   0  0  0  0  0  0  0  0  0  0  0  0
   22.0913  -16.8469  -18.0540 N   0  0  0  0  0  0  0  0  0  0  0  0
   23.1063  -16.4893  -18.8538 C   0  0  0  0  0  0  0  0  0  0  0  0
   24.2362  -17.0687  -18.4685 N   0  0  0  0  0  0  0  0  0  0  0  0
   23.5118  -20.2242  -15.6128 C   0  0  0  0  0  0  0  0  0  0  0  0
   23.5675  -21.2045  -16.4239 O   0  0  0  0  0  0  0  0  0  0  0  0
   22.7699  -20.4961   -8.7160 O   0  0  0  0  0  0  0  0  0  0  0  0
   22.4564  -20.8952  -10.0121 C   0  0  0  0  0  0  0  0  0  0  0  0
   21.1701  -21.1392  -10.4229 C   0  0  0  0  0  0  0  0  0  0  0  0
   20.8614  -21.5324  -11.6995 C   0  0  0  0  0  0  0  0  0  0  0  0
   21.8558  -21.7004  -12.6363 C   0  0  0  0  0  0  0  0  0  0  0  0
   21.6003  -22.1290  -14.0217 C   0  0  0  0  0  0  0  0  0  0  0  0
   21.2725  -20.9270  -14.8683 C   0  0  2  0  0  0  0  0  0  0  0  0
   22.3564  -19.9677  -14.8542 N   0  0  0  0  0  0  0  0  0  0  0  0
   20.0512  -20.2390  -14.3940 C   0  0  0  0  0  0  0  0  0  0  0  0
   18.8354  -20.9523  -14.3699 O   0  0  0  0  0  0  0  0  0  0  0  0
   23.1672  -21.4529  -12.2226 C   0  0  0  0  0  0  0  0  0  0  0  0
   23.4575  -21.0602  -10.9417 C   0  0  0  0  0  0  0  0  0  0  0  0
   19.9916  -19.0507  -14.0010 O   0  0  0  0  0  0  0  0  0  0  0  0
  2  1  1  0
  2  3  1  0
  3  4  1  1
  5  3  1  0
  5  6  1  6
  7  8  2  0
  7  5  1  0
  9  7  1  0
 10  9  1  0
 10 11  1  6
 12 11  1  0
 13 12  2  0
 14 15  1  0
 14 13  1  0
 15 16  2  0
 16 12  1  0
 17 10  1  0
 17 18  2  0
 19 20  1  0
 20 21  2  0
 21 22  1  0
 23 24  1  0
 23 22  2  0
 25 26  1  0
 25 24  1  1
 26 17  1  0
 27 25  1  0
 28 27  1  0
 29 23  1  0
 30 29  2  0
 30 20  1  0
 31 27  2  0
M  END
$$$$
