IHY.pdb
     RDKit          3D

 31 32  0  0  1  0  0  0  0  0999 V2000
   23.4537  -15.3873  -23.3789 C   0  0  0  0  0  0  0  0  0  0  0  0
   24.3735  -15.4889  -22.2109 C   0  0  0  0  0  0  0  0  0  0  0  0
   24.0258  -16.5659  -21.2205 C   0  0  2  0  0  0  0  0  0  0  0  0
   22.6325  -16.2754  -20.7119 C   0  0  0  0  0  0  0  0  0  0  0  0
   25.0423  -16.6339  -20.1330 C   0  0  2  0  0  0  0  0  0  0  0  0
   26.3464  -16.8509  -20.7261 N   0  0  0  0  0  0  0  0  0  0  0  0
   24.7401  -17.6596  -19.1166 C   0  0  0  0  0  0  0  0  0  0  0  0
   24.9930  -18.8683  -19.2351 O   0  0  0  0  0  0  0  0  0  0  0  0
   24.1089  -17.2663  -17.8919 N   0  0  0  0  0  0  0  0  0  0  0  0
   23.9686  -18.1727  -16.7861 C   0  0  1  0  0  0  0  0  0  0  0  0
   24.8730  -18.0185  -15.6534 C   0  0  0  0  0  0  0  0  0  0  0  0
   26.2978  -17.8280  -15.8599 C   0  0  0  0  0  0  0  0  0  0  0  0
   27.1382  -16.7625  -15.8271 C   0  0  0  0  0  0  0  0  0  0  0  0
   28.3913  -17.1575  -16.0813 N   0  0  0  0  0  0  0  0  0  0  0  0
   28.3301  -18.4831  -16.2738 C   0  0  0  0  0  0  0  0  0  0  0  0
   27.0836  -18.9202  -16.1477 N   0  0  0  0  0  0  0  0  0  0  0  0
   22.5255  -18.2819  -16.4162 C   0  0  0  0  0  0  0  0  0  0  0  0
   21.9081  -17.1754  -16.2885 O   0  0  0  0  0  0  0  0  0  0  0  0
   14.1542  -19.9730  -15.5922 O   0  0  0  0  0  0  0  0  0  0  0  0
   15.5042  -20.0418  -15.9236 C   0  0  0  0  0  0  0  0  0  0  0  0
   16.3027  -21.0998  -15.5687 C   0  0  0  0  0  0  0  0  0  0  0  0
   17.6325  -21.1674  -15.8952 C   0  0  0  0  0  0  0  0  0  0  0  0
   18.2274  -20.1510  -16.6076 C   0  0  0  0  0  0  0  0  0  0  0  0
   19.6507  -20.1510  -16.9853 C   0  0  0  0  0  0  0  0  0  0  0  0
   20.4634  -19.5185  -15.8860 C   0  0  2  0  0  0  0  0  0  0  0  0
   21.8725  -19.5107  -16.2173 N   0  0  0  0  0  0  0  0  0  0  0  0
   20.3027  -20.2372  -14.6025 C   0  0  0  0  0  0  0  0  0  0  0  0
   19.3067  -19.8064  -13.7025 O   0  0  0  0  0  0  0  0  0  0  0  0
   17.4183  -19.0716  -16.9713 C   0  0  0  0  0  0  0  0  0  0  0  0
   16.0900  -19.0207  -16.6364 C   0  0  0  0  0  0  0  0  0  0  0  0
   20.9855  -21.2188  -14.2278 O   0  0  0  0  0  0  0  0  0  0  0  0
  2  1  1  0
  2  3  1  0
  3  4  1  1
  5  3  1  0
  5  6  1  6
  7  8  2  0
  7  5  1  0
  9  7  1  0
 10  9  1  0
 10 11  1  1
 12 11  1  0
 13 12  2  0
 14 15  1  0
 14 13  1  0
 15 16  2  0
 16 12  1  0
 17 10  1  0
 17 18  2  0
 19 20  1  0
 20 21  2  0
 21 22  1  0
 23 24  1  0
 23 22  2  0
 25 26  1  0
 25 24  1  6
 26 17  1  0
 27 25  1  0
 28 27  1  0
 29 23  1  0
 30 29  2  0
 30 20  1  0
 31 27  2  0
M  END
$$$$
