IHY.pdb
     RDKit          3D

 31 32  0  0  1  0  0  0  0  0999 V2000
   18.0937  -11.9231  -25.0384 C   0  0  0  0  0  0  0  0  0  0  0  0
   19.3485  -12.0608  -24.2464 C   0  0  0  0  0  0  0  0  0  0  0  0
   19.6174  -13.4428  -23.7178 C   0  0  2  0  0  0  0  0  0  0  0  0
   18.5179  -13.7688  -22.7333 C   0  0  0  0  0  0  0  0  0  0  0  0
   20.9800  -13.5257  -23.1202 C   0  0  2  0  0  0  0  0  0  0  0  0
   21.9472  -13.0726  -24.0993 N   0  0  0  0  0  0  0  0  0  0  0  0
   21.3159  -14.8726  -22.6208 C   0  0  0  0  0  0  0  0  0  0  0  0
   21.7182  -15.8088  -23.3282 O   0  0  0  0  0  0  0  0  0  0  0  0
   21.1792  -15.1544  -21.2226 N   0  0  0  0  0  0  0  0  0  0  0  0
   21.5910  -16.4098  -20.6585 C   0  0  1  0  0  0  0  0  0  0  0  0
   22.8191  -16.4397  -19.8739 C   0  0  0  0  0  0  0  0  0  0  0  0
   24.0973  -16.1116  -20.4802 C   0  0  0  0  0  0  0  0  0  0  0  0
   25.0395  -16.8055  -21.1681 C   0  0  0  0  0  0  0  0  0  0  0  0
   26.0420  -15.9927  -21.5220 N   0  0  0  0  0  0  0  0  0  0  0  0
   25.7200  -14.7798  -21.0495 C   0  0  0  0  0  0  0  0  0  0  0  0
   24.5543  -14.8153  -20.4165 N   0  0  0  0  0  0  0  0  0  0  0  0
   20.4202  -17.0647  -20.0015 C   0  0  0  0  0  0  0  0  0  0  0  0
   19.9017  -16.4168  -19.0355 O   0  0  0  0  0  0  0  0  0  0  0  0
   13.2756  -21.6418  -18.1421 O   0  0  0  0  0  0  0  0  0  0  0  0
   14.4720  -21.2398  -18.7287 C   0  0  0  0  0  0  0  0  0  0  0  0
   15.6917  -21.7355  -18.3419 C   0  0  0  0  0  0  0  0  0  0  0  0
   16.8701  -21.3394  -18.9198 C   0  0  0  0  0  0  0  0  0  0  0  0
   16.8706  -20.4075  -19.9328 C   0  0  0  0  0  0  0  0  0  0  0  0
   18.0966  -19.9283  -20.5929 C   0  0  0  0  0  0  0  0  0  0  0  0
   18.7073  -18.8191  -19.7770 C   0  0  2  0  0  0  0  0  0  0  0  0
   19.9083  -18.3103  -20.4046 N   0  0  0  0  0  0  0  0  0  0  0  0
   19.0644  -19.2734  -18.4147 C   0  0  0  0  0  0  0  0  0  0  0  0
   18.1591  -19.0364  -17.3602 O   0  0  0  0  0  0  0  0  0  0  0  0
   15.6310  -19.9000  -20.3301 C   0  0  0  0  0  0  0  0  0  0  0  0
   14.4622  -20.3077  -19.7411 C   0  0  0  0  0  0  0  0  0  0  0  0
   20.1231  -19.8647  -18.0990 O   0  0  0  0  0  0  0  0  0  0  0  0
  2  1  1  0
  2  3  1  0
  3  4  1  1
  5  3  1  0
  5  6  1  6
  7  8  2  0
  7  5  1  0
  9  7  1  0
 10  9  1  0
 10 11  1  1
 12 11  1  0
 13 12  2  0
 14 15  1  0
 14 13  1  0
 15 16  2  0
 16 12  1  0
 17 10  1  0
 17 18  2  0
 19 20  1  0
 20 21  2  0
 21 22  1  0
 23 24  1  0
 23 22  2  0
 25 26  1  0
 25 24  1  6
 26 17  1  0
 27 25  1  0
 28 27  1  0
 29 23  1  0
 30 29  2  0
 30 20  1  0
 31 27  2  0
M  END
$$$$
