IHY.pdb
     RDKit          3D

 31 32  0  0  1  0  0  0  0  0999 V2000
   32.5513  -28.9774   13.5427 C   0  0  0  0  0  0  0  0  0  0  0  0
   32.4989  -29.4326   12.1247 C   0  0  0  0  0  0  0  0  0  0  0  0
   31.1888  -29.1890   11.4275 C   0  0  2  0  0  0  0  0  0  0  0  0
   30.1255  -29.9410   12.1945 C   0  0  0  0  0  0  0  0  0  0  0  0
   31.2687  -29.5897    9.9945 C   0  0  2  0  0  0  0  0  0  0  0  0
   32.1961  -28.7081    9.3145 N   0  0  0  0  0  0  0  0  0  0  0  0
   29.9565  -29.6072    9.3206 C   0  0  0  0  0  0  0  0  0  0  0  0
   28.9396  -30.1595    9.7675 O   0  0  0  0  0  0  0  0  0  0  0  0
   29.8104  -28.9483    8.0567 N   0  0  0  0  0  0  0  0  0  0  0  0
   28.5414  -28.8630    7.3884 C   0  0  1  0  0  0  0  0  0  0  0  0
   28.0570  -27.5438    7.0013 C   0  0  0  0  0  0  0  0  0  0  0  0
   27.7667  -26.5344    8.0041 C   0  0  0  0  0  0  0  0  0  0  0  0
   27.0321  -26.4985    9.1451 C   0  0  0  0  0  0  0  0  0  0  0  0
   27.1225  -25.2897    9.7121 N   0  0  0  0  0  0  0  0  0  0  0  0
   27.9222  -24.5657    8.9156 C   0  0  0  0  0  0  0  0  0  0  0  0
   28.3285  -25.2848    7.8771 N   0  0  0  0  0  0  0  0  0  0  0  0
   28.4845  -29.8870    6.3023 C   0  0  0  0  0  0  0  0  0  0  0  0
   29.5596  -30.0391    5.6368 O   0  0  0  0  0  0  0  0  0  0  0  0
   29.6771  -35.2068    9.6994 O   0  0  0  0  0  0  0  0  0  0  0  0
   28.9741  -34.6562    8.6317 C   0  0  0  0  0  0  0  0  0  0  0  0
   29.4613  -34.6449    7.3491 C   0  0  0  0  0  0  0  0  0  0  0  0
   28.7688  -34.1024    6.2975 C   0  0  0  0  0  0  0  0  0  0  0  0
   27.5302  -33.5361    6.4971 C   0  0  0  0  0  0  0  0  0  0  0  0
   26.7339  -32.9272    5.4185 C   0  0  0  0  0  0  0  0  0  0  0  0
   27.3868  -31.6450    4.9729 C   0  0  2  0  0  0  0  0  0  0  0  0
   27.3344  -30.6429    6.0163 N   0  0  0  0  0  0  0  0  0  0  0  0
   26.7301  -31.0841    3.7713 C   0  0  0  0  0  0  0  0  0  0  0  0
   26.0737  -29.8406    3.8737 O   0  0  0  0  0  0  0  0  0  0  0  0
   27.0299  -33.5455    7.8016 C   0  0  0  0  0  0  0  0  0  0  0  0
   27.7362  -34.0926    8.8413 C   0  0  0  0  0  0  0  0  0  0  0  0
   26.7000  -31.6226    2.6403 O   0  0  0  0  0  0  0  0  0  0  0  0
  2  1  1  0
  2  3  1  0
  3  4  1  1
  5  3  1  0
  5  6  1  6
  7  8  2  0
  7  5  1  0
  9  7  1  0
 10  9  1  0
 10 11  1  6
 12 11  1  0
 13 12  2  0
 14 15  1  0
 14 13  1  0
 15 16  2  0
 16 12  1  0
 17 10  1  0
 17 18  2  0
 19 20  1  0
 20 21  2  0
 21 22  1  0
 23 24  1  0
 23 22  2  0
 25 26  1  0
 25 24  1  1
 26 17  1  0
 27 25  1  0
 28 27  1  0
 29 23  1  0
 30 29  2  0
 30 20  1  0
 31 27  2  0
M  END
$$$$
