FWT.pdb
     RDKit          3D

 33 35  0  0  1  0  0  0  0  0999 V2000
   29.0497  -19.9924  -14.5088 N   0  0  0  0  0  0  0  0  0  0  0  0
   27.8181  -19.5791  -13.8932 C   0  0  1  0  0  0  0  0  0  0  0  0
   26.9568  -18.9532  -14.9572 C   0  0  0  0  0  0  0  0  0  0  0  0
   27.4635  -17.6676  -15.4425 C   0  0  0  0  0  0  0  0  0  0  0  0
   28.1189  -17.6109  -16.6541 C   0  0  0  0  0  0  0  0  0  0  0  0
   28.6203  -16.4161  -17.1612 C   0  0  0  0  0  0  0  0  0  0  0  0
   28.4739  -15.2327  -16.4542 C   0  0  0  0  0  0  0  0  0  0  0  0
   27.8225  -15.2839  -15.2478 C   0  0  0  0  0  0  0  0  0  0  0  0
   27.3273  -16.4830  -14.7540 C   0  0  0  0  0  0  0  0  0  0  0  0
   27.0607  -20.7755  -13.3749 C   0  0  0  0  0  0  0  0  0  0  0  0
   27.2083  -21.8965  -13.9697 O   0  0  0  0  0  0  0  0  0  0  0  0
   26.2249  -20.5970  -12.2568 N   0  0  0  0  0  0  0  0  0  0  0  0
   25.1530  -21.4423  -11.8744 C   0  0  1  0  0  0  0  0  0  0  0  0
   25.0685  -21.7792  -10.4219 C   0  0  0  0  0  0  0  0  0  0  0  0
   26.0993  -21.0104   -9.6762 C   0  0  0  0  0  0  0  0  0  0  0  0
   25.8650  -19.9036   -8.8599 C   0  0  0  0  0  0  0  0  0  0  0  0
   27.0247  -19.4878   -8.3287 N   0  0  0  0  0  0  0  0  0  0  0  0
   27.9980  -20.2977   -8.7824 C   0  0  0  0  0  0  0  0  0  0  0  0
   29.3677  -20.2853   -8.5354 C   0  0  0  0  0  0  0  0  0  0  0  0
   30.1355  -21.2442   -9.1518 C   0  0  0  0  0  0  0  0  0  0  0  0
   29.6158  -22.2013   -9.9899 C   0  0  0  0  0  0  0  0  0  0  0  0
   28.2590  -22.2085  -10.2303 C   0  0  0  0  0  0  0  0  0  0  0  0
   27.4502  -21.2663   -9.6328 C   0  0  0  0  0  0  0  0  0  0  0  0
   23.8284  -21.1028  -12.4926 C   0  0  0  0  0  0  0  0  0  0  0  0
   23.3313  -19.9502  -12.5100 O   0  0  0  0  0  0  0  0  0  0  0  0
   22.5306  -22.8018  -15.9261 C   0  0  0  0  0  0  0  0  0  0  0  0
   21.5240  -22.8530  -14.8050 C   0  0  1  0  0  0  0  0  0  0  0  0
   21.4441  -24.1242  -14.2626 O   0  0  0  0  0  0  0  0  0  0  0  0
   21.7701  -21.7910  -13.7655 C   0  0  2  0  0  0  0  0  0  0  0  0
   23.0446  -22.1092  -13.1132 N   0  0  0  0  0  0  0  0  0  0  0  0
   20.6686  -21.8423  -12.7801 C   0  0  0  0  0  0  0  0  0  0  0  0
   20.8640  -22.2506  -11.6120 O   0  0  0  0  0  0  0  0  0  0  0  0
   19.4057  -21.4279  -13.1730 O   0  0  0  0  0  0  0  0  0  0  0  0
  2  1  1  6
  2  3  1  0
  3  4  1  0
  4  5  2  0
  5  6  1  0
  7  6  2  0
  8  7  1  0
  9  4  1  0
  9  8  2  0
 10 12  1  0
 10  2  1  0
 11 10  2  0
 13 12  1  0
 13 14  1  1
 15 23  1  0
 15 14  1  0
 16 15  2  0
 17 16  1  0
 17 18  1  0
 18 19  1  0
 18 23  2  0
 19 20  2  0
 20 21  1  0
 22 21  2  0
 23 22  1  0
 24 13  1  0
 25 24  2  0
 27 26  1  6
 27 28  1  0
 29 27  1  0
 29 30  1  1
 30 24  1  0
 31 33  1  0
 31 29  1  0
 32 31  2  0
M  END
$$$$
