FWT.pdb
     RDKit          3D

 33 35  0  0  1  0  0  0  0  0999 V2000
   28.6615  -20.7869  -15.2317 N   0  0  0  0  0  0  0  0  0  0  0  0
   27.7247  -20.0859  -14.3964 C   0  0  1  0  0  0  0  0  0  0  0  0
   26.9374  -19.1476  -15.2714 C   0  0  0  0  0  0  0  0  0  0  0  0
   27.7193  -18.0145  -15.7708 C   0  0  0  0  0  0  0  0  0  0  0  0
   27.7497  -16.8407  -15.0482 C   0  0  0  0  0  0  0  0  0  0  0  0
   28.4759  -15.7342  -15.4775 C   0  0  0  0  0  0  0  0  0  0  0  0
   29.1993  -15.7798  -16.6592 C   0  0  0  0  0  0  0  0  0  0  0  0
   29.1722  -16.9457  -17.3820 C   0  0  0  0  0  0  0  0  0  0  0  0
   28.4433  -18.0419  -16.9417 C   0  0  0  0  0  0  0  0  0  0  0  0
   26.7322  -21.0485  -13.7950 C   0  0  0  0  0  0  0  0  0  0  0  0
   26.3654  -22.0589  -14.4856 O   0  0  0  0  0  0  0  0  0  0  0  0
   26.2567  -20.7850  -12.4969 N   0  0  0  0  0  0  0  0  0  0  0  0
   25.0819  -21.3239  -11.9144 C   0  0  1  0  0  0  0  0  0  0  0  0
   25.2106  -21.8127  -10.5092 C   0  0  0  0  0  0  0  0  0  0  0  0
   26.1480  -20.9319   -9.7642 C   0  0  0  0  0  0  0  0  0  0  0  0
   25.7939  -19.8262   -8.9908 C   0  0  0  0  0  0  0  0  0  0  0  0
   26.8971  -19.2918   -8.4453 N   0  0  0  0  0  0  0  0  0  0  0  0
   27.9506  -20.0245   -8.8481 C   0  0  0  0  0  0  0  0  0  0  0  0
   29.3065  -19.8816   -8.5681 C   0  0  0  0  0  0  0  0  0  0  0  0
   30.1731  -20.7861   -9.1335 C   0  0  0  0  0  0  0  0  0  0  0  0
   29.7639  -21.8112   -9.9521 C   0  0  0  0  0  0  0  0  0  0  0  0
   28.4202  -21.9477  -10.2254 C   0  0  0  0  0  0  0  0  0  0  0  0
   27.5147  -21.0640   -9.6793 C   0  0  0  0  0  0  0  0  0  0  0  0
   23.8315  -20.5330  -12.1656 C   0  0  0  0  0  0  0  0  0  0  0  0
   23.8158  -19.3222  -12.4969 O   0  0  0  0  0  0  0  0  0  0  0  0
   22.6058  -19.5597  -14.4983 C   0  0  0  0  0  0  0  0  0  0  0  0
   21.4658  -20.4368  -14.0468 C   0  0  1  0  0  0  0  0  0  0  0  0
   21.5430  -21.6930  -14.6236 O   0  0  0  0  0  0  0  0  0  0  0  0
   21.3448  -20.4916  -12.5464 C   0  0  2  0  0  0  0  0  0  0  0  0
   22.5567  -21.1417  -12.0367 N   0  0  0  0  0  0  0  0  0  0  0  0
   20.1538  -21.2995  -12.2063 C   0  0  0  0  0  0  0  0  0  0  0  0
   19.0037  -20.8045  -12.2448 O   0  0  0  0  0  0  0  0  0  0  0  0
   20.3320  -22.6246  -11.8409 O   0  0  0  0  0  0  0  0  0  0  0  0
  2  1  1  6
  2  3  1  0
  3  4  1  0
  4  5  2  0
  5  6  1  0
  7  6  2  0
  8  7  1  0
  9  4  1  0
  9  8  2  0
 10 12  1  0
 10  2  1  0
 11 10  2  0
 13 12  1  0
 13 14  1  1
 15 23  1  0
 15 14  1  0
 16 15  2  0
 17 16  1  0
 17 18  1  0
 18 19  1  0
 18 23  2  0
 19 20  2  0
 20 21  1  0
 22 21  2  0
 23 22  1  0
 24 13  1  0
 25 24  2  0
 27 26  1  1
 27 28  1  0
 29 27  1  0
 29 30  1  1
 30 24  1  0
 31 33  1  0
 31 29  1  0
 32 31  2  0
M  END
$$$$
