FWT.pdb
     RDKit          3D

 33 35  0  0  1  0  0  0  0  0999 V2000
   27.6185  -21.7121  -16.6129 N   0  0  0  0  0  0  0  0  0  0  0  0
   27.8446  -20.8304  -15.5003 C   0  0  1  0  0  0  0  0  0  0  0  0
   27.2203  -19.5009  -15.8298 C   0  0  0  0  0  0  0  0  0  0  0  0
   27.9080  -18.7785  -16.9023 C   0  0  0  0  0  0  0  0  0  0  0  0
   27.2738  -18.5978  -18.1130 C   0  0  0  0  0  0  0  0  0  0  0  0
   27.8818  -17.9197  -19.1650 C   0  0  0  0  0  0  0  0  0  0  0  0
   29.1591  -17.3996  -19.0251 C   0  0  0  0  0  0  0  0  0  0  0  0
   29.7945  -17.5769  -17.8221 C   0  0  0  0  0  0  0  0  0  0  0  0
   29.1759  -18.2554  -16.7811 C   0  0  0  0  0  0  0  0  0  0  0  0
   27.1401  -21.3436  -14.2698 C   0  0  0  0  0  0  0  0  0  0  0  0
   26.0481  -21.9904  -14.4161 O   0  0  0  0  0  0  0  0  0  0  0  0
   27.7230  -21.0832  -13.0156 N   0  0  0  0  0  0  0  0  0  0  0  0
   27.0424  -21.0430  -11.7727 C   0  0  1  0  0  0  0  0  0  0  0  0
   27.8897  -20.7974  -10.5677 C   0  0  0  0  0  0  0  0  0  0  0  0
   27.0257  -20.7452   -9.3592 C   0  0  0  0  0  0  0  0  0  0  0  0
   25.6803  -21.1092   -9.2974 C   0  0  0  0  0  0  0  0  0  0  0  0
   25.2350  -20.9590   -8.0407 N   0  0  0  0  0  0  0  0  0  0  0  0
   26.2584  -20.5077   -7.2936 C   0  0  0  0  0  0  0  0  0  0  0  0
   26.3127  -20.1884   -5.9400 C   0  0  0  0  0  0  0  0  0  0  0  0
   27.5093  -19.7341   -5.4395 C   0  0  0  0  0  0  0  0  0  0  0  0
   28.6387  -19.5835   -6.2078 C   0  0  0  0  0  0  0  0  0  0  0  0
   28.5787  -19.9015   -7.5473 C   0  0  0  0  0  0  0  0  0  0  0  0
   27.3997  -20.3618   -8.0922 C   0  0  0  0  0  0  0  0  0  0  0  0
   25.7612  -20.2614  -11.7783 C   0  0  0  0  0  0  0  0  0  0  0  0
   25.6949  -19.0141  -11.9041 O   0  0  0  0  0  0  0  0  0  0  0  0
   23.3994  -21.1251  -14.2030 C   0  0  0  0  0  0  0  0  0  0  0  0
   23.1792  -19.9060  -13.3441 C   0  0  1  0  0  0  0  0  0  0  0  0
   22.0122  -19.2501  -13.6971 O   0  0  0  0  0  0  0  0  0  0  0  0
   23.2472  -20.2219  -11.8729 C   0  0  2  0  0  0  0  0  0  0  0  0
   24.5140  -20.9226  -11.6376 N   0  0  0  0  0  0  0  0  0  0  0  0
   22.1090  -21.1032  -11.5345 C   0  0  0  0  0  0  0  0  0  0  0  0
   22.2921  -22.2954  -11.1963 O   0  0  0  0  0  0  0  0  0  0  0  0
   20.8252  -20.5845  -11.5982 O   0  0  0  0  0  0  0  0  0  0  0  0
  2  1  1  6
  2  3  1  0
  3  4  1  0
  4  5  2  0
  5  6  1  0
  7  6  2  0
  8  7  1  0
  9  4  1  0
  9  8  2  0
 10 12  1  0
 10  2  1  0
 11 10  2  0
 13 12  1  0
 13 14  1  1
 15 23  1  0
 15 14  1  0
 16 15  2  0
 17 16  1  0
 17 18  1  0
 18 19  1  0
 18 23  2  0
 19 20  2  0
 20 21  1  0
 22 21  2  0
 23 22  1  0
 24 13  1  0
 25 24  2  0
 27 26  1  6
 27 28  1  0
 29 27  1  0
 29 30  1  6
 30 24  1  0
 31 33  1  0
 31 29  1  0
 32 31  2  0
M  END
$$$$
