FWT.pdb
     RDKit          3D

 33 35  0  0  1  0  0  0  0  0999 V2000
   18.6073  -21.6022  -14.2884 N   0  0  0  0  0  0  0  0  0  0  0  0
   19.7973  -21.6279  -13.4822 C   0  0  1  0  0  0  0  0  0  0  0  0
   20.0805  -23.0617  -13.1218 C   0  0  0  0  0  0  0  0  0  0  0  0
   19.0611  -23.6632  -12.2592 C   0  0  0  0  0  0  0  0  0  0  0  0
   18.8187  -23.1196  -11.0156 C   0  0  0  0  0  0  0  0  0  0  0  0
   17.8622  -23.6520  -10.1567 C   0  0  0  0  0  0  0  0  0  0  0  0
   17.1156  -24.7585  -10.5307 C   0  0  0  0  0  0  0  0  0  0  0  0
   17.3532  -25.3032  -11.7673 C   0  0  0  0  0  0  0  0  0  0  0  0
   18.3105  -24.7617  -12.6140 C   0  0  0  0  0  0  0  0  0  0  0  0
   20.9827  -21.1417  -14.2771 C   0  0  0  0  0  0  0  0  0  0  0  0
   21.0170  -21.3813  -15.5316 O   0  0  0  0  0  0  0  0  0  0  0  0
   21.9973  -20.4450  -13.5945 N   0  0  0  0  0  0  0  0  0  0  0  0
   23.2504  -20.0588  -14.1333 C   0  0  1  0  0  0  0  0  0  0  0  0
   24.0189  -19.0469  -13.3486 C   0  0  0  0  0  0  0  0  0  0  0  0
   25.2892  -18.7356  -14.0550 C   0  0  0  0  0  0  0  0  0  0  0  0
   25.4333  -17.8681  -15.1381 C   0  0  0  0  0  0  0  0  0  0  0  0
   26.7252  -17.8118  -15.4955 N   0  0  0  0  0  0  0  0  0  0  0  0
   27.4150  -18.6204  -14.6713 C   0  0  0  0  0  0  0  0  0  0  0  0
   28.7745  -18.9156  -14.6294 C   0  0  0  0  0  0  0  0  0  0  0  0
   29.2059  -19.7990  -13.6691 C   0  0  0  0  0  0  0  0  0  0  0  0
   28.3640  -20.3952  -12.7612 C   0  0  0  0  0  0  0  0  0  0  0  0
   27.0191  -20.0988  -12.8076 C   0  0  0  0  0  0  0  0  0  0  0  0
   26.5418  -19.2174  -13.7533 C   0  0  0  0  0  0  0  0  0  0  0  0
   24.0928  -21.1892  -14.6480 C   0  0  0  0  0  0  0  0  0  0  0  0
   24.2243  -22.2941  -14.0667 O   0  0  0  0  0  0  0  0  0  0  0  0
   25.7366  -23.8021  -18.2568 C   0  0  0  0  0  0  0  0  0  0  0  0
   24.9148  -22.7544  -17.5501 C   0  0  1  0  0  0  0  0  0  0  0  0
   23.6681  -23.2468  -17.2039 O   0  0  0  0  0  0  0  0  0  0  0  0
   25.6451  -22.1455  -16.3819 C   0  0  2  0  0  0  0  0  0  0  0  0
   24.8079  -21.0574  -15.8661 N   0  0  0  0  0  0  0  0  0  0  0  0
   26.9335  -21.6076  -16.8695 C   0  0  0  0  0  0  0  0  0  0  0  0
   26.9769  -20.5756  -17.5782 O   0  0  0  0  0  0  0  0  0  0  0  0
   28.1021  -22.2692  -16.5267 O   0  0  0  0  0  0  0  0  0  0  0  0
  2  1  1  6
  2  3  1  0
  3  4  1  0
  4  5  2  0
  5  6  1  0
  7  6  2  0
  8  7  1  0
  9  4  1  0
  9  8  2  0
 10 12  1  0
 10  2  1  0
 11 10  2  0
 13 12  1  0
 13 14  1  1
 15 23  1  0
 15 14  1  0
 16 15  2  0
 17 16  1  0
 17 18  1  0
 18 19  1  0
 18 23  2  0
 19 20  2  0
 20 21  1  0
 22 21  2  0
 23 22  1  0
 24 13  1  0
 25 24  2  0
 27 26  1  1
 27 28  1  0
 29 27  1  0
 29 30  1  6
 30 24  1  0
 31 33  1  0
 31 29  1  0
 32 31  2  0
M  END
$$$$
