VWN.pdb
     RDKit          3D

 30 31  0  0  1  0  0  0  0  0999 V2000
   23.5557  -19.5694  -13.7029 C   0  0  0  0  0  0  0  0  0  0  0  0
   24.4838  -20.6076  -14.2271 C   0  0  1  0  0  0  0  0  0  0  0  0
   24.6538  -20.4321  -15.7049 C   0  0  0  0  0  0  0  0  0  0  0  0
   25.7992  -20.7214  -13.4979 C   0  0  2  0  0  0  0  0  0  0  0  0
   26.5105  -21.8660  -14.0938 N   0  0  0  0  0  0  0  0  0  0  0  0
   25.6121  -21.0189  -12.0634 C   0  0  0  0  0  0  0  0  0  0  0  0
   25.0745  -22.1450  -11.7443 O   0  0  0  0  0  0  0  0  0  0  0  0
   25.9888  -20.1443  -11.0205 N   0  0  0  0  0  0  0  0  0  0  0  0
   25.7528  -20.5288   -9.6420 C   0  0  1  0  0  0  0  0  0  0  0  0
   26.8036  -19.9555   -8.7416 C   0  0  0  0  0  0  0  0  0  0  0  0
   26.6697  -20.2469   -7.3210 C   0  0  0  0  0  0  0  0  0  0  0  0
   25.6471  -21.0402   -6.7790 C   0  0  0  0  0  0  0  0  0  0  0  0
   25.8871  -21.0987   -5.4704 N   0  0  0  0  0  0  0  0  0  0  0  0
   26.9964  -20.3969   -5.1223 C   0  0  0  0  0  0  0  0  0  0  0  0
   27.6259  -20.1614   -3.9152 C   0  0  0  0  0  0  0  0  0  0  0  0
   28.7559  -19.3895   -3.8293 C   0  0  0  0  0  0  0  0  0  0  0  0
   29.2619  -18.8433   -4.9859 C   0  0  0  0  0  0  0  0  0  0  0  0
   28.6219  -19.0877   -6.1847 C   0  0  0  0  0  0  0  0  0  0  0  0
   27.4749  -19.8679   -6.2956 C   0  0  0  0  0  0  0  0  0  0  0  0
   24.3590  -20.3169   -9.2844 C   0  0  0  0  0  0  0  0  0  0  0  0
   23.7933  -19.2760   -9.7793 O   0  0  0  0  0  0  0  0  0  0  0  0
   19.7464  -22.7628  -10.3038 N   0  0  0  0  0  0  0  0  0  0  0  0
   20.4268  -21.4821  -10.3067 C   0  0  0  0  0  0  0  0  0  0  0  0
   19.7830  -20.4487  -10.5582 O   0  0  0  0  0  0  0  0  0  0  0  0
   21.8465  -21.4545  -10.0125 C   0  0  0  0  0  0  0  0  0  0  0  0
   22.1084  -21.0477   -8.5733 C   0  0  2  0  0  0  0  0  0  0  0  0
   23.5812  -21.1533   -8.4538 N   0  0  0  0  0  0  0  0  0  0  0  0
   21.4799  -21.9654   -7.6144 C   0  0  0  0  0  0  0  0  0  0  0  0
   22.0879  -23.1874   -7.2996 O   0  0  0  0  0  0  0  0  0  0  0  0
   20.4039  -21.7010   -7.0562 O   0  0  0  0  0  0  0  0  0  0  0  0
  2  1  1  1
  2  3  1  0
  4  2  1  0
  4  5  1  6
  6  7  2  0
  6  4  1  0
  8  6  1  0
  9  8  1  0
  9 10  1  1
 10 11  1  0
 11 19  1  0
 11 12  2  0
 12 13  1  0
 13 14  1  0
 14 15  2  0
 16 15  1  0
 17 16  2  0
 18 19  2  0
 18 17  1  0
 19 14  1  0
 20 21  2  0
 20  9  1  0
 23 22  1  0
 23 25  1  0
 24 23  2  0
 26 25  1  6
 26 27  1  0
 27 20  1  0
 28 26  1  0
 29 28  1  0
 30 28  2  0
M  END
$$$$
