VWN.pdb
     RDKit          3D

 30 31  0  0  1  0  0  0  0  0999 V2000
   26.9958  -15.4730  -18.8105 C   0  0  0  0  0  0  0  0  0  0  0  0
   26.4499  -16.4745  -17.8550 C   0  0  1  0  0  0  0  0  0  0  0  0
   25.2658  -17.1599  -18.4648 C   0  0  0  0  0  0  0  0  0  0  0  0
   27.4595  -17.4438  -17.2928 C   0  0  2  0  0  0  0  0  0  0  0  0
   27.9458  -18.2471  -18.4282 N   0  0  0  0  0  0  0  0  0  0  0  0
   26.8500  -18.3767  -16.3235 C   0  0  0  0  0  0  0  0  0  0  0  0
   26.1709  -19.3694  -16.7844 O   0  0  0  0  0  0  0  0  0  0  0  0
   26.9685  -18.2473  -14.9222 N   0  0  0  0  0  0  0  0  0  0  0  0
   26.3710  -19.2464  -14.0569 C   0  0  1  0  0  0  0  0  0  0  0  0
   27.0525  -19.2727  -12.7234 C   0  0  0  0  0  0  0  0  0  0  0  0
   26.5502  -20.2397  -11.7573 C   0  0  0  0  0  0  0  0  0  0  0  0
   26.2192  -21.5650  -12.0781 C   0  0  0  0  0  0  0  0  0  0  0  0
   25.8387  -22.1317  -10.9346 N   0  0  0  0  0  0  0  0  0  0  0  0
   25.8986  -21.2657   -9.8902 C   0  0  0  0  0  0  0  0  0  0  0  0
   25.6042  -21.3847   -8.5455 C   0  0  0  0  0  0  0  0  0  0  0  0
   25.7434  -20.3300   -7.6805 C   0  0  0  0  0  0  0  0  0  0  0  0
   26.1893  -19.1294   -8.1825 C   0  0  0  0  0  0  0  0  0  0  0  0
   26.4796  -19.0260   -9.5284 C   0  0  0  0  0  0  0  0  0  0  0  0
   26.3463  -20.0826  -10.4242 C   0  0  0  0  0  0  0  0  0  0  0  0
   24.9206  -19.1396  -14.0794 C   0  0  0  0  0  0  0  0  0  0  0  0
   24.4359  -17.9570  -14.2007 O   0  0  0  0  0  0  0  0  0  0  0  0
   19.9304  -19.4828  -14.3403 N   0  0  0  0  0  0  0  0  0  0  0  0
   20.7436  -19.5787  -15.5372 C   0  0  0  0  0  0  0  0  0  0  0  0
   20.2016  -19.4923  -16.6527 O   0  0  0  0  0  0  0  0  0  0  0  0
   22.1727  -19.7730  -15.3866 C   0  0  0  0  0  0  0  0  0  0  0  0
   22.5683  -19.8798  -13.9246 C   0  0  2  0  0  0  0  0  0  0  0  0
   24.0099  -20.2151  -13.9872 N   0  0  0  0  0  0  0  0  0  0  0  0
   21.8518  -20.9595  -13.2336 C   0  0  0  0  0  0  0  0  0  0  0  0
   20.7134  -20.6781  -12.4675 O   0  0  0  0  0  0  0  0  0  0  0  0
   22.2203  -22.1425  -13.2979 O   0  0  0  0  0  0  0  0  0  0  0  0
  2  1  1  6
  2  3  1  0
  4  2  1  0
  4  5  1  6
  6  7  2  0
  6  4  1  0
  8  6  1  0
  9  8  1  0
  9 10  1  1
 10 11  1  0
 11 19  1  0
 11 12  2  0
 12 13  1  0
 13 14  1  0
 14 15  2  0
 16 15  1  0
 17 16  2  0
 18 19  2  0
 18 17  1  0
 19 14  1  0
 20 21  2  0
 20  9  1  0
 23 22  1  0
 23 25  1  0
 24 23  2  0
 26 25  1  6
 26 27  1  0
 27 20  1  0
 28 26  1  0
 29 28  1  0
 30 28  2  0
M  END
$$$$
