VWN.pdb
     RDKit          3D

 30 31  0  0  1  0  0  0  0  0999 V2000
   20.5831  -18.2676  -16.4145 C   0  0  0  0  0  0  0  0  0  0  0  0
   21.7483  -19.0197  -15.8750 C   0  0  1  0  0  0  0  0  0  0  0  0
   21.9682  -20.2589  -16.6871 C   0  0  0  0  0  0  0  0  0  0  0  0
   23.0077  -18.2101  -15.6930 C   0  0  2  0  0  0  0  0  0  0  0  0
   23.4432  -17.8048  -17.0410 N   0  0  0  0  0  0  0  0  0  0  0  0
   24.0986  -19.0105  -15.1008 C   0  0  0  0  0  0  0  0  0  0  0  0
   24.8679  -19.6677  -15.8978 O   0  0  0  0  0  0  0  0  0  0  0  0
   24.3505  -19.0971  -13.7139 N   0  0  0  0  0  0  0  0  0  0  0  0
   25.4895  -19.8589  -13.2383 C   0  0  1  0  0  0  0  0  0  0  0  0
   26.0552  -19.2499  -11.9923 C   0  0  0  0  0  0  0  0  0  0  0  0
   27.1772  -19.9483  -11.3807 C   0  0  0  0  0  0  0  0  0  0  0  0
   28.2614  -20.4689  -12.1035 C   0  0  0  0  0  0  0  0  0  0  0  0
   29.0846  -20.9928  -11.1972 N   0  0  0  0  0  0  0  0  0  0  0  0
   28.6104  -20.8496   -9.9327 C   0  0  0  0  0  0  0  0  0  0  0  0
   29.0920  -21.2277   -8.6941 C   0  0  0  0  0  0  0  0  0  0  0  0
   28.3987  -20.9672   -7.5402 C   0  0  0  0  0  0  0  0  0  0  0  0
   27.1937  -20.3110   -7.6376 C   0  0  0  0  0  0  0  0  0  0  0  0
   26.7255  -19.9393   -8.8823 C   0  0  0  0  0  0  0  0  0  0  0  0
   27.4121  -20.1928  -10.0660 C   0  0  0  0  0  0  0  0  0  0  0  0
   25.1825  -21.2806  -13.2236 C   0  0  0  0  0  0  0  0  0  0  0  0
   24.3399  -21.6747  -12.3387 O   0  0  0  0  0  0  0  0  0  0  0  0
   23.3441  -25.7254  -13.5064 N   0  0  0  0  0  0  0  0  0  0  0  0
   22.8912  -24.5849  -14.2793 C   0  0  0  0  0  0  0  0  0  0  0  0
   21.8795  -24.6938  -14.9936 O   0  0  0  0  0  0  0  0  0  0  0  0
   23.6424  -23.3479  -14.1887 C   0  0  0  0  0  0  0  0  0  0  0  0
   25.1309  -23.6105  -14.0444 C   0  0  2  0  0  0  0  0  0  0  0  0
   25.7211  -22.2527  -14.0951 N   0  0  0  0  0  0  0  0  0  0  0  0
   25.6633  -24.4093  -15.1557 C   0  0  0  0  0  0  0  0  0  0  0  0
   26.2210  -25.6721  -14.9178 O   0  0  0  0  0  0  0  0  0  0  0  0
   25.6428  -24.0046  -16.3283 O   0  0  0  0  0  0  0  0  0  0  0  0
  2  1  1  6
  2  3  1  0
  4  2  1  0
  4  5  1  6
  6  7  2  0
  6  4  1  0
  8  6  1  0
  9  8  1  0
  9 10  1  1
 10 11  1  0
 11 19  1  0
 11 12  2  0
 12 13  1  0
 13 14  1  0
 14 15  2  0
 16 15  1  0
 17 16  2  0
 18 19  2  0
 18 17  1  0
 19 14  1  0
 20 21  2  0
 20  9  1  0
 23 22  1  0
 23 25  1  0
 24 23  2  0
 26 25  1  6
 26 27  1  0
 27 20  1  0
 28 26  1  0
 29 28  1  0
 30 28  2  0
M  END
$$$$
