VWN.pdb
     RDKit          3D

 30 31  0  0  1  0  0  0  0  0999 V2000
   27.6555  -21.4751  -15.3315 C   0  0  0  0  0  0  0  0  0  0  0  0
   27.9090  -20.0753  -14.8950 C   0  0  1  0  0  0  0  0  0  0  0  0
   28.4616  -19.2826  -16.0395 C   0  0  0  0  0  0  0  0  0  0  0  0
   26.7465  -19.3921  -14.2194 C   0  0  2  0  0  0  0  0  0  0  0  0
   27.1763  -18.0101  -13.9429 N   0  0  0  0  0  0  0  0  0  0  0  0
   26.4155  -20.0170  -12.9227 C   0  0  0  0  0  0  0  0  0  0  0  0
   25.7106  -21.0949  -12.9333 O   0  0  0  0  0  0  0  0  0  0  0  0
   26.8268  -19.5053  -11.6724 N   0  0  0  0  0  0  0  0  0  0  0  0
   26.4424  -20.1933  -10.4547 C   0  0  1  0  0  0  0  0  0  0  0  0
   27.4163  -19.9101   -9.3525 C   0  0  0  0  0  0  0  0  0  0  0  0
   27.0726  -20.4264   -8.0349 C   0  0  0  0  0  0  0  0  0  0  0  0
   26.3082  -21.5841   -7.8241 C   0  0  0  0  0  0  0  0  0  0  0  0
   26.2448  -21.7425   -6.5034 N   0  0  0  0  0  0  0  0  0  0  0  0
   26.9153  -20.7663   -5.8387 C   0  0  0  0  0  0  0  0  0  0  0  0
   27.1218  -20.5063   -4.4975 C   0  0  0  0  0  0  0  0  0  0  0  0
   27.8462  -19.4210   -4.0763 C   0  0  0  0  0  0  0  0  0  0  0  0
   28.3739  -18.5800   -5.0282 C   0  0  0  0  0  0  0  0  0  0  0  0
   28.1593  -18.8530   -6.3646 C   0  0  0  0  0  0  0  0  0  0  0  0
   27.4282  -19.9482   -6.8149 C   0  0  0  0  0  0  0  0  0  0  0  0
   25.0274  -19.9956  -10.1817 C   0  0  0  0  0  0  0  0  0  0  0  0
   24.6149  -18.7802  -10.1519 O   0  0  0  0  0  0  0  0  0  0  0  0
   22.3648  -19.3173  -12.0261 N   0  0  0  0  0  0  0  0  0  0  0  0
   21.7358  -20.6207  -11.9327 C   0  0  0  0  0  0  0  0  0  0  0  0
   21.1005  -21.0637  -12.9052 O   0  0  0  0  0  0  0  0  0  0  0  0
   21.8733  -21.3661  -10.6964 C   0  0  0  0  0  0  0  0  0  0  0  0
   22.6859  -20.5963   -9.6704 C   0  0  2  0  0  0  0  0  0  0  0  0
   24.0775  -21.0161   -9.9562 N   0  0  0  0  0  0  0  0  0  0  0  0
   22.3415  -20.9739   -8.2937 C   0  0  0  0  0  0  0  0  0  0  0  0
   21.3685  -20.2581   -7.5845 O   0  0  0  0  0  0  0  0  0  0  0  0
   22.8898  -21.9235   -7.7132 O   0  0  0  0  0  0  0  0  0  0  0  0
  2  1  1  6
  2  3  1  0
  4  2  1  0
  4  5  1  1
  6  7  2  0
  6  4  1  0
  8  6  1  0
  9  8  1  0
  9 10  1  1
 10 11  1  0
 11 19  1  0
 11 12  2  0
 12 13  1  0
 13 14  1  0
 14 15  2  0
 16 15  1  0
 17 16  2  0
 18 19  2  0
 18 17  1  0
 19 14  1  0
 20 21  2  0
 20  9  1  0
 23 22  1  0
 23 25  1  0
 24 23  2  0
 26 25  1  6
 26 27  1  0
 27 20  1  0
 28 26  1  0
 29 28  1  0
 30 28  2  0
M  END
$$$$
