VWN.pdb
     RDKit          3D

 30 31  0  0  1  0  0  0  0  0999 V2000
   28.0863  -19.0725  -16.2523 C   0  0  0  0  0  0  0  0  0  0  0  0
   27.2841  -19.5187  -15.0811 C   0  0  1  0  0  0  0  0  0  0  0  0
   25.8499  -19.6769  -15.4831 C   0  0  0  0  0  0  0  0  0  0  0  0
   27.8232  -20.7257  -14.3548 C   0  0  2  0  0  0  0  0  0  0  0  0
   27.5133  -21.8940  -15.1974 N   0  0  0  0  0  0  0  0  0  0  0  0
   27.1549  -20.9323  -13.0540 C   0  0  0  0  0  0  0  0  0  0  0  0
   26.1128  -21.6885  -13.0229 O   0  0  0  0  0  0  0  0  0  0  0  0
   27.5906  -20.3525  -11.8422 N   0  0  0  0  0  0  0  0  0  0  0  0
   26.8094  -20.5426  -10.6349 C   0  0  1  0  0  0  0  0  0  0  0  0
   27.5341  -20.0022   -9.4407 C   0  0  0  0  0  0  0  0  0  0  0  0
   26.9298  -20.2644   -8.1420 C   0  0  0  0  0  0  0  0  0  0  0  0
   25.6742  -20.8670   -7.9716 C   0  0  0  0  0  0  0  0  0  0  0  0
   25.4934  -20.9651   -6.6559 N   0  0  0  0  0  0  0  0  0  0  0  0
   26.5457  -20.4669   -5.9568 C   0  0  0  0  0  0  0  0  0  0  0  0
   26.8100  -20.3435   -4.6063 C   0  0  0  0  0  0  0  0  0  0  0  0
   27.9727  -19.7800   -4.1473 C   0  0  0  0  0  0  0  0  0  0  0  0
   28.8886  -19.3314   -5.0703 C   0  0  0  0  0  0  0  0  0  0  0  0
   28.6105  -19.4618   -6.4164 C   0  0  0  0  0  0  0  0  0  0  0  0
   27.4380  -20.0305   -6.9048 C   0  0  0  0  0  0  0  0  0  0  0  0
   25.4333  -20.1212  -10.8457 C   0  0  0  0  0  0  0  0  0  0  0  0
   25.2609  -19.0632  -11.5521 O   0  0  0  0  0  0  0  0  0  0  0  0
   21.5205  -19.2424  -13.6640 N   0  0  0  0  0  0  0  0  0  0  0  0
   21.7553  -20.5089  -12.9977 C   0  0  0  0  0  0  0  0  0  0  0  0
   20.8663  -21.3779  -13.0063 O   0  0  0  0  0  0  0  0  0  0  0  0
   23.0311  -20.7166  -12.3403 C   0  0  0  0  0  0  0  0  0  0  0  0
   22.9712  -20.3265  -10.8741 C   0  0  2  0  0  0  0  0  0  0  0  0
   24.2828  -20.7737  -10.3506 N   0  0  0  0  0  0  0  0  0  0  0  0
   21.9004  -21.0298  -10.1564 C   0  0  0  0  0  0  0  0  0  0  0  0
   20.5632  -20.6495  -10.3280 O   0  0  0  0  0  0  0  0  0  0  0  0
   22.1328  -21.9708   -9.3819 O   0  0  0  0  0  0  0  0  0  0  0  0
  2  1  1  6
  2  3  1  0
  4  2  1  0
  4  5  1  6
  6  7  2  0
  6  4  1  0
  8  6  1  0
  9  8  1  0
  9 10  1  1
 10 11  1  0
 11 19  1  0
 11 12  2  0
 12 13  1  0
 13 14  1  0
 14 15  2  0
 16 15  1  0
 17 16  2  0
 18 19  2  0
 18 17  1  0
 19 14  1  0
 20 21  2  0
 20  9  1  0
 23 22  1  0
 23 25  1  0
 24 23  2  0
 26 25  1  6
 26 27  1  0
 27 20  1  0
 28 26  1  0
 29 28  1  0
 30 28  2  0
M  END
$$$$
