VWN.pdb
     RDKit          3D

 30 31  0  0  1  0  0  0  0  0999 V2000
   28.4274  -16.4531  -17.9464 C   0  0  0  0  0  0  0  0  0  0  0  0
   28.3760  -17.8453  -18.4694 C   0  0  1  0  0  0  0  0  0  0  0  0
   29.6000  -18.1222  -19.2872 C   0  0  0  0  0  0  0  0  0  0  0  0
   28.1115  -18.9111  -17.4355 C   0  0  2  0  0  0  0  0  0  0  0  0
   28.1080  -20.1982  -18.1527 N   0  0  0  0  0  0  0  0  0  0  0  0
   26.7841  -18.7546  -16.8072 C   0  0  0  0  0  0  0  0  0  0  0  0
   26.5803  -17.7148  -16.0750 O   0  0  0  0  0  0  0  0  0  0  0  0
   25.7242  -19.6750  -16.9624 N   0  0  0  0  0  0  0  0  0  0  0  0
   24.4777  -19.4592  -16.2528 C   0  0  1  0  0  0  0  0  0  0  0  0
   23.3250  -19.3976  -17.2073 C   0  0  0  0  0  0  0  0  0  0  0  0
   22.8601  -18.0682  -17.5777 C   0  0  0  0  0  0  0  0  0  0  0  0
   23.4414  -17.2912  -18.5912 C   0  0  0  0  0  0  0  0  0  0  0  0
   22.7211  -16.1727  -18.6504 N   0  0  0  0  0  0  0  0  0  0  0  0
   21.7099  -16.1674  -17.7438 C   0  0  0  0  0  0  0  0  0  0  0  0
   20.7273  -15.2485  -17.4292 C   0  0  0  0  0  0  0  0  0  0  0  0
   19.8086  -15.4852  -16.4393 C   0  0  0  0  0  0  0  0  0  0  0  0
   19.8825  -16.6743  -15.7518 C   0  0  0  0  0  0  0  0  0  0  0  0
   20.8700  -17.5827  -16.0777 C   0  0  0  0  0  0  0  0  0  0  0  0
   21.8121  -17.3640  -17.0784 C   0  0  0  0  0  0  0  0  0  0  0  0
   24.3744  -20.3613  -15.1164 C   0  0  0  0  0  0  0  0  0  0  0  0
   25.0721  -21.4374  -15.1751 O   0  0  0  0  0  0  0  0  0  0  0  0
   25.4008  -22.3443  -10.8053 N   0  0  0  0  0  0  0  0  0  0  0  0
   25.6405  -20.9303  -11.0211 C   0  0  0  0  0  0  0  0  0  0  0  0
   26.2028  -20.2637  -10.1350 O   0  0  0  0  0  0  0  0  0  0  0  0
   25.2116  -20.3413  -12.2749 C   0  0  0  0  0  0  0  0  0  0  0  0
   23.9130  -20.9580  -12.7636 C   0  0  2  0  0  0  0  0  0  0  0  0
   23.5860  -20.1530  -13.9634 N   0  0  0  0  0  0  0  0  0  0  0  0
   22.8300  -20.8212  -11.7813 C   0  0  0  0  0  0  0  0  0  0  0  0
   22.1833  -19.5911  -11.6057 O   0  0  0  0  0  0  0  0  0  0  0  0
   22.4522  -21.7717  -11.0791 O   0  0  0  0  0  0  0  0  0  0  0  0
  2  1  1  1
  2  3  1  0
  4  2  1  0
  4  5  1  6
  6  7  2  0
  6  4  1  0
  8  6  1  0
  9  8  1  0
  9 10  1  6
 10 11  1  0
 11 19  1  0
 11 12  2  0
 12 13  1  0
 13 14  1  0
 14 15  2  0
 16 15  1  0
 17 16  2  0
 18 19  2  0
 18 17  1  0
 19 14  1  0
 20 21  2  0
 20  9  1  0
 23 22  1  0
 23 25  1  0
 24 23  2  0
 26 25  1  1
 26 27  1  0
 27 20  1  0
 28 26  1  0
 29 28  1  0
 30 28  2  0
M  END
$$$$
