VWN.pdb
     RDKit          3D

 30 31  0  0  1  0  0  0  0  0999 V2000
   28.3177  -22.2130  -15.6509 C   0  0  0  0  0  0  0  0  0  0  0  0
   28.7168  -20.8745  -15.1378 C   0  0  1  0  0  0  0  0  0  0  0  0
   29.5337  -20.1615  -16.1712 C   0  0  0  0  0  0  0  0  0  0  0  0
   27.5890  -20.0295  -14.6005 C   0  0  2  0  0  0  0  0  0  0  0  0
   28.1409  -18.6796  -14.3899 N   0  0  0  0  0  0  0  0  0  0  0  0
   27.1081  -20.5166  -13.2917 C   0  0  0  0  0  0  0  0  0  0  0  0
   26.5541  -21.6784  -13.2452 O   0  0  0  0  0  0  0  0  0  0  0  0
   27.2210  -19.7865  -12.0881 N   0  0  0  0  0  0  0  0  0  0  0  0
   26.5799  -20.2832  -10.8855 C   0  0  1  0  0  0  0  0  0  0  0  0
   27.1908  -19.6694   -9.6635 C   0  0  0  0  0  0  0  0  0  0  0  0
   26.6967  -20.1494   -8.3805 C   0  0  0  0  0  0  0  0  0  0  0  0
   25.5656  -20.9669   -8.2349 C   0  0  0  0  0  0  0  0  0  0  0  0
   25.4628  -21.2165   -6.9308 N   0  0  0  0  0  0  0  0  0  0  0  0
   26.4496  -20.6167   -6.2162 C   0  0  0  0  0  0  0  0  0  0  0  0
   26.7506  -20.5777   -4.8683 C   0  0  0  0  0  0  0  0  0  0  0  0
   27.8248  -19.8731   -4.3891 C   0  0  0  0  0  0  0  0  0  0  0  0
   28.6124  -19.1932   -5.2888 C   0  0  0  0  0  0  0  0  0  0  0  0
   28.2991  -19.2417   -6.6327 C   0  0  0  0  0  0  0  0  0  0  0  0
   27.2148  -19.9504   -7.1413 C   0  0  0  0  0  0  0  0  0  0  0  0
   25.1325  -20.2353  -11.0217 C   0  0  0  0  0  0  0  0  0  0  0  0
   24.6292  -19.1121  -11.3869 O   0  0  0  0  0  0  0  0  0  0  0  0
   23.5932  -23.4739  -13.8648 N   0  0  0  0  0  0  0  0  0  0  0  0
   22.7296  -22.4577  -13.2950 C   0  0  0  0  0  0  0  0  0  0  0  0
   22.2112  -21.6083  -14.0403 O   0  0  0  0  0  0  0  0  0  0  0  0
   22.5003  -22.4709  -11.8632 C   0  0  0  0  0  0  0  0  0  0  0  0
   22.8398  -21.1318  -11.2333 C   0  0  2  0  0  0  0  0  0  0  0  0
   24.2439  -21.3094  -10.7956 N   0  0  0  0  0  0  0  0  0  0  0  0
   22.0028  -20.8417  -10.0621 C   0  0  0  0  0  0  0  0  0  0  0  0
   20.6719  -20.4361  -10.2247 O   0  0  0  0  0  0  0  0  0  0  0  0
   22.4333  -20.9405   -8.9027 O   0  0  0  0  0  0  0  0  0  0  0  0
  2  1  1  6
  2  3  1  0
  4  2  1  0
  4  5  1  1
  6  7  2  0
  6  4  1  0
  8  6  1  0
  9  8  1  0
  9 10  1  1
 10 11  1  0
 11 19  1  0
 11 12  2  0
 12 13  1  0
 13 14  1  0
 14 15  2  0
 16 15  1  0
 17 16  2  0
 18 19  2  0
 18 17  1  0
 19 14  1  0
 20 21  2  0
 20  9  1  0
 23 22  1  0
 23 25  1  0
 24 23  2  0
 26 25  1  1
 26 27  1  0
 27 20  1  0
 28 26  1  0
 29 28  1  0
 30 28  2  0
M  END
$$$$
