VWN.pdb
     RDKit          3D

 30 31  0  0  1  0  0  0  0  0999 V2000
   26.3104  -20.0574  -16.8973 C   0  0  0  0  0  0  0  0  0  0  0  0
   27.4212  -21.0468  -16.8608 C   0  0  1  0  0  0  0  0  0  0  0  0
   28.3385  -20.8181  -18.0227 C   0  0  0  0  0  0  0  0  0  0  0  0
   28.1559  -21.1405  -15.5470 C   0  0  2  0  0  0  0  0  0  0  0  0
   29.0703  -22.2903  -15.6598 N   0  0  0  0  0  0  0  0  0  0  0  0
   27.2412  -21.4153  -14.4204 C   0  0  0  0  0  0  0  0  0  0  0  0
   26.7844  -22.6125  -14.2905 O   0  0  0  0  0  0  0  0  0  0  0  0
   26.8389  -20.4454  -13.4760 N   0  0  0  0  0  0  0  0  0  0  0  0
   25.9705  -20.8294  -12.3795 C   0  0  1  0  0  0  0  0  0  0  0  0
   26.3332  -20.0899  -11.1285 C   0  0  0  0  0  0  0  0  0  0  0  0
   27.3556  -20.6984  -10.2887 C   0  0  0  0  0  0  0  0  0  0  0  0
   28.3994  -21.4958  -10.7821 C   0  0  0  0  0  0  0  0  0  0  0  0
   29.1346  -21.8287   -9.7228 N   0  0  0  0  0  0  0  0  0  0  0  0
   28.6406  -21.3031   -8.5721 C   0  0  0  0  0  0  0  0  0  0  0  0
   29.0418  -21.3738   -7.2520 C   0  0  0  0  0  0  0  0  0  0  0  0
   28.3458  -20.7451   -6.2518 C   0  0  0  0  0  0  0  0  0  0  0  0
   27.2210  -20.0294   -6.5904 C   0  0  0  0  0  0  0  0  0  0  0  0
   26.8327  -19.9678   -7.9140 C   0  0  0  0  0  0  0  0  0  0  0  0
   27.5235  -20.5972   -8.9452 C   0  0  0  0  0  0  0  0  0  0  0  0
   24.5786  -20.8142  -12.8013 C   0  0  0  0  0  0  0  0  0  0  0  0
   24.2116  -19.8207  -13.5269 O   0  0  0  0  0  0  0  0  0  0  0  0
   19.5418  -24.0105  -13.4544 N   0  0  0  0  0  0  0  0  0  0  0  0
   20.3650  -22.8756  -13.8253 C   0  0  0  0  0  0  0  0  0  0  0  0
   19.8539  -21.9265  -14.4447 O   0  0  0  0  0  0  0  0  0  0  0  0
   21.7671  -22.8902  -13.4556 C   0  0  0  0  0  0  0  0  0  0  0  0
   22.2197  -21.5367  -12.9372 C   0  0  2  0  0  0  0  0  0  0  0  0
   23.6086  -21.7923  -12.4899 N   0  0  0  0  0  0  0  0  0  0  0  0
   21.4194  -21.0858  -11.7915 C   0  0  0  0  0  0  0  0  0  0  0  0
   21.9872  -21.0184  -10.5127 O   0  0  0  0  0  0  0  0  0  0  0  0
   20.2295  -20.7543  -11.9074 O   0  0  0  0  0  0  0  0  0  0  0  0
  2  1  1  1
  2  3  1  0
  4  2  1  0
  4  5  1  6
  6  7  2  0
  6  4  1  0
  8  6  1  0
  9  8  1  0
  9 10  1  1
 10 11  1  0
 11 19  1  0
 11 12  2  0
 12 13  1  0
 13 14  1  0
 14 15  2  0
 16 15  1  0
 17 16  2  0
 18 19  2  0
 18 17  1  0
 19 14  1  0
 20 21  2  0
 20  9  1  0
 23 22  1  0
 23 25  1  0
 24 23  2  0
 26 25  1  1
 26 27  1  0
 27 20  1  0
 28 26  1  0
 29 28  1  0
 30 28  2  0
M  END
$$$$
