VEL.pdb
     RDKit          3D

 25 24  0  0  1  0  0  0  0  0999 V2000
    7.8705  -12.5840   18.0507 C   0  0  0  0  0  0  0  0  0  0  0  0
    7.7845  -13.3687   19.3159 C   0  0  2  0  0  0  0  0  0  0  0  0
    8.5818  -12.6047   20.3724 C   0  0  0  0  0  0  0  0  0  0  0  0
    8.3439  -14.7440   19.2445 C   0  0  2  0  0  0  0  0  0  0  0  0
    7.6725  -15.4958   18.2282 N   0  0  0  0  0  0  0  0  0  0  0  0
    8.2538  -15.4804   20.5316 C   0  0  0  0  0  0  0  0  0  0  0  0
    7.1670  -15.7636   21.0793 O   0  0  0  0  0  0  0  0  0  0  0  0
    9.4489  -15.8710   21.1530 N   0  0  0  0  0  0  0  0  0  0  0  0
    9.5111  -16.5912   22.4403 C   0  0  1  0  0  0  0  0  0  0  0  0
   10.7562  -17.4299   22.4413 C   0  0  0  0  0  0  0  0  0  0  0  0
   11.0088  -18.1157   23.7489 C   0  0  0  0  0  0  0  0  0  0  0  0
   12.2075  -18.9893   23.6841 C   0  0  0  0  0  0  0  0  0  0  0  0
   12.7291  -19.3833   24.7406 O   0  0  0  0  0  0  0  0  0  0  0  0
    9.4196  -15.6481   23.5646 C   0  0  0  0  0  0  0  0  0  0  0  0
   10.2725  -14.7032   23.5878 O   0  0  0  0  0  0  0  0  0  0  0  0
   12.7240  -19.3504   22.4671 O   0  0  0  0  0  0  0  0  0  0  0  0
    8.1872  -11.7647   26.4386 C   0  0  0  0  0  0  0  0  0  0  0  0
    7.2374  -12.8998   26.8316 C   0  0  1  0  0  0  0  0  0  0  0  0
    5.8345  -12.3104   27.0232 C   0  0  0  0  0  0  0  0  0  0  0  0
    7.2344  -13.9361   25.7524 C   0  0  0  0  0  0  0  0  0  0  0  0
    8.5248  -14.6792   25.6829 C   0  0  2  0  0  0  0  0  0  0  0  0
    8.4810  -15.6787   24.6142 N   0  0  0  0  0  0  0  0  0  0  0  0
    8.8209  -15.3418   26.9514 C   0  0  0  0  0  0  0  0  0  0  0  0
    8.8471  -16.7218   27.1006 O   0  0  0  0  0  0  0  0  0  0  0  0
    9.0651  -14.6023   27.9737 O   0  0  0  0  0  0  0  0  0  0  0  0
  2  1  1  6
  2  3  1  0
  4  2  1  0
  4  5  1  6
  6  4  1  0
  6  7  2  0
  8  6  1  0
  9  8  1  0
  9 10  1  1
 11 10  1  0
 12 11  1  0
 13 12  2  0
 14  9  1  0
 15 14  2  0
 16 12  1  0
 18 17  1  6
 18 20  1  0
 19 18  1  0
 21 20  1  1
 21 23  1  0
 21 22  1  0
 22 14  1  0
 23 24  1  0
 25 23  2  0
M  END
$$$$
