VEL.pdb
     RDKit          3D

 25 24  0  0  1  0  0  0  0  0999 V2000
    6.9965  -14.6961   18.7251 C   0  0  0  0  0  0  0  0  0  0  0  0
    7.3652  -13.4494   19.4557 C   0  0  2  0  0  0  0  0  0  0  0  0
    7.6135  -12.3698   18.4031 C   0  0  0  0  0  0  0  0  0  0  0  0
    8.5909  -13.5469   20.2911 C   0  0  2  0  0  0  0  0  0  0  0  0
    9.6942  -13.9921   19.4954 N   0  0  0  0  0  0  0  0  0  0  0  0
    8.4349  -14.4561   21.4557 C   0  0  0  0  0  0  0  0  0  0  0  0
    7.4635  -14.3981   22.2394 O   0  0  0  0  0  0  0  0  0  0  0  0
    9.4292  -15.4200   21.6774 N   0  0  0  0  0  0  0  0  0  0  0  0
    9.3519  -16.4573   22.7252 C   0  0  1  0  0  0  0  0  0  0  0  0
   10.3976  -17.4928   22.4288 C   0  0  0  0  0  0  0  0  0  0  0  0
   10.3709  -18.6519   23.3774 C   0  0  0  0  0  0  0  0  0  0  0  0
   11.4640  -19.6154   23.0925 C   0  0  0  0  0  0  0  0  0  0  0  0
   12.4076  -19.7170   23.8941 O   0  0  0  0  0  0  0  0  0  0  0  0
    9.4655  -15.8521   24.0604 C   0  0  0  0  0  0  0  0  0  0  0  0
   10.5006  -15.1445   24.2801 O   0  0  0  0  0  0  0  0  0  0  0  0
   11.4218  -20.3786   21.9549 O   0  0  0  0  0  0  0  0  0  0  0  0
    6.0538  -12.8307   26.6996 C   0  0  0  0  0  0  0  0  0  0  0  0
    7.4194  -13.3842   26.2828 C   0  0  1  0  0  0  0  0  0  0  0  0
    8.4934  -12.3596   26.6686 C   0  0  0  0  0  0  0  0  0  0  0  0
    7.6561  -14.6879   26.9778 C   0  0  0  0  0  0  0  0  0  0  0  0
    8.8444  -15.4062   26.4358 C   0  0  2  0  0  0  0  0  0  0  0  0
    8.5432  -15.9691   25.1183 N   0  0  0  0  0  0  0  0  0  0  0  0
    9.2671  -16.4791   27.3336 C   0  0  0  0  0  0  0  0  0  0  0  0
    9.2245  -17.8225   26.9863 O   0  0  0  0  0  0  0  0  0  0  0  0
    9.6952  -16.1531   28.5007 O   0  0  0  0  0  0  0  0  0  0  0  0
  2  1  1  6
  2  3  1  0
  4  2  1  0
  4  5  1  6
  6  4  1  0
  6  7  2  0
  8  6  1  0
  9  8  1  0
  9 10  1  6
 11 10  1  0
 12 11  1  0
 13 12  2  0
 14  9  1  0
 15 14  2  0
 16 12  1  0
 18 17  1  1
 18 20  1  0
 19 18  1  0
 21 20  1  1
 21 23  1  0
 21 22  1  0
 22 14  1  0
 23 24  1  0
 25 23  2  0
M  END
$$$$
