VEL.pdb
     RDKit          3D

 25 24  0  0  1  0  0  0  0  0999 V2000
    7.0477  -12.8617   20.6281 C   0  0  0  0  0  0  0  0  0  0  0  0
    8.4477  -12.9607   20.1243 C   0  0  2  0  0  0  0  0  0  0  0  0
    8.5801  -11.9680   18.9701 C   0  0  0  0  0  0  0  0  0  0  0  0
    8.8393  -14.2985   19.6080 C   0  0  2  0  0  0  0  0  0  0  0  0
    8.0408  -14.6394   18.4700 N   0  0  0  0  0  0  0  0  0  0  0  0
    8.7205  -15.3760   20.6239 C   0  0  0  0  0  0  0  0  0  0  0  0
    7.7539  -16.1666   20.6679 O   0  0  0  0  0  0  0  0  0  0  0  0
    9.7452  -15.5032   21.5730 N   0  0  0  0  0  0  0  0  0  0  0  0
    9.7419  -16.5022   22.6600 C   0  0  1  0  0  0  0  0  0  0  0  0
   10.9122  -17.4186   22.4495 C   0  0  0  0  0  0  0  0  0  0  0  0
   10.7525  -18.3232   21.2663 C   0  0  0  0  0  0  0  0  0  0  0  0
   11.9114  -19.2397   21.1200 C   0  0  0  0  0  0  0  0  0  0  0  0
   12.8614  -19.1485   21.9152 O   0  0  0  0  0  0  0  0  0  0  0  0
    9.7256  -15.8382   23.9717 C   0  0  0  0  0  0  0  0  0  0  0  0
   10.7641  -15.1732   24.2878 O   0  0  0  0  0  0  0  0  0  0  0  0
   11.9218  -20.1719   20.1153 O   0  0  0  0  0  0  0  0  0  0  0  0
    5.8545  -12.8879   26.4305 C   0  0  0  0  0  0  0  0  0  0  0  0
    7.2002  -13.4188   25.9284 C   0  0  1  0  0  0  0  0  0  0  0  0
    8.2553  -12.3238   26.1272 C   0  0  0  0  0  0  0  0  0  0  0  0
    7.5624  -14.6502   26.6972 C   0  0  0  0  0  0  0  0  0  0  0  0
    8.8465  -15.2467   26.2310 C   0  0  2  0  0  0  0  0  0  0  0  0
    8.6762  -15.8563   24.9110 N   0  0  0  0  0  0  0  0  0  0  0  0
    9.3308  -16.2564   27.1700 C   0  0  0  0  0  0  0  0  0  0  0  0
   10.0838  -15.9497   28.2952 O   0  0  0  0  0  0  0  0  0  0  0  0
    9.0424  -17.4861   26.9325 O   0  0  0  0  0  0  0  0  0  0  0  0
  2  1  1  6
  2  3  1  0
  4  2  1  0
  4  5  1  6
  6  4  1  0
  6  7  2  0
  8  6  1  0
  9  8  1  0
  9 10  1  1
 11 10  1  0
 12 11  1  0
 13 12  2  0
 14  9  1  0
 15 14  2  0
 16 12  1  0
 18 17  1  1
 18 20  1  0
 19 18  1  0
 21 20  1  1
 21 23  1  0
 21 22  1  0
 22 14  1  0
 23 24  1  0
 25 23  2  0
M  END
$$$$
