VEL.pdb
     RDKit          3D

 25 24  0  0  1  0  0  0  0  0999 V2000
    7.3485  -12.6684   20.9025 C   0  0  0  0  0  0  0  0  0  0  0  0
    8.4902  -13.1497   20.0725 C   0  0  2  0  0  0  0  0  0  0  0  0
    8.4976  -12.3144   18.7928 C   0  0  0  0  0  0  0  0  0  0  0  0
    8.4195  -14.5791   19.6706 C   0  0  2  0  0  0  0  0  0  0  0  0
    7.3070  -14.7893   18.7951 N   0  0  0  0  0  0  0  0  0  0  0  0
    8.3099  -15.5072   20.8254 C   0  0  0  0  0  0  0  0  0  0  0  0
    7.2247  -15.9972   21.2044 O   0  0  0  0  0  0  0  0  0  0  0  0
    9.4837  -15.8425   21.5157 N   0  0  0  0  0  0  0  0  0  0  0  0
    9.5263  -16.7603   22.6714 C   0  0  1  0  0  0  0  0  0  0  0  0
   10.7061  -17.6717   22.4950 C   0  0  0  0  0  0  0  0  0  0  0  0
   10.8676  -18.6565   23.6121 C   0  0  0  0  0  0  0  0  0  0  0  0
   12.0683  -19.5082   23.4192 C   0  0  0  0  0  0  0  0  0  0  0  0
   12.0944  -20.6434   23.9231 O   0  0  0  0  0  0  0  0  0  0  0  0
    9.5335  -16.0034   23.9319 C   0  0  0  0  0  0  0  0  0  0  0  0
   10.4817  -15.1691   24.0913 O   0  0  0  0  0  0  0  0  0  0  0  0
   13.1298  -19.0368   22.6916 O   0  0  0  0  0  0  0  0  0  0  0  0
    5.8147  -12.7596   25.9052 C   0  0  0  0  0  0  0  0  0  0  0  0
    7.1773  -13.3758   25.5759 C   0  0  1  0  0  0  0  0  0  0  0  0
    8.2592  -12.3199   25.8336 C   0  0  0  0  0  0  0  0  0  0  0  0
    7.3952  -14.5797   26.4372 C   0  0  0  0  0  0  0  0  0  0  0  0
    8.7012  -15.2418   26.1578 C   0  0  2  0  0  0  0  0  0  0  0  0
    8.5951  -16.1016   24.9776 N   0  0  0  0  0  0  0  0  0  0  0  0
    9.1422  -16.0412   27.2990 C   0  0  0  0  0  0  0  0  0  0  0  0
    9.8404  -15.5104   28.3750 O   0  0  0  0  0  0  0  0  0  0  0  0
    8.8676  -17.2967   27.2959 O   0  0  0  0  0  0  0  0  0  0  0  0
  2  1  1  1
  2  3  1  0
  4  2  1  0
  4  5  1  6
  6  4  1  0
  6  7  2  0
  8  6  1  0
  9  8  1  0
  9 10  1  6
 11 10  1  0
 12 11  1  0
 13 12  2  0
 14  9  1  0
 15 14  2  0
 16 12  1  0
 18 17  1  1
 18 20  1  0
 19 18  1  0
 21 20  1  1
 21 23  1  0
 21 22  1  0
 22 14  1  0
 23 24  1  0
 25 23  2  0
M  END
$$$$
