VEL.pdb
     RDKit          3D

 25 24  0  0  1  0  0  0  0  0999 V2000
    7.9302  -12.6632   18.1498 C   0  0  0  0  0  0  0  0  0  0  0  0
    7.7566  -13.4604   19.3981 C   0  0  2  0  0  0  0  0  0  0  0  0
    8.6117  -12.7965   20.4766 C   0  0  0  0  0  0  0  0  0  0  0  0
    8.1833  -14.8812   19.3037 C   0  0  2  0  0  0  0  0  0  0  0  0
    7.4618  -15.5429   18.2595 N   0  0  0  0  0  0  0  0  0  0  0  0
    7.9998  -15.6332   20.5717 C   0  0  0  0  0  0  0  0  0  0  0  0
    6.8768  -15.9486   21.0198 O   0  0  0  0  0  0  0  0  0  0  0  0
    9.1456  -16.0012   21.2918 N   0  0  0  0  0  0  0  0  0  0  0  0
    9.1142  -16.7518   22.5628 C   0  0  1  0  0  0  0  0  0  0  0  0
   10.2264  -17.7597   22.5323 C   0  0  0  0  0  0  0  0  0  0  0  0
   11.5899  -17.1393   22.5333 C   0  0  0  0  0  0  0  0  0  0  0  0
   12.6581  -18.1699   22.4995 C   0  0  0  0  0  0  0  0  0  0  0  0
   13.0436  -18.6795   23.5648 O   0  0  0  0  0  0  0  0  0  0  0  0
    9.1676  -15.8310   23.7078 C   0  0  0  0  0  0  0  0  0  0  0  0
    9.9798  -14.8548   23.6178 O   0  0  0  0  0  0  0  0  0  0  0  0
   13.2052  -18.5468   21.3007 O   0  0  0  0  0  0  0  0  0  0  0  0
    8.5222  -11.9162   26.4667 C   0  0  0  0  0  0  0  0  0  0  0  0
    7.3755  -12.8605   26.8386 C   0  0  1  0  0  0  0  0  0  0  0  0
    6.0706  -12.0547   26.8474 C   0  0  0  0  0  0  0  0  0  0  0  0
    7.3066  -13.9706   25.8379 C   0  0  0  0  0  0  0  0  0  0  0  0
    8.4960  -14.8663   25.9090 C   0  0  2  0  0  0  0  0  0  0  0  0
    8.4073  -15.9141   24.8905 N   0  0  0  0  0  0  0  0  0  0  0  0
    8.6127  -15.4845   27.2281 C   0  0  0  0  0  0  0  0  0  0  0  0
    9.4194  -14.9767   28.2374 O   0  0  0  0  0  0  0  0  0  0  0  0
    7.9333  -16.5516   27.4545 O   0  0  0  0  0  0  0  0  0  0  0  0
  2  1  1  6
  2  3  1  0
  4  2  1  0
  4  5  1  6
  6  4  1  0
  6  7  2  0
  8  6  1  0
  9  8  1  0
  9 10  1  6
 11 10  1  0
 12 11  1  0
 13 12  2  0
 14  9  1  0
 15 14  2  0
 16 12  1  0
 18 17  1  6
 18 20  1  0
 19 18  1  0
 21 20  1  1
 21 23  1  0
 21 22  1  0
 22 14  1  0
 23 24  1  0
 25 23  2  0
M  END
$$$$
