VEL.pdb
     RDKit          3D

 25 24  0  0  1  0  0  0  0  0999 V2000
    7.3561  -12.6655   20.6451 C   0  0  0  0  0  0  0  0  0  0  0  0
    8.5742  -13.2035   19.9737 C   0  0  2  0  0  0  0  0  0  0  0  0
    8.6915  -12.4963   18.6241 C   0  0  0  0  0  0  0  0  0  0  0  0
    8.5549  -14.6662   19.7095 C   0  0  2  0  0  0  0  0  0  0  0  0
    7.5176  -14.9837   18.7758 N   0  0  0  0  0  0  0  0  0  0  0  0
    8.3676  -15.4806   20.9378 C   0  0  0  0  0  0  0  0  0  0  0  0
    7.2549  -15.9169   21.3023 O   0  0  0  0  0  0  0  0  0  0  0  0
    9.4975  -15.7671   21.7177 N   0  0  0  0  0  0  0  0  0  0  0  0
    9.4698  -16.6097   22.9297 C   0  0  1  0  0  0  0  0  0  0  0  0
   10.5779  -17.6164   22.8185 C   0  0  0  0  0  0  0  0  0  0  0  0
   10.2942  -18.7044   21.8285 C   0  0  0  0  0  0  0  0  0  0  0  0
   11.4815  -19.5695   21.6137 C   0  0  0  0  0  0  0  0  0  0  0  0
   12.1607  -19.9219   22.5924 O   0  0  0  0  0  0  0  0  0  0  0  0
    9.5328  -15.7764   24.1395 C   0  0  0  0  0  0  0  0  0  0  0  0
   10.5527  -15.0245   24.2622 O   0  0  0  0  0  0  0  0  0  0  0  0
   11.8147  -19.9687   20.3456 O   0  0  0  0  0  0  0  0  0  0  0  0
    5.6847  -12.6908   26.4470 C   0  0  0  0  0  0  0  0  0  0  0  0
    7.0132  -13.2304   25.9099 C   0  0  1  0  0  0  0  0  0  0  0  0
    8.0083  -12.0663   25.8263 C   0  0  0  0  0  0  0  0  0  0  0  0
    7.5203  -14.2965   26.8291 C   0  0  0  0  0  0  0  0  0  0  0  0
    8.8047  -14.8847   26.3535 C   0  0  2  0  0  0  0  0  0  0  0  0
    8.5772  -15.7194   25.1726 N   0  0  0  0  0  0  0  0  0  0  0  0
    9.4357  -15.6885   27.3983 C   0  0  0  0  0  0  0  0  0  0  0  0
   10.2304  -15.1466   28.3992 O   0  0  0  0  0  0  0  0  0  0  0  0
    9.2415  -16.9588   27.3795 O   0  0  0  0  0  0  0  0  0  0  0  0
  2  1  1  6
  2  3  1  0
  4  2  1  0
  4  5  1  6
  6  4  1  0
  6  7  2  0
  8  6  1  0
  9  8  1  0
  9 10  1  6
 11 10  1  0
 12 11  1  0
 13 12  2  0
 14  9  1  0
 15 14  2  0
 16 12  1  0
 18 17  1  1
 18 20  1  0
 19 18  1  0
 21 20  1  1
 21 23  1  0
 21 22  1  0
 22 14  1  0
 23 24  1  0
 25 23  2  0
M  END
$$$$
