VEL.pdb
     RDKit          3D

 25 24  0  0  1  0  0  0  0  0999 V2000
    7.5423  -12.6569   18.3545 C   0  0  0  0  0  0  0  0  0  0  0  0
    7.7005  -13.4518   19.6063 C   0  0  2  0  0  0  0  0  0  0  0  0
    8.6567  -12.6767   20.5118 C   0  0  0  0  0  0  0  0  0  0  0  0
    8.2678  -14.8134   19.4215 C   0  0  2  0  0  0  0  0  0  0  0  0
    7.4463  -15.5711   18.5272 N   0  0  0  0  0  0  0  0  0  0  0  0
    8.4175  -15.5631   20.6953 C   0  0  0  0  0  0  0  0  0  0  0  0
    7.4447  -16.0005   21.3462 O   0  0  0  0  0  0  0  0  0  0  0  0
    9.7142  -15.7848   21.1814 N   0  0  0  0  0  0  0  0  0  0  0  0
   10.0129  -16.5205   22.4261 C   0  0  1  0  0  0  0  0  0  0  0  0
   11.4128  -17.0530   22.3240 C   0  0  0  0  0  0  0  0  0  0  0  0
   11.4915  -18.3914   21.6558 C   0  0  0  0  0  0  0  0  0  0  0  0
   12.8777  -18.7068   21.2276 C   0  0  0  0  0  0  0  0  0  0  0  0
   13.5330  -19.5483   21.8646 O   0  0  0  0  0  0  0  0  0  0  0  0
    9.7777  -15.6667   23.5997 C   0  0  0  0  0  0  0  0  0  0  0  0
   10.4715  -14.6022   23.6794 O   0  0  0  0  0  0  0  0  0  0  0  0
   13.4177  -18.0703   20.1406 O   0  0  0  0  0  0  0  0  0  0  0  0
    8.1135  -12.0069   26.5501 C   0  0  0  0  0  0  0  0  0  0  0  0
    7.2356  -13.2442   26.7583 C   0  0  1  0  0  0  0  0  0  0  0  0
    5.7722  -12.7909   26.8292 C   0  0  0  0  0  0  0  0  0  0  0  0
    7.4424  -14.1929   25.6200 C   0  0  0  0  0  0  0  0  0  0  0  0
    8.7212  -14.9489   25.7435 C   0  0  2  0  0  0  0  0  0  0  0  0
    8.8588  -15.9020   24.6409 N   0  0  0  0  0  0  0  0  0  0  0  0
    8.7884  -15.6679   27.0140 C   0  0  0  0  0  0  0  0  0  0  0  0
    8.8066  -17.0531   27.1039 O   0  0  0  0  0  0  0  0  0  0  0  0
    8.8296  -14.9752   28.0957 O   0  0  0  0  0  0  0  0  0  0  0  0
  2  1  1  6
  2  3  1  0
  4  2  1  0
  4  5  1  6
  6  4  1  0
  6  7  2  0
  8  6  1  0
  9  8  1  0
  9 10  1  6
 11 10  1  0
 12 11  1  0
 13 12  2  0
 14  9  1  0
 15 14  2  0
 16 12  1  0
 18 17  1  6
 18 20  1  0
 19 18  1  0
 21 20  1  6
 21 23  1  0
 21 22  1  0
 22 14  1  0
 23 24  1  0
 25 23  2  0
M  END
$$$$
