VEL.pdb
     RDKit          3D

 25 24  0  0  1  0  0  0  0  0999 V2000
    7.6880  -12.5418   18.6377 C   0  0  0  0  0  0  0  0  0  0  0  0
    7.6533  -13.3867   19.8660 C   0  0  2  0  0  0  0  0  0  0  0  0
    8.4489  -12.6477   20.9412 C   0  0  0  0  0  0  0  0  0  0  0  0
    8.2531  -14.7388   19.7189 C   0  0  2  0  0  0  0  0  0  0  0  0
    7.5777  -15.4668   18.6881 N   0  0  0  0  0  0  0  0  0  0  0  0
    8.2214  -15.5332   20.9739 C   0  0  0  0  0  0  0  0  0  0  0  0
    7.1660  -15.9851   21.4671 O   0  0  0  0  0  0  0  0  0  0  0  0
    9.4369  -15.7817   21.6278 N   0  0  0  0  0  0  0  0  0  0  0  0
    9.5668  -16.6244   22.8331 C   0  0  1  0  0  0  0  0  0  0  0  0
   10.8226  -17.4356   22.6971 C   0  0  0  0  0  0  0  0  0  0  0  0
   11.0267  -18.4064   23.8196 C   0  0  0  0  0  0  0  0  0  0  0  0
   12.2801  -19.1833   23.6477 C   0  0  0  0  0  0  0  0  0  0  0  0
   12.2430  -20.2700   23.0469 O   0  0  0  0  0  0  0  0  0  0  0  0
    9.5120  -15.7991   24.0487 C   0  0  0  0  0  0  0  0  0  0  0  0
   10.3766  -14.8699   24.1472 O   0  0  0  0  0  0  0  0  0  0  0  0
   13.4589  -18.6973   24.1505 O   0  0  0  0  0  0  0  0  0  0  0  0
    5.6806  -12.8476   26.2404 C   0  0  0  0  0  0  0  0  0  0  0  0
    7.0662  -13.3604   25.8382 C   0  0  1  0  0  0  0  0  0  0  0  0
    8.0714  -12.2138   26.0024 C   0  0  0  0  0  0  0  0  0  0  0  0
    7.4358  -14.5186   26.7103 C   0  0  0  0  0  0  0  0  0  0  0  0
    8.7443  -15.1187   26.3235 C   0  0  2  0  0  0  0  0  0  0  0  0
    8.5967  -15.9265   25.1116 N   0  0  0  0  0  0  0  0  0  0  0  0
    9.2800  -15.9530   27.3971 C   0  0  0  0  0  0  0  0  0  0  0  0
   10.0577  -15.4531   28.4328 O   0  0  0  0  0  0  0  0  0  0  0  0
    9.0150  -17.2102   27.3711 O   0  0  0  0  0  0  0  0  0  0  0  0
  2  1  1  6
  2  3  1  0
  4  2  1  0
  4  5  1  6
  6  4  1  0
  6  7  2  0
  8  6  1  0
  9  8  1  0
  9 10  1  6
 11 10  1  0
 12 11  1  0
 13 12  2  0
 14  9  1  0
 15 14  2  0
 16 12  1  0
 18 17  1  1
 18 20  1  0
 19 18  1  0
 21 20  1  1
 21 23  1  0
 21 22  1  0
 22 14  1  0
 23 24  1  0
 25 23  2  0
M  END
$$$$
