FKC.pdb
     RDKit          3D

 27 27  0  0  1  0  0  0  0  0999 V2000
   24.6642  -21.0885   -7.7687 N   0  0  0  0  0  0  0  0  0  0  0  0
   25.6304  -20.2021   -8.3883 C   0  0  1  0  0  0  0  0  0  0  0  0
   27.0360  -20.6903   -8.0580 C   0  0  0  0  0  0  0  0  0  0  0  0
   27.5578  -20.1511   -6.7979 C   0  0  0  0  0  0  0  0  0  0  0  0
   27.7292  -20.9273   -5.6876 C   0  0  0  0  0  0  0  0  0  0  0  0
   28.2197  -20.3689   -4.5387 C   0  0  0  0  0  0  0  0  0  0  0  0
   28.5435  -19.0303   -4.4881 C   0  0  0  0  0  0  0  0  0  0  0  0
   28.3683  -18.2434   -5.6188 C   0  0  0  0  0  0  0  0  0  0  0  0
   27.8763  -18.7911   -6.7798 C   0  0  0  0  0  0  0  0  0  0  0  0
   25.5003  -20.2604   -9.8632 C   0  0  0  0  0  0  0  0  0  0  0  0
   24.6540  -21.0228  -10.3864 O   0  0  0  0  0  0  0  0  0  0  0  0
   26.3402  -19.4481  -10.6607 N   0  0  0  0  0  0  0  0  0  0  0  0
   26.2204  -19.3555  -12.0808 C   0  0  1  0  0  0  0  0  0  0  0  0
   27.2041  -18.3620  -12.6643 C   0  0  0  0  0  0  0  0  0  0  0  0
   26.8000  -18.1622  -14.1196 C   0  0  0  0  0  0  0  0  0  0  0  0
   27.7887  -18.8816  -15.0093 C   0  0  0  0  0  0  0  0  0  0  0  0
   27.4260  -18.5379  -16.4456 C   0  0  0  0  0  0  0  0  0  0  0  0
   28.4153  -19.0653  -17.3380 N   0  0  0  0  0  0  0  0  0  0  0  0
   26.2678  -20.6573  -12.7695 C   0  0  0  0  0  0  0  0  0  0  0  0
   27.2046  -21.4441  -12.5249 O   0  0  0  0  0  0  0  0  0  0  0  0
   25.2493  -20.9781  -13.6881 N   0  0  0  0  0  0  0  0  0  0  0  0
   25.2014  -22.2607  -14.3479 C   0  0  1  0  0  0  0  0  0  0  0  0
   24.5466  -23.2863  -13.4446 C   0  0  0  0  0  0  0  0  0  0  0  0
   24.4429  -24.8423  -14.3716 S   0  0  0  0  0  0  0  0  0  0  0  0
   24.3483  -22.1352  -15.5504 C   0  0  0  0  0  0  0  0  0  0  0  0
   24.2771  -23.2128  -16.4211 O   0  0  0  0  0  0  0  0  0  0  0  0
   23.7010  -21.0736  -15.7789 O   0  0  0  0  0  0  0  0  0  0  0  0
  2  1  1  1
  3  4  1  0
  3  2  1  0
  4  5  2  0
  5  6  1  0
  7  6  2  0
  8  7  1  0
  9  8  2  0
  9  4  1  0
 10  2  1  0
 10 11  2  0
 12 10  1  0
 13 12  1  0
 13 19  1  0
 13 14  1  6
 15 14  1  0
 16 15  1  0
 17 16  1  0
 18 17  1  0
 19 20  2  0
 19 21  1  0
 21 22  1  0
 22 25  1  0
 22 23  1  1
 24 23  1  0
 25 27  2  0
 25 26  1  0
M  END
$$$$
