FKC.pdb
     RDKit          3D

 27 27  0  0  1  0  0  0  0  0999 V2000
   27.1066  -21.8291  -11.5963 N   0  0  0  0  0  0  0  0  0  0  0  0
   25.7314  -21.4503  -11.8581 C   0  0  1  0  0  0  0  0  0  0  0  0
   25.4549  -20.1008  -11.2059 C   0  0  0  0  0  0  0  0  0  0  0  0
   25.5450  -20.1329   -9.7424 C   0  0  0  0  0  0  0  0  0  0  0  0
   26.6254  -19.6417   -9.0670 C   0  0  0  0  0  0  0  0  0  0  0  0
   26.6544  -19.6991   -7.7001 C   0  0  0  0  0  0  0  0  0  0  0  0
   25.6048  -20.2477   -6.9953 C   0  0  0  0  0  0  0  0  0  0  0  0
   24.5074  -20.7464   -7.6848 C   0  0  0  0  0  0  0  0  0  0  0  0
   24.4648  -20.6952   -9.0580 C   0  0  0  0  0  0  0  0  0  0  0  0
   25.5241  -21.2647  -13.3135 C   0  0  0  0  0  0  0  0  0  0  0  0
   26.3758  -20.6438  -13.9921 O   0  0  0  0  0  0  0  0  0  0  0  0
   24.3596  -21.7959  -13.9160 N   0  0  0  0  0  0  0  0  0  0  0  0
   24.1255  -21.7694  -15.3246 C   0  0  1  0  0  0  0  0  0  0  0  0
   23.6990  -23.1251  -15.8492 C   0  0  0  0  0  0  0  0  0  0  0  0
   24.9569  -23.9835  -15.8927 C   0  0  0  0  0  0  0  0  0  0  0  0
   24.5825  -25.3860  -16.3164 C   0  0  0  0  0  0  0  0  0  0  0  0
   25.8812  -26.1534  -16.5097 C   0  0  0  0  0  0  0  0  0  0  0  0
   25.5967  -27.5220  -16.8247 N   0  0  0  0  0  0  0  0  0  0  0  0
   23.2175  -20.6928  -15.7579 C   0  0  0  0  0  0  0  0  0  0  0  0
   22.1973  -20.4456  -15.0837 O   0  0  0  0  0  0  0  0  0  0  0  0
   23.5286  -19.9700  -16.9262 N   0  0  0  0  0  0  0  0  0  0  0  0
   22.7148  -18.8646  -17.3717 C   0  0  1  0  0  0  0  0  0  0  0  0
   23.5749  -17.8376  -18.0803 C   0  0  0  0  0  0  0  0  0  0  0  0
   24.7280  -18.7386  -19.1527 S   0  0  0  0  0  0  0  0  0  0  0  0
   21.7408  -19.3723  -18.3633 C   0  0  0  0  0  0  0  0  0  0  0  0
   20.7264  -18.5237  -18.7822 O   0  0  0  0  0  0  0  0  0  0  0  0
   21.8303  -20.5488  -18.8172 O   0  0  0  0  0  0  0  0  0  0  0  0
  2  1  1  6
  3  4  1  0
  3  2  1  0
  4  5  2  0
  5  6  1  0
  7  6  2  0
  8  7  1  0
  9  8  2  0
  9  4  1  0
 10  2  1  0
 10 11  2  0
 12 10  1  0
 13 12  1  0
 13 19  1  0
 13 14  1  1
 15 14  1  0
 16 15  1  0
 17 16  1  0
 18 17  1  0
 19 20  2  0
 19 21  1  0
 21 22  1  0
 22 25  1  0
 22 23  1  6
 24 23  1  0
 25 27  2  0
 25 26  1  0
M  END
$$$$
