FKC.pdb
     RDKit          3D

 27 27  0  0  1  0  0  0  0  0999 V2000
   24.5082  -19.7714  -13.6767 N   0  0  0  0  0  0  0  0  0  0  0  0
   25.6467  -20.6601  -13.5448 C   0  0  1  0  0  0  0  0  0  0  0  0
   25.3278  -21.7246  -12.5017 C   0  0  0  0  0  0  0  0  0  0  0  0
   25.4783  -21.2505  -11.1220 C   0  0  0  0  0  0  0  0  0  0  0  0
   26.6965  -21.1530  -10.5129 C   0  0  0  0  0  0  0  0  0  0  0  0
   26.7758  -20.7043   -9.2226 C   0  0  0  0  0  0  0  0  0  0  0  0
   25.6392  -20.3489   -8.5289 C   0  0  0  0  0  0  0  0  0  0  0  0
   24.4017  -20.4490   -9.1509 C   0  0  0  0  0  0  0  0  0  0  0  0
   24.3072  -20.8983  -10.4468 C   0  0  0  0  0  0  0  0  0  0  0  0
   25.8815  -21.3772  -14.8200 C   0  0  0  0  0  0  0  0  0  0  0  0
   24.9182  -21.6322  -15.5803 O   0  0  0  0  0  0  0  0  0  0  0  0
   27.1992  -21.7642  -15.1591 N   0  0  0  0  0  0  0  0  0  0  0  0
   27.5004  -22.6646  -16.2261 C   0  0  1  0  0  0  0  0  0  0  0  0
   28.9928  -22.7817  -16.4585 C   0  0  0  0  0  0  0  0  0  0  0  0
   29.1713  -23.7491  -17.6218 C   0  0  0  0  0  0  0  0  0  0  0  0
   30.6478  -23.9158  -17.9026 C   0  0  0  0  0  0  0  0  0  0  0  0
   30.7739  -24.9231  -19.0349 C   0  0  0  0  0  0  0  0  0  0  0  0
   32.1567  -25.1946  -19.2944 N   0  0  0  0  0  0  0  0  0  0  0  0
   26.8511  -23.9810  -16.0966 C   0  0  0  0  0  0  0  0  0  0  0  0
   27.2320  -24.7649  -15.2040 O   0  0  0  0  0  0  0  0  0  0  0  0
   25.8139  -24.3183  -16.9880 N   0  0  0  0  0  0  0  0  0  0  0  0
   24.8645  -25.3619  -16.6847 C   0  0  1  0  0  0  0  0  0  0  0  0
   24.1031  -25.0211  -15.4195 C   0  0  0  0  0  0  0  0  0  0  0  0
   23.0855  -26.4606  -14.9909 S   0  0  0  0  0  0  0  0  0  0  0  0
   23.8742  -25.4253  -17.7824 C   0  0  0  0  0  0  0  0  0  0  0  0
   23.5125  -26.6725  -18.2702 O   0  0  0  0  0  0  0  0  0  0  0  0
   23.3706  -24.3703  -18.2636 O   0  0  0  0  0  0  0  0  0  0  0  0
  2  1  1  6
  3  4  1  0
  3  2  1  0
  4  5  2  0
  5  6  1  0
  7  6  2  0
  8  7  1  0
  9  8  2  0
  9  4  1  0
 10  2  1  0
 10 11  2  0
 12 10  1  0
 13 12  1  0
 13 19  1  0
 13 14  1  1
 15 14  1  0
 16 15  1  0
 17 16  1  0
 18 17  1  0
 19 20  2  0
 19 21  1  0
 21 22  1  0
 22 25  1  0
 22 23  1  1
 24 23  1  0
 25 27  2  0
 25 26  1  0
M  END
$$$$
