FKC.pdb
     RDKit          3D

 27 27  0  0  1  0  0  0  0  0999 V2000
   16.9955  -18.6654    1.6880 N   0  0  0  0  0  0  0  0  0  0  0  0
   17.4901  -17.6381    2.5843 C   0  0  1  0  0  0  0  0  0  0  0  0
   16.8976  -16.2947    2.1754 C   0  0  0  0  0  0  0  0  0  0  0  0
   17.4737  -15.1592    2.9033 C   0  0  0  0  0  0  0  0  0  0  0  0
   18.7171  -14.6689    2.6242 C   0  0  0  0  0  0  0  0  0  0  0  0
   19.2033  -13.6069    3.3373 C   0  0  0  0  0  0  0  0  0  0  0  0
   18.4521  -13.0250    4.3355 C   0  0  0  0  0  0  0  0  0  0  0  0
   17.1878  -13.5258    4.6171 C   0  0  0  0  0  0  0  0  0  0  0  0
   16.6868  -14.5922    3.9087 C   0  0  0  0  0  0  0  0  0  0  0  0
   17.0229  -17.9014    3.9655 C   0  0  0  0  0  0  0  0  0  0  0  0
   15.9149  -18.4558    4.1556 O   0  0  0  0  0  0  0  0  0  0  0  0
   17.8422  -17.5193    5.0536 N   0  0  0  0  0  0  0  0  0  0  0  0
   17.4305  -17.6223    6.4173 C   0  0  1  0  0  0  0  0  0  0  0  0
   18.4991  -18.2612    7.2803 C   0  0  0  0  0  0  0  0  0  0  0  0
   17.8737  -18.4693    8.6539 C   0  0  0  0  0  0  0  0  0  0  0  0
   18.8928  -19.1122    9.5676 C   0  0  0  0  0  0  0  0  0  0  0  0
   18.2398  -19.2503   10.9341 C   0  0  0  0  0  0  0  0  0  0  0  0
   19.0825  -20.0186   11.8018 N   0  0  0  0  0  0  0  0  0  0  0  0
   16.9354  -16.3571    6.9879 C   0  0  0  0  0  0  0  0  0  0  0  0
   17.6890  -15.3632    7.0157 O   0  0  0  0  0  0  0  0  0  0  0  0
   15.6195  -16.3055    7.4876 N   0  0  0  0  0  0  0  0  0  0  0  0
   15.0712  -15.0961    8.0527 C   0  0  1  0  0  0  0  0  0  0  0  0
   13.8349  -14.6763    7.2835 C   0  0  0  0  0  0  0  0  0  0  0  0
   14.3795  -13.6313    5.9041 S   0  0  0  0  0  0  0  0  0  0  0  0
   14.6421  -15.3819    9.4397 C   0  0  0  0  0  0  0  0  0  0  0  0
   14.1180  -14.3417   10.1931 O   0  0  0  0  0  0  0  0  0  0  0  0
   14.7503  -16.5438    9.9261 O   0  0  0  0  0  0  0  0  0  0  0  0
  2  1  1  6
  3  4  1  0
  3  2  1  0
  4  5  2  0
  5  6  1  0
  7  6  2  0
  8  7  1  0
  9  8  2  0
  9  4  1  0
 10  2  1  0
 10 11  2  0
 12 10  1  0
 13 12  1  0
 13 19  1  0
 13 14  1  1
 15 14  1  0
 16 15  1  0
 17 16  1  0
 18 17  1  0
 19 20  2  0
 19 21  1  0
 21 22  1  0
 22 25  1  0
 22 23  1  6
 24 23  1  0
 25 27  2  0
 25 26  1  0
M  END
$$$$
