FKC.pdb
     RDKit          3D

 27 27  0  0  1  0  0  0  0  0999 V2000
    7.8585  -18.5403   -7.7951 N   0  0  0  0  0  0  0  0  0  0  0  0
    9.2578  -18.4820   -8.1721 C   0  0  1  0  0  0  0  0  0  0  0  0
    9.9133  -17.3001   -7.4676 C   0  0  0  0  0  0  0  0  0  0  0  0
    9.4857  -15.9994   -7.9934 C   0  0  0  0  0  0  0  0  0  0  0  0
   10.0301  -15.4535   -9.1204 C   0  0  0  0  0  0  0  0  0  0  0  0
    9.5916  -14.2355   -9.5640 C   0  0  0  0  0  0  0  0  0  0  0  0
    8.6054  -13.5518   -8.8863 C   0  0  0  0  0  0  0  0  0  0  0  0
    8.0535  -14.1096   -7.7405 C   0  0  0  0  0  0  0  0  0  0  0  0
    8.4845  -15.3324   -7.2834 C   0  0  0  0  0  0  0  0  0  0  0  0
    9.9620  -19.6970   -7.6998 C   0  0  0  0  0  0  0  0  0  0  0  0
    9.5559  -20.2971   -6.6769 O   0  0  0  0  0  0  0  0  0  0  0  0
   11.0891  -20.1618   -8.4174 N   0  0  0  0  0  0  0  0  0  0  0  0
   11.7892  -21.3611   -8.0839 C   0  0  1  0  0  0  0  0  0  0  0  0
   12.6035  -21.8798   -9.2513 C   0  0  0  0  0  0  0  0  0  0  0  0
   13.1395  -23.2420   -8.8291 C   0  0  0  0  0  0  0  0  0  0  0  0
   13.9005  -23.8523   -9.9845 C   0  0  0  0  0  0  0  0  0  0  0  0
   14.1996  -25.2948   -9.6071 C   0  0  0  0  0  0  0  0  0  0  0  0
   14.6494  -26.0173  -10.7599 N   0  0  0  0  0  0  0  0  0  0  0  0
   12.5861  -21.2624   -6.8483 C   0  0  0  0  0  0  0  0  0  0  0  0
   12.8218  -20.1382   -6.3615 O   0  0  0  0  0  0  0  0  0  0  0  0
   13.0607  -22.4455   -6.2490 N   0  0  0  0  0  0  0  0  0  0  0  0
   13.7302  -22.4306   -4.9706 C   0  0  1  0  0  0  0  0  0  0  0  0
   12.7856  -21.9345   -3.8944 C   0  0  0  0  0  0  0  0  0  0  0  0
   13.6542  -22.0595   -2.3065 S   0  0  0  0  0  0  0  0  0  0  0  0
   14.0955  -23.8208   -4.6191 C   0  0  0  0  0  0  0  0  0  0  0  0
   15.3552  -24.0549   -4.0874 O   0  0  0  0  0  0  0  0  0  0  0  0
   13.2811  -24.7709   -4.7986 O   0  0  0  0  0  0  0  0  0  0  0  0
  2  1  1  1
  3  4  1  0
  3  2  1  0
  4  5  2  0
  5  6  1  0
  7  6  2  0
  8  7  1  0
  9  8  2  0
  9  4  1  0
 10  2  1  0
 10 11  2  0
 12 10  1  0
 13 12  1  0
 13 19  1  0
 13 14  1  6
 15 14  1  0
 16 15  1  0
 17 16  1  0
 18 17  1  0
 19 20  2  0
 19 21  1  0
 21 22  1  0
 22 25  1  0
 22 23  1  1
 24 23  1  0
 25 27  2  0
 25 26  1  0
M  END
$$$$
