FKC.pdb
     RDKit          3D

 27 27  0  0  1  0  0  0  0  0999 V2000
   27.8686  -20.2397  -11.1061 N   0  0  0  0  0  0  0  0  0  0  0  0
   26.6717  -21.0069  -10.8194 C   0  0  1  0  0  0  0  0  0  0  0  0
   26.1411  -20.6058   -9.4480 C   0  0  0  0  0  0  0  0  0  0  0  0
   27.1807  -20.5525   -8.4149 C   0  0  0  0  0  0  0  0  0  0  0  0
   28.2465  -21.4062   -8.4078 C   0  0  0  0  0  0  0  0  0  0  0  0
   29.1860  -21.3100   -7.4175 C   0  0  0  0  0  0  0  0  0  0  0  0
   29.0697  -20.3604   -6.4255 C   0  0  0  0  0  0  0  0  0  0  0  0
   27.9849  -19.4936   -6.4354 C   0  0  0  0  0  0  0  0  0  0  0  0
   27.0335  -19.5789   -7.4241 C   0  0  0  0  0  0  0  0  0  0  0  0
   25.6086  -20.6733  -11.7961 C   0  0  0  0  0  0  0  0  0  0  0  0
   25.1187  -19.5197  -11.8173 O   0  0  0  0  0  0  0  0  0  0  0  0
   25.1620  -21.6707  -12.6945 N   0  0  0  0  0  0  0  0  0  0  0  0
   24.1345  -21.4498  -13.6614 C   0  0  1  0  0  0  0  0  0  0  0  0
   24.5631  -21.8870  -15.0471 C   0  0  0  0  0  0  0  0  0  0  0  0
   25.9711  -21.3423  -15.2526 C   0  0  0  0  0  0  0  0  0  0  0  0
   26.3897  -21.5852  -16.6852 C   0  0  0  0  0  0  0  0  0  0  0  0
   27.7931  -21.0200  -16.8399 C   0  0  0  0  0  0  0  0  0  0  0  0
   28.2393  -21.1860  -18.1915 N   0  0  0  0  0  0  0  0  0  0  0  0
   22.8261  -22.0098  -13.2797 C   0  0  0  0  0  0  0  0  0  0  0  0
   22.7240  -23.2352  -13.0691 O   0  0  0  0  0  0  0  0  0  0  0  0
   21.7229  -21.1419  -13.1627 N   0  0  0  0  0  0  0  0  0  0  0  0
   20.4192  -21.6229  -12.7733 C   0  0  1  0  0  0  0  0  0  0  0  0
   19.7932  -20.6752  -11.7700 C   0  0  0  0  0  0  0  0  0  0  0  0
   19.9927  -18.9906  -12.4130 S   0  0  0  0  0  0  0  0  0  0  0  0
   19.5469  -21.6261  -13.9686 C   0  0  0  0  0  0  0  0  0  0  0  0
   20.0510  -21.1054  -15.1515 O   0  0  0  0  0  0  0  0  0  0  0  0
   18.3726  -22.0911  -13.9138 O   0  0  0  0  0  0  0  0  0  0  0  0
  2  1  1  6
  3  4  1  0
  3  2  1  0
  4  5  2  0
  5  6  1  0
  7  6  2  0
  8  7  1  0
  9  8  2  0
  9  4  1  0
 10  2  1  0
 10 11  2  0
 12 10  1  0
 13 12  1  0
 13 19  1  0
 13 14  1  6
 15 14  1  0
 16 15  1  0
 17 16  1  0
 18 17  1  0
 19 20  2  0
 19 21  1  0
 21 22  1  0
 22 25  1  0
 22 23  1  1
 24 23  1  0
 25 27  2  0
 25 26  1  0
M  END
$$$$
