FKC.pdb
     RDKit          3D

 27 27  0  0  1  0  0  0  0  0999 V2000
   21.6222  -25.4359  -14.8106 N   0  0  0  0  0  0  0  0  0  0  0  0
   22.5971  -25.4708  -15.8838 C   0  0  1  0  0  0  0  0  0  0  0  0
   23.8125  -24.6457  -15.4779 C   0  0  0  0  0  0  0  0  0  0  0  0
   24.2789  -23.7395  -16.5326 C   0  0  0  0  0  0  0  0  0  0  0  0
   23.4656  -22.8008  -17.1000 C   0  0  0  0  0  0  0  0  0  0  0  0
   23.9557  -21.9825  -18.0812 C   0  0  0  0  0  0  0  0  0  0  0  0
   25.2625  -22.0943  -18.5045 C   0  0  0  0  0  0  0  0  0  0  0  0
   26.0873  -23.0497  -17.9255 C   0  0  0  0  0  0  0  0  0  0  0  0
   25.6081  -23.8785  -16.9388 C   0  0  0  0  0  0  0  0  0  0  0  0
   23.0785  -26.8573  -16.0876 C   0  0  0  0  0  0  0  0  0  0  0  0
   23.0776  -27.6664  -15.1303 O   0  0  0  0  0  0  0  0  0  0  0  0
   23.5341  -27.2460  -17.3692 N   0  0  0  0  0  0  0  0  0  0  0  0
   23.9652  -28.5721  -17.6776 C   0  0  1  0  0  0  0  0  0  0  0  0
   23.5238  -28.9989  -19.0625 C   0  0  0  0  0  0  0  0  0  0  0  0
   23.8854  -30.4732  -19.1928 C   0  0  0  0  0  0  0  0  0  0  0  0
   23.4788  -30.9614  -20.5650 C   0  0  0  0  0  0  0  0  0  0  0  0
   23.7035  -32.4653  -20.5863 C   0  0  0  0  0  0  0  0  0  0  0  0
   23.3697  -32.9901  -21.8772 N   0  0  0  0  0  0  0  0  0  0  0  0
   25.4045  -28.7978  -17.4567 C   0  0  0  0  0  0  0  0  0  0  0  0
   26.1914  -27.8318  -17.5216 O   0  0  0  0  0  0  0  0  0  0  0  0
   25.8530  -30.1034  -17.1769 N   0  0  0  0  0  0  0  0  0  0  0  0
   27.2295  -30.3748  -16.8387 C   0  0  1  0  0  0  0  0  0  0  0  0
   27.3903  -30.4505  -15.3338 C   0  0  0  0  0  0  0  0  0  0  0  0
   26.3111  -31.7808  -14.7362 S   0  0  0  0  0  0  0  0  0  0  0  0
   27.5896  -31.7040  -17.3802 C   0  0  0  0  0  0  0  0  0  0  0  0
   28.9057  -32.1268  -17.2632 O   0  0  0  0  0  0  0  0  0  0  0  0
   26.7209  -32.4356  -17.9354 O   0  0  0  0  0  0  0  0  0  0  0  0
  2  1  1  1
  3  4  1  0
  3  2  1  0
  4  5  2  0
  5  6  1  0
  7  6  2  0
  8  7  1  0
  9  8  2  0
  9  4  1  0
 10  2  1  0
 10 11  2  0
 12 10  1  0
 13 12  1  0
 13 19  1  0
 13 14  1  6
 15 14  1  0
 16 15  1  0
 17 16  1  0
 18 17  1  0
 19 20  2  0
 19 21  1  0
 21 22  1  0
 22 25  1  0
 22 23  1  1
 24 23  1  0
 25 27  2  0
 25 26  1  0
M  END
$$$$
