EPD.pdb
     RDKit          3D

 25 25  0  0  1  0  0  0  0  0999 V2000
   11.3142  -15.0105   15.7952 N   0  0  0  0  0  0  0  0  0  0  0  0
   10.0095  -15.0607   16.4594 C   0  0  1  0  0  0  0  0  0  0  0  0
    9.4998  -16.4919   16.2011 C   0  0  0  0  0  0  0  0  0  0  0  0
    9.4991  -16.6484   14.6954 C   0  0  0  0  0  0  0  0  0  0  0  0
    9.0959  -18.0092   14.2774 C   0  0  0  0  0  0  0  0  0  0  0  0
    8.0463  -18.5547   14.6930 O   0  0  0  0  0  0  0  0  0  0  0  0
   10.2162  -14.8719   17.9019 C   0  0  0  0  0  0  0  0  0  0  0  0
   11.3897  -15.1302   18.3585 O   0  0  0  0  0  0  0  0  0  0  0  0
    9.9103  -18.6987   13.3963 O   0  0  0  0  0  0  0  0  0  0  0  0
    9.2105  -14.4276   18.7956 N   0  0  0  0  0  0  0  0  0  0  0  0
    7.8319  -14.1532   18.4426 C   0  0  0  0  0  0  0  0  0  0  0  0
    7.3217  -13.1609   19.4688 C   0  0  0  0  0  0  0  0  0  0  0  0
    8.4714  -12.9569   20.4105 C   0  0  0  0  0  0  0  0  0  0  0  0
    9.3539  -14.1702   20.1852 C   0  0  1  0  0  0  0  0  0  0  0  0
    8.8579  -15.2936   21.0353 C   0  0  0  0  0  0  0  0  0  0  0  0
    8.0552  -16.1640   20.6300 O   0  0  0  0  0  0  0  0  0  0  0  0
    9.3209  -15.3718   22.3585 N   0  0  0  0  0  0  0  0  0  0  0  0
   10.2701  -16.4005   22.8212 C   0  0  1  0  0  0  0  0  0  0  0  0
   11.4656  -16.2664   21.9243 C   0  0  0  0  0  0  0  0  0  0  0  0
   12.5829  -17.1650   22.2024 C   0  0  0  0  0  0  0  0  0  0  0  0
   13.3520  -16.8206   23.1693 O   0  0  0  0  0  0  0  0  0  0  0  0
   10.5466  -16.2297   24.2534 C   0  0  0  0  0  0  0  0  0  0  0  0
   10.8153  -17.2088   24.9765 O   0  0  0  0  0  0  0  0  0  0  0  0
   12.9200  -18.3246   21.5682 O   0  0  0  0  0  0  0  0  0  0  0  0
   10.5207  -14.9774   24.8601 O   0  0  0  0  0  0  0  0  0  0  0  0
  2  7  1  0
  2  1  1  6
  3  2  1  0
  4  3  1  0
  5  4  1  0
  6  5  2  0
  7  8  2  0
  9  5  1  0
 10  7  1  0
 10 14  1  0
 11 10  1  0
 12 11  1  0
 12 13  1  0
 13 14  1  0
 14 15  1  1
 15 17  1  0
 16 15  2  0
 18 17  1  0
 18 19  1  6
 19 20  1  0
 20 24  1  0
 20 21  2  0
 22 18  1  0
 23 22  2  0
 25 22  1  0
M  END
$$$$
