EPD.pdb
     RDKit          3D

 25 25  0  0  1  0  0  0  0  0999 V2000
    7.8163  -14.0348   20.6459 N   0  0  0  0  0  0  0  0  0  0  0  0
    7.0696  -14.1199   21.9033 C   0  0  1  0  0  0  0  0  0  0  0  0
    6.5830  -15.5808   21.9651 C   0  0  0  0  0  0  0  0  0  0  0  0
    7.1976  -16.2563   20.7578 C   0  0  0  0  0  0  0  0  0  0  0  0
    7.6674  -17.6252   21.0650 C   0  0  0  0  0  0  0  0  0  0  0  0
    6.9378  -18.6337   20.9155 O   0  0  0  0  0  0  0  0  0  0  0  0
    8.0001  -13.8707   23.0128 C   0  0  0  0  0  0  0  0  0  0  0  0
    9.2500  -13.8085   22.7188 O   0  0  0  0  0  0  0  0  0  0  0  0
    8.9590  -17.7914   21.5334 O   0  0  0  0  0  0  0  0  0  0  0  0
    7.5990  -13.6975   24.3606 N   0  0  0  0  0  0  0  0  0  0  0  0
    6.2394  -13.7945   24.8534 C   0  0  0  0  0  0  0  0  0  0  0  0
    6.1878  -12.9621   26.1194 C   0  0  0  0  0  0  0  0  0  0  0  0
    7.5886  -12.4588   26.3054 C   0  0  0  0  0  0  0  0  0  0  0  0
    8.4345  -13.4017   25.4706 C   0  0  1  0  0  0  0  0  0  0  0  0
    8.7609  -14.6093   26.2864 C   0  0  0  0  0  0  0  0  0  0  0  0
    8.0340  -15.6269   26.3351 O   0  0  0  0  0  0  0  0  0  0  0  0
    9.9479  -14.5961   27.0361 N   0  0  0  0  0  0  0  0  0  0  0  0
   10.4473  -15.7691   27.7765 C   0  0  1  0  0  0  0  0  0  0  0  0
   10.8348  -15.2467   29.1287 C   0  0  0  0  0  0  0  0  0  0  0  0
   11.2404  -16.2465   30.1130 C   0  0  0  0  0  0  0  0  0  0  0  0
   11.4100  -17.4367   29.6658 O   0  0  0  0  0  0  0  0  0  0  0  0
    9.4338  -16.8317   27.7888 C   0  0  0  0  0  0  0  0  0  0  0  0
    8.2960  -16.6283   28.2555 O   0  0  0  0  0  0  0  0  0  0  0  0
   11.4622  -16.0839   31.4489 O   0  0  0  0  0  0  0  0  0  0  0  0
    9.6978  -18.1016   27.2838 O   0  0  0  0  0  0  0  0  0  0  0  0
  2  7  1  0
  2  1  1  6
  3  2  1  0
  4  3  1  0
  5  4  1  0
  6  5  2  0
  7  8  2  0
  9  5  1  0
 10  7  1  0
 10 14  1  0
 11 10  1  0
 12 11  1  0
 12 13  1  0
 13 14  1  0
 14 15  1  1
 15 17  1  0
 16 15  2  0
 18 17  1  0
 18 19  1  1
 19 20  1  0
 20 24  1  0
 20 21  2  0
 22 18  1  0
 23 22  2  0
 25 22  1  0
M  END
$$$$
