EPD.pdb
     RDKit          3D

 25 25  0  0  1  0  0  0  0  0999 V2000
    6.4455  -16.0232   22.1130 N   0  0  0  0  0  0  0  0  0  0  0  0
    6.5836  -16.0746   23.5704 C   0  0  1  0  0  0  0  0  0  0  0  0
    7.1683  -17.4720   23.8537 C   0  0  0  0  0  0  0  0  0  0  0  0
    6.3910  -17.9951   25.0427 C   0  0  0  0  0  0  0  0  0  0  0  0
    6.9056  -19.2998   25.5137 C   0  0  0  0  0  0  0  0  0  0  0  0
    7.5746  -20.0622   24.7767 O   0  0  0  0  0  0  0  0  0  0  0  0
    7.5538  -15.0501   23.9805 C   0  0  0  0  0  0  0  0  0  0  0  0
    8.5176  -14.8049   23.1661 O   0  0  0  0  0  0  0  0  0  0  0  0
    6.6356  -19.6863   26.8148 O   0  0  0  0  0  0  0  0  0  0  0  0
    7.4819  -14.3329   25.2003 N   0  0  0  0  0  0  0  0  0  0  0  0
    6.5403  -14.5874   26.2723 C   0  0  0  0  0  0  0  0  0  0  0  0
    6.3995  -13.2823   27.0306 C   0  0  0  0  0  0  0  0  0  0  0  0
    7.3426  -12.3372   26.3469 C   0  0  0  0  0  0  0  0  0  0  0  0
    8.3030  -13.2462   25.6035 C   0  0  1  0  0  0  0  0  0  0  0  0
    9.3949  -13.6610   26.5342 C   0  0  0  0  0  0  0  0  0  0  0  0
   10.1736  -12.8533   27.0888 O   0  0  0  0  0  0  0  0  0  0  0  0
    9.5505  -15.0313   26.7971 N   0  0  0  0  0  0  0  0  0  0  0  0
   10.8156  -15.6234   27.2688 C   0  0  1  0  0  0  0  0  0  0  0  0
   10.4157  -16.8497   28.0356 C   0  0  0  0  0  0  0  0  0  0  0  0
   10.1281  -16.6563   29.4544 C   0  0  0  0  0  0  0  0  0  0  0  0
   10.2172  -15.4515   29.8853 O   0  0  0  0  0  0  0  0  0  0  0  0
   11.7169  -15.8668   26.1352 C   0  0  0  0  0  0  0  0  0  0  0  0
   11.3099  -15.7760   24.9605 O   0  0  0  0  0  0  0  0  0  0  0  0
    9.7778  -17.5889   30.3861 O   0  0  0  0  0  0  0  0  0  0  0  0
   13.0536  -16.2065   26.3221 O   0  0  0  0  0  0  0  0  0  0  0  0
  2  7  1  0
  2  1  1  6
  3  2  1  0
  4  3  1  0
  5  4  1  0
  6  5  2  0
  7  8  2  0
  9  5  1  0
 10  7  1  0
 10 14  1  0
 11 10  1  0
 12 11  1  0
 12 13  1  0
 13 14  1  0
 14 15  1  1
 15 17  1  0
 16 15  2  0
 18 17  1  0
 18 19  1  6
 19 20  1  0
 20 24  1  0
 20 21  2  0
 22 18  1  0
 23 22  2  0
 25 22  1  0
M  END
$$$$
