EPD.pdb
     RDKit          3D

 25 25  0  0  1  0  0  0  0  0999 V2000
    9.2369  -15.1184   14.9526 N   0  0  0  0  0  0  0  0  0  0  0  0
    8.4815  -15.3781   16.1805 C   0  0  1  0  0  0  0  0  0  0  0  0
    8.3843  -16.9143   16.2562 C   0  0  0  0  0  0  0  0  0  0  0  0
    8.0625  -17.3626   14.8466 C   0  0  0  0  0  0  0  0  0  0  0  0
    7.9885  -18.8360   14.7343 C   0  0  0  0  0  0  0  0  0  0  0  0
    6.9512  -19.4279   14.3529 O   0  0  0  0  0  0  0  0  0  0  0  0
    9.2661  -14.8845   17.3205 C   0  0  0  0  0  0  0  0  0  0  0  0
   10.5438  -14.8659   17.1808 O   0  0  0  0  0  0  0  0  0  0  0  0
    9.1073  -19.5811   15.0634 O   0  0  0  0  0  0  0  0  0  0  0  0
    8.6988  -14.4360   18.5389 N   0  0  0  0  0  0  0  0  0  0  0  0
    7.2819  -14.3865   18.8400 C   0  0  0  0  0  0  0  0  0  0  0  0
    7.1123  -13.3204   19.9043 C   0  0  0  0  0  0  0  0  0  0  0  0
    8.5039  -12.8398   20.1916 C   0  0  0  0  0  0  0  0  0  0  0  0
    9.3940  -13.9574   19.6814 C   0  0  1  0  0  0  0  0  0  0  0  0
    9.5317  -14.9920   20.7497 C   0  0  0  0  0  0  0  0  0  0  0  0
    8.7019  -15.9109   20.9321 O   0  0  0  0  0  0  0  0  0  0  0  0
   10.6541  -14.9247   21.5905 N   0  0  0  0  0  0  0  0  0  0  0  0
   10.9842  -15.9665   22.5799 C   0  0  1  0  0  0  0  0  0  0  0  0
   12.4351  -15.7596   22.9018 C   0  0  0  0  0  0  0  0  0  0  0  0
   13.3806  -16.0510   21.8275 C   0  0  0  0  0  0  0  0  0  0  0  0
   14.5702  -15.5997   21.9899 O   0  0  0  0  0  0  0  0  0  0  0  0
   10.0751  -15.8816   23.7301 C   0  0  0  0  0  0  0  0  0  0  0  0
    9.3948  -14.8576   23.9365 O   0  0  0  0  0  0  0  0  0  0  0  0
   13.1668  -16.7399   20.6699 O   0  0  0  0  0  0  0  0  0  0  0  0
    9.9349  -16.9322   24.6321 O   0  0  0  0  0  0  0  0  0  0  0  0
  2  7  1  0
  2  1  1  6
  3  2  1  0
  4  3  1  0
  5  4  1  0
  6  5  2  0
  7  8  2  0
  9  5  1  0
 10  7  1  0
 10 14  1  0
 11 10  1  0
 12 11  1  0
 12 13  1  0
 13 14  1  0
 14 15  1  1
 15 17  1  0
 16 15  2  0
 18 17  1  0
 18 19  1  1
 19 20  1  0
 20 24  1  0
 20 21  2  0
 22 18  1  0
 23 22  2  0
 25 22  1  0
M  END
$$$$
