EPD.pdb
     RDKit          3D

 25 25  0  0  1  0  0  0  0  0999 V2000
    7.7640  -14.5947   19.7148 N   0  0  0  0  0  0  0  0  0  0  0  0
    7.0755  -14.4690   21.0018 C   0  0  1  0  0  0  0  0  0  0  0  0
    6.2443  -15.7610   21.1227 C   0  0  0  0  0  0  0  0  0  0  0  0
    6.4557  -16.4940   19.8151 C   0  0  0  0  0  0  0  0  0  0  0  0
    7.2311  -17.7411   19.9952 C   0  0  0  0  0  0  0  0  0  0  0  0
    7.8014  -18.3197   19.0404 O   0  0  0  0  0  0  0  0  0  0  0  0
    8.0867  -14.4406   22.0675 C   0  0  0  0  0  0  0  0  0  0  0  0
    9.3128  -14.5811   21.7078 O   0  0  0  0  0  0  0  0  0  0  0  0
    7.3264  -18.2828   21.2651 O   0  0  0  0  0  0  0  0  0  0  0  0
    7.7862  -14.2684   23.4414 N   0  0  0  0  0  0  0  0  0  0  0  0
    6.4566  -14.1305   24.0015 C   0  0  0  0  0  0  0  0  0  0  0  0
    6.6228  -13.3745   25.3050 C   0  0  0  0  0  0  0  0  0  0  0  0
    8.1013  -13.1595   25.4384 C   0  0  0  0  0  0  0  0  0  0  0  0
    8.7111  -14.1994   24.5173 C   0  0  1  0  0  0  0  0  0  0  0  0
    8.8328  -15.4902   25.2586 C   0  0  0  0  0  0  0  0  0  0  0  0
    7.8646  -16.2501   25.4855 O   0  0  0  0  0  0  0  0  0  0  0  0
   10.1036  -15.8656   25.7225 N   0  0  0  0  0  0  0  0  0  0  0  0
   10.5401  -17.2695   25.8315 C   0  0  1  0  0  0  0  0  0  0  0  0
   11.8620  -17.3279   25.1238 C   0  0  0  0  0  0  0  0  0  0  0  0
   12.6035  -18.5801   25.2475 C   0  0  0  0  0  0  0  0  0  0  0  0
   12.0088  -19.6292   24.8106 O   0  0  0  0  0  0  0  0  0  0  0  0
   10.5714  -17.6842   27.2399 C   0  0  0  0  0  0  0  0  0  0  0  0
   10.8262  -18.8626   27.5566 O   0  0  0  0  0  0  0  0  0  0  0  0
   13.8473  -18.7841   25.7688 O   0  0  0  0  0  0  0  0  0  0  0  0
   10.3199  -16.7867   28.2735 O   0  0  0  0  0  0  0  0  0  0  0  0
  2  7  1  0
  2  1  1  6
  3  2  1  0
  4  3  1  0
  5  4  1  0
  6  5  2  0
  7  8  2  0
  9  5  1  0
 10  7  1  0
 10 14  1  0
 11 10  1  0
 12 11  1  0
 12 13  1  0
 13 14  1  0
 14 15  1  1
 15 17  1  0
 16 15  2  0
 18 17  1  0
 18 19  1  1
 19 20  1  0
 20 24  1  0
 20 21  2  0
 22 18  1  0
 23 22  2  0
 25 22  1  0
M  END
$$$$
