EPD.pdb
     RDKit          3D

 25 25  0  0  1  0  0  0  0  0999 V2000
    8.1327  -14.9137   21.2374 N   0  0  0  0  0  0  0  0  0  0  0  0
    7.2712  -14.4649   22.3340 C   0  0  1  0  0  0  0  0  0  0  0  0
    6.3683  -15.6767   22.6360 C   0  0  0  0  0  0  0  0  0  0  0  0
    7.3050  -16.8639   22.7038 C   0  0  0  0  0  0  0  0  0  0  0  0
    6.6028  -18.1052   23.0977 C   0  0  0  0  0  0  0  0  0  0  0  0
    5.9643  -18.2020   24.1723 O   0  0  0  0  0  0  0  0  0  0  0  0
    8.1165  -14.1859   23.5030 C   0  0  0  0  0  0  0  0  0  0  0  0
    9.3743  -14.4201   23.3787 O   0  0  0  0  0  0  0  0  0  0  0  0
    6.6565  -19.1941   22.2453 O   0  0  0  0  0  0  0  0  0  0  0  0
    7.6270  -13.6813   24.7332 N   0  0  0  0  0  0  0  0  0  0  0  0
    6.2350  -13.4217   25.0425 C   0  0  0  0  0  0  0  0  0  0  0  0
    6.2330  -12.3645   26.1291 C   0  0  0  0  0  0  0  0  0  0  0  0
    7.6824  -12.1088   26.4188 C   0  0  0  0  0  0  0  0  0  0  0  0
    8.3898  -13.3386   25.8815 C   0  0  1  0  0  0  0  0  0  0  0  0
    8.3694  -14.4041   26.9279 C   0  0  0  0  0  0  0  0  0  0  0  0
    7.3953  -15.1663   27.1185 O   0  0  0  0  0  0  0  0  0  0  0  0
    9.5069  -14.5537   27.7372 N   0  0  0  0  0  0  0  0  0  0  0  0
   10.0544  -15.8667   28.1241 C   0  0  1  0  0  0  0  0  0  0  0  0
   11.1322  -16.1560   27.1209 C   0  0  0  0  0  0  0  0  0  0  0  0
   11.8858  -17.3905   27.3238 C   0  0  0  0  0  0  0  0  0  0  0  0
   11.5152  -18.1172   28.3136 O   0  0  0  0  0  0  0  0  0  0  0  0
   10.4999  -15.8395   29.5232 C   0  0  0  0  0  0  0  0  0  0  0  0
   10.7465  -16.8948   30.1390 O   0  0  0  0  0  0  0  0  0  0  0  0
   12.9355  -17.8749   26.6001 O   0  0  0  0  0  0  0  0  0  0  0  0
   10.6647  -14.6438   30.2163 O   0  0  0  0  0  0  0  0  0  0  0  0
  2  7  1  0
  2  1  1  6
  3  2  1  0
  4  3  1  0
  5  4  1  0
  6  5  2  0
  7  8  2  0
  9  5  1  0
 10  7  1  0
 10 14  1  0
 11 10  1  0
 12 11  1  0
 12 13  1  0
 13 14  1  0
 14 15  1  1
 15 17  1  0
 16 15  2  0
 18 17  1  0
 18 19  1  6
 19 20  1  0
 20 24  1  0
 20 21  2  0
 22 18  1  0
 23 22  2  0
 25 22  1  0
M  END
$$$$
