EPD.pdb
     RDKit          3D

 25 25  0  0  1  0  0  0  0  0999 V2000
    9.6640  -15.1772   14.8466 N   0  0  0  0  0  0  0  0  0  0  0  0
    8.7808  -15.3596   16.0010 C   0  0  1  0  0  0  0  0  0  0  0  0
    8.5900  -16.8854   16.1036 C   0  0  0  0  0  0  0  0  0  0  0  0
    7.9087  -17.2888   14.8134 C   0  0  0  0  0  0  0  0  0  0  0  0
    7.7461  -18.7554   14.7048 C   0  0  0  0  0  0  0  0  0  0  0  0
    6.7558  -19.3573   15.1832 O   0  0  0  0  0  0  0  0  0  0  0  0
    9.4792  -14.8759   17.1999 C   0  0  0  0  0  0  0  0  0  0  0  0
   10.7629  -14.8350   17.1467 O   0  0  0  0  0  0  0  0  0  0  0  0
    8.7252  -19.4825   14.0507 O   0  0  0  0  0  0  0  0  0  0  0  0
    8.8242  -14.4597   18.3854 N   0  0  0  0  0  0  0  0  0  0  0  0
    7.3905  -14.4551   18.5979 C   0  0  0  0  0  0  0  0  0  0  0  0
    7.1237  -13.4080   19.6613 C   0  0  0  0  0  0  0  0  0  0  0  0
    8.4800  -12.8912   20.0401 C   0  0  0  0  0  0  0  0  0  0  0  0
    9.4328  -13.9759   19.5742 C   0  0  1  0  0  0  0  0  0  0  0  0
    9.5345  -15.0198   20.6375 C   0  0  0  0  0  0  0  0  0  0  0  0
    8.6567  -15.8890   20.8381 O   0  0  0  0  0  0  0  0  0  0  0  0
   10.6782  -15.0207   21.4518 N   0  0  0  0  0  0  0  0  0  0  0  0
   10.9490  -16.0609   22.4608 C   0  0  1  0  0  0  0  0  0  0  0  0
   12.3767  -15.8500   22.8717 C   0  0  0  0  0  0  0  0  0  0  0  0
   13.3833  -16.0667   21.8358 C   0  0  0  0  0  0  0  0  0  0  0  0
   14.5611  -15.6325   22.0991 O   0  0  0  0  0  0  0  0  0  0  0  0
    9.9702  -15.9773   23.5524 C   0  0  0  0  0  0  0  0  0  0  0  0
    9.7968  -16.9330   24.3337 O   0  0  0  0  0  0  0  0  0  0  0  0
   13.2375  -16.6696   20.6211 O   0  0  0  0  0  0  0  0  0  0  0  0
    9.2004  -14.8365   23.7602 O   0  0  0  0  0  0  0  0  0  0  0  0
  2  7  1  0
  2  1  1  6
  3  2  1  0
  4  3  1  0
  5  4  1  0
  6  5  2  0
  7  8  2  0
  9  5  1  0
 10  7  1  0
 10 14  1  0
 11 10  1  0
 12 11  1  0
 12 13  1  0
 13 14  1  0
 14 15  1  1
 15 17  1  0
 16 15  2  0
 18 17  1  0
 18 19  1  1
 19 20  1  0
 20 24  1  0
 20 21  2  0
 22 18  1  0
 23 22  2  0
 25 22  1  0
M  END
$$$$
