EPD.pdb
     RDKit          3D

 25 25  0  0  1  0  0  0  0  0999 V2000
    8.6529  -14.3609   14.6150 N   0  0  0  0  0  0  0  0  0  0  0  0
    8.3243  -15.2028   15.7679 C   0  0  1  0  0  0  0  0  0  0  0  0
    8.7669  -16.6187   15.3505 C   0  0  0  0  0  0  0  0  0  0  0  0
    8.4292  -17.5051   16.5302 C   0  0  0  0  0  0  0  0  0  0  0  0
    8.7856  -18.9197   16.2834 C   0  0  0  0  0  0  0  0  0  0  0  0
    8.0806  -19.6744   15.5727 O   0  0  0  0  0  0  0  0  0  0  0  0
    9.1330  -14.7587   16.9116 C   0  0  0  0  0  0  0  0  0  0  0  0
   10.3953  -14.6217   16.7111 O   0  0  0  0  0  0  0  0  0  0  0  0
    9.9391  -19.4213   16.8604 O   0  0  0  0  0  0  0  0  0  0  0  0
    8.6039  -14.4782   18.1957 N   0  0  0  0  0  0  0  0  0  0  0  0
    7.2153  -14.6243   18.5844 C   0  0  0  0  0  0  0  0  0  0  0  0
    6.9981  -13.6724   19.7441 C   0  0  0  0  0  0  0  0  0  0  0  0
    8.3414  -13.0506   19.9874 C   0  0  0  0  0  0  0  0  0  0  0  0
    9.3171  -14.0092   19.3311 C   0  0  1  0  0  0  0  0  0  0  0  0
    9.6478  -15.0993   20.2968 C   0  0  0  0  0  0  0  0  0  0  0  0
    9.0099  -16.1735   20.3706 O   0  0  0  0  0  0  0  0  0  0  0  0
   10.7333  -14.9025   21.1652 N   0  0  0  0  0  0  0  0  0  0  0  0
   11.3618  -15.9944   21.9309 C   0  0  1  0  0  0  0  0  0  0  0  0
   12.8238  -15.6586   21.9696 C   0  0  0  0  0  0  0  0  0  0  0  0
   13.6730  -16.5683   22.7340 C   0  0  0  0  0  0  0  0  0  0  0  0
   13.3527  -17.8093   22.6842 O   0  0  0  0  0  0  0  0  0  0  0  0
   10.7208  -16.1279   23.2454 C   0  0  0  0  0  0  0  0  0  0  0  0
   10.0251  -15.2074   23.7169 O   0  0  0  0  0  0  0  0  0  0  0  0
   14.7641  -16.2736   23.4977 O   0  0  0  0  0  0  0  0  0  0  0  0
   10.8613  -17.2789   24.0152 O   0  0  0  0  0  0  0  0  0  0  0  0
  2  7  1  0
  2  1  1  6
  3  2  1  0
  4  3  1  0
  5  4  1  0
  6  5  2  0
  7  8  2  0
  9  5  1  0
 10  7  1  0
 10 14  1  0
 11 10  1  0
 12 11  1  0
 12 13  1  0
 13 14  1  0
 14 15  1  1
 15 17  1  0
 16 15  2  0
 18 17  1  0
 18 19  1  1
 19 20  1  0
 20 24  1  0
 20 21  2  0
 22 18  1  0
 23 22  2  0
 25 22  1  0
M  END
$$$$
