EPD.pdb
     RDKit          3D

 25 25  0  0  1  0  0  0  0  0999 V2000
    7.8259  -13.8456   21.0550 N   0  0  0  0  0  0  0  0  0  0  0  0
    7.1378  -13.9218   22.3459 C   0  0  1  0  0  0  0  0  0  0  0  0
    6.4811  -15.3159   22.3516 C   0  0  0  0  0  0  0  0  0  0  0  0
    7.5294  -16.2519   21.7890 C   0  0  0  0  0  0  0  0  0  0  0  0
    7.0613  -17.6549   21.7532 C   0  0  0  0  0  0  0  0  0  0  0  0
    7.8414  -18.6172   21.5600 O   0  0  0  0  0  0  0  0  0  0  0  0
    8.1457  -13.8556   23.4130 C   0  0  0  0  0  0  0  0  0  0  0  0
    9.3742  -13.9914   23.0599 O   0  0  0  0  0  0  0  0  0  0  0  0
    5.7136  -17.9072   21.9405 O   0  0  0  0  0  0  0  0  0  0  0  0
    7.8397  -13.6522   24.7814 N   0  0  0  0  0  0  0  0  0  0  0  0
    6.5071  -13.6207   25.3504 C   0  0  0  0  0  0  0  0  0  0  0  0
    6.6074  -12.7945   26.6175 C   0  0  0  0  0  0  0  0  0  0  0  0
    8.0584  -12.4294   26.7241 C   0  0  0  0  0  0  0  0  0  0  0  0
    8.7611  -13.4445   25.8424 C   0  0  1  0  0  0  0  0  0  0  0  0
    9.0150  -14.6826   26.6381 C   0  0  0  0  0  0  0  0  0  0  0  0
    8.1177  -15.4944   26.9575 O   0  0  0  0  0  0  0  0  0  0  0  0
   10.3327  -14.9441   27.0463 N   0  0  0  0  0  0  0  0  0  0  0  0
   10.7482  -16.2166   27.6639 C   0  0  1  0  0  0  0  0  0  0  0  0
   12.1349  -16.4706   27.1500 C   0  0  0  0  0  0  0  0  0  0  0  0
   12.2514  -16.7425   25.7198 C   0  0  0  0  0  0  0  0  0  0  0  0
   11.2261  -17.2781   25.1656 O   0  0  0  0  0  0  0  0  0  0  0  0
   10.6336  -16.1335   29.1256 C   0  0  0  0  0  0  0  0  0  0  0  0
   10.4811  -15.0358   29.6962 O   0  0  0  0  0  0  0  0  0  0  0  0
   13.3088  -16.5038   24.8920 O   0  0  0  0  0  0  0  0  0  0  0  0
   10.6899  -17.2677   29.9304 O   0  0  0  0  0  0  0  0  0  0  0  0
  2  7  1  0
  2  1  1  6
  3  2  1  0
  4  3  1  0
  5  4  1  0
  6  5  2  0
  7  8  2  0
  9  5  1  0
 10  7  1  0
 10 14  1  0
 11 10  1  0
 12 11  1  0
 12 13  1  0
 13 14  1  0
 14 15  1  1
 15 17  1  0
 16 15  2  0
 18 17  1  0
 18 19  1  1
 19 20  1  0
 20 24  1  0
 20 21  2  0
 22 18  1  0
 23 22  2  0
 25 22  1  0
M  END
$$$$
