EPD.pdb
     RDKit          3D

 25 25  0  0  1  0  0  0  0  0999 V2000
    7.9862  -14.1112   21.0094 N   0  0  0  0  0  0  0  0  0  0  0  0
    7.1743  -14.0764   22.2282 C   0  0  1  0  0  0  0  0  0  0  0  0
    6.4986  -15.4604   22.2816 C   0  0  0  0  0  0  0  0  0  0  0  0
    7.6336  -16.4600   22.2174 C   0  0  0  0  0  0  0  0  0  0  0  0
    7.2694  -17.6668   21.4429 C   0  0  0  0  0  0  0  0  0  0  0  0
    6.1987  -17.7503   20.7960 O   0  0  0  0  0  0  0  0  0  0  0  0
    8.0741  -13.9306   23.3806 C   0  0  0  0  0  0  0  0  0  0  0  0
    9.3294  -14.1001   23.1615 O   0  0  0  0  0  0  0  0  0  0  0  0
    8.1459  -18.7378   21.4364 O   0  0  0  0  0  0  0  0  0  0  0  0
    7.6388  -13.6180   24.6922 N   0  0  0  0  0  0  0  0  0  0  0  0
    6.2574  -13.5147   25.1185 C   0  0  0  0  0  0  0  0  0  0  0  0
    6.2544  -12.5975   26.3255 C   0  0  0  0  0  0  0  0  0  0  0  0
    7.6976  -12.2570   26.5527 C   0  0  0  0  0  0  0  0  0  0  0  0
    8.4550  -13.3508   25.8237 C   0  0  1  0  0  0  0  0  0  0  0  0
    8.5917  -14.5306   26.7293 C   0  0  0  0  0  0  0  0  0  0  0  0
    7.6362  -15.2766   27.0404 O   0  0  0  0  0  0  0  0  0  0  0  0
    9.8623  -14.8124   27.2559 N   0  0  0  0  0  0  0  0  0  0  0  0
   10.1868  -16.0728   27.9483 C   0  0  1  0  0  0  0  0  0  0  0  0
   11.3233  -16.6689   27.1707 C   0  0  0  0  0  0  0  0  0  0  0  0
   11.8923  -17.9028   27.7063 C   0  0  0  0  0  0  0  0  0  0  0  0
   11.2607  -18.4307   28.6899 O   0  0  0  0  0  0  0  0  0  0  0  0
   10.4723  -15.8154   29.3657 C   0  0  0  0  0  0  0  0  0  0  0  0
   10.6915  -16.7532   30.1570 O   0  0  0  0  0  0  0  0  0  0  0  0
   13.0102  -18.5704   27.3001 O   0  0  0  0  0  0  0  0  0  0  0  0
   10.5100  -14.5235   29.8823 O   0  0  0  0  0  0  0  0  0  0  0  0
  2  7  1  0
  2  1  1  6
  3  2  1  0
  4  3  1  0
  5  4  1  0
  6  5  2  0
  7  8  2  0
  9  5  1  0
 10  7  1  0
 10 14  1  0
 11 10  1  0
 12 11  1  0
 12 13  1  0
 13 14  1  0
 14 15  1  1
 15 17  1  0
 16 15  2  0
 18 17  1  0
 18 19  1  6
 19 20  1  0
 20 24  1  0
 20 21  2  0
 22 18  1  0
 23 22  2  0
 25 22  1  0
M  END
$$$$
