EPD.pdb
     RDKit          3D

 25 25  0  0  1  0  0  0  0  0999 V2000
    8.7865  -16.6093   16.6653 N   0  0  0  0  0  0  0  0  0  0  0  0
    8.0137  -16.5080   17.9057 C   0  0  1  0  0  0  0  0  0  0  0  0
    7.7573  -17.9697   18.3210 C   0  0  0  0  0  0  0  0  0  0  0  0
    6.8765  -18.5442   17.2321 C   0  0  0  0  0  0  0  0  0  0  0  0
    6.6815  -20.0027   17.3856 C   0  0  0  0  0  0  0  0  0  0  0  0
    5.5432  -20.5274   17.4148 O   0  0  0  0  0  0  0  0  0  0  0  0
    8.8508  -15.8544   18.9212 C   0  0  0  0  0  0  0  0  0  0  0  0
   10.1147  -15.8110   18.6908 O   0  0  0  0  0  0  0  0  0  0  0  0
    7.7991  -20.8108   17.5003 O   0  0  0  0  0  0  0  0  0  0  0  0
    8.3470  -15.2805   20.1146 N   0  0  0  0  0  0  0  0  0  0  0  0
    6.9502  -15.2240   20.4972 C   0  0  0  0  0  0  0  0  0  0  0  0
    6.8177  -14.0467   21.4430 C   0  0  0  0  0  0  0  0  0  0  0  0
    8.2112  -13.5099   21.5855 C   0  0  0  0  0  0  0  0  0  0  0  0
    9.0976  -14.6613   21.1494 C   0  0  1  0  0  0  0  0  0  0  0  0
    9.3269  -15.5643   22.3168 C   0  0  0  0  0  0  0  0  0  0  0  0
    8.4619  -16.3524   22.7605 O   0  0  0  0  0  0  0  0  0  0  0  0
   10.5817  -15.5221   22.9451 N   0  0  0  0  0  0  0  0  0  0  0  0
   10.9876  -16.4684   24.0002 C   0  0  1  0  0  0  0  0  0  0  0  0
   12.4635  -16.2588   24.1719 C   0  0  0  0  0  0  0  0  0  0  0  0
   13.2914  -16.5190   22.9972 C   0  0  0  0  0  0  0  0  0  0  0  0
   12.9198  -17.4967   22.2548 O   0  0  0  0  0  0  0  0  0  0  0  0
   10.1853  -16.2540   25.2114 C   0  0  0  0  0  0  0  0  0  0  0  0
   10.0992  -17.1354   26.0887 O   0  0  0  0  0  0  0  0  0  0  0  0
   14.4117  -15.8602   22.5834 O   0  0  0  0  0  0  0  0  0  0  0  0
    9.4921  -15.0671   25.4303 O   0  0  0  0  0  0  0  0  0  0  0  0
  2  7  1  0
  2  1  1  6
  3  2  1  0
  4  3  1  0
  5  4  1  0
  6  5  2  0
  7  8  2  0
  9  5  1  0
 10  7  1  0
 10 14  1  0
 11 10  1  0
 12 11  1  0
 12 13  1  0
 13 14  1  0
 14 15  1  1
 15 17  1  0
 16 15  2  0
 18 17  1  0
 18 19  1  1
 19 20  1  0
 20 24  1  0
 20 21  2  0
 22 18  1  0
 23 22  2  0
 25 22  1  0
M  END
$$$$
