EPD.pdb
     RDKit          3D

 25 25  0  0  1  0  0  0  0  0999 V2000
    8.5785  -14.9705   14.1429 N   0  0  0  0  0  0  0  0  0  0  0  0
    8.1660  -15.2677   15.5168 C   0  0  1  0  0  0  0  0  0  0  0  0
    8.3065  -16.7975   15.6395 C   0  0  0  0  0  0  0  0  0  0  0  0
    7.3272  -17.3688   14.6365 C   0  0  0  0  0  0  0  0  0  0  0  0
    7.3221  -18.8483   14.6441 C   0  0  0  0  0  0  0  0  0  0  0  0
    7.8858  -19.5159   15.5431 O   0  0  0  0  0  0  0  0  0  0  0  0
    9.1112  -14.6181   16.4353 C   0  0  0  0  0  0  0  0  0  0  0  0
   10.2917  -14.3845   15.9833 O   0  0  0  0  0  0  0  0  0  0  0  0
    6.6701  -19.5125   13.6199 O   0  0  0  0  0  0  0  0  0  0  0  0
    8.7945  -14.2426   17.7643 N   0  0  0  0  0  0  0  0  0  0  0  0
    7.5018  -14.4043   18.3994 C   0  0  0  0  0  0  0  0  0  0  0  0
    7.4358  -13.3603   19.4967 C   0  0  0  0  0  0  0  0  0  0  0  0
    8.7666  -12.6697   19.4502 C   0  0  0  0  0  0  0  0  0  0  0  0
    9.6651  -13.6467   18.7155 C   0  0  1  0  0  0  0  0  0  0  0  0
   10.2116  -14.6322   19.6957 C   0  0  0  0  0  0  0  0  0  0  0  0
    9.5984  -15.6627   20.0537 O   0  0  0  0  0  0  0  0  0  0  0  0
   11.4815  -14.3836   20.2405 N   0  0  0  0  0  0  0  0  0  0  0  0
   12.2224  -15.3734   21.0435 C   0  0  1  0  0  0  0  0  0  0  0  0
   13.5954  -14.7931   21.2164 C   0  0  0  0  0  0  0  0  0  0  0  0
   14.3857  -14.6356   19.9984 C   0  0  0  0  0  0  0  0  0  0  0  0
   14.0515  -15.3850   19.0125 O   0  0  0  0  0  0  0  0  0  0  0  0
   11.5049  -15.6533   22.2939 C   0  0  0  0  0  0  0  0  0  0  0  0
   10.5586  -14.9324   22.6661 O   0  0  0  0  0  0  0  0  0  0  0  0
   15.4361  -13.7965   19.7686 O   0  0  0  0  0  0  0  0  0  0  0  0
   11.8478  -16.7268   23.1105 O   0  0  0  0  0  0  0  0  0  0  0  0
  2  7  1  0
  2  1  1  6
  3  2  1  0
  4  3  1  0
  5  4  1  0
  6  5  2  0
  7  8  2  0
  9  5  1  0
 10  7  1  0
 10 14  1  0
 11 10  1  0
 12 11  1  0
 12 13  1  0
 13 14  1  0
 14 15  1  1
 15 17  1  0
 16 15  2  0
 18 17  1  0
 18 19  1  1
 19 20  1  0
 20 24  1  0
 20 21  2  0
 22 18  1  0
 23 22  2  0
 25 22  1  0
M  END
$$$$
