TWD.pdb
     RDKit          3D

 30 31  0  0  1  0  0  0  0  0999 V2000
    6.6006  -16.2874   18.7336 C   0  0  0  0  0  0  0  0  0  0  0  0
    7.5659  -16.2873   19.8872 C   0  0  1  0  0  0  0  0  0  0  0  0
    8.8380  -16.4858   19.4223 O   0  0  0  0  0  0  0  0  0  0  0  0
    7.4228  -15.0580   20.7646 C   0  0  2  0  0  0  0  0  0  0  0  0
    7.5729  -13.8543   19.9697 N   0  0  0  0  0  0  0  0  0  0  0  0
    8.3613  -15.1114   21.9188 C   0  0  0  0  0  0  0  0  0  0  0  0
    9.3884  -14.3766   21.8097 O   0  0  0  0  0  0  0  0  0  0  0  0
    8.1684  -15.9021   23.0723 N   0  0  0  0  0  0  0  0  0  0  0  0
    9.1284  -15.8624   24.1505 C   0  0  1  0  0  0  0  0  0  0  0  0
    8.4883  -15.8411   25.4915 C   0  0  0  0  0  0  0  0  0  0  0  0
    7.4158  -14.8515   25.7056 C   0  0  0  0  0  0  0  0  0  0  0  0
    6.0395  -15.1613   25.6809 C   0  0  0  0  0  0  0  0  0  0  0  0
    5.3487  -14.0623   25.9596 N   0  0  0  0  0  0  0  0  0  0  0  0
    6.1550  -13.0136   26.1742 C   0  0  0  0  0  0  0  0  0  0  0  0
    5.8745  -11.7007   26.4706 C   0  0  0  0  0  0  0  0  0  0  0  0
    6.9577  -10.8396   26.6107 C   0  0  0  0  0  0  0  0  0  0  0  0
    8.2655  -11.3107   26.4528 C   0  0  0  0  0  0  0  0  0  0  0  0
    8.4991  -12.6325   26.1576 C   0  0  0  0  0  0  0  0  0  0  0  0
    7.4462  -13.5139   26.0131 C   0  0  0  0  0  0  0  0  0  0  0  0
   10.2450  -16.7656   24.0327 C   0  0  0  0  0  0  0  0  0  0  0  0
   10.0451  -17.9627   23.7088 O   0  0  0  0  0  0  0  0  0  0  0  0
   11.6090  -16.4118   24.2637 N   0  0  0  0  0  0  0  0  0  0  0  0
   12.6590  -17.4059   24.3464 C   0  0  1  0  0  0  0  0  0  0  0  0
   14.0277  -16.8253   24.3644 C   0  0  0  0  0  0  0  0  0  0  0  0
   14.2867  -16.0290   23.1529 C   0  0  0  0  0  0  0  0  0  0  0  0
   13.8927  -16.4561   22.0504 O   0  0  0  0  0  0  0  0  0  0  0  0
   12.4525  -18.2119   25.6329 C   0  0  0  0  0  0  0  0  0  0  0  0
   12.0264  -17.5896   26.7912 O   0  0  0  0  0  0  0  0  0  0  0  0
   14.9545  -14.8145   23.1857 O   0  0  0  0  0  0  0  0  0  0  0  0
   12.6672  -19.4438   25.6504 O   0  0  0  0  0  0  0  0  0  0  0  0
  2  1  1  6
  2  3  1  0
  4  2  1  0
  4  5  1  6
  6  7  2  0
  6  4  1  0
  8  6  1  0
  9  8  1  0
  9 10  1  1
 10 11  1  0
 11 12  2  0
 11 19  1  0
 12 13  1  0
 13 14  1  0
 14 15  2  0
 15 16  1  0
 17 16  2  0
 18 17  1  0
 19 18  2  0
 19 14  1  0
 20 21  2  0
 20  9  1  0
 22 20  1  0
 23 24  1  1
 23 22  1  0
 25 29  1  0
 25 24  1  0
 26 25  2  0
 27 23  1  0
 28 27  1  0
 30 27  2  0
M  END
$$$$
