TWD.pdb
     RDKit          3D

 30 31  0  0  1  0  0  0  0  0999 V2000
    7.0187  -15.0323   18.0002 C   0  0  0  0  0  0  0  0  0  0  0  0
    7.8514  -15.2147   19.2395 C   0  0  1  0  0  0  0  0  0  0  0  0
    9.1716  -15.3238   18.8945 O   0  0  0  0  0  0  0  0  0  0  0  0
    7.5806  -14.1480   20.2837 C   0  0  2  0  0  0  0  0  0  0  0  0
    7.8222  -12.8301   19.7285 N   0  0  0  0  0  0  0  0  0  0  0  0
    8.3586  -14.4051   21.5264 C   0  0  0  0  0  0  0  0  0  0  0  0
    9.3907  -13.6839   21.6723 O   0  0  0  0  0  0  0  0  0  0  0  0
    8.0154  -15.3661   22.5019 N   0  0  0  0  0  0  0  0  0  0  0  0
    8.8735  -15.5830   23.6432 C   0  0  1  0  0  0  0  0  0  0  0  0
    8.1144  -15.8543   24.8916 C   0  0  0  0  0  0  0  0  0  0  0  0
    7.1631  -14.8181   25.3351 C   0  0  0  0  0  0  0  0  0  0  0  0
    5.7729  -15.0244   25.4606 C   0  0  0  0  0  0  0  0  0  0  0  0
    5.2163  -13.9137   25.9286 N   0  0  0  0  0  0  0  0  0  0  0  0
    6.1280  -12.9533   26.1340 C   0  0  0  0  0  0  0  0  0  0  0  0
    5.9973  -11.6615   26.5862 C   0  0  0  0  0  0  0  0  0  0  0  0
    7.1580  -10.8993   26.6645 C   0  0  0  0  0  0  0  0  0  0  0  0
    8.3924  -11.4438   26.2946 C   0  0  0  0  0  0  0  0  0  0  0  0
    8.4763  -12.7412   25.8488 C   0  0  0  0  0  0  0  0  0  0  0  0
    7.3432  -13.5252   25.7602 C   0  0  0  0  0  0  0  0  0  0  0  0
   10.0020  -16.4522   23.4260 C   0  0  0  0  0  0  0  0  0  0  0  0
    9.8528  -17.5133   22.7705 O   0  0  0  0  0  0  0  0  0  0  0  0
   11.3235  -16.2106   23.9102 N   0  0  0  0  0  0  0  0  0  0  0  0
   12.3516  -17.2304   23.8843 C   0  0  1  0  0  0  0  0  0  0  0  0
   13.7335  -16.6831   23.9205 C   0  0  0  0  0  0  0  0  0  0  0  0
   14.0786  -16.0178   22.6528 C   0  0  0  0  0  0  0  0  0  0  0  0
   13.3884  -16.2460   21.6404 O   0  0  0  0  0  0  0  0  0  0  0  0
   12.1530  -18.1389   25.1019 C   0  0  0  0  0  0  0  0  0  0  0  0
   11.1678  -17.8629   26.0312 O   0  0  0  0  0  0  0  0  0  0  0  0
   15.1460  -15.1411   22.5354 O   0  0  0  0  0  0  0  0  0  0  0  0
   12.8808  -19.1420   25.2697 O   0  0  0  0  0  0  0  0  0  0  0  0
  2  1  1  6
  2  3  1  0
  4  2  1  0
  4  5  1  6
  6  7  2  0
  6  4  1  0
  8  6  1  0
  9  8  1  0
  9 10  1  1
 10 11  1  0
 11 12  2  0
 11 19  1  0
 12 13  1  0
 13 14  1  0
 14 15  2  0
 15 16  1  0
 17 16  2  0
 18 17  1  0
 19 18  2  0
 19 14  1  0
 20 21  2  0
 20  9  1  0
 22 20  1  0
 23 24  1  1
 23 22  1  0
 25 29  1  0
 25 24  1  0
 26 25  2  0
 27 23  1  0
 28 27  1  0
 30 27  2  0
M  END
$$$$
