TWD.pdb
     RDKit          3D

 30 31  0  0  1  0  0  0  0  0999 V2000
    6.9590  -15.2473   18.0614 C   0  0  0  0  0  0  0  0  0  0  0  0
    7.8329  -15.3508   19.2813 C   0  0  1  0  0  0  0  0  0  0  0  0
    9.1410  -15.4829   18.9001 O   0  0  0  0  0  0  0  0  0  0  0  0
    7.5958  -14.2192   20.2636 C   0  0  2  0  0  0  0  0  0  0  0  0
    7.8352  -12.9404   19.6227 N   0  0  0  0  0  0  0  0  0  0  0  0
    8.4009  -14.4070   21.5015 C   0  0  0  0  0  0  0  0  0  0  0  0
    9.4240  -13.6645   21.5941 O   0  0  0  0  0  0  0  0  0  0  0  0
    8.0911  -15.3270   22.5266 N   0  0  0  0  0  0  0  0  0  0  0  0
    8.9722  -15.4758   23.6613 C   0  0  1  0  0  0  0  0  0  0  0  0
    8.2458  -15.8024   24.9159 C   0  0  0  0  0  0  0  0  0  0  0  0
    7.2015  -14.8558   25.3505 C   0  0  0  0  0  0  0  0  0  0  0  0
    5.8315  -15.1803   25.4442 C   0  0  0  0  0  0  0  0  0  0  0  0
    5.1735  -14.1265   25.9124 N   0  0  0  0  0  0  0  0  0  0  0  0
    5.9964  -13.0953   26.1475 C   0  0  0  0  0  0  0  0  0  0  0  0
    5.7476  -11.8250   26.6109 C   0  0  0  0  0  0  0  0  0  0  0  0
    6.8379  -10.9686   26.7221 C   0  0  0  0  0  0  0  0  0  0  0  0
    8.1211  -11.4022   26.3724 C   0  0  0  0  0  0  0  0  0  0  0  0
    8.3235  -12.6822   25.9144 C   0  0  0  0  0  0  0  0  0  0  0  0
    7.2629  -13.5578   25.7933 C   0  0  0  0  0  0  0  0  0  0  0  0
   10.1622  -16.2566   23.4361 C   0  0  0  0  0  0  0  0  0  0  0  0
   10.0661  -17.4102   22.9485 O   0  0  0  0  0  0  0  0  0  0  0  0
   11.4904  -15.8240   23.7320 N   0  0  0  0  0  0  0  0  0  0  0  0
   12.6536  -16.6106   23.3769 C   0  0  1  0  0  0  0  0  0  0  0  0
   13.8188  -15.7908   22.9514 C   0  0  0  0  0  0  0  0  0  0  0  0
   14.9604  -16.6404   22.5723 C   0  0  0  0  0  0  0  0  0  0  0  0
   14.7593  -17.8387   22.2950 O   0  0  0  0  0  0  0  0  0  0  0  0
   13.0594  -17.4405   24.5991 C   0  0  0  0  0  0  0  0  0  0  0  0
   12.3300  -17.3687   25.7709 O   0  0  0  0  0  0  0  0  0  0  0  0
   16.2599  -16.1614   22.5094 O   0  0  0  0  0  0  0  0  0  0  0  0
   14.0567  -18.1936   24.5511 O   0  0  0  0  0  0  0  0  0  0  0  0
  2  1  1  6
  2  3  1  0
  4  2  1  0
  4  5  1  6
  6  7  2  0
  6  4  1  0
  8  6  1  0
  9  8  1  0
  9 10  1  1
 10 11  1  0
 11 12  2  0
 11 19  1  0
 12 13  1  0
 13 14  1  0
 14 15  2  0
 15 16  1  0
 17 16  2  0
 18 17  1  0
 19 18  2  0
 19 14  1  0
 20 21  2  0
 20  9  1  0
 22 20  1  0
 23 24  1  1
 23 22  1  0
 25 29  1  0
 25 24  1  0
 26 25  2  0
 27 23  1  0
 28 27  1  0
 30 27  2  0
M  END
$$$$
