TWD.pdb
     RDKit          3D

 30 31  0  0  1  0  0  0  0  0999 V2000
    6.7028  -15.1160   17.9953 C   0  0  0  0  0  0  0  0  0  0  0  0
    7.6025  -15.2582   19.1924 C   0  0  1  0  0  0  0  0  0  0  0  0
    8.9044  -15.3539   18.7805 O   0  0  0  0  0  0  0  0  0  0  0  0
    7.3689  -14.1733   20.2268 C   0  0  2  0  0  0  0  0  0  0  0  0
    7.5307  -12.8636   19.6252 N   0  0  0  0  0  0  0  0  0  0  0  0
    8.2366  -14.3747   21.4195 C   0  0  0  0  0  0  0  0  0  0  0  0
    9.2253  -13.5860   21.5031 O   0  0  0  0  0  0  0  0  0  0  0  0
    8.0181  -15.3537   22.4129 N   0  0  0  0  0  0  0  0  0  0  0  0
    8.9447  -15.4946   23.5117 C   0  0  1  0  0  0  0  0  0  0  0  0
    8.2764  -15.8724   24.7842 C   0  0  0  0  0  0  0  0  0  0  0  0
    7.2546  -14.9447   25.3045 C   0  0  0  0  0  0  0  0  0  0  0  0
    5.8920  -15.2773   25.4590 C   0  0  0  0  0  0  0  0  0  0  0  0
    5.2575  -14.2422   25.9963 N   0  0  0  0  0  0  0  0  0  0  0  0
    6.0896  -13.2164   26.2225 C   0  0  0  0  0  0  0  0  0  0  0  0
    5.8631  -11.9632   26.7407 C   0  0  0  0  0  0  0  0  0  0  0  0
    6.9561  -11.1069   26.8232 C   0  0  0  0  0  0  0  0  0  0  0  0
    8.2200  -11.5239   26.3923 C   0  0  0  0  0  0  0  0  0  0  0  0
    8.4005  -12.7870   25.8815 C   0  0  0  0  0  0  0  0  0  0  0  0
    7.3367  -13.6621   25.7869 C   0  0  0  0  0  0  0  0  0  0  0  0
   10.1519  -16.2281   23.2271 C   0  0  0  0  0  0  0  0  0  0  0  0
   10.1021  -17.2478   22.4952 O   0  0  0  0  0  0  0  0  0  0  0  0
   11.4478  -15.8916   23.7235 N   0  0  0  0  0  0  0  0  0  0  0  0
   12.6016  -16.7383   23.5007 C   0  0  1  0  0  0  0  0  0  0  0  0
   13.8679  -15.9816   23.3156 C   0  0  0  0  0  0  0  0  0  0  0  0
   15.0237  -16.8890   23.2184 C   0  0  0  0  0  0  0  0  0  0  0  0
   15.0014  -17.8125   22.3818 O   0  0  0  0  0  0  0  0  0  0  0  0
   12.7564  -17.6621   24.7132 C   0  0  0  0  0  0  0  0  0  0  0  0
   13.5598  -18.7845   24.6433 O   0  0  0  0  0  0  0  0  0  0  0  0
   16.1452  -16.7593   24.0230 O   0  0  0  0  0  0  0  0  0  0  0  0
   12.1569  -17.4112   25.7818 O   0  0  0  0  0  0  0  0  0  0  0  0
  2  1  1  6
  2  3  1  0
  4  2  1  0
  4  5  1  6
  6  7  2  0
  6  4  1  0
  8  6  1  0
  9  8  1  0
  9 10  1  1
 10 11  1  0
 11 12  2  0
 11 19  1  0
 12 13  1  0
 13 14  1  0
 14 15  2  0
 15 16  1  0
 17 16  2  0
 18 17  1  0
 19 18  2  0
 19 14  1  0
 20 21  2  0
 20  9  1  0
 22 20  1  0
 23 24  1  1
 23 22  1  0
 25 29  1  0
 25 24  1  0
 26 25  2  0
 27 23  1  0
 28 27  1  0
 30 27  2  0
M  END
$$$$
