TWD.pdb
     RDKit          3D

 30 31  0  0  1  0  0  0  0  0999 V2000
    7.1638  -15.1536   17.9926 C   0  0  0  0  0  0  0  0  0  0  0  0
    7.9173  -15.2644   19.2897 C   0  0  1  0  0  0  0  0  0  0  0  0
    9.2588  -15.3623   19.0354 O   0  0  0  0  0  0  0  0  0  0  0  0
    7.5612  -14.1582   20.2649 C   0  0  2  0  0  0  0  0  0  0  0  0
    7.7623  -12.8614   19.6474 N   0  0  0  0  0  0  0  0  0  0  0  0
    8.3051  -14.3125   21.5450 C   0  0  0  0  0  0  0  0  0  0  0  0
    9.2749  -13.5115   21.7019 O   0  0  0  0  0  0  0  0  0  0  0  0
    7.9941  -15.2614   22.5429 N   0  0  0  0  0  0  0  0  0  0  0  0
    8.8924  -15.4692   23.6546 C   0  0  1  0  0  0  0  0  0  0  0  0
    8.1821  -15.8242   24.9107 C   0  0  0  0  0  0  0  0  0  0  0  0
    7.1695  -14.8698   25.3997 C   0  0  0  0  0  0  0  0  0  0  0  0
    5.7884  -15.1508   25.4691 C   0  0  0  0  0  0  0  0  0  0  0  0
    5.1655  -14.1052   25.9994 N   0  0  0  0  0  0  0  0  0  0  0  0
    6.0228  -13.1201   26.3002 C   0  0  0  0  0  0  0  0  0  0  0  0
    5.8164  -11.8728   26.8403 C   0  0  0  0  0  0  0  0  0  0  0  0
    6.9355  -11.0639   27.0074 C   0  0  0  0  0  0  0  0  0  0  0  0
    8.2045  -11.5203   26.6355 C   0  0  0  0  0  0  0  0  0  0  0  0
    8.3642  -12.7761   26.1000 C   0  0  0  0  0  0  0  0  0  0  0  0
    7.2741  -13.6045   25.9220 C   0  0  0  0  0  0  0  0  0  0  0  0
   10.0604  -16.2669   23.3795 C   0  0  0  0  0  0  0  0  0  0  0  0
    9.9857  -17.2181   22.5624 O   0  0  0  0  0  0  0  0  0  0  0  0
   11.3424  -16.0703   23.9769 N   0  0  0  0  0  0  0  0  0  0  0  0
   12.4996  -16.8513   23.5915 C   0  0  1  0  0  0  0  0  0  0  0  0
   13.6868  -16.0253   23.2467 C   0  0  0  0  0  0  0  0  0  0  0  0
   14.8399  -16.8691   22.8901 C   0  0  0  0  0  0  0  0  0  0  0  0
   14.6776  -17.8128   22.0924 O   0  0  0  0  0  0  0  0  0  0  0  0
   12.8659  -17.7704   24.7614 C   0  0  0  0  0  0  0  0  0  0  0  0
   13.8018  -18.7744   24.5997 O   0  0  0  0  0  0  0  0  0  0  0  0
   16.1089  -16.6573   23.4067 O   0  0  0  0  0  0  0  0  0  0  0  0
   12.3217  -17.6228   25.8777 O   0  0  0  0  0  0  0  0  0  0  0  0
  2  1  1  6
  2  3  1  0
  4  2  1  0
  4  5  1  6
  6  7  2  0
  6  4  1  0
  8  6  1  0
  9  8  1  0
  9 10  1  1
 10 11  1  0
 11 12  2  0
 11 19  1  0
 12 13  1  0
 13 14  1  0
 14 15  2  0
 15 16  1  0
 17 16  2  0
 18 17  1  0
 19 18  2  0
 19 14  1  0
 20 21  2  0
 20  9  1  0
 22 20  1  0
 23 24  1  1
 23 22  1  0
 25 29  1  0
 25 24  1  0
 26 25  2  0
 27 23  1  0
 28 27  1  0
 30 27  2  0
M  END
$$$$
