TWD.pdb
     RDKit          3D

 30 31  0  0  1  0  0  0  0  0999 V2000
    7.8735  -14.9891   16.5992 C   0  0  0  0  0  0  0  0  0  0  0  0
    8.2072  -15.0469   18.0648 C   0  0  1  0  0  0  0  0  0  0  0  0
    9.5382  -15.3248   18.2228 O   0  0  0  0  0  0  0  0  0  0  0  0
    7.7500  -13.8095   18.8141 C   0  0  2  0  0  0  0  0  0  0  0  0
    8.3194  -12.6195   18.2115 N   0  0  0  0  0  0  0  0  0  0  0  0
    8.0485  -13.9227   20.2680 C   0  0  0  0  0  0  0  0  0  0  0  0
    9.1355  -13.3846   20.6361 O   0  0  0  0  0  0  0  0  0  0  0  0
    7.2169  -14.5682   21.2086 N   0  0  0  0  0  0  0  0  0  0  0  0
    7.6544  -14.7316   22.5753 C   0  0  1  0  0  0  0  0  0  0  0  0
    6.5234  -14.8447   23.5327 C   0  0  0  0  0  0  0  0  0  0  0  0
    6.8371  -14.6684   24.9630 C   0  0  0  0  0  0  0  0  0  0  0  0
    7.3001  -15.7032   25.8030 C   0  0  0  0  0  0  0  0  0  0  0  0
    7.5341  -15.2020   27.0099 N   0  0  0  0  0  0  0  0  0  0  0  0
    7.2630  -13.8906   27.0608 C   0  0  0  0  0  0  0  0  0  0  0  0
    7.3426  -12.9883   28.0951 C   0  0  0  0  0  0  0  0  0  0  0  0
    6.9581  -11.6797   27.8227 C   0  0  0  0  0  0  0  0  0  0  0  0
    6.5138  -11.3205   26.5457 C   0  0  0  0  0  0  0  0  0  0  0  0
    6.4516  -12.2560   25.5407 C   0  0  0  0  0  0  0  0  0  0  0  0
    6.8270  -13.5634   25.7777 C   0  0  0  0  0  0  0  0  0  0  0  0
    8.7171  -15.6814   22.7867 C   0  0  0  0  0  0  0  0  0  0  0  0
    8.7701  -16.7219   22.0850 O   0  0  0  0  0  0  0  0  0  0  0  0
    9.7520  -15.5449   23.7611 N   0  0  0  0  0  0  0  0  0  0  0  0
   10.9105  -16.4140   23.7810 C   0  0  1  0  0  0  0  0  0  0  0  0
   12.1461  -15.7701   23.2622 C   0  0  0  0  0  0  0  0  0  0  0  0
   13.0121  -16.7468   22.5804 C   0  0  0  0  0  0  0  0  0  0  0  0
   12.5695  -17.8871   22.3411 O   0  0  0  0  0  0  0  0  0  0  0  0
   11.1561  -16.8481   25.2297 C   0  0  0  0  0  0  0  0  0  0  0  0
   11.8788  -17.9931   25.5071 O   0  0  0  0  0  0  0  0  0  0  0  0
   14.3088  -16.4507   22.1892 O   0  0  0  0  0  0  0  0  0  0  0  0
   10.7051  -16.1709   26.1794 O   0  0  0  0  0  0  0  0  0  0  0  0
  2  1  1  6
  2  3  1  0
  4  2  1  0
  4  5  1  6
  6  7  2  0
  6  4  1  0
  8  6  1  0
  9  8  1  0
  9 10  1  1
 10 11  1  0
 11 12  2  0
 11 19  1  0
 12 13  1  0
 13 14  1  0
 14 15  2  0
 15 16  1  0
 17 16  2  0
 18 17  1  0
 19 18  2  0
 19 14  1  0
 20 21  2  0
 20  9  1  0
 22 20  1  0
 23 24  1  1
 23 22  1  0
 25 29  1  0
 25 24  1  0
 26 25  2  0
 27 23  1  0
 28 27  1  0
 30 27  2  0
M  END
$$$$
