TWD.pdb
     RDKit          3D

 30 31  0  0  1  0  0  0  0  0999 V2000
    7.8578  -12.7748   20.3212 C   0  0  0  0  0  0  0  0  0  0  0  0
    7.3798  -13.9955   19.5838 C   0  0  1  0  0  0  0  0  0  0  0  0
    7.1099  -13.6700   18.2818 O   0  0  0  0  0  0  0  0  0  0  0  0
    8.3251  -15.1725   19.7341 C   0  0  2  0  0  0  0  0  0  0  0  0
    7.9305  -16.2492   18.8462 N   0  0  0  0  0  0  0  0  0  0  0  0
    8.4251  -15.6010   21.1562 C   0  0  0  0  0  0  0  0  0  0  0  0
    7.7183  -16.6070   21.4645 O   0  0  0  0  0  0  0  0  0  0  0  0
    9.2322  -14.9707   22.1279 N   0  0  0  0  0  0  0  0  0  0  0  0
    9.3571  -15.5388   23.4498 C   0  0  1  0  0  0  0  0  0  0  0  0
    8.0547  -15.9823   24.0117 C   0  0  0  0  0  0  0  0  0  0  0  0
    7.1993  -14.9450   24.6179 C   0  0  0  0  0  0  0  0  0  0  0  0
    5.7952  -14.9028   24.4847 C   0  0  0  0  0  0  0  0  0  0  0  0
    5.3293  -13.8791   25.1902 N   0  0  0  0  0  0  0  0  0  0  0  0
    6.3170  -13.2104   25.8011 C   0  0  0  0  0  0  0  0  0  0  0  0
    6.2943  -12.0951   26.6047 C   0  0  0  0  0  0  0  0  0  0  0  0
    7.5187  -11.6261   27.0689 C   0  0  0  0  0  0  0  0  0  0  0  0
    8.7074  -12.2765   26.7207 C   0  0  0  0  0  0  0  0  0  0  0  0
    8.6825  -13.3897   25.9151 C   0  0  0  0  0  0  0  0  0  0  0  0
    7.4838  -13.8817   25.4384 C   0  0  0  0  0  0  0  0  0  0  0  0
   10.4394  -16.4721   23.6342 C   0  0  0  0  0  0  0  0  0  0  0  0
   10.4329  -17.5629   23.0115 O   0  0  0  0  0  0  0  0  0  0  0  0
   11.5586  -16.2641   24.4963 N   0  0  0  0  0  0  0  0  0  0  0  0
   12.5835  -17.2701   24.6840 C   0  0  1  0  0  0  0  0  0  0  0  0
   13.9059  -16.7080   25.0658 C   0  0  0  0  0  0  0  0  0  0  0  0
   14.5139  -15.9655   23.9487 C   0  0  0  0  0  0  0  0  0  0  0  0
   13.9527  -15.9766   22.8360 O   0  0  0  0  0  0  0  0  0  0  0  0
   12.1192  -18.2234   25.7900 C   0  0  0  0  0  0  0  0  0  0  0  0
   12.8262  -19.3789   26.0641 O   0  0  0  0  0  0  0  0  0  0  0  0
   15.6928  -15.2482   24.0821 O   0  0  0  0  0  0  0  0  0  0  0  0
   11.0939  -17.9669   26.4587 O   0  0  0  0  0  0  0  0  0  0  0  0
  2  1  1  6
  2  3  1  0
  4  2  1  0
  4  5  1  6
  6  7  2  0
  6  4  1  0
  8  6  1  0
  9  8  1  0
  9 10  1  6
 10 11  1  0
 11 12  2  0
 11 19  1  0
 12 13  1  0
 13 14  1  0
 14 15  2  0
 15 16  1  0
 17 16  2  0
 18 17  1  0
 19 18  2  0
 19 14  1  0
 20 21  2  0
 20  9  1  0
 22 20  1  0
 23 24  1  1
 23 22  1  0
 25 29  1  0
 25 24  1  0
 26 25  2  0
 27 23  1  0
 28 27  1  0
 30 27  2  0
M  END
$$$$
