TWD.pdb
     RDKit          3D

 30 31  0  0  1  0  0  0  0  0999 V2000
    7.6409  -14.8837   16.3630 C   0  0  0  0  0  0  0  0  0  0  0  0
    8.0199  -15.0296   17.8113 C   0  0  1  0  0  0  0  0  0  0  0  0
    9.3303  -15.4137   17.9074 O   0  0  0  0  0  0  0  0  0  0  0  0
    7.6857  -13.7946   18.6266 C   0  0  2  0  0  0  0  0  0  0  0  0
    8.3386  -12.6291   18.0620 N   0  0  0  0  0  0  0  0  0  0  0  0
    8.0077  -13.9993   20.0655 C   0  0  0  0  0  0  0  0  0  0  0  0
    9.1420  -13.5656   20.4286 O   0  0  0  0  0  0  0  0  0  0  0  0
    7.1494  -14.6216   20.9978 N   0  0  0  0  0  0  0  0  0  0  0  0
    7.5596  -14.7765   22.3738 C   0  0  1  0  0  0  0  0  0  0  0  0
    6.4099  -14.8617   23.3117 C   0  0  0  0  0  0  0  0  0  0  0  0
    6.7113  -14.7541   24.7515 C   0  0  0  0  0  0  0  0  0  0  0  0
    6.9404  -15.8619   25.5949 C   0  0  0  0  0  0  0  0  0  0  0  0
    7.2331  -15.4194   26.8119 N   0  0  0  0  0  0  0  0  0  0  0  0
    7.2206  -14.0805   26.8666 C   0  0  0  0  0  0  0  0  0  0  0  0
    7.4446  -13.2141   27.9104 C   0  0  0  0  0  0  0  0  0  0  0  0
    7.3296  -11.8549   27.6387 C   0  0  0  0  0  0  0  0  0  0  0  0
    6.9999  -11.4122   26.3533 C   0  0  0  0  0  0  0  0  0  0  0  0
    6.7855  -12.3147   25.3391 C   0  0  0  0  0  0  0  0  0  0  0  0
    6.8929  -13.6709   25.5750 C   0  0  0  0  0  0  0  0  0  0  0  0
    8.6036  -15.7400   22.6148 C   0  0  0  0  0  0  0  0  0  0  0  0
    8.6676  -16.7772   21.9092 O   0  0  0  0  0  0  0  0  0  0  0  0
    9.6071  -15.6210   23.6237 N   0  0  0  0  0  0  0  0  0  0  0  0
   10.7675  -16.4869   23.6615 C   0  0  1  0  0  0  0  0  0  0  0  0
   11.9672  -15.9029   23.0055 C   0  0  0  0  0  0  0  0  0  0  0  0
   13.1188  -16.8174   23.0855 C   0  0  0  0  0  0  0  0  0  0  0  0
   12.9170  -18.0314   23.2825 O   0  0  0  0  0  0  0  0  0  0  0  0
   11.1023  -16.7718   25.1292 C   0  0  0  0  0  0  0  0  0  0  0  0
   11.9525  -17.8076   25.4676 O   0  0  0  0  0  0  0  0  0  0  0  0
   14.4284  -16.3834   22.9495 O   0  0  0  0  0  0  0  0  0  0  0  0
   10.6098  -16.0698   26.0395 O   0  0  0  0  0  0  0  0  0  0  0  0
  2  1  1  6
  2  3  1  0
  4  2  1  0
  4  5  1  6
  6  7  2  0
  6  4  1  0
  8  6  1  0
  9  8  1  0
  9 10  1  1
 10 11  1  0
 11 12  2  0
 11 19  1  0
 12 13  1  0
 13 14  1  0
 14 15  2  0
 15 16  1  0
 17 16  2  0
 18 17  1  0
 19 18  2  0
 19 14  1  0
 20 21  2  0
 20  9  1  0
 22 20  1  0
 23 24  1  1
 23 22  1  0
 25 29  1  0
 25 24  1  0
 26 25  2  0
 27 23  1  0
 28 27  1  0
 30 27  2  0
M  END
$$$$
