TWD.pdb
     RDKit          3D

 30 31  0  0  1  0  0  0  0  0999 V2000
   12.1901  -18.7185   19.6360 C   0  0  0  0  0  0  0  0  0  0  0  0
   11.8868  -18.3415   21.0602 C   0  0  1  0  0  0  0  0  0  0  0  0
   13.0393  -18.3680   21.7984 O   0  0  0  0  0  0  0  0  0  0  0  0
   11.1257  -17.0334   21.1656 C   0  0  2  0  0  0  0  0  0  0  0  0
   11.9047  -15.9525   20.5924 N   0  0  0  0  0  0  0  0  0  0  0  0
   10.7099  -16.7671   22.5698 C   0  0  0  0  0  0  0  0  0  0  0  0
   11.6238  -16.3167   23.3239 O   0  0  0  0  0  0  0  0  0  0  0  0
    9.4088  -16.9808   23.0742 N   0  0  0  0  0  0  0  0  0  0  0  0
    9.1371  -16.8094   24.4823 C   0  0  1  0  0  0  0  0  0  0  0  0
    7.7462  -16.3596   24.7501 C   0  0  0  0  0  0  0  0  0  0  0  0
    7.4307  -14.9491   24.4565 C   0  0  0  0  0  0  0  0  0  0  0  0
    7.2416  -14.4369   23.1554 C   0  0  0  0  0  0  0  0  0  0  0  0
    6.9226  -13.1512   23.2442 N   0  0  0  0  0  0  0  0  0  0  0  0
    6.8795  -12.7402   24.5189 C   0  0  0  0  0  0  0  0  0  0  0  0
    6.6129  -11.5068   25.0648 C   0  0  0  0  0  0  0  0  0  0  0  0
    6.6738  -11.4029   26.4504 C   0  0  0  0  0  0  0  0  0  0  0  0
    6.9939  -12.5171   27.2335 C   0  0  0  0  0  0  0  0  0  0  0  0
    7.2521  -13.7318   26.6446 C   0  0  0  0  0  0  0  0  0  0  0  0
    7.1990  -13.8692   25.2718 C   0  0  0  0  0  0  0  0  0  0  0  0
    9.6038  -17.8639   25.3464 C   0  0  0  0  0  0  0  0  0  0  0  0
    9.6432  -19.0451   24.9208 O   0  0  0  0  0  0  0  0  0  0  0  0
   10.0376  -17.6825   26.6947 N   0  0  0  0  0  0  0  0  0  0  0  0
   10.7907  -18.6959   27.4043 C   0  0  1  0  0  0  0  0  0  0  0  0
   12.0468  -19.0947   26.7159 C   0  0  0  0  0  0  0  0  0  0  0  0
   12.7526  -20.1510   27.4609 C   0  0  0  0  0  0  0  0  0  0  0  0
   12.2007  -21.2579   27.6137 O   0  0  0  0  0  0  0  0  0  0  0  0
   11.1454  -18.1443   28.7890 C   0  0  0  0  0  0  0  0  0  0  0  0
   11.7533  -18.9513   29.7321 O   0  0  0  0  0  0  0  0  0  0  0  0
   14.0149  -19.9666   28.0035 O   0  0  0  0  0  0  0  0  0  0  0  0
   10.8889  -16.9560   29.0826 O   0  0  0  0  0  0  0  0  0  0  0  0
  2  1  1  6
  2  3  1  0
  4  2  1  0
  4  5  1  1
  6  7  2  0
  6  4  1  0
  8  6  1  0
  9  8  1  0
  9 10  1  6
 10 11  1  0
 11 12  2  0
 11 19  1  0
 12 13  1  0
 13 14  1  0
 14 15  2  0
 15 16  1  0
 17 16  2  0
 18 17  1  0
 19 18  2  0
 19 14  1  0
 20 21  2  0
 20  9  1  0
 22 20  1  0
 23 24  1  6
 23 22  1  0
 25 29  1  0
 25 24  1  0
 26 25  2  0
 27 23  1  0
 28 27  1  0
 30 27  2  0
M  END
$$$$
