CCH.pdb
     RDKit          3D

 23 23  0  0  1  0  0  0  0  0999 V2000
    8.7521  -14.1114   20.6021 N   0  0  0  0  0  0  0  0  0  0  0  0
    7.7491  -14.6735   21.4892 C   0  0  1  0  0  0  0  0  0  0  0  0
    7.4721  -16.1157   21.1262 C   0  0  0  0  0  0  0  0  0  0  0  0
    6.3081  -16.8031   22.3206 S   0  0  0  0  0  0  0  0  0  0  0  0
    8.2094  -14.5279   22.8889 C   0  0  0  0  0  0  0  0  0  0  0  0
    9.4114  -14.8009   23.1460 O   0  0  0  0  0  0  0  0  0  0  0  0
    7.3461  -14.0939   23.9419 N   0  0  0  0  0  0  0  0  0  0  0  0
    7.7472  -14.1021   25.3245 C   0  0  1  0  0  0  0  0  0  0  0  0
    6.7162  -13.4366   26.2036 C   0  0  0  0  0  0  0  0  0  0  0  0
    6.5430  -11.6750   25.8024 S   0  0  0  0  0  0  0  0  0  0  0  0
    7.8968  -15.5159   25.8198 C   0  0  0  0  0  0  0  0  0  0  0  0
    7.1166  -16.4198   25.4385 O   0  0  0  0  0  0  0  0  0  0  0  0
    8.9234  -15.8695   26.7320 N   0  0  0  0  0  0  0  0  0  0  0  0
    9.5182  -17.2378   26.7410 C   0  0  1  0  0  0  0  0  0  0  0  0
   10.3976  -17.3685   25.5210 C   0  0  0  0  0  0  0  0  0  0  0  0
   11.0493  -18.6840   25.4138 C   0  0  0  0  0  0  0  0  0  0  0  0
   10.8818  -19.7467   26.3232 C   0  0  0  0  0  0  0  0  0  0  0  0
   11.6352  -20.7412   25.8675 N   0  0  0  0  0  0  0  0  0  0  0  0
   12.2731  -20.4075   24.7416 C   0  0  0  0  0  0  0  0  0  0  0  0
   11.8946  -19.1430   24.4890 N   0  0  0  0  0  0  0  0  0  0  0  0
   10.2082  -17.4450   28.0168 C   0  0  0  0  0  0  0  0  0  0  0  0
   10.3180  -16.5458   29.0421 O   0  0  0  0  0  0  0  0  0  0  0  0
   10.7753  -18.5749   28.2160 O   0  0  0  0  0  0  0  0  0  0  0  0
  2  1  1  6
  3  2  1  0
  4  3  1  0
  5  2  1  0
  5  7  1  0
  6  5  2  0
  8  7  1  0
  8 11  1  0
  8  9  1  1
 10  9  1  0
 11 13  1  0
 11 12  2  0
 13 14  1  0
 14 15  1  6
 15 16  1  0
 16 17  2  0
 18 17  1  0
 19 18  1  0
 20 19  2  0
 20 16  1  0
 21 14  1  0
 21 22  1  0
 23 21  2  0
M  END
$$$$
