CCH.pdb
     RDKit          3D

 23 23  0  0  1  0  0  0  0  0999 V2000
    8.5184  -14.3641   17.2533 N   0  0  0  0  0  0  0  0  0  0  0  0
    8.7686  -13.9906   18.6342 C   0  0  1  0  0  0  0  0  0  0  0  0
    7.9059  -12.8114   19.0266 C   0  0  0  0  0  0  0  0  0  0  0  0
    8.2435  -12.3908   20.7479 S   0  0  0  0  0  0  0  0  0  0  0  0
    8.5336  -15.1679   19.5007 C   0  0  0  0  0  0  0  0  0  0  0  0
    7.8324  -16.1077   19.0417 O   0  0  0  0  0  0  0  0  0  0  0  0
    9.0690  -15.2706   20.8218 N   0  0  0  0  0  0  0  0  0  0  0  0
    8.9950  -16.4827   21.5949 C   0  0  1  0  0  0  0  0  0  0  0  0
    9.8129  -17.5875   20.9712 C   0  0  0  0  0  0  0  0  0  0  0  0
   11.4325  -16.9812   20.4202 S   0  0  0  0  0  0  0  0  0  0  0  0
    9.5461  -16.2584   22.9778 C   0  0  0  0  0  0  0  0  0  0  0  0
   10.5780  -15.5701   23.1581 O   0  0  0  0  0  0  0  0  0  0  0  0
    8.9164  -16.8177   24.1188 N   0  0  0  0  0  0  0  0  0  0  0  0
    9.4014  -16.5212   25.4982 C   0  0  1  0  0  0  0  0  0  0  0  0
    8.2001  -16.1886   26.3499 C   0  0  0  0  0  0  0  0  0  0  0  0
    7.5394  -14.9336   25.9561 C   0  0  0  0  0  0  0  0  0  0  0  0
    8.1925  -13.6998   25.7671 C   0  0  0  0  0  0  0  0  0  0  0  0
    7.2467  -12.8337   25.4207 N   0  0  0  0  0  0  0  0  0  0  0  0
    6.0405  -13.4068   25.3709 C   0  0  0  0  0  0  0  0  0  0  0  0
    6.2517  -14.6916   25.7034 N   0  0  0  0  0  0  0  0  0  0  0  0
   10.1930  -17.6579   25.9756 C   0  0  0  0  0  0  0  0  0  0  0  0
   10.4611  -18.8120   25.2915 O   0  0  0  0  0  0  0  0  0  0  0  0
   10.6953  -17.5884   27.1508 O   0  0  0  0  0  0  0  0  0  0  0  0
  2  1  1  6
  3  2  1  0
  4  3  1  0
  5  2  1  0
  5  7  1  0
  6  5  2  0
  8  7  1  0
  8 11  1  0
  8  9  1  6
 10  9  1  0
 11 13  1  0
 11 12  2  0
 13 14  1  0
 14 15  1  1
 15 16  1  0
 16 17  2  0
 18 17  1  0
 19 18  1  0
 20 19  2  0
 20 16  1  0
 21 14  1  0
 21 22  1  0
 23 21  2  0
M  END
$$$$
