CCH.pdb
     RDKit          3D

 23 23  0  0  1  0  0  0  0  0999 V2000
    9.8463  -16.4642   19.9029 N   0  0  0  0  0  0  0  0  0  0  0  0
    8.9674  -16.9097   20.9696 C   0  0  1  0  0  0  0  0  0  0  0  0
    8.7921  -18.4114   20.9165 C   0  0  0  0  0  0  0  0  0  0  0  0
    7.7630  -18.9265   22.3055 S   0  0  0  0  0  0  0  0  0  0  0  0
    9.5184  -16.4568   22.2671 C   0  0  0  0  0  0  0  0  0  0  0  0
   10.7673  -16.4944   22.4230 O   0  0  0  0  0  0  0  0  0  0  0  0
    8.6906  -15.9854   23.3325 N   0  0  0  0  0  0  0  0  0  0  0  0
    9.2257  -15.5710   24.6031 C   0  0  1  0  0  0  0  0  0  0  0  0
    8.3072  -14.5957   25.2986 C   0  0  0  0  0  0  0  0  0  0  0  0
    8.9936  -14.0619   26.8918 S   0  0  0  0  0  0  0  0  0  0  0  0
    9.3803  -16.7553   25.5196 C   0  0  0  0  0  0  0  0  0  0  0  0
    8.4056  -17.4965   25.7872 O   0  0  0  0  0  0  0  0  0  0  0  0
   10.6315  -17.0696   26.1084 N   0  0  0  0  0  0  0  0  0  0  0  0
   10.7796  -18.2117   27.0569 C   0  0  1  0  0  0  0  0  0  0  0  0
   12.1639  -18.7865   26.8771 C   0  0  0  0  0  0  0  0  0  0  0  0
   12.2900  -19.6314   25.6784 C   0  0  0  0  0  0  0  0  0  0  0  0
   11.2428  -19.9297   24.7846 C   0  0  0  0  0  0  0  0  0  0  0  0
   11.7703  -20.7127   23.8502 N   0  0  0  0  0  0  0  0  0  0  0  0
   13.0685  -20.9431   24.0679 C   0  0  0  0  0  0  0  0  0  0  0  0
   13.3576  -20.2683   25.1936 N   0  0  0  0  0  0  0  0  0  0  0  0
   10.4846  -17.7415   28.4129 C   0  0  0  0  0  0  0  0  0  0  0  0
   10.1478  -18.5140   29.4906 O   0  0  0  0  0  0  0  0  0  0  0  0
   10.5401  -16.4827   28.6371 O   0  0  0  0  0  0  0  0  0  0  0  0
  2  1  1  6
  3  2  1  0
  4  3  1  0
  5  2  1  0
  5  7  1  0
  6  5  2  0
  8  7  1  0
  8 11  1  0
  8  9  1  1
 10  9  1  0
 11 13  1  0
 11 12  2  0
 13 14  1  0
 14 15  1  1
 15 16  1  0
 16 17  2  0
 18 17  1  0
 19 18  1  0
 20 19  2  0
 20 16  1  0
 21 14  1  0
 21 22  1  0
 23 21  2  0
M  END
$$$$
