CCH.pdb
     RDKit          3D

 23 23  0  0  1  0  0  0  0  0999 V2000
    9.5346  -15.1883   14.4481 N   0  0  0  0  0  0  0  0  0  0  0  0
    8.5106  -14.9093   15.4393 C   0  0  1  0  0  0  0  0  0  0  0  0
    7.4731  -16.0103   15.4506 C   0  0  0  0  0  0  0  0  0  0  0  0
    8.2753  -17.5611   15.9035 S   0  0  0  0  0  0  0  0  0  0  0  0
    9.1553  -14.7353   16.7607 C   0  0  0  0  0  0  0  0  0  0  0  0
   10.3638  -15.0697   16.8761 O   0  0  0  0  0  0  0  0  0  0  0  0
    8.4605  -14.2079   17.8927 N   0  0  0  0  0  0  0  0  0  0  0  0
    9.1072  -13.9728   19.1572 C   0  0  1  0  0  0  0  0  0  0  0  0
    8.2238  -13.1826   20.0920 C   0  0  0  0  0  0  0  0  0  0  0  0
    6.6308  -14.0118   20.3554 S   0  0  0  0  0  0  0  0  0  0  0  0
    9.4115  -15.2782   19.8426 C   0  0  0  0  0  0  0  0  0  0  0  0
    9.0820  -16.3713   19.3255 O   0  0  0  0  0  0  0  0  0  0  0  0
   10.0796  -15.3127   21.0930 N   0  0  0  0  0  0  0  0  0  0  0  0
   10.8698  -16.5041   21.5198 C   0  0  1  0  0  0  0  0  0  0  0  0
   11.8638  -16.8162   20.4273 C   0  0  0  0  0  0  0  0  0  0  0  0
   11.4237  -17.9014   19.5354 C   0  0  0  0  0  0  0  0  0  0  0  0
   10.1900  -18.5749   19.6278 C   0  0  0  0  0  0  0  0  0  0  0  0
   10.1875  -19.4715   18.6478 N   0  0  0  0  0  0  0  0  0  0  0  0
   11.3159  -19.4313   17.9329 C   0  0  0  0  0  0  0  0  0  0  0  0
   12.0525  -18.4608   18.5000 N   0  0  0  0  0  0  0  0  0  0  0  0
   11.4671  -16.2309   22.8295 C   0  0  0  0  0  0  0  0  0  0  0  0
   11.8318  -17.1548   23.7704 O   0  0  0  0  0  0  0  0  0  0  0  0
   11.6785  -15.0099   23.1500 O   0  0  0  0  0  0  0  0  0  0  0  0
  2  1  1  6
  3  2  1  0
  4  3  1  0
  5  2  1  0
  5  7  1  0
  6  5  2  0
  8  7  1  0
  8 11  1  0
  8  9  1  1
 10  9  1  0
 11 13  1  0
 11 12  2  0
 13 14  1  0
 14 15  1  6
 15 16  1  0
 16 17  2  0
 18 17  1  0
 19 18  1  0
 20 19  2  0
 20 16  1  0
 21 14  1  0
 21 22  1  0
 23 21  2  0
M  END
$$$$
