CCH.pdb
     RDKit          3D

 23 23  0  0  1  0  0  0  0  0999 V2000
    5.2678  -19.3496   19.8982 N   0  0  0  0  0  0  0  0  0  0  0  0
    5.3300  -18.3382   20.9385 C   0  0  1  0  0  0  0  0  0  0  0  0
    4.8406  -18.9032   22.2538 C   0  0  0  0  0  0  0  0  0  0  0  0
    4.8012  -17.5784   23.4774 S   0  0  0  0  0  0  0  0  0  0  0  0
    6.7169  -17.8281   21.0307 C   0  0  0  0  0  0  0  0  0  0  0  0
    7.6449  -18.6660   21.1801 O   0  0  0  0  0  0  0  0  0  0  0  0
    7.0315  -16.4360   20.9567 N   0  0  0  0  0  0  0  0  0  0  0  0
    8.3586  -15.9291   21.1893 C   0  0  1  0  0  0  0  0  0  0  0  0
    8.4461  -14.4513   20.8942 C   0  0  0  0  0  0  0  0  0  0  0  0
    6.9967  -13.5630   21.5302 S   0  0  0  0  0  0  0  0  0  0  0  0
    8.7446  -16.1099   22.6332 C   0  0  0  0  0  0  0  0  0  0  0  0
    7.9106  -15.9324   23.5518 O   0  0  0  0  0  0  0  0  0  0  0  0
   10.0620  -16.4861   22.9995 N   0  0  0  0  0  0  0  0  0  0  0  0
   10.4233  -16.7701   24.4190 C   0  0  1  0  0  0  0  0  0  0  0  0
    9.5099  -17.8628   24.9196 C   0  0  0  0  0  0  0  0  0  0  0  0
    9.8972  -18.3826   26.2411 C   0  0  0  0  0  0  0  0  0  0  0  0
   10.7715  -17.7397   27.1393 C   0  0  0  0  0  0  0  0  0  0  0  0
   10.8531  -18.5322   28.2021 N   0  0  0  0  0  0  0  0  0  0  0  0
   10.1048  -19.6307   28.0631 C   0  0  0  0  0  0  0  0  0  0  0  0
    9.5321  -19.5106   26.8533 N   0  0  0  0  0  0  0  0  0  0  0  0
   11.8519  -17.0880   24.4887 C   0  0  0  0  0  0  0  0  0  0  0  0
   12.6593  -17.4550   23.4469 O   0  0  0  0  0  0  0  0  0  0  0  0
   12.4261  -17.0239   25.6307 O   0  0  0  0  0  0  0  0  0  0  0  0
  2  1  1  6
  3  2  1  0
  4  3  1  0
  5  2  1  0
  5  7  1  0
  6  5  2  0
  8  7  1  0
  8 11  1  0
  8  9  1  1
 10  9  1  0
 11 13  1  0
 11 12  2  0
 13 14  1  0
 14 15  1  6
 15 16  1  0
 16 17  2  0
 18 17  1  0
 19 18  1  0
 20 19  2  0
 20 16  1  0
 21 14  1  0
 21 22  1  0
 23 21  2  0
M  END
$$$$
