CCH.pdb
     RDKit          3D

 23 23  0  0  1  0  0  0  0  0999 V2000
    8.3466  -14.6946   15.5234 N   0  0  0  0  0  0  0  0  0  0  0  0
    7.7535  -15.4633   16.6034 C   0  0  1  0  0  0  0  0  0  0  0  0
    7.9405  -16.9449   16.3613 C   0  0  0  0  0  0  0  0  0  0  0  0
    9.5857  -17.4235   16.9254 S   0  0  0  0  0  0  0  0  0  0  0  0
    8.3487  -15.0272   17.8870 C   0  0  0  0  0  0  0  0  0  0  0  0
    9.4603  -14.4369   17.8515 O   0  0  0  0  0  0  0  0  0  0  0  0
    7.7115  -15.2514   19.1465 N   0  0  0  0  0  0  0  0  0  0  0  0
    8.2900  -14.8239   20.3935 C   0  0  1  0  0  0  0  0  0  0  0  0
    7.3521  -13.9215   21.1580 C   0  0  0  0  0  0  0  0  0  0  0  0
    5.7680  -14.7429   21.4902 S   0  0  0  0  0  0  0  0  0  0  0  0
    8.5712  -16.0105   21.2764 C   0  0  0  0  0  0  0  0  0  0  0  0
    8.1477  -17.1519   20.9786 O   0  0  0  0  0  0  0  0  0  0  0  0
    9.3231  -15.8749   22.4711 N   0  0  0  0  0  0  0  0  0  0  0  0
    9.5948  -17.0450   23.3560 C   0  0  1  0  0  0  0  0  0  0  0  0
   10.1976  -18.1378   22.5066 C   0  0  0  0  0  0  0  0  0  0  0  0
   11.5754  -17.8463   22.0784 C   0  0  0  0  0  0  0  0  0  0  0  0
   12.0716  -16.5658   21.7644 C   0  0  0  0  0  0  0  0  0  0  0  0
   13.3452  -16.7384   21.4289 N   0  0  0  0  0  0  0  0  0  0  0  0
   13.7098  -18.0221   21.5007 C   0  0  0  0  0  0  0  0  0  0  0  0
   12.6056  -18.6755   21.9008 N   0  0  0  0  0  0  0  0  0  0  0  0
   10.4339  -16.6073   24.4745 C   0  0  0  0  0  0  0  0  0  0  0  0
   10.8871  -17.3808   25.5079 O   0  0  0  0  0  0  0  0  0  0  0  0
   10.7923  -15.3792   24.5113 O   0  0  0  0  0  0  0  0  0  0  0  0
  2  1  1  6
  3  2  1  0
  4  3  1  0
  5  2  1  0
  5  7  1  0
  6  5  2  0
  8  7  1  0
  8 11  1  0
  8  9  1  1
 10  9  1  0
 11 13  1  0
 11 12  2  0
 13 14  1  0
 14 15  1  6
 15 16  1  0
 16 17  2  0
 18 17  1  0
 19 18  1  0
 20 19  2  0
 20 16  1  0
 21 14  1  0
 21 22  1  0
 23 21  2  0
M  END
$$$$
