CCH.pdb
     RDKit          3D

 23 23  0  0  1  0  0  0  0  0999 V2000
    6.1143  -16.2431   19.3451 N   0  0  0  0  0  0  0  0  0  0  0  0
    6.1909  -16.5348   20.7657 C   0  0  1  0  0  0  0  0  0  0  0  0
    6.2843  -18.0274   20.9938 C   0  0  0  0  0  0  0  0  0  0  0  0
    5.0162  -18.8472   20.0071 S   0  0  0  0  0  0  0  0  0  0  0  0
    7.3438  -15.8078   21.3441 C   0  0  0  0  0  0  0  0  0  0  0  0
    7.9485  -14.9818   20.6109 O   0  0  0  0  0  0  0  0  0  0  0  0
    7.7858  -16.0104   22.6880 N   0  0  0  0  0  0  0  0  0  0  0  0
    8.1505  -14.9209   23.5554 C   0  0  1  0  0  0  0  0  0  0  0  0
    6.9440  -14.3422   24.2541 C   0  0  0  0  0  0  0  0  0  0  0  0
    7.2689  -14.0704   26.0190 S   0  0  0  0  0  0  0  0  0  0  0  0
    9.0912  -15.3969   24.6301 C   0  0  0  0  0  0  0  0  0  0  0  0
    9.6061  -14.5917   25.4408 O   0  0  0  0  0  0  0  0  0  0  0  0
    9.4242  -16.7693   24.7592 N   0  0  0  0  0  0  0  0  0  0  0  0
   10.6420  -17.2075   25.5014 C   0  0  1  0  0  0  0  0  0  0  0  0
   11.7478  -16.2257   25.1975 C   0  0  0  0  0  0  0  0  0  0  0  0
   12.1807  -16.2567   23.7909 C   0  0  0  0  0  0  0  0  0  0  0  0
   11.5898  -17.0388   22.7793 C   0  0  0  0  0  0  0  0  0  0  0  0
   12.2706  -16.7773   21.6691 N   0  0  0  0  0  0  0  0  0  0  0  0
   13.2495  -15.8928   21.8817 C   0  0  0  0  0  0  0  0  0  0  0  0
   13.1694  -15.5928   23.1892 N   0  0  0  0  0  0  0  0  0  0  0  0
   10.3098  -17.3329   26.9229 C   0  0  0  0  0  0  0  0  0  0  0  0
   11.0971  -17.8755   27.9015 O   0  0  0  0  0  0  0  0  0  0  0  0
    9.1713  -16.8984   27.3139 O   0  0  0  0  0  0  0  0  0  0  0  0
  2  1  1  6
  3  2  1  0
  4  3  1  0
  5  2  1  0
  5  7  1  0
  6  5  2  0
  8  7  1  0
  8 11  1  0
  8  9  1  1
 10  9  1  0
 11 13  1  0
 11 12  2  0
 13 14  1  0
 14 15  1  1
 15 16  1  0
 16 17  2  0
 18 17  1  0
 19 18  1  0
 20 19  2  0
 20 16  1  0
 21 14  1  0
 21 22  1  0
 23 21  2  0
M  END
$$$$
