CCH.pdb
     RDKit          3D

 23 23  0  0  1  0  0  0  0  0999 V2000
    6.7905  -18.9900   14.7427 N   0  0  0  0  0  0  0  0  0  0  0  0
    7.5642  -18.0102   15.4844 C   0  0  1  0  0  0  0  0  0  0  0  0
    7.2344  -16.6109   15.0134 C   0  0  0  0  0  0  0  0  0  0  0  0
    8.6350  -15.9669   14.0768 S   0  0  0  0  0  0  0  0  0  0  0  0
    7.3051  -18.1884   16.9312 C   0  0  0  0  0  0  0  0  0  0  0  0
    6.1797  -18.6337   17.2786 O   0  0  0  0  0  0  0  0  0  0  0  0
    8.2770  -17.8761   17.9315 N   0  0  0  0  0  0  0  0  0  0  0  0
    8.0239  -18.0510   19.3378 C   0  0  1  0  0  0  0  0  0  0  0  0
    7.8514  -19.5082   19.6919 C   0  0  0  0  0  0  0  0  0  0  0  0
    9.2635  -20.4980   19.1257 S   0  0  0  0  0  0  0  0  0  0  0  0
    9.1846  -17.5388   20.1483 C   0  0  0  0  0  0  0  0  0  0  0  0
   10.3633  -17.8491   19.8561 O   0  0  0  0  0  0  0  0  0  0  0  0
    8.9819  -16.6903   21.2663 N   0  0  0  0  0  0  0  0  0  0  0  0
   10.1242  -16.2205   22.1033 C   0  0  1  0  0  0  0  0  0  0  0  0
   10.4249  -14.7925   21.7168 C   0  0  0  0  0  0  0  0  0  0  0  0
    9.2148  -13.9877   21.4829 C   0  0  0  0  0  0  0  0  0  0  0  0
    7.8981  -14.4882   21.4792 C   0  0  0  0  0  0  0  0  0  0  0  0
    7.1109  -13.4471   21.2328 N   0  0  0  0  0  0  0  0  0  0  0  0
    7.8105  -12.3191   21.0778 C   0  0  0  0  0  0  0  0  0  0  0  0
    9.0948  -12.6818   21.2364 N   0  0  0  0  0  0  0  0  0  0  0  0
    9.7859  -16.4130   23.5158 C   0  0  0  0  0  0  0  0  0  0  0  0
   10.6155  -16.2268   24.5877 O   0  0  0  0  0  0  0  0  0  0  0  0
    8.5985  -16.7954   23.8020 O   0  0  0  0  0  0  0  0  0  0  0  0
  2  1  1  6
  3  2  1  0
  4  3  1  0
  5  2  1  0
  5  7  1  0
  6  5  2  0
  8  7  1  0
  8 11  1  0
  8  9  1  6
 10  9  1  0
 11 13  1  0
 11 12  2  0
 13 14  1  0
 14 15  1  1
 15 16  1  0
 16 17  2  0
 18 17  1  0
 19 18  1  0
 20 19  2  0
 20 16  1  0
 21 14  1  0
 21 22  1  0
 23 21  2  0
M  END
$$$$
