WQL.pdb
     RDKit          3D

 32 33  0  0  1  0  0  0  0  0999 V2000
   28.6776  -21.4906  -10.2542 N   0  0  0  0  0  0  0  0  0  0  0  0
   27.2904  -21.0954   -9.9809 C   0  0  1  0  0  0  0  0  0  0  0  0
   27.3559  -19.8792   -9.1118 C   0  0  0  0  0  0  0  0  0  0  0  0
   28.2925  -19.9407   -8.0016 C   0  0  0  0  0  0  0  0  0  0  0  0
   29.6778  -19.9516   -8.1675 C   0  0  0  0  0  0  0  0  0  0  0  0
   30.2933  -20.0478   -6.9831 N   0  0  0  0  0  0  0  0  0  0  0  0
   29.3285  -20.0999   -6.0376 C   0  0  0  0  0  0  0  0  0  0  0  0
   29.3724  -20.1880   -4.6690 C   0  0  0  0  0  0  0  0  0  0  0  0
   28.2511  -20.2122   -3.8926 C   0  0  0  0  0  0  0  0  0  0  0  0
   27.0198  -20.1448   -4.5198 C   0  0  0  0  0  0  0  0  0  0  0  0
   26.9208  -20.0575   -5.8713 C   0  0  0  0  0  0  0  0  0  0  0  0
   28.0834  -20.0351   -6.6409 C   0  0  0  0  0  0  0  0  0  0  0  0
   26.5094  -20.9845  -11.2017 C   0  0  0  0  0  0  0  0  0  0  0  0
   26.9174  -20.3651  -12.2104 O   0  0  0  0  0  0  0  0  0  0  0  0
   23.7120  -25.5256  -13.9072 N   0  0  0  0  0  0  0  0  0  0  0  0
   23.3496  -24.4292  -14.7169 C   0  0  0  0  0  0  0  0  0  0  0  0
   22.7906  -24.6916  -15.8264 O   0  0  0  0  0  0  0  0  0  0  0  0
   23.6045  -23.0271  -14.3026 C   0  0  0  0  0  0  0  0  0  0  0  0
   24.2490  -23.0461  -12.9479 C   0  0  0  0  0  0  0  0  0  0  0  0
   24.5262  -21.6527  -12.4957 C   0  0  2  0  0  0  0  0  0  0  0  0
   25.2419  -21.5927  -11.2631 N   0  0  0  0  0  0  0  0  0  0  0  0
   23.3107  -20.8000  -12.3843 C   0  0  0  0  0  0  0  0  0  0  0  0
   22.7293  -20.7483  -11.2771 O   0  0  0  0  0  0  0  0  0  0  0  0
   20.1570  -16.4794  -15.5475 C   0  0  0  0  0  0  0  0  0  0  0  0
   20.4551  -17.1949  -14.2466 C   0  0  2  0  0  0  0  0  0  0  0  0
   20.3458  -16.3500  -13.0342 C   0  0  0  0  0  0  0  0  0  0  0  0
   21.5622  -18.1529  -14.2781 C   0  0  0  0  0  0  0  0  0  0  0  0
   21.6358  -19.1933  -13.2317 C   0  0  2  0  0  0  0  0  0  0  0  0
   22.7847  -20.0578  -13.4414 N   0  0  0  0  0  0  0  0  0  0  0  0
   20.4580  -20.0717  -13.2124 C   0  0  0  0  0  0  0  0  0  0  0  0
   19.3320  -19.9218  -12.4242 O   0  0  0  0  0  0  0  0  0  0  0  0
   20.4221  -21.0998  -13.9814 O   0  0  0  0  0  0  0  0  0  0  0  0
  2  1  1  6
  3  2  1  0
  4  3  1  0
  5  4  2  0
  6  7  1  0
  6  5  1  0
  7 12  2  0
  8  7  1  0
  8  9  2  0
  9 10  1  0
 10 11  2  0
 12  4  1  0
 12 11  1  0
 13  2  1  0
 14 13  2  0
 16 17  2  0
 16 15  1  0
 18 16  1  0
 19 18  1  0
 20 21  1  0
 20 19  1  1
 21 13  1  0
 22 20  1  0
 23 22  2  0
 25 24  1  6
 25 27  1  0
 26 25  1  0
 28 27  1  6
 28 30  1  0
 28 29  1  0
 29 22  1  0
 30 31  1  0
 32 30  2  0
M  END
$$$$
