WQL.pdb
     RDKit          3D

 32 33  0  0  1  0  0  0  0  0999 V2000
   24.9778  -17.5382  -16.2443 N   0  0  0  0  0  0  0  0  0  0  0  0
   25.8230  -18.0686  -15.1675 C   0  0  1  0  0  0  0  0  0  0  0  0
   26.8871  -17.0471  -14.9170 C   0  0  0  0  0  0  0  0  0  0  0  0
   27.8021  -16.7986  -16.0190 C   0  0  0  0  0  0  0  0  0  0  0  0
   27.9228  -15.5603  -16.6504 C   0  0  0  0  0  0  0  0  0  0  0  0
   28.8100  -15.6257  -17.6501 N   0  0  0  0  0  0  0  0  0  0  0  0
   29.2762  -16.8941  -17.6844 C   0  0  0  0  0  0  0  0  0  0  0  0
   30.1985  -17.5239  -18.4816 C   0  0  0  0  0  0  0  0  0  0  0  0
   30.5355  -18.8368  -18.3284 C   0  0  0  0  0  0  0  0  0  0  0  0
   29.9159  -19.5581  -17.3234 C   0  0  0  0  0  0  0  0  0  0  0  0
   28.9955  -18.9828  -16.5074 C   0  0  0  0  0  0  0  0  0  0  0  0
   28.6695  -17.6389  -16.6866 C   0  0  0  0  0  0  0  0  0  0  0  0
   25.0362  -18.4873  -14.0193 C   0  0  0  0  0  0  0  0  0  0  0  0
   24.0050  -17.8807  -13.6499 O   0  0  0  0  0  0  0  0  0  0  0  0
   21.0425  -21.1109  -13.1523 N   0  0  0  0  0  0  0  0  0  0  0  0
   21.4195  -21.4363  -11.8329 C   0  0  0  0  0  0  0  0  0  0  0  0
   20.4837  -21.6184  -10.9940 O   0  0  0  0  0  0  0  0  0  0  0  0
   22.8422  -21.5634  -11.4300 C   0  0  0  0  0  0  0  0  0  0  0  0
   23.6991  -21.1769  -12.5992 C   0  0  0  0  0  0  0  0  0  0  0  0
   24.6489  -20.0989  -12.2009 C   0  0  2  0  0  0  0  0  0  0  0  0
   25.4411  -19.6176  -13.2853 N   0  0  0  0  0  0  0  0  0  0  0  0
   25.5528  -20.4738  -11.0786 C   0  0  0  0  0  0  0  0  0  0  0  0
   26.5042  -21.2490  -11.3249 O   0  0  0  0  0  0  0  0  0  0  0  0
   27.1020  -20.7123   -5.8266 C   0  0  0  0  0  0  0  0  0  0  0  0
   27.6395  -19.6435   -6.7551 C   0  0  2  0  0  0  0  0  0  0  0  0
   28.2472  -18.4769   -6.0729 C   0  0  0  0  0  0  0  0  0  0  0  0
   26.8328  -19.3587   -7.9436 C   0  0  0  0  0  0  0  0  0  0  0  0
   26.2765  -20.4884   -8.7162 C   0  0  2  0  0  0  0  0  0  0  0  0
   25.3994  -20.0113   -9.7719 N   0  0  0  0  0  0  0  0  0  0  0  0
   25.4718  -21.4037   -7.8952 C   0  0  0  0  0  0  0  0  0  0  0  0
   25.8902  -22.6026   -7.3483 O   0  0  0  0  0  0  0  0  0  0  0  0
   24.2488  -21.1111   -7.6342 O   0  0  0  0  0  0  0  0  0  0  0  0
  2  1  1  6
  3  2  1  0
  4  3  1  0
  5  4  2  0
  6  7  1  0
  6  5  1  0
  7 12  2  0
  8  7  1  0
  8  9  2  0
  9 10  1  0
 10 11  2  0
 12  4  1  0
 12 11  1  0
 13  2  1  0
 14 13  2  0
 16 17  2  0
 16 15  1  0
 18 16  1  0
 19 18  1  0
 20 21  1  0
 20 19  1  6
 21 13  1  0
 22 20  1  0
 23 22  2  0
 25 24  1  1
 25 27  1  0
 26 25  1  0
 28 27  1  1
 28 30  1  0
 28 29  1  0
 29 22  1  0
 30 31  1  0
 32 30  2  0
M  END
$$$$
