WQL.pdb
     RDKit          3D

 32 33  0  0  1  0  0  0  0  0999 V2000
   26.2486  -22.7908  -11.6875 N   0  0  0  0  0  0  0  0  0  0  0  0
   25.6383  -21.4599  -11.5795 C   0  0  1  0  0  0  0  0  0  0  0  0
   26.7604  -20.4710  -11.6168 C   0  0  0  0  0  0  0  0  0  0  0  0
   27.7793  -20.6264  -10.5914 C   0  0  0  0  0  0  0  0  0  0  0  0
   29.0659  -21.0977  -10.8548 C   0  0  0  0  0  0  0  0  0  0  0  0
   29.7805  -21.1724   -9.7258 N   0  0  0  0  0  0  0  0  0  0  0  0
   28.9790  -20.7549   -8.7205 C   0  0  0  0  0  0  0  0  0  0  0  0
   29.1794  -20.6115   -7.3707 C   0  0  0  0  0  0  0  0  0  0  0  0
   28.2150  -20.1487   -6.5243 C   0  0  0  0  0  0  0  0  0  0  0  0
   26.9838  -19.8114   -7.0577 C   0  0  0  0  0  0  0  0  0  0  0  0
   26.7332  -19.9353   -8.3866 C   0  0  0  0  0  0  0  0  0  0  0  0
   27.7372  -20.4115   -9.2290 C   0  0  0  0  0  0  0  0  0  0  0  0
   24.5715  -21.2742  -12.5493 C   0  0  0  0  0  0  0  0  0  0  0  0
   24.5968  -21.7931  -13.6885 O   0  0  0  0  0  0  0  0  0  0  0  0
   18.6495  -21.1281  -11.1126 N   0  0  0  0  0  0  0  0  0  0  0  0
   19.8170  -21.6448  -10.5134 C   0  0  0  0  0  0  0  0  0  0  0  0
   19.6705  -22.2989   -9.4349 O   0  0  0  0  0  0  0  0  0  0  0  0
   21.1620  -21.4403  -11.1063 C   0  0  0  0  0  0  0  0  0  0  0  0
   21.0263  -20.5029  -12.2698 C   0  0  0  0  0  0  0  0  0  0  0  0
   22.3035  -20.4547  -13.0374 C   0  0  2  0  0  0  0  0  0  0  0  0
   23.4618  -20.4804  -12.2049 N   0  0  0  0  0  0  0  0  0  0  0  0
   22.4078  -19.2952  -13.9655 C   0  0  0  0  0  0  0  0  0  0  0  0
   22.7614  -18.1926  -13.4900 O   0  0  0  0  0  0  0  0  0  0  0  0
   21.7266  -16.4953  -18.5639 C   0  0  0  0  0  0  0  0  0  0  0  0
   22.8659  -17.4921  -18.5259 C   0  0  2  0  0  0  0  0  0  0  0  0
   23.3713  -17.9083  -19.8553 C   0  0  0  0  0  0  0  0  0  0  0  0
   22.7719  -18.5383  -17.5056 C   0  0  0  0  0  0  0  0  0  0  0  0
   22.2530  -18.1860  -16.1679 C   0  0  2  0  0  0  0  0  0  0  0  0
   22.1345  -19.3680  -15.3311 N   0  0  0  0  0  0  0  0  0  0  0  0
   20.9159  -17.5782  -16.2131 C   0  0  0  0  0  0  0  0  0  0  0  0
   19.7132  -18.2446  -16.3574 O   0  0  0  0  0  0  0  0  0  0  0  0
   20.7965  -16.3029  -16.1194 O   0  0  0  0  0  0  0  0  0  0  0  0
  2  1  1  6
  3  2  1  0
  4  3  1  0
  5  4  2  0
  6  7  1  0
  6  5  1  0
  7 12  2  0
  8  7  1  0
  8  9  2  0
  9 10  1  0
 10 11  2  0
 12  4  1  0
 12 11  1  0
 13  2  1  0
 14 13  2  0
 16 17  2  0
 16 15  1  0
 18 16  1  0
 19 18  1  0
 20 21  1  0
 20 19  1  1
 21 13  1  0
 22 20  1  0
 23 22  2  0
 25 24  1  6
 25 27  1  0
 26 25  1  0
 28 27  1  6
 28 30  1  0
 28 29  1  0
 29 22  1  0
 30 31  1  0
 32 30  2  0
M  END
$$$$
