WQL.pdb
     RDKit          3D

 32 33  0  0  1  0  0  0  0  0999 V2000
   25.7761  -16.5170  -17.9944 N   0  0  0  0  0  0  0  0  0  0  0  0
   25.8958  -17.6315  -17.0464 C   0  0  1  0  0  0  0  0  0  0  0  0
   27.1297  -17.3757  -16.2397 C   0  0  0  0  0  0  0  0  0  0  0  0
   28.3894  -17.4607  -16.9603 C   0  0  0  0  0  0  0  0  0  0  0  0
   29.2503  -16.3757  -17.1291 C   0  0  0  0  0  0  0  0  0  0  0  0
   30.3149  -16.7282  -17.8594 N   0  0  0  0  0  0  0  0  0  0  0  0
   30.1655  -18.0345  -18.1736 C   0  0  0  0  0  0  0  0  0  0  0  0
   30.9429  -18.9141  -18.8840 C   0  0  0  0  0  0  0  0  0  0  0  0
   30.6002  -20.2212  -19.0700 C   0  0  0  0  0  0  0  0  0  0  0  0
   29.4157  -20.6721  -18.5153 C   0  0  0  0  0  0  0  0  0  0  0  0
   28.6096  -19.8425  -17.8039 C   0  0  0  0  0  0  0  0  0  0  0  0
   28.9841  -18.5107  -17.6297 C   0  0  0  0  0  0  0  0  0  0  0  0
   24.6637  -17.8456  -16.3055 C   0  0  0  0  0  0  0  0  0  0  0  0
   24.0800  -16.9273  -15.6862 O   0  0  0  0  0  0  0  0  0  0  0  0
   19.9669  -17.7741  -16.6702 N   0  0  0  0  0  0  0  0  0  0  0  0
   19.6270  -18.8796  -15.8630 C   0  0  0  0  0  0  0  0  0  0  0  0
   18.5205  -18.8221  -15.2428 O   0  0  0  0  0  0  0  0  0  0  0  0
   20.5137  -20.0628  -15.7358 C   0  0  0  0  0  0  0  0  0  0  0  0
   21.7655  -19.7998  -16.5200 C   0  0  0  0  0  0  0  0  0  0  0  0
   22.8582  -19.3630  -15.6045 C   0  0  2  0  0  0  0  0  0  0  0  0
   24.0961  -19.1329  -16.2752 N   0  0  0  0  0  0  0  0  0  0  0  0
   23.0979  -20.2895  -14.4639 C   0  0  0  0  0  0  0  0  0  0  0  0
   23.6496  -21.3869  -14.7049 O   0  0  0  0  0  0  0  0  0  0  0  0
   25.6510  -22.1116  -11.6476 C   0  0  0  0  0  0  0  0  0  0  0  0
   25.2626  -20.7469  -11.1185 C   0  0  2  0  0  0  0  0  0  0  0  0
   26.0917  -20.2591   -9.9913 C   0  0  0  0  0  0  0  0  0  0  0  0
   23.8265  -20.4718  -11.0406 C   0  0  0  0  0  0  0  0  0  0  0  0
   22.9409  -20.9950  -12.1012 C   0  0  2  0  0  0  0  0  0  0  0  0
   22.7432  -20.0044  -13.1456 N   0  0  0  0  0  0  0  0  0  0  0  0
   21.6019  -21.3465  -11.6087 C   0  0  0  0  0  0  0  0  0  0  0  0
   21.2355  -22.5284  -10.9919 O   0  0  0  0  0  0  0  0  0  0  0  0
   20.6371  -20.5097  -11.7452 O   0  0  0  0  0  0  0  0  0  0  0  0
  2  1  1  6
  3  2  1  0
  4  3  1  0
  5  4  2  0
  6  7  1  0
  6  5  1  0
  7 12  2  0
  8  7  1  0
  8  9  2  0
  9 10  1  0
 10 11  2  0
 12  4  1  0
 12 11  1  0
 13  2  1  0
 14 13  2  0
 16 17  2  0
 16 15  1  0
 18 16  1  0
 19 18  1  0
 20 21  1  0
 20 19  1  6
 21 13  1  0
 22 20  1  0
 23 22  2  0
 25 24  1  1
 25 27  1  0
 26 25  1  0
 28 27  1  1
 28 30  1  0
 28 29  1  0
 29 22  1  0
 30 31  1  0
 32 30  2  0
M  END
$$$$
