WQL.pdb
     RDKit          3D

 32 33  0  0  1  0  0  0  0  0999 V2000
   24.0345  -18.5793  -19.1232 N   0  0  0  0  0  0  0  0  0  0  0  0
   24.4212  -18.5881  -17.7069 C   0  0  1  0  0  0  0  0  0  0  0  0
   24.5380  -17.1568  -17.2871 C   0  0  0  0  0  0  0  0  0  0  0  0
   25.4193  -16.3276  -18.0929 C   0  0  0  0  0  0  0  0  0  0  0  0
   26.7845  -16.5763  -18.2381 C   0  0  0  0  0  0  0  0  0  0  0  0
   27.3554  -15.6387  -19.0035 N   0  0  0  0  0  0  0  0  0  0  0  0
   26.3809  -14.7744  -19.3652 C   0  0  0  0  0  0  0  0  0  0  0  0
   26.3827  -13.6450  -20.1445 C   0  0  0  0  0  0  0  0  0  0  0  0
   25.2568  -12.9170  -20.3951 C   0  0  0  0  0  0  0  0  0  0  0  0
   24.0650  -13.3421  -19.8357 C   0  0  0  0  0  0  0  0  0  0  0  0
   24.0087  -14.4527  -19.0561 C   0  0  0  0  0  0  0  0  0  0  0  0
   25.1752  -15.1779  -18.8159 C   0  0  0  0  0  0  0  0  0  0  0  0
   23.5443  -19.4323  -16.9125 C   0  0  0  0  0  0  0  0  0  0  0  0
   22.3025  -19.4537  -17.0704 O   0  0  0  0  0  0  0  0  0  0  0  0
   25.2076  -24.7159  -13.9994 N   0  0  0  0  0  0  0  0  0  0  0  0
   23.8495  -24.5463  -13.6589 C   0  0  0  0  0  0  0  0  0  0  0  0
   23.2904  -25.4959  -13.0279 O   0  0  0  0  0  0  0  0  0  0  0  0
   23.0964  -23.3185  -14.0160 C   0  0  0  0  0  0  0  0  0  0  0  0
   24.0309  -22.3817  -14.7232 C   0  0  0  0  0  0  0  0  0  0  0  0
   23.2847  -21.1839  -15.2041 C   0  0  2  0  0  0  0  0  0  0  0  0
   24.1028  -20.2620  -15.9224 N   0  0  0  0  0  0  0  0  0  0  0  0
   22.5660  -20.4471  -14.1282 C   0  0  0  0  0  0  0  0  0  0  0  0
   23.1665  -19.5091  -13.5570 O   0  0  0  0  0  0  0  0  0  0  0  0
   20.1781  -17.0343  -11.4499 C   0  0  0  0  0  0  0  0  0  0  0  0
   19.6923  -17.4262  -12.8297 C   0  0  2  0  0  0  0  0  0  0  0  0
   18.2188  -17.4743  -12.9787 C   0  0  0  0  0  0  0  0  0  0  0  0
   20.4523  -18.4808  -13.5040 C   0  0  0  0  0  0  0  0  0  0  0  0
   20.5314  -19.8160  -12.8765 C   0  0  2  0  0  0  0  0  0  0  0  0
   21.2649  -20.7424  -13.7221 N   0  0  0  0  0  0  0  0  0  0  0  0
   19.2122  -20.4223  -12.6498 C   0  0  0  0  0  0  0  0  0  0  0  0
   18.5682  -21.3251  -13.4755 O   0  0  0  0  0  0  0  0  0  0  0  0
   18.5452  -20.1121  -11.5969 O   0  0  0  0  0  0  0  0  0  0  0  0
  2  1  1  6
  3  2  1  0
  4  3  1  0
  5  4  2  0
  6  7  1  0
  6  5  1  0
  7 12  2  0
  8  7  1  0
  8  9  2  0
  9 10  1  0
 10 11  2  0
 12  4  1  0
 12 11  1  0
 13  2  1  0
 14 13  2  0
 16 17  2  0
 16 15  1  0
 18 16  1  0
 19 18  1  0
 20 21  1  0
 20 19  1  1
 21 13  1  0
 22 20  1  0
 23 22  2  0
 25 24  1  1
 25 27  1  0
 26 25  1  0
 28 27  1  6
 28 30  1  0
 28 29  1  0
 29 22  1  0
 30 31  1  0
 32 30  2  0
M  END
$$$$
