WQL.pdb
     RDKit          3D

 32 33  0  0  1  0  0  0  0  0999 V2000
   25.9836  -18.8023   -9.1929 N   0  0  0  0  0  0  0  0  0  0  0  0
   26.4301  -20.1417   -9.5954 C   0  0  1  0  0  0  0  0  0  0  0  0
   26.2272  -21.0334   -8.4112 C   0  0  0  0  0  0  0  0  0  0  0  0
   26.8612  -20.6037   -7.1756 C   0  0  0  0  0  0  0  0  0  0  0  0
   26.1534  -20.0823   -6.0921 C   0  0  0  0  0  0  0  0  0  0  0  0
   26.9890  -19.7381   -5.1051 N   0  0  0  0  0  0  0  0  0  0  0  0
   28.2406  -20.0275   -5.5259 C   0  0  0  0  0  0  0  0  0  0  0  0
   29.4725  -19.8993   -4.9353 C   0  0  0  0  0  0  0  0  0  0  0  0
   30.6306  -20.2765   -5.5494 C   0  0  0  0  0  0  0  0  0  0  0  0
   30.5515  -20.8105   -6.8232 C   0  0  0  0  0  0  0  0  0  0  0  0
   29.3574  -20.9582   -7.4529 C   0  0  0  0  0  0  0  0  0  0  0  0
   28.1891  -20.5638   -6.8019 C   0  0  0  0  0  0  0  0  0  0  0  0
   25.8163  -20.5636  -10.8436 C   0  0  0  0  0  0  0  0  0  0  0  0
   24.6274  -20.2999  -11.1344 O   0  0  0  0  0  0  0  0  0  0  0  0
   29.4341  -20.8606  -15.5520 N   0  0  0  0  0  0  0  0  0  0  0  0
   28.2119  -21.1257  -16.2039 C   0  0  0  0  0  0  0  0  0  0  0  0
   28.1718  -20.9263  -17.4573 O   0  0  0  0  0  0  0  0  0  0  0  0
   27.0191  -21.6161  -15.4697 C   0  0  0  0  0  0  0  0  0  0  0  0
   27.3842  -21.7619  -14.0218 C   0  0  0  0  0  0  0  0  0  0  0  0
   26.2838  -21.2374  -13.1633 C   0  0  2  0  0  0  0  0  0  0  0  0
   26.5793  -21.2995  -11.7690 N   0  0  0  0  0  0  0  0  0  0  0  0
   24.9671  -21.8903  -13.4021 C   0  0  0  0  0  0  0  0  0  0  0  0
   24.7681  -23.0150  -12.8902 O   0  0  0  0  0  0  0  0  0  0  0  0
   19.1313  -20.5137  -13.5346 C   0  0  0  0  0  0  0  0  0  0  0  0
   20.1956  -21.5631  -13.7778 C   0  0  2  0  0  0  0  0  0  0  0  0
   19.9188  -22.8824  -13.1625 C   0  0  0  0  0  0  0  0  0  0  0  0
   21.5828  -21.0964  -13.7273 C   0  0  0  0  0  0  0  0  0  0  0  0
   22.6498  -21.9712  -14.2555 C   0  0  2  0  0  0  0  0  0  0  0  0
   23.9458  -21.3208  -14.1621 N   0  0  0  0  0  0  0  0  0  0  0  0
   22.4623  -22.3131  -15.6723 C   0  0  0  0  0  0  0  0  0  0  0  0
   21.6984  -23.3502  -16.1748 O   0  0  0  0  0  0  0  0  0  0  0  0
   23.0495  -21.6139  -16.5756 O   0  0  0  0  0  0  0  0  0  0  0  0
  2  1  1  1
  3  2  1  0
  4  3  1  0
  5  4  2  0
  6  7  1  0
  6  5  1  0
  7 12  2  0
  8  7  1  0
  8  9  2  0
  9 10  1  0
 10 11  2  0
 12  4  1  0
 12 11  1  0
 13  2  1  0
 14 13  2  0
 16 17  2  0
 16 15  1  0
 18 16  1  0
 19 18  1  0
 20 21  1  0
 20 19  1  6
 21 13  1  0
 22 20  1  0
 23 22  2  0
 25 24  1  1
 25 27  1  0
 26 25  1  0
 28 27  1  6
 28 30  1  0
 28 29  1  0
 29 22  1  0
 30 31  1  0
 32 30  2  0
M  END
$$$$
