WQL.pdb
     RDKit          3D

 32 33  0  0  1  0  0  0  0  0999 V2000
   25.3148  -17.9552  -16.1611 N   0  0  0  0  0  0  0  0  0  0  0  0
   26.2339  -18.2544  -15.0560 C   0  0  1  0  0  0  0  0  0  0  0  0
   27.0935  -17.0432  -14.8755 C   0  0  0  0  0  0  0  0  0  0  0  0
   27.8147  -16.5937  -16.0551 C   0  0  0  0  0  0  0  0  0  0  0  0
   27.6585  -15.3236  -16.6111 C   0  0  0  0  0  0  0  0  0  0  0  0
   28.4149  -15.1929  -17.7073 N   0  0  0  0  0  0  0  0  0  0  0  0
   29.0689  -16.3634  -17.8799 C   0  0  0  0  0  0  0  0  0  0  0  0
   29.9743  -16.7924  -18.8174 C   0  0  0  0  0  0  0  0  0  0  0  0
   30.5318  -18.0371  -18.7925 C   0  0  0  0  0  0  0  0  0  0  0  0
   30.1633  -18.8985  -17.7746 C   0  0  0  0  0  0  0  0  0  0  0  0
   29.2707  -18.5237  -16.8222 C   0  0  0  0  0  0  0  0  0  0  0  0
   28.7158  -17.2455  -16.8722 C   0  0  0  0  0  0  0  0  0  0  0  0
   25.5272  -18.7349  -13.8802 C   0  0  0  0  0  0  0  0  0  0  0  0
   24.6731  -18.0461  -13.2773 O   0  0  0  0  0  0  0  0  0  0  0  0
   21.8974  -20.5875  -12.3921 N   0  0  0  0  0  0  0  0  0  0  0  0
   22.2771  -21.3926  -11.2981 C   0  0  0  0  0  0  0  0  0  0  0  0
   21.4683  -21.4570  -10.3214 O   0  0  0  0  0  0  0  0  0  0  0  0
   23.5613  -22.1362  -11.2770 C   0  0  0  0  0  0  0  0  0  0  0  0
   24.3451  -21.7572  -12.4988 C   0  0  0  0  0  0  0  0  0  0  0  0
   25.1359  -20.5213  -12.2341 C   0  0  2  0  0  0  0  0  0  0  0  0
   25.8073  -20.0241  -13.3906 N   0  0  0  0  0  0  0  0  0  0  0  0
   26.1256  -20.6615  -11.1306 C   0  0  0  0  0  0  0  0  0  0  0  0
   27.1243  -21.3901  -11.3267 O   0  0  0  0  0  0  0  0  0  0  0  0
   28.4452  -18.5725   -5.9814 C   0  0  0  0  0  0  0  0  0  0  0  0
   28.3406  -19.7366   -6.9444 C   0  0  2  0  0  0  0  0  0  0  0  0
   29.5605  -20.5720   -7.0434 C   0  0  0  0  0  0  0  0  0  0  0  0
   27.6241  -19.4752   -8.1945 C   0  0  0  0  0  0  0  0  0  0  0  0
   26.7359  -20.5220   -8.7404 C   0  0  2  0  0  0  0  0  0  0  0  0
   26.0028  -20.0287   -9.8939 N   0  0  0  0  0  0  0  0  0  0  0  0
   25.7260  -20.9778   -7.7753 C   0  0  0  0  0  0  0  0  0  0  0  0
   25.8846  -21.9682   -6.8237 O   0  0  0  0  0  0  0  0  0  0  0  0
   24.5599  -20.4394   -7.7770 O   0  0  0  0  0  0  0  0  0  0  0  0
  2  1  1  6
  3  2  1  0
  4  3  1  0
  5  4  2  0
  6  7  1  0
  6  5  1  0
  7 12  2  0
  8  7  1  0
  8  9  2  0
  9 10  1  0
 10 11  2  0
 12  4  1  0
 12 11  1  0
 13  2  1  0
 14 13  2  0
 16 17  2  0
 16 15  1  0
 18 16  1  0
 19 18  1  0
 20 21  1  0
 20 19  1  6
 21 13  1  0
 22 20  1  0
 23 22  2  0
 25 24  1  6
 25 27  1  0
 26 25  1  0
 28 27  1  1
 28 30  1  0
 28 29  1  0
 29 22  1  0
 30 31  1  0
 32 30  2  0
M  END
$$$$
