WQL.pdb
     RDKit          3D

 32 33  0  0  1  0  0  0  0  0999 V2000
   24.0372  -21.1297   -8.1074 N   0  0  0  0  0  0  0  0  0  0  0  0
   25.0994  -20.5529   -8.9408 C   0  0  1  0  0  0  0  0  0  0  0  0
   26.3966  -21.0433   -8.3793 C   0  0  0  0  0  0  0  0  0  0  0  0
   26.6326  -20.7511   -6.9749 C   0  0  0  0  0  0  0  0  0  0  0  0
   25.9253  -21.3579   -5.9365 C   0  0  0  0  0  0  0  0  0  0  0  0
   26.3225  -20.8777   -4.7523 N   0  0  0  0  0  0  0  0  0  0  0  0
   27.2849  -19.9609   -4.9985 C   0  0  0  0  0  0  0  0  0  0  0  0
   28.0475  -19.1704   -4.1761 C   0  0  0  0  0  0  0  0  0  0  0  0
   28.9922  -18.3067   -4.6475 C   0  0  0  0  0  0  0  0  0  0  0  0
   29.1838  -18.2300   -6.0155 C   0  0  0  0  0  0  0  0  0  0  0  0
   28.4551  -18.9899   -6.8732 C   0  0  0  0  0  0  0  0  0  0  0  0
   27.4955  -19.8641   -6.3640 C   0  0  0  0  0  0  0  0  0  0  0  0
   24.8673  -20.7936  -10.3553 C   0  0  0  0  0  0  0  0  0  0  0  0
   24.9362  -21.9345  -10.8664 O   0  0  0  0  0  0  0  0  0  0  0  0
   22.5886  -21.4899  -14.5649 N   0  0  0  0  0  0  0  0  0  0  0  0
   21.7076  -21.2440  -13.4914 C   0  0  0  0  0  0  0  0  0  0  0  0
   20.7613  -22.0732  -13.3205 O   0  0  0  0  0  0  0  0  0  0  0  0
   21.8684  -20.0726  -12.5945 C   0  0  0  0  0  0  0  0  0  0  0  0
   23.0518  -19.2788  -13.0640 C   0  0  0  0  0  0  0  0  0  0  0  0
   24.3133  -19.9127  -12.5849 C   0  0  2  0  0  0  0  0  0  0  0  0
   24.5531  -19.7078  -11.1936 N   0  0  0  0  0  0  0  0  0  0  0  0
   25.5248  -19.4978  -13.3446 C   0  0  0  0  0  0  0  0  0  0  0  0
   25.8424  -18.2872  -13.3276 O   0  0  0  0  0  0  0  0  0  0  0  0
   29.3885  -19.8361  -12.4004 C   0  0  0  0  0  0  0  0  0  0  0  0
   29.1751  -21.0723  -13.2486 C   0  0  2  0  0  0  0  0  0  0  0  0
   30.2369  -22.0989  -13.1280 C   0  0  0  0  0  0  0  0  0  0  0  0
   28.6336  -20.8465  -14.5903 C   0  0  0  0  0  0  0  0  0  0  0  0
   27.5117  -19.8998  -14.7572 C   0  0  2  0  0  0  0  0  0  0  0  0
   26.3235  -20.3796  -14.0722 N   0  0  0  0  0  0  0  0  0  0  0  0
   27.1273  -19.7079  -16.1623 C   0  0  0  0  0  0  0  0  0  0  0  0
   25.8986  -19.9972  -16.7265 O   0  0  0  0  0  0  0  0  0  0  0  0
   27.9829  -19.2322  -16.9937 O   0  0  0  0  0  0  0  0  0  0  0  0
  2  1  1  1
  3  2  1  0
  4  3  1  0
  5  4  2  0
  6  7  1  0
  6  5  1  0
  7 12  2  0
  8  7  1  0
  8  9  2  0
  9 10  1  0
 10 11  2  0
 12  4  1  0
 12 11  1  0
 13  2  1  0
 14 13  2  0
 16 17  2  0
 16 15  1  0
 18 16  1  0
 19 18  1  0
 20 21  1  0
 20 19  1  6
 21 13  1  0
 22 20  1  0
 23 22  2  0
 25 24  1  6
 25 27  1  0
 26 25  1  0
 28 27  1  6
 28 30  1  0
 28 29  1  0
 29 22  1  0
 30 31  1  0
 32 30  2  0
M  END
$$$$
