WQL.pdb
     RDKit          3D

 32 33  0  0  1  0  0  0  0  0999 V2000
   27.8457  -22.3236  -13.7116 N   0  0  0  0  0  0  0  0  0  0  0  0
   26.6554  -21.7033  -13.1170 C   0  0  1  0  0  0  0  0  0  0  0  0
   27.1007  -20.4019  -12.5284 C   0  0  0  0  0  0  0  0  0  0  0  0
   27.9060  -20.4923  -11.3214 C   0  0  0  0  0  0  0  0  0  0  0  0
   29.2948  -20.6256  -11.3351 C   0  0  0  0  0  0  0  0  0  0  0  0
   29.7712  -20.7206  -10.0881 N   0  0  0  0  0  0  0  0  0  0  0  0
   28.7113  -20.6509   -9.2520 C   0  0  0  0  0  0  0  0  0  0  0  0
   28.6028  -20.6822   -7.8846 C   0  0  0  0  0  0  0  0  0  0  0  0
   27.4081  -20.5790   -7.2344 C   0  0  0  0  0  0  0  0  0  0  0  0
   26.2604  -20.4371   -7.9938 C   0  0  0  0  0  0  0  0  0  0  0  0
   26.3124  -20.4011   -9.3502 C   0  0  0  0  0  0  0  0  0  0  0  0
   27.5472  -20.5092   -9.9890 C   0  0  0  0  0  0  0  0  0  0  0  0
   25.5472  -21.6503  -14.0562 C   0  0  0  0  0  0  0  0  0  0  0  0
   25.6794  -21.2478  -15.2344 O   0  0  0  0  0  0  0  0  0  0  0  0
   23.1090  -26.2730  -15.3052 N   0  0  0  0  0  0  0  0  0  0  0  0
   22.1310  -25.7424  -14.4387 C   0  0  0  0  0  0  0  0  0  0  0  0
   21.3599  -26.5709  -13.8630 O   0  0  0  0  0  0  0  0  0  0  0  0
   21.9986  -24.2834  -14.2015 C   0  0  0  0  0  0  0  0  0  0  0  0
   22.9993  -23.5731  -15.0647 C   0  0  0  0  0  0  0  0  0  0  0  0
   23.2005  -22.1806  -14.5715 C   0  0  2  0  0  0  0  0  0  0  0  0
   24.2701  -22.0643  -13.6346 N   0  0  0  0  0  0  0  0  0  0  0  0
   21.9796  -21.5658  -13.9814 C   0  0  0  0  0  0  0  0  0  0  0  0
   21.8029  -21.6793  -12.7475 O   0  0  0  0  0  0  0  0  0  0  0  0
   20.2464  -19.2232  -16.8266 C   0  0  0  0  0  0  0  0  0  0  0  0
   19.6500  -18.3461  -15.7458 C   0  0  2  0  0  0  0  0  0  0  0  0
   19.7326  -16.8906  -16.0115 C   0  0  0  0  0  0  0  0  0  0  0  0
   19.8893  -18.7732  -14.3656 C   0  0  0  0  0  0  0  0  0  0  0  0
   19.9100  -20.2183  -14.0591 C   0  0  2  0  0  0  0  0  0  0  0  0
   21.0242  -20.8724  -14.7240 N   0  0  0  0  0  0  0  0  0  0  0  0
   18.6969  -20.9168  -14.5059 C   0  0  0  0  0  0  0  0  0  0  0  0
   17.4263  -20.7795  -13.9784 O   0  0  0  0  0  0  0  0  0  0  0  0
   18.7697  -21.7545  -15.4768 O   0  0  0  0  0  0  0  0  0  0  0  0
  2  1  1  6
  3  2  1  0
  4  3  1  0
  5  4  2  0
  6  7  1  0
  6  5  1  0
  7 12  2  0
  8  7  1  0
  8  9  2  0
  9 10  1  0
 10 11  2  0
 12  4  1  0
 12 11  1  0
 13  2  1  0
 14 13  2  0
 16 17  2  0
 16 15  1  0
 18 16  1  0
 19 18  1  0
 20 21  1  0
 20 19  1  1
 21 13  1  0
 22 20  1  0
 23 22  2  0
 25 24  1  6
 25 27  1  0
 26 25  1  0
 28 27  1  6
 28 30  1  0
 28 29  1  0
 29 22  1  0
 30 31  1  0
 32 30  2  0
M  END
$$$$
