WRR.pdb
     RDKit          3D

 37 38  0  0  1  0  0  0  0  0999 V2000
   22.9109  -18.4987  -17.0838 N   0  0  0  0  0  0  0  0  0  0  0  0
   21.7799  -18.1975  -16.2832 C   0  0  1  0  0  0  0  0  0  0  0  0
   20.5134  -17.8731  -17.0203 C   0  0  0  0  0  0  0  0  0  0  0  0
   20.5901  -16.7081  -17.9113 C   0  0  0  0  0  0  0  0  0  0  0  0
   20.9768  -16.6365  -19.2333 C   0  0  0  0  0  0  0  0  0  0  0  0
   20.9174  -15.3752  -19.6183 N   0  0  0  0  0  0  0  0  0  0  0  0
   20.5013  -14.5661  -18.6072 C   0  0  0  0  0  0  0  0  0  0  0  0
   20.2880  -13.2084  -18.5379 C   0  0  0  0  0  0  0  0  0  0  0  0
   19.8523  -12.6608  -17.3575 C   0  0  0  0  0  0  0  0  0  0  0  0
   19.6405  -13.4755  -16.2805 C   0  0  0  0  0  0  0  0  0  0  0  0
   19.8494  -14.8286  -16.3375 C   0  0  0  0  0  0  0  0  0  0  0  0
   20.2919  -15.4209  -17.5156 C   0  0  0  0  0  0  0  0  0  0  0  0
   21.4863  -19.3040  -15.2936 C   0  0  0  0  0  0  0  0  0  0  0  0
   21.4708  -20.4868  -15.6947 O   0  0  0  0  0  0  0  0  0  0  0  0
   18.4792  -21.4532   -9.2384 N   0  0  0  0  0  0  0  0  0  0  0  0
   19.4094  -21.7054   -8.1637 C   0  0  0  0  0  0  0  0  0  0  0  0
   19.1365  -22.5624   -7.2543 N   0  0  0  0  0  0  0  0  0  0  0  0
   20.6482  -21.0140   -8.0942 N   0  0  0  0  0  0  0  0  0  0  0  0
   21.0615  -20.0641   -9.1096 C   0  0  0  0  0  0  0  0  0  0  0  0
   20.8428  -20.6218  -10.5022 C   0  0  0  0  0  0  0  0  0  0  0  0
   21.1755  -19.6495  -11.5742 C   0  0  0  0  0  0  0  0  0  0  0  0
   20.8874  -20.0495  -12.9646 C   0  0  2  0  0  0  0  0  0  0  0  0
   21.2303  -19.0147  -13.9198 N   0  0  0  0  0  0  0  0  0  0  0  0
   19.5500  -20.6486  -13.2070 C   0  0  0  0  0  0  0  0  0  0  0  0
   18.5610  -19.8800  -13.2361 O   0  0  0  0  0  0  0  0  0  0  0  0
   19.8096  -22.8064   -6.5096 N   0  0  0  0  0  0  0  0  0  0  0  0
   21.4989  -27.0178  -12.7411 C   0  0  0  0  0  0  0  0  0  0  0  0
   20.3951  -27.5545  -12.0099 N   0  0  0  0  0  0  0  0  0  0  0  0
   20.6067  -28.3066  -10.9895 N   0  0  0  0  0  0  0  0  0  0  0  0
   19.0512  -27.2815  -12.3743 C   0  0  0  0  0  0  0  0  0  0  0  0
   18.6831  -26.3265  -13.3667 C   0  0  0  0  0  0  0  0  0  0  0  0
   18.5495  -24.9000  -12.8147 C   0  0  0  0  0  0  0  0  0  0  0  0
   18.2372  -24.0409  -13.9928 C   0  0  1  0  0  0  0  0  0  0  0  0
   17.9687  -22.5884  -13.6685 N   0  0  0  0  0  0  0  0  0  0  0  0
   19.3089  -22.0272  -13.4071 C   0  0  0  0  0  0  0  0  0  0  0  0
   17.1279  -22.4690  -12.4489 O   0  0  0  0  0  0  0  0  0  0  0  0
   15.7426  -22.4767  -12.5262 O   0  0  0  0  0  0  0  0  0  0  0  0
  2  1  1  6
  2  3  1  0
  3  4  1  0
  4 12  1  0
  4  5  2  0
  5  6  1  0
  7  6  1  0
  7  8  2  0
  9  8  1  0
 10  9  2  0
 11 12  2  0
 11 10  1  0
 12  7  1  0
 13  2  1  0
 14 13  2  0
 15 16  1  0
 16 18  1  0
 17 16  2  0
 18 19  1  0
 19 20  1  0
 20 21  1  0
 22 21  1  1
 22 24  1  0
 22 23  1  0
 23 13  1  0
 24 34  1  0
 25 24  2  0
 27 29  1  0
 27 26  1  0
 28 27  2  0
 30 31  1  0
 30 29  1  0
 32 31  1  0
 33 32  1  6
 34 33  1  0
 35 36  1  0
 35 33  1  0
 37 35  2  0
M  END
$$$$
