WRR.pdb
     RDKit          3D

 37 38  0  0  1  0  0  0  0  0999 V2000
   25.0009  -19.8966  -17.5940 N   0  0  0  0  0  0  0  0  0  0  0  0
   25.5613  -19.2646  -16.4549 C   0  0  1  0  0  0  0  0  0  0  0  0
   24.6791  -18.2832  -15.7402 C   0  0  0  0  0  0  0  0  0  0  0  0
   24.5259  -16.9821  -16.4040 C   0  0  0  0  0  0  0  0  0  0  0  0
   23.4793  -16.4998  -17.1619 C   0  0  0  0  0  0  0  0  0  0  0  0
   23.7914  -15.2879  -17.5821 N   0  0  0  0  0  0  0  0  0  0  0  0
   25.0215  -14.9104  -17.1408 C   0  0  0  0  0  0  0  0  0  0  0  0
   25.7529  -13.7581  -17.3161 C   0  0  0  0  0  0  0  0  0  0  0  0
   26.9909  -13.6583  -16.7326 C   0  0  0  0  0  0  0  0  0  0  0  0
   27.4671  -14.7039  -15.9920 C   0  0  0  0  0  0  0  0  0  0  0  0
   26.7481  -15.8561  -15.8104 C   0  0  0  0  0  0  0  0  0  0  0  0
   25.4899  -15.9957  -16.3866 C   0  0  0  0  0  0  0  0  0  0  0  0
   26.0655  -20.2753  -15.4478 C   0  0  0  0  0  0  0  0  0  0  0  0
   25.2929  -21.1738  -15.0530 O   0  0  0  0  0  0  0  0  0  0  0  0
   31.1213  -24.0041  -10.2793 N   0  0  0  0  0  0  0  0  0  0  0  0
   30.9827  -22.8028   -9.4911 C   0  0  0  0  0  0  0  0  0  0  0  0
   31.4054  -22.7635   -8.2846 N   0  0  0  0  0  0  0  0  0  0  0  0
   30.3805  -21.6380  -10.0370 N   0  0  0  0  0  0  0  0  0  0  0  0
   29.9482  -21.5666  -11.4198 C   0  0  0  0  0  0  0  0  0  0  0  0
   29.4835  -20.1683  -11.7764 C   0  0  0  0  0  0  0  0  0  0  0  0
   29.0790  -20.0380  -13.1994 C   0  0  0  0  0  0  0  0  0  0  0  0
   27.7185  -20.4797  -13.5598 C   0  0  2  0  0  0  0  0  0  0  0  0
   27.4012  -20.2148  -14.9491 N   0  0  0  0  0  0  0  0  0  0  0  0
   26.6343  -20.0801  -12.6264 C   0  0  0  0  0  0  0  0  0  0  0  0
   26.5325  -18.8664  -12.3329 O   0  0  0  0  0  0  0  0  0  0  0  0
   31.3386  -21.9099   -7.7066 N   0  0  0  0  0  0  0  0  0  0  0  0
   18.6753  -23.1706  -11.7029 C   0  0  0  0  0  0  0  0  0  0  0  0
   18.7440  -22.0325  -10.8418 N   0  0  0  0  0  0  0  0  0  0  0  0
   17.6634  -21.4501  -10.4615 N   0  0  0  0  0  0  0  0  0  0  0  0
   19.9824  -21.5143  -10.3823 C   0  0  0  0  0  0  0  0  0  0  0  0
   21.2495  -22.0241  -10.7913 C   0  0  0  0  0  0  0  0  0  0  0  0
   22.4334  -21.2103  -10.2495 C   0  0  0  0  0  0  0  0  0  0  0  0
   23.5068  -21.3295  -11.2776 C   0  0  1  0  0  0  0  0  0  0  0  0
   24.7835  -20.5861  -10.9546 N   0  0  0  0  0  0  0  0  0  0  0  0
   25.7056  -20.9711  -12.0413 C   0  0  0  0  0  0  0  0  0  0  0  0
   25.3343  -21.0308   -9.6478 O   0  0  0  0  0  0  0  0  0  0  0  0
   25.0630  -20.3352   -8.4783 O   0  0  0  0  0  0  0  0  0  0  0  0
  2  1  1  6
  2  3  1  0
  3  4  1  0
  4 12  1  0
  4  5  2  0
  5  6  1  0
  7  6  1  0
  7  8  2  0
  9  8  1  0
 10  9  2  0
 11 12  2  0
 11 10  1  0
 12  7  1  0
 13  2  1  0
 14 13  2  0
 15 16  1  0
 16 18  1  0
 17 16  2  0
 18 19  1  0
 19 20  1  0
 20 21  1  0
 22 21  1  1
 22 24  1  0
 22 23  1  0
 23 13  1  0
 24 34  1  0
 25 24  2  0
 27 29  1  0
 27 26  1  0
 28 27  2  0
 30 31  1  0
 30 29  1  0
 32 31  1  0
 33 32  1  6
 34 33  1  0
 35 36  1  0
 35 33  1  0
 37 35  2  0
M  END
$$$$
