WRR.pdb
     RDKit          3D

 37 38  0  0  1  0  0  0  0  0999 V2000
   23.1664  -16.2820  -17.6266 N   0  0  0  0  0  0  0  0  0  0  0  0
   23.6133  -17.4170  -18.3497 C   0  0  1  0  0  0  0  0  0  0  0  0
   24.8292  -17.2200  -19.2072 C   0  0  0  0  0  0  0  0  0  0  0  0
   24.7796  -16.0579  -20.1038 C   0  0  0  0  0  0  0  0  0  0  0  0
   25.5632  -14.9229  -20.1159 C   0  0  0  0  0  0  0  0  0  0  0  0
   25.1380  -14.1318  -21.0834 N   0  0  0  0  0  0  0  0  0  0  0  0
   24.0838  -14.6795  -21.7458 C   0  0  0  0  0  0  0  0  0  0  0  0
   23.3271  -14.2360  -22.8062 C   0  0  0  0  0  0  0  0  0  0  0  0
   22.3073  -15.0257  -23.2747 C   0  0  0  0  0  0  0  0  0  0  0  0
   22.0680  -16.2322  -22.6783 C   0  0  0  0  0  0  0  0  0  0  0  0
   22.8146  -16.6843  -21.6220 C   0  0  0  0  0  0  0  0  0  0  0  0
   23.8561  -15.9123  -21.1179 C   0  0  0  0  0  0  0  0  0  0  0  0
   23.8591  -18.5987  -17.4369 C   0  0  0  0  0  0  0  0  0  0  0  0
   24.9485  -19.2050  -17.5113 O   0  0  0  0  0  0  0  0  0  0  0  0
   24.1293  -20.0299   -9.4124 N   0  0  0  0  0  0  0  0  0  0  0  0
   24.9025  -20.5879  -10.4963 C   0  0  0  0  0  0  0  0  0  0  0  0
   26.1538  -20.8120  -10.3552 N   0  0  0  0  0  0  0  0  0  0  0  0
   24.2924  -20.9053  -11.7391 N   0  0  0  0  0  0  0  0  0  0  0  0
   22.8670  -20.7550  -11.9616 C   0  0  0  0  0  0  0  0  0  0  0  0
   22.4898  -21.1453  -13.3771 C   0  0  0  0  0  0  0  0  0  0  0  0
   22.4576  -19.9884  -14.3076 C   0  0  0  0  0  0  0  0  0  0  0  0
   23.0675  -20.1724  -15.6381 C   0  0  2  0  0  0  0  0  0  0  0  0
   22.8700  -19.0241  -16.5003 N   0  0  0  0  0  0  0  0  0  0  0  0
   22.7838  -21.4651  -16.3126 C   0  0  0  0  0  0  0  0  0  0  0  0
   21.6335  -21.6434  -16.7758 O   0  0  0  0  0  0  0  0  0  0  0  0
   26.7465  -21.1310  -11.1388 N   0  0  0  0  0  0  0  0  0  0  0  0
   27.7025  -27.7357  -18.1079 C   0  0  0  0  0  0  0  0  0  0  0  0
   27.3492  -27.4611  -16.7510 N   0  0  0  0  0  0  0  0  0  0  0  0
   28.2301  -27.5785  -15.8227 N   0  0  0  0  0  0  0  0  0  0  0  0
   26.0397  -27.0551  -16.3852 C   0  0  0  0  0  0  0  0  0  0  0  0
   24.9533  -26.9790  -17.3052 C   0  0  0  0  0  0  0  0  0  0  0  0
   24.8809  -25.6369  -18.0474 C   0  0  0  0  0  0  0  0  0  0  0  0
   24.6673  -24.6052  -16.9921 C   0  0  2  0  0  0  0  0  0  0  0  0
   23.4045  -23.7877  -17.1470 N   0  0  0  0  0  0  0  0  0  0  0  0
   23.7187  -22.5138  -16.4703 C   0  0  0  0  0  0  0  0  0  0  0  0
   22.2626  -24.4503  -16.4645 O   0  0  0  0  0  0  0  0  0  0  0  0
   21.2544  -25.0715  -17.1874 O   0  0  0  0  0  0  0  0  0  0  0  0
  2  1  1  1
  2  3  1  0
  3  4  1  0
  4 12  1  0
  4  5  2  0
  5  6  1  0
  7  6  1  0
  7  8  2  0
  9  8  1  0
 10  9  2  0
 11 12  2  0
 11 10  1  0
 12  7  1  0
 13  2  1  0
 14 13  2  0
 15 16  1  0
 16 18  1  0
 17 16  2  0
 18 19  1  0
 19 20  1  0
 20 21  1  0
 22 21  1  1
 22 24  1  0
 22 23  1  0
 23 13  1  0
 24 34  1  0
 25 24  2  0
 27 29  1  0
 27 26  1  0
 28 27  2  0
 30 31  1  0
 30 29  1  0
 32 31  1  0
 33 32  1  6
 34 33  1  0
 35 36  1  0
 35 33  1  0
 37 35  2  0
M  END
$$$$
