WRR.pdb
     RDKit          3D

 37 38  0  0  1  0  0  0  0  0999 V2000
   24.8458  -21.2973   -8.8594 N   0  0  0  0  0  0  0  0  0  0  0  0
   24.8778  -21.1522  -10.2696 C   0  0  1  0  0  0  0  0  0  0  0  0
   23.7255  -20.4144  -10.8864 C   0  0  0  0  0  0  0  0  0  0  0  0
   22.4521  -21.1459  -10.9025 C   0  0  0  0  0  0  0  0  0  0  0  0
   21.3463  -21.0035  -10.0906 C   0  0  0  0  0  0  0  0  0  0  0  0
   20.4443  -21.8970  -10.4525 N   0  0  0  0  0  0  0  0  0  0  0  0
   20.8862  -22.6567  -11.4906 C   0  0  0  0  0  0  0  0  0  0  0  0
   20.3068  -23.6882  -12.1935 C   0  0  0  0  0  0  0  0  0  0  0  0
   21.0071  -24.2734  -13.2182 C   0  0  0  0  0  0  0  0  0  0  0  0
   22.2612  -23.8185  -13.5163 C   0  0  0  0  0  0  0  0  0  0  0  0
   22.8484  -22.7923  -12.8236 C   0  0  0  0  0  0  0  0  0  0  0  0
   22.1711  -22.1743  -11.7776 C   0  0  0  0  0  0  0  0  0  0  0  0
   26.1637  -20.5040  -10.7347 C   0  0  0  0  0  0  0  0  0  0  0  0
   26.5492  -19.4550  -10.1770 O   0  0  0  0  0  0  0  0  0  0  0  0
   33.1503  -23.5286  -10.4668 N   0  0  0  0  0  0  0  0  0  0  0  0
   32.6747  -23.3783  -11.8215 C   0  0  0  0  0  0  0  0  0  0  0  0
   32.9439  -24.2606  -12.7075 N   0  0  0  0  0  0  0  0  0  0  0  0
   31.8945  -22.2533  -12.1997 N   0  0  0  0  0  0  0  0  0  0  0  0
   31.4495  -21.2625  -11.2383 C   0  0  0  0  0  0  0  0  0  0  0  0
   29.9370  -21.2371  -11.1387 C   0  0  0  0  0  0  0  0  0  0  0  0
   29.2732  -21.0498  -12.4539 C   0  0  0  0  0  0  0  0  0  0  0  0
   27.9838  -20.3333  -12.4658 C   0  0  2  0  0  0  0  0  0  0  0  0
   26.9344  -21.0726  -11.7926 N   0  0  0  0  0  0  0  0  0  0  0  0
   27.5587  -19.7773  -13.7760 C   0  0  0  0  0  0  0  0  0  0  0  0
   27.1552  -20.5800  -14.6492 O   0  0  0  0  0  0  0  0  0  0  0  0
   32.6356  -24.1655  -13.6888 N   0  0  0  0  0  0  0  0  0  0  0  0
   23.7173  -12.5702  -15.9308 C   0  0  0  0  0  0  0  0  0  0  0  0
   24.5673  -12.6724  -17.0746 N   0  0  0  0  0  0  0  0  0  0  0  0
   24.4328  -11.8457  -18.0493 N   0  0  0  0  0  0  0  0  0  0  0  0
   25.5725  -13.6688  -17.1744 C   0  0  0  0  0  0  0  0  0  0  0  0
   25.8062  -14.6545  -16.1712 C   0  0  0  0  0  0  0  0  0  0  0  0
   26.9617  -15.6058  -16.5142 C   0  0  0  0  0  0  0  0  0  0  0  0
   27.2250  -16.3832  -15.2693 C   0  0  1  0  0  0  0  0  0  0  0  0
   27.1637  -17.8855  -15.4317 N   0  0  0  0  0  0  0  0  0  0  0  0
   27.5767  -18.4043  -14.1127 C   0  0  0  0  0  0  0  0  0  0  0  0
   28.1216  -18.3411  -16.4727 O   0  0  0  0  0  0  0  0  0  0  0  0
   27.6799  -18.8060  -17.7031 O   0  0  0  0  0  0  0  0  0  0  0  0
  2  1  1  1
  2  3  1  0
  3  4  1  0
  4 12  1  0
  4  5  2  0
  5  6  1  0
  7  6  1  0
  7  8  2  0
  9  8  1  0
 10  9  2  0
 11 12  2  0
 11 10  1  0
 12  7  1  0
 13  2  1  0
 14 13  2  0
 15 16  1  0
 16 18  1  0
 17 16  2  0
 18 19  1  0
 19 20  1  0
 20 21  1  0
 22 21  1  6
 22 24  1  0
 22 23  1  0
 23 13  1  0
 24 34  1  0
 25 24  2  0
 27 29  1  0
 27 26  1  0
 28 27  2  0
 30 31  1  0
 30 29  1  0
 32 31  1  0
 33 32  1  1
 34 33  1  0
 35 36  1  0
 35 33  1  0
 37 35  2  0
M  END
$$$$
