WRR.pdb
     RDKit          3D

 37 38  0  0  1  0  0  0  0  0999 V2000
   28.1862  -21.6369   -9.1747 N   0  0  0  0  0  0  0  0  0  0  0  0
   26.8517  -21.1631   -9.1021 C   0  0  1  0  0  0  0  0  0  0  0  0
   26.5957  -20.0496   -8.1290 C   0  0  0  0  0  0  0  0  0  0  0  0
   27.0039  -20.3232   -6.7450 C   0  0  0  0  0  0  0  0  0  0  0  0
   26.3759  -21.0778   -5.7762 C   0  0  0  0  0  0  0  0  0  0  0  0
   27.0933  -21.0178   -4.6696 N   0  0  0  0  0  0  0  0  0  0  0  0
   28.2009  -20.2462   -4.8367 C   0  0  0  0  0  0  0  0  0  0  0  0
   29.2249  -19.9021   -3.9842 C   0  0  0  0  0  0  0  0  0  0  0  0
   30.2334  -19.0938   -4.4449 C   0  0  0  0  0  0  0  0  0  0  0  0
   30.1974  -18.6505   -5.7375 C   0  0  0  0  0  0  0  0  0  0  0  0
   29.1831  -18.9864   -6.5955 C   0  0  0  0  0  0  0  0  0  0  0  0
   28.1423  -19.8028   -6.1656 C   0  0  0  0  0  0  0  0  0  0  0  0
   26.3357  -20.7388  -10.4599 C   0  0  0  0  0  0  0  0  0  0  0  0
   26.7924  -19.7012  -10.9840 O   0  0  0  0  0  0  0  0  0  0  0  0
   27.3677  -24.8448  -17.3662 N   0  0  0  0  0  0  0  0  0  0  0  0
   27.9724  -24.0251  -16.3434 C   0  0  0  0  0  0  0  0  0  0  0  0
   29.2233  -24.1153  -16.0921 N   0  0  0  0  0  0  0  0  0  0  0  0
   27.1960  -23.0982  -15.5981 N   0  0  0  0  0  0  0  0  0  0  0  0
   25.7821  -22.8949  -15.8503 C   0  0  0  0  0  0  0  0  0  0  0  0
   25.2057  -21.8454  -14.9204 C   0  0  0  0  0  0  0  0  0  0  0  0
   25.5004  -22.1147  -13.4900 C   0  0  0  0  0  0  0  0  0  0  0  0
   24.9234  -21.1917  -12.4943 C   0  0  2  0  0  0  0  0  0  0  0  0
   25.3432  -21.5039  -11.1426 N   0  0  0  0  0  0  0  0  0  0  0  0
   23.4644  -20.9377  -12.6091 C   0  0  0  0  0  0  0  0  0  0  0  0
   22.6946  -21.6095  -11.8839 O   0  0  0  0  0  0  0  0  0  0  0  0
   29.6687  -23.5875  -15.3239 N   0  0  0  0  0  0  0  0  0  0  0  0
   18.3606  -20.3856  -17.5105 C   0  0  0  0  0  0  0  0  0  0  0  0
   18.0172  -19.0368  -17.8332 N   0  0  0  0  0  0  0  0  0  0  0  0
   16.9166  -18.7846  -18.4471 N   0  0  0  0  0  0  0  0  0  0  0  0
   18.8602  -17.9472  -17.4935 C   0  0  0  0  0  0  0  0  0  0  0  0
   20.0821  -18.0920  -16.7734 C   0  0  0  0  0  0  0  0  0  0  0  0
   19.9521  -18.9887  -15.5338 C   0  0  0  0  0  0  0  0  0  0  0  0
   21.2854  -18.9486  -14.8673 C   0  0  1  0  0  0  0  0  0  0  0  0
   21.4190  -19.8437  -13.6557 N   0  0  0  0  0  0  0  0  0  0  0  0
   22.8773  -19.9913  -13.4799 C   0  0  0  0  0  0  0  0  0  0  0  0
   20.8075  -21.1733  -13.9147 O   0  0  0  0  0  0  0  0  0  0  0  0
   19.5974  -21.5333  -13.3390 O   0  0  0  0  0  0  0  0  0  0  0  0
  2  1  1  6
  2  3  1  0
  3  4  1  0
  4 12  1  0
  4  5  2  0
  5  6  1  0
  7  6  1  0
  7  8  2  0
  9  8  1  0
 10  9  2  0
 11 12  2  0
 11 10  1  0
 12  7  1  0
 13  2  1  0
 14 13  2  0
 15 16  1  0
 16 18  1  0
 17 16  2  0
 18 19  1  0
 19 20  1  0
 20 21  1  0
 22 21  1  6
 22 24  1  0
 22 23  1  0
 23 13  1  0
 24 34  1  0
 25 24  2  0
 27 29  1  0
 27 26  1  0
 28 27  2  0
 30 31  1  0
 30 29  1  0
 32 31  1  0
 33 32  1  1
 34 33  1  0
 35 36  1  0
 35 33  1  0
 37 35  2  0
M  END
$$$$
