WRR.pdb
     RDKit          3D

 37 38  0  0  1  0  0  0  0  0999 V2000
   28.5859  -21.1251  -13.5479 N   0  0  0  0  0  0  0  0  0  0  0  0
   27.5351  -21.1871  -12.5978 C   0  0  1  0  0  0  0  0  0  0  0  0
   27.4020  -20.0080  -11.6788 C   0  0  0  0  0  0  0  0  0  0  0  0
   28.3116  -20.0089  -10.5257 C   0  0  0  0  0  0  0  0  0  0  0  0
   29.6730  -20.2253  -10.4802 C   0  0  0  0  0  0  0  0  0  0  0  0
   30.0647  -20.1592   -9.2212 N   0  0  0  0  0  0  0  0  0  0  0  0
   29.0200  -19.9033   -8.3886 C   0  0  0  0  0  0  0  0  0  0  0  0
   28.9429  -19.7462   -7.0236 C   0  0  0  0  0  0  0  0  0  0  0  0
   27.7242  -19.4837   -6.4501 C   0  0  0  0  0  0  0  0  0  0  0  0
   26.6178  -19.3844   -7.2466 C   0  0  0  0  0  0  0  0  0  0  0  0
   26.6822  -19.5390   -8.6067 C   0  0  0  0  0  0  0  0  0  0  0  0
   27.8989  -19.8069   -9.2252 C   0  0  0  0  0  0  0  0  0  0  0  0
   26.1967  -21.4289  -13.2613 C   0  0  0  0  0  0  0  0  0  0  0  0
   25.7638  -20.5869  -14.0759 O   0  0  0  0  0  0  0  0  0  0  0  0
   19.3943  -24.7125  -14.7001 N   0  0  0  0  0  0  0  0  0  0  0  0
   19.9299  -25.5826  -15.7198 C   0  0  0  0  0  0  0  0  0  0  0  0
   19.2924  -25.7752  -16.8117 N   0  0  0  0  0  0  0  0  0  0  0  0
   21.1762  -26.2391  -15.5372 N   0  0  0  0  0  0  0  0  0  0  0  0
   22.0909  -25.8789  -14.4707 C   0  0  0  0  0  0  0  0  0  0  0  0
   22.9638  -24.7059  -14.8712 C   0  0  0  0  0  0  0  0  0  0  0  0
   23.9245  -24.3102  -13.8101 C   0  0  0  0  0  0  0  0  0  0  0  0
   24.1608  -22.8673  -13.6144 C   0  0  2  0  0  0  0  0  0  0  0  0
   25.4309  -22.5974  -12.9704 N   0  0  0  0  0  0  0  0  0  0  0  0
   23.0340  -22.0952  -13.0306 C   0  0  0  0  0  0  0  0  0  0  0  0
   22.8395  -22.1864  -11.7963 O   0  0  0  0  0  0  0  0  0  0  0  0
   19.6460  -26.4045  -17.5507 N   0  0  0  0  0  0  0  0  0  0  0  0
   19.0517  -15.6072  -17.0314 C   0  0  0  0  0  0  0  0  0  0  0  0
   19.3503  -15.3689  -15.6546 N   0  0  0  0  0  0  0  0  0  0  0  0
   19.5864  -14.1731  -15.2474 N   0  0  0  0  0  0  0  0  0  0  0  0
   19.3947  -16.4218  -14.7045 C   0  0  0  0  0  0  0  0  0  0  0  0
   19.1807  -17.7916  -15.0368 C   0  0  0  0  0  0  0  0  0  0  0  0
   19.3968  -18.7434  -13.8515 C   0  0  0  0  0  0  0  0  0  0  0  0
   20.5785  -19.5768  -14.2158 C   0  0  2  0  0  0  0  0  0  0  0  0
   20.9780  -20.6029  -13.1792 N   0  0  0  0  0  0  0  0  0  0  0  0
   22.1605  -21.2626  -13.7672 C   0  0  0  0  0  0  0  0  0  0  0  0
   19.8936  -21.5997  -12.9813 O   0  0  0  0  0  0  0  0  0  0  0  0
   19.0589  -21.5449  -11.8743 O   0  0  0  0  0  0  0  0  0  0  0  0
  2  1  1  6
  2  3  1  0
  3  4  1  0
  4 12  1  0
  4  5  2  0
  5  6  1  0
  7  6  1  0
  7  8  2  0
  9  8  1  0
 10  9  2  0
 11 12  2  0
 11 10  1  0
 12  7  1  0
 13  2  1  0
 14 13  2  0
 15 16  1  0
 16 18  1  0
 17 16  2  0
 18 19  1  0
 19 20  1  0
 20 21  1  0
 22 21  1  1
 22 24  1  0
 22 23  1  0
 23 13  1  0
 24 34  1  0
 25 24  2  0
 27 29  1  0
 27 26  1  0
 28 27  2  0
 30 31  1  0
 30 29  1  0
 32 31  1  0
 33 32  1  1
 34 33  1  0
 35 36  1  0
 35 33  1  0
 37 35  2  0
M  END
$$$$
