WRR.pdb
     RDKit          3D

 37 38  0  0  1  0  0  0  0  0999 V2000
   28.6031  -21.5008  -15.0105 N   0  0  0  0  0  0  0  0  0  0  0  0
   27.8609  -21.3218  -13.8156 C   0  0  1  0  0  0  0  0  0  0  0  0
   28.0878  -20.0329  -13.0811 C   0  0  0  0  0  0  0  0  0  0  0  0
   29.3306  -19.9687  -12.3012 C   0  0  0  0  0  0  0  0  0  0  0  0
   30.5569  -19.4383  -12.6436 C   0  0  0  0  0  0  0  0  0  0  0  0
   31.3911  -19.6318  -11.6389 N   0  0  0  0  0  0  0  0  0  0  0  0
   30.7851  -20.2794  -10.6076 C   0  0  0  0  0  0  0  0  0  0  0  0
   31.2425  -20.6861   -9.3751 C   0  0  0  0  0  0  0  0  0  0  0  0
   30.3802  -21.3273   -8.5218 C   0  0  0  0  0  0  0  0  0  0  0  0
   29.0895  -21.5460   -8.9152 C   0  0  0  0  0  0  0  0  0  0  0  0
   28.6227  -21.1457  -10.1398 C   0  0  0  0  0  0  0  0  0  0  0  0
   29.4663  -20.4938  -11.0330 C   0  0  0  0  0  0  0  0  0  0  0  0
   26.3748  -21.4811  -14.0528 C   0  0  0  0  0  0  0  0  0  0  0  0
   25.9070  -21.1969  -15.1755 O   0  0  0  0  0  0  0  0  0  0  0  0
   19.3005  -24.9871  -14.9259 N   0  0  0  0  0  0  0  0  0  0  0  0
   20.3312  -24.6054  -15.8618 C   0  0  0  0  0  0  0  0  0  0  0  0
   20.0275  -24.2183  -17.0424 N   0  0  0  0  0  0  0  0  0  0  0  0
   21.7022  -24.6453  -15.4928 N   0  0  0  0  0  0  0  0  0  0  0  0
   22.1390  -25.1071  -14.1889 C   0  0  0  0  0  0  0  0  0  0  0  0
   22.2905  -23.9501  -13.2210 C   0  0  0  0  0  0  0  0  0  0  0  0
   23.7080  -23.5795  -12.9790 C   0  0  0  0  0  0  0  0  0  0  0  0
   24.0966  -22.1809  -13.2413 C   0  0  2  0  0  0  0  0  0  0  0  0
   25.5099  -21.9487  -13.0186 N   0  0  0  0  0  0  0  0  0  0  0  0
   23.2303  -21.1384  -12.6336 C   0  0  0  0  0  0  0  0  0  0  0  0
   22.6037  -21.4338  -11.5897 O   0  0  0  0  0  0  0  0  0  0  0  0
   20.7444  -23.9254  -17.7259 N   0  0  0  0  0  0  0  0  0  0  0  0
   22.3130  -15.3284  -18.8324 C   0  0  0  0  0  0  0  0  0  0  0  0
   21.0438  -15.3991  -18.1801 N   0  0  0  0  0  0  0  0  0  0  0  0
   20.1753  -14.4700  -18.3647 N   0  0  0  0  0  0  0  0  0  0  0  0
   20.7010  -16.4767  -17.3229 C   0  0  0  0  0  0  0  0  0  0  0  0
   21.5956  -17.5372  -16.9950 C   0  0  0  0  0  0  0  0  0  0  0  0
   21.0051  -18.5401  -15.9936 C   0  0  0  0  0  0  0  0  0  0  0  0
   22.1504  -18.9868  -15.1496 C   0  0  1  0  0  0  0  0  0  0  0  0
   21.7899  -19.3472  -13.7258 N   0  0  0  0  0  0  0  0  0  0  0  0
   23.0587  -19.8329  -13.1483 C   0  0  0  0  0  0  0  0  0  0  0  0
   20.7775  -20.4349  -13.6994 O   0  0  0  0  0  0  0  0  0  0  0  0
   19.5094  -20.2252  -13.1768 O   0  0  0  0  0  0  0  0  0  0  0  0
  2  1  1  6
  2  3  1  0
  3  4  1  0
  4 12  1  0
  4  5  2  0
  5  6  1  0
  7  6  1  0
  7  8  2  0
  9  8  1  0
 10  9  2  0
 11 12  2  0
 11 10  1  0
 12  7  1  0
 13  2  1  0
 14 13  2  0
 15 16  1  0
 16 18  1  0
 17 16  2  0
 18 19  1  0
 19 20  1  0
 20 21  1  0
 22 21  1  1
 22 24  1  0
 22 23  1  0
 23 13  1  0
 24 34  1  0
 25 24  2  0
 27 29  1  0
 27 26  1  0
 28 27  2  0
 30 31  1  0
 30 29  1  0
 32 31  1  0
 33 32  1  1
 34 33  1  0
 35 36  1  0
 35 33  1  0
 37 35  2  0
M  END
$$$$
