EPE.pdb
     RDKit          3D

 26 26  0  0  1  0  0  0  0  0999 V2000
   18.9468  -12.8563  -16.9819 N   0  0  0  0  0  0  0  0  0  0  0  0
   20.2286  -12.2194  -17.0528 C   0  0  1  0  0  0  0  0  0  0  0  0
   20.4723  -11.8397  -18.4862 C   0  0  0  0  0  0  0  0  0  0  0  0
   20.4076  -12.9869  -19.4410 C   0  0  0  0  0  0  0  0  0  0  0  0
   20.6751  -12.5298  -20.8494 C   0  0  0  0  0  0  0  0  0  0  0  0
   21.7147  -12.8843  -21.4837 O   0  0  0  0  0  0  0  0  0  0  0  0
   20.4196  -11.1523  -16.0762 C   0  0  0  0  0  0  0  0  0  0  0  0
   19.4389  -10.4158  -15.7300 O   0  0  0  0  0  0  0  0  0  0  0  0
   19.7821  -11.6914  -21.5219 O   0  0  0  0  0  0  0  0  0  0  0  0
   21.6739  -10.8303  -15.4304 N   0  0  0  0  0  0  0  0  0  0  0  0
   22.9073  -11.5134  -15.7060 C   0  0  0  0  0  0  0  0  0  0  0  0
   23.8414  -11.1393  -14.5904 C   0  0  0  0  0  0  0  0  0  0  0  0
   22.9566  -10.4020  -13.5684 C   0  0  0  0  0  0  0  0  0  0  0  0
   21.9296   -9.8139  -14.4689 C   0  0  1  0  0  0  0  0  0  0  0  0
   22.2894   -8.5060  -15.0607 C   0  0  0  0  0  0  0  0  0  0  0  0
   22.9997   -8.3868  -16.0971 O   0  0  0  0  0  0  0  0  0  0  0  0
   21.8086   -7.3373  -14.4253 N   0  0  0  0  0  0  0  0  0  0  0  0
   21.9007   -5.9888  -15.0253 C   0  0  1  0  0  0  0  0  0  0  0  0
   20.7038   -5.7228  -15.8429 C   0  0  0  0  0  0  0  0  0  0  0  0
   19.4292   -5.4168  -15.1508 C   0  0  0  0  0  0  0  0  0  0  0  0
   18.2868   -5.0176  -15.9935 C   0  0  0  0  0  0  0  0  0  0  0  0
   17.1389   -4.8860  -15.5021 O   0  0  0  0  0  0  0  0  0  0  0  0
   22.3199   -5.0063  -14.0432 C   0  0  0  0  0  0  0  0  0  0  0  0
   22.2809   -5.2200  -12.8226 O   0  0  0  0  0  0  0  0  0  0  0  0
   18.4471   -4.7721  -17.3446 O   0  0  0  0  0  0  0  0  0  0  0  0
   22.7943   -3.7522  -14.4677 O   0  0  0  0  0  0  0  0  0  0  0  0
  2  1  1  6
  2  7  1  0
  3  2  1  0
  4  3  1  0
  5  4  1  0
  6  5  2  0
  7  8  2  0
  7 10  1  0
  9  5  1  0
 10 11  1  0
 11 12  1  0
 13 12  1  0
 14 10  1  0
 14 13  1  0
 15 16  2  0
 14 15  1  6
 17 15  1  0
 18 17  1  0
 18 23  1  0
 18 19  1  1
 20 21  1  0
 20 19  1  0
 21 22  2  0
 23 26  1  0
 24 23  2  0
 25 21  1  0
M  END
$$$$
