EPE.pdb
     RDKit          3D

 26 26  0  0  1  0  0  0  0  0999 V2000
   20.2276  -13.5685  -17.4531 N   0  0  0  0  0  0  0  0  0  0  0  0
   19.1717  -12.6440  -17.7426 C   0  0  1  0  0  0  0  0  0  0  0  0
   18.0023  -12.9960  -16.8668 C   0  0  0  0  0  0  0  0  0  0  0  0
   18.3171  -13.0139  -15.4065 C   0  0  0  0  0  0  0  0  0  0  0  0
   17.0721  -13.2351  -14.5909 C   0  0  0  0  0  0  0  0  0  0  0  0
   16.3332  -12.2732  -14.2202 O   0  0  0  0  0  0  0  0  0  0  0  0
   19.5806  -11.2436  -17.7164 C   0  0  0  0  0  0  0  0  0  0  0  0
   20.6709  -10.9038  -17.1509 O   0  0  0  0  0  0  0  0  0  0  0  0
   16.6749  -14.5188  -14.2071 O   0  0  0  0  0  0  0  0  0  0  0  0
   18.8342  -10.1480  -18.2963 N   0  0  0  0  0  0  0  0  0  0  0  0
   17.5812  -10.3142  -18.9792 C   0  0  0  0  0  0  0  0  0  0  0  0
   17.3478   -9.0316  -19.7259 C   0  0  0  0  0  0  0  0  0  0  0  0
   18.6705   -8.2545  -19.5938 C   0  0  0  0  0  0  0  0  0  0  0  0
   19.1576   -8.7630  -18.2841 C   0  0  1  0  0  0  0  0  0  0  0  0
   18.6448   -8.0383  -17.1000 C   0  0  0  0  0  0  0  0  0  0  0  0
   17.6871   -8.4574  -16.3928 O   0  0  0  0  0  0  0  0  0  0  0  0
   19.2654   -6.8158  -16.7521 N   0  0  0  0  0  0  0  0  0  0  0  0
   18.9298   -6.0516  -15.5313 C   0  0  1  0  0  0  0  0  0  0  0  0
   20.1387   -5.3922  -15.0063 C   0  0  0  0  0  0  0  0  0  0  0  0
   21.2095   -6.2379  -14.4271 C   0  0  0  0  0  0  0  0  0  0  0  0
   22.4043   -5.5465  -13.9085 C   0  0  0  0  0  0  0  0  0  0  0  0
   22.3426   -4.8458  -12.8685 O   0  0  0  0  0  0  0  0  0  0  0  0
   17.7217   -5.2699  -15.7185 C   0  0  0  0  0  0  0  0  0  0  0  0
   17.0881   -4.7787  -14.7730 O   0  0  0  0  0  0  0  0  0  0  0  0
   23.6254   -5.6536  -14.5480 O   0  0  0  0  0  0  0  0  0  0  0  0
   17.2286   -5.0456  -17.0165 O   0  0  0  0  0  0  0  0  0  0  0  0
  2  1  1  1
  2  7  1  0
  3  2  1  0
  4  3  1  0
  5  4  1  0
  6  5  2  0
  7  8  2  0
  7 10  1  0
  9  5  1  0
 10 11  1  0
 11 12  1  0
 13 12  1  0
 14 10  1  0
 14 13  1  0
 15 16  2  0
 14 15  1  1
 17 15  1  0
 18 17  1  0
 18 23  1  0
 18 19  1  6
 20 21  1  0
 20 19  1  0
 21 22  2  0
 23 26  1  0
 24 23  2  0
 25 21  1  0
M  END
$$$$
