EPE.pdb
     RDKit          3D

 26 26  0  0  1  0  0  0  0  0999 V2000
   22.8452   -8.2176  -14.9172 N   0  0  0  0  0  0  0  0  0  0  0  0
   22.1336   -8.0331  -16.1474 C   0  0  1  0  0  0  0  0  0  0  0  0
   20.6989   -8.4103  -15.9071 C   0  0  0  0  0  0  0  0  0  0  0  0
   20.0105   -7.5702  -14.8814 C   0  0  0  0  0  0  0  0  0  0  0  0
   18.5197   -7.7657  -14.9389 C   0  0  0  0  0  0  0  0  0  0  0  0
   17.9213   -8.5885  -14.1815 O   0  0  0  0  0  0  0  0  0  0  0  0
   22.3478   -6.7318  -16.7715 C   0  0  0  0  0  0  0  0  0  0  0  0
   22.9230   -5.7965  -16.1246 O   0  0  0  0  0  0  0  0  0  0  0  0
   17.7271   -7.0425  -15.8343 O   0  0  0  0  0  0  0  0  0  0  0  0
   21.9518   -6.3795  -18.1179 N   0  0  0  0  0  0  0  0  0  0  0  0
   21.2946   -7.2883  -19.0158 C   0  0  0  0  0  0  0  0  0  0  0  0
   21.4017   -6.6668  -20.3794 C   0  0  0  0  0  0  0  0  0  0  0  0
   22.3673   -5.4816  -20.1956 C   0  0  0  0  0  0  0  0  0  0  0  0
   22.0996   -5.1275  -18.7763 C   0  0  1  0  0  0  0  0  0  0  0  0
   20.9650   -4.2012  -18.5643 C   0  0  0  0  0  0  0  0  0  0  0  0
   19.9549   -4.4921  -17.8658 O   0  0  0  0  0  0  0  0  0  0  0  0
   21.0251   -2.9291  -19.1798 N   0  0  0  0  0  0  0  0  0  0  0  0
   20.3910   -1.7199  -18.6119 C   0  0  1  0  0  0  0  0  0  0  0  0
   20.7288   -1.6032  -17.1821 C   0  0  0  0  0  0  0  0  0  0  0  0
   20.2424   -0.4185  -16.4358 C   0  0  0  0  0  0  0  0  0  0  0  0
   19.6307   -0.6610  -15.1161 C   0  0  0  0  0  0  0  0  0  0  0  0
   18.3837   -0.6436  -14.9710 O   0  0  0  0  0  0  0  0  0  0  0  0
   20.5801   -0.5727  -19.4800 C   0  0  0  0  0  0  0  0  0  0  0  0
   21.6558   -0.3315  -20.0471 O   0  0  0  0  0  0  0  0  0  0  0  0
   20.4104   -0.9192  -14.0039 O   0  0  0  0  0  0  0  0  0  0  0  0
   19.5144    0.3174  -19.7040 O   0  0  0  0  0  0  0  0  0  0  0  0
  2  1  1  1
  2  7  1  0
  3  2  1  0
  4  3  1  0
  5  4  1  0
  6  5  2  0
  7  8  2  0
  7 10  1  0
  9  5  1  0
 10 11  1  0
 11 12  1  0
 13 12  1  0
 14 10  1  0
 14 13  1  0
 15 16  2  0
 14 15  1  6
 17 15  1  0
 18 17  1  0
 18 23  1  0
 18 19  1  1
 20 21  1  0
 20 19  1  0
 21 22  2  0
 23 26  1  0
 24 23  2  0
 25 21  1  0
M  END
$$$$
