EPE.pdb
     RDKit          3D

 26 26  0  0  1  0  0  0  0  0999 V2000
   25.6807  -21.2172  -10.7042 N   0  0  0  0  0  0  0  0  0  0  0  0
   26.2839  -21.1146  -12.0001 C   0  0  1  0  0  0  0  0  0  0  0  0
   26.2146  -22.4699  -12.6456 C   0  0  0  0  0  0  0  0  0  0  0  0
   24.8516  -22.8480  -13.1264 C   0  0  0  0  0  0  0  0  0  0  0  0
   24.9173  -23.4668  -14.4964 C   0  0  0  0  0  0  0  0  0  0  0  0
   23.8721  -23.8019  -15.1320 O   0  0  0  0  0  0  0  0  0  0  0  0
   25.7831  -20.0058  -12.8054 C   0  0  0  0  0  0  0  0  0  0  0  0
   24.7123  -19.4014  -12.4704 O   0  0  0  0  0  0  0  0  0  0  0  0
   26.1412  -23.6979  -15.1300 O   0  0  0  0  0  0  0  0  0  0  0  0
   26.4116  -19.4995  -14.0064 N   0  0  0  0  0  0  0  0  0  0  0  0
   27.6064  -20.0601  -14.5743 C   0  0  0  0  0  0  0  0  0  0  0  0
   28.1106  -19.0413  -15.5566 C   0  0  0  0  0  0  0  0  0  0  0  0
   27.2437  -17.7934  -15.3073 C   0  0  0  0  0  0  0  0  0  0  0  0
   25.9834  -18.4251  -14.8342 C   0  0  1  0  0  0  0  0  0  0  0  0
   25.0448  -18.8304  -15.9044 C   0  0  0  0  0  0  0  0  0  0  0  0
   25.1372  -19.9231  -16.5292 O   0  0  0  0  0  0  0  0  0  0  0  0
   23.9957  -17.9416  -16.2363 N   0  0  0  0  0  0  0  0  0  0  0  0
   22.7540  -18.3672  -16.9172 C   0  0  1  0  0  0  0  0  0  0  0  0
   21.5844  -17.9990  -16.0997 C   0  0  0  0  0  0  0  0  0  0  0  0
   20.2328  -18.3267  -16.6124 C   0  0  0  0  0  0  0  0  0  0  0  0
   19.0820  -17.8734  -15.8093 C   0  0  0  0  0  0  0  0  0  0  0  0
   19.2527  -17.2257  -14.7473 O   0  0  0  0  0  0  0  0  0  0  0  0
   22.7774  -18.0062  -18.3225 C   0  0  0  0  0  0  0  0  0  0  0  0
   23.5424  -17.1450  -18.7805 O   0  0  0  0  0  0  0  0  0  0  0  0
   17.7848  -18.1432  -16.2041 O   0  0  0  0  0  0  0  0  0  0  0  0
   21.9063  -18.6456  -19.2229 O   0  0  0  0  0  0  0  0  0  0  0  0
  2  1  1  1
  2  7  1  0
  3  2  1  0
  4  3  1  0
  5  4  1  0
  6  5  2  0
  7  8  2  0
  7 10  1  0
  9  5  1  0
 10 11  1  0
 11 12  1  0
 13 12  1  0
 14 10  1  0
 14 13  1  0
 15 16  2  0
 14 15  1  6
 17 15  1  0
 18 17  1  0
 18 23  1  0
 18 19  1  1
 20 21  1  0
 20 19  1  0
 21 22  2  0
 23 26  1  0
 24 23  2  0
 25 21  1  0
M  END
$$$$
