EPE.pdb
     RDKit          3D

 26 26  0  0  1  0  0  0  0  0999 V2000
   19.6338  -14.0036  -17.1621 N   0  0  0  0  0  0  0  0  0  0  0  0
   18.5863  -13.0260  -17.1320 C   0  0  1  0  0  0  0  0  0  0  0  0
   17.9043  -13.1272  -15.7967 C   0  0  0  0  0  0  0  0  0  0  0  0
   17.3424  -14.4791  -15.4993 C   0  0  0  0  0  0  0  0  0  0  0  0
   16.6384  -14.4879  -14.1695 C   0  0  0  0  0  0  0  0  0  0  0  0
   15.8998  -13.5272  -13.7949 O   0  0  0  0  0  0  0  0  0  0  0  0
   19.0092  -11.6859  -17.5245 C   0  0  0  0  0  0  0  0  0  0  0  0
   20.2369  -11.3525  -17.4498 O   0  0  0  0  0  0  0  0  0  0  0  0
   16.7688  -15.5634  -13.2867 O   0  0  0  0  0  0  0  0  0  0  0  0
   18.1299  -10.6459  -18.0135 N   0  0  0  0  0  0  0  0  0  0  0  0
   16.7331  -10.8483  -18.2822 C   0  0  0  0  0  0  0  0  0  0  0  0
   16.2977   -9.6664  -19.1011 C   0  0  0  0  0  0  0  0  0  0  0  0
   17.6041   -8.9343  -19.4590 C   0  0  0  0  0  0  0  0  0  0  0  0
   18.4460   -9.2860  -18.2847 C   0  0  1  0  0  0  0  0  0  0  0  0
   18.2965   -8.3912  -17.1153 C   0  0  0  0  0  0  0  0  0  0  0  0
   17.4728   -8.6025  -16.1827 O   0  0  0  0  0  0  0  0  0  0  0  0
   19.1223   -7.2447  -17.0492 N   0  0  0  0  0  0  0  0  0  0  0  0
   19.2109   -6.3737  -15.8575 C   0  0  1  0  0  0  0  0  0  0  0  0
   20.5284   -6.5356  -15.2171 C   0  0  0  0  0  0  0  0  0  0  0  0
   20.8557   -5.6832  -14.0495 C   0  0  0  0  0  0  0  0  0  0  0  0
   22.2064   -5.8224  -13.4743 C   0  0  0  0  0  0  0  0  0  0  0  0
   22.9796   -6.7339  -13.8589 O   0  0  0  0  0  0  0  0  0  0  0  0
   18.7242   -5.0380  -16.1479 C   0  0  0  0  0  0  0  0  0  0  0  0
   18.2858   -4.2791  -15.2711 O   0  0  0  0  0  0  0  0  0  0  0  0
   22.6616   -4.9523  -12.5011 O   0  0  0  0  0  0  0  0  0  0  0  0
   18.7400   -4.5606  -17.4708 O   0  0  0  0  0  0  0  0  0  0  0  0
  2  1  1  1
  2  7  1  0
  3  2  1  0
  4  3  1  0
  5  4  1  0
  6  5  2  0
  7  8  2  0
  7 10  1  0
  9  5  1  0
 10 11  1  0
 11 12  1  0
 13 12  1  0
 14 10  1  0
 14 13  1  0
 15 16  2  0
 14 15  1  1
 17 15  1  0
 18 17  1  0
 18 23  1  0
 18 19  1  6
 20 21  1  0
 20 19  1  0
 21 22  2  0
 23 26  1  0
 24 23  2  0
 25 21  1  0
M  END
$$$$
