EPE.pdb
     RDKit          3D

 26 26  0  0  1  0  0  0  0  0999 V2000
   28.0157  -22.4807  -15.4281 N   0  0  0  0  0  0  0  0  0  0  0  0
   27.3871  -21.3954  -14.7348 C   0  0  1  0  0  0  0  0  0  0  0  0
   27.2580  -20.2500  -15.6990 C   0  0  0  0  0  0  0  0  0  0  0  0
   27.6511  -18.9258  -15.1299 C   0  0  0  0  0  0  0  0  0  0  0  0
   27.5283  -17.8389  -16.1630 C   0  0  0  0  0  0  0  0  0  0  0  0
   26.6358  -16.9407  -16.0891 O   0  0  0  0  0  0  0  0  0  0  0  0
   26.1654  -21.7662  -14.0283 C   0  0  0  0  0  0  0  0  0  0  0  0
   25.3516  -22.5985  -14.5469 O   0  0  0  0  0  0  0  0  0  0  0  0
   28.3998  -17.7727  -17.2535 O   0  0  0  0  0  0  0  0  0  0  0  0
   25.7657  -21.2571  -12.7342 N   0  0  0  0  0  0  0  0  0  0  0  0
   26.5453  -20.3197  -11.9742 C   0  0  0  0  0  0  0  0  0  0  0  0
   25.9788  -20.3480  -10.5830 C   0  0  0  0  0  0  0  0  0  0  0  0
   24.9995  -21.5362  -10.5823 C   0  0  0  0  0  0  0  0  0  0  0  0
   24.5769  -21.5441  -12.0080 C   0  0  1  0  0  0  0  0  0  0  0  0
   23.4456  -20.6465  -12.3317 C   0  0  0  0  0  0  0  0  0  0  0  0
   23.5888  -19.4225  -12.6041 O   0  0  0  0  0  0  0  0  0  0  0  0
   22.1428  -21.1975  -12.3328 N   0  0  0  0  0  0  0  0  0  0  0  0
   20.9778  -20.5300  -12.9524 C   0  0  1  0  0  0  0  0  0  0  0  0
   19.9699  -21.5355  -13.3334 C   0  0  0  0  0  0  0  0  0  0  0  0
   18.6669  -21.0651  -13.8603 C   0  0  0  0  0  0  0  0  0  0  0  0
   17.6897  -22.0971  -14.2536 C   0  0  0  0  0  0  0  0  0  0  0  0
   17.9787  -23.3171  -14.1858 O   0  0  0  0  0  0  0  0  0  0  0  0
   20.5663  -19.3722  -12.1808 C   0  0  0  0  0  0  0  0  0  0  0  0
   20.5851  -19.3516  -10.9414 O   0  0  0  0  0  0  0  0  0  0  0  0
   16.4282  -21.7524  -14.7023 O   0  0  0  0  0  0  0  0  0  0  0  0
   20.1239  -18.2125  -12.8424 O   0  0  0  0  0  0  0  0  0  0  0  0
  2  1  1  6
  2  7  1  0
  3  2  1  0
  4  3  1  0
  5  4  1  0
  6  5  2  0
  7  8  2  0
  7 10  1  0
  9  5  1  0
 10 11  1  0
 11 12  1  0
 13 12  1  0
 14 10  1  0
 14 13  1  0
 15 16  2  0
 14 15  1  1
 17 15  1  0
 18 17  1  0
 18 23  1  0
 18 19  1  1
 20 21  1  0
 20 19  1  0
 21 22  2  0
 23 26  1  0
 24 23  2  0
 25 21  1  0
M  END
$$$$
