EPE.pdb
     RDKit          3D

 26 26  0  0  1  0  0  0  0  0999 V2000
   21.6125  -13.4231  -17.0965 N   0  0  0  0  0  0  0  0  0  0  0  0
   22.7198  -12.5518  -17.3583 C   0  0  1  0  0  0  0  0  0  0  0  0
   22.6718  -12.1750  -18.8123 C   0  0  0  0  0  0  0  0  0  0  0  0
   21.5107  -11.3102  -19.1807 C   0  0  0  0  0  0  0  0  0  0  0  0
   21.5378  -10.9695  -20.6460 C   0  0  0  0  0  0  0  0  0  0  0  0
   21.5685  -11.8659  -21.5428 O   0  0  0  0  0  0  0  0  0  0  0  0
   22.8383  -11.4393  -16.4218 C   0  0  0  0  0  0  0  0  0  0  0  0
   21.8220  -11.0449  -15.7617 O   0  0  0  0  0  0  0  0  0  0  0  0
   21.5284   -9.6419  -21.0824 O   0  0  0  0  0  0  0  0  0  0  0  0
   24.0546  -10.7021  -16.1553 N   0  0  0  0  0  0  0  0  0  0  0  0
   25.3071  -10.9756  -16.8037 C   0  0  0  0  0  0  0  0  0  0  0  0
   26.3525  -10.2635  -15.9930 C   0  0  0  0  0  0  0  0  0  0  0  0
   25.6121   -9.7865  -14.7300 C   0  0  0  0  0  0  0  0  0  0  0  0
   24.2385   -9.6043  -15.2699 C   0  0  1  0  0  0  0  0  0  0  0  0
   23.9776   -8.2853  -15.8884 C   0  0  0  0  0  0  0  0  0  0  0  0
   24.1386   -8.0534  -17.1185 O   0  0  0  0  0  0  0  0  0  0  0  0
   23.5260   -7.2391  -15.0505 N   0  0  0  0  0  0  0  0  0  0  0  0
   22.8743   -6.0131  -15.5595 C   0  0  1  0  0  0  0  0  0  0  0  0
   21.5320   -5.8777  -14.9665 C   0  0  0  0  0  0  0  0  0  0  0  0
   20.7269   -4.6805  -15.3067 C   0  0  0  0  0  0  0  0  0  0  0  0
   19.3473   -4.6298  -14.7883 C   0  0  0  0  0  0  0  0  0  0  0  0
   18.8849   -5.5684  -14.0943 O   0  0  0  0  0  0  0  0  0  0  0  0
   23.7829   -4.8824  -15.5205 C   0  0  0  0  0  0  0  0  0  0  0  0
   24.6761   -4.7694  -14.6682 O   0  0  0  0  0  0  0  0  0  0  0  0
   18.5266   -3.5475  -15.0464 O   0  0  0  0  0  0  0  0  0  0  0  0
   23.6667   -3.8590  -16.4783 O   0  0  0  0  0  0  0  0  0  0  0  0
  2  1  1  1
  2  7  1  0
  3  2  1  0
  4  3  1  0
  5  4  1  0
  6  5  2  0
  7  8  2  0
  7 10  1  0
  9  5  1  0
 10 11  1  0
 11 12  1  0
 13 12  1  0
 14 10  1  0
 14 13  1  0
 15 16  2  0
 14 15  1  6
 17 15  1  0
 18 17  1  0
 18 23  1  0
 18 19  1  1
 20 21  1  0
 20 19  1  0
 21 22  2  0
 23 26  1  0
 24 23  2  0
 25 21  1  0
M  END
$$$$
