EPE.pdb
     RDKit          3D

 26 26  0  0  1  0  0  0  0  0999 V2000
   22.8028  -17.7435  -18.3242 N   0  0  0  0  0  0  0  0  0  0  0  0
   23.5910  -17.7392  -17.1273 C   0  0  1  0  0  0  0  0  0  0  0  0
   22.6813  -17.3960  -15.9815 C   0  0  0  0  0  0  0  0  0  0  0  0
   21.5943  -18.3933  -15.7454 C   0  0  0  0  0  0  0  0  0  0  0  0
   20.7645  -18.0111  -14.5498 C   0  0  0  0  0  0  0  0  0  0  0  0
   19.9813  -17.0136  -14.5679 O   0  0  0  0  0  0  0  0  0  0  0  0
   24.4094  -18.9336  -16.9473 C   0  0  0  0  0  0  0  0  0  0  0  0
   24.1063  -20.0159  -17.5480 O   0  0  0  0  0  0  0  0  0  0  0  0
   20.8217  -18.7456  -13.3624 O   0  0  0  0  0  0  0  0  0  0  0  0
   25.5886  -19.0161  -16.1128 N   0  0  0  0  0  0  0  0  0  0  0  0
   26.0465  -17.9414  -15.2765 C   0  0  0  0  0  0  0  0  0  0  0  0
   27.4547  -18.2941  -14.8898 C   0  0  0  0  0  0  0  0  0  0  0  0
   27.8092  -19.5100  -15.7655 C   0  0  0  0  0  0  0  0  0  0  0  0
   26.4657  -20.1226  -15.9409 C   0  0  1  0  0  0  0  0  0  0  0  0
   26.0546  -21.0515  -14.8646 C   0  0  0  0  0  0  0  0  0  0  0  0
   25.6094  -20.6648  -13.7487 O   0  0  0  0  0  0  0  0  0  0  0  0
   26.1708  -22.4400  -15.1083 N   0  0  0  0  0  0  0  0  0  0  0  0
   25.1455  -23.4256  -14.7033 C   0  0  1  0  0  0  0  0  0  0  0  0
   23.8070  -22.9383  -15.0813 C   0  0  0  0  0  0  0  0  0  0  0  0
   22.6420  -23.8264  -14.8552 C   0  0  0  0  0  0  0  0  0  0  0  0
   21.3235  -23.3274  -15.2877 C   0  0  0  0  0  0  0  0  0  0  0  0
   21.2160  -22.2331  -15.8938 O   0  0  0  0  0  0  0  0  0  0  0  0
   25.5391  -24.7724  -15.0729 C   0  0  0  0  0  0  0  0  0  0  0  0
   26.2596  -25.0152  -16.0520 O   0  0  0  0  0  0  0  0  0  0  0  0
   20.1708  -24.0507  -15.0436 O   0  0  0  0  0  0  0  0  0  0  0  0
   25.0984  -25.8650  -14.3045 O   0  0  0  0  0  0  0  0  0  0  0  0
  2  1  1  6
  2  7  1  0
  3  2  1  0
  4  3  1  0
  5  4  1  0
  6  5  2  0
  7  8  2  0
  7 10  1  0
  9  5  1  0
 10 11  1  0
 11 12  1  0
 13 12  1  0
 14 10  1  0
 14 13  1  0
 15 16  2  0
 14 15  1  1
 17 15  1  0
 18 17  1  0
 18 23  1  0
 18 19  1  6
 20 21  1  0
 20 19  1  0
 21 22  2  0
 23 26  1  0
 24 23  2  0
 25 21  1  0
M  END
$$$$
