EPE.pdb
     RDKit          3D

 26 26  0  0  1  0  0  0  0  0999 V2000
   20.8617  -16.0293  -16.3896 N   0  0  0  0  0  0  0  0  0  0  0  0
   21.8820  -15.0605  -16.6617 C   0  0  1  0  0  0  0  0  0  0  0  0
   21.9435  -14.8667  -18.1507 C   0  0  0  0  0  0  0  0  0  0  0  0
   22.5353  -16.0205  -18.8924 C   0  0  0  0  0  0  0  0  0  0  0  0
   22.5308  -15.7655  -20.3754 C   0  0  0  0  0  0  0  0  0  0  0  0
   21.4524  -15.6436  -21.0319 O   0  0  0  0  0  0  0  0  0  0  0  0
   21.7719  -13.8395  -15.8706 C   0  0  0  0  0  0  0  0  0  0  0  0
   20.6287  -13.4158  -15.4997 O   0  0  0  0  0  0  0  0  0  0  0  0
   23.7230  -15.6500  -21.0952 O   0  0  0  0  0  0  0  0  0  0  0  0
   22.8864  -13.0208  -15.4448 N   0  0  0  0  0  0  0  0  0  0  0  0
   24.2593  -13.3436  -15.7189 C   0  0  0  0  0  0  0  0  0  0  0  0
   25.0755  -12.4695  -14.8096 C   0  0  0  0  0  0  0  0  0  0  0  0
   24.0495  -11.8270  -13.8580 C   0  0  0  0  0  0  0  0  0  0  0  0
   22.8489  -11.7890  -14.7346 C   0  0  1  0  0  0  0  0  0  0  0  0
   22.7463  -10.5975  -15.6065 C   0  0  0  0  0  0  0  0  0  0  0  0
   22.8877  -10.6424  -16.8598 O   0  0  0  0  0  0  0  0  0  0  0  0
   22.4767   -9.3510  -14.9948 N   0  0  0  0  0  0  0  0  0  0  0  0
   21.4811   -8.3886  -15.5138 C   0  0  1  0  0  0  0  0  0  0  0  0
   20.2641   -9.1060  -15.9335 C   0  0  0  0  0  0  0  0  0  0  0  0
   19.1204   -8.3160  -16.4481 C   0  0  0  0  0  0  0  0  0  0  0  0
   17.8924   -9.0572  -16.7904 C   0  0  0  0  0  0  0  0  0  0  0  0
   16.8735   -8.4563  -17.2114 O   0  0  0  0  0  0  0  0  0  0  0  0
   21.3583   -7.2385  -14.6376 C   0  0  0  0  0  0  0  0  0  0  0  0
   21.1766   -7.3433  -13.4158 O   0  0  0  0  0  0  0  0  0  0  0  0
   17.8291  -10.4324  -16.6630 O   0  0  0  0  0  0  0  0  0  0  0  0
   21.4459   -5.9404  -15.1718 O   0  0  0  0  0  0  0  0  0  0  0  0
  2  1  1  6
  2  7  1  0
  3  2  1  0
  4  3  1  0
  5  4  1  0
  6  5  2  0
  7  8  2  0
  7 10  1  0
  9  5  1  0
 10 11  1  0
 11 12  1  0
 13 12  1  0
 14 10  1  0
 14 13  1  0
 15 16  2  0
 14 15  1  6
 17 15  1  0
 18 17  1  0
 18 23  1  0
 18 19  1  1
 20 21  1  0
 20 19  1  0
 21 22  2  0
 23 26  1  0
 24 23  2  0
 25 21  1  0
M  END
$$$$
