STD.pdb
     RDKit          3D

 22 21  0  0  1  0  0  0  0  0999 V2000
    7.9122  -13.0198   27.6655 O   0  0  0  0  0  0  0  0  0  0  0  0
    7.6489  -11.9233   26.8199 C   0  0  0  0  0  0  0  0  0  0  0  0
    6.4879  -12.3086   25.9264 C   0  0  2  0  0  0  0  0  0  0  0  0
    5.3399  -12.5644   26.7932 N   0  0  0  0  0  0  0  0  0  0  0  0
    6.8339  -13.5590   25.1971 C   0  0  0  0  0  0  0  0  0  0  0  0
    6.3757  -14.6671   25.6089 O   0  0  0  0  0  0  0  0  0  0  0  0
    6.8903  -13.9003   21.3410 C   0  0  0  0  0  0  0  0  0  0  0  0
    8.0355  -14.6941   21.8983 C   0  0  1  0  0  0  0  0  0  0  0  0
    9.2333  -14.0871   21.5309 O   0  0  0  0  0  0  0  0  0  0  0  0
    7.9530  -14.8278   23.4105 C   0  0  2  0  0  0  0  0  0  0  0  0
    7.6599  -13.5848   24.0484 N   0  0  0  0  0  0  0  0  0  0  0  0
    9.1851  -15.4689   23.9075 C   0  0  0  0  0  0  0  0  0  0  0  0
    9.9664  -14.7835   24.6076 O   0  0  0  0  0  0  0  0  0  0  0  0
    9.5392  -16.8114   23.6424 N   0  0  0  0  0  0  0  0  0  0  0  0
   10.7586  -17.4251   24.2382 C   0  0  1  0  0  0  0  0  0  0  0  0
   10.4668  -18.8510   24.5979 C   0  0  0  0  0  0  0  0  0  0  0  0
   11.6377  -19.5442   25.1448 C   0  0  0  0  0  0  0  0  0  0  0  0
   12.7512  -19.0174   25.3564 O   0  0  0  0  0  0  0  0  0  0  0  0
   11.8359  -17.2999   23.2280 C   0  0  0  0  0  0  0  0  0  0  0  0
   13.1641  -17.3205   23.5071 O   0  0  0  0  0  0  0  0  0  0  0  0
   11.5780  -20.9157   25.4836 O   0  0  0  0  0  0  0  0  0  0  0  0
   11.5070  -17.1625   22.0117 O   0  0  0  0  0  0  0  0  0  0  0  0
  2  1  1  0
  3  2  1  0
  3  4  1  1
  5 11  1  0
  5  3  1  0
  6  5  2  0
  8  7  1  1
  8 10  1  0
  8  9  1  0
 10 11  1  1
 12 10  1  0
 12 14  1  0
 13 12  2  0
 15 14  1  0
 15 16  1  6
 16 17  1  0
 17 18  2  0
 19 20  1  0
 19 15  1  0
 21 17  1  0
 22 19  2  0
M  END
$$$$
