STD.pdb
     RDKit          3D

 22 21  0  0  1  0  0  0  0  0999 V2000
    8.3778  -18.1737   16.2662 O   0  0  0  0  0  0  0  0  0  0  0  0
    8.4942  -17.5911   17.5444 C   0  0  0  0  0  0  0  0  0  0  0  0
    8.6877  -16.1016   17.3476 C   0  0  2  0  0  0  0  0  0  0  0  0
    9.1630  -15.9029   15.9803 N   0  0  0  0  0  0  0  0  0  0  0  0
    9.7269  -15.6198   18.2979 C   0  0  0  0  0  0  0  0  0  0  0  0
   10.7279  -16.3555   18.5513 O   0  0  0  0  0  0  0  0  0  0  0  0
    7.1967  -13.1350   19.6859 C   0  0  0  0  0  0  0  0  0  0  0  0
    7.8183  -14.1939   20.5488 C   0  0  1  0  0  0  0  0  0  0  0  0
    7.2067  -15.4161   20.2836 O   0  0  0  0  0  0  0  0  0  0  0  0
    9.3196  -14.2963   20.3318 C   0  0  2  0  0  0  0  0  0  0  0  0
    9.6628  -14.3644   18.9477 N   0  0  0  0  0  0  0  0  0  0  0  0
    9.8477  -15.4217   21.1257 C   0  0  0  0  0  0  0  0  0  0  0  0
    9.7829  -16.5728   20.6346 O   0  0  0  0  0  0  0  0  0  0  0  0
   10.4237  -15.2814   22.4089 N   0  0  0  0  0  0  0  0  0  0  0  0
   10.9187  -16.4615   23.1711 C   0  0  1  0  0  0  0  0  0  0  0  0
   12.3079  -16.1836   23.6617 C   0  0  0  0  0  0  0  0  0  0  0  0
   13.3230  -16.3904   22.6237 C   0  0  0  0  0  0  0  0  0  0  0  0
   13.1826  -17.1151   21.6150 O   0  0  0  0  0  0  0  0  0  0  0  0
    9.9576  -16.6887   24.2764 C   0  0  0  0  0  0  0  0  0  0  0  0
    9.9201  -17.8021   25.0520 O   0  0  0  0  0  0  0  0  0  0  0  0
   14.5829  -15.7532   22.7017 O   0  0  0  0  0  0  0  0  0  0  0  0
    9.1031  -15.7865   24.5255 O   0  0  0  0  0  0  0  0  0  0  0  0
  2  1  1  0
  3  2  1  0
  3  4  1  6
  5 11  1  0
  5  3  1  0
  6  5  2  0
  8  7  1  6
  8 10  1  0
  8  9  1  0
 10 11  1  6
 12 10  1  0
 12 14  1  0
 13 12  2  0
 15 14  1  0
 15 16  1  1
 16 17  1  0
 17 18  2  0
 19 20  1  0
 19 15  1  0
 21 17  1  0
 22 19  2  0
M  END
$$$$
