STD.pdb
     RDKit          3D

 22 21  0  0  1  0  0  0  0  0999 V2000
    8.8547  -15.5553   14.7590 O   0  0  0  0  0  0  0  0  0  0  0  0
    9.3870  -14.9476   15.9140 C   0  0  0  0  0  0  0  0  0  0  0  0
    8.2203  -14.5392   16.7897 C   0  0  2  0  0  0  0  0  0  0  0  0
    7.7410  -13.2489   16.2996 N   0  0  0  0  0  0  0  0  0  0  0  0
    8.6998  -14.3793   18.1896 C   0  0  0  0  0  0  0  0  0  0  0  0
    9.2925  -13.3103   18.5264 O   0  0  0  0  0  0  0  0  0  0  0  0
    6.5519  -14.3861   21.2171 C   0  0  0  0  0  0  0  0  0  0  0  0
    7.6966  -15.3179   21.4884 C   0  0  1  0  0  0  0  0  0  0  0  0
    7.2508  -16.6324   21.3810 O   0  0  0  0  0  0  0  0  0  0  0  0
    8.8632  -15.0768   20.5435 C   0  0  2  0  0  0  0  0  0  0  0  0
    8.5296  -15.3690   19.1866 N   0  0  0  0  0  0  0  0  0  0  0  0
   10.0425  -15.8156   21.0324 C   0  0  0  0  0  0  0  0  0  0  0  0
   10.3920  -16.8472   20.4127 O   0  0  0  0  0  0  0  0  0  0  0  0
   10.8045  -15.4306   22.1590 N   0  0  0  0  0  0  0  0  0  0  0  0
   11.9156  -16.2797   22.6720 C   0  0  1  0  0  0  0  0  0  0  0  0
   12.8186  -15.4443   23.5290 C   0  0  0  0  0  0  0  0  0  0  0  0
   13.9852  -16.1905   24.0115 C   0  0  0  0  0  0  0  0  0  0  0  0
   14.0317  -16.8416   25.0775 O   0  0  0  0  0  0  0  0  0  0  0  0
   11.2891  -17.3952   23.4204 C   0  0  0  0  0  0  0  0  0  0  0  0
   10.1520  -17.2917   24.1544 O   0  0  0  0  0  0  0  0  0  0  0  0
   15.1866  -16.2226   23.2666 O   0  0  0  0  0  0  0  0  0  0  0  0
   11.8455  -18.5332   23.3812 O   0  0  0  0  0  0  0  0  0  0  0  0
  2  1  1  0
  3  2  1  0
  3  4  1  6
  5 11  1  0
  5  3  1  0
  6  5  2  0
  8  7  1  6
  8 10  1  0
  8  9  1  0
 10 11  1  6
 12 10  1  0
 12 14  1  0
 13 12  2  0
 15 14  1  0
 15 16  1  1
 16 17  1  0
 17 18  2  0
 19 20  1  0
 19 15  1  0
 21 17  1  0
 22 19  2  0
M  END
$$$$
