STD.pdb
     RDKit          3D

 22 21  0  0  1  0  0  0  0  0999 V2000
    9.3390  -18.8330   18.0336 O   0  0  0  0  0  0  0  0  0  0  0  0
    8.0238  -18.5669   17.6018 C   0  0  0  0  0  0  0  0  0  0  0  0
    7.9772  -17.1197   17.1567 C   0  0  2  0  0  0  0  0  0  0  0  0
    8.7801  -17.0139   15.9405 N   0  0  0  0  0  0  0  0  0  0  0  0
    8.5853  -16.2688   18.2156 C   0  0  0  0  0  0  0  0  0  0  0  0
    9.7617  -15.8231   18.0571 O   0  0  0  0  0  0  0  0  0  0  0  0
    6.9339  -13.2547   20.3727 C   0  0  0  0  0  0  0  0  0  0  0  0
    7.6201  -14.2901   21.2149 C   0  0  1  0  0  0  0  0  0  0  0  0
    6.6597  -15.0960   21.8202 O   0  0  0  0  0  0  0  0  0  0  0  0
    8.5845  -15.1382   20.4010 C   0  0  2  0  0  0  0  0  0  0  0  0
    7.9151  -15.9206   19.4122 N   0  0  0  0  0  0  0  0  0  0  0  0
    9.4192  -15.9368   21.3183 C   0  0  0  0  0  0  0  0  0  0  0  0
    9.2113  -17.1709   21.3829 O   0  0  0  0  0  0  0  0  0  0  0  0
   10.4414  -15.3947   22.1303 N   0  0  0  0  0  0  0  0  0  0  0  0
   11.2264  -16.2491   23.0642 C   0  0  1  0  0  0  0  0  0  0  0  0
   12.6335  -15.7364   23.1359 C   0  0  0  0  0  0  0  0  0  0  0  0
   13.6167  -16.7268   22.6854 C   0  0  0  0  0  0  0  0  0  0  0  0
   13.4622  -17.5057   21.7202 O   0  0  0  0  0  0  0  0  0  0  0  0
   10.5329  -16.1986   24.3732 C   0  0  0  0  0  0  0  0  0  0  0  0
   10.6235  -17.1533   25.3338 O   0  0  0  0  0  0  0  0  0  0  0  0
   14.8595  -16.8693   23.3446 O   0  0  0  0  0  0  0  0  0  0  0  0
    9.7983  -15.1974   24.6265 O   0  0  0  0  0  0  0  0  0  0  0  0
  2  1  1  0
  3  2  1  0
  3  4  1  6
  5 11  1  0
  5  3  1  0
  6  5  2  0
  8  7  1  6
  8 10  1  0
  8  9  1  0
 10 11  1  6
 12 10  1  0
 12 14  1  0
 13 12  2  0
 15 14  1  0
 15 16  1  1
 16 17  1  0
 17 18  2  0
 19 20  1  0
 19 15  1  0
 21 17  1  0
 22 19  2  0
M  END
$$$$
