STD.pdb
     RDKit          3D

 22 21  0  0  1  0  0  0  0  0999 V2000
   11.3471  -17.5405   14.8666 O   0  0  0  0  0  0  0  0  0  0  0  0
   11.3122  -17.0806   16.1986 C   0  0  0  0  0  0  0  0  0  0  0  0
   10.6635  -15.7117   16.1884 C   0  0  2  0  0  0  0  0  0  0  0  0
   11.3880  -14.8956   15.2169 N   0  0  0  0  0  0  0  0  0  0  0  0
   10.8048  -15.1002   17.5379 C   0  0  0  0  0  0  0  0  0  0  0  0
   11.8063  -14.3632   17.7857 O   0  0  0  0  0  0  0  0  0  0  0  0
    8.3967  -12.8245   19.4282 C   0  0  0  0  0  0  0  0  0  0  0  0
    8.8005  -13.9550   20.3289 C   0  0  1  0  0  0  0  0  0  0  0  0
    7.7503  -14.8645   20.4189 O   0  0  0  0  0  0  0  0  0  0  0  0
   10.0611  -14.6502   19.8397 C   0  0  2  0  0  0  0  0  0  0  0  0
    9.8691  -15.2960   18.5811 N   0  0  0  0  0  0  0  0  0  0  0  0
   10.5564  -15.5532   20.8957 C   0  0  0  0  0  0  0  0  0  0  0  0
   10.3692  -16.7844   20.7558 O   0  0  0  0  0  0  0  0  0  0  0  0
   11.2309  -15.1145   22.0579 N   0  0  0  0  0  0  0  0  0  0  0  0
   11.8201  -16.0815   23.0255 C   0  0  1  0  0  0  0  0  0  0  0  0
   13.0691  -15.4937   23.6105 C   0  0  0  0  0  0  0  0  0  0  0  0
   14.1514  -15.3800   22.6275 C   0  0  0  0  0  0  0  0  0  0  0  0
   14.0852  -15.7589   21.4382 O   0  0  0  0  0  0  0  0  0  0  0  0
   10.7810  -16.3478   24.0482 C   0  0  0  0  0  0  0  0  0  0  0  0
   10.8469  -17.3332   24.9795 O   0  0  0  0  0  0  0  0  0  0  0  0
   15.3956  -14.8075   22.9790 O   0  0  0  0  0  0  0  0  0  0  0  0
    9.7507  -15.6100   24.0653 O   0  0  0  0  0  0  0  0  0  0  0  0
  2  1  1  0
  3  2  1  0
  3  4  1  6
  5 11  1  0
  5  3  1  0
  6  5  2  0
  8  7  1  6
  8 10  1  0
  8  9  1  0
 10 11  1  6
 12 10  1  0
 12 14  1  0
 13 12  2  0
 15 14  1  0
 15 16  1  1
 16 17  1  0
 17 18  2  0
 19 20  1  0
 19 15  1  0
 21 17  1  0
 22 19  2  0
M  END
$$$$
