STD.pdb
     RDKit          3D

 22 21  0  0  1  0  0  0  0  0999 V2000
    9.8011  -15.2826   15.3910 O   0  0  0  0  0  0  0  0  0  0  0  0
    8.5046  -15.5659   15.8661 C   0  0  0  0  0  0  0  0  0  0  0  0
    7.9693  -14.3004   16.5039 C   0  0  2  0  0  0  0  0  0  0  0  0
    8.1998  -13.2084   15.5609 N   0  0  0  0  0  0  0  0  0  0  0  0
    8.7300  -14.0307   17.7545 C   0  0  0  0  0  0  0  0  0  0  0  0
    9.6625  -13.1718   17.7431 O   0  0  0  0  0  0  0  0  0  0  0  0
    7.2344  -13.8298   21.5183 C   0  0  0  0  0  0  0  0  0  0  0  0
    8.4932  -14.6419   21.4275 C   0  0  1  0  0  0  0  0  0  0  0  0
    8.1737  -15.9927   21.5348 O   0  0  0  0  0  0  0  0  0  0  0  0
    9.2485  -14.3787   20.1345 C   0  0  2  0  0  0  0  0  0  0  0  0
    8.4687  -14.6889   18.9796 N   0  0  0  0  0  0  0  0  0  0  0  0
   10.5430  -15.0845   20.1781 C   0  0  0  0  0  0  0  0  0  0  0  0
   10.7602  -15.9736   19.3221 O   0  0  0  0  0  0  0  0  0  0  0  0
   11.5558  -14.8188   21.1276 N   0  0  0  0  0  0  0  0  0  0  0  0
   12.8348  -15.5823   21.1331 C   0  0  1  0  0  0  0  0  0  0  0  0
   13.9203  -14.7290   20.5488 C   0  0  0  0  0  0  0  0  0  0  0  0
   15.2286  -15.3912   20.5688 C   0  0  0  0  0  0  0  0  0  0  0  0
   15.5653  -16.3405   19.8287 O   0  0  0  0  0  0  0  0  0  0  0  0
   13.1004  -15.9589   22.5418 C   0  0  0  0  0  0  0  0  0  0  0  0
   14.0409  -16.8534   22.9391 O   0  0  0  0  0  0  0  0  0  0  0  0
   16.2388  -14.9780   21.4677 O   0  0  0  0  0  0  0  0  0  0  0  0
   12.4057  -15.4144   23.4513 O   0  0  0  0  0  0  0  0  0  0  0  0
  2  1  1  0
  3  2  1  0
  3  4  1  6
  5 11  1  0
  5  3  1  0
  6  5  2  0
  8  7  1  6
  8 10  1  0
  8  9  1  0
 10 11  1  6
 12 10  1  0
 12 14  1  0
 13 12  2  0
 15 14  1  0
 15 16  1  1
 16 17  1  0
 17 18  2  0
 19 20  1  0
 19 15  1  0
 21 17  1  0
 22 19  2  0
M  END
$$$$
