STD.pdb
     RDKit          3D

 22 21  0  0  1  0  0  0  0  0999 V2000
    8.0308  -17.9973   16.2301 O   0  0  0  0  0  0  0  0  0  0  0  0
    8.7935  -17.3616   15.2295 C   0  0  0  0  0  0  0  0  0  0  0  0
    8.5643  -15.8703   15.3640 C   0  0  2  0  0  0  0  0  0  0  0  0
    9.2950  -15.2196   14.2789 N   0  0  0  0  0  0  0  0  0  0  0  0
    9.1194  -15.4118   16.6666 C   0  0  0  0  0  0  0  0  0  0  0  0
   10.3590  -15.1634   16.7623 O   0  0  0  0  0  0  0  0  0  0  0  0
    7.4067  -12.8199   19.1526 C   0  0  0  0  0  0  0  0  0  0  0  0
    7.9893  -13.9811   19.9038 C   0  0  1  0  0  0  0  0  0  0  0  0
    6.9551  -14.7840   20.3771 O   0  0  0  0  0  0  0  0  0  0  0  0
    8.9399  -14.7973   19.0424 C   0  0  2  0  0  0  0  0  0  0  0  0
    8.3301  -15.2329   17.8273 N   0  0  0  0  0  0  0  0  0  0  0  0
    9.4990  -15.8986   19.8488 C   0  0  0  0  0  0  0  0  0  0  0  0
    9.5851  -17.0321   19.3215 O   0  0  0  0  0  0  0  0  0  0  0  0
    9.9448  -15.7537   21.1823 N   0  0  0  0  0  0  0  0  0  0  0  0
   10.6496  -16.8588   21.8899 C   0  0  1  0  0  0  0  0  0  0  0  0
   11.9143  -17.1869   21.1546 C   0  0  0  0  0  0  0  0  0  0  0  0
   12.7225  -18.1955   21.8475 C   0  0  0  0  0  0  0  0  0  0  0  0
   12.5470  -19.4309   21.7755 O   0  0  0  0  0  0  0  0  0  0  0  0
   10.8989  -16.3886   23.2732 C   0  0  0  0  0  0  0  0  0  0  0  0
   11.2295  -17.1927   24.3157 O   0  0  0  0  0  0  0  0  0  0  0  0
   13.8016  -17.8167   22.6790 O   0  0  0  0  0  0  0  0  0  0  0  0
   10.7989  -15.1484   23.5143 O   0  0  0  0  0  0  0  0  0  0  0  0
  2  1  1  0
  3  2  1  0
  3  4  1  6
  5 11  1  0
  5  3  1  0
  6  5  2  0
  8  7  1  6
  8 10  1  0
  8  9  1  0
 10 11  1  6
 12 10  1  0
 12 14  1  0
 13 12  2  0
 15 14  1  0
 15 16  1  6
 16 17  1  0
 17 18  2  0
 19 20  1  0
 19 15  1  0
 21 17  1  0
 22 19  2  0
M  END
$$$$
