QHV.pdb
     RDKit          3D

 27 27  0  0  1  0  0  0  0  0999 V2000
   10.8777  -19.3018   17.5769 N   0  0  0  0  0  0  0  0  0  0  0  0
   12.2216  -19.0601   17.9122 C   0  0  0  0  0  0  0  0  0  0  0  0
   13.0226  -18.6878   17.0381 O   0  0  0  0  0  0  0  0  0  0  0  0
   12.6817  -19.2471   19.2965 C   0  0  0  0  0  0  0  0  0  0  0  0
   13.2668  -17.9907   19.8920 C   0  0  0  0  0  0  0  0  0  0  0  0
   12.8453  -17.9753   21.3672 C   0  0  2  0  0  0  0  0  0  0  0  0
   12.3144  -19.2403   21.7753 N   0  0  0  0  0  0  0  0  0  0  0  0
   11.8256  -16.9246   21.6073 C   0  0  0  0  0  0  0  0  0  0  0  0
   11.8832  -15.9137   20.8438 O   0  0  0  0  0  0  0  0  0  0  0  0
   10.8704  -17.0921   22.6389 N   0  0  0  0  0  0  0  0  0  0  0  0
    9.9260  -16.0426   22.9099 C   0  0  1  0  0  0  0  0  0  0  0  0
    8.5930  -16.3522   22.3236 C   0  0  0  0  0  0  0  0  0  0  0  0
    7.8964  -15.1454   21.8138 C   0  0  0  0  0  0  0  0  0  0  0  0
    6.8041  -14.4861   22.3363 C   0  0  0  0  0  0  0  0  0  0  0  0
    6.5246  -13.4291   21.5176 N   0  0  0  0  0  0  0  0  0  0  0  0
    7.4115  -13.4272   20.5173 C   0  0  0  0  0  0  0  0  0  0  0  0
    8.2286  -14.4609   20.7061 N   0  0  0  0  0  0  0  0  0  0  0  0
    9.8622  -15.8415   24.3958 C   0  0  0  0  0  0  0  0  0  0  0  0
   10.3074  -16.7458   25.1133 O   0  0  0  0  0  0  0  0  0  0  0  0
    8.6217  -12.0013   25.7106 C   0  0  0  0  0  0  0  0  0  0  0  0
    8.2351  -13.1641   26.5916 C   0  0  2  0  0  0  0  0  0  0  0  0
    8.2893  -12.7085   28.0329 C   0  0  0  0  0  0  0  0  0  0  0  0
    9.1159  -14.3430   26.3234 C   0  0  2  0  0  0  0  0  0  0  0  0
    9.3204  -14.6761   24.9623 N   0  0  0  0  0  0  0  0  0  0  0  0
    8.9470  -15.4828   27.2136 C   0  0  0  0  0  0  0  0  0  0  0  0
    9.5789  -15.5760   28.2823 O   0  0  0  0  0  0  0  0  0  0  0  0
    8.0646  -16.4984   26.8779 O   0  0  0  0  0  0  0  0  0  0  0  0
  2  1  1  0
  3  2  2  0
  4  2  1  0
  5  4  1  0
  6  5  1  0
  6  8  1  0
  6  7  1  6
  8  9  2  0
 10  8  1  0
 10 11  1  0
 11 12  1  1
 12 13  1  0
 13 17  1  0
 14 13  2  0
 14 15  1  0
 15 16  1  0
 17 16  2  0
 18 19  2  0
 18 11  1  0
 21 20  1  6
 21 23  1  0
 22 21  1  0
 23 24  1  6
 24 18  1  0
 25 23  1  0
 25 27  1  0
 26 25  2  0
M  END
$$$$
