QHV.pdb
     RDKit          3D

 27 27  0  0  1  0  0  0  0  0999 V2000
    9.0745  -12.5201   18.9344 N   0  0  0  0  0  0  0  0  0  0  0  0
    8.3041  -13.1835   17.9631 C   0  0  0  0  0  0  0  0  0  0  0  0
    8.6939  -13.2262   16.7839 O   0  0  0  0  0  0  0  0  0  0  0  0
    7.0368  -13.8275   18.3402 C   0  0  0  0  0  0  0  0  0  0  0  0
    6.9513  -14.1284   19.8158 C   0  0  0  0  0  0  0  0  0  0  0  0
    8.0511  -15.1566   20.1112 C   0  0  2  0  0  0  0  0  0  0  0  0
    7.9204  -16.3180   19.2848 N   0  0  0  0  0  0  0  0  0  0  0  0
    8.0085  -15.5712   21.5352 C   0  0  0  0  0  0  0  0  0  0  0  0
    6.9465  -15.2801   22.1641 O   0  0  0  0  0  0  0  0  0  0  0  0
    9.1139  -16.2474   22.1057 N   0  0  0  0  0  0  0  0  0  0  0  0
    9.1010  -16.5749   23.5055 C   0  0  1  0  0  0  0  0  0  0  0  0
   10.2639  -17.4302   23.8698 C   0  0  0  0  0  0  0  0  0  0  0  0
   10.2044  -17.9121   25.2719 C   0  0  0  0  0  0  0  0  0  0  0  0
    9.2302  -17.6990   26.2240 C   0  0  0  0  0  0  0  0  0  0  0  0
    9.6157  -18.3423   27.3656 N   0  0  0  0  0  0  0  0  0  0  0  0
   10.7906  -18.9374   27.1357 C   0  0  0  0  0  0  0  0  0  0  0  0
   11.1329  -18.6721   25.8770 N   0  0  0  0  0  0  0  0  0  0  0  0
    9.0693  -15.2936   24.2863 C   0  0  0  0  0  0  0  0  0  0  0  0
    9.1120  -14.2351   23.6472 O   0  0  0  0  0  0  0  0  0  0  0  0
    7.7203  -12.8309   24.7343 C   0  0  0  0  0  0  0  0  0  0  0  0
    7.4343  -13.4079   26.0992 C   0  0  2  0  0  0  0  0  0  0  0  0
    7.1251  -12.2673   27.0434 C   0  0  0  0  0  0  0  0  0  0  0  0
    8.5793  -14.2507   26.5645 C   0  0  2  0  0  0  0  0  0  0  0  0
    8.9942  -15.2833   25.6888 N   0  0  0  0  0  0  0  0  0  0  0  0
    8.5769  -14.6093   27.9758 C   0  0  0  0  0  0  0  0  0  0  0  0
    7.8719  -15.5380   28.4123 O   0  0  0  0  0  0  0  0  0  0  0  0
    9.3737  -13.9095   28.8691 O   0  0  0  0  0  0  0  0  0  0  0  0
  2  1  1  0
  3  2  2  0
  4  2  1  0
  5  4  1  0
  6  5  1  0
  6  8  1  0
  6  7  1  6
  8  9  2  0
 10  8  1  0
 10 11  1  0
 11 12  1  1
 12 13  1  0
 13 17  1  0
 14 13  2  0
 14 15  1  0
 15 16  1  0
 17 16  2  0
 18 19  2  0
 18 11  1  0
 21 20  1  6
 21 23  1  0
 22 21  1  0
 23 24  1  6
 24 18  1  0
 25 23  1  0
 25 27  1  0
 26 25  2  0
M  END
$$$$
