QHV.pdb
     RDKit          3D

 27 27  0  0  1  0  0  0  0  0999 V2000
    7.7305  -15.3870   16.6264 N   0  0  0  0  0  0  0  0  0  0  0  0
    8.1491  -14.0679   16.3776 C   0  0  0  0  0  0  0  0  0  0  0  0
    8.6283  -13.7665   15.2713 O   0  0  0  0  0  0  0  0  0  0  0  0
    8.0208  -13.0433   17.4248 C   0  0  0  0  0  0  0  0  0  0  0  0
    7.3786  -13.5719   18.6832 C   0  0  0  0  0  0  0  0  0  0  0  0
    8.4824  -13.6090   19.7483 C   0  0  2  0  0  0  0  0  0  0  0  0
    9.6494  -14.2877   19.2724 N   0  0  0  0  0  0  0  0  0  0  0  0
    7.9988  -14.2858   20.9770 C   0  0  0  0  0  0  0  0  0  0  0  0
    6.8997  -13.8613   21.4457 O   0  0  0  0  0  0  0  0  0  0  0  0
    8.7580  -15.3353   21.5488 N   0  0  0  0  0  0  0  0  0  0  0  0
    8.2594  -16.0222   22.7091 C   0  0  1  0  0  0  0  0  0  0  0  0
    8.7418  -17.4300   22.7510 C   0  0  0  0  0  0  0  0  0  0  0  0
    8.0482  -18.3032   21.7723 C   0  0  0  0  0  0  0  0  0  0  0  0
    7.0216  -17.9938   20.9055 C   0  0  0  0  0  0  0  0  0  0  0  0
    6.7150  -19.1241   20.2026 N   0  0  0  0  0  0  0  0  0  0  0  0
    7.5218  -20.1068   20.6154 C   0  0  0  0  0  0  0  0  0  0  0  0
    8.3165  -19.6022   21.5565 N   0  0  0  0  0  0  0  0  0  0  0  0
    8.6669  -15.2438   23.9259 C   0  0  0  0  0  0  0  0  0  0  0  0
    9.8624  -14.9456   24.0381 O   0  0  0  0  0  0  0  0  0  0  0  0
    6.6571  -12.1949   25.2979 C   0  0  0  0  0  0  0  0  0  0  0  0
    6.8928  -13.1307   26.4582 C   0  0  2  0  0  0  0  0  0  0  0  0
    7.2609  -12.3038   27.6701 C   0  0  0  0  0  0  0  0  0  0  0  0
    7.9352  -14.1462   26.1117 C   0  0  2  0  0  0  0  0  0  0  0  0
    7.7364  -14.8625   24.9064 N   0  0  0  0  0  0  0  0  0  0  0  0
    8.4457  -14.9417   27.2193 C   0  0  0  0  0  0  0  0  0  0  0  0
    8.1081  -16.1291   27.3805 O   0  0  0  0  0  0  0  0  0  0  0  0
    9.3305  -14.3781   28.1261 O   0  0  0  0  0  0  0  0  0  0  0  0
  2  1  1  0
  3  2  2  0
  4  2  1  0
  5  4  1  0
  6  5  1  0
  6  8  1  0
  6  7  1  6
  8  9  2  0
 10  8  1  0
 10 11  1  0
 11 12  1  1
 12 13  1  0
 13 17  1  0
 14 13  2  0
 14 15  1  0
 15 16  1  0
 17 16  2  0
 18 19  2  0
 18 11  1  0
 21 20  1  6
 21 23  1  0
 22 21  1  0
 23 24  1  6
 24 18  1  0
 25 23  1  0
 25 27  1  0
 26 25  2  0
M  END
$$$$
