QHV.pdb
     RDKit          3D

 27 27  0  0  1  0  0  0  0  0999 V2000
    9.4637  -12.6993   18.4744 N   0  0  0  0  0  0  0  0  0  0  0  0
    8.6490  -13.3602   17.5383 C   0  0  0  0  0  0  0  0  0  0  0  0
    9.0053  -13.4383   16.3503 O   0  0  0  0  0  0  0  0  0  0  0  0
    7.3748  -13.9599   17.9625 C   0  0  0  0  0  0  0  0  0  0  0  0
    7.1213  -13.8067   19.4416 C   0  0  0  0  0  0  0  0  0  0  0  0
    8.1409  -14.7082   20.1500 C   0  0  2  0  0  0  0  0  0  0  0  0
    8.4062  -15.8954   19.3957 N   0  0  0  0  0  0  0  0  0  0  0  0
    7.6503  -15.0924   21.4965 C   0  0  0  0  0  0  0  0  0  0  0  0
    6.7693  -14.3328   22.0013 O   0  0  0  0  0  0  0  0  0  0  0  0
    8.1687  -16.2462   22.1327 N   0  0  0  0  0  0  0  0  0  0  0  0
    7.7967  -16.5362   23.4908 C   0  0  1  0  0  0  0  0  0  0  0  0
    8.1075  -17.9485   23.8451 C   0  0  0  0  0  0  0  0  0  0  0  0
    7.6992  -18.2957   25.2286 C   0  0  0  0  0  0  0  0  0  0  0  0
    6.6096  -17.8562   25.9500 C   0  0  0  0  0  0  0  0  0  0  0  0
    6.6547  -18.4528   27.1779 N   0  0  0  0  0  0  0  0  0  0  0  0
    7.7354  -19.2384   27.2233 C   0  0  0  0  0  0  0  0  0  0  0  0
    8.3533  -19.1357   26.0487 N   0  0  0  0  0  0  0  0  0  0  0  0
    8.4956  -15.5567   24.3877 C   0  0  0  0  0  0  0  0  0  0  0  0
    9.7016  -15.3628   24.1904 O   0  0  0  0  0  0  0  0  0  0  0  0
    6.2442  -12.8678   27.1863 C   0  0  0  0  0  0  0  0  0  0  0  0
    7.5537  -12.6565   26.4664 C   0  0  2  0  0  0  0  0  0  0  0  0
    7.2617  -12.0332   25.1195 C   0  0  0  0  0  0  0  0  0  0  0  0
    8.3080  -13.9437   26.3577 C   0  0  2  0  0  0  0  0  0  0  0  0
    7.8179  -14.8798   25.4149 N   0  0  0  0  0  0  0  0  0  0  0  0
    8.7689  -14.5224   27.6118 C   0  0  0  0  0  0  0  0  0  0  0  0
    8.4043  -15.6537   27.9819 O   0  0  0  0  0  0  0  0  0  0  0  0
    9.6357  -13.8091   28.4259 O   0  0  0  0  0  0  0  0  0  0  0  0
  2  1  1  0
  3  2  2  0
  4  2  1  0
  5  4  1  0
  6  5  1  0
  6  8  1  0
  6  7  1  6
  8  9  2  0
 10  8  1  0
 10 11  1  0
 11 12  1  1
 12 13  1  0
 13 17  1  0
 14 13  2  0
 14 15  1  0
 15 16  1  0
 17 16  2  0
 18 19  2  0
 18 11  1  0
 21 20  1  6
 21 23  1  0
 22 21  1  0
 23 24  1  1
 24 18  1  0
 25 23  1  0
 25 27  1  0
 26 25  2  0
M  END
$$$$
