QHV.pdb
     RDKit          3D

 27 27  0  0  1  0  0  0  0  0999 V2000
   10.8574  -13.6598   19.8043 N   0  0  0  0  0  0  0  0  0  0  0  0
    9.9737  -13.5480   18.7164 C   0  0  0  0  0  0  0  0  0  0  0  0
   10.3551  -13.8498   17.5728 O   0  0  0  0  0  0  0  0  0  0  0  0
    8.5978  -13.0742   18.9292 C   0  0  0  0  0  0  0  0  0  0  0  0
    8.0793  -13.3884   20.3105 C   0  0  0  0  0  0  0  0  0  0  0  0
    7.7418  -14.8851   20.3148 C   0  0  2  0  0  0  0  0  0  0  0  0
    6.6416  -15.1783   19.4473 N   0  0  0  0  0  0  0  0  0  0  0  0
    7.4082  -15.3405   21.6870 C   0  0  0  0  0  0  0  0  0  0  0  0
    6.2517  -15.0320   22.1059 O   0  0  0  0  0  0  0  0  0  0  0  0
    8.3604  -16.0713   22.4380 N   0  0  0  0  0  0  0  0  0  0  0  0
    7.9979  -16.5956   23.7266 C   0  0  1  0  0  0  0  0  0  0  0  0
    8.1074  -18.0801   23.7549 C   0  0  0  0  0  0  0  0  0  0  0  0
    7.8661  -18.6472   25.1045 C   0  0  0  0  0  0  0  0  0  0  0  0
    8.7795  -19.0096   26.0716 C   0  0  0  0  0  0  0  0  0  0  0  0
    8.0824  -19.4821   27.1470 N   0  0  0  0  0  0  0  0  0  0  0  0
    6.7777  -19.4175   26.8626 C   0  0  0  0  0  0  0  0  0  0  0  0
    6.6609  -18.9153   25.6354 N   0  0  0  0  0  0  0  0  0  0  0  0
    8.8664  -15.9403   24.7604 C   0  0  0  0  0  0  0  0  0  0  0  0
   10.0683  -15.8111   24.4967 O   0  0  0  0  0  0  0  0  0  0  0  0
    8.0425  -12.6614   26.4581 C   0  0  0  0  0  0  0  0  0  0  0  0
    8.3678  -13.6055   27.5897 C   0  0  2  0  0  0  0  0  0  0  0  0
    9.2426  -12.8743   28.5837 C   0  0  0  0  0  0  0  0  0  0  0  0
    9.0044  -14.8541   27.0667 C   0  0  2  0  0  0  0  0  0  0  0  0
    8.3468  -15.4870   25.9840 N   0  0  0  0  0  0  0  0  0  0  0  0
    9.5483  -15.7616   28.0671 C   0  0  0  0  0  0  0  0  0  0  0  0
    8.8544  -16.6581   28.5815 O   0  0  0  0  0  0  0  0  0  0  0  0
   10.8700  -15.6379   28.4681 O   0  0  0  0  0  0  0  0  0  0  0  0
  2  1  1  0
  3  2  2  0
  4  2  1  0
  5  4  1  0
  6  5  1  0
  6  8  1  0
  6  7  1  6
  8  9  2  0
 10  8  1  0
 10 11  1  0
 11 12  1  6
 12 13  1  0
 13 17  1  0
 14 13  2  0
 14 15  1  0
 15 16  1  0
 17 16  2  0
 18 19  2  0
 18 11  1  0
 21 20  1  6
 21 23  1  0
 22 21  1  0
 23 24  1  1
 24 18  1  0
 25 23  1  0
 25 27  1  0
 26 25  2  0
M  END
$$$$
