RPD.pdb
     RDKit          3D

 27 27  0  0  1  0  0  0  0  0999 V2000
   46.6930  -12.8742   -6.0716 N   0  0  0  0  0  0  0  0  0  0  0  0
   46.8740  -11.5290   -6.4613 C   0  0  0  0  0  0  0  0  0  0  0  0
   48.0968  -11.1495   -6.7382 N   0  0  0  0  0  0  0  0  0  0  0  0
   45.8166  -10.5951   -6.5533 N   0  0  0  0  0  0  0  0  0  0  0  0
   44.4754  -11.0422   -6.1667 C   0  0  0  0  0  0  0  0  0  0  0  0
   43.8544  -11.7988   -7.2846 C   0  0  0  0  0  0  0  0  0  0  0  0
   42.6834  -11.0993   -7.8706 C   0  0  0  0  0  0  0  0  0  0  0  0
   41.7545  -11.8893   -8.7122 C   0  0  2  0  0  0  0  0  0  0  0  0
   42.3142  -12.4049   -9.9326 N   0  0  0  0  0  0  0  0  0  0  0  0
   40.6416  -10.9570   -9.1262 C   0  0  0  0  0  0  0  0  0  0  0  0
   40.5747  -10.5578  -10.3411 O   0  0  0  0  0  0  0  0  0  0  0  0
   48.3049  -10.1871   -7.0705 N   0  0  0  0  0  0  0  0  0  0  0  0
   39.6488  -10.4887   -8.2418 C   0  0  0  0  0  0  0  0  0  0  0  0
   39.5192  -10.7746   -6.8415 C   0  0  0  0  0  0  0  0  0  0  0  0
   38.0384  -10.8390   -6.5678 C   0  0  0  0  0  0  0  0  0  0  0  0
   37.3913  -10.2516   -7.7921 C   0  0  1  0  0  0  0  0  0  0  0  0
   38.5311   -9.6233   -8.6172 C   0  0  0  0  0  0  0  0  0  0  0  0
   38.7034   -8.2649   -8.0409 O   0  0  0  0  0  0  0  0  0  0  0  0
   39.3177   -8.0708   -6.9543 N   0  0  0  0  0  0  0  0  0  0  0  0
   38.1908   -7.0910   -8.6682 C   0  0  1  0  0  0  0  0  0  0  0  0
   39.0068   -5.9910   -9.0551 C   0  0  0  0  0  0  0  0  0  0  0  0
   40.3005   -6.3532   -9.7495 C   0  0  0  0  0  0  0  0  0  0  0  0
   41.1130   -5.1157  -10.0125 O   0  0  0  0  0  0  0  0  0  0  0  0
   40.6878   -4.1733  -10.7270 C   0  0  0  0  0  0  0  0  0  0  0  0
   38.2207   -5.0666   -9.9135 O   0  0  0  0  0  0  0  0  0  0  0  0
   38.0699   -3.7429   -9.5622 O   0  0  0  0  0  0  0  0  0  0  0  0
   42.4013   -4.9485   -9.4730 O   0  0  0  0  0  0  0  0  0  0  0  0
  2  1  1  0
  3  2  2  0
  4  2  1  0
  5  6  1  0
  5  4  1  0
  7  6  1  0
  8  7  1  0
  8  9  1  6
 10 12  1  0
 10  8  1  0
 11 10  2  0
 12 16  1  0
 13 12  1  0
 13 14  1  0
 14 15  1  0
 16 15  1  0
 16 17  1  1
 17 18  2  0
 19 17  1  0
 20 19  1  0
 20 21  1  1
 22 21  1  0
 22 23  2  0
 24 20  1  0
 24 25  1  0
 26 22  1  0
 27 24  2  0
M  END
$$$$
