RPD.pdb
     RDKit          3D

 27 27  0  0  1  0  0  0  0  0999 V2000
   24.2822  -15.1986  -17.5702 N   0  0  0  0  0  0  0  0  0  0  0  0
   24.0030  -16.4935  -17.0806 C   0  0  0  0  0  0  0  0  0  0  0  0
   23.1096  -17.1957  -17.7322 N   0  0  0  0  0  0  0  0  0  0  0  0
   24.6259  -17.0459  -15.9380 N   0  0  0  0  0  0  0  0  0  0  0  0
   25.5218  -16.1818  -15.1640 C   0  0  0  0  0  0  0  0  0  0  0  0
   26.9242  -16.6508  -15.3088 C   0  0  0  0  0  0  0  0  0  0  0  0
   27.3049  -17.6492  -14.2783 C   0  0  0  0  0  0  0  0  0  0  0  0
   27.7118  -18.9980  -14.7375 C   0  0  2  0  0  0  0  0  0  0  0  0
   28.1621  -19.0759  -16.1012 N   0  0  0  0  0  0  0  0  0  0  0  0
   26.4861  -19.8753  -14.6532 C   0  0  0  0  0  0  0  0  0  0  0  0
   25.9569  -20.3216  -15.7304 O   0  0  0  0  0  0  0  0  0  0  0  0
   22.8135  -18.1364  -17.4046 N   0  0  0  0  0  0  0  0  0  0  0  0
   25.8744  -20.2435  -13.4378 C   0  0  0  0  0  0  0  0  0  0  0  0
   26.1325  -19.7089  -12.1313 C   0  0  0  0  0  0  0  0  0  0  0  0
   25.9791  -20.8634  -11.1744 C   0  0  0  0  0  0  0  0  0  0  0  0
   25.3088  -21.9456  -11.9757 C   0  0  2  0  0  0  0  0  0  0  0  0
   24.8568  -21.2839  -13.2919 C   0  0  0  0  0  0  0  0  0  0  0  0
   23.5357  -20.6840  -12.9731 O   0  0  0  0  0  0  0  0  0  0  0  0
   23.4200  -19.6860  -12.2073 N   0  0  0  0  0  0  0  0  0  0  0  0
   22.3119  -21.1883  -13.5044 C   0  0  1  0  0  0  0  0  0  0  0  0
   21.0616  -20.5254  -13.3538 C   0  0  0  0  0  0  0  0  0  0  0  0
   20.1704  -20.5319  -14.5756 C   0  0  0  0  0  0  0  0  0  0  0  0
   20.9008  -19.9511  -15.7545 O   0  0  0  0  0  0  0  0  0  0  0  0
   21.5801  -18.8972  -15.6699 C   0  0  0  0  0  0  0  0  0  0  0  0
   20.3283  -21.1036  -12.1974 O   0  0  0  0  0  0  0  0  0  0  0  0
   20.6224  -22.3712  -11.7448 O   0  0  0  0  0  0  0  0  0  0  0  0
   20.8584  -20.5579  -17.0229 O   0  0  0  0  0  0  0  0  0  0  0  0
  2  1  1  0
  3  2  2  0
  4  2  1  0
  5  6  1  0
  5  4  1  0
  7  6  1  0
  8  7  1  0
  8  9  1  6
 10 12  1  0
 10  8  1  0
 11 10  2  0
 12 16  1  0
 13 12  1  0
 13 14  1  0
 14 15  1  0
 16 15  1  0
 16 17  1  1
 17 18  2  0
 19 17  1  0
 20 19  1  0
 20 21  1  1
 22 21  1  0
 22 23  2  0
 24 20  1  0
 24 25  1  0
 26 22  1  0
 27 24  2  0
M  END
$$$$
