RPD.pdb
     RDKit          3D

 27 27  0  0  1  0  0  0  0  0999 V2000
   18.4250  -19.4869  -12.4903 N   0  0  0  0  0  0  0  0  0  0  0  0
   19.3842  -20.4577  -12.1273 C   0  0  0  0  0  0  0  0  0  0  0  0
   19.1020  -21.2162  -11.0973 N   0  0  0  0  0  0  0  0  0  0  0  0
   20.6109  -20.6339  -12.8075 N   0  0  0  0  0  0  0  0  0  0  0  0
   20.8236  -19.8705  -14.0405 C   0  0  0  0  0  0  0  0  0  0  0  0
   22.0011  -18.9779  -13.8843 C   0  0  0  0  0  0  0  0  0  0  0  0
   22.1122  -17.9777  -14.9757 C   0  0  0  0  0  0  0  0  0  0  0  0
   22.7915  -18.3897  -16.2264 C   0  0  2  0  0  0  0  0  0  0  0  0
   22.1435  -19.4414  -16.9631 N   0  0  0  0  0  0  0  0  0  0  0  0
   24.1436  -18.9316  -15.8299 C   0  0  0  0  0  0  0  0  0  0  0  0
   24.3479  -20.1953  -15.8591 O   0  0  0  0  0  0  0  0  0  0  0  0
   19.7841  -21.9085  -10.7293 N   0  0  0  0  0  0  0  0  0  0  0  0
   25.2195  -18.1172  -15.4221 C   0  0  0  0  0  0  0  0  0  0  0  0
   25.2166  -16.6950  -15.2302 C   0  0  0  0  0  0  0  0  0  0  0  0
   26.5805  -16.2172  -15.6583 C   0  0  0  0  0  0  0  0  0  0  0  0
   27.4128  -17.4654  -15.7671 C   0  0  2  0  0  0  0  0  0  0  0  0
   26.5729  -18.5943  -15.1391 C   0  0  0  0  0  0  0  0  0  0  0  0
   26.8646  -18.5113  -13.6848 O   0  0  0  0  0  0  0  0  0  0  0  0
   26.6139  -17.4737  -13.0092 N   0  0  0  0  0  0  0  0  0  0  0  0
   27.4450  -19.5888  -12.9525 C   0  0  2  0  0  0  0  0  0  0  0  0
   26.9585  -20.0277  -11.6892 C   0  0  0  0  0  0  0  0  0  0  0  0
   25.5220  -19.6665  -11.3839 C   0  0  0  0  0  0  0  0  0  0  0  0
   25.1327  -20.1855  -10.0276 O   0  0  0  0  0  0  0  0  0  0  0  0
   25.9405  -20.2201   -9.0654 C   0  0  0  0  0  0  0  0  0  0  0  0
   27.1400  -21.4981  -11.5699 O   0  0  0  0  0  0  0  0  0  0  0  0
   27.9110  -22.0286  -10.5587 O   0  0  0  0  0  0  0  0  0  0  0  0
   23.8375  -20.6666   -9.7637 O   0  0  0  0  0  0  0  0  0  0  0  0
  2  1  1  0
  3  2  2  0
  4  2  1  0
  5  6  1  0
  5  4  1  0
  7  6  1  0
  8  7  1  0
  8  9  1  1
 10 12  1  0
 10  8  1  0
 11 10  2  0
 12 16  1  0
 13 12  1  0
 13 14  1  0
 14 15  1  0
 16 15  1  0
 16 17  1  1
 17 18  2  0
 19 17  1  0
 20 19  1  0
 20 21  1  1
 22 21  1  0
 22 23  2  0
 24 20  1  0
 24 25  1  0
 26 22  1  0
 27 24  2  0
M  END
$$$$
