RPD.pdb
     RDKit          3D

 27 27  0  0  1  0  0  0  0  0999 V2000
   22.2633  -18.2299  -17.4163 N   0  0  0  0  0  0  0  0  0  0  0  0
   20.9939  -17.6755  -17.1413 C   0  0  0  0  0  0  0  0  0  0  0  0
   20.4111  -17.0146  -18.1106 N   0  0  0  0  0  0  0  0  0  0  0  0
   20.3462  -17.7934  -15.8902 N   0  0  0  0  0  0  0  0  0  0  0  0
   21.0315  -18.5450  -14.8349 C   0  0  0  0  0  0  0  0  0  0  0  0
   20.7579  -19.9971  -14.9911 C   0  0  0  0  0  0  0  0  0  0  0  0
   20.8168  -20.7342  -13.7039 C   0  0  0  0  0  0  0  0  0  0  0  0
   22.1043  -20.7460  -12.9706 C   0  0  2  0  0  0  0  0  0  0  0  0
   23.2217  -21.2905  -13.6941 N   0  0  0  0  0  0  0  0  0  0  0  0
   21.9127  -21.6381  -11.7679 C   0  0  0  0  0  0  0  0  0  0  0  0
   22.1839  -22.8860  -11.8609 O   0  0  0  0  0  0  0  0  0  0  0  0
   19.4968  -16.5404  -17.9718 N   0  0  0  0  0  0  0  0  0  0  0  0
   21.4454  -21.1745  -10.5213 C   0  0  0  0  0  0  0  0  0  0  0  0
   20.9294  -19.8722  -10.2097 C   0  0  0  0  0  0  0  0  0  0  0  0
   21.3794  -19.5750   -8.8022 C   0  0  0  0  0  0  0  0  0  0  0  0
   21.8644  -20.8928   -8.2631 C   0  0  1  0  0  0  0  0  0  0  0  0
   21.4288  -21.9589   -9.2869 C   0  0  0  0  0  0  0  0  0  0  0  0
   20.0352  -22.2992   -8.9009 O   0  0  0  0  0  0  0  0  0  0  0  0
   19.0694  -21.5140   -9.1161 N   0  0  0  0  0  0  0  0  0  0  0  0
   19.6904  -23.5276   -8.2635 C   0  0  1  0  0  0  0  0  0  0  0  0
   18.3480  -23.9321   -8.0190 C   0  0  0  0  0  0  0  0  0  0  0  0
   18.0553  -25.3961   -8.2604 C   0  0  0  0  0  0  0  0  0  0  0  0
   17.8041  -25.6414   -9.7224 O   0  0  0  0  0  0  0  0  0  0  0  0
   17.7719  -24.7080  -10.5633 C   0  0  0  0  0  0  0  0  0  0  0  0
   17.9643  -23.5685   -6.6297 O   0  0  0  0  0  0  0  0  0  0  0  0
   16.6375  -23.4436   -6.2798 O   0  0  0  0  0  0  0  0  0  0  0  0
   17.5862  -26.9357  -10.2283 O   0  0  0  0  0  0  0  0  0  0  0  0
  2  1  1  0
  3  2  2  0
  4  2  1  0
  5  6  1  0
  5  4  1  0
  7  6  1  0
  8  7  1  0
  8  9  1  6
 10 12  1  0
 10  8  1  0
 11 10  2  0
 12 16  1  0
 13 12  1  0
 13 14  1  0
 14 15  1  0
 16 15  1  0
 16 17  1  1
 17 18  2  0
 19 17  1  0
 20 19  1  0
 20 21  1  1
 22 21  1  0
 22 23  2  0
 24 20  1  0
 24 25  1  0
 26 22  1  0
 27 24  2  0
M  END
$$$$
