RPD.pdb
     RDKit          3D

 27 27  0  0  1  0  0  0  0  0999 V2000
   24.0270  -20.6753   -9.7831 N   0  0  0  0  0  0  0  0  0  0  0  0
   25.3343  -20.8167   -9.2681 C   0  0  0  0  0  0  0  0  0  0  0  0
   25.5763  -20.2708   -8.1022 N   0  0  0  0  0  0  0  0  0  0  0  0
   26.3702  -21.4984   -9.9471 N   0  0  0  0  0  0  0  0  0  0  0  0
   26.0802  -22.0219  -11.2850 C   0  0  0  0  0  0  0  0  0  0  0  0
   26.8203  -21.2355  -12.3056 C   0  0  0  0  0  0  0  0  0  0  0  0
   26.0434  -21.0418  -13.5557 C   0  0  0  0  0  0  0  0  0  0  0  0
   24.7353  -20.3527  -13.4586 C   0  0  2  0  0  0  0  0  0  0  0  0
   23.5804  -21.2055  -13.5459 N   0  0  0  0  0  0  0  0  0  0  0  0
   24.6490  -19.4135  -14.6374 C   0  0  0  0  0  0  0  0  0  0  0  0
   23.5049  -19.1481  -15.1477 O   0  0  0  0  0  0  0  0  0  0  0  0
   26.4976  -20.3772   -7.6332 N   0  0  0  0  0  0  0  0  0  0  0  0
   25.7718  -18.7954  -15.2241 C   0  0  0  0  0  0  0  0  0  0  0  0
   27.1457  -18.9210  -14.8291 C   0  0  0  0  0  0  0  0  0  0  0  0
   27.7721  -17.5726  -15.0766 C   0  0  0  0  0  0  0  0  0  0  0  0
   26.7741  -16.8301  -15.9223 C   0  0  1  0  0  0  0  0  0  0  0  0
   25.7247  -17.8714  -16.3570 C   0  0  0  0  0  0  0  0  0  0  0  0
   26.3047  -18.5008  -17.5712 O   0  0  0  0  0  0  0  0  0  0  0  0
   27.5517  -18.5614  -17.7642 N   0  0  0  0  0  0  0  0  0  0  0  0
   25.5013  -19.0770  -18.5991 C   0  0  2  0  0  0  0  0  0  0  0  0
   25.2830  -18.4572  -19.8614 C   0  0  0  0  0  0  0  0  0  0  0  0
   24.4708  -17.1819  -19.8283 C   0  0  0  0  0  0  0  0  0  0  0  0
   23.0125  -17.4992  -19.6454 O   0  0  0  0  0  0  0  0  0  0  0  0
   22.5692  -18.6737  -19.7036 C   0  0  0  0  0  0  0  0  0  0  0  0
   26.5896  -18.2003  -20.5219 O   0  0  0  0  0  0  0  0  0  0  0  0
   26.9995  -18.9724  -21.5869 O   0  0  0  0  0  0  0  0  0  0  0  0
   22.0614  -16.4918  -19.4022 O   0  0  0  0  0  0  0  0  0  0  0  0
  2  1  1  0
  3  2  2  0
  4  2  1  0
  5  6  1  0
  5  4  1  0
  7  6  1  0
  8  7  1  0
  8  9  1  6
 10 12  1  0
 10  8  1  0
 11 10  2  0
 12 16  1  0
 13 12  1  0
 13 14  1  0
 14 15  1  0
 16 15  1  0
 16 17  1  6
 17 18  2  0
 19 17  1  0
 20 19  1  0
 20 21  1  1
 22 21  1  0
 22 23  2  0
 24 20  1  0
 24 25  1  0
 26 22  1  0
 27 24  2  0
M  END
$$$$
