PYY.pdb
     RDKit          3D

 32 34  0  0  1  0  0  0  0  0999 V2000
   23.4623  -10.2789  -18.9450 N   0  0  0  0  0  0  0  0  0  0  0  0
   23.9182  -11.2889  -19.8681 C   0  0  0  0  0  0  0  0  0  0  0  0
   22.8058  -11.5799  -20.8220 C   0  0  0  0  0  0  0  0  0  0  0  0
   21.6141  -10.8623  -20.1737 C   0  0  0  0  0  0  0  0  0  0  0  0
   22.3328   -9.6678  -19.5697 C   0  0  1  0  0  0  0  0  0  0  0  0
   21.4760   -8.9050  -18.6407 C   0  0  0  0  0  0  0  0  0  0  0  0
   20.4720   -8.3243  -19.1300 O   0  0  0  0  0  0  0  0  0  0  0  0
   17.2413  -13.4776  -16.1136 O   0  0  0  0  0  0  0  0  0  0  0  0
   18.0702  -12.3827  -15.8702 C   0  0  0  0  0  0  0  0  0  0  0  0
   17.5609  -11.1501  -15.6191 C   0  0  0  0  0  0  0  0  0  0  0  0
   18.3949  -10.0608  -15.3768 C   0  0  0  0  0  0  0  0  0  0  0  0
   19.7683  -10.1894  -15.3820 C   0  0  0  0  0  0  0  0  0  0  0  0
   20.6216   -9.0321  -15.1237 C   0  0  0  0  0  0  0  0  0  0  0  0
   20.8065   -8.1208  -16.3213 C   0  0  2  0  0  0  0  0  0  0  0  0
   21.7006   -8.7829  -17.2620 N   0  0  0  0  0  0  0  0  0  0  0  0
   21.2823   -6.7756  -15.9630 C   0  0  0  0  0  0  0  0  0  0  0  0
   22.4477   -6.5527  -15.5442 O   0  0  0  0  0  0  0  0  0  0  0  0
   20.2659  -11.4452  -15.6381 C   0  0  0  0  0  0  0  0  0  0  0  0
   19.4579  -12.5359  -15.8803 C   0  0  0  0  0  0  0  0  0  0  0  0
   22.9291    1.7076  -16.9629 O   0  0  0  0  0  0  0  0  0  0  0  0
   22.5231    0.3580  -17.0075 C   0  0  0  0  0  0  0  0  0  0  0  0
   23.4475   -0.6611  -17.0402 C   0  0  0  0  0  0  0  0  0  0  0  0
   23.0351   -1.9840  -17.0840 C   0  0  0  0  0  0  0  0  0  0  0  0
   21.7052   -2.3329  -17.0964 C   0  0  0  0  0  0  0  0  0  0  0  0
   21.2698   -3.7222  -17.1429 C   0  0  0  0  0  0  0  0  0  0  0  0
   20.9416   -4.3069  -15.7575 C   0  0  2  0  0  0  0  0  0  0  0  0
   20.4265   -5.6466  -16.0793 N   0  0  0  0  0  0  0  0  0  0  0  0
   19.9781   -3.4801  -15.0399 C   0  0  0  0  0  0  0  0  0  0  0  0
   20.4071   -2.5564  -14.1068 O   0  0  0  0  0  0  0  0  0  0  0  0
   20.7872   -1.3088  -17.0635 C   0  0  0  0  0  0  0  0  0  0  0  0
   21.1889    0.0277  -17.0193 C   0  0  0  0  0  0  0  0  0  0  0  0
   18.7476   -3.5890  -15.2525 O   0  0  0  0  0  0  0  0  0  0  0  0
  1  5  1  0
  1  2  1  0
  2  3  1  0
  4  3  1  0
  5  4  1  0
  5  6  1  1
  7  6  2  0
  8  9  1  0
  9 10  2  0
 10 11  1  0
 12 13  1  0
 12 11  2  0
 14 13  1  1
 14 16  1  0
 14 15  1  0
 15  6  1  0
 16 17  2  0
 18 12  1  0
 19 18  2  0
 19  9  1  0
 21 22  2  0
 21 20  1  0
 23 22  1  0
 24 23  2  0
 26 25  1  6
 25 24  1  0
 27 26  1  0
 27 16  1  0
 28 29  1  0
 28 26  1  0
 30 24  1  0
 30 31  2  0
 31 21  1  0
 32 28  2  0
M  END
$$$$
