PYY.pdb
     RDKit          3D

 32 34  0  0  1  0  0  0  0  0999 V2000
   28.9599  -21.1335  -17.7568 N   0  0  0  0  0  0  0  0  0  0  0  0
   29.9876  -21.4832  -18.7064 C   0  0  0  0  0  0  0  0  0  0  0  0
   30.1198  -22.9714  -18.7180 C   0  0  0  0  0  0  0  0  0  0  0  0
   29.2894  -23.3896  -17.4969 C   0  0  0  0  0  0  0  0  0  0  0  0
   28.2043  -22.3275  -17.5498 C   0  0  1  0  0  0  0  0  0  0  0  0
   27.3761  -22.3064  -16.3280 C   0  0  0  0  0  0  0  0  0  0  0  0
   26.5224  -23.2221  -16.1963 O   0  0  0  0  0  0  0  0  0  0  0  0
   24.6100  -20.2787   -8.1002 O   0  0  0  0  0  0  0  0  0  0  0  0
   25.3162  -20.4157   -9.2951 C   0  0  0  0  0  0  0  0  0  0  0  0
   25.6120  -21.6369   -9.8077 C   0  0  0  0  0  0  0  0  0  0  0  0
   26.3178  -21.7662  -11.0018 C   0  0  0  0  0  0  0  0  0  0  0  0
   26.7439  -20.6621  -11.7103 C   0  0  0  0  0  0  0  0  0  0  0  0
   27.4815  -20.8239  -12.9609 C   0  0  0  0  0  0  0  0  0  0  0  0
   26.6294  -21.2900  -14.1253 C   0  0  2  0  0  0  0  0  0  0  0  0
   27.4731  -21.3451  -15.3118 N   0  0  0  0  0  0  0  0  0  0  0  0
   25.4314  -20.4634  -14.3394 C   0  0  0  0  0  0  0  0  0  0  0  0
   25.4797  -19.3047  -14.8274 O   0  0  0  0  0  0  0  0  0  0  0  0
   26.4352  -19.4336  -11.1759 C   0  0  0  0  0  0  0  0  0  0  0  0
   25.7379  -19.2841   -9.9958 C   0  0  0  0  0  0  0  0  0  0  0  0
   21.8515  -24.4599  -18.5920 O   0  0  0  0  0  0  0  0  0  0  0  0
   22.0826  -23.2961  -17.8300 C   0  0  0  0  0  0  0  0  0  0  0  0
   21.1588  -22.8539  -16.9107 C   0  0  0  0  0  0  0  0  0  0  0  0
   21.3982  -21.7082  -16.1678 C   0  0  0  0  0  0  0  0  0  0  0  0
   22.5510  -20.9729  -16.3131 C   0  0  0  0  0  0  0  0  0  0  0  0
   22.8043  -19.7684  -15.5340 C   0  0  0  0  0  0  0  0  0  0  0  0
   22.9864  -20.0401  -14.0300 C   0  0  2  0  0  0  0  0  0  0  0  0
   24.1407  -20.9512  -13.9977 N   0  0  0  0  0  0  0  0  0  0  0  0
   21.7846  -20.6172  -13.4388 C   0  0  0  0  0  0  0  0  0  0  0  0
   20.5946  -19.9160  -13.4481 O   0  0  0  0  0  0  0  0  0  0  0  0
   23.4697  -21.4211  -17.2338 C   0  0  0  0  0  0  0  0  0  0  0  0
   23.2411  -22.5735  -17.9885 C   0  0  0  0  0  0  0  0  0  0  0  0
   21.8051  -21.7547  -12.9126 O   0  0  0  0  0  0  0  0  0  0  0  0
  1  5  1  0
  1  2  1  0
  2  3  1  0
  4  3  1  0
  5  4  1  0
  5  6  1  1
  7  6  2  0
  8  9  1  0
  9 10  2  0
 10 11  1  0
 12 13  1  0
 12 11  2  0
 14 13  1  1
 14 16  1  0
 14 15  1  0
 15  6  1  0
 16 17  2  0
 18 12  1  0
 19 18  2  0
 19  9  1  0
 21 22  2  0
 21 20  1  0
 23 22  1  0
 24 23  2  0
 26 25  1  6
 25 24  1  0
 27 26  1  0
 27 16  1  0
 28 29  1  0
 28 26  1  0
 30 24  1  0
 30 31  2  0
 31 21  1  0
 32 28  2  0
M  END
$$$$
