PYY.pdb
     RDKit          3D

 32 34  0  0  1  0  0  0  0  0999 V2000
   26.5222  -20.7463  -20.0070 N   0  0  0  0  0  0  0  0  0  0  0  0
   27.4617  -20.9047  -21.0897 C   0  0  0  0  0  0  0  0  0  0  0  0
   28.1358  -19.5902  -21.3133 C   0  0  0  0  0  0  0  0  0  0  0  0
   27.2891  -18.6324  -20.4642 C   0  0  0  0  0  0  0  0  0  0  0  0
   26.9238  -19.5612  -19.3188 C   0  0  1  0  0  0  0  0  0  0  0  0
   25.8780  -18.9942  -18.4447 C   0  0  0  0  0  0  0  0  0  0  0  0
   26.1783  -17.9684  -17.7799 O   0  0  0  0  0  0  0  0  0  0  0  0
   23.1116  -14.4052  -22.0626 O   0  0  0  0  0  0  0  0  0  0  0  0
   22.9212  -15.4537  -21.1628 C   0  0  0  0  0  0  0  0  0  0  0  0
   23.3142  -16.7192  -21.4556 C   0  0  0  0  0  0  0  0  0  0  0  0
   23.1208  -17.7617  -20.5519 C   0  0  0  0  0  0  0  0  0  0  0  0
   22.5239  -17.5517  -19.3263 C   0  0  0  0  0  0  0  0  0  0  0  0
   22.3335  -18.6613  -18.3953 C   0  0  0  0  0  0  0  0  0  0  0  0
   23.5250  -18.9247  -17.4953 C   0  0  2  0  0  0  0  0  0  0  0  0
   24.5835  -19.5144  -18.3043 N   0  0  0  0  0  0  0  0  0  0  0  0
   23.1999  -19.7539  -16.3244 C   0  0  0  0  0  0  0  0  0  0  0  0
   22.7855  -20.9381  -16.4203 O   0  0  0  0  0  0  0  0  0  0  0  0
   22.1325  -16.2636  -19.0472 C   0  0  0  0  0  0  0  0  0  0  0  0
   22.3147  -15.2182  -19.9275 C   0  0  0  0  0  0  0  0  0  0  0  0
   22.4895  -21.6977   -7.6296 O   0  0  0  0  0  0  0  0  0  0  0  0
   22.7516  -21.0993   -8.8792 C   0  0  0  0  0  0  0  0  0  0  0  0
   21.7830  -20.3767   -9.5378 C   0  0  0  0  0  0  0  0  0  0  0  0
   22.0537  -19.7933  -10.7660 C   0  0  0  0  0  0  0  0  0  0  0  0
   23.2823  -19.9080  -11.3725 C   0  0  0  0  0  0  0  0  0  0  0  0
   23.5685  -19.2962  -12.6632 C   0  0  0  0  0  0  0  0  0  0  0  0
   22.9962  -20.0853  -13.8543 C   0  0  2  0  0  0  0  0  0  0  0  0
   23.3454  -19.2407  -15.0068 N   0  0  0  0  0  0  0  0  0  0  0  0
   21.5603  -20.3003  -13.7162 C   0  0  0  0  0  0  0  0  0  0  0  0
   20.6701  -19.2838  -14.0027 O   0  0  0  0  0  0  0  0  0  0  0  0
   24.2453  -20.6317  -10.7082 C   0  0  0  0  0  0  0  0  0  0  0  0
   23.9860  -21.2244   -9.4708 C   0  0  0  0  0  0  0  0  0  0  0  0
   21.1055  -21.4051  -13.3367 O   0  0  0  0  0  0  0  0  0  0  0  0
  1  5  1  0
  1  2  1  0
  2  3  1  0
  4  3  1  0
  5  4  1  0
  5  6  1  6
  7  6  2  0
  8  9  1  0
  9 10  2  0
 10 11  1  0
 12 13  1  0
 12 11  2  0
 14 13  1  6
 14 16  1  0
 14 15  1  0
 15  6  1  0
 16 17  2  0
 18 12  1  0
 19 18  2  0
 19  9  1  0
 21 22  2  0
 21 20  1  0
 23 22  1  0
 24 23  2  0
 26 25  1  1
 25 24  1  0
 27 26  1  0
 27 16  1  0
 28 29  1  0
 28 26  1  0
 30 24  1  0
 30 31  2  0
 31 21  1  0
 32 28  2  0
M  END
$$$$
