PYY.pdb
     RDKit          3D

 32 34  0  0  1  0  0  0  0  0999 V2000
   24.3332  -16.8617  -17.2068 N   0  0  0  0  0  0  0  0  0  0  0  0
   24.6786  -15.7933  -18.1121 C   0  0  0  0  0  0  0  0  0  0  0  0
   25.3067  -16.3993  -19.3246 C   0  0  0  0  0  0  0  0  0  0  0  0
   25.5388  -17.8526  -18.8892 C   0  0  0  0  0  0  0  0  0  0  0  0
   24.3235  -18.0498  -17.9990 C   0  0  1  0  0  0  0  0  0  0  0  0
   24.3990  -19.2951  -17.2098 C   0  0  0  0  0  0  0  0  0  0  0  0
   24.3109  -20.3813  -17.8398 O   0  0  0  0  0  0  0  0  0  0  0  0
   30.4820  -20.3761  -17.7635 O   0  0  0  0  0  0  0  0  0  0  0  0
   29.3766  -20.4230  -16.9144 C   0  0  0  0  0  0  0  0  0  0  0  0
   28.8805  -19.3010  -16.3339 C   0  0  0  0  0  0  0  0  0  0  0  0
   27.7759  -19.3553  -15.4867 C   0  0  0  0  0  0  0  0  0  0  0  0
   27.1427  -20.5476  -15.2036 C   0  0  0  0  0  0  0  0  0  0  0  0
   25.9852  -20.5783  -14.3129 C   0  0  0  0  0  0  0  0  0  0  0  0
   24.6508  -20.5760  -15.0330 C   0  0  2  0  0  0  0  0  0  0  0  0
   24.5606  -19.3520  -15.8181 N   0  0  0  0  0  0  0  0  0  0  0  0
   23.5003  -20.7373  -14.1303 C   0  0  0  0  0  0  0  0  0  0  0  0
   23.4844  -20.2837  -12.9568 O   0  0  0  0  0  0  0  0  0  0  0  0
   27.6591  -21.6734  -15.8005 C   0  0  0  0  0  0  0  0  0  0  0  0
   28.7510  -21.6411  -16.6418 C   0  0  0  0  0  0  0  0  0  0  0  0
   15.7272  -19.4393  -10.9119 O   0  0  0  0  0  0  0  0  0  0  0  0
   16.9857  -19.5947  -11.5287 C   0  0  0  0  0  0  0  0  0  0  0  0
   18.1231  -19.7970  -10.7807 C   0  0  0  0  0  0  0  0  0  0  0  0
   19.3544  -19.9483  -11.3995 C   0  0  0  0  0  0  0  0  0  0  0  0
   19.4935  -19.9039  -12.7667 C   0  0  0  0  0  0  0  0  0  0  0  0
   20.7864  -20.0622  -13.4188 C   0  0  0  0  0  0  0  0  0  0  0  0
   21.1786  -21.5323  -13.6507 C   0  0  2  0  0  0  0  0  0  0  0  0
   22.3324  -21.4262  -14.5568 N   0  0  0  0  0  0  0  0  0  0  0  0
   20.0750  -22.3000  -14.2163 C   0  0  0  0  0  0  0  0  0  0  0  0
   19.2286  -23.0178  -13.3940 O   0  0  0  0  0  0  0  0  0  0  0  0
   18.3522  -19.7015  -13.5076 C   0  0  0  0  0  0  0  0  0  0  0  0
   17.1058  -19.5475  -12.8971 C   0  0  0  0  0  0  0  0  0  0  0  0
   19.8719  -22.3252  -15.4529 O   0  0  0  0  0  0  0  0  0  0  0  0
  1  5  1  0
  1  2  1  0
  2  3  1  0
  4  3  1  0
  5  4  1  0
  5  6  1  1
  7  6  2  0
  8  9  1  0
  9 10  2  0
 10 11  1  0
 12 13  1  0
 12 11  2  0
 14 13  1  1
 14 16  1  0
 14 15  1  0
 15  6  1  0
 16 17  2  0
 18 12  1  0
 19 18  2  0
 19  9  1  0
 21 22  2  0
 21 20  1  0
 23 22  1  0
 24 23  2  0
 26 25  1  6
 25 24  1  0
 27 26  1  0
 27 16  1  0
 28 29  1  0
 28 26  1  0
 30 24  1  0
 30 31  2  0
 31 21  1  0
 32 28  2  0
M  END
$$$$
