PYY.pdb
     RDKit          3D

 32 34  0  0  1  0  0  0  0  0999 V2000
   28.1524  -20.5734  -15.5214 N   0  0  0  0  0  0  0  0  0  0  0  0
   28.6586  -20.2573  -16.8344 C   0  0  0  0  0  0  0  0  0  0  0  0
   28.4824  -18.7906  -17.0575 C   0  0  0  0  0  0  0  0  0  0  0  0
   27.5818  -18.3806  -15.8844 C   0  0  0  0  0  0  0  0  0  0  0  0
   28.1011  -19.3311  -14.8190 C   0  0  1  0  0  0  0  0  0  0  0  0
   27.2411  -19.3577  -13.6195 C   0  0  0  0  0  0  0  0  0  0  0  0
   27.0639  -18.2679  -13.0149 O   0  0  0  0  0  0  0  0  0  0  0  0
   21.3650  -18.5108  -16.3720 O   0  0  0  0  0  0  0  0  0  0  0  0
   22.1175  -19.1896  -15.4137 C   0  0  0  0  0  0  0  0  0  0  0  0
   23.0207  -20.1399  -15.7644 C   0  0  0  0  0  0  0  0  0  0  0  0
   23.7689  -20.8139  -14.8018 C   0  0  0  0  0  0  0  0  0  0  0  0
   23.6233  -20.5444  -13.4569 C   0  0  0  0  0  0  0  0  0  0  0  0
   24.4206  -21.2641  -12.4667 C   0  0  0  0  0  0  0  0  0  0  0  0
   25.6588  -20.5180  -12.0093 C   0  0  2  0  0  0  0  0  0  0  0  0
   26.6127  -20.5031  -13.1105 N   0  0  0  0  0  0  0  0  0  0  0  0
   26.2483  -21.0654  -10.7775 C   0  0  0  0  0  0  0  0  0  0  0  0
   27.3713  -21.6321  -10.7514 O   0  0  0  0  0  0  0  0  0  0  0  0
   22.7040  -19.5790  -13.1206 C   0  0  0  0  0  0  0  0  0  0  0  0
   21.9537  -18.9006  -14.0576 C   0  0  0  0  0  0  0  0  0  0  0  0
   29.9213  -19.5039   -3.2414 O   0  0  0  0  0  0  0  0  0  0  0  0
   29.2835  -19.6551   -4.4899 C   0  0  0  0  0  0  0  0  0  0  0  0
   29.7956  -20.4955   -5.4520 C   0  0  0  0  0  0  0  0  0  0  0  0
   29.1588  -20.6352   -6.6755 C   0  0  0  0  0  0  0  0  0  0  0  0
   28.0050  -19.9515   -6.9789 C   0  0  0  0  0  0  0  0  0  0  0  0
   27.3347  -20.0965   -8.2640 C   0  0  0  0  0  0  0  0  0  0  0  0
   26.2833  -21.2204   -8.2820 C   0  0  2  0  0  0  0  0  0  0  0  0
   25.5587  -20.9731   -9.5380 N   0  0  0  0  0  0  0  0  0  0  0  0
   25.4232  -21.1705   -7.1053 C   0  0  0  0  0  0  0  0  0  0  0  0
   25.7988  -21.8046   -5.9371 O   0  0  0  0  0  0  0  0  0  0  0  0
   27.4992  -19.1135   -6.0123 C   0  0  0  0  0  0  0  0  0  0  0  0
   28.1306  -18.9636   -4.7759 C   0  0  0  0  0  0  0  0  0  0  0  0
   24.3313  -20.5553   -7.1282 O   0  0  0  0  0  0  0  0  0  0  0  0
  1  5  1  0
  1  2  1  0
  2  3  1  0
  4  3  1  0
  5  4  1  0
  5  6  1  1
  7  6  2  0
  8  9  1  0
  9 10  2  0
 10 11  1  0
 12 13  1  0
 12 11  2  0
 14 13  1  6
 14 16  1  0
 14 15  1  0
 15  6  1  0
 16 17  2  0
 18 12  1  0
 19 18  2  0
 19  9  1  0
 21 22  2  0
 21 20  1  0
 23 22  1  0
 24 23  2  0
 26 25  1  1
 25 24  1  0
 27 26  1  0
 27 16  1  0
 28 29  1  0
 28 26  1  0
 30 24  1  0
 30 31  2  0
 31 21  1  0
 32 28  2  0
M  END
$$$$
