PYY.pdb
     RDKit          3D

 32 34  0  0  1  0  0  0  0  0999 V2000
   25.5602  -19.2436  -20.2162 N   0  0  0  0  0  0  0  0  0  0  0  0
   26.3713  -19.1329  -21.4037 C   0  0  0  0  0  0  0  0  0  0  0  0
   26.6675  -17.6859  -21.6284 C   0  0  0  0  0  0  0  0  0  0  0  0
   25.7198  -16.9938  -20.6393 C   0  0  0  0  0  0  0  0  0  0  0  0
   25.7370  -18.0133  -19.5130 C   0  0  1  0  0  0  0  0  0  0  0  0
   24.6975  -17.7501  -18.4984 C   0  0  0  0  0  0  0  0  0  0  0  0
   24.8365  -16.7214  -17.7863 O   0  0  0  0  0  0  0  0  0  0  0  0
   20.7146  -13.3820  -21.2080 O   0  0  0  0  0  0  0  0  0  0  0  0
   20.8356  -14.5570  -20.4663 C   0  0  0  0  0  0  0  0  0  0  0  0
   21.3755  -15.6809  -21.0019 C   0  0  0  0  0  0  0  0  0  0  0  0
   21.4932  -16.8511  -20.2552 C   0  0  0  0  0  0  0  0  0  0  0  0
   21.0673  -16.9157  -18.9448 C   0  0  0  0  0  0  0  0  0  0  0  0
   21.2028  -18.1543  -18.1821 C   0  0  0  0  0  0  0  0  0  0  0  0
   22.4789  -18.2426  -17.3680 C   0  0  2  0  0  0  0  0  0  0  0  0
   23.5747  -18.5596  -18.2742 N   0  0  0  0  0  0  0  0  0  0  0  0
   22.3940  -19.1969  -16.2516 C   0  0  0  0  0  0  0  0  0  0  0  0
   22.3320  -20.4421  -16.4210 O   0  0  0  0  0  0  0  0  0  0  0  0
   20.5232  -15.7677  -18.4193 C   0  0  0  0  0  0  0  0  0  0  0  0
   20.3977  -14.5997  -19.1412 C   0  0  0  0  0  0  0  0  0  0  0  0
   21.8974  -21.6597   -7.6713 O   0  0  0  0  0  0  0  0  0  0  0  0
   22.1026  -20.9805   -8.8899 C   0  0  0  0  0  0  0  0  0  0  0  0
   23.2933  -21.0884   -9.5715 C   0  0  0  0  0  0  0  0  0  0  0  0
   23.4823  -20.4154  -10.7687 C   0  0  0  0  0  0  0  0  0  0  0  0
   22.5045  -19.6220  -11.3210 C   0  0  0  0  0  0  0  0  0  0  0  0
   22.7013  -18.9135  -12.5786 C   0  0  0  0  0  0  0  0  0  0  0  0
   22.2393  -19.7133  -13.8098 C   0  0  2  0  0  0  0  0  0  0  0  0
   22.3798  -18.7415  -14.9051 N   0  0  0  0  0  0  0  0  0  0  0  0
   20.8750  -20.2038  -13.6509 C   0  0  0  0  0  0  0  0  0  0  0  0
   19.8021  -19.3461  -13.7961 O   0  0  0  0  0  0  0  0  0  0  0  0
   21.3172  -19.5190  -10.6340 C   0  0  0  0  0  0  0  0  0  0  0  0
   21.1137  -20.1915   -9.4274 C   0  0  0  0  0  0  0  0  0  0  0  0
   20.6477  -21.4065  -13.3807 O   0  0  0  0  0  0  0  0  0  0  0  0
  1  5  1  0
  1  2  1  0
  2  3  1  0
  4  3  1  0
  5  4  1  0
  5  6  1  1
  7  6  2  0
  8  9  1  0
  9 10  2  0
 10 11  1  0
 12 13  1  0
 12 11  2  0
 14 13  1  6
 14 16  1  0
 14 15  1  0
 15  6  1  0
 16 17  2  0
 18 12  1  0
 19 18  2  0
 19  9  1  0
 21 22  2  0
 21 20  1  0
 23 22  1  0
 24 23  2  0
 26 25  1  1
 25 24  1  0
 27 26  1  0
 27 16  1  0
 28 29  1  0
 28 26  1  0
 30 24  1  0
 30 31  2  0
 31 21  1  0
 32 28  2  0
M  END
$$$$
