PYY.pdb
     RDKit          3D

 32 34  0  0  1  0  0  0  0  0999 V2000
   28.2387  -23.1624  -17.8202 N   0  0  0  0  0  0  0  0  0  0  0  0
   29.1926  -23.8125  -18.6849 C   0  0  0  0  0  0  0  0  0  0  0  0
   30.5130  -23.1360  -18.5086 C   0  0  0  0  0  0  0  0  0  0  0  0
   30.1421  -21.8863  -17.6986 C   0  0  0  0  0  0  0  0  0  0  0  0
   29.0154  -22.4550  -16.8528 C   0  0  1  0  0  0  0  0  0  0  0  0
   28.2647  -21.4061  -16.1348 C   0  0  0  0  0  0  0  0  0  0  0  0
   28.8943  -20.7335  -15.2770 O   0  0  0  0  0  0  0  0  0  0  0  0
   29.5164  -15.9590  -19.3105 O   0  0  0  0  0  0  0  0  0  0  0  0
   28.5537  -16.7339  -18.6641 C   0  0  0  0  0  0  0  0  0  0  0  0
   27.9722  -16.3235  -17.5085 C   0  0  0  0  0  0  0  0  0  0  0  0
   27.0113  -17.1028  -16.8683 C   0  0  0  0  0  0  0  0  0  0  0  0
   26.6121  -18.3198  -17.3804 C   0  0  0  0  0  0  0  0  0  0  0  0
   25.6014  -19.1180  -16.6909 C   0  0  0  0  0  0  0  0  0  0  0  0
   26.1657  -20.0640  -15.6490 C   0  0  2  0  0  0  0  0  0  0  0  0
   26.9098  -21.1088  -16.3400 N   0  0  0  0  0  0  0  0  0  0  0  0
   25.1424  -20.6196  -14.7499 C   0  0  0  0  0  0  0  0  0  0  0  0
   24.3965  -21.5794  -15.0749 O   0  0  0  0  0  0  0  0  0  0  0  0
   27.2118  -18.7190  -18.5514 C   0  0  0  0  0  0  0  0  0  0  0  0
   28.1646  -17.9628  -19.2005 C   0  0  0  0  0  0  0  0  0  0  0  0
   20.4654  -21.3876   -7.1767 O   0  0  0  0  0  0  0  0  0  0  0  0
   21.3976  -21.0413   -8.1765 C   0  0  0  0  0  0  0  0  0  0  0  0
   22.7211  -21.4033   -8.0697 C   0  0  0  0  0  0  0  0  0  0  0  0
   23.6275  -21.0565   -9.0597 C   0  0  0  0  0  0  0  0  0  0  0  0
   23.2518  -20.3463  -10.1756 C   0  0  0  0  0  0  0  0  0  0  0  0
   24.2028  -19.9805  -11.2167 C   0  0  0  0  0  0  0  0  0  0  0  0
   23.9185  -20.6569  -12.5696 C   0  0  2  0  0  0  0  0  0  0  0  0
   24.9508  -20.0842  -13.4471 N   0  0  0  0  0  0  0  0  0  0  0  0
   22.5613  -20.3874  -13.0305 C   0  0  0  0  0  0  0  0  0  0  0  0
   21.5727  -21.3418  -12.8906 O   0  0  0  0  0  0  0  0  0  0  0  0
   21.9274  -19.9880  -10.2752 C   0  0  0  0  0  0  0  0  0  0  0  0
   21.0041  -20.3309   -9.2855 C   0  0  0  0  0  0  0  0  0  0  0  0
   22.2642  -19.2909  -13.5604 O   0  0  0  0  0  0  0  0  0  0  0  0
  1  5  1  0
  1  2  1  0
  2  3  1  0
  4  3  1  0
  5  4  1  0
  5  6  1  6
  7  6  2  0
  8  9  1  0
  9 10  2  0
 10 11  1  0
 12 13  1  0
 12 11  2  0
 14 13  1  6
 14 16  1  0
 14 15  1  0
 15  6  1  0
 16 17  2  0
 18 12  1  0
 19 18  2  0
 19  9  1  0
 21 22  2  0
 21 20  1  0
 23 22  1  0
 24 23  2  0
 26 25  1  1
 25 24  1  0
 27 26  1  0
 27 16  1  0
 28 29  1  0
 28 26  1  0
 30 24  1  0
 30 31  2  0
 31 21  1  0
 32 28  2  0
M  END
$$$$
