PYY.pdb
     RDKit          3D

 32 34  0  0  1  0  0  0  0  0999 V2000
   24.8426  -23.1521  -16.6250 N   0  0  0  0  0  0  0  0  0  0  0  0
   24.4838  -24.3234  -17.3862 C   0  0  0  0  0  0  0  0  0  0  0  0
   25.1014  -25.5122  -16.7248 C   0  0  0  0  0  0  0  0  0  0  0  0
   26.0593  -24.8702  -15.7119 C   0  0  0  0  0  0  0  0  0  0  0  0
   25.2538  -23.6352  -15.3456 C   0  0  1  0  0  0  0  0  0  0  0  0
   26.0399  -22.6610  -14.5632 C   0  0  0  0  0  0  0  0  0  0  0  0
   27.2567  -22.5339  -14.8593 O   0  0  0  0  0  0  0  0  0  0  0  0
   27.8610  -17.6425  -18.1146 O   0  0  0  0  0  0  0  0  0  0  0  0
   27.3503  -18.1009  -16.9004 C   0  0  0  0  0  0  0  0  0  0  0  0
   26.0665  -18.5260  -16.7866 C   0  0  0  0  0  0  0  0  0  0  0  0
   25.5631  -18.9826  -15.5705 C   0  0  0  0  0  0  0  0  0  0  0  0
   26.3459  -19.0214  -14.4354 C   0  0  0  0  0  0  0  0  0  0  0  0
   25.7950  -19.5058  -13.1720 C   0  0  0  0  0  0  0  0  0  0  0  0
   26.2881  -20.8820  -12.7698 C   0  0  2  0  0  0  0  0  0  0  0  0
   25.5298  -21.8735  -13.5212 N   0  0  0  0  0  0  0  0  0  0  0  0
   26.2254  -21.1237  -11.3200 C   0  0  0  0  0  0  0  0  0  0  0  0
   25.2964  -21.7748  -10.7759 O   0  0  0  0  0  0  0  0  0  0  0  0
   27.6433  -18.5870  -14.5698 C   0  0  0  0  0  0  0  0  0  0  0  0
   28.1607  -18.1315  -15.7639 C   0  0  0  0  0  0  0  0  0  0  0  0
   28.5913  -19.9118   -2.7902 O   0  0  0  0  0  0  0  0  0  0  0  0
   28.5449  -19.9795   -4.1979 C   0  0  0  0  0  0  0  0  0  0  0  0
   27.9030  -19.0105   -4.9349 C   0  0  0  0  0  0  0  0  0  0  0  0
   27.8646  -19.0889   -6.3185 C   0  0  0  0  0  0  0  0  0  0  0  0
   28.4565  -20.1216   -7.0068 C   0  0  0  0  0  0  0  0  0  0  0  0
   28.4168  -20.2061   -8.4605 C   0  0  0  0  0  0  0  0  0  0  0  0
   27.1124  -20.8177   -9.0021 C   0  0  2  0  0  0  0  0  0  0  0  0
   27.2353  -20.6216  -10.4547 N   0  0  0  0  0  0  0  0  0  0  0  0
   25.9373  -20.1670   -8.4339 C   0  0  0  0  0  0  0  0  0  0  0  0
   25.2778  -20.7295   -7.3586 O   0  0  0  0  0  0  0  0  0  0  0  0
   29.0961  -21.0863   -6.2633 C   0  0  0  0  0  0  0  0  0  0  0  0
   29.1423  -21.0195   -4.8694 C   0  0  0  0  0  0  0  0  0  0  0  0
   25.5030  -19.0901   -8.9060 O   0  0  0  0  0  0  0  0  0  0  0  0
  1  5  1  0
  1  2  1  0
  2  3  1  0
  4  3  1  0
  5  4  1  0
  5  6  1  6
  7  6  2  0
  8  9  1  0
  9 10  2  0
 10 11  1  0
 12 13  1  0
 12 11  2  0
 14 13  1  1
 14 16  1  0
 14 15  1  0
 15  6  1  0
 16 17  2  0
 18 12  1  0
 19 18  2  0
 19  9  1  0
 21 22  2  0
 21 20  1  0
 23 22  1  0
 24 23  2  0
 26 25  1  1
 25 24  1  0
 27 26  1  0
 27 16  1  0
 28 29  1  0
 28 26  1  0
 30 24  1  0
 30 31  2  0
 31 21  1  0
 32 28  2  0
M  END
$$$$
