PYY.pdb
     RDKit          3D

 32 34  0  0  1  0  0  0  0  0999 V2000
   28.4064  -21.7396  -15.2777 N   0  0  0  0  0  0  0  0  0  0  0  0
   29.2472  -21.8384  -16.4453 C   0  0  0  0  0  0  0  0  0  0  0  0
   29.1085  -20.5708  -17.2239 C   0  0  0  0  0  0  0  0  0  0  0  0
   27.9118  -19.8913  -16.5445 C   0  0  0  0  0  0  0  0  0  0  0  0
   28.1381  -20.3467  -15.1129 C   0  0  1  0  0  0  0  0  0  0  0  0
   26.9823  -20.0597  -14.2406 C   0  0  0  0  0  0  0  0  0  0  0  0
   26.7626  -18.8534  -13.9558 O   0  0  0  0  0  0  0  0  0  0  0  0
   18.6241  -20.1457  -11.6427 O   0  0  0  0  0  0  0  0  0  0  0  0
   19.8915  -20.4979  -12.1063 C   0  0  0  0  0  0  0  0  0  0  0  0
   20.4270  -21.7179  -11.8480 C   0  0  0  0  0  0  0  0  0  0  0  0
   21.6935  -22.0630  -12.3142 C   0  0  0  0  0  0  0  0  0  0  0  0
   22.4534  -21.1821  -13.0553 C   0  0  0  0  0  0  0  0  0  0  0  0
   23.7786  -21.5681  -13.5341 C   0  0  0  0  0  0  0  0  0  0  0  0
   24.9112  -20.7497  -12.9456 C   0  0  2  0  0  0  0  0  0  0  0  0
   26.1188  -21.0293  -13.7112 N   0  0  0  0  0  0  0  0  0  0  0  0
   25.1076  -20.9760  -11.5053 C   0  0  0  0  0  0  0  0  0  0  0  0
   24.1557  -21.1981  -10.7130 O   0  0  0  0  0  0  0  0  0  0  0  0
   21.8948  -19.9513  -13.3070 C   0  0  0  0  0  0  0  0  0  0  0  0
   20.6433  -19.5903  -12.8548 C   0  0  0  0  0  0  0  0  0  0  0  0
   28.9119  -19.7415   -3.6428 O   0  0  0  0  0  0  0  0  0  0  0  0
   28.6562  -19.9013   -5.0203 C   0  0  0  0  0  0  0  0  0  0  0  0
   27.9301  -18.9655   -5.7211 C   0  0  0  0  0  0  0  0  0  0  0  0
   27.6857  -19.1345   -7.0753 C   0  0  0  0  0  0  0  0  0  0  0  0
   28.1499  -20.2271   -7.7689 C   0  0  0  0  0  0  0  0  0  0  0  0
   27.8937  -20.4069   -9.1916 C   0  0  0  0  0  0  0  0  0  0  0  0
   26.5747  -21.1430   -9.4873 C   0  0  2  0  0  0  0  0  0  0  0  0
   26.4103  -20.9542  -10.9367 N   0  0  0  0  0  0  0  0  0  0  0  0
   25.4685  -20.5967   -8.7095 C   0  0  0  0  0  0  0  0  0  0  0  0
   25.0371  -21.2352   -7.5632 O   0  0  0  0  0  0  0  0  0  0  0  0
   28.8748  -21.1582   -7.0617 C   0  0  0  0  0  0  0  0  0  0  0  0
   29.1282  -21.0002   -5.6977 C   0  0  0  0  0  0  0  0  0  0  0  0
   24.8887  -19.5428   -9.0620 O   0  0  0  0  0  0  0  0  0  0  0  0
  1  5  1  0
  1  2  1  0
  2  3  1  0
  4  3  1  0
  5  4  1  0
  5  6  1  1
  7  6  2  0
  8  9  1  0
  9 10  2  0
 10 11  1  0
 12 13  1  0
 12 11  2  0
 14 13  1  6
 14 16  1  0
 14 15  1  0
 15  6  1  0
 16 17  2  0
 18 12  1  0
 19 18  2  0
 19  9  1  0
 21 22  2  0
 21 20  1  0
 23 22  1  0
 24 23  2  0
 26 25  1  1
 25 24  1  0
 27 26  1  0
 27 16  1  0
 28 29  1  0
 28 26  1  0
 30 24  1  0
 30 31  2  0
 31 21  1  0
 32 28  2  0
M  END
$$$$
