PYY.pdb
     RDKit          3D

 32 34  0  0  1  0  0  0  0  0999 V2000
   28.7797  -21.2773  -17.7447 N   0  0  0  0  0  0  0  0  0  0  0  0
   29.8093  -22.2164  -18.1163 C   0  0  0  0  0  0  0  0  0  0  0  0
   29.8515  -23.2910  -17.0792 C   0  0  0  0  0  0  0  0  0  0  0  0
   28.9652  -22.7156  -15.9662 C   0  0  0  0  0  0  0  0  0  0  0  0
   27.9481  -21.9670  -16.8108 C   0  0  1  0  0  0  0  0  0  0  0  0
   27.0903  -21.0773  -16.0034 C   0  0  0  0  0  0  0  0  0  0  0  0
   27.6017  -20.5649  -14.9737 O   0  0  0  0  0  0  0  0  0  0  0  0
   28.9323  -15.3704  -17.4446 O   0  0  0  0  0  0  0  0  0  0  0  0
   27.8448  -16.1920  -17.1487 C   0  0  0  0  0  0  0  0  0  0  0  0
   27.4306  -17.1568  -18.0086 C   0  0  0  0  0  0  0  0  0  0  0  0
   26.3434  -17.9738  -17.7065 C   0  0  0  0  0  0  0  0  0  0  0  0
   25.6452  -17.8367  -16.5249 C   0  0  0  0  0  0  0  0  0  0  0  0
   24.5092  -18.7067  -16.2305 C   0  0  0  0  0  0  0  0  0  0  0  0
   24.8747  -19.9626  -15.4637 C   0  0  2  0  0  0  0  0  0  0  0  0
   25.7560  -20.7656  -16.3011 N   0  0  0  0  0  0  0  0  0  0  0  0
   23.7048  -20.7270  -15.0039 C   0  0  0  0  0  0  0  0  0  0  0  0
   23.3986  -21.8540  -15.4721 O   0  0  0  0  0  0  0  0  0  0  0  0
   26.0791  -16.8544  -15.6663 C   0  0  0  0  0  0  0  0  0  0  0  0
   27.1524  -16.0355  -15.9464 C   0  0  0  0  0  0  0  0  0  0  0  0
   26.1287  -20.0330   -8.7040 O   0  0  0  0  0  0  0  0  0  0  0  0
   25.2613  -20.5576   -9.6841 C   0  0  0  0  0  0  0  0  0  0  0  0
   23.8995  -20.5842   -9.4866 C   0  0  0  0  0  0  0  0  0  0  0  0
   23.0576  -21.1028  -10.4583 C   0  0  0  0  0  0  0  0  0  0  0  0
   23.5367  -21.6063  -11.6447 C   0  0  0  0  0  0  0  0  0  0  0  0
   22.6538  -22.1521  -12.6667 C   0  0  0  0  0  0  0  0  0  0  0  0
   21.8239  -21.0794  -13.3943 C   0  0  2  0  0  0  0  0  0  0  0  0
   22.8539  -20.2130  -13.9878 N   0  0  0  0  0  0  0  0  0  0  0  0
   20.9388  -20.3709  -12.4768 C   0  0  0  0  0  0  0  0  0  0  0  0
   21.1702  -19.0452  -12.1657 O   0  0  0  0  0  0  0  0  0  0  0  0
   24.8988  -21.5763  -11.8349 C   0  0  0  0  0  0  0  0  0  0  0  0
   25.7580  -21.0568  -10.8645 C   0  0  0  0  0  0  0  0  0  0  0  0
   19.9554  -20.9458  -11.9538 O   0  0  0  0  0  0  0  0  0  0  0  0
  1  5  1  0
  1  2  1  0
  2  3  1  0
  4  3  1  0
  5  4  1  0
  5  6  1  1
  7  6  2  0
  8  9  1  0
  9 10  2  0
 10 11  1  0
 12 13  1  0
 12 11  2  0
 14 13  1  6
 14 16  1  0
 14 15  1  0
 15  6  1  0
 16 17  2  0
 18 12  1  0
 19 18  2  0
 19  9  1  0
 21 22  2  0
 21 20  1  0
 23 22  1  0
 24 23  2  0
 26 25  1  1
 25 24  1  0
 27 26  1  0
 27 16  1  0
 28 29  1  0
 28 26  1  0
 30 24  1  0
 30 31  2  0
 31 21  1  0
 32 28  2  0
M  END
$$$$
