PYY.pdb
     RDKit          3D

 32 34  0  0  1  0  0  0  0  0999 V2000
   27.9782  -20.7600  -17.3879 N   0  0  0  0  0  0  0  0  0  0  0  0
   29.1916  -20.8503  -18.1624 C   0  0  0  0  0  0  0  0  0  0  0  0
   29.9180  -22.0863  -17.7418 C   0  0  0  0  0  0  0  0  0  0  0  0
   29.1532  -22.5097  -16.4803 C   0  0  0  0  0  0  0  0  0  0  0  0
   27.7520  -22.0723  -16.8720 C   0  0  1  0  0  0  0  0  0  0  0  0
   26.8103  -22.1138  -15.7359 C   0  0  0  0  0  0  0  0  0  0  0  0
   26.6195  -23.2307  -15.1878 O   0  0  0  0  0  0  0  0  0  0  0  0
   30.5407  -21.5666  -10.4334 O   0  0  0  0  0  0  0  0  0  0  0  0
   29.3688  -21.1797  -11.0832 C   0  0  0  0  0  0  0  0  0  0  0  0
   29.4006  -20.4616  -12.2343 C   0  0  0  0  0  0  0  0  0  0  0  0
   28.2260  -20.0786  -12.8780 C   0  0  0  0  0  0  0  0  0  0  0  0
   26.9861  -20.4123  -12.3740 C   0  0  0  0  0  0  0  0  0  0  0  0
   25.7688  -19.9999  -13.0684 C   0  0  0  0  0  0  0  0  0  0  0  0
   25.2474  -21.0205  -14.0611 C   0  0  2  0  0  0  0  0  0  0  0  0
   26.1187  -21.0044  -15.2287 N   0  0  0  0  0  0  0  0  0  0  0  0
   23.8367  -20.8139  -14.4239 C   0  0  0  0  0  0  0  0  0  0  0  0
   23.4639  -19.9336  -15.2419 O   0  0  0  0  0  0  0  0  0  0  0  0
   26.9737  -21.1398  -11.2074 C   0  0  0  0  0  0  0  0  0  0  0  0
   28.1244  -21.5286  -10.5550 C   0  0  0  0  0  0  0  0  0  0  0  0
   15.1797  -22.7989  -15.0861 O   0  0  0  0  0  0  0  0  0  0  0  0
   16.5565  -22.7760  -14.7820 C   0  0  0  0  0  0  0  0  0  0  0  0
   17.4953  -23.1666  -15.7094 C   0  0  0  0  0  0  0  0  0  0  0  0
   18.8459  -23.1394  -15.3978 C   0  0  0  0  0  0  0  0  0  0  0  0
   19.3020  -22.7275  -14.1678 C   0  0  0  0  0  0  0  0  0  0  0  0
   20.7207  -22.6986  -13.8382 C   0  0  0  0  0  0  0  0  0  0  0  0
   21.4088  -21.3740  -14.2133 C   0  0  2  0  0  0  0  0  0  0  0  0
   22.8138  -21.6196  -13.8537 N   0  0  0  0  0  0  0  0  0  0  0  0
   20.8243  -20.2441  -13.5001 C   0  0  0  0  0  0  0  0  0  0  0  0
   19.8197  -19.4946  -14.0805 O   0  0  0  0  0  0  0  0  0  0  0  0
   18.3577  -22.3385  -13.2461 C   0  0  0  0  0  0  0  0  0  0  0  0
   16.9944  -22.3611  -13.5469 C   0  0  0  0  0  0  0  0  0  0  0  0
   21.2184  -19.9302  -12.3523 O   0  0  0  0  0  0  0  0  0  0  0  0
  1  5  1  0
  1  2  1  0
  2  3  1  0
  4  3  1  0
  5  4  1  0
  5  6  1  1
  7  6  2  0
  8  9  1  0
  9 10  2  0
 10 11  1  0
 12 13  1  0
 12 11  2  0
 14 13  1  1
 14 16  1  0
 14 15  1  0
 15  6  1  0
 16 17  2  0
 18 12  1  0
 19 18  2  0
 19  9  1  0
 21 22  2  0
 21 20  1  0
 23 22  1  0
 24 23  2  0
 26 25  1  1
 25 24  1  0
 27 26  1  0
 27 16  1  0
 28 29  1  0
 28 26  1  0
 30 24  1  0
 30 31  2  0
 31 21  1  0
 32 28  2  0
M  END
$$$$
