PYY.pdb
     RDKit          3D

 32 34  0  0  1  0  0  0  0  0999 V2000
   27.0457  -20.8099  -16.5355 N   0  0  0  0  0  0  0  0  0  0  0  0
   27.8515  -20.9957  -17.7172 C   0  0  0  0  0  0  0  0  0  0  0  0
   28.6239  -22.2644  -17.5557 C   0  0  0  0  0  0  0  0  0  0  0  0
   28.3964  -22.6076  -16.0772 C   0  0  0  0  0  0  0  0  0  0  0  0
   26.9769  -22.0922  -15.9107 C   0  0  1  0  0  0  0  0  0  0  0  0
   26.5561  -22.0462  -14.4964 C   0  0  0  0  0  0  0  0  0  0  0  0
   25.5725  -22.7587  -14.1658 O   0  0  0  0  0  0  0  0  0  0  0  0
   26.5581  -19.9960   -5.8062 O   0  0  0  0  0  0  0  0  0  0  0  0
   26.8664  -20.1248   -7.1603 C   0  0  0  0  0  0  0  0  0  0  0  0
   25.9105  -20.0209   -8.1180 C   0  0  0  0  0  0  0  0  0  0  0  0
   26.2257  -20.1508   -9.4688 C   0  0  0  0  0  0  0  0  0  0  0  0
   27.5181  -20.3895   -9.8875 C   0  0  0  0  0  0  0  0  0  0  0  0
   27.8235  -20.5205  -11.3101 C   0  0  0  0  0  0  0  0  0  0  0  0
   26.7136  -21.1556  -12.1248 C   0  0  2  0  0  0  0  0  0  0  0  0
   27.1708  -21.2702  -13.5034 N   0  0  0  0  0  0  0  0  0  0  0  0
   25.4336  -20.4369  -12.0272 C   0  0  0  0  0  0  0  0  0  0  0  0
   25.2855  -19.2500  -12.4175 O   0  0  0  0  0  0  0  0  0  0  0  0
   28.4728  -20.4917   -8.9035 C   0  0  0  0  0  0  0  0  0  0  0  0
   28.1817  -20.3664   -7.5616 C   0  0  0  0  0  0  0  0  0  0  0  0
   17.7844  -18.7394  -15.1526 O   0  0  0  0  0  0  0  0  0  0  0  0
   19.0366  -19.1817  -14.6785 C   0  0  0  0  0  0  0  0  0  0  0  0
   20.0136  -18.2851  -14.3099 C   0  0  0  0  0  0  0  0  0  0  0  0
   21.2406  -18.7331  -13.8454 C   0  0  0  0  0  0  0  0  0  0  0  0
   21.5330  -20.0719  -13.7335 C   0  0  0  0  0  0  0  0  0  0  0  0
   22.8219  -20.5447  -13.2461 C   0  0  0  0  0  0  0  0  0  0  0  0
   22.9534  -20.4906  -11.7136 C   0  0  2  0  0  0  0  0  0  0  0  0
   24.2851  -21.0686  -11.4770 N   0  0  0  0  0  0  0  0  0  0  0  0
   21.8827  -21.2311  -11.0560 C   0  0  0  0  0  0  0  0  0  0  0  0
   22.0882  -22.5296  -10.6325 O   0  0  0  0  0  0  0  0  0  0  0  0
   20.5516  -20.9620  -14.1037 C   0  0  0  0  0  0  0  0  0  0  0  0
   19.3115  -20.5243  -14.5732 C   0  0  0  0  0  0  0  0  0  0  0  0
   20.7598  -20.7088  -10.8622 O   0  0  0  0  0  0  0  0  0  0  0  0
  1  5  1  0
  1  2  1  0
  2  3  1  0
  4  3  1  0
  5  4  1  0
  5  6  1  1
  7  6  2  0
  8  9  1  0
  9 10  2  0
 10 11  1  0
 12 13  1  0
 12 11  2  0
 14 13  1  1
 14 16  1  0
 14 15  1  0
 15  6  1  0
 16 17  2  0
 18 12  1  0
 19 18  2  0
 19  9  1  0
 21 22  2  0
 21 20  1  0
 23 22  1  0
 24 23  2  0
 26 25  1  6
 25 24  1  0
 27 26  1  0
 27 16  1  0
 28 29  1  0
 28 26  1  0
 30 24  1  0
 30 31  2  0
 31 21  1  0
 32 28  2  0
M  END
$$$$
