RRH.pdb
     RDKit          3D

 33 33  0  0  1  0  0  0  0  0999 V2000
    7.7980  -14.5695   22.4742 N   0  0  0  0  0  0  0  0  0  0  0  0
    6.9208  -13.9190   21.5602 C   0  0  0  0  0  0  0  0  0  0  0  0
    5.6574  -14.1453   21.7129 N   0  0  0  0  0  0  0  0  0  0  0  0
    7.4365  -13.0798   20.5550 N   0  0  0  0  0  0  0  0  0  0  0  0
    8.8929  -13.0523   20.3771 C   0  0  0  0  0  0  0  0  0  0  0  0
    9.2485  -14.0298   19.3231 C   0  0  0  0  0  0  0  0  0  0  0  0
    9.3160  -13.5094   17.9328 C   0  0  0  0  0  0  0  0  0  0  0  0
    9.7267  -14.5547   16.9477 C   0  0  2  0  0  0  0  0  0  0  0  0
    8.6423  -15.4707   16.7144 N   0  0  0  0  0  0  0  0  0  0  0  0
   10.9381  -15.2761   17.4650 C   0  0  0  0  0  0  0  0  0  0  0  0
   10.8295  -16.2522   18.2297 O   0  0  0  0  0  0  0  0  0  0  0  0
    4.9039  -13.7060   21.1734 N   0  0  0  0  0  0  0  0  0  0  0  0
   17.3649  -12.7488   15.1700 C   0  0  0  0  0  0  0  0  0  0  0  0
   16.6201  -13.6759   14.3929 N   0  0  0  0  0  0  0  0  0  0  0  0
   16.1778  -13.3200   13.2331 N   0  0  0  0  0  0  0  0  0  0  0  0
   16.3715  -14.9810   14.9015 C   0  0  0  0  0  0  0  0  0  0  0  0
   16.9344  -15.2991   16.2106 C   0  0  0  0  0  0  0  0  0  0  0  0
   15.7819  -15.8412   17.0495 C   0  0  0  0  0  0  0  0  0  0  0  0
   14.5630  -14.9860   16.7042 C   0  0  2  0  0  0  0  0  0  0  0  0
   13.4261  -15.4901   17.5589 N   0  0  0  0  0  0  0  0  0  0  0  0
   12.2231  -14.8416   17.0786 C   0  0  0  0  0  0  0  0  0  0  0  0
   13.6046  -15.2332   18.9834 O   0  0  0  0  0  0  0  0  0  0  0  0
   13.6785  -14.0446   19.3878 N   0  0  0  0  0  0  0  0  0  0  0  0
   15.6097  -13.9703   12.6600 C   0  0  1  0  0  0  0  0  0  0  0  0
   13.7052  -16.2410   19.9803 C   0  0  0  0  0  0  0  0  0  0  0  0
   13.9906  -15.8966   21.3590 C   0  0  0  0  0  0  0  0  0  0  0  0
   13.2774  -16.8412   22.3025 C   0  0  0  0  0  0  0  0  0  0  0  0
   11.8417  -16.5702   22.3962 N   0  0  0  0  0  0  0  0  0  0  0  0
   11.2104  -15.4166   21.9719 C   0  0  0  0  0  0  0  0  0  0  0  0
    9.9096  -15.5575   22.2299 N   0  0  0  0  0  0  0  0  0  0  0  0
    9.7029  -16.7552   22.7994 C   0  0  0  0  0  0  0  0  0  0  0  0
   10.8855  -17.3746   22.9011 O   0  0  0  0  0  0  0  0  0  0  0  0
   15.4723  -15.9338   21.5895 O   0  0  0  0  0  0  0  0  0  0  0  0
  1  2  1  0
  2  4  1  0
  3  2  2  0
  4  5  1  0
  6  5  1  0
  7  6  1  0
  8  9  1  1
  8  7  1  0
 10 20  1  0
 10  8  1  0
 11 10  2  0
 13 12  1  0
 14 13  2  0
 15 13  1  0
 16 15  1  0
 17 16  1  0
 17 18  1  0
 19 18  1  6
 19 20  1  0
 19 21  1  0
 21 22  2  0
 23 21  1  0
 23 24  1  0
 24 25  1  1
 25 26  1  0
 26 30  1  0
 26 27  2  0
 27 28  1  0
 29 28  1  0
 30 29  2  0
 31 32  1  0
 31 24  1  0
 33 31  2  0
M  END
$$$$
