RRH.pdb
     RDKit          3D

 33 33  0  0  1  0  0  0  0  0999 V2000
   16.1760  -14.3443   16.0156 N   0  0  0  0  0  0  0  0  0  0  0  0
   16.5667  -14.0488   17.3527 C   0  0  0  0  0  0  0  0  0  0  0  0
   17.7431  -13.5368   17.5101 N   0  0  0  0  0  0  0  0  0  0  0  0
   15.6927  -14.3129   18.4236 N   0  0  0  0  0  0  0  0  0  0  0  0
   14.2989  -14.6351   18.0964 C   0  0  0  0  0  0  0  0  0  0  0  0
   13.9443  -15.9002   18.7795 C   0  0  0  0  0  0  0  0  0  0  0  0
   13.4707  -15.7847   20.1833 C   0  0  0  0  0  0  0  0  0  0  0  0
   12.0824  -16.3055   20.3657 C   0  0  2  0  0  0  0  0  0  0  0  0
   11.4555  -16.5070   19.0867 N   0  0  0  0  0  0  0  0  0  0  0  0
   11.2955  -15.3391   21.2039 C   0  0  0  0  0  0  0  0  0  0  0  0
   11.6726  -14.1627   21.3566 O   0  0  0  0  0  0  0  0  0  0  0  0
   18.1936  -13.3446   18.4111 N   0  0  0  0  0  0  0  0  0  0  0  0
    8.1958  -12.1808   18.4899 C   0  0  0  0  0  0  0  0  0  0  0  0
    8.0819  -13.4168   17.7990 N   0  0  0  0  0  0  0  0  0  0  0  0
    8.6769  -13.5652   16.6626 N   0  0  0  0  0  0  0  0  0  0  0  0
    7.3155  -14.4724   18.3666 C   0  0  0  0  0  0  0  0  0  0  0  0
    7.0261  -14.3856   19.7951 C   0  0  0  0  0  0  0  0  0  0  0  0
    8.3657  -14.5263   20.5103 C   0  0  0  0  0  0  0  0  0  0  0  0
    8.0469  -14.6037   22.0031 C   0  0  2  0  0  0  0  0  0  0  0  0
    9.3476  -14.9031   22.7072 N   0  0  0  0  0  0  0  0  0  0  0  0
   10.1075  -15.7700   21.8301 C   0  0  0  0  0  0  0  0  0  0  0  0
    9.1770  -15.5293   24.0132 O   0  0  0  0  0  0  0  0  0  0  0  0
    8.5837  -16.6356   24.0903 N   0  0  0  0  0  0  0  0  0  0  0  0
    8.6019  -14.4553   16.1372 C   0  0  2  0  0  0  0  0  0  0  0  0
    9.6373  -14.9791   25.2400 C   0  0  0  0  0  0  0  0  0  0  0  0
    9.1166  -15.4507   26.5078 C   0  0  0  0  0  0  0  0  0  0  0  0
    7.6216  -15.2263   26.5861 C   0  0  0  0  0  0  0  0  0  0  0  0
    7.2644  -13.8075   26.6383 N   0  0  0  0  0  0  0  0  0  0  0  0
    8.1559  -12.7518   26.6352 C   0  0  0  0  0  0  0  0  0  0  0  0
    7.4407  -11.6276   26.6915 N   0  0  0  0  0  0  0  0  0  0  0  0
    6.1358  -11.9396   26.7297 C   0  0  0  0  0  0  0  0  0  0  0  0
    6.0283  -13.2738   26.6972 O   0  0  0  0  0  0  0  0  0  0  0  0
    9.4452  -16.9045   26.6763 O   0  0  0  0  0  0  0  0  0  0  0  0
  1  2  1  0
  2  4  1  0
  3  2  2  0
  4  5  1  0
  6  5  1  0
  7  6  1  0
  8  9  1  6
  8  7  1  0
 10 20  1  0
 10  8  1  0
 11 10  2  0
 13 12  1  0
 14 13  2  0
 15 13  1  0
 16 15  1  0
 17 16  1  0
 17 18  1  0
 19 18  1  6
 19 20  1  0
 19 21  1  0
 21 22  2  0
 23 21  1  0
 23 24  1  0
 24 25  1  6
 25 26  1  0
 26 30  1  0
 26 27  2  0
 27 28  1  0
 29 28  1  0
 30 29  2  0
 31 32  1  0
 31 24  1  0
 33 31  2  0
M  END
$$$$
