RRH.pdb
     RDKit          3D

 33 33  0  0  1  0  0  0  0  0999 V2000
    7.8208  -14.8941   15.4902 N   0  0  0  0  0  0  0  0  0  0  0  0
    8.1926  -13.5529   15.7915 C   0  0  0  0  0  0  0  0  0  0  0  0
    7.9662  -12.6715   14.8735 N   0  0  0  0  0  0  0  0  0  0  0  0
    8.7738  -13.2382   17.0340 N   0  0  0  0  0  0  0  0  0  0  0  0
    8.8729  -14.3142   18.0270 C   0  0  0  0  0  0  0  0  0  0  0  0
    7.9331  -14.0126   19.1308 C   0  0  0  0  0  0  0  0  0  0  0  0
    7.8333  -15.0276   20.2116 C   0  0  0  0  0  0  0  0  0  0  0  0
    8.6728  -16.2344   19.9454 C   0  0  2  0  0  0  0  0  0  0  0  0
    8.0513  -17.0611   18.9456 N   0  0  0  0  0  0  0  0  0  0  0  0
    8.8696  -16.9947   21.2255 C   0  0  0  0  0  0  0  0  0  0  0  0
    7.9379  -17.6372   21.7434 O   0  0  0  0  0  0  0  0  0  0  0  0
    8.1420  -11.6647   14.9578 N   0  0  0  0  0  0  0  0  0  0  0  0
   15.5510  -21.5809   22.7264 C   0  0  0  0  0  0  0  0  0  0  0  0
   14.2522  -22.0212   22.3557 N   0  0  0  0  0  0  0  0  0  0  0  0
   14.1245  -23.0907   21.6435 N   0  0  0  0  0  0  0  0  0  0  0  0
   13.1120  -21.2797   22.7728 C   0  0  0  0  0  0  0  0  0  0  0  0
   13.3554  -20.1021   23.6009 C   0  0  0  0  0  0  0  0  0  0  0  0
   11.9900  -19.4745   23.8607 C   0  0  0  0  0  0  0  0  0  0  0  0
   11.7648  -18.4617   22.7383 C   0  0  2  0  0  0  0  0  0  0  0  0
   10.4246  -17.8190   22.9995 N   0  0  0  0  0  0  0  0  0  0  0  0
   10.1323  -16.9822   21.8538 C   0  0  0  0  0  0  0  0  0  0  0  0
   10.3813  -17.0306   24.2257 O   0  0  0  0  0  0  0  0  0  0  0  0
   11.2013  -16.0893   24.3791 N   0  0  0  0  0  0  0  0  0  0  0  0
   13.1866  -23.4372   21.3710 C   0  0  1  0  0  0  0  0  0  0  0  0
    9.4653  -17.2425   25.2913 C   0  0  0  0  0  0  0  0  0  0  0  0
    9.5339  -16.4455   26.5000 C   0  0  0  0  0  0  0  0  0  0  0  0
    8.1501  -16.0050   26.9267 C   0  0  0  0  0  0  0  0  0  0  0  0
    7.5771  -14.9960   26.0340 N   0  0  0  0  0  0  0  0  0  0  0  0
    8.2688  -14.2863   25.0711 C   0  0  0  0  0  0  0  0  0  0  0  0
    7.3972  -13.4721   24.4747 N   0  0  0  0  0  0  0  0  0  0  0  0
    6.1865  -13.6451   25.0276 C   0  0  0  0  0  0  0  0  0  0  0  0
    6.2970  -14.5778   25.9819 O   0  0  0  0  0  0  0  0  0  0  0  0
   10.1981  -17.2376   27.5868 O   0  0  0  0  0  0  0  0  0  0  0  0
  1  2  1  0
  2  4  1  0
  3  2  2  0
  4  5  1  0
  6  5  1  0
  7  6  1  0
  8  9  1  6
  8  7  1  0
 10 20  1  0
 10  8  1  0
 11 10  2  0
 13 12  1  0
 14 13  2  0
 15 13  1  0
 16 15  1  0
 17 16  1  0
 17 18  1  0
 19 18  1  6
 19 20  1  0
 19 21  1  0
 21 22  2  0
 23 21  1  0
 23 24  1  0
 24 25  1  1
 25 26  1  0
 26 30  1  0
 26 27  2  0
 27 28  1  0
 29 28  1  0
 30 29  2  0
 31 32  1  0
 31 24  1  0
 33 31  2  0
M  END
$$$$
