RRH.pdb
     RDKit          3D

 33 33  0  0  1  0  0  0  0  0999 V2000
   10.0294  -16.0736   14.9502 N   0  0  0  0  0  0  0  0  0  0  0  0
    9.0739  -15.4911   14.0695 C   0  0  0  0  0  0  0  0  0  0  0  0
    8.9227  -16.0651   12.9212 N   0  0  0  0  0  0  0  0  0  0  0  0
    8.3491  -14.3501   14.4610 N   0  0  0  0  0  0  0  0  0  0  0  0
    8.6011  -13.8158   15.8043 C   0  0  0  0  0  0  0  0  0  0  0  0
    7.5372  -14.3127   16.7066 C   0  0  0  0  0  0  0  0  0  0  0  0
    7.3711  -13.5911   17.9950 C   0  0  0  0  0  0  0  0  0  0  0  0
    8.6350  -13.5363   18.7896 C   0  0  2  0  0  0  0  0  0  0  0  0
    9.7692  -13.7663   17.9352 N   0  0  0  0  0  0  0  0  0  0  0  0
    8.5747  -14.5569   19.8898 C   0  0  0  0  0  0  0  0  0  0  0  0
    7.5366  -14.7269   20.5553 O   0  0  0  0  0  0  0  0  0  0  0  0
    8.2241  -15.8102   12.2150 N   0  0  0  0  0  0  0  0  0  0  0  0
   13.1105  -18.4208   24.5995 C   0  0  0  0  0  0  0  0  0  0  0  0
   12.7392  -19.7589   24.2998 N   0  0  0  0  0  0  0  0  0  0  0  0
   12.9331  -20.6832   25.1806 N   0  0  0  0  0  0  0  0  0  0  0  0
   12.1603  -20.0625   23.0363 C   0  0  0  0  0  0  0  0  0  0  0  0
   12.2131  -19.0188   22.0166 C   0  0  0  0  0  0  0  0  0  0  0  0
   10.9507  -18.1824   22.1976 C   0  0  0  0  0  0  0  0  0  0  0  0
   10.9865  -17.1132   21.1059 C   0  0  2  0  0  0  0  0  0  0  0  0
    9.7356  -16.2855   21.2713 N   0  0  0  0  0  0  0  0  0  0  0  0
    9.7136  -15.3383   20.1756 C   0  0  0  0  0  0  0  0  0  0  0  0
    9.6610  -15.5840   22.5477 O   0  0  0  0  0  0  0  0  0  0  0  0
   10.5658  -14.7647   22.8512 N   0  0  0  0  0  0  0  0  0  0  0  0
   12.7004  -21.6713   24.9720 C   0  0  2  0  0  0  0  0  0  0  0  0
    8.6234  -15.7532   23.5039 C   0  0  0  0  0  0  0  0  0  0  0  0
    8.5089  -14.8626   24.6417 C   0  0  0  0  0  0  0  0  0  0  0  0
    7.1388  -14.2203   24.6795 C   0  0  0  0  0  0  0  0  0  0  0  0
    6.9370  -13.3871   25.8663 N   0  0  0  0  0  0  0  0  0  0  0  0
    7.5686  -12.1853   26.1236 C   0  0  0  0  0  0  0  0  0  0  0  0
    7.1163  -11.7420   27.2972 N   0  0  0  0  0  0  0  0  0  0  0  0
    6.2258  -12.6204   27.7841 C   0  0  0  0  0  0  0  0  0  0  0  0
    6.1164  -13.6271   26.9081 O   0  0  0  0  0  0  0  0  0  0  0  0
    8.7728  -15.6261   25.9056 O   0  0  0  0  0  0  0  0  0  0  0  0
  1  2  1  0
  2  4  1  0
  3  2  2  0
  4  5  1  0
  6  5  1  0
  7  6  1  0
  8  9  1  6
  8  7  1  0
 10 20  1  0
 10  8  1  0
 11 10  2  0
 13 12  1  0
 14 13  2  0
 15 13  1  0
 16 15  1  0
 17 16  1  0
 17 18  1  0
 19 18  1  6
 19 20  1  0
 19 21  1  0
 21 22  2  0
 23 21  1  0
 23 24  1  0
 24 25  1  1
 25 26  1  0
 26 30  1  0
 26 27  2  0
 27 28  1  0
 29 28  1  0
 30 29  2  0
 31 32  1  0
 31 24  1  0
 33 31  2  0
M  END
$$$$
