RRH.pdb
     RDKit          3D

 33 33  0  0  1  0  0  0  0  0999 V2000
   19.1257  -19.2247   15.8134 N   0  0  0  0  0  0  0  0  0  0  0  0
   17.8937  -19.8707   15.5091 C   0  0  0  0  0  0  0  0  0  0  0  0
   17.9746  -21.0377   14.9594 N   0  0  0  0  0  0  0  0  0  0  0  0
   16.6696  -19.2426   15.8052 N   0  0  0  0  0  0  0  0  0  0  0  0
   15.4403  -20.0059   15.5606 C   0  0  0  0  0  0  0  0  0  0  0  0
   14.7594  -19.4207   14.3830 C   0  0  0  0  0  0  0  0  0  0  0  0
   14.8202  -17.9419   14.2499 C   0  0  0  0  0  0  0  0  0  0  0  0
   13.4895  -17.3380   13.9396 C   0  0  2  0  0  0  0  0  0  0  0  0
   13.5467  -16.6244   12.6918 N   0  0  0  0  0  0  0  0  0  0  0  0
   13.0838  -16.4266   15.0622 C   0  0  0  0  0  0  0  0  0  0  0  0
   13.6060  -15.3055   15.2032 O   0  0  0  0  0  0  0  0  0  0  0  0
   17.1794  -21.6353   14.7098 N   0  0  0  0  0  0  0  0  0  0  0  0
    7.3078  -12.9758   17.4585 C   0  0  0  0  0  0  0  0  0  0  0  0
    7.5258  -13.1267   18.8541 N   0  0  0  0  0  0  0  0  0  0  0  0
    7.5176  -12.0825   19.6138 N   0  0  0  0  0  0  0  0  0  0  0  0
    7.7499  -14.4231   19.3954 C   0  0  0  0  0  0  0  0  0  0  0  0
    8.2211  -15.4525   18.4732 C   0  0  0  0  0  0  0  0  0  0  0  0
    9.7074  -15.1853   18.2601 C   0  0  0  0  0  0  0  0  0  0  0  0
   10.1848  -16.2174   17.2388 C   0  0  2  0  0  0  0  0  0  0  0  0
   11.6719  -16.0136   17.0822 N   0  0  0  0  0  0  0  0  0  0  0  0
   12.0932  -16.8463   15.9743 C   0  0  0  0  0  0  0  0  0  0  0  0
   12.4379  -16.3398   18.2796 O   0  0  0  0  0  0  0  0  0  0  0  0
   13.1229  -17.3944   18.3013 N   0  0  0  0  0  0  0  0  0  0  0  0
    7.7623  -12.1557   20.6182 C   0  0  1  0  0  0  0  0  0  0  0  0
   12.4761  -15.5444   19.4567 C   0  0  0  0  0  0  0  0  0  0  0  0
   13.6968  -15.4161   20.2276 C   0  0  0  0  0  0  0  0  0  0  0  0
   14.3719  -14.0923   19.9398 C   0  0  0  0  0  0  0  0  0  0  0  0
   15.4889  -14.2189   19.0019 N   0  0  0  0  0  0  0  0  0  0  0  0
   15.9662  -15.4027   18.4728 C   0  0  0  0  0  0  0  0  0  0  0  0
   16.9828  -15.0962   17.6661 N   0  0  0  0  0  0  0  0  0  0  0  0
   17.1600  -13.7657   17.6702 C   0  0  0  0  0  0  0  0  0  0  0  0
   16.2456  -13.2292   18.4878 O   0  0  0  0  0  0  0  0  0  0  0  0
   13.3839  -15.5464   21.6888 O   0  0  0  0  0  0  0  0  0  0  0  0
  1  2  1  0
  2  4  1  0
  3  2  2  0
  4  5  1  0
  6  5  1  0
  7  6  1  0
  8  9  1  6
  8  7  1  0
 10 20  1  0
 10  8  1  0
 11 10  2  0
 13 12  1  0
 14 13  2  0
 15 13  1  0
 16 15  1  0
 17 16  1  0
 17 18  1  0
 19 18  1  6
 19 20  1  0
 19 21  1  0
 21 22  2  0
 23 21  1  0
 23 24  1  0
 24 25  1  1
 25 26  1  0
 26 30  1  0
 26 27  2  0
 27 28  1  0
 29 28  1  0
 30 29  2  0
 31 32  1  0
 31 24  1  0
 33 31  2  0
M  END
$$$$
