RRH.pdb
     RDKit          3D

 33 33  0  0  1  0  0  0  0  0999 V2000
   17.3889  -10.3144   16.2878 N   0  0  0  0  0  0  0  0  0  0  0  0
   17.5853  -11.7214   16.1887 C   0  0  0  0  0  0  0  0  0  0  0  0
   18.6527  -12.1129   15.5739 N   0  0  0  0  0  0  0  0  0  0  0  0
   16.6462  -12.6111   16.7430 N   0  0  0  0  0  0  0  0  0  0  0  0
   17.0268  -13.3191   17.9707 C   0  0  0  0  0  0  0  0  0  0  0  0
   15.9025  -14.1987   18.3646 C   0  0  0  0  0  0  0  0  0  0  0  0
   14.9869  -14.6304   17.2766 C   0  0  0  0  0  0  0  0  0  0  0  0
   13.9198  -15.5583   17.7585 C   0  0  2  0  0  0  0  0  0  0  0  0
   13.0179  -15.8784   16.6845 N   0  0  0  0  0  0  0  0  0  0  0  0
   13.1872  -14.9207   18.9040 C   0  0  0  0  0  0  0  0  0  0  0  0
   12.9698  -13.6953   18.9281 O   0  0  0  0  0  0  0  0  0  0  0  0
   19.0409  -13.0619   15.5994 N   0  0  0  0  0  0  0  0  0  0  0  0
    6.3612  -12.3109   18.5152 C   0  0  0  0  0  0  0  0  0  0  0  0
    7.5402  -12.9712   18.0770 N   0  0  0  0  0  0  0  0  0  0  0  0
    7.7017  -13.2119   16.8186 N   0  0  0  0  0  0  0  0  0  0  0  0
    8.5252  -13.3578   19.0278 C   0  0  0  0  0  0  0  0  0  0  0  0
    8.1244  -14.3362   20.0348 C   0  0  0  0  0  0  0  0  0  0  0  0
    9.3471  -14.5647   20.9171 C   0  0  0  0  0  0  0  0  0  0  0  0
   10.4646  -15.0334   19.9856 C   0  0  2  0  0  0  0  0  0  0  0  0
   11.6705  -15.2931   20.8548 N   0  0  0  0  0  0  0  0  0  0  0  0
   12.7363  -15.7229   19.9729 C   0  0  0  0  0  0  0  0  0  0  0  0
   11.4409  -16.2904   21.8938 O   0  0  0  0  0  0  0  0  0  0  0  0
   10.9112  -17.3883   21.5839 N   0  0  0  0  0  0  0  0  0  0  0  0
    8.5547  -13.6903   16.4756 C   0  0  1  0  0  0  0  0  0  0  0  0
   11.7742  -16.1212   23.2648 C   0  0  0  0  0  0  0  0  0  0  0  0
   11.6371  -17.2169   24.2037 C   0  0  0  0  0  0  0  0  0  0  0  0
   12.7150  -17.1477   25.2642 C   0  0  0  0  0  0  0  0  0  0  0  0
   14.0339  -17.5293   24.7561 N   0  0  0  0  0  0  0  0  0  0  0  0
   14.3121  -17.9421   23.4671 C   0  0  0  0  0  0  0  0  0  0  0  0
   15.6198  -18.1956   23.4044 N   0  0  0  0  0  0  0  0  0  0  0  0
   16.1707  -17.9571   24.6050 C   0  0  0  0  0  0  0  0  0  0  0  0
   15.1998  -17.5493   25.4319 O   0  0  0  0  0  0  0  0  0  0  0  0
   10.2740  -17.1757   24.8281 O   0  0  0  0  0  0  0  0  0  0  0  0
  1  2  1  0
  2  4  1  0
  3  2  2  0
  4  5  1  0
  6  5  1  0
  7  6  1  0
  8  9  1  6
  8  7  1  0
 10 20  1  0
 10  8  1  0
 11 10  2  0
 13 12  1  0
 14 13  2  0
 15 13  1  0
 16 15  1  0
 17 16  1  0
 17 18  1  0
 19 18  1  6
 19 20  1  0
 19 21  1  0
 21 22  2  0
 23 21  1  0
 23 24  1  0
 24 25  1  1
 25 26  1  0
 26 30  1  0
 26 27  2  0
 27 28  1  0
 29 28  1  0
 30 29  2  0
 31 32  1  0
 31 24  1  0
 33 31  2  0
M  END
$$$$
