LFI.pdb
     RDKit          3D

 28 28  0  0  1  0  0  0  0  0999 V2000
   11.6125  -21.1370   20.6919 C   0  0  0  0  0  0  0  0  0  0  0  0
   11.4983  -19.7618   20.0357 C   0  0  1  0  0  0  0  0  0  0  0  0
   10.3545  -19.8268   19.0755 C   0  0  0  0  0  0  0  0  0  0  0  0
   11.3089  -18.7401   21.1310 C   0  0  0  0  0  0  0  0  0  0  0  0
   10.9407  -17.3800   20.6029 C   0  0  2  0  0  0  0  0  0  0  0  0
   12.0258  -16.7889   19.8460 N   0  0  0  0  0  0  0  0  0  0  0  0
   10.5734  -16.5346   21.7693 C   0  0  0  0  0  0  0  0  0  0  0  0
   11.4650  -15.9000   22.3878 O   0  0  0  0  0  0  0  0  0  0  0  0
    9.2259  -16.4015   22.2371 N   0  0  0  0  0  0  0  0  0  0  0  0
    8.8758  -15.4991   23.3171 C   0  0  1  0  0  0  0  0  0  0  0  0
    7.4093  -15.1367   23.2160 C   0  0  0  0  0  0  0  0  0  0  0  0
    7.0242  -14.2048   24.3054 C   0  0  0  0  0  0  0  0  0  0  0  0
    6.2542  -14.6183   25.3537 C   0  0  0  0  0  0  0  0  0  0  0  0
    5.9169  -13.7317   26.3436 C   0  0  0  0  0  0  0  0  0  0  0  0
    6.3270  -12.4226   26.3269 C   0  0  0  0  0  0  0  0  0  0  0  0
    7.1054  -11.9967   25.2710 C   0  0  0  0  0  0  0  0  0  0  0  0
    7.4437  -12.8909   24.2753 C   0  0  0  0  0  0  0  0  0  0  0  0
    9.2085  -16.1406   24.5965 C   0  0  0  0  0  0  0  0  0  0  0  0
    9.2155  -17.4141   24.7181 O   0  0  0  0  0  0  0  0  0  0  0  0
   10.5271  -12.7024   28.8746 C   0  0  0  0  0  0  0  0  0  0  0  0
   10.6957  -13.7310   27.7873 C   0  0  0  0  0  0  0  0  0  0  0  0
   10.1458  -15.0662   28.1293 C   0  0  2  0  0  0  0  0  0  0  0  0
   10.9118  -15.7399   29.2567 C   0  0  0  0  0  0  0  0  0  0  0  0
   10.0070  -16.0354   27.0048 C   0  0  2  0  0  0  0  0  0  0  0  0
    9.5427  -15.4228   25.7780 N   0  0  0  0  0  0  0  0  0  0  0  0
    9.3056  -17.2782   27.3290 C   0  0  0  0  0  0  0  0  0  0  0  0
    8.0596  -17.6268   26.8850 O   0  0  0  0  0  0  0  0  0  0  0  0
    9.8958  -18.1154   28.0900 O   0  0  0  0  0  0  0  0  0  0  0  0
  2  4  1  0
  2  1  1  1
  3  2  1  0
  5  4  1  0
  5  6  1  1
  7  8  2  0
  7  5  1  0
  9  7  1  0
 10  9  1  0
 10 11  1  1
 11 12  1  0
 12 13  2  0
 12 17  1  0
 13 14  1  0
 14 15  2  0
 16 15  1  0
 17 16  2  0
 18 10  1  0
 19 18  2  0
 20 21  1  0
 21 22  1  0
 22 23  1  1
 24 22  1  0
 24 25  1  6
 25 18  1  0
 26 24  1  0
 27 26  1  0
 28 26  2  0
M  END
$$$$
