LFI.pdb
     RDKit          3D

 28 28  0  0  1  0  0  0  0  0999 V2000
   11.6311  -21.1349   20.8255 C   0  0  0  0  0  0  0  0  0  0  0  0
   11.4027  -19.8117   20.0962 C   0  0  1  0  0  0  0  0  0  0  0  0
   10.1454  -19.9594   19.3013 C   0  0  0  0  0  0  0  0  0  0  0  0
   11.3353  -18.7166   21.1334 C   0  0  0  0  0  0  0  0  0  0  0  0
   10.8743  -17.4019   20.5647 C   0  0  2  0  0  0  0  0  0  0  0  0
   11.8820  -16.8063   19.7107 N   0  0  0  0  0  0  0  0  0  0  0  0
   10.5440  -16.5134   21.7100 C   0  0  0  0  0  0  0  0  0  0  0  0
   11.4501  -15.8362   22.2582 O   0  0  0  0  0  0  0  0  0  0  0  0
    9.2172  -16.3850   22.2347 N   0  0  0  0  0  0  0  0  0  0  0  0
    8.9079  -15.4752   23.3208 C   0  0  1  0  0  0  0  0  0  0  0  0
    7.4462  -15.0868   23.2526 C   0  0  0  0  0  0  0  0  0  0  0  0
    7.1281  -14.0628   24.2791 C   0  0  0  0  0  0  0  0  0  0  0  0
    6.4390  -14.3845   25.4124 C   0  0  0  0  0  0  0  0  0  0  0  0
    6.1622  -13.4143   26.3409 C   0  0  0  0  0  0  0  0  0  0  0  0
    6.5548  -12.1099   26.1781 C   0  0  0  0  0  0  0  0  0  0  0  0
    7.2517  -11.7765   25.0355 C   0  0  0  0  0  0  0  0  0  0  0  0
    7.5292  -12.7547   24.1020 C   0  0  0  0  0  0  0  0  0  0  0  0
    9.2581  -16.1209   24.5934 C   0  0  0  0  0  0  0  0  0  0  0  0
    9.1442  -17.3856   24.7491 O   0  0  0  0  0  0  0  0  0  0  0  0
    9.9554  -12.8470   29.1280 C   0  0  0  0  0  0  0  0  0  0  0  0
   10.3049  -13.7199   27.9514 C   0  0  0  0  0  0  0  0  0  0  0  0
   10.0035  -15.1583   28.1567 C   0  0  2  0  0  0  0  0  0  0  0  0
   10.7894  -15.7587   29.3115 C   0  0  0  0  0  0  0  0  0  0  0  0
   10.1555  -16.0452   26.9678 C   0  0  2  0  0  0  0  0  0  0  0  0
    9.7409  -15.4170   25.7310 N   0  0  0  0  0  0  0  0  0  0  0  0
    9.6347  -17.4036   27.1262 C   0  0  0  0  0  0  0  0  0  0  0  0
    8.3451  -17.7932   26.8892 O   0  0  0  0  0  0  0  0  0  0  0  0
   10.4425  -18.3103   27.5186 O   0  0  0  0  0  0  0  0  0  0  0  0
  2  4  1  0
  2  1  1  1
  3  2  1  0
  5  4  1  0
  5  6  1  1
  7  8  2  0
  7  5  1  0
  9  7  1  0
 10  9  1  0
 10 11  1  1
 11 12  1  0
 12 13  2  0
 12 17  1  0
 13 14  1  0
 14 15  2  0
 16 15  1  0
 17 16  2  0
 18 10  1  0
 19 18  2  0
 20 21  1  0
 21 22  1  0
 22 23  1  1
 24 22  1  0
 24 25  1  6
 25 18  1  0
 26 24  1  0
 27 26  1  0
 28 26  2  0
M  END
$$$$
