LFI.pdb
     RDKit          3D

 28 28  0  0  1  0  0  0  0  0999 V2000
    8.7865  -12.3417   18.5618 C   0  0  0  0  0  0  0  0  0  0  0  0
    8.5629  -13.6602   19.3011 C   0  0  1  0  0  0  0  0  0  0  0  0
    7.3733  -14.3169   18.6782 C   0  0  0  0  0  0  0  0  0  0  0  0
    9.8292  -14.4748   19.1889 C   0  0  0  0  0  0  0  0  0  0  0  0
    9.8316  -15.6771   20.0938 C   0  0  2  0  0  0  0  0  0  0  0  0
    8.7656  -16.5998   19.7593 N   0  0  0  0  0  0  0  0  0  0  0  0
    9.6993  -15.1831   21.4897 C   0  0  0  0  0  0  0  0  0  0  0  0
   10.5523  -14.3854   21.9548 O   0  0  0  0  0  0  0  0  0  0  0  0
    8.6265  -15.5770   22.3535 N   0  0  0  0  0  0  0  0  0  0  0  0
    8.4579  -15.0046   23.6753 C   0  0  1  0  0  0  0  0  0  0  0  0
    6.9821  -14.9135   24.0009 C   0  0  0  0  0  0  0  0  0  0  0  0
    6.7451  -13.9264   25.0840 C   0  0  0  0  0  0  0  0  0  0  0  0
    7.1775  -12.6365   24.9755 C   0  0  0  0  0  0  0  0  0  0  0  0
    6.9415  -11.7500   25.9945 C   0  0  0  0  0  0  0  0  0  0  0  0
    6.2772  -12.1090   27.1399 C   0  0  0  0  0  0  0  0  0  0  0  0
    5.8369  -13.4108   27.2575 C   0  0  0  0  0  0  0  0  0  0  0  0
    6.0757  -14.3017   26.2305 C   0  0  0  0  0  0  0  0  0  0  0  0
    9.1967  -15.8257   24.6443 C   0  0  0  0  0  0  0  0  0  0  0  0
    9.5267  -17.0324   24.3764 O   0  0  0  0  0  0  0  0  0  0  0  0
   10.6312  -13.2560   29.3917 C   0  0  0  0  0  0  0  0  0  0  0  0
   10.8637  -14.0048   28.1056 C   0  0  0  0  0  0  0  0  0  0  0  0
   10.5536  -15.4537   28.1865 C   0  0  2  0  0  0  0  0  0  0  0  0
   11.5897  -16.2270   28.9865 C   0  0  0  0  0  0  0  0  0  0  0  0
   10.3312  -16.1588   26.8917 C   0  0  2  0  0  0  0  0  0  0  0  0
    9.5987  -15.3643   25.9282 N   0  0  0  0  0  0  0  0  0  0  0  0
    9.8367  -17.5319   27.0004 C   0  0  0  0  0  0  0  0  0  0  0  0
    8.5204  -17.9020   27.0381 O   0  0  0  0  0  0  0  0  0  0  0  0
   10.6968  -18.4722   27.0670 O   0  0  0  0  0  0  0  0  0  0  0  0
  2  4  1  0
  2  1  1  6
  3  2  1  0
  5  4  1  0
  5  6  1  6
  7  8  2  0
  7  5  1  0
  9  7  1  0
 10  9  1  0
 10 11  1  1
 11 12  1  0
 12 13  2  0
 12 17  1  0
 13 14  1  0
 14 15  2  0
 16 15  1  0
 17 16  2  0
 18 10  1  0
 19 18  2  0
 20 21  1  0
 21 22  1  0
 22 23  1  6
 24 22  1  0
 24 25  1  6
 25 18  1  0
 26 24  1  0
 27 26  1  0
 28 26  2  0
M  END
$$$$
