LFI.pdb
     RDKit          3D

 28 28  0  0  1  0  0  0  0  0999 V2000
   12.0854  -16.4962   17.0621 C   0  0  0  0  0  0  0  0  0  0  0  0
   11.4256  -17.4271   18.0785 C   0  0  1  0  0  0  0  0  0  0  0  0
   12.2275  -18.6884   18.1042 C   0  0  0  0  0  0  0  0  0  0  0  0
   11.3868  -16.7100   19.4066 C   0  0  0  0  0  0  0  0  0  0  0  0
   10.7939  -17.5495   20.5058 C   0  0  2  0  0  0  0  0  0  0  0  0
    9.6170  -18.2652   20.0559 N   0  0  0  0  0  0  0  0  0  0  0  0
   10.4723  -16.6391   21.6363 C   0  0  0  0  0  0  0  0  0  0  0  0
   11.3619  -15.8843   22.1044 O   0  0  0  0  0  0  0  0  0  0  0  0
    9.1724  -16.5747   22.2346 N   0  0  0  0  0  0  0  0  0  0  0  0
    8.8726  -15.6584   23.3181 C   0  0  1  0  0  0  0  0  0  0  0  0
    7.3849  -15.3790   23.3452 C   0  0  0  0  0  0  0  0  0  0  0  0
    7.0536  -14.4107   24.4204 C   0  0  0  0  0  0  0  0  0  0  0  0
    7.3888  -13.0918   24.3155 C   0  0  0  0  0  0  0  0  0  0  0  0
    7.0674  -12.2239   25.3271 C   0  0  0  0  0  0  0  0  0  0  0  0
    6.4114  -12.6301   26.4614 C   0  0  0  0  0  0  0  0  0  0  0  0
    6.0691  -13.9613   26.5754 C   0  0  0  0  0  0  0  0  0  0  0  0
    6.3937  -14.8335   25.5559 C   0  0  0  0  0  0  0  0  0  0  0  0
    9.3573  -16.2399   24.5774 C   0  0  0  0  0  0  0  0  0  0  0  0
    9.3275  -17.5028   24.7799 O   0  0  0  0  0  0  0  0  0  0  0  0
   10.9108  -12.6154   28.6553 C   0  0  0  0  0  0  0  0  0  0  0  0
   10.9313  -13.6587   27.5692 C   0  0  0  0  0  0  0  0  0  0  0  0
   10.4186  -14.9841   27.9960 C   0  0  2  0  0  0  0  0  0  0  0  0
   11.2180  -15.5746   29.1466 C   0  0  0  0  0  0  0  0  0  0  0  0
   10.2850  -16.0191   26.9311 C   0  0  2  0  0  0  0  0  0  0  0  0
    9.8874  -15.4721   25.6509 N   0  0  0  0  0  0  0  0  0  0  0  0
    9.5277  -17.2137   27.3068 C   0  0  0  0  0  0  0  0  0  0  0  0
   10.0689  -18.4098   27.6909 O   0  0  0  0  0  0  0  0  0  0  0  0
    8.2537  -17.1464   27.2770 O   0  0  0  0  0  0  0  0  0  0  0  0
  2  4  1  0
  2  1  1  6
  3  2  1  0
  5  4  1  0
  5  6  1  6
  7  8  2  0
  7  5  1  0
  9  7  1  0
 10  9  1  0
 10 11  1  1
 11 12  1  0
 12 13  2  0
 12 17  1  0
 13 14  1  0
 14 15  2  0
 16 15  1  0
 17 16  2  0
 18 10  1  0
 19 18  2  0
 20 21  1  0
 21 22  1  0
 22 23  1  1
 24 22  1  0
 24 25  1  6
 25 18  1  0
 26 24  1  0
 27 26  1  0
 28 26  2  0
M  END
$$$$
