LFI.pdb
     RDKit          3D

 28 28  0  0  1  0  0  0  0  0999 V2000
   12.6776  -20.7513   20.6786 C   0  0  0  0  0  0  0  0  0  0  0  0
   11.8650  -19.6763   19.9581 C   0  0  1  0  0  0  0  0  0  0  0  0
   10.5815  -20.3105   19.5278 C   0  0  0  0  0  0  0  0  0  0  0  0
   11.6769  -18.5209   20.9116 C   0  0  0  0  0  0  0  0  0  0  0  0
   10.6852  -17.5063   20.4103 C   0  0  2  0  0  0  0  0  0  0  0  0
   11.2013  -16.7710   19.2734 N   0  0  0  0  0  0  0  0  0  0  0  0
   10.3690  -16.5964   21.5427 C   0  0  0  0  0  0  0  0  0  0  0  0
   11.2050  -15.7284   21.9003 O   0  0  0  0  0  0  0  0  0  0  0  0
    9.1335  -16.6576   22.2652 N   0  0  0  0  0  0  0  0  0  0  0  0
    8.8236  -15.7261   23.3327 C   0  0  1  0  0  0  0  0  0  0  0  0
    7.3449  -15.4026   23.3063 C   0  0  0  0  0  0  0  0  0  0  0  0
    7.0035  -14.4264   24.3713 C   0  0  0  0  0  0  0  0  0  0  0  0
    7.4015  -13.1232   24.2933 C   0  0  0  0  0  0  0  0  0  0  0  0
    7.0687  -12.2474   25.2942 C   0  0  0  0  0  0  0  0  0  0  0  0
    6.3396  -12.6302   26.3915 C   0  0  0  0  0  0  0  0  0  0  0  0
    5.9335  -13.9455   26.4780 C   0  0  0  0  0  0  0  0  0  0  0  0
    6.2697  -14.8256   25.4692 C   0  0  0  0  0  0  0  0  0  0  0  0
    9.2468  -16.3138   24.6112 C   0  0  0  0  0  0  0  0  0  0  0  0
    9.0611  -17.5539   24.8652 O   0  0  0  0  0  0  0  0  0  0  0  0
   10.2222  -13.3657   29.5990 C   0  0  0  0  0  0  0  0  0  0  0  0
    9.7107  -14.3055   28.5390 C   0  0  0  0  0  0  0  0  0  0  0  0
   10.7701  -15.1160   27.8890 C   0  0  2  0  0  0  0  0  0  0  0  0
   11.8367  -14.2575   27.2279 C   0  0  0  0  0  0  0  0  0  0  0  0
   10.3138  -16.1432   26.9093 C   0  0  2  0  0  0  0  0  0  0  0  0
    9.8820  -15.5770   25.6488 N   0  0  0  0  0  0  0  0  0  0  0  0
    9.3886  -17.1473   27.4363 C   0  0  0  0  0  0  0  0  0  0  0  0
    8.0558  -17.2329   27.1408 O   0  0  0  0  0  0  0  0  0  0  0  0
    9.8527  -18.0222   28.2411 O   0  0  0  0  0  0  0  0  0  0  0  0
  2  4  1  0
  2  1  1  1
  3  2  1  0
  5  4  1  0
  5  6  1  6
  7  8  2  0
  7  5  1  0
  9  7  1  0
 10  9  1  0
 10 11  1  1
 11 12  1  0
 12 13  2  0
 12 17  1  0
 13 14  1  0
 14 15  2  0
 16 15  1  0
 17 16  2  0
 18 10  1  0
 19 18  2  0
 20 21  1  0
 21 22  1  0
 22 23  1  6
 24 22  1  0
 24 25  1  6
 25 18  1  0
 26 24  1  0
 27 26  1  0
 28 26  2  0
M  END
$$$$
