LFI.pdb
     RDKit          3D

 28 28  0  0  1  0  0  0  0  0999 V2000
    7.3933  -12.1046   18.7476 C   0  0  0  0  0  0  0  0  0  0  0  0
    7.5200  -13.5893   19.0864 C   0  0  1  0  0  0  0  0  0  0  0  0
    7.8826  -14.2991   17.8218 C   0  0  0  0  0  0  0  0  0  0  0  0
    8.5568  -13.7292   20.1750 C   0  0  0  0  0  0  0  0  0  0  0  0
    8.6839  -15.1404   20.6817 C   0  0  2  0  0  0  0  0  0  0  0  0
    7.4019  -15.8150   20.7117 N   0  0  0  0  0  0  0  0  0  0  0  0
    9.2900  -15.0730   22.0376 C   0  0  0  0  0  0  0  0  0  0  0  0
   10.4948  -14.7393   22.1686 O   0  0  0  0  0  0  0  0  0  0  0  0
    8.5570  -15.3754   23.2307 N   0  0  0  0  0  0  0  0  0  0  0  0
    9.1548  -15.2593   24.5469 C   0  0  1  0  0  0  0  0  0  0  0  0
    8.1022  -14.8184   25.5417 C   0  0  0  0  0  0  0  0  0  0  0  0
    8.7136  -14.5551   26.8685 C   0  0  0  0  0  0  0  0  0  0  0  0
    8.9523  -15.5666   27.7531 C   0  0  0  0  0  0  0  0  0  0  0  0
    9.5189  -15.2888   28.9703 C   0  0  0  0  0  0  0  0  0  0  0  0
    9.8632  -14.0148   29.3455 C   0  0  0  0  0  0  0  0  0  0  0  0
    9.6252  -12.9868   28.4573 C   0  0  0  0  0  0  0  0  0  0  0  0
    9.0546  -13.2688   27.2324 C   0  0  0  0  0  0  0  0  0  0  0  0
    9.7619  -16.5482   24.9063 C   0  0  0  0  0  0  0  0  0  0  0  0
    9.1473  -17.6514   24.7008 O   0  0  0  0  0  0  0  0  0  0  0  0
   14.4035  -17.9942   23.0826 C   0  0  0  0  0  0  0  0  0  0  0  0
   13.0326  -17.8600   23.6919 C   0  0  0  0  0  0  0  0  0  0  0  0
   12.9899  -18.1390   25.1487 C   0  0  2  0  0  0  0  0  0  0  0  0
   13.5068  -19.5273   25.4910 C   0  0  0  0  0  0  0  0  0  0  0  0
   11.6754  -17.9425   25.8245 C   0  0  2  0  0  0  0  0  0  0  0  0
   11.0490  -16.6790   25.4970 N   0  0  0  0  0  0  0  0  0  0  0  0
   11.6540  -18.2414   27.2570 C   0  0  0  0  0  0  0  0  0  0  0  0
   11.6724  -19.4932   27.8082 O   0  0  0  0  0  0  0  0  0  0  0  0
   11.6142  -17.2593   28.0708 O   0  0  0  0  0  0  0  0  0  0  0  0
  2  4  1  0
  2  1  1  6
  3  2  1  0
  5  4  1  0
  5  6  1  1
  7  8  2  0
  7  5  1  0
  9  7  1  0
 10  9  1  0
 10 11  1  1
 11 12  1  0
 12 13  2  0
 12 17  1  0
 13 14  1  0
 14 15  2  0
 16 15  1  0
 17 16  2  0
 18 10  1  0
 19 18  2  0
 20 21  1  0
 21 22  1  0
 22 23  1  6
 24 22  1  0
 24 25  1  1
 25 18  1  0
 26 24  1  0
 27 26  1  0
 28 26  2  0
M  END
$$$$
