LFI.pdb
     RDKit          3D

 28 28  0  0  1  0  0  0  0  0999 V2000
    8.2255  -12.3910   18.7619 C   0  0  0  0  0  0  0  0  0  0  0  0
    8.2634  -13.9151   18.8649 C   0  0  1  0  0  0  0  0  0  0  0  0
    7.7234  -14.4559   17.5802 C   0  0  0  0  0  0  0  0  0  0  0  0
    9.6902  -14.3254   19.1396 C   0  0  0  0  0  0  0  0  0  0  0  0
    9.7879  -15.5813   19.9628 C   0  0  2  0  0  0  0  0  0  0  0  0
    8.7276  -16.5151   19.6410 N   0  0  0  0  0  0  0  0  0  0  0  0
    9.7377  -15.1801   21.3934 C   0  0  0  0  0  0  0  0  0  0  0  0
   10.6245  -14.4226   21.8625 O   0  0  0  0  0  0  0  0  0  0  0  0
    8.7085  -15.6212   22.2870 N   0  0  0  0  0  0  0  0  0  0  0  0
    8.5272  -15.0289   23.5983 C   0  0  1  0  0  0  0  0  0  0  0  0
    7.0530  -14.7852   23.8421 C   0  0  0  0  0  0  0  0  0  0  0  0
    6.8569  -13.8816   25.0034 C   0  0  0  0  0  0  0  0  0  0  0  0
    6.2579  -14.3186   26.1492 C   0  0  0  0  0  0  0  0  0  0  0  0
    6.0927  -13.4579   27.2036 C   0  0  0  0  0  0  0  0  0  0  0  0
    6.5110  -12.1522   27.1570 C   0  0  0  0  0  0  0  0  0  0  0  0
    7.1173  -11.7025   26.0027 C   0  0  0  0  0  0  0  0  0  0  0  0
    7.2825  -12.5707   24.9423 C   0  0  0  0  0  0  0  0  0  0  0  0
    9.1232  -15.9174   24.6055 C   0  0  0  0  0  0  0  0  0  0  0  0
    9.1973  -17.1805   24.4154 O   0  0  0  0  0  0  0  0  0  0  0  0
   11.0175  -14.1252   29.9218 C   0  0  0  0  0  0  0  0  0  0  0  0
   10.2274  -14.9154   28.9119 C   0  0  0  0  0  0  0  0  0  0  0  0
   11.0576  -15.5458   27.8558 C   0  0  2  0  0  0  0  0  0  0  0  0
   11.9838  -14.5522   27.1727 C   0  0  0  0  0  0  0  0  0  0  0  0
   10.3274  -16.3126   26.8061 C   0  0  2  0  0  0  0  0  0  0  0  0
    9.6552  -15.4646   25.8443 N   0  0  0  0  0  0  0  0  0  0  0  0
    9.4869  -17.4057   27.2962 C   0  0  0  0  0  0  0  0  0  0  0  0
    9.9309  -18.5061   27.9768 O   0  0  0  0  0  0  0  0  0  0  0  0
    8.2318  -17.3384   27.0755 O   0  0  0  0  0  0  0  0  0  0  0  0
  2  4  1  0
  2  1  1  6
  3  2  1  0
  5  4  1  0
  5  6  1  6
  7  8  2  0
  7  5  1  0
  9  7  1  0
 10  9  1  0
 10 11  1  1
 11 12  1  0
 12 13  2  0
 12 17  1  0
 13 14  1  0
 14 15  2  0
 16 15  1  0
 17 16  2  0
 18 10  1  0
 19 18  2  0
 20 21  1  0
 21 22  1  0
 22 23  1  6
 24 22  1  0
 24 25  1  1
 25 18  1  0
 26 24  1  0
 27 26  1  0
 28 26  2  0
M  END
$$$$
