FDW.pdb
     RDKit          3D

 34 36  0  0  1  0  0  0  0  0999 V2000
    6.1900  -17.9191   21.5998 N   0  0  0  0  0  0  0  0  0  0  0  0
    7.1209  -16.7944   21.5836 C   0  0  1  0  0  0  0  0  0  0  0  0
    6.3568  -15.5907   22.0207 C   0  0  0  0  0  0  0  0  0  0  0  0
    6.9888  -14.3024   21.7790 C   0  0  0  0  0  0  0  0  0  0  0  0
    7.1091  -13.8220   20.5002 C   0  0  0  0  0  0  0  0  0  0  0  0
    7.6954  -12.6035   20.1971 C   0  0  0  0  0  0  0  0  0  0  0  0
    8.1691  -11.8682   21.2667 C   0  0  0  0  0  0  0  0  0  0  0  0
    8.0573  -12.3347   22.5586 C   0  0  0  0  0  0  0  0  0  0  0  0
    7.4698  -13.5468   22.8167 C   0  0  0  0  0  0  0  0  0  0  0  0
    8.2929  -17.1377   22.3795 C   0  0  0  0  0  0  0  0  0  0  0  0
    8.1821  -17.8159   23.4562 O   0  0  0  0  0  0  0  0  0  0  0  0
    9.6365  -16.7698   22.0560 N   0  0  0  0  0  0  0  0  0  0  0  0
   10.7495  -17.0383   22.9442 C   0  0  1  0  0  0  0  0  0  0  0  0
   12.0123  -16.7738   22.1245 C   0  0  0  0  0  0  0  0  0  0  0  0
   12.0575  -17.5693   20.8925 C   0  0  0  0  0  0  0  0  0  0  0  0
   12.4002  -16.9415   19.8388 O   0  0  0  0  0  0  0  0  0  0  0  0
   10.7394  -16.2340   24.1585 C   0  0  0  0  0  0  0  0  0  0  0  0
   10.9751  -15.0149   24.1248 O   0  0  0  0  0  0  0  0  0  0  0  0
   11.7744  -18.8989   20.7488 O   0  0  0  0  0  0  0  0  0  0  0  0
   10.4562  -16.8538   25.3966 N   0  0  0  0  0  0  0  0  0  0  0  0
   10.9350  -16.4067   26.6635 C   0  0  1  0  0  0  0  0  0  0  0  0
   10.2191  -15.1555   27.1151 C   0  0  0  0  0  0  0  0  0  0  0  0
    8.8231  -15.0448   26.6859 C   0  0  0  0  0  0  0  0  0  0  0  0
    7.9803  -16.1229   26.4253 C   0  0  0  0  0  0  0  0  0  0  0  0
    6.7711  -15.6646   26.0334 N   0  0  0  0  0  0  0  0  0  0  0  0
    6.7863  -14.3230   26.0268 C   0  0  0  0  0  0  0  0  0  0  0  0
    5.8154  -13.3846   25.7157 C   0  0  0  0  0  0  0  0  0  0  0  0
    6.0706  -12.0337   25.7953 C   0  0  0  0  0  0  0  0  0  0  0  0
    7.3401  -11.6473   26.1999 C   0  0  0  0  0  0  0  0  0  0  0  0
    8.3111  -12.5717   26.5106 C   0  0  0  0  0  0  0  0  0  0  0  0
    8.0551  -13.9348   26.4303 C   0  0  0  0  0  0  0  0  0  0  0  0
   10.6899  -17.4594   27.6736 C   0  0  0  0  0  0  0  0  0  0  0  0
   11.2250  -17.3677   28.9724 O   0  0  0  0  0  0  0  0  0  0  0  0
    9.9894  -18.4644   27.3795 O   0  0  0  0  0  0  0  0  0  0  0  0
  2  1  1  1
  3  2  1  0
  4  3  1  0
  5  4  2  0
  6  5  1  0
  7  8  1  0
  7  6  2  0
  8  9  2  0
  9  4  1  0
 10 12  1  0
 10  2  1  0
 11 10  2  0
 13 12  1  0
 13 14  1  6
 14 15  1  0
 15 19  1  0
 16 15  2  0
 17 13  1  0
 18 17  2  0
 20 17  1  0
 21 32  1  0
 21 20  1  0
 21 22  1  1
 23 31  1  0
 23 22  1  0
 24 23  2  0
 25 24  1  0
 25 26  1  0
 26 27  1  0
 26 31  2  0
 27 28  2  0
 28 29  1  0
 30 29  2  0
 31 30  1  0
 32 33  1  0
 34 32  2  0
M  END
$$$$
