FDW.pdb
     RDKit          3D

 34 36  0  0  1  0  0  0  0  0999 V2000
    6.2774  -18.2777   20.9288 N   0  0  0  0  0  0  0  0  0  0  0  0
    7.1177  -17.0838   20.9292 C   0  0  1  0  0  0  0  0  0  0  0  0
    6.2263  -15.9243   21.2207 C   0  0  0  0  0  0  0  0  0  0  0  0
    6.8257  -14.6036   21.1011 C   0  0  0  0  0  0  0  0  0  0  0  0
    7.1552  -14.1046   19.8670 C   0  0  0  0  0  0  0  0  0  0  0  0
    7.7246  -12.8554   19.6786 C   0  0  0  0  0  0  0  0  0  0  0  0
    7.9548  -12.1085   20.8180 C   0  0  0  0  0  0  0  0  0  0  0  0
    7.6304  -12.5932   22.0666 C   0  0  0  0  0  0  0  0  0  0  0  0
    7.0678  -13.8358   22.2105 C   0  0  0  0  0  0  0  0  0  0  0  0
    8.2307  -17.2878   21.8481 C   0  0  0  0  0  0  0  0  0  0  0  0
    8.0635  -17.8911   22.9614 O   0  0  0  0  0  0  0  0  0  0  0  0
    9.5734  -16.8545   21.6140 N   0  0  0  0  0  0  0  0  0  0  0  0
   10.6435  -17.0990   22.5600 C   0  0  1  0  0  0  0  0  0  0  0  0
   11.9316  -16.6784   21.8527 C   0  0  0  0  0  0  0  0  0  0  0  0
   12.1369  -17.3954   20.5891 C   0  0  0  0  0  0  0  0  0  0  0  0
   12.0662  -18.6653   20.6538 O   0  0  0  0  0  0  0  0  0  0  0  0
   10.4864  -16.3879   23.8214 C   0  0  0  0  0  0  0  0  0  0  0  0
   10.6069  -15.1531   23.8832 O   0  0  0  0  0  0  0  0  0  0  0  0
   12.3945  -16.8579   19.3589 O   0  0  0  0  0  0  0  0  0  0  0  0
   10.1917  -17.1177   24.9952 N   0  0  0  0  0  0  0  0  0  0  0  0
   10.2887  -16.6055   26.3227 C   0  0  1  0  0  0  0  0  0  0  0  0
    8.9726  -16.7162   27.0558 C   0  0  0  0  0  0  0  0  0  0  0  0
    7.8980  -15.8632   26.5433 C   0  0  0  0  0  0  0  0  0  0  0  0
    6.7469  -16.3242   25.9084 C   0  0  0  0  0  0  0  0  0  0  0  0
    5.9795  -15.2721   25.5479 N   0  0  0  0  0  0  0  0  0  0  0  0
    6.5831  -14.1340   25.9227 C   0  0  0  0  0  0  0  0  0  0  0  0
    6.2166  -12.8035   25.7979 C   0  0  0  0  0  0  0  0  0  0  0  0
    7.0147  -11.7904   26.2807 C   0  0  0  0  0  0  0  0  0  0  0  0
    8.2026  -12.1537   26.8983 C   0  0  0  0  0  0  0  0  0  0  0  0
    8.5755  -13.4722   27.0266 C   0  0  0  0  0  0  0  0  0  0  0  0
    7.7715  -14.4952   26.5397 C   0  0  0  0  0  0  0  0  0  0  0  0
   11.2935  -17.3903   27.0730 C   0  0  0  0  0  0  0  0  0  0  0  0
   11.7003  -17.0138   28.3670 O   0  0  0  0  0  0  0  0  0  0  0  0
   11.8043  -18.4192   26.5558 O   0  0  0  0  0  0  0  0  0  0  0  0
  2  1  1  1
  3  2  1  0
  4  3  1  0
  5  4  2  0
  6  5  1  0
  7  8  1  0
  7  6  2  0
  8  9  2  0
  9  4  1  0
 10 12  1  0
 10  2  1  0
 11 10  2  0
 13 12  1  0
 13 14  1  6
 14 15  1  0
 15 19  1  0
 16 15  2  0
 17 13  1  0
 18 17  2  0
 20 17  1  0
 21 32  1  0
 21 20  1  0
 21 22  1  1
 23 31  1  0
 23 22  1  0
 24 23  2  0
 25 24  1  0
 25 26  1  0
 26 27  1  0
 26 31  2  0
 27 28  2  0
 28 29  1  0
 30 29  2  0
 31 30  1  0
 32 33  1  0
 34 32  2  0
M  END
$$$$
