FDW.pdb
     RDKit          3D

 34 36  0  0  1  0  0  0  0  0999 V2000
    7.2676  -17.3734   20.9116 N   0  0  0  0  0  0  0  0  0  0  0  0
    8.3325  -16.4698   21.3367 C   0  0  1  0  0  0  0  0  0  0  0  0
    7.6780  -15.2098   21.7928 C   0  0  0  0  0  0  0  0  0  0  0  0
    7.6703  -14.1066   20.8438 C   0  0  0  0  0  0  0  0  0  0  0  0
    6.5455  -13.3374   20.6891 C   0  0  0  0  0  0  0  0  0  0  0  0
    6.4684  -12.2706   19.8081 C   0  0  0  0  0  0  0  0  0  0  0  0
    7.6042  -12.0034   19.0681 C   0  0  0  0  0  0  0  0  0  0  0  0
    8.7438  -12.7654   19.2098 C   0  0  0  0  0  0  0  0  0  0  0  0
    8.7794  -13.8136   20.0935 C   0  0  0  0  0  0  0  0  0  0  0  0
    9.1702  -17.1516   22.3157 C   0  0  0  0  0  0  0  0  0  0  0  0
    8.6531  -17.7984   23.2882 O   0  0  0  0  0  0  0  0  0  0  0  0
   10.6000  -17.1710   22.2953 N   0  0  0  0  0  0  0  0  0  0  0  0
   11.3867  -17.5774   23.4423 C   0  0  1  0  0  0  0  0  0  0  0  0
   12.8354  -17.6326   22.9579 C   0  0  0  0  0  0  0  0  0  0  0  0
   13.7575  -18.0977   24.0000 C   0  0  0  0  0  0  0  0  0  0  0  0
   13.3355  -19.0537   24.7280 O   0  0  0  0  0  0  0  0  0  0  0  0
   11.2549  -16.6896   24.5894 C   0  0  0  0  0  0  0  0  0  0  0  0
   11.5442  -15.4844   24.5067 O   0  0  0  0  0  0  0  0  0  0  0  0
   15.0094  -17.6234   24.2767 O   0  0  0  0  0  0  0  0  0  0  0  0
   10.7896  -17.2107   25.8179 N   0  0  0  0  0  0  0  0  0  0  0  0
   11.0570  -16.6454   27.0997 C   0  0  1  0  0  0  0  0  0  0  0  0
   10.3768  -15.3070   27.2668 C   0  0  0  0  0  0  0  0  0  0  0  0
    8.9458  -15.2899   26.9547 C   0  0  0  0  0  0  0  0  0  0  0  0
    8.1460  -16.4218   26.8140 C   0  0  0  0  0  0  0  0  0  0  0  0
    6.8845  -16.0464   26.5081 N   0  0  0  0  0  0  0  0  0  0  0  0
    6.8238  -14.7077   26.4424 C   0  0  0  0  0  0  0  0  0  0  0  0
    5.7793  -13.8371   26.1757 C   0  0  0  0  0  0  0  0  0  0  0  0
    5.9641  -12.4725   26.1749 C   0  0  0  0  0  0  0  0  0  0  0  0
    7.2392  -12.0015   26.4520 C   0  0  0  0  0  0  0  0  0  0  0  0
    8.2831  -12.8581   26.7177 C   0  0  0  0  0  0  0  0  0  0  0  0
    8.0981  -14.2350   26.7184 C   0  0  0  0  0  0  0  0  0  0  0  0
   10.5380  -17.5520   28.1472 C   0  0  0  0  0  0  0  0  0  0  0  0
    9.9946  -18.8098   27.8244 O   0  0  0  0  0  0  0  0  0  0  0  0
   10.5768  -17.2046   29.3575 O   0  0  0  0  0  0  0  0  0  0  0  0
  2  1  1  1
  3  2  1  0
  4  3  1  0
  5  4  2  0
  6  5  1  0
  7  8  1  0
  7  6  2  0
  8  9  2  0
  9  4  1  0
 10 12  1  0
 10  2  1  0
 11 10  2  0
 13 12  1  0
 13 14  1  6
 14 15  1  0
 15 19  1  0
 16 15  2  0
 17 13  1  0
 18 17  2  0
 20 17  1  0
 21 32  1  0
 21 20  1  0
 21 22  1  6
 23 31  1  0
 23 22  1  0
 24 23  2  0
 25 24  1  0
 25 26  1  0
 26 27  1  0
 26 31  2  0
 27 28  2  0
 28 29  1  0
 30 29  2  0
 31 30  1  0
 32 33  1  0
 34 32  2  0
M  END
$$$$
