FDW.pdb
     RDKit          3D

 34 36  0  0  1  0  0  0  0  0999 V2000
    5.6570  -18.1584   23.3066 N   0  0  0  0  0  0  0  0  0  0  0  0
    6.6023  -17.0459   23.3162 C   0  0  1  0  0  0  0  0  0  0  0  0
    6.4933  -16.3937   24.6528 C   0  0  0  0  0  0  0  0  0  0  0  0
    6.7140  -14.9557   24.6890 C   0  0  0  0  0  0  0  0  0  0  0  0
    7.1698  -14.2993   23.5745 C   0  0  0  0  0  0  0  0  0  0  0  0
    7.3984  -12.9331   23.5363 C   0  0  0  0  0  0  0  0  0  0  0  0
    7.1413  -12.2358   24.7011 C   0  0  0  0  0  0  0  0  0  0  0  0
    6.6829  -12.8781   25.8309 C   0  0  0  0  0  0  0  0  0  0  0  0
    6.4692  -14.2329   25.8277 C   0  0  0  0  0  0  0  0  0  0  0  0
    7.9223  -17.5423   22.9472 C   0  0  0  0  0  0  0  0  0  0  0  0
    8.4559  -18.5208   23.5711 O   0  0  0  0  0  0  0  0  0  0  0  0
    8.7290  -17.0121   21.8921 N   0  0  0  0  0  0  0  0  0  0  0  0
   10.1166  -17.3888   21.7122 C   0  0  1  0  0  0  0  0  0  0  0  0
   10.4713  -17.0065   20.2754 C   0  0  0  0  0  0  0  0  0  0  0  0
    9.8149  -17.8700   19.2875 C   0  0  0  0  0  0  0  0  0  0  0  0
    9.7719  -19.1098   19.5754 O   0  0  0  0  0  0  0  0  0  0  0  0
   11.0247  -16.7554   22.6586 C   0  0  0  0  0  0  0  0  0  0  0  0
   11.2340  -15.5313   22.6287 O   0  0  0  0  0  0  0  0  0  0  0  0
    9.2489  -17.4967   18.1004 O   0  0  0  0  0  0  0  0  0  0  0  0
   11.6788  -17.5496   23.6276 N   0  0  0  0  0  0  0  0  0  0  0  0
   12.5885  -17.0575   24.6096 C   0  0  1  0  0  0  0  0  0  0  0  0
   11.9962  -15.9030   25.3831 C   0  0  0  0  0  0  0  0  0  0  0  0
   11.6270  -16.2028   26.7684 C   0  0  0  0  0  0  0  0  0  0  0  0
   11.7620  -17.4477   27.3789 C   0  0  0  0  0  0  0  0  0  0  0  0
   11.3095  -17.3772   28.6501 N   0  0  0  0  0  0  0  0  0  0  0  0
   10.8813  -16.1304   28.8998 C   0  0  0  0  0  0  0  0  0  0  0  0
   10.3422  -15.5429   30.0331 C   0  0  0  0  0  0  0  0  0  0  0  0
    9.9804  -14.2142   30.0504 C   0  0  0  0  0  0  0  0  0  0  0  0
   10.1768  -13.4847   28.8868 C   0  0  0  0  0  0  0  0  0  0  0  0
   10.7111  -14.0593   27.7562 C   0  0  0  0  0  0  0  0  0  0  0  0
   11.0762  -15.3996   27.7373 C   0  0  0  0  0  0  0  0  0  0  0  0
   12.8948  -18.1386   25.5718 C   0  0  0  0  0  0  0  0  0  0  0  0
   13.9869  -18.0459   26.4552 O   0  0  0  0  0  0  0  0  0  0  0  0
   12.1720  -19.1696   25.6128 O   0  0  0  0  0  0  0  0  0  0  0  0
  2  1  1  1
  3  2  1  0
  4  3  1  0
  5  4  2  0
  6  5  1  0
  7  8  1  0
  7  6  2  0
  8  9  2  0
  9  4  1  0
 10 12  1  0
 10  2  1  0
 11 10  2  0
 13 12  1  0
 13 14  1  6
 14 15  1  0
 15 19  1  0
 16 15  2  0
 17 13  1  0
 18 17  2  0
 20 17  1  0
 21 32  1  0
 21 20  1  0
 21 22  1  1
 23 31  1  0
 23 22  1  0
 24 23  2  0
 25 24  1  0
 25 26  1  0
 26 27  1  0
 26 31  2  0
 27 28  2  0
 28 29  1  0
 30 29  2  0
 31 30  1  0
 32 33  1  0
 34 32  2  0
M  END
$$$$
