FDW.pdb
     RDKit          3D

 34 36  0  0  1  0  0  0  0  0999 V2000
    7.7782  -17.2584   20.2017 N   0  0  0  0  0  0  0  0  0  0  0  0
    8.5888  -16.3420   20.9982 C   0  0  1  0  0  0  0  0  0  0  0  0
    7.6578  -15.3370   21.5873 C   0  0  0  0  0  0  0  0  0  0  0  0
    7.4717  -14.1082   20.8303 C   0  0  0  0  0  0  0  0  0  0  0  0
    8.3059  -13.0391   21.0343 C   0  0  0  0  0  0  0  0  0  0  0  0
    8.1896  -11.8411   20.3475 C   0  0  0  0  0  0  0  0  0  0  0  0
    7.1684  -11.7630   19.4200 C   0  0  0  0  0  0  0  0  0  0  0  0
    6.3202  -12.8269   19.2013 C   0  0  0  0  0  0  0  0  0  0  0  0
    6.4690  -13.9963   19.9024 C   0  0  0  0  0  0  0  0  0  0  0  0
    9.3860  -17.1138   21.9436 C   0  0  0  0  0  0  0  0  0  0  0  0
    9.3618  -18.3908   21.9368 O   0  0  0  0  0  0  0  0  0  0  0  0
   10.2455  -16.5506   22.9383 N   0  0  0  0  0  0  0  0  0  0  0  0
   11.1660  -17.3567   23.7146 C   0  0  1  0  0  0  0  0  0  0  0  0
   12.4260  -17.4930   22.8601 C   0  0  0  0  0  0  0  0  0  0  0  0
   13.4390  -18.3487   23.4880 C   0  0  0  0  0  0  0  0  0  0  0  0
   14.6251  -18.2238   23.0413 O   0  0  0  0  0  0  0  0  0  0  0  0
   11.4813  -16.7947   25.0209 C   0  0  0  0  0  0  0  0  0  0  0  0
   12.4231  -15.9983   25.1683 O   0  0  0  0  0  0  0  0  0  0  0  0
   13.2547  -19.2593   24.4907 O   0  0  0  0  0  0  0  0  0  0  0  0
   10.7005  -17.1636   26.1396 N   0  0  0  0  0  0  0  0  0  0  0  0
   10.9420  -16.7415   27.4804 C   0  0  1  0  0  0  0  0  0  0  0  0
   10.1818  -15.4779   27.8079 C   0  0  0  0  0  0  0  0  0  0  0  0
    8.8723  -15.3517   27.1640 C   0  0  0  0  0  0  0  0  0  0  0  0
    8.0612  -16.4202   26.7887 C   0  0  0  0  0  0  0  0  0  0  0  0
    6.9366  -15.9489   26.2064 N   0  0  0  0  0  0  0  0  0  0  0  0
    6.9770  -14.6080   26.1847 C   0  0  0  0  0  0  0  0  0  0  0  0
    6.0840  -13.6592   25.7133 C   0  0  0  0  0  0  0  0  0  0  0  0
    6.3481  -12.3114   25.8143 C   0  0  0  0  0  0  0  0  0  0  0  0
    7.5456  -11.9390   26.4076 C   0  0  0  0  0  0  0  0  0  0  0  0
    8.4391  -12.8738   26.8785 C   0  0  0  0  0  0  0  0  0  0  0  0
    8.1740  -14.2337   26.7769 C   0  0  0  0  0  0  0  0  0  0  0  0
   10.4878  -17.7983   28.4106 C   0  0  0  0  0  0  0  0  0  0  0  0
    9.8390  -18.9569   27.9431 O   0  0  0  0  0  0  0  0  0  0  0  0
   10.6788  -17.6725   29.6495 O   0  0  0  0  0  0  0  0  0  0  0  0
  2  1  1  1
  3  2  1  0
  4  3  1  0
  5  4  2  0
  6  5  1  0
  7  8  1  0
  7  6  2  0
  8  9  2  0
  9  4  1  0
 10 12  1  0
 10  2  1  0
 11 10  2  0
 13 12  1  0
 13 14  1  6
 14 15  1  0
 15 19  1  0
 16 15  2  0
 17 13  1  0
 18 17  2  0
 20 17  1  0
 21 32  1  0
 21 20  1  0
 21 22  1  1
 23 31  1  0
 23 22  1  0
 24 23  2  0
 25 24  1  0
 25 26  1  0
 26 27  1  0
 26 31  2  0
 27 28  2  0
 28 29  1  0
 30 29  2  0
 31 30  1  0
 32 33  1  0
 34 32  2  0
M  END
$$$$
