FDW.pdb
     RDKit          3D

 34 36  0  0  1  0  0  0  0  0999 V2000
    9.7278  -16.0639   21.3191 N   0  0  0  0  0  0  0  0  0  0  0  0
    9.6549  -15.5404   22.6800 C   0  0  1  0  0  0  0  0  0  0  0  0
    8.2145  -15.2885   22.9728 C   0  0  0  0  0  0  0  0  0  0  0  0
    7.5187  -14.3904   22.0635 C   0  0  0  0  0  0  0  0  0  0  0  0
    7.9312  -13.0895   21.9285 C   0  0  0  0  0  0  0  0  0  0  0  0
    7.3189  -12.1811   21.0799 C   0  0  0  0  0  0  0  0  0  0  0  0
    6.2426  -12.6515   20.3521 C   0  0  0  0  0  0  0  0  0  0  0  0
    5.8136  -13.9554   20.4746 C   0  0  0  0  0  0  0  0  0  0  0  0
    6.4474  -14.8237   21.3263 C   0  0  0  0  0  0  0  0  0  0  0  0
   10.3442  -16.4582   23.5785 C   0  0  0  0  0  0  0  0  0  0  0  0
    9.7686  -17.5137   24.0101 O   0  0  0  0  0  0  0  0  0  0  0  0
   11.6819  -16.2858   24.0539 N   0  0  0  0  0  0  0  0  0  0  0  0
   12.3733  -17.3084   24.8129 C   0  0  1  0  0  0  0  0  0  0  0  0
   13.8572  -17.1401   24.4870 C   0  0  0  0  0  0  0  0  0  0  0  0
   14.1814  -17.5590   23.1188 C   0  0  0  0  0  0  0  0  0  0  0  0
   15.1742  -16.9717   22.5791 O   0  0  0  0  0  0  0  0  0  0  0  0
   12.1437  -17.2301   26.2491 C   0  0  0  0  0  0  0  0  0  0  0  0
   12.7338  -17.9876   27.0372 O   0  0  0  0  0  0  0  0  0  0  0  0
   13.5421  -18.5015   22.3627 O   0  0  0  0  0  0  0  0  0  0  0  0
   11.2327  -16.2745   26.7532 N   0  0  0  0  0  0  0  0  0  0  0  0
   10.8698  -16.1349   28.1254 C   0  0  1  0  0  0  0  0  0  0  0  0
    9.9426  -14.9610   28.3356 C   0  0  0  0  0  0  0  0  0  0  0  0
    8.8474  -14.8487   27.3695 C   0  0  0  0  0  0  0  0  0  0  0  0
    8.0298  -15.9012   26.9641 C   0  0  0  0  0  0  0  0  0  0  0  0
    7.1385  -15.4535   26.0524 N   0  0  0  0  0  0  0  0  0  0  0  0
    7.3390  -14.1435   25.8425 C   0  0  0  0  0  0  0  0  0  0  0  0
    6.7004  -13.2254   25.0244 C   0  0  0  0  0  0  0  0  0  0  0  0
    7.0882  -11.9046   24.9875 C   0  0  0  0  0  0  0  0  0  0  0  0
    8.1455  -11.5275   25.8027 C   0  0  0  0  0  0  0  0  0  0  0  0
    8.7863  -12.4319   26.6183 C   0  0  0  0  0  0  0  0  0  0  0  0
    8.3963  -13.7647   26.6562 C   0  0  0  0  0  0  0  0  0  0  0  0
   10.1619  -17.3567   28.5664 C   0  0  0  0  0  0  0  0  0  0  0  0
    9.9225  -17.6133   29.9297 O   0  0  0  0  0  0  0  0  0  0  0  0
    9.7592  -18.1939   27.7155 O   0  0  0  0  0  0  0  0  0  0  0  0
  2  1  1  6
  3  2  1  0
  4  3  1  0
  5  4  2  0
  6  5  1  0
  7  8  1  0
  7  6  2  0
  8  9  2  0
  9  4  1  0
 10 12  1  0
 10  2  1  0
 11 10  2  0
 13 12  1  0
 13 14  1  1
 14 15  1  0
 15 19  1  0
 16 15  2  0
 17 13  1  0
 18 17  2  0
 20 17  1  0
 21 32  1  0
 21 20  1  0
 21 22  1  6
 23 31  1  0
 23 22  1  0
 24 23  2  0
 25 24  1  0
 25 26  1  0
 26 27  1  0
 26 31  2  0
 27 28  2  0
 28 29  1  0
 30 29  2  0
 31 30  1  0
 32 33  1  0
 34 32  2  0
M  END
$$$$
