SEE.pdb
     RDKit          3D

 25 24  0  0  1  0  0  0  0  0999 V2000
   20.2728  -11.5644  -19.0585 O   0  0  0  0  0  0  0  0  0  0  0  0
   21.6590  -11.3764  -19.0664 C   0  0  0  0  0  0  0  0  0  0  0  0
   22.2557  -11.7118  -17.7158 C   0  0  2  0  0  0  0  0  0  0  0  0
   21.9236  -13.0822  -17.4267 N   0  0  0  0  0  0  0  0  0  0  0  0
   21.6277  -10.8164  -16.7116 C   0  0  0  0  0  0  0  0  0  0  0  0
   20.7452  -11.3063  -15.9659 O   0  0  0  0  0  0  0  0  0  0  0  0
   21.9853   -9.4515  -16.5698 N   0  0  0  0  0  0  0  0  0  0  0  0
   21.3741   -8.6315  -15.5240 C   0  0  1  0  0  0  0  0  0  0  0  0
   22.1688   -7.3858  -15.3385 C   0  0  0  0  0  0  0  0  0  0  0  0
   21.7045   -6.4345  -14.3013 C   0  0  0  0  0  0  0  0  0  0  0  0
   22.5906   -5.2319  -14.1901 C   0  0  0  0  0  0  0  0  0  0  0  0
   22.2174   -4.1574  -13.7021 O   0  0  0  0  0  0  0  0  0  0  0  0
   19.9870   -8.2456  -15.9480 C   0  0  0  0  0  0  0  0  0  0  0  0
   19.7980   -7.9359  -17.1311 O   0  0  0  0  0  0  0  0  0  0  0  0
   23.9179   -5.2986  -14.6555 O   0  0  0  0  0  0  0  0  0  0  0  0
   18.8998   -8.2240  -15.0512 N   0  0  0  0  0  0  0  0  0  0  0  0
   17.5244   -7.8920  -15.4203 C   0  0  1  0  0  0  0  0  0  0  0  0
   16.6388   -9.0721  -15.2851 C   0  0  0  0  0  0  0  0  0  0  0  0
   15.1967   -8.9005  -15.5988 C   0  0  0  0  0  0  0  0  0  0  0  0
   14.3511  -10.0925  -15.4501 C   0  0  0  0  0  0  0  0  0  0  0  0
   13.8429  -10.7472  -16.4255 O   0  0  0  0  0  0  0  0  0  0  0  0
   17.1404   -6.6137  -14.8913 C   0  0  0  0  0  0  0  0  0  0  0  0
   17.6508   -6.0612  -13.8640 O   0  0  0  0  0  0  0  0  0  0  0  0
   14.0534  -10.5819  -14.1942 O   0  0  0  0  0  0  0  0  0  0  0  0
   16.1355   -5.8489  -15.5081 O   0  0  0  0  0  0  0  0  0  0  0  0
  1  2  1  0
  2  3  1  0
  3  4  1  1
  5  7  1  0
  5  3  1  0
  6  5  2  0
  8  7  1  0
  8  9  1  6
  9 10  1  0
 10 11  1  0
 11 15  1  0
 12 11  2  0
 13  8  1  0
 14 13  2  0
 16 13  1  0
 17 22  1  0
 17 16  1  0
 18 19  1  0
 17 18  1  1
 19 20  1  0
 20 21  2  0
 22 25  1  0
 23 22  2  0
 24 20  1  0
M  END
$$$$
