SEE.pdb
     RDKit          3D

 25 24  0  0  1  0  0  0  0  0999 V2000
   17.0083  -12.7878  -17.0136 O   0  0  0  0  0  0  0  0  0  0  0  0
   18.3543  -12.9815  -17.3414 C   0  0  0  0  0  0  0  0  0  0  0  0
   19.2571  -12.2855  -16.3448 C   0  0  2  0  0  0  0  0  0  0  0  0
   18.8018  -12.6448  -15.0274 N   0  0  0  0  0  0  0  0  0  0  0  0
   19.1095  -10.8224  -16.5495 C   0  0  0  0  0  0  0  0  0  0  0  0
   19.5179  -10.3421  -17.6345 O   0  0  0  0  0  0  0  0  0  0  0  0
   18.5330   -9.9654  -15.5777 N   0  0  0  0  0  0  0  0  0  0  0  0
   18.4032   -8.5321  -15.8391 C   0  0  1  0  0  0  0  0  0  0  0  0
   17.1945   -8.0060  -15.1464 C   0  0  0  0  0  0  0  0  0  0  0  0
   16.8993   -6.5621  -15.3021 C   0  0  0  0  0  0  0  0  0  0  0  0
   15.6839   -6.1406  -14.5348 C   0  0  0  0  0  0  0  0  0  0  0  0
   15.7387   -5.5663  -13.4397 O   0  0  0  0  0  0  0  0  0  0  0  0
   19.6059   -7.8204  -15.2916 C   0  0  0  0  0  0  0  0  0  0  0  0
   20.0929   -8.2212  -14.2269 O   0  0  0  0  0  0  0  0  0  0  0  0
   14.4033   -6.3975  -15.0611 O   0  0  0  0  0  0  0  0  0  0  0  0
   20.1959   -6.7191  -15.9440 N   0  0  0  0  0  0  0  0  0  0  0  0
   21.4221   -6.0533  -15.5068 C   0  0  1  0  0  0  0  0  0  0  0  0
   21.9544   -5.1694  -16.5702 C   0  0  0  0  0  0  0  0  0  0  0  0
   23.1973   -4.4069  -16.2851 C   0  0  0  0  0  0  0  0  0  0  0  0
   23.6808   -3.5245  -17.3554 C   0  0  0  0  0  0  0  0  0  0  0  0
   24.1292   -3.9311  -18.4832 O   0  0  0  0  0  0  0  0  0  0  0  0
   21.3072   -5.5943  -14.1513 C   0  0  0  0  0  0  0  0  0  0  0  0
   20.2427   -5.1454  -13.6161 O   0  0  0  0  0  0  0  0  0  0  0  0
   23.6723   -2.1548  -17.1846 O   0  0  0  0  0  0  0  0  0  0  0  0
   22.4122   -5.6210  -13.2833 O   0  0  0  0  0  0  0  0  0  0  0  0
  1  2  1  0
  2  3  1  0
  3  4  1  1
  5  7  1  0
  5  3  1  0
  6  5  2  0
  8  7  1  0
  8  9  1  1
  9 10  1  0
 10 11  1  0
 11 15  1  0
 12 11  2  0
 13  8  1  0
 14 13  2  0
 16 13  1  0
 17 22  1  0
 17 16  1  0
 18 19  1  0
 17 18  1  6
 19 20  1  0
 20 21  2  0
 22 25  1  0
 23 22  2  0
 24 20  1  0
M  END
$$$$
