SEE.pdb
     RDKit          3D

 25 24  0  0  1  0  0  0  0  0999 V2000
   17.8045  -11.2149  -18.0577 O   0  0  0  0  0  0  0  0  0  0  0  0
   19.1844  -11.4109  -17.9386 C   0  0  0  0  0  0  0  0  0  0  0  0
   19.5827  -11.5690  -16.4864 C   0  0  2  0  0  0  0  0  0  0  0  0
   18.7690  -12.6171  -15.9284 N   0  0  0  0  0  0  0  0  0  0  0  0
   19.2950  -10.2850  -15.7987 C   0  0  0  0  0  0  0  0  0  0  0  0
   18.2067  -10.1859  -15.1817 O   0  0  0  0  0  0  0  0  0  0  0  0
   20.1925   -9.1871  -15.8155 N   0  0  0  0  0  0  0  0  0  0  0  0
   19.8530   -7.9435  -15.1243 C   0  0  1  0  0  0  0  0  0  0  0  0
   21.1021   -7.2305  -14.7378 C   0  0  0  0  0  0  0  0  0  0  0  0
   20.9523   -5.9261  -14.0506 C   0  0  0  0  0  0  0  0  0  0  0  0
   22.2713   -5.3136  -13.6918 C   0  0  0  0  0  0  0  0  0  0  0  0
   22.3856   -4.1692  -13.2344 O   0  0  0  0  0  0  0  0  0  0  0  0
   19.0755   -7.0590  -16.0547 C   0  0  0  0  0  0  0  0  0  0  0  0
   19.3412   -7.0974  -17.2627 O   0  0  0  0  0  0  0  0  0  0  0  0
   23.4558   -6.0532  -13.8732 O   0  0  0  0  0  0  0  0  0  0  0  0
   18.0599   -6.1921  -15.6031 N   0  0  0  0  0  0  0  0  0  0  0  0
   17.2359   -5.3532  -16.4722 C   0  0  1  0  0  0  0  0  0  0  0  0
   16.1371   -6.1385  -17.0815 C   0  0  0  0  0  0  0  0  0  0  0  0
   15.1163   -5.4079  -17.8764 C   0  0  0  0  0  0  0  0  0  0  0  0
   14.0214   -6.2153  -18.4307 C   0  0  0  0  0  0  0  0  0  0  0  0
   13.9175   -7.4842  -18.2989 O   0  0  0  0  0  0  0  0  0  0  0  0
   16.9864   -4.0733  -15.8715 C   0  0  0  0  0  0  0  0  0  0  0  0
   16.4266   -3.0873  -16.4508 O   0  0  0  0  0  0  0  0  0  0  0  0
   13.0093   -5.6135  -19.1512 O   0  0  0  0  0  0  0  0  0  0  0  0
   17.3526   -3.8168  -14.5391 O   0  0  0  0  0  0  0  0  0  0  0  0
  1  2  1  0
  2  3  1  0
  3  4  1  1
  5  7  1  0
  5  3  1  0
  6  5  2  0
  8  7  1  0
  8  9  1  6
  9 10  1  0
 10 11  1  0
 11 15  1  0
 12 11  2  0
 13  8  1  0
 14 13  2  0
 16 13  1  0
 17 22  1  0
 17 16  1  0
 18 19  1  0
 17 18  1  1
 19 20  1  0
 20 21  2  0
 22 25  1  0
 23 22  2  0
 24 20  1  0
M  END
$$$$
