SEE.pdb
     RDKit          3D

 25 24  0  0  1  0  0  0  0  0999 V2000
   23.4772  -13.7247  -15.6876 O   0  0  0  0  0  0  0  0  0  0  0  0
   22.0972  -13.9228  -15.8025 C   0  0  0  0  0  0  0  0  0  0  0  0
   21.6209  -13.5971  -17.2023 C   0  0  2  0  0  0  0  0  0  0  0  0
   22.7525  -13.7251  -18.0827 N   0  0  0  0  0  0  0  0  0  0  0  0
   21.1395  -12.1926  -17.1984 C   0  0  0  0  0  0  0  0  0  0  0  0
   21.4272  -11.4757  -18.1874 O   0  0  0  0  0  0  0  0  0  0  0  0
   20.3795  -11.6444  -16.1340 N   0  0  0  0  0  0  0  0  0  0  0  0
   19.7332  -10.3405  -16.2813 C   0  0  1  0  0  0  0  0  0  0  0  0
   18.4039  -10.3638  -15.6104 C   0  0  0  0  0  0  0  0  0  0  0  0
   17.3475  -11.1988  -16.2292 C   0  0  0  0  0  0  0  0  0  0  0  0
   16.1848  -11.4232  -15.3119 C   0  0  0  0  0  0  0  0  0  0  0  0
   16.0866  -12.4093  -14.5703 O   0  0  0  0  0  0  0  0  0  0  0  0
   20.5778   -9.2938  -15.6152 C   0  0  0  0  0  0  0  0  0  0  0  0
   21.2723   -9.6266  -14.6465 O   0  0  0  0  0  0  0  0  0  0  0  0
   15.1378  -10.4826  -15.2706 O   0  0  0  0  0  0  0  0  0  0  0  0
   20.6071   -7.9540  -16.0520 N   0  0  0  0  0  0  0  0  0  0  0  0
   21.4307   -6.9032  -15.4556 C   0  0  1  0  0  0  0  0  0  0  0  0
   21.9607   -5.9899  -16.4950 C   0  0  0  0  0  0  0  0  0  0  0  0
   22.8285   -4.8659  -16.0580 C   0  0  0  0  0  0  0  0  0  0  0  0
   23.2408   -3.9171  -17.1010 C   0  0  0  0  0  0  0  0  0  0  0  0
   24.0348   -4.1987  -18.0645 O   0  0  0  0  0  0  0  0  0  0  0  0
   20.8286   -6.3908  -14.2571 C   0  0  0  0  0  0  0  0  0  0  0  0
   19.5766   -6.3235  -14.0355 O   0  0  0  0  0  0  0  0  0  0  0  0
   22.7683   -2.6201  -17.0876 O   0  0  0  0  0  0  0  0  0  0  0  0
   21.6199   -5.9170  -13.1967 O   0  0  0  0  0  0  0  0  0  0  0  0
  1  2  1  0
  2  3  1  0
  3  4  1  6
  5  7  1  0
  5  3  1  0
  6  5  2  0
  8  7  1  0
  8  9  1  1
  9 10  1  0
 10 11  1  0
 11 15  1  0
 12 11  2  0
 13  8  1  0
 14 13  2  0
 16 13  1  0
 17 22  1  0
 17 16  1  0
 18 19  1  0
 17 18  1  6
 19 20  1  0
 20 21  2  0
 22 25  1  0
 23 22  2  0
 24 20  1  0
M  END
$$$$
