SEE.pdb
     RDKit          3D

 25 24  0  0  1  0  0  0  0  0999 V2000
   19.1852  -14.7281    3.3887 O   0  0  0  0  0  0  0  0  0  0  0  0
   18.2159  -15.0010    2.4177 C   0  0  0  0  0  0  0  0  0  0  0  0
   16.8642  -15.2377    3.0576 C   0  0  2  0  0  0  0  0  0  0  0  0
   16.6822  -14.2267    4.0658 N   0  0  0  0  0  0  0  0  0  0  0  0
   16.8943  -16.5815    3.6884 C   0  0  0  0  0  0  0  0  0  0  0  0
   17.0973  -16.6395    4.9255 O   0  0  0  0  0  0  0  0  0  0  0  0
   16.7049  -17.7793    2.9532 N   0  0  0  0  0  0  0  0  0  0  0  0
   16.6396  -19.0678    3.6424 C   0  0  1  0  0  0  0  0  0  0  0  0
   15.9942  -20.0755    2.7560 C   0  0  0  0  0  0  0  0  0  0  0  0
   14.5236  -19.9914    2.5933 C   0  0  0  0  0  0  0  0  0  0  0  0
   13.9963  -21.0039    1.6235 C   0  0  0  0  0  0  0  0  0  0  0  0
   13.5188  -20.7033    0.5219 O   0  0  0  0  0  0  0  0  0  0  0  0
   18.0329  -19.5343    3.9482 C   0  0  0  0  0  0  0  0  0  0  0  0
   18.9175  -19.3384    3.1053 O   0  0  0  0  0  0  0  0  0  0  0  0
   14.0332  -22.3720    1.9551 O   0  0  0  0  0  0  0  0  0  0  0  0
   18.3664  -20.1834    5.1541 N   0  0  0  0  0  0  0  0  0  0  0  0
   19.7115  -20.6303    5.5132 C   0  0  1  0  0  0  0  0  0  0  0  0
   20.3521  -19.6826    6.4548 C   0  0  0  0  0  0  0  0  0  0  0  0
   19.5571  -19.2122    7.6185 C   0  0  0  0  0  0  0  0  0  0  0  0
   20.2224  -18.2639    8.5219 C   0  0  0  0  0  0  0  0  0  0  0  0
   21.1030  -18.5877    9.3924 O   0  0  0  0  0  0  0  0  0  0  0  0
   19.7403  -22.0455    5.7530 C   0  0  0  0  0  0  0  0  0  0  0  0
   18.7149  -22.7880    5.8887 O   0  0  0  0  0  0  0  0  0  0  0  0
   19.9131  -16.9196    8.4695 O   0  0  0  0  0  0  0  0  0  0  0  0
   20.9599  -22.7374    5.8485 O   0  0  0  0  0  0  0  0  0  0  0  0
  1  2  1  0
  2  3  1  0
  3  4  1  1
  5  7  1  0
  5  3  1  0
  6  5  2  0
  8  7  1  0
  8  9  1  6
  9 10  1  0
 10 11  1  0
 11 15  1  0
 12 11  2  0
 13  8  1  0
 14 13  2  0
 16 13  1  0
 17 22  1  0
 17 16  1  0
 18 19  1  0
 17 18  1  1
 19 20  1  0
 20 21  2  0
 22 25  1  0
 23 22  2  0
 24 20  1  0
M  END
$$$$
