SEE.pdb
     RDKit          3D

 25 24  0  0  1  0  0  0  0  0999 V2000
   14.0269  -12.5273  -15.5854 O   0  0  0  0  0  0  0  0  0  0  0  0
   15.1245  -11.7490  -15.9677 C   0  0  0  0  0  0  0  0  0  0  0  0
   15.8623  -11.2250  -14.7537 C   0  0  2  0  0  0  0  0  0  0  0  0
   14.8805  -10.9574  -13.7356 N   0  0  0  0  0  0  0  0  0  0  0  0
   16.5386   -9.9634  -15.1483 C   0  0  0  0  0  0  0  0  0  0  0  0
   17.3079  -10.0004  -16.1391 O   0  0  0  0  0  0  0  0  0  0  0  0
   16.3478   -8.7408  -14.4556 N   0  0  0  0  0  0  0  0  0  0  0  0
   17.0226   -7.5231  -14.9044 C   0  0  1  0  0  0  0  0  0  0  0  0
   16.3362   -6.3322  -14.3316 C   0  0  0  0  0  0  0  0  0  0  0  0
   15.1491   -5.8208  -15.0566 C   0  0  0  0  0  0  0  0  0  0  0  0
   14.2905   -4.9416  -14.2002 C   0  0  0  0  0  0  0  0  0  0  0  0
   13.2787   -5.3463  -13.6132 O   0  0  0  0  0  0  0  0  0  0  0  0
   18.4391   -7.5333  -14.4082 C   0  0  0  0  0  0  0  0  0  0  0  0
   18.6550   -7.9187  -13.2522 O   0  0  0  0  0  0  0  0  0  0  0  0
   14.6270   -3.5840  -14.0371 O   0  0  0  0  0  0  0  0  0  0  0  0
   19.5244   -7.1220  -15.2080 N   0  0  0  0  0  0  0  0  0  0  0  0
   20.9254   -7.1600  -14.7912 C   0  0  1  0  0  0  0  0  0  0  0  0
   21.6805   -8.1772  -15.5597 C   0  0  0  0  0  0  0  0  0  0  0  0
   23.1055   -8.4025  -15.2046 C   0  0  0  0  0  0  0  0  0  0  0  0
   23.8034   -9.4597  -15.9484 C   0  0  0  0  0  0  0  0  0  0  0  0
   23.2246  -10.3263  -16.6915 O   0  0  0  0  0  0  0  0  0  0  0  0
   21.4466   -5.8352  -14.6052 C   0  0  0  0  0  0  0  0  0  0  0  0
   21.1133   -4.8130  -15.2872 O   0  0  0  0  0  0  0  0  0  0  0  0
   25.1774   -9.5703  -15.8757 O   0  0  0  0  0  0  0  0  0  0  0  0
   22.3960   -5.5663  -13.6045 O   0  0  0  0  0  0  0  0  0  0  0  0
  1  2  1  0
  2  3  1  0
  3  4  1  1
  5  7  1  0
  5  3  1  0
  6  5  2  0
  8  7  1  0
  8  9  1  1
  9 10  1  0
 10 11  1  0
 11 15  1  0
 12 11  2  0
 13  8  1  0
 14 13  2  0
 16 13  1  0
 17 22  1  0
 17 16  1  0
 18 19  1  0
 17 18  1  6
 19 20  1  0
 20 21  2  0
 22 25  1  0
 23 22  2  0
 24 20  1  0
M  END
$$$$
