SEE.pdb
     RDKit          3D

 25 24  0  0  1  0  0  0  0  0999 V2000
   27.5916  -22.0913  -16.4012 O   0  0  0  0  0  0  0  0  0  0  0  0
   26.5098  -21.8566  -15.5460 C   0  0  0  0  0  0  0  0  0  0  0  0
   26.7408  -20.6129  -14.7138 C   0  0  2  0  0  0  0  0  0  0  0  0
   26.9816  -21.0392  -13.3603 N   0  0  0  0  0  0  0  0  0  0  0  0
   25.5032  -19.7950  -14.7741 C   0  0  0  0  0  0  0  0  0  0  0  0
   24.6632  -19.9413  -13.8533 O   0  0  0  0  0  0  0  0  0  0  0  0
   25.2434  -18.8711  -15.8181 N   0  0  0  0  0  0  0  0  0  0  0  0
   24.0558  -18.0184  -15.7729 C   0  0  1  0  0  0  0  0  0  0  0  0
   24.2437  -16.8527  -16.6804 C   0  0  0  0  0  0  0  0  0  0  0  0
   23.1121  -15.9042  -16.8077 C   0  0  0  0  0  0  0  0  0  0  0  0
   23.4504  -14.7213  -17.6621 C   0  0  0  0  0  0  0  0  0  0  0  0
   22.6267  -13.8509  -17.9719 O   0  0  0  0  0  0  0  0  0  0  0  0
   22.8685  -18.8012  -16.2528 C   0  0  0  0  0  0  0  0  0  0  0  0
   23.0305  -19.6095  -17.1757 O   0  0  0  0  0  0  0  0  0  0  0  0
   24.7619  -14.5665  -18.1508 O   0  0  0  0  0  0  0  0  0  0  0  0
   21.5843  -18.6485  -15.6923 N   0  0  0  0  0  0  0  0  0  0  0  0
   20.4210  -19.4607  -16.0462 C   0  0  1  0  0  0  0  0  0  0  0  0
   19.5212  -19.6351  -14.8820 C   0  0  0  0  0  0  0  0  0  0  0  0
   19.7944  -20.7619  -13.9530 C   0  0  0  0  0  0  0  0  0  0  0  0
   18.8418  -20.9424  -12.8493 C   0  0  0  0  0  0  0  0  0  0  0  0
   17.8654  -20.1539  -12.5981 O   0  0  0  0  0  0  0  0  0  0  0  0
   19.9032  -19.0907  -17.3332 C   0  0  0  0  0  0  0  0  0  0  0  0
   20.1401  -17.9920  -17.9314 O   0  0  0  0  0  0  0  0  0  0  0  0
   18.9630  -22.0200  -11.9952 O   0  0  0  0  0  0  0  0  0  0  0  0
   19.0697  -19.9626  -18.0544 O   0  0  0  0  0  0  0  0  0  0  0  0
  1  2  1  0
  2  3  1  0
  3  4  1  1
  5  7  1  0
  5  3  1  0
  6  5  2  0
  8  7  1  0
  8  9  1  6
  9 10  1  0
 10 11  1  0
 11 15  1  0
 12 11  2  0
 13  8  1  0
 14 13  2  0
 16 13  1  0
 17 22  1  0
 17 16  1  0
 18 19  1  0
 17 18  1  1
 19 20  1  0
 20 21  2  0
 22 25  1  0
 23 22  2  0
 24 20  1  0
M  END
$$$$
