SEE.pdb
     RDKit          3D

 25 24  0  0  1  0  0  0  0  0999 V2000
   23.2790  -21.2886  -10.8041 O   0  0  0  0  0  0  0  0  0  0  0  0
   24.5888  -20.8933  -10.5126 C   0  0  0  0  0  0  0  0  0  0  0  0
   25.5595  -21.4527  -11.5311 C   0  0  2  0  0  0  0  0  0  0  0  0
   26.8853  -21.0804  -11.1119 N   0  0  0  0  0  0  0  0  0  0  0  0
   25.2484  -20.8260  -12.8406 C   0  0  0  0  0  0  0  0  0  0  0  0
   25.3067  -19.5746  -12.9158 O   0  0  0  0  0  0  0  0  0  0  0  0
   24.8940  -21.5803  -13.9880 N   0  0  0  0  0  0  0  0  0  0  0  0
   24.5532  -20.9059  -15.2405 C   0  0  1  0  0  0  0  0  0  0  0  0
   25.4846  -21.3486  -16.3149 C   0  0  0  0  0  0  0  0  0  0  0  0
   25.3331  -20.7148  -17.6459 C   0  0  0  0  0  0  0  0  0  0  0  0
   26.3192  -21.2385  -18.6445 C   0  0  0  0  0  0  0  0  0  0  0  0
   27.3346  -20.6177  -18.9846 O   0  0  0  0  0  0  0  0  0  0  0  0
   23.1579  -21.2868  -15.6414 C   0  0  0  0  0  0  0  0  0  0  0  0
   22.7290  -22.3957  -15.2984 O   0  0  0  0  0  0  0  0  0  0  0  0
   26.1059  -22.4958  -19.2416 O   0  0  0  0  0  0  0  0  0  0  0  0
   22.3251  -20.4307  -16.3899 N   0  0  0  0  0  0  0  0  0  0  0  0
   20.8635  -20.4476  -16.3481 C   0  0  1  0  0  0  0  0  0  0  0  0
   20.3732  -20.5249  -14.9521 C   0  0  0  0  0  0  0  0  0  0  0  0
   18.9045  -20.5620  -14.7305 C   0  0  0  0  0  0  0  0  0  0  0  0
   18.4586  -20.6843  -13.3362 C   0  0  0  0  0  0  0  0  0  0  0  0
   19.2320  -20.6147  -12.3188 O   0  0  0  0  0  0  0  0  0  0  0  0
   20.3079  -19.5040  -17.2767 C   0  0  0  0  0  0  0  0  0  0  0  0
   20.6760  -18.2914  -17.3995 O   0  0  0  0  0  0  0  0  0  0  0  0
   17.1241  -20.8890  -13.0482 O   0  0  0  0  0  0  0  0  0  0  0  0
   19.2797  -19.8783  -18.1587 O   0  0  0  0  0  0  0  0  0  0  0  0
  1  2  1  0
  2  3  1  0
  3  4  1  1
  5  7  1  0
  5  3  1  0
  6  5  2  0
  8  7  1  0
  8  9  1  6
  9 10  1  0
 10 11  1  0
 11 15  1  0
 12 11  2  0
 13  8  1  0
 14 13  2  0
 16 13  1  0
 17 22  1  0
 17 16  1  0
 18 19  1  0
 17 18  1  1
 19 20  1  0
 20 21  2  0
 22 25  1  0
 23 22  2  0
 24 20  1  0
M  END
$$$$
