SEE.pdb
     RDKit          3D

 25 24  0  0  1  0  0  0  0  0999 V2000
   15.2946  -11.0568  -16.4986 O   0  0  0  0  0  0  0  0  0  0  0  0
   16.3920  -10.4184  -15.9112 C   0  0  0  0  0  0  0  0  0  0  0  0
   17.6203  -11.3023  -15.9623 C   0  0  2  0  0  0  0  0  0  0  0  0
   17.3660  -12.4418  -15.1206 N   0  0  0  0  0  0  0  0  0  0  0  0
   18.7607  -10.5193  -15.4228 C   0  0  0  0  0  0  0  0  0  0  0  0
   18.9894  -10.5969  -14.1914 O   0  0  0  0  0  0  0  0  0  0  0  0
   19.5847   -9.7019  -16.2376 N   0  0  0  0  0  0  0  0  0  0  0  0
   20.7141   -8.9771  -15.6558 C   0  0  1  0  0  0  0  0  0  0  0  0
   21.6822   -8.6175  -16.7288 C   0  0  0  0  0  0  0  0  0  0  0  0
   22.8536   -7.7984  -16.3373 C   0  0  0  0  0  0  0  0  0  0  0  0
   23.7585   -7.5044  -17.4942 C   0  0  0  0  0  0  0  0  0  0  0  0
   24.7497   -6.7679  -17.4097 O   0  0  0  0  0  0  0  0  0  0  0  0
   20.2150   -7.7083  -15.0284 C   0  0  0  0  0  0  0  0  0  0  0  0
   19.3932   -7.0262  -15.6537 O   0  0  0  0  0  0  0  0  0  0  0  0
   23.4925   -8.0804  -18.7513 O   0  0  0  0  0  0  0  0  0  0  0  0
   20.6467   -7.2700  -13.7603 N   0  0  0  0  0  0  0  0  0  0  0  0
   20.1276   -6.0919  -13.0670 C   0  0  1  0  0  0  0  0  0  0  0  0
   19.3554   -6.4813  -11.8639 C   0  0  0  0  0  0  0  0  0  0  0  0
   18.7599   -5.3994  -11.0379 C   0  0  0  0  0  0  0  0  0  0  0  0
   18.0690   -5.8206   -9.8118 C   0  0  0  0  0  0  0  0  0  0  0  0
   18.1740   -5.2301   -8.6811 O   0  0  0  0  0  0  0  0  0  0  0  0
   21.1129   -5.0492  -13.0088 C   0  0  0  0  0  0  0  0  0  0  0  0
   22.3731   -5.2276  -13.0399 O   0  0  0  0  0  0  0  0  0  0  0  0
   17.2377   -6.9225   -9.8255 O   0  0  0  0  0  0  0  0  0  0  0  0
   20.7318   -3.6994  -12.9193 O   0  0  0  0  0  0  0  0  0  0  0  0
  1  2  1  0
  2  3  1  0
  3  4  1  1
  5  7  1  0
  5  3  1  0
  6  5  2  0
  8  7  1  0
  8  9  1  6
  9 10  1  0
 10 11  1  0
 11 15  1  0
 12 11  2  0
 13  8  1  0
 14 13  2  0
 16 13  1  0
 17 22  1  0
 17 16  1  0
 18 19  1  0
 17 18  1  1
 19 20  1  0
 20 21  2  0
 22 25  1  0
 23 22  2  0
 24 20  1  0
M  END
$$$$
