PER.pdb
     RDKit          3D

 28 28  0  0  1  0  0  0  0  0999 V2000
    9.0343  -13.9401   19.2077 N   0  0  0  0  0  0  0  0  0  0  0  0
    8.2635  -12.8629   18.6162 C   0  0  0  0  0  0  0  0  0  0  0  0
    6.9249  -12.8996   19.3207 C   0  0  0  0  0  0  0  0  0  0  0  0
    7.1279  -13.7996   20.5264 C   0  0  0  0  0  0  0  0  0  0  0  0
    8.6375  -13.9511   20.5606 C   0  0  1  0  0  0  0  0  0  0  0  0
    9.0391  -15.1469   21.3554 C   0  0  0  0  0  0  0  0  0  0  0  0
    8.5629  -15.2984   22.4947 O   0  0  0  0  0  0  0  0  0  0  0  0
    9.9502  -16.1331   20.8723 N   0  0  0  0  0  0  0  0  0  0  0  0
   10.3115  -17.3541   21.5084 C   0  0  1  0  0  0  0  0  0  0  0  0
   10.7838  -18.4252   20.4963 C   0  0  0  0  0  0  0  0  0  0  0  0
   11.0922  -19.7408   21.1776 C   0  0  0  0  0  0  0  0  0  0  0  0
   11.5442  -20.7103   20.1484 C   0  0  0  0  0  0  0  0  0  0  0  0
   12.4876  -21.4980   20.4093 O   0  0  0  0  0  0  0  0  0  0  0  0
   11.3960  -17.1691   22.5609 C   0  0  0  0  0  0  0  0  0  0  0  0
   12.2755  -16.3678   22.2460 O   0  0  0  0  0  0  0  0  0  0  0  0
   10.9656  -20.7823   18.8964 O   0  0  0  0  0  0  0  0  0  0  0  0
   11.5868  -21.2799   30.6055 N   0  0  0  0  0  0  0  0  0  0  0  0
   12.6490  -20.3154   30.6230 C   0  0  0  0  0  0  0  0  0  0  0  0
   13.3036  -20.1693   31.7224 N   0  0  0  0  0  0  0  0  0  0  0  0
   12.9337  -19.5821   29.4753 N   0  0  0  0  0  0  0  0  0  0  0  0
   12.0312  -19.5743   28.3311 C   0  0  0  0  0  0  0  0  0  0  0  0
   12.6478  -18.7237   27.2416 C   0  0  0  0  0  0  0  0  0  0  0  0
   11.7907  -18.6419   26.0424 C   0  0  0  0  0  0  0  0  0  0  0  0
   12.2864  -17.8245   24.8949 C   0  0  2  0  0  0  0  0  0  0  0  0
   11.3866  -17.8474   23.7789 N   0  0  0  0  0  0  0  0  0  0  0  0
   13.7258  -17.9604   24.6119 C   0  0  0  0  0  0  0  0  0  0  0  0
   14.8078  -17.1871   24.9865 O   0  0  0  0  0  0  0  0  0  0  0  0
   14.1192  -18.9692   23.8880 O   0  0  0  0  0  0  0  0  0  0  0  0
  1  2  1  0
  3  2  1  0
  4  3  1  0
  4  5  1  0
  5  6  1  6
  5  1  1  0
  6  7  2  0
  8  9  1  0
  8  6  1  0
  9 10  1  6
 11 10  1  0
 12 11  1  0
 13 12  2  0
 14 15  2  0
 14  9  1  0
 16 12  1  0
 18 17  1  0
 19 18  2  0
 20 18  1  0
 21 22  1  0
 21 20  1  0
 22 23  1  0
 24 23  1  1
 24 25  1  0
 24 26  1  0
 25 14  1  0
 26 27  1  0
 28 26  2  0
M  END
$$$$
