PER.pdb
     RDKit          3D

 28 28  0  0  1  0  0  0  0  0999 V2000
    9.2003  -14.3474   18.7284 N   0  0  0  0  0  0  0  0  0  0  0  0
    8.5787  -13.3560   17.8709 C   0  0  0  0  0  0  0  0  0  0  0  0
    7.2019  -13.1317   18.4570 C   0  0  0  0  0  0  0  0  0  0  0  0
    7.2389  -13.7743   19.8321 C   0  0  0  0  0  0  0  0  0  0  0  0
    8.7210  -14.0423   20.0188 C   0  0  1  0  0  0  0  0  0  0  0  0
    8.9514  -15.0756   21.0686 C   0  0  0  0  0  0  0  0  0  0  0  0
    8.4751  -14.8953   22.2037 O   0  0  0  0  0  0  0  0  0  0  0  0
    9.6977  -16.2694   20.8360 N   0  0  0  0  0  0  0  0  0  0  0  0
    9.9534  -17.3176   21.7645 C   0  0  1  0  0  0  0  0  0  0  0  0
   10.6483  -18.5311   21.1020 C   0  0  0  0  0  0  0  0  0  0  0  0
   10.7893  -19.6894   22.0657 C   0  0  0  0  0  0  0  0  0  0  0  0
   11.4951  -20.7962   21.3727 C   0  0  0  0  0  0  0  0  0  0  0  0
   12.6199  -20.5867   20.8537 O   0  0  0  0  0  0  0  0  0  0  0  0
   10.7967  -16.8612   22.9471 C   0  0  0  0  0  0  0  0  0  0  0  0
   11.7208  -16.1053   22.6481 O   0  0  0  0  0  0  0  0  0  0  0  0
   10.9586  -22.0647   21.2697 O   0  0  0  0  0  0  0  0  0  0  0  0
   14.4178  -21.1671   29.5470 N   0  0  0  0  0  0  0  0  0  0  0  0
   13.0092  -21.0936   29.8103 C   0  0  0  0  0  0  0  0  0  0  0  0
   12.5522  -21.7734   30.8039 N   0  0  0  0  0  0  0  0  0  0  0  0
   12.1964  -20.3063   29.0005 N   0  0  0  0  0  0  0  0  0  0  0  0
   12.7105  -19.6637   27.7978 C   0  0  0  0  0  0  0  0  0  0  0  0
   11.6034  -18.8283   27.1918 C   0  0  0  0  0  0  0  0  0  0  0  0
   12.0364  -18.1298   25.9653 C   0  0  0  0  0  0  0  0  0  0  0  0
   11.2037  -16.9827   25.4947 C   0  0  2  0  0  0  0  0  0  0  0  0
   10.5372  -17.2633   24.2566 N   0  0  0  0  0  0  0  0  0  0  0  0
   11.8298  -15.6578   25.6458 C   0  0  0  0  0  0  0  0  0  0  0  0
   13.1390  -15.2431   25.4943 O   0  0  0  0  0  0  0  0  0  0  0  0
   11.0715  -14.6517   25.9762 O   0  0  0  0  0  0  0  0  0  0  0  0
  1  2  1  0
  3  2  1  0
  4  3  1  0
  4  5  1  0
  5  6  1  1
  5  1  1  0
  6  7  2  0
  8  9  1  0
  8  6  1  0
  9 10  1  6
 11 10  1  0
 12 11  1  0
 13 12  2  0
 14 15  2  0
 14  9  1  0
 16 12  1  0
 18 17  1  0
 19 18  2  0
 20 18  1  0
 21 22  1  0
 21 20  1  0
 22 23  1  0
 24 23  1  6
 24 25  1  0
 24 26  1  0
 25 14  1  0
 26 27  1  0
 28 26  2  0
M  END
$$$$
