PER.pdb
     RDKit          3D

 28 28  0  0  1  0  0  0  0  0999 V2000
    9.3671  -14.1111   19.1580 N   0  0  0  0  0  0  0  0  0  0  0  0
    8.8308  -13.1024   18.2640 C   0  0  0  0  0  0  0  0  0  0  0  0
    7.3391  -13.1003   18.5176 C   0  0  0  0  0  0  0  0  0  0  0  0
    7.1466  -13.8887   19.8007 C   0  0  0  0  0  0  0  0  0  0  0  0
    8.5688  -14.0112   20.3159 C   0  0  1  0  0  0  0  0  0  0  0  0
    8.6897  -15.1266   21.2979 C   0  0  0  0  0  0  0  0  0  0  0  0
    7.9309  -15.1439   22.2836 O   0  0  0  0  0  0  0  0  0  0  0  0
    9.6401  -16.1825   21.1640 N   0  0  0  0  0  0  0  0  0  0  0  0
    9.8753  -17.2479   22.0783 C   0  0  1  0  0  0  0  0  0  0  0  0
   10.9082  -18.2661   21.5390 C   0  0  0  0  0  0  0  0  0  0  0  0
   10.4721  -18.8577   20.2162 C   0  0  0  0  0  0  0  0  0  0  0  0
   11.5465  -19.7560   19.7242 C   0  0  0  0  0  0  0  0  0  0  0  0
   12.5874  -19.9127   20.4101 O   0  0  0  0  0  0  0  0  0  0  0  0
   10.3425  -16.7585   23.4422 C   0  0  0  0  0  0  0  0  0  0  0  0
   11.3321  -16.0276   23.4060 O   0  0  0  0  0  0  0  0  0  0  0  0
   11.4508  -20.4346   18.5251 O   0  0  0  0  0  0  0  0  0  0  0  0
    5.8378  -11.9369   28.0611 N   0  0  0  0  0  0  0  0  0  0  0  0
    6.2133  -11.8882   26.6771 C   0  0  0  0  0  0  0  0  0  0  0  0
    5.6153  -11.0291   25.9269 N   0  0  0  0  0  0  0  0  0  0  0  0
    7.1919  -12.7532   26.1972 N   0  0  0  0  0  0  0  0  0  0  0  0
    7.4521  -14.0388   26.8321 C   0  0  0  0  0  0  0  0  0  0  0  0
    8.5697  -14.7268   26.0782 C   0  0  0  0  0  0  0  0  0  0  0  0
    8.9227  -16.0329   26.6691 C   0  0  0  0  0  0  0  0  0  0  0  0
    9.9994  -16.8235   26.0012 C   0  0  2  0  0  0  0  0  0  0  0  0
    9.6978  -17.1065   24.6283 N   0  0  0  0  0  0  0  0  0  0  0  0
   10.5626  -17.9158   26.8137 C   0  0  0  0  0  0  0  0  0  0  0  0
   11.3294  -17.8981   27.9629 O   0  0  0  0  0  0  0  0  0  0  0  0
   10.3324  -19.1426   26.4418 O   0  0  0  0  0  0  0  0  0  0  0  0
  1  2  1  0
  3  2  1  0
  4  3  1  0
  4  5  1  0
  5  6  1  1
  5  1  1  0
  6  7  2  0
  8  9  1  0
  8  6  1  0
  9 10  1  6
 11 10  1  0
 12 11  1  0
 13 12  2  0
 14 15  2  0
 14  9  1  0
 16 12  1  0
 18 17  1  0
 19 18  2  0
 20 18  1  0
 21 22  1  0
 21 20  1  0
 22 23  1  0
 24 23  1  1
 24 25  1  0
 24 26  1  0
 25 14  1  0
 26 27  1  0
 28 26  2  0
M  END
$$$$
