PER.pdb
     RDKit          3D

 28 28  0  0  1  0  0  0  0  0999 V2000
    8.9224  -13.8893   17.7975 N   0  0  0  0  0  0  0  0  0  0  0  0
    8.1924  -12.8333   17.1218 C   0  0  0  0  0  0  0  0  0  0  0  0
    6.8967  -12.6922   17.8904 C   0  0  0  0  0  0  0  0  0  0  0  0
    7.1078  -13.4615   19.1822 C   0  0  0  0  0  0  0  0  0  0  0  0
    8.6036  -13.7172   19.1601 C   0  0  1  0  0  0  0  0  0  0  0  0
    8.9695  -14.8407   20.0694 C   0  0  0  0  0  0  0  0  0  0  0  0
    8.5938  -14.8008   21.2547 O   0  0  0  0  0  0  0  0  0  0  0  0
    9.7360  -15.9673   19.6460 N   0  0  0  0  0  0  0  0  0  0  0  0
   10.1058  -17.0978   20.4278 C   0  0  1  0  0  0  0  0  0  0  0  0
   10.7351  -18.2226   19.5715 C   0  0  0  0  0  0  0  0  0  0  0  0
   11.1947  -19.3846   20.4250 C   0  0  0  0  0  0  0  0  0  0  0  0
   11.9633  -20.3232   19.5696 C   0  0  0  0  0  0  0  0  0  0  0  0
   13.0298  -20.8267   20.0029 O   0  0  0  0  0  0  0  0  0  0  0  0
   11.0717  -16.7444   21.5505 C   0  0  0  0  0  0  0  0  0  0  0  0
   12.0202  -16.0428   21.2000 O   0  0  0  0  0  0  0  0  0  0  0  0
   11.5519  -20.6692   18.2974 O   0  0  0  0  0  0  0  0  0  0  0  0
    9.0578  -14.4959   29.4091 N   0  0  0  0  0  0  0  0  0  0  0  0
   10.4175  -14.9453   29.4973 C   0  0  0  0  0  0  0  0  0  0  0  0
   11.2580  -14.1855   30.1095 N   0  0  0  0  0  0  0  0  0  0  0  0
   10.7796  -16.1633   28.9302 N   0  0  0  0  0  0  0  0  0  0  0  0
   10.1742  -16.6390   27.6929 C   0  0  0  0  0  0  0  0  0  0  0  0
   11.1718  -16.4527   26.5701 C   0  0  0  0  0  0  0  0  0  0  0  0
   10.6338  -16.8858   25.2653 C   0  0  0  0  0  0  0  0  0  0  0  0
   11.5498  -16.8249   24.0873 C   0  0  2  0  0  0  0  0  0  0  0  0
   10.8901  -17.1761   22.8637 N   0  0  0  0  0  0  0  0  0  0  0  0
   12.8957  -17.3778   24.3180 C   0  0  0  0  0  0  0  0  0  0  0  0
   14.0362  -16.8122   24.8552 O   0  0  0  0  0  0  0  0  0  0  0  0
   13.1193  -18.6162   23.9825 O   0  0  0  0  0  0  0  0  0  0  0  0
  1  2  1  0
  3  2  1  0
  4  3  1  0
  4  5  1  0
  5  6  1  1
  5  1  1  0
  6  7  2  0
  8  9  1  0
  8  6  1  0
  9 10  1  6
 11 10  1  0
 12 11  1  0
 13 12  2  0
 14 15  2  0
 14  9  1  0
 16 12  1  0
 18 17  1  0
 19 18  2  0
 20 18  1  0
 21 22  1  0
 21 20  1  0
 22 23  1  0
 24 23  1  1
 24 25  1  0
 24 26  1  0
 25 14  1  0
 26 27  1  0
 28 26  2  0
M  END
$$$$
