PER.pdb
     RDKit          3D

 28 28  0  0  1  0  0  0  0  0999 V2000
    9.3835  -14.4010   17.6790 N   0  0  0  0  0  0  0  0  0  0  0  0
    8.9230  -13.3740   16.7639 C   0  0  0  0  0  0  0  0  0  0  0  0
    7.5811  -12.9324   17.3059 C   0  0  0  0  0  0  0  0  0  0  0  0
    7.5028  -13.5086   18.7084 C   0  0  0  0  0  0  0  0  0  0  0  0
    8.9289  -13.9718   18.9427 C   0  0  1  0  0  0  0  0  0  0  0  0
    8.9930  -14.9767   20.0423 C   0  0  0  0  0  0  0  0  0  0  0  0
    8.4726  -14.7017   21.1383 O   0  0  0  0  0  0  0  0  0  0  0  0
    9.6272  -16.2470   19.9004 N   0  0  0  0  0  0  0  0  0  0  0  0
    9.8377  -17.2206   20.9172 C   0  0  1  0  0  0  0  0  0  0  0  0
   10.8505  -18.3085   20.4867 C   0  0  0  0  0  0  0  0  0  0  0  0
   10.3960  -19.0328   19.2381 C   0  0  0  0  0  0  0  0  0  0  0  0
   11.4533  -19.9959   18.8403 C   0  0  0  0  0  0  0  0  0  0  0  0
   11.5933  -21.0653   19.4847 O   0  0  0  0  0  0  0  0  0  0  0  0
   10.3118  -16.6075   22.2277 C   0  0  0  0  0  0  0  0  0  0  0  0
   11.2491  -15.8189   22.1078 O   0  0  0  0  0  0  0  0  0  0  0  0
   12.3045  -19.7615   17.7783 O   0  0  0  0  0  0  0  0  0  0  0  0
    4.5953  -12.2952   27.3571 N   0  0  0  0  0  0  0  0  0  0  0  0
    5.9440  -11.8217   27.2327 C   0  0  0  0  0  0  0  0  0  0  0  0
    6.1399  -10.5515   27.3147 N   0  0  0  0  0  0  0  0  0  0  0  0
    6.9782  -12.7305   27.0311 N   0  0  0  0  0  0  0  0  0  0  0  0
    7.0978  -13.4882   25.7920 C   0  0  0  0  0  0  0  0  0  0  0  0
    8.2299  -14.4808   25.9460 C   0  0  0  0  0  0  0  0  0  0  0  0
    8.4362  -15.2884   24.7275 C   0  0  0  0  0  0  0  0  0  0  0  0
    9.6372  -16.1751   24.6830 C   0  0  2  0  0  0  0  0  0  0  0  0
    9.7271  -16.9118   23.4563 N   0  0  0  0  0  0  0  0  0  0  0  0
    9.9212  -16.8989   25.9343 C   0  0  0  0  0  0  0  0  0  0  0  0
   10.3257  -16.4513   27.1773 O   0  0  0  0  0  0  0  0  0  0  0  0
    9.7830  -18.1940   25.9423 O   0  0  0  0  0  0  0  0  0  0  0  0
  1  2  1  0
  3  2  1  0
  4  3  1  0
  4  5  1  0
  5  6  1  1
  5  1  1  0
  6  7  2  0
  8  9  1  0
  8  6  1  0
  9 10  1  6
 11 10  1  0
 12 11  1  0
 13 12  2  0
 14 15  2  0
 14  9  1  0
 16 12  1  0
 18 17  1  0
 19 18  2  0
 20 18  1  0
 21 22  1  0
 21 20  1  0
 22 23  1  0
 24 23  1  1
 24 25  1  0
 24 26  1  0
 25 14  1  0
 26 27  1  0
 28 26  2  0
M  END
$$$$
