PER.pdb
     RDKit          3D

 28 28  0  0  1  0  0  0  0  0999 V2000
    7.3153  -15.8153   20.7365 N   0  0  0  0  0  0  0  0  0  0  0  0
    6.9348  -15.7275   19.3394 C   0  0  0  0  0  0  0  0  0  0  0  0
    7.3153  -14.3268   18.9118 C   0  0  0  0  0  0  0  0  0  0  0  0
    8.2093  -13.7959   20.0181 C   0  0  0  0  0  0  0  0  0  0  0  0
    8.4952  -15.0486   20.8257 C   0  0  1  0  0  0  0  0  0  0  0  0
    8.9563  -14.7066   22.2016 C   0  0  0  0  0  0  0  0  0  0  0  0
   10.1568  -14.4345   22.3825 O   0  0  0  0  0  0  0  0  0  0  0  0
    8.0840  -14.6767   23.3305 N   0  0  0  0  0  0  0  0  0  0  0  0
    8.3662  -14.1456   24.6206 C   0  0  1  0  0  0  0  0  0  0  0  0
    7.2127  -13.2647   25.1572 C   0  0  0  0  0  0  0  0  0  0  0  0
    7.5790  -12.6006   26.4668 C   0  0  0  0  0  0  0  0  0  0  0  0
    6.4254  -11.7839   26.9203 C   0  0  0  0  0  0  0  0  0  0  0  0
    5.3637  -11.7820   26.2485 O   0  0  0  0  0  0  0  0  0  0  0  0
    8.6685  -15.2282   25.6477 C   0  0  0  0  0  0  0  0  0  0  0  0
    7.8164  -16.1136   25.7156 O   0  0  0  0  0  0  0  0  0  0  0  0
    6.4711  -11.0119   28.0646 O   0  0  0  0  0  0  0  0  0  0  0  0
   14.6903  -20.6555   28.6762 N   0  0  0  0  0  0  0  0  0  0  0  0
   13.8051  -20.4490   29.7864 C   0  0  0  0  0  0  0  0  0  0  0  0
   13.9881  -21.1709   30.8371 N   0  0  0  0  0  0  0  0  0  0  0  0
   12.7964  -19.4948   29.6961 N   0  0  0  0  0  0  0  0  0  0  0  0
   12.5957  -18.7087   28.4855 C   0  0  0  0  0  0  0  0  0  0  0  0
   11.5149  -17.6840   28.7547 C   0  0  0  0  0  0  0  0  0  0  0  0
   11.1859  -16.8887   27.5551 C   0  0  0  0  0  0  0  0  0  0  0  0
   10.1254  -15.8456   27.6889 C   0  0  2  0  0  0  0  0  0  0  0  0
    9.8171  -15.2166   26.4379 N   0  0  0  0  0  0  0  0  0  0  0  0
   10.2528  -14.9791   28.8735 C   0  0  0  0  0  0  0  0  0  0  0  0
    9.9727  -15.2074   30.2071 O   0  0  0  0  0  0  0  0  0  0  0  0
   10.7077  -13.7701   28.7069 O   0  0  0  0  0  0  0  0  0  0  0  0
  1  2  1  0
  3  2  1  0
  4  3  1  0
  4  5  1  0
  5  6  1  1
  5  1  1  0
  6  7  2  0
  8  9  1  0
  8  6  1  0
  9 10  1  1
 11 10  1  0
 12 11  1  0
 13 12  2  0
 14 15  2  0
 14  9  1  0
 16 12  1  0
 18 17  1  0
 19 18  2  0
 20 18  1  0
 21 22  1  0
 21 20  1  0
 22 23  1  0
 24 23  1  6
 24 25  1  0
 24 26  1  0
 25 14  1  0
 26 27  1  0
 28 26  2  0
M  END
$$$$
