PER.pdb
     RDKit          3D

 28 28  0  0  1  0  0  0  0  0999 V2000
    9.2201  -14.1366   19.3338 N   0  0  0  0  0  0  0  0  0  0  0  0
    8.4026  -13.2981   18.4775 C   0  0  0  0  0  0  0  0  0  0  0  0
    6.9761  -13.7203   18.7540 C   0  0  0  0  0  0  0  0  0  0  0  0
    7.0414  -14.5608   20.0167 C   0  0  0  0  0  0  0  0  0  0  0  0
    8.4524  -14.2915   20.5062 C   0  0  1  0  0  0  0  0  0  0  0  0
    8.9031  -15.3508   21.4537 C   0  0  0  0  0  0  0  0  0  0  0  0
    8.1445  -15.6912   22.3791 O   0  0  0  0  0  0  0  0  0  0  0  0
   10.1709  -15.9979   21.3528 N   0  0  0  0  0  0  0  0  0  0  0  0
   10.6965  -16.9979   22.2188 C   0  0  1  0  0  0  0  0  0  0  0  0
   12.1516  -17.3806   21.8575 C   0  0  0  0  0  0  0  0  0  0  0  0
   12.6953  -18.4476   22.7826 C   0  0  0  0  0  0  0  0  0  0  0  0
   14.0655  -18.8048   22.3370 C   0  0  0  0  0  0  0  0  0  0  0  0
   14.3832  -18.6605   21.1300 O   0  0  0  0  0  0  0  0  0  0  0  0
   10.6521  -16.5875   23.6843 C   0  0  0  0  0  0  0  0  0  0  0  0
   11.1681  -15.4952   23.9199 O   0  0  0  0  0  0  0  0  0  0  0  0
   15.0193  -19.2993   23.2049 O   0  0  0  0  0  0  0  0  0  0  0  0
    6.0647  -19.8242   23.3729 N   0  0  0  0  0  0  0  0  0  0  0  0
    5.4388  -18.5348   23.4404 C   0  0  0  0  0  0  0  0  0  0  0  0
    4.9998  -18.0270   22.3414 N   0  0  0  0  0  0  0  0  0  0  0  0
    5.3276  -17.8854   24.6660 N   0  0  0  0  0  0  0  0  0  0  0  0
    6.3165  -18.0706   25.7203 C   0  0  0  0  0  0  0  0  0  0  0  0
    7.4681  -17.1216   25.4675 C   0  0  0  0  0  0  0  0  0  0  0  0
    8.5000  -17.2002   26.5204 C   0  0  0  0  0  0  0  0  0  0  0  0
    9.9291  -17.2010   26.0866 C   0  0  2  0  0  0  0  0  0  0  0  0
   10.0703  -17.3819   24.6713 N   0  0  0  0  0  0  0  0  0  0  0  0
   10.8437  -17.9525   26.9636 C   0  0  0  0  0  0  0  0  0  0  0  0
   11.8036  -18.9054   26.6812 O   0  0  0  0  0  0  0  0  0  0  0  0
   10.7949  -17.7250   28.2451 O   0  0  0  0  0  0  0  0  0  0  0  0
  1  2  1  0
  3  2  1  0
  4  3  1  0
  4  5  1  0
  5  6  1  6
  5  1  1  0
  6  7  2  0
  8  9  1  0
  8  6  1  0
  9 10  1  6
 11 10  1  0
 12 11  1  0
 13 12  2  0
 14 15  2  0
 14  9  1  0
 16 12  1  0
 18 17  1  0
 19 18  2  0
 20 18  1  0
 21 22  1  0
 21 20  1  0
 22 23  1  0
 24 23  1  1
 24 25  1  0
 24 26  1  0
 25 14  1  0
 26 27  1  0
 28 26  2  0
M  END
$$$$
