TCS.pdb
     RDKit          3D

 20 19  0  0  1  0  0  0  0  0999 V2000
    6.5415  -16.2117   21.0066 C   0  0  0  0  0  0  0  0  0  0  0  0
    7.3496  -15.2030   20.2837 C   0  0  1  0  0  0  0  0  0  0  0  0
    6.8284  -15.0540   18.9979 O   0  0  0  0  0  0  0  0  0  0  0  0
    7.4124  -13.8517   20.9154 C   0  0  2  0  0  0  0  0  0  0  0  0
    8.0092  -12.9492   19.9484 N   0  0  0  0  0  0  0  0  0  0  0  0
    8.1547  -13.7855   22.1663 C   0  0  0  0  0  0  0  0  0  0  0  0
    9.4089  -13.7601   22.1615 O   0  0  0  0  0  0  0  0  0  0  0  0
    7.4688  -13.7490   23.4014 N   0  0  0  0  0  0  0  0  0  0  0  0
    8.2390  -13.8612   24.6670 C   0  0  1  0  0  0  0  0  0  0  0  0
    7.3894  -13.1198   25.6817 C   0  0  0  0  0  0  0  0  0  0  0  0
    5.7199  -13.7519   25.7254 S   0  0  0  0  0  0  0  0  0  0  0  0
    8.2960  -15.2795   25.0617 C   0  0  0  0  0  0  0  0  0  0  0  0
    7.3244  -16.0829   24.8411 O   0  0  0  0  0  0  0  0  0  0  0  0
   11.5668  -17.1799   24.7502 O   0  0  0  0  0  0  0  0  0  0  0  0
   10.4136  -17.9400   24.9293 C   0  0  0  0  0  0  0  0  0  0  0  0
    9.5403  -17.2716   25.9736 C   0  0  2  0  0  0  0  0  0  0  0  0
    9.4137  -15.8462   25.7017 N   0  0  0  0  0  0  0  0  0  0  0  0
   10.1121  -17.4328   27.3345 C   0  0  0  0  0  0  0  0  0  0  0  0
   10.3859  -16.4348   28.0446 O   0  0  0  0  0  0  0  0  0  0  0  0
   10.3737  -18.6796   27.8934 O   0  0  0  0  0  0  0  0  0  0  0  0
  2  3  1  0
  2  1  1  1
  4  5  1  6
  4  2  1  0
  6  4  1  0
  7  6  2  0
  8  6  1  0
  9  8  1  0
  9 12  1  0
  9 10  1  1
 11 10  1  0
 12 17  1  0
 13 12  2  0
 14 15  1  0
 16 15  1  6
 16 18  1  0
 17 16  1  0
 18 20  1  0
 19 18  2  0
M  END
$$$$
