TCS.pdb
     RDKit          3D

 20 19  0  0  1  0  0  0  0  0999 V2000
    7.9287  -21.1433   17.3619 C   0  0  0  0  0  0  0  0  0  0  0  0
    8.8357  -20.6367   18.4172 C   0  0  1  0  0  0  0  0  0  0  0  0
    9.8644  -21.5613   18.6012 O   0  0  0  0  0  0  0  0  0  0  0  0
    9.4551  -19.3043   18.1523 C   0  0  2  0  0  0  0  0  0  0  0  0
   10.2318  -19.4229   16.9323 N   0  0  0  0  0  0  0  0  0  0  0  0
   10.3007  -18.7898   19.2201 C   0  0  0  0  0  0  0  0  0  0  0  0
   11.5500  -18.8650   19.1348 O   0  0  0  0  0  0  0  0  0  0  0  0
    9.7219  -18.1992   20.3662 N   0  0  0  0  0  0  0  0  0  0  0  0
   10.5985  -17.7650   21.4845 C   0  0  1  0  0  0  0  0  0  0  0  0
    9.9063  -16.5339   22.0380 C   0  0  0  0  0  0  0  0  0  0  0  0
   10.7293  -15.9206   23.4992 S   0  0  0  0  0  0  0  0  0  0  0  0
   10.5879  -18.8073   22.5258 C   0  0  0  0  0  0  0  0  0  0  0  0
    9.4988  -19.3293   22.9496 O   0  0  0  0  0  0  0  0  0  0  0  0
   12.3639  -22.0312   22.5925 O   0  0  0  0  0  0  0  0  0  0  0  0
   12.7587  -21.4321   23.7862 C   0  0  0  0  0  0  0  0  0  0  0  0
   11.7680  -20.3398   24.1404 C   0  0  2  0  0  0  0  0  0  0  0  0
   11.7641  -19.2993   23.1211 N   0  0  0  0  0  0  0  0  0  0  0  0
   12.1062  -19.7098   25.4418 C   0  0  0  0  0  0  0  0  0  0  0  0
   12.1066  -20.3779   26.5043 O   0  0  0  0  0  0  0  0  0  0  0  0
   12.4373  -18.3637   25.5581 O   0  0  0  0  0  0  0  0  0  0  0  0
  2  3  1  0
  2  1  1  6
  4  5  1  6
  4  2  1  0
  6  4  1  0
  7  6  2  0
  8  6  1  0
  9  8  1  0
  9 12  1  0
  9 10  1  1
 11 10  1  0
 12 17  1  0
 13 12  2  0
 14 15  1  0
 16 15  1  6
 16 18  1  0
 17 16  1  0
 18 20  1  0
 19 18  2  0
M  END
$$$$
