TCS.pdb
     RDKit          3D

 20 19  0  0  1  0  0  0  0  0999 V2000
    6.9501  -17.5766   22.6147 C   0  0  0  0  0  0  0  0  0  0  0  0
    7.3537  -16.7111   21.4828 C   0  0  1  0  0  0  0  0  0  0  0  0
    6.6253  -17.0870   20.3536 O   0  0  0  0  0  0  0  0  0  0  0  0
    7.1606  -15.2451   21.6893 C   0  0  2  0  0  0  0  0  0  0  0  0
    7.6109  -14.5751   20.4835 N   0  0  0  0  0  0  0  0  0  0  0  0
    7.8491  -14.6852   22.8437 C   0  0  0  0  0  0  0  0  0  0  0  0
    9.1003  -14.5955   22.8567 O   0  0  0  0  0  0  0  0  0  0  0  0
    7.1138  -14.2360   23.9638 N   0  0  0  0  0  0  0  0  0  0  0  0
    7.8372  -13.6728   25.1331 C   0  0  1  0  0  0  0  0  0  0  0  0
    6.7596  -12.9507   25.9195 C   0  0  0  0  0  0  0  0  0  0  0  0
    7.3612  -12.4098   27.5114 S   0  0  0  0  0  0  0  0  0  0  0  0
    8.3424  -14.7848   25.9570 C   0  0  0  0  0  0  0  0  0  0  0  0
    7.5728  -15.7129   26.3863 O   0  0  0  0  0  0  0  0  0  0  0  0
   12.4130  -15.4815   26.5107 O   0  0  0  0  0  0  0  0  0  0  0  0
   11.4992  -16.5224   26.6558 C   0  0  0  0  0  0  0  0  0  0  0  0
   10.1958  -15.9625   27.1923 C   0  0  2  0  0  0  0  0  0  0  0  0
    9.6952  -14.9047   26.3250 N   0  0  0  0  0  0  0  0  0  0  0  0
   10.3745  -15.3972   28.5537 C   0  0  0  0  0  0  0  0  0  0  0  0
   10.1251  -14.1904   28.7920 O   0  0  0  0  0  0  0  0  0  0  0  0
   10.8217  -16.1596   29.6280 O   0  0  0  0  0  0  0  0  0  0  0  0
  2  3  1  0
  2  1  1  1
  4  5  1  6
  4  2  1  0
  6  4  1  0
  7  6  2  0
  8  6  1  0
  9  8  1  0
  9 12  1  0
  9 10  1  1
 11 10  1  0
 12 17  1  0
 13 12  2  0
 14 15  1  0
 16 15  1  6
 16 18  1  0
 17 16  1  0
 18 20  1  0
 19 18  2  0
M  END
$$$$
