TCS.pdb
     RDKit          3D

 20 19  0  0  1  0  0  0  0  0999 V2000
    6.5554  -15.8033   20.4096 C   0  0  0  0  0  0  0  0  0  0  0  0
    7.5211  -14.8551   19.8084 C   0  0  1  0  0  0  0  0  0  0  0  0
    7.1710  -14.6504   18.4733 O   0  0  0  0  0  0  0  0  0  0  0  0
    7.6140  -13.5203   20.4708 C   0  0  2  0  0  0  0  0  0  0  0  0
    8.4424  -12.6765   19.6297 N   0  0  0  0  0  0  0  0  0  0  0  0
    8.1502  -13.5354   21.8244 C   0  0  0  0  0  0  0  0  0  0  0  0
    9.3711  -13.7446   22.0230 O   0  0  0  0  0  0  0  0  0  0  0  0
    7.2995  -13.3143   22.9310 N   0  0  0  0  0  0  0  0  0  0  0  0
    7.8494  -13.4230   24.3070 C   0  0  1  0  0  0  0  0  0  0  0  0
    6.7749  -12.8064   25.1824 C   0  0  0  0  0  0  0  0  0  0  0  0
    7.1636  -12.9790   26.9167 S   0  0  0  0  0  0  0  0  0  0  0  0
    7.9677  -14.8491   24.6576 C   0  0  0  0  0  0  0  0  0  0  0  0
    6.9835  -15.6588   24.5397 O   0  0  0  0  0  0  0  0  0  0  0  0
   11.3284  -16.8415   24.2401 O   0  0  0  0  0  0  0  0  0  0  0  0
   10.1355  -17.5389   24.4143 C   0  0  0  0  0  0  0  0  0  0  0  0
    9.2994  -16.8305   25.4629 C   0  0  2  0  0  0  0  0  0  0  0  0
    9.1611  -15.4167   25.1408 N   0  0  0  0  0  0  0  0  0  0  0  0
    9.9201  -16.9390   26.8074 C   0  0  0  0  0  0  0  0  0  0  0  0
   10.2706  -15.9155   27.4437 O   0  0  0  0  0  0  0  0  0  0  0  0
   10.1460  -18.1618   27.4310 O   0  0  0  0  0  0  0  0  0  0  0  0
  2  3  1  0
  2  1  1  1
  4  5  1  6
  4  2  1  0
  6  4  1  0
  7  6  2  0
  8  6  1  0
  9  8  1  0
  9 12  1  0
  9 10  1  1
 11 10  1  0
 12 17  1  0
 13 12  2  0
 14 15  1  0
 16 15  1  6
 16 18  1  0
 17 16  1  0
 18 20  1  0
 19 18  2  0
M  END
$$$$
