TCS.pdb
     RDKit          3D

 20 19  0  0  1  0  0  0  0  0999 V2000
    7.0753  -16.0840   19.7124 C   0  0  0  0  0  0  0  0  0  0  0  0
    7.6946  -14.8518   19.1728 C   0  0  1  0  0  0  0  0  0  0  0  0
    7.1402  -14.5871   17.9199 O   0  0  0  0  0  0  0  0  0  0  0  0
    7.5385  -13.6282   20.0140 C   0  0  2  0  0  0  0  0  0  0  0  0
    7.9341  -12.4919   19.2029 N   0  0  0  0  0  0  0  0  0  0  0  0
    8.2983  -13.6282   21.2561 C   0  0  0  0  0  0  0  0  0  0  0  0
    9.5435  -13.4768   21.2405 O   0  0  0  0  0  0  0  0  0  0  0  0
    7.6398  -13.7991   22.4948 N   0  0  0  0  0  0  0  0  0  0  0  0
    8.4448  -14.0105   23.7257 C   0  0  1  0  0  0  0  0  0  0  0  0
    7.5502  -13.5053   24.8417 C   0  0  0  0  0  0  0  0  0  0  0  0
    5.9372  -14.2693   24.7852 S   0  0  0  0  0  0  0  0  0  0  0  0
    8.6468  -15.4575   23.9159 C   0  0  0  0  0  0  0  0  0  0  0  0
    7.8363  -16.3230   23.4341 O   0  0  0  0  0  0  0  0  0  0  0  0
   11.8253  -17.2217   23.2053 O   0  0  0  0  0  0  0  0  0  0  0  0
   10.6412  -17.9172   23.4372 C   0  0  0  0  0  0  0  0  0  0  0  0
   10.0168  -17.4117   24.7236 C   0  0  2  0  0  0  0  0  0  0  0  0
    9.7365  -15.9852   24.6328 N   0  0  0  0  0  0  0  0  0  0  0  0
   10.9201  -17.6319   25.8814 C   0  0  0  0  0  0  0  0  0  0  0  0
   11.4121  -16.6649   26.5122 O   0  0  0  0  0  0  0  0  0  0  0  0
   11.2684  -18.9025   26.3278 O   0  0  0  0  0  0  0  0  0  0  0  0
  2  3  1  0
  2  1  1  1
  4  5  1  6
  4  2  1  0
  6  4  1  0
  7  6  2  0
  8  6  1  0
  9  8  1  0
  9 12  1  0
  9 10  1  1
 11 10  1  0
 12 17  1  0
 13 12  2  0
 14 15  1  0
 16 15  1  6
 16 18  1  0
 17 16  1  0
 18 20  1  0
 19 18  2  0
M  END
$$$$
