TCS.pdb
     RDKit          3D

 20 19  0  0  1  0  0  0  0  0999 V2000
    3.9272  -18.4889   21.2416 C   0  0  0  0  0  0  0  0  0  0  0  0
    4.9697  -18.1902   22.2501 C   0  0  1  0  0  0  0  0  0  0  0  0
    5.5712  -19.3885   22.6365 O   0  0  0  0  0  0  0  0  0  0  0  0
    6.0465  -17.2548   21.8091 C   0  0  2  0  0  0  0  0  0  0  0  0
    6.6595  -17.8279   20.6252 N   0  0  0  0  0  0  0  0  0  0  0  0
    7.0731  -16.9774   22.8036 C   0  0  0  0  0  0  0  0  0  0  0  0
    8.2026  -17.5167   22.7198 O   0  0  0  0  0  0  0  0  0  0  0  0
    6.8075  -16.0959   23.8759 N   0  0  0  0  0  0  0  0  0  0  0  0
    7.8307  -15.9090   24.9369 C   0  0  1  0  0  0  0  0  0  0  0  0
    7.3698  -14.6682   25.6779 C   0  0  0  0  0  0  0  0  0  0  0  0
    5.6576  -14.7959   26.1684 S   0  0  0  0  0  0  0  0  0  0  0  0
    7.7640  -17.0516   25.8647 C   0  0  0  0  0  0  0  0  0  0  0  0
    6.6593  -17.6365   26.1395 O   0  0  0  0  0  0  0  0  0  0  0  0
    8.9852  -21.1153   27.4097 O   0  0  0  0  0  0  0  0  0  0  0  0
    9.0924  -20.0141   26.5639 C   0  0  0  0  0  0  0  0  0  0  0  0
    8.8595  -18.7501   27.3691 C   0  0  2  0  0  0  0  0  0  0  0  0
    8.9005  -17.5767   26.5069 N   0  0  0  0  0  0  0  0  0  0  0  0
    9.8940  -18.5858   28.4216 C   0  0  0  0  0  0  0  0  0  0  0  0
   10.6695  -17.5990   28.4193 O   0  0  0  0  0  0  0  0  0  0  0  0
   10.0618  -19.5014   29.4554 O   0  0  0  0  0  0  0  0  0  0  0  0
  2  3  1  0
  2  1  1  6
  4  5  1  6
  4  2  1  0
  6  4  1  0
  7  6  2  0
  8  6  1  0
  9  8  1  0
  9 12  1  0
  9 10  1  1
 11 10  1  0
 12 17  1  0
 13 12  2  0
 14 15  1  0
 16 15  1  6
 16 18  1  0
 17 16  1  0
 18 20  1  0
 19 18  2  0
M  END
$$$$
