TCS.pdb
     RDKit          3D

 20 19  0  0  1  0  0  0  0  0999 V2000
    7.9110  -19.1117   15.1585 C   0  0  0  0  0  0  0  0  0  0  0  0
    8.6125  -18.2293   16.1189 C   0  0  1  0  0  0  0  0  0  0  0  0
    9.9800  -18.4992   16.0539 O   0  0  0  0  0  0  0  0  0  0  0  0
    8.4211  -16.7636   15.9086 C   0  0  2  0  0  0  0  0  0  0  0  0
    8.9564  -16.4407   14.5990 N   0  0  0  0  0  0  0  0  0  0  0  0
    9.0379  -15.9072   16.9117 C   0  0  0  0  0  0  0  0  0  0  0  0
   10.2281  -15.5322   16.7836 O   0  0  0  0  0  0  0  0  0  0  0  0
    8.3008  -15.4885   18.0425 N   0  0  0  0  0  0  0  0  0  0  0  0
    8.9701  -14.6720   19.0880 C   0  0  1  0  0  0  0  0  0  0  0  0
    7.8246  -14.1355   19.9252 C   0  0  0  0  0  0  0  0  0  0  0  0
    7.0545  -12.7216   19.1529 S   0  0  0  0  0  0  0  0  0  0  0  0
    9.7828  -15.5624   19.9350 C   0  0  0  0  0  0  0  0  0  0  0  0
    9.4785  -16.7931   20.1103 O   0  0  0  0  0  0  0  0  0  0  0  0
   13.7217  -16.1601   22.7368 O   0  0  0  0  0  0  0  0  0  0  0  0
   13.0422  -15.3423   21.8373 C   0  0  0  0  0  0  0  0  0  0  0  0
   11.6961  -15.9667   21.5237 C   0  0  2  0  0  0  0  0  0  0  0  0
   10.9417  -15.1266   20.6035 N   0  0  0  0  0  0  0  0  0  0  0  0
   10.8867  -16.1441   22.7559 C   0  0  0  0  0  0  0  0  0  0  0  0
   10.0108  -15.3064   23.0819 O   0  0  0  0  0  0  0  0  0  0  0  0
   11.0489  -17.2319   23.6077 O   0  0  0  0  0  0  0  0  0  0  0  0
  2  3  1  0
  2  1  1  6
  4  5  1  6
  4  2  1  0
  6  4  1  0
  7  6  2  0
  8  6  1  0
  9  8  1  0
  9 12  1  0
  9 10  1  1
 11 10  1  0
 12 17  1  0
 13 12  2  0
 14 15  1  0
 16 15  1  1
 16 18  1  0
 17 16  1  0
 18 20  1  0
 19 18  2  0
M  END
$$$$
