TCS.pdb
     RDKit          3D

 20 19  0  0  1  0  0  0  0  0999 V2000
   16.5690  -19.8995   18.9437 C   0  0  0  0  0  0  0  0  0  0  0  0
   15.1014  -19.7022   18.9538 C   0  0  1  0  0  0  0  0  0  0  0  0
   14.5002  -20.8039   18.3441 O   0  0  0  0  0  0  0  0  0  0  0  0
   14.4823  -19.5257   20.3010 C   0  0  2  0  0  0  0  0  0  0  0  0
   13.0425  -19.5448   20.1215 N   0  0  0  0  0  0  0  0  0  0  0  0
   14.8692  -18.3127   21.0074 C   0  0  0  0  0  0  0  0  0  0  0  0
   14.5672  -17.1851   20.5484 O   0  0  0  0  0  0  0  0  0  0  0  0
   15.5904  -18.3931   22.2201 N   0  0  0  0  0  0  0  0  0  0  0  0
   16.0658  -17.1445   22.8702 C   0  0  1  0  0  0  0  0  0  0  0  0
   15.6327  -17.2945   24.3162 C   0  0  0  0  0  0  0  0  0  0  0  0
   15.8611  -15.7773   25.2296 S   0  0  0  0  0  0  0  0  0  0  0  0
   17.5384  -17.1214   22.8299 C   0  0  0  0  0  0  0  0  0  0  0  0
   18.2396  -18.1506   23.1254 O   0  0  0  0  0  0  0  0  0  0  0  0
   19.6350  -15.0237   20.1415 O   0  0  0  0  0  0  0  0  0  0  0  0
   20.1585  -14.8278   21.4172 C   0  0  0  0  0  0  0  0  0  0  0  0
   19.7195  -15.9720   22.3107 C   0  0  2  0  0  0  0  0  0  0  0  0
   18.2711  -15.9769   22.4651 N   0  0  0  0  0  0  0  0  0  0  0  0
   20.3272  -15.8620   23.6611 C   0  0  0  0  0  0  0  0  0  0  0  0
   21.5293  -16.1651   23.8571 O   0  0  0  0  0  0  0  0  0  0  0  0
   19.6115  -15.4236   24.7705 O   0  0  0  0  0  0  0  0  0  0  0  0
  2  3  1  0
  2  1  1  1
  4  5  1  6
  4  2  1  0
  6  4  1  0
  7  6  2  0
  8  6  1  0
  9  8  1  0
  9 12  1  0
  9 10  1  1
 11 10  1  0
 12 17  1  0
 13 12  2  0
 14 15  1  0
 16 15  1  6
 16 18  1  0
 17 16  1  0
 18 20  1  0
 19 18  2  0
M  END
$$$$
