MCT.pdb
     RDKit          3D

 22 21  0  0  1  0  0  0  0  0999 V2000
    7.1327  -20.6867   25.4421 C   0  0  0  0  0  0  0  0  0  0  0  0
    6.3105  -20.7667   23.8532 S   0  0  0  0  0  0  0  0  0  0  0  0
    6.0756  -19.1800   23.0810 C   0  0  0  0  0  0  0  0  0  0  0  0
    6.7367  -18.0373   23.7766 C   0  0  0  0  0  0  0  0  0  0  0  0
    6.6156  -16.7066   23.1113 C   0  0  2  0  0  0  0  0  0  0  0  0
    7.2093  -16.6821   21.7824 N   0  0  0  0  0  0  0  0  0  0  0  0
    7.4057  -15.7475   23.9687 C   0  0  0  0  0  0  0  0  0  0  0  0
    8.6423  -15.6777   23.7910 O   0  0  0  0  0  0  0  0  0  0  0  0
    6.8132  -14.9425   24.9434 N   0  0  0  0  0  0  0  0  0  0  0  0
    7.6688  -14.2317   25.8879 C   0  0  1  0  0  0  0  0  0  0  0  0
    6.7811  -13.1404   26.4540 C   0  0  0  0  0  0  0  0  0  0  0  0
    6.0954  -12.0546   25.1944 S   0  0  0  0  0  0  0  0  0  0  0  0
    8.2299  -15.1334   26.8903 C   0  0  0  0  0  0  0  0  0  0  0  0
    7.4286  -15.7845   27.6283 O   0  0  0  0  0  0  0  0  0  0  0  0
   10.8101  -17.9775   26.3826 C   0  0  0  0  0  0  0  0  0  0  0  0
   11.3261  -17.0268   27.4411 C   0  0  1  0  0  0  0  0  0  0  0  0
   12.1907  -16.1041   26.8148 O   0  0  0  0  0  0  0  0  0  0  0  0
   10.2084  -16.1973   28.0311 C   0  0  2  0  0  0  0  0  0  0  0  0
    9.6033  -15.3037   27.0616 N   0  0  0  0  0  0  0  0  0  0  0  0
   10.7943  -15.3781   29.1147 C   0  0  0  0  0  0  0  0  0  0  0  0
   11.3328  -15.9891   30.2320 O   0  0  0  0  0  0  0  0  0  0  0  0
   10.8253  -14.1132   29.0631 O   0  0  0  0  0  0  0  0  0  0  0  0
  2  1  1  0
  3  2  1  0
  3  4  1  0
  4  5  1  0
  5  7  1  0
  5  6  1  6
  7  9  1  0
  7  8  2  0
  9 10  1  0
 10 13  1  0
 10 11  1  1
 11 12  1  0
 13 14  2  0
 16 15  1  6
 16 18  1  0
 16 17  1  0
 18 20  1  0
 19 13  1  0
 18 19  1  6
 20 21  1  0
 22 20  2  0
M  END
$$$$
