MCT.pdb
     RDKit          3D

 22 21  0  0  1  0  0  0  0  0999 V2000
    7.5406  -11.6124   20.4164 C   0  0  0  0  0  0  0  0  0  0  0  0
    8.2622  -12.7931   19.2796 S   0  0  0  0  0  0  0  0  0  0  0  0
    7.6809  -14.4606   19.5050 C   0  0  0  0  0  0  0  0  0  0  0  0
    7.4653  -14.8656   20.9248 C   0  0  0  0  0  0  0  0  0  0  0  0
    7.0583  -16.2845   21.1468 C   0  0  2  0  0  0  0  0  0  0  0  0
    5.7400  -16.5860   20.6080 N   0  0  0  0  0  0  0  0  0  0  0  0
    6.9761  -16.4567   22.6445 C   0  0  0  0  0  0  0  0  0  0  0  0
    5.9715  -16.0036   23.2368 O   0  0  0  0  0  0  0  0  0  0  0  0
    7.9704  -17.0972   23.3864 N   0  0  0  0  0  0  0  0  0  0  0  0
    7.8157  -17.2001   24.8337 C   0  0  1  0  0  0  0  0  0  0  0  0
    7.5690  -18.6754   25.0830 C   0  0  0  0  0  0  0  0  0  0  0  0
    7.4930  -19.1000   26.8293 S   0  0  0  0  0  0  0  0  0  0  0  0
    8.9721  -16.6544   25.5391 C   0  0  0  0  0  0  0  0  0  0  0  0
   10.1264  -16.8710   25.0581 O   0  0  0  0  0  0  0  0  0  0  0  0
    9.2201  -12.9644   27.3323 C   0  0  0  0  0  0  0  0  0  0  0  0
    9.5850  -14.1184   28.2412 C   0  0  1  0  0  0  0  0  0  0  0  0
    8.4314  -14.4835   28.9672 O   0  0  0  0  0  0  0  0  0  0  0  0
    9.9691  -15.3466   27.4479 C   0  0  2  0  0  0  0  0  0  0  0  0
    8.8527  -15.9084   26.7112 N   0  0  0  0  0  0  0  0  0  0  0  0
   10.4456  -16.3615   28.4130 C   0  0  0  0  0  0  0  0  0  0  0  0
   11.5589  -16.1078   29.1928 O   0  0  0  0  0  0  0  0  0  0  0  0
    9.8659  -17.4776   28.5602 O   0  0  0  0  0  0  0  0  0  0  0  0
  2  1  1  0
  3  2  1  0
  3  4  1  0
  4  5  1  0
  5  7  1  0
  5  6  1  6
  7  9  1  0
  7  8  2  0
  9 10  1  0
 10 13  1  0
 10 11  1  6
 11 12  1  0
 13 14  2  0
 16 15  1  6
 16 18  1  0
 16 17  1  0
 18 20  1  0
 19 13  1  0
 18 19  1  1
 20 21  1  0
 22 20  2  0
M  END
$$$$
