MCT.pdb
     RDKit          3D

 22 21  0  0  1  0  0  0  0  0999 V2000
    3.9489  -18.5911   21.3792 C   0  0  0  0  0  0  0  0  0  0  0  0
    5.4843  -18.5737   20.4575 S   0  0  0  0  0  0  0  0  0  0  0  0
    6.2134  -16.9573   20.2997 C   0  0  0  0  0  0  0  0  0  0  0  0
    7.1090  -16.5582   21.4245 C   0  0  0  0  0  0  0  0  0  0  0  0
    7.6229  -15.1573   21.3874 C   0  0  2  0  0  0  0  0  0  0  0  0
    8.6790  -14.9678   20.4037 N   0  0  0  0  0  0  0  0  0  0  0  0
    8.2319  -14.9090   22.7464 C   0  0  0  0  0  0  0  0  0  0  0  0
    9.4544  -15.1303   22.8951 O   0  0  0  0  0  0  0  0  0  0  0  0
    7.4885  -14.4456   23.8335 N   0  0  0  0  0  0  0  0  0  0  0  0
    8.1575  -14.2537   25.1160 C   0  0  1  0  0  0  0  0  0  0  0  0
    7.3952  -13.1196   25.7734 C   0  0  0  0  0  0  0  0  0  0  0  0
    7.9058  -12.8069   27.4697 S   0  0  0  0  0  0  0  0  0  0  0  0
    8.1923  -15.4883   25.8953 C   0  0  0  0  0  0  0  0  0  0  0  0
    7.0891  -16.0178   26.2315 O   0  0  0  0  0  0  0  0  0  0  0  0
    9.2720  -18.8736   25.0811 C   0  0  0  0  0  0  0  0  0  0  0  0
   10.1216  -18.4546   26.2615 C   0  0  1  0  0  0  0  0  0  0  0  0
   11.3279  -17.9189   25.7626 O   0  0  0  0  0  0  0  0  0  0  0  0
    9.4720  -17.3327   27.0393 C   0  0  2  0  0  0  0  0  0  0  0  0
    9.3853  -16.1011   26.2774 N   0  0  0  0  0  0  0  0  0  0  0  0
   10.3107  -17.0822   28.2319 C   0  0  0  0  0  0  0  0  0  0  0  0
   10.5248  -18.0908   29.1531 O   0  0  0  0  0  0  0  0  0  0  0  0
   10.8537  -15.9595   28.4516 O   0  0  0  0  0  0  0  0  0  0  0  0
  2  1  1  0
  3  2  1  0
  3  4  1  0
  4  5  1  0
  5  7  1  0
  5  6  1  6
  7  9  1  0
  7  8  2  0
  9 10  1  0
 10 13  1  0
 10 11  1  1
 11 12  1  0
 13 14  2  0
 16 15  1  6
 16 18  1  0
 16 17  1  0
 18 20  1  0
 19 13  1  0
 18 19  1  6
 20 21  1  0
 22 20  2  0
M  END
$$$$
