MCT.pdb
     RDKit          3D

 22 21  0  0  1  0  0  0  0  0999 V2000
   14.8284  -13.9528   21.2447 C   0  0  0  0  0  0  0  0  0  0  0  0
   14.0661  -13.9167   19.6247 S   0  0  0  0  0  0  0  0  0  0  0  0
   12.6696  -15.0083   19.4593 C   0  0  0  0  0  0  0  0  0  0  0  0
   11.6636  -14.9144   20.5573 C   0  0  0  0  0  0  0  0  0  0  0  0
   10.4923  -15.8338   20.4533 C   0  0  2  0  0  0  0  0  0  0  0  0
    9.4899  -15.3683   19.5059 N   0  0  0  0  0  0  0  0  0  0  0  0
    9.8481  -15.8314   21.8187 C   0  0  0  0  0  0  0  0  0  0  0  0
    8.9930  -14.9524   22.0667 O   0  0  0  0  0  0  0  0  0  0  0  0
   10.1680  -16.7654   22.8059 N   0  0  0  0  0  0  0  0  0  0  0  0
    9.3867  -16.7860   24.0381 C   0  0  1  0  0  0  0  0  0  0  0  0
    8.8784  -18.2111   24.1389 C   0  0  0  0  0  0  0  0  0  0  0  0
    7.9116  -18.5194   25.6242 S   0  0  0  0  0  0  0  0  0  0  0  0
   10.1769  -16.3450   25.1843 C   0  0  0  0  0  0  0  0  0  0  0  0
   11.4330  -16.5236   25.1525 O   0  0  0  0  0  0  0  0  0  0  0  0
    9.2777  -12.9888   27.4931 C   0  0  0  0  0  0  0  0  0  0  0  0
    9.5624  -14.2551   28.2715 C   0  0  1  0  0  0  0  0  0  0  0  0
    8.3300  -14.8858   28.5446 O   0  0  0  0  0  0  0  0  0  0  0  0
   10.3496  -15.2466   27.4452 C   0  0  2  0  0  0  0  0  0  0  0  0
    9.6043  -15.7381   26.3017 N   0  0  0  0  0  0  0  0  0  0  0  0
   10.6657  -16.3957   28.3216 C   0  0  0  0  0  0  0  0  0  0  0  0
   10.1558  -17.6482   28.0334 O   0  0  0  0  0  0  0  0  0  0  0  0
   11.3993  -16.2806   29.3473 O   0  0  0  0  0  0  0  0  0  0  0  0
  2  1  1  0
  3  2  1  0
  3  4  1  0
  4  5  1  0
  5  7  1  0
  5  6  1  6
  7  9  1  0
  7  8  2  0
  9 10  1  0
 10 13  1  0
 10 11  1  1
 11 12  1  0
 13 14  2  0
 16 15  1  6
 16 18  1  0
 16 17  1  0
 18 20  1  0
 19 13  1  0
 18 19  1  6
 20 21  1  0
 22 20  2  0
M  END
$$$$
