MCT.pdb
     RDKit          3D

 22 21  0  0  1  0  0  0  0  0999 V2000
    7.2227  -11.7951   20.6655 C   0  0  0  0  0  0  0  0  0  0  0  0
    7.1244  -13.0680   19.4096 S   0  0  0  0  0  0  0  0  0  0  0  0
    6.4544  -14.6099   19.9952 C   0  0  0  0  0  0  0  0  0  0  0  0
    6.8731  -14.9947   21.3747 C   0  0  0  0  0  0  0  0  0  0  0  0
    8.3437  -15.1002   21.6076 C   0  0  2  0  0  0  0  0  0  0  0  0
    8.9385  -16.2576   20.9552 N   0  0  0  0  0  0  0  0  0  0  0  0
    8.5091  -15.2953   23.0956 C   0  0  0  0  0  0  0  0  0  0  0  0
    9.2347  -16.2347   23.4911 O   0  0  0  0  0  0  0  0  0  0  0  0
    7.8883  -14.4735   24.0383 N   0  0  0  0  0  0  0  0  0  0  0  0
    8.3051  -14.5600   25.4340 C   0  0  1  0  0  0  0  0  0  0  0  0
    7.7358  -13.3097   26.0761 C   0  0  0  0  0  0  0  0  0  0  0  0
    8.0682  -13.2003   27.8405 S   0  0  0  0  0  0  0  0  0  0  0  0
    7.8657  -15.8085   26.0510 C   0  0  0  0  0  0  0  0  0  0  0  0
    6.6244  -15.9712   26.2596 O   0  0  0  0  0  0  0  0  0  0  0  0
    7.3259  -19.0842   25.0242 C   0  0  0  0  0  0  0  0  0  0  0  0
    8.3803  -19.2370   26.0993 C   0  0  1  0  0  0  0  0  0  0  0  0
    9.6461  -19.2066   25.4765 O   0  0  0  0  0  0  0  0  0  0  0  0
    8.3708  -18.0642   27.0532 C   0  0  2  0  0  0  0  0  0  0  0  0
    8.7546  -16.8199   26.4136 N   0  0  0  0  0  0  0  0  0  0  0  0
    9.3515  -18.3587   28.1210 C   0  0  0  0  0  0  0  0  0  0  0  0
    9.1263  -19.4012   29.0008 O   0  0  0  0  0  0  0  0  0  0  0  0
   10.4123  -17.6830   28.2682 O   0  0  0  0  0  0  0  0  0  0  0  0
  2  1  1  0
  3  2  1  0
  3  4  1  0
  4  5  1  0
  5  7  1  0
  5  6  1  6
  7  9  1  0
  7  8  2  0
  9 10  1  0
 10 13  1  0
 10 11  1  1
 11 12  1  0
 13 14  2  0
 16 15  1  6
 16 18  1  0
 16 17  1  0
 18 20  1  0
 19 13  1  0
 18 19  1  6
 20 21  1  0
 22 20  2  0
M  END
$$$$
