MCT.pdb
     RDKit          3D

 22 21  0  0  1  0  0  0  0  0999 V2000
    7.1395  -12.2884   27.1545 C   0  0  0  0  0  0  0  0  0  0  0  0
    6.5369  -11.9098   25.5111 S   0  0  0  0  0  0  0  0  0  0  0  0
    7.5077  -12.6275   24.2029 C   0  0  0  0  0  0  0  0  0  0  0  0
    6.7504  -13.5116   23.2694 C   0  0  0  0  0  0  0  0  0  0  0  0
    6.4956  -14.9029   23.7464 C   0  0  2  0  0  0  0  0  0  0  0  0
    6.0458  -14.9533   25.1299 N   0  0  0  0  0  0  0  0  0  0  0  0
    7.8302  -15.6063   23.6872 C   0  0  0  0  0  0  0  0  0  0  0  0
    8.4055  -15.6891   22.5792 O   0  0  0  0  0  0  0  0  0  0  0  0
    8.4409  -16.1625   24.8128 N   0  0  0  0  0  0  0  0  0  0  0  0
    9.7219  -16.8436   24.6570 C   0  0  1  0  0  0  0  0  0  0  0  0
   10.6413  -15.7893   24.0717 C   0  0  0  0  0  0  0  0  0  0  0  0
   12.3218  -16.3751   23.8100 S   0  0  0  0  0  0  0  0  0  0  0  0
   10.1852  -17.4147   25.9186 C   0  0  0  0  0  0  0  0  0  0  0  0
   10.7969  -16.6569   26.7324 O   0  0  0  0  0  0  0  0  0  0  0  0
    7.6355  -19.3818   28.1255 C   0  0  0  0  0  0  0  0  0  0  0  0
    8.9127  -20.1777   27.9641 C   0  0  1  0  0  0  0  0  0  0  0  0
    8.7490  -21.0473   26.8650 O   0  0  0  0  0  0  0  0  0  0  0  0
   10.0782  -19.2850   27.6034 C   0  0  2  0  0  0  0  0  0  0  0  0
    9.9787  -18.7514   26.2580 N   0  0  0  0  0  0  0  0  0  0  0  0
   11.3043  -20.1087   27.6862 C   0  0  0  0  0  0  0  0  0  0  0  0
   11.6736  -20.6834   28.8882 O   0  0  0  0  0  0  0  0  0  0  0  0
   12.0475  -20.3156   26.6819 O   0  0  0  0  0  0  0  0  0  0  0  0
  2  1  1  0
  3  2  1  0
  3  4  1  0
  4  5  1  0
  5  7  1  0
  5  6  1  1
  7  9  1  0
  7  8  2  0
  9 10  1  0
 10 13  1  0
 10 11  1  1
 11 12  1  0
 13 14  2  0
 16 15  1  6
 16 18  1  0
 16 17  1  0
 18 20  1  0
 19 13  1  0
 18 19  1  6
 20 21  1  0
 22 20  2  0
M  END
$$$$
