KSF.pdb
     RDKit          3D

 27 27  0  0  1  0  0  0  0  0999 V2000
   15.7000  -11.6323  -16.1416 N   0  0  0  0  0  0  0  0  0  0  0  0
   17.0567  -11.2432  -15.9906 C   0  0  1  0  0  0  0  0  0  0  0  0
   17.8875  -11.5252  -17.1794 C   0  0  0  0  0  0  0  0  0  0  0  0
   17.7046  -12.9135  -17.6945 C   0  0  0  0  0  0  0  0  0  0  0  0
   18.5494  -13.3486  -18.8287 C   0  0  0  0  0  0  0  0  0  0  0  0
   18.2679  -14.8119  -19.2059 C   0  0  0  0  0  0  0  0  0  0  0  0
   18.7330  -15.6987  -18.1580 N   0  0  0  0  0  0  0  0  0  0  0  0
   17.2119   -9.8510  -15.4842 C   0  0  0  0  0  0  0  0  0  0  0  0
   16.4625   -8.9735  -15.9656 O   0  0  0  0  0  0  0  0  0  0  0  0
   18.5293   -8.6923  -11.7724 O   0  0  0  0  0  0  0  0  0  0  0  0
   17.8787   -7.8325  -12.6806 C   0  0  0  0  0  0  0  0  0  0  0  0
   18.3032   -8.1093  -14.0960 C   0  0  2  0  0  0  0  0  0  0  0  0
   18.1378   -9.4595  -14.5080 N   0  0  0  0  0  0  0  0  0  0  0  0
   19.7283   -7.6497  -14.2119 C   0  0  0  0  0  0  0  0  0  0  0  0
   20.6700   -8.4551  -14.4572 O   0  0  0  0  0  0  0  0  0  0  0  0
   20.0876   -6.2866  -14.0514 N   0  0  0  0  0  0  0  0  0  0  0  0
   21.4392   -5.7788  -14.2334 C   0  0  1  0  0  0  0  0  0  0  0  0
   21.8262   -6.1693  -15.6539 C   0  0  0  0  0  0  0  0  0  0  0  0
   23.1064   -5.6204  -16.0938 C   0  0  0  0  0  0  0  0  0  0  0  0
   24.3116   -6.1087  -15.6410 C   0  0  0  0  0  0  0  0  0  0  0  0
   25.5219   -5.5681  -16.0832 C   0  0  0  0  0  0  0  0  0  0  0  0
   25.5334   -4.5392  -16.9779 C   0  0  0  0  0  0  0  0  0  0  0  0
   24.3237   -4.0422  -17.4385 C   0  0  0  0  0  0  0  0  0  0  0  0
   23.1327   -4.5807  -16.9978 C   0  0  0  0  0  0  0  0  0  0  0  0
   21.5209   -4.3289  -14.0237 C   0  0  0  0  0  0  0  0  0  0  0  0
   22.6680   -3.7606  -13.5046 O   0  0  0  0  0  0  0  0  0  0  0  0
   20.5589   -3.5849  -14.3096 O   0  0  0  0  0  0  0  0  0  0  0  0
  2  1  1  6
  3  4  1  0
  3  2  1  0
  4  5  1  0
  5  6  1  0
  7  6  1  0
  8  9  2  0
  8  2  1  0
 10 11  1  0
 12 11  1  1
 12 13  1  0
 12 14  1  0
 13  8  1  0
 14 16  1  0
 15 14  2  0
 16 17  1  0
 17 25  1  0
 17 18  1  6
 19 18  1  0
 20 19  2  0
 21 20  1  0
 22 21  2  0
 22 23  1  0
 23 24  2  0
 24 19  1  0
 25 27  2  0
 25 26  1  0
M  END
$$$$
