KSF.pdb
     RDKit          3D

 27 27  0  0  1  0  0  0  0  0999 V2000
   28.2681  -20.3839  -16.1121 N   0  0  0  0  0  0  0  0  0  0  0  0
   27.5424  -19.7355  -15.0788 C   0  0  1  0  0  0  0  0  0  0  0  0
   26.7965  -18.5457  -15.5384 C   0  0  0  0  0  0  0  0  0  0  0  0
   27.6865  -17.4907  -16.1052 C   0  0  0  0  0  0  0  0  0  0  0  0
   28.0240  -17.5685  -17.5437 C   0  0  0  0  0  0  0  0  0  0  0  0
   28.8390  -16.3451  -17.9933 C   0  0  0  0  0  0  0  0  0  0  0  0
   29.2066  -16.4726  -19.3896 N   0  0  0  0  0  0  0  0  0  0  0  0
   26.7115  -20.6724  -14.2722 C   0  0  0  0  0  0  0  0  0  0  0  0
   26.4732  -21.7994  -14.7586 O   0  0  0  0  0  0  0  0  0  0  0  0
   26.5846  -20.6208  -10.2469 O   0  0  0  0  0  0  0  0  0  0  0  0
   26.0955  -21.7347  -10.9590 C   0  0  0  0  0  0  0  0  0  0  0  0
   25.4370  -21.3163  -12.2443 C   0  0  2  0  0  0  0  0  0  0  0  0
   26.1806  -20.3773  -13.0095 N   0  0  0  0  0  0  0  0  0  0  0  0
   24.0752  -20.8002  -11.8778 C   0  0  0  0  0  0  0  0  0  0  0  0
   23.9157  -19.9066  -10.9993 O   0  0  0  0  0  0  0  0  0  0  0  0
   22.8989  -21.2914  -12.5010 N   0  0  0  0  0  0  0  0  0  0  0  0
   21.5696  -20.7495  -12.2624 C   0  0  1  0  0  0  0  0  0  0  0  0
   21.6459  -19.2928  -12.7010 C   0  0  0  0  0  0  0  0  0  0  0  0
   21.8765  -19.1138  -14.1322 C   0  0  0  0  0  0  0  0  0  0  0  0
   20.9043  -19.3713  -15.0726 C   0  0  0  0  0  0  0  0  0  0  0  0
   21.1506  -19.1858  -16.4356 C   0  0  0  0  0  0  0  0  0  0  0  0
   22.3670  -18.7432  -16.8640 C   0  0  0  0  0  0  0  0  0  0  0  0
   23.3511  -18.4817  -15.9229 C   0  0  0  0  0  0  0  0  0  0  0  0
   23.1011  -18.6669  -14.5792 C   0  0  0  0  0  0  0  0  0  0  0  0
   20.5305  -21.4858  -12.9911 C   0  0  0  0  0  0  0  0  0  0  0  0
   20.8710  -22.5242  -13.8361 O   0  0  0  0  0  0  0  0  0  0  0  0
   19.3240  -21.1885  -12.8613 O   0  0  0  0  0  0  0  0  0  0  0  0
  2  1  1  6
  3  4  1  0
  3  2  1  0
  4  5  1  0
  5  6  1  0
  7  6  1  0
  8  9  2  0
  8  2  1  0
 10 11  1  0
 12 11  1  1
 12 13  1  0
 12 14  1  0
 13  8  1  0
 14 16  1  0
 15 14  2  0
 16 17  1  0
 17 25  1  0
 17 18  1  6
 19 18  1  0
 20 19  2  0
 21 20  1  0
 22 21  2  0
 22 23  1  0
 23 24  2  0
 24 19  1  0
 25 27  2  0
 25 26  1  0
M  END
$$$$
