KSF.pdb
     RDKit          3D

 27 27  0  0  1  0  0  0  0  0999 V2000
   25.4375  -22.4739  -14.2311 N   0  0  0  0  0  0  0  0  0  0  0  0
   26.0313  -21.1865  -14.3004 C   0  0  1  0  0  0  0  0  0  0  0  0
   25.4931  -20.3461  -15.3900 C   0  0  0  0  0  0  0  0  0  0  0  0
   24.2529  -20.9125  -15.9961 C   0  0  0  0  0  0  0  0  0  0  0  0
   22.9654  -20.6437  -15.3183 C   0  0  0  0  0  0  0  0  0  0  0  0
   22.0973  -21.9102  -15.2454 C   0  0  0  0  0  0  0  0  0  0  0  0
   21.7904  -22.3859  -16.5798 N   0  0  0  0  0  0  0  0  0  0  0  0
   26.0672  -20.4884  -12.9851 C   0  0  0  0  0  0  0  0  0  0  0  0
   26.6921  -19.4074  -12.9208 O   0  0  0  0  0  0  0  0  0  0  0  0
   23.2439  -20.9968  -10.0300 O   0  0  0  0  0  0  0  0  0  0  0  0
   24.0927  -19.8723  -10.0780 C   0  0  0  0  0  0  0  0  0  0  0  0
   25.4566  -20.2380  -10.5943 C   0  0  2  0  0  0  0  0  0  0  0  0
   25.4498  -20.9596  -11.8187 N   0  0  0  0  0  0  0  0  0  0  0  0
   26.1415  -20.9942   -9.4922 C   0  0  0  0  0  0  0  0  0  0  0  0
   26.7672  -22.0694   -9.7112 O   0  0  0  0  0  0  0  0  0  0  0  0
   26.1196  -20.5375   -8.1490 N   0  0  0  0  0  0  0  0  0  0  0  0
   26.5867  -21.3255   -7.0183 C   0  0  1  0  0  0  0  0  0  0  0  0
   28.1039  -21.1922   -7.0362 C   0  0  0  0  0  0  0  0  0  0  0  0
   28.6219  -20.1690   -6.1315 C   0  0  0  0  0  0  0  0  0  0  0  0
   29.0266  -20.4580   -4.8475 C   0  0  0  0  0  0  0  0  0  0  0  0
   29.5236  -19.4600   -4.0050 C   0  0  0  0  0  0  0  0  0  0  0  0
   29.6182  -18.1715   -4.4410 C   0  0  0  0  0  0  0  0  0  0  0  0
   29.2126  -17.8728   -5.7328 C   0  0  0  0  0  0  0  0  0  0  0  0
   28.7231  -18.8629   -6.5590 C   0  0  0  0  0  0  0  0  0  0  0  0
   26.0129  -20.8683   -5.7476 C   0  0  0  0  0  0  0  0  0  0  0  0
   26.1839  -21.6109   -4.5954 O   0  0  0  0  0  0  0  0  0  0  0  0
   25.3621  -19.8038   -5.6846 O   0  0  0  0  0  0  0  0  0  0  0  0
  2  1  1  1
  3  4  1  0
  3  2  1  0
  4  5  1  0
  5  6  1  0
  7  6  1  0
  8  9  2  0
  8  2  1  0
 10 11  1  0
 12 11  1  1
 12 13  1  0
 12 14  1  0
 13  8  1  0
 14 16  1  0
 15 14  2  0
 16 17  1  0
 17 25  1  0
 17 18  1  1
 19 18  1  0
 20 19  2  0
 21 20  1  0
 22 21  2  0
 22 23  1  0
 23 24  2  0
 24 19  1  0
 25 27  2  0
 25 26  1  0
M  END
$$$$
