KSF.pdb
     RDKit          3D

 27 27  0  0  1  0  0  0  0  0999 V2000
   19.7949  -12.2749  -17.6964 N   0  0  0  0  0  0  0  0  0  0  0  0
   19.0649  -11.0919  -17.9837 C   0  0  1  0  0  0  0  0  0  0  0  0
   17.7472  -11.0350  -17.3177 C   0  0  0  0  0  0  0  0  0  0  0  0
   17.5658  -12.1159  -16.3052 C   0  0  0  0  0  0  0  0  0  0  0  0
   16.2860  -12.1632  -15.5641 C   0  0  0  0  0  0  0  0  0  0  0  0
   15.4211  -13.3502  -16.0179 C   0  0  0  0  0  0  0  0  0  0  0  0
   14.2462  -13.4655  -15.1768 N   0  0  0  0  0  0  0  0  0  0  0  0
   19.8682   -9.8510  -17.8002 C   0  0  0  0  0  0  0  0  0  0  0  0
   20.8227   -9.8939  -16.9936 O   0  0  0  0  0  0  0  0  0  0  0  0
   18.8954   -6.1405  -19.5528 O   0  0  0  0  0  0  0  0  0  0  0  0
   20.2598   -6.4400  -19.3631 C   0  0  0  0  0  0  0  0  0  0  0  0
   20.4471   -7.4930  -18.3065 C   0  0  2  0  0  0  0  0  0  0  0  0
   19.6275   -8.6430  -18.4681 N   0  0  0  0  0  0  0  0  0  0  0  0
   20.2230   -6.8161  -16.9848 C   0  0  0  0  0  0  0  0  0  0  0  0
   19.1492   -6.9613  -16.3356 O   0  0  0  0  0  0  0  0  0  0  0  0
   21.2078   -5.9790  -16.3993 N   0  0  0  0  0  0  0  0  0  0  0  0
   21.0352   -5.2935  -15.1273 C   0  0  1  0  0  0  0  0  0  0  0  0
   22.2054   -5.7483  -14.2648 C   0  0  0  0  0  0  0  0  0  0  0  0
   22.1737   -7.1672  -13.9194 C   0  0  0  0  0  0  0  0  0  0  0  0
   21.3635   -7.6648  -12.9236 C   0  0  0  0  0  0  0  0  0  0  0  0
   21.3492   -9.0283  -12.6179 C   0  0  0  0  0  0  0  0  0  0  0  0
   22.1429   -9.8988  -13.3045 C   0  0  0  0  0  0  0  0  0  0  0  0
   22.9616   -9.4051  -14.3087 C   0  0  0  0  0  0  0  0  0  0  0  0
   22.9706   -8.0581  -14.6053 C   0  0  0  0  0  0  0  0  0  0  0  0
   21.0050   -3.8347  -15.2821 C   0  0  0  0  0  0  0  0  0  0  0  0
   20.7429   -3.0213  -14.1966 O   0  0  0  0  0  0  0  0  0  0  0  0
   21.2147   -3.3037  -16.3932 O   0  0  0  0  0  0  0  0  0  0  0  0
  2  1  1  1
  3  4  1  0
  3  2  1  0
  4  5  1  0
  5  6  1  0
  7  6  1  0
  8  9  2  0
  8  2  1  0
 10 11  1  0
 12 11  1  6
 12 13  1  0
 12 14  1  0
 13  8  1  0
 14 16  1  0
 15 14  2  0
 16 17  1  0
 17 25  1  0
 17 18  1  1
 19 18  1  0
 20 19  2  0
 21 20  1  0
 22 21  2  0
 22 23  1  0
 23 24  2  0
 24 19  1  0
 25 27  2  0
 25 26  1  0
M  END
$$$$
