KSF.pdb
     RDKit          3D

 27 27  0  0  1  0  0  0  0  0999 V2000
   26.5243  -17.7565  -20.6152 N   0  0  0  0  0  0  0  0  0  0  0  0
   26.1244  -17.2319  -19.3583 C   0  0  1  0  0  0  0  0  0  0  0  0
   25.5093  -15.8915  -19.4469 C   0  0  0  0  0  0  0  0  0  0  0  0
   26.0158  -15.1001  -20.6060 C   0  0  0  0  0  0  0  0  0  0  0  0
   26.8779  -13.9313  -20.3231 C   0  0  0  0  0  0  0  0  0  0  0  0
   27.2615  -13.1939  -21.6161 C   0  0  0  0  0  0  0  0  0  0  0  0
   28.1746  -12.1072  -21.3222 N   0  0  0  0  0  0  0  0  0  0  0  0
   25.3204  -18.1935  -18.5533 C   0  0  0  0  0  0  0  0  0  0  0  0
   24.1642  -18.4552  -18.9505 O   0  0  0  0  0  0  0  0  0  0  0  0
   26.4050  -19.6502  -14.6715 O   0  0  0  0  0  0  0  0  0  0  0  0
   25.6735  -20.4670  -15.5575 C   0  0  0  0  0  0  0  0  0  0  0  0
   24.9378  -19.6446  -16.5787 C   0  0  2  0  0  0  0  0  0  0  0  0
   25.7709  -18.8224  -17.3849 N   0  0  0  0  0  0  0  0  0  0  0  0
   23.9103  -18.8488  -15.8261 C   0  0  0  0  0  0  0  0  0  0  0  0
   24.0112  -17.5980  -15.6819 O   0  0  0  0  0  0  0  0  0  0  0  0
   22.7741  -19.4635  -15.2392 N   0  0  0  0  0  0  0  0  0  0  0  0
   21.7890  -18.7493  -14.4411 C   0  0  1  0  0  0  0  0  0  0  0  0
   21.2510  -17.6548  -15.3538 C   0  0  0  0  0  0  0  0  0  0  0  0
   20.1829  -16.8556  -14.7587 C   0  0  0  0  0  0  0  0  0  0  0  0
   18.8533  -17.1876  -14.8919 C   0  0  0  0  0  0  0  0  0  0  0  0
   17.8521  -16.4077  -14.3070 C   0  0  0  0  0  0  0  0  0  0  0  0
   18.1744  -15.2949  -13.5879 C   0  0  0  0  0  0  0  0  0  0  0  0
   19.5113  -14.9543  -13.4493 C   0  0  0  0  0  0  0  0  0  0  0  0
   20.4944  -15.7287  -14.0292 C   0  0  0  0  0  0  0  0  0  0  0  0
   20.7208  -19.6313  -13.9573 C   0  0  0  0  0  0  0  0  0  0  0  0
   20.0212  -19.3174  -12.8082 O   0  0  0  0  0  0  0  0  0  0  0  0
   20.4256  -20.6775  -14.5729 O   0  0  0  0  0  0  0  0  0  0  0  0
  2  1  1  6
  3  4  1  0
  3  2  1  0
  4  5  1  0
  5  6  1  0
  7  6  1  0
  8  9  2  0
  8  2  1  0
 10 11  1  0
 12 11  1  1
 12 13  1  0
 12 14  1  0
 13  8  1  0
 14 16  1  0
 15 14  2  0
 16 17  1  0
 17 25  1  0
 17 18  1  6
 19 18  1  0
 20 19  2  0
 21 20  1  0
 22 21  2  0
 22 23  1  0
 23 24  2  0
 24 19  1  0
 25 27  2  0
 25 26  1  0
M  END
$$$$
