KSF.pdb
     RDKit          3D

 27 27  0  0  1  0  0  0  0  0999 V2000
   17.8108  -12.1805  -15.7781 N   0  0  0  0  0  0  0  0  0  0  0  0
   18.6593  -11.2914  -16.4884 C   0  0  1  0  0  0  0  0  0  0  0  0
   18.6089  -11.4718  -17.9540 C   0  0  0  0  0  0  0  0  0  0  0  0
   18.9786  -12.8537  -18.3779 C   0  0  0  0  0  0  0  0  0  0  0  0
   20.2294  -13.4323  -17.8394 C   0  0  0  0  0  0  0  0  0  0  0  0
   20.4919  -14.8321  -18.4178 C   0  0  0  0  0  0  0  0  0  0  0  0
   21.6673  -15.4168  -17.8033 N   0  0  0  0  0  0  0  0  0  0  0  0
   18.5009   -9.8715  -16.0670 C   0  0  0  0  0  0  0  0  0  0  0  0
   18.4896   -8.9999  -16.9634 O   0  0  0  0  0  0  0  0  0  0  0  0
   17.2169   -8.5817  -12.2433 O   0  0  0  0  0  0  0  0  0  0  0  0
   17.0930   -7.8084  -13.4154 C   0  0  0  0  0  0  0  0  0  0  0  0
   18.2194   -8.0819  -14.3730 C   0  0  2  0  0  0  0  0  0  0  0  0
   18.3643   -9.4478  -14.7383 N   0  0  0  0  0  0  0  0  0  0  0  0
   19.4628   -7.5277  -13.7388 C   0  0  0  0  0  0  0  0  0  0  0  0
   20.1880   -8.2246  -12.9746 O   0  0  0  0  0  0  0  0  0  0  0  0
   19.8848   -6.1925  -13.9671 N   0  0  0  0  0  0  0  0  0  0  0  0
   21.0974   -5.6190  -13.4028 C   0  0  1  0  0  0  0  0  0  0  0  0
   22.2313   -6.5006  -13.9099 C   0  0  0  0  0  0  0  0  0  0  0  0
   22.4056   -6.4702  -15.3599 C   0  0  0  0  0  0  0  0  0  0  0  0
   22.9170   -5.3738  -16.0173 C   0  0  0  0  0  0  0  0  0  0  0  0
   23.0782   -5.3743  -17.4054 C   0  0  0  0  0  0  0  0  0  0  0  0
   22.7298   -6.4681  -18.1412 C   0  0  0  0  0  0  0  0  0  0  0  0
   22.2141   -7.5761  -17.4861 C   0  0  0  0  0  0  0  0  0  0  0  0
   22.0578   -7.5687  -16.1157 C   0  0  0  0  0  0  0  0  0  0  0  0
   21.2809   -4.2158  -13.7905 C   0  0  0  0  0  0  0  0  0  0  0  0
   20.3769   -3.5989  -14.6334 O   0  0  0  0  0  0  0  0  0  0  0  0
   22.2538   -3.5561  -13.3674 O   0  0  0  0  0  0  0  0  0  0  0  0
  2  1  1  1
  3  4  1  0
  3  2  1  0
  4  5  1  0
  5  6  1  0
  7  6  1  0
  8  9  2  0
  8  2  1  0
 10 11  1  0
 12 11  1  1
 12 13  1  0
 12 14  1  0
 13  8  1  0
 14 16  1  0
 15 14  2  0
 16 17  1  0
 17 25  1  0
 17 18  1  6
 19 18  1  0
 20 19  2  0
 21 20  1  0
 22 21  2  0
 22 23  1  0
 23 24  2  0
 24 19  1  0
 25 27  2  0
 25 26  1  0
M  END
$$$$
