KSF.pdb
     RDKit          3D

 27 27  0  0  1  0  0  0  0  0999 V2000
   27.1296  -17.5874  -21.0491 N   0  0  0  0  0  0  0  0  0  0  0  0
   26.5451  -17.1869  -19.8192 C   0  0  1  0  0  0  0  0  0  0  0  0
   26.0865  -15.7824  -19.8133 C   0  0  0  0  0  0  0  0  0  0  0  0
   27.2079  -14.8090  -19.9589 C   0  0  0  0  0  0  0  0  0  0  0  0
   27.6071  -14.4117  -21.3272 C   0  0  0  0  0  0  0  0  0  0  0  0
   28.6626  -13.2945  -21.2990 C   0  0  0  0  0  0  0  0  0  0  0  0
   29.1180  -13.0005  -22.6432 N   0  0  0  0  0  0  0  0  0  0  0  0
   25.5146  -18.1418  -19.3241 C   0  0  0  0  0  0  0  0  0  0  0  0
   24.6340  -18.5121  -20.1307 O   0  0  0  0  0  0  0  0  0  0  0  0
   25.0123  -19.2060  -15.2380 O   0  0  0  0  0  0  0  0  0  0  0  0
   24.6772  -20.1474  -16.2324 C   0  0  0  0  0  0  0  0  0  0  0  0
   24.4083  -19.4779  -17.5514 C   0  0  2  0  0  0  0  0  0  0  0  0
   25.4656  -18.6516  -18.0197 N   0  0  0  0  0  0  0  0  0  0  0  0
   23.1221  -18.7193  -17.3907 C   0  0  0  0  0  0  0  0  0  0  0  0
   23.0918  -17.4567  -17.3692 O   0  0  0  0  0  0  0  0  0  0  0  0
   21.8761  -19.3843  -17.2548 N   0  0  0  0  0  0  0  0  0  0  0  0
   20.6012  -18.6955  -17.1219 C   0  0  1  0  0  0  0  0  0  0  0  0
   20.4183  -17.9349  -18.4289 C   0  0  0  0  0  0  0  0  0  0  0  0
   19.1196  -17.2789  -18.5587 C   0  0  0  0  0  0  0  0  0  0  0  0
   18.9051  -15.9825  -18.1474 C   0  0  0  0  0  0  0  0  0  0  0  0
   17.6532  -15.3778  -18.2888 C   0  0  0  0  0  0  0  0  0  0  0  0
   16.6124  -16.0644  -18.8407 C   0  0  0  0  0  0  0  0  0  0  0  0
   16.8209  -17.3703  -19.2572 C   0  0  0  0  0  0  0  0  0  0  0  0
   18.0591  -17.9610  -19.1147 C   0  0  0  0  0  0  0  0  0  0  0  0
   19.4924  -19.6228  -16.8696 C   0  0  0  0  0  0  0  0  0  0  0  0
   19.4991  -20.8884  -17.4233 O   0  0  0  0  0  0  0  0  0  0  0  0
   18.5262  -19.2864  -16.1527 O   0  0  0  0  0  0  0  0  0  0  0  0
  2  1  1  6
  3  4  1  0
  3  2  1  0
  4  5  1  0
  5  6  1  0
  7  6  1  0
  8  9  2  0
  8  2  1  0
 10 11  1  0
 12 11  1  1
 12 13  1  0
 12 14  1  0
 13  8  1  0
 14 16  1  0
 15 14  2  0
 16 17  1  0
 17 25  1  0
 17 18  1  6
 19 18  1  0
 20 19  2  0
 21 20  1  0
 22 21  2  0
 22 23  1  0
 23 24  2  0
 24 19  1  0
 25 27  2  0
 25 26  1  0
M  END
$$$$
