KSF.pdb
     RDKit          3D

 27 27  0  0  1  0  0  0  0  0999 V2000
   19.1847  -11.8821  -19.7199 N   0  0  0  0  0  0  0  0  0  0  0  0
   20.3318  -11.0502  -19.6356 C   0  0  1  0  0  0  0  0  0  0  0  0
   20.5097  -10.1696  -20.8087 C   0  0  0  0  0  0  0  0  0  0  0  0
   21.4370  -10.7450  -21.8262 C   0  0  0  0  0  0  0  0  0  0  0  0
   22.6028   -9.9328  -22.2391 C   0  0  0  0  0  0  0  0  0  0  0  0
   23.4057  -10.6312  -23.3483 C   0  0  0  0  0  0  0  0  0  0  0  0
   24.2928  -11.6245  -22.7762 N   0  0  0  0  0  0  0  0  0  0  0  0
   20.4334  -10.3255  -18.3382 C   0  0  0  0  0  0  0  0  0  0  0  0
   19.5238   -9.5158  -18.0551 O   0  0  0  0  0  0  0  0  0  0  0  0
   23.6583  -10.7509  -15.5758 O   0  0  0  0  0  0  0  0  0  0  0  0
   22.3704  -10.3948  -15.1263 C   0  0  0  0  0  0  0  0  0  0  0  0
   21.5737   -9.7339  -16.2166 C   0  0  2  0  0  0  0  0  0  0  0  0
   21.4761  -10.4894  -17.4165 N   0  0  0  0  0  0  0  0  0  0  0  0
   22.1955   -8.3856  -16.4422 C   0  0  0  0  0  0  0  0  0  0  0  0
   22.7291   -8.0743  -17.5440 O   0  0  0  0  0  0  0  0  0  0  0  0
   22.2144   -7.3939  -15.4278 N   0  0  0  0  0  0  0  0  0  0  0  0
   22.7590   -6.0571  -15.6125 C   0  0  1  0  0  0  0  0  0  0  0  0
   21.9129   -5.4279  -16.7117 C   0  0  0  0  0  0  0  0  0  0  0  0
   22.2201   -4.0232  -16.9685 C   0  0  0  0  0  0  0  0  0  0  0  0
   21.5396   -2.9962  -16.3537 C   0  0  0  0  0  0  0  0  0  0  0  0
   21.8584   -1.6608  -16.6139 C   0  0  0  0  0  0  0  0  0  0  0  0
   22.8566   -1.3463  -17.4879 C   0  0  0  0  0  0  0  0  0  0  0  0
   23.5466   -2.3751  -18.1109 C   0  0  0  0  0  0  0  0  0  0  0  0
   23.2266   -3.6910  -17.8493 C   0  0  0  0  0  0  0  0  0  0  0  0
   22.7240   -5.2673  -14.3764 C   0  0  0  0  0  0  0  0  0  0  0  0
   23.7063   -4.3314  -14.1162 O   0  0  0  0  0  0  0  0  0  0  0  0
   21.8095   -5.4258  -13.5402 O   0  0  0  0  0  0  0  0  0  0  0  0
  2  1  1  6
  3  4  1  0
  3  2  1  0
  4  5  1  0
  5  6  1  0
  7  6  1  0
  8  9  2  0
  8  2  1  0
 10 11  1  0
 12 11  1  1
 12 13  1  0
 12 14  1  0
 13  8  1  0
 14 16  1  0
 15 14  2  0
 16 17  1  0
 17 25  1  0
 17 18  1  6
 19 18  1  0
 20 19  2  0
 21 20  1  0
 22 21  2  0
 22 23  1  0
 23 24  2  0
 24 19  1  0
 25 27  2  0
 25 26  1  0
M  END
$$$$
