KSF.pdb
     RDKit          3D

 27 27  0  0  1  0  0  0  0  0999 V2000
   26.0987  -14.8766  -22.6000 N   0  0  0  0  0  0  0  0  0  0  0  0
   25.9059  -15.7226  -21.4766 C   0  0  1  0  0  0  0  0  0  0  0  0
   26.3038  -15.1027  -20.1958 C   0  0  0  0  0  0  0  0  0  0  0  0
   27.7734  -15.1800  -19.9497 C   0  0  0  0  0  0  0  0  0  0  0  0
   28.6472  -14.2256  -20.6673 C   0  0  0  0  0  0  0  0  0  0  0  0
   30.1244  -14.4325  -20.2959 C   0  0  0  0  0  0  0  0  0  0  0  0
   30.7941  -15.2131  -21.3172 N   0  0  0  0  0  0  0  0  0  0  0  0
   24.5495  -16.3366  -21.4339 C   0  0  0  0  0  0  0  0  0  0  0  0
   23.5685  -15.5665  -21.3455 O   0  0  0  0  0  0  0  0  0  0  0  0
   23.6619  -20.4279  -20.7118 O   0  0  0  0  0  0  0  0  0  0  0  0
   22.9380  -19.7512  -21.7144 C   0  0  0  0  0  0  0  0  0  0  0  0
   22.9880  -18.2619  -21.5145 C   0  0  2  0  0  0  0  0  0  0  0  0
   24.2993  -17.7143  -21.4860 N   0  0  0  0  0  0  0  0  0  0  0  0
   22.2240  -17.9745  -20.2539 C   0  0  0  0  0  0  0  0  0  0  0  0
   22.8090  -17.6998  -19.1686 O   0  0  0  0  0  0  0  0  0  0  0  0
   20.8058  -17.9975  -20.2198 N   0  0  0  0  0  0  0  0  0  0  0  0
   20.0214  -17.7767  -19.0142 C   0  0  1  0  0  0  0  0  0  0  0  0
   20.2819  -16.3269  -18.6263 C   0  0  0  0  0  0  0  0  0  0  0  0
   19.7238  -15.3518  -19.5598 C   0  0  0  0  0  0  0  0  0  0  0  0
   20.5051  -14.6651  -20.4619 C   0  0  0  0  0  0  0  0  0  0  0  0
   19.9435  -13.7416  -21.3476 C   0  0  0  0  0  0  0  0  0  0  0  0
   18.6014  -13.5007  -21.3358 C   0  0  0  0  0  0  0  0  0  0  0  0
   17.8081  -14.1884  -20.4302 C   0  0  0  0  0  0  0  0  0  0  0  0
   18.3691  -15.0987  -19.5588 C   0  0  0  0  0  0  0  0  0  0  0  0
   18.5929  -18.0376  -19.2252 C   0  0  0  0  0  0  0  0  0  0  0  0
   18.1329  -18.4552  -20.4590 O   0  0  0  0  0  0  0  0  0  0  0  0
   17.7702  -17.8876  -18.2971 O   0  0  0  0  0  0  0  0  0  0  0  0
  2  1  1  6
  3  4  1  0
  3  2  1  0
  4  5  1  0
  5  6  1  0
  7  6  1  0
  8  9  2  0
  8  2  1  0
 10 11  1  0
 12 11  1  1
 12 13  1  0
 12 14  1  0
 13  8  1  0
 14 16  1  0
 15 14  2  0
 16 17  1  0
 17 25  1  0
 17 18  1  6
 19 18  1  0
 20 19  2  0
 21 20  1  0
 22 21  2  0
 22 23  1  0
 23 24  2  0
 24 19  1  0
 25 27  2  0
 25 26  1  0
M  END
$$$$
