KSF.pdb
     RDKit          3D

 27 27  0  0  1  0  0  0  0  0999 V2000
   23.2485  -16.2487  -19.6689 N   0  0  0  0  0  0  0  0  0  0  0  0
   23.1490  -16.3871  -18.2597 C   0  0  1  0  0  0  0  0  0  0  0  0
   22.1246  -15.5130  -17.6516 C   0  0  0  0  0  0  0  0  0  0  0  0
   22.5199  -14.0742  -17.6530 C   0  0  0  0  0  0  0  0  0  0  0  0
   22.1510  -13.2556  -18.8291 C   0  0  0  0  0  0  0  0  0  0  0  0
   22.6562  -11.8110  -18.6849 C   0  0  0  0  0  0  0  0  0  0  0  0
   22.4943  -11.0956  -19.9351 N   0  0  0  0  0  0  0  0  0  0  0  0
   23.0454  -17.8060  -17.8182 C   0  0  0  0  0  0  0  0  0  0  0  0
   21.9828  -18.4144  -18.0711 O   0  0  0  0  0  0  0  0  0  0  0  0
   26.2138  -20.1092  -16.0459 O   0  0  0  0  0  0  0  0  0  0  0  0
   25.1898  -20.6650  -16.8395 C   0  0  0  0  0  0  0  0  0  0  0  0
   23.9236  -19.8603  -16.7412 C   0  0  2  0  0  0  0  0  0  0  0  0
   24.0550  -18.5027  -17.1408 N   0  0  0  0  0  0  0  0  0  0  0  0
   23.4429  -19.9923  -15.3245 C   0  0  0  0  0  0  0  0  0  0  0  0
   23.9716  -19.3432  -14.3786 O   0  0  0  0  0  0  0  0  0  0  0  0
   22.3700  -20.8537  -14.9782 N   0  0  0  0  0  0  0  0  0  0  0  0
   21.9183  -21.0757  -13.6128 C   0  0  1  0  0  0  0  0  0  0  0  0
   21.5602  -19.6946  -13.0795 C   0  0  0  0  0  0  0  0  0  0  0  0
   20.9155  -19.7118  -11.7689 C   0  0  0  0  0  0  0  0  0  0  0  0
   19.5551  -19.8621  -11.6192 C   0  0  0  0  0  0  0  0  0  0  0  0
   18.9655  -19.8805  -10.3524 C   0  0  0  0  0  0  0  0  0  0  0  0
   19.7311  -19.7491   -9.2318 C   0  0  0  0  0  0  0  0  0  0  0  0
   21.1020  -19.5974   -9.3745 C   0  0  0  0  0  0  0  0  0  0  0  0
   21.6773  -19.5801  -10.6280 C   0  0  0  0  0  0  0  0  0  0  0  0
   20.7797  -21.9989  -13.5474 C   0  0  0  0  0  0  0  0  0  0  0  0
   19.9665  -22.1858  -14.6484 O   0  0  0  0  0  0  0  0  0  0  0  0
   20.5258  -22.6300  -12.4996 O   0  0  0  0  0  0  0  0  0  0  0  0
  2  1  1  6
  3  4  1  0
  3  2  1  0
  4  5  1  0
  5  6  1  0
  7  6  1  0
  8  9  2  0
  8  2  1  0
 10 11  1  0
 12 11  1  1
 12 13  1  0
 12 14  1  0
 13  8  1  0
 14 16  1  0
 15 14  2  0
 16 17  1  0
 17 25  1  0
 17 18  1  6
 19 18  1  0
 20 19  2  0
 21 20  1  0
 22 21  2  0
 22 23  1  0
 23 24  2  0
 24 19  1  0
 25 27  2  0
 25 26  1  0
M  END
$$$$
