RLV.pdb
     RDKit          3D

 27 26  0  0  1  0  0  0  0  0999 V2000
    8.5355  -12.4640   16.5807 N   0  0  0  0  0  0  0  0  0  0  0  0
    8.1725  -13.8254   16.7865 C   0  0  0  0  0  0  0  0  0  0  0  0
    8.8180  -14.7273   16.1317 N   0  0  0  0  0  0  0  0  0  0  0  0
    7.1289  -14.1804   17.6865 N   0  0  0  0  0  0  0  0  0  0  0  0
    7.3363  -13.9920   19.1037 C   0  0  0  0  0  0  0  0  0  0  0  0
    8.7087  -14.3627   19.5477 C   0  0  0  0  0  0  0  0  0  0  0  0
    8.8707  -14.2581   21.0126 C   0  0  0  0  0  0  0  0  0  0  0  0
    8.7302  -15.5009   21.8160 C   0  0  2  0  0  0  0  0  0  0  0  0
    7.4315  -16.1034   21.7935 N   0  0  0  0  0  0  0  0  0  0  0  0
    9.0585  -15.1167   23.2409 C   0  0  0  0  0  0  0  0  0  0  0  0
   10.2398  -14.7476   23.4914 O   0  0  0  0  0  0  0  0  0  0  0  0
    8.6154  -15.7252   16.2718 C   0  0  0  0  0  0  0  0  0  0  0  0
    5.6876  -12.1620   26.4106 C   0  0  1  0  0  0  0  0  0  0  0  0
    6.9777  -12.5822   25.6301 C   0  0  0  0  0  0  0  0  0  0  0  0
    7.9308  -11.4661   25.8663 C   0  0  0  0  0  0  0  0  0  0  0  0
    7.3115  -13.9101   26.1353 C   0  0  2  0  0  0  0  0  0  0  0  0
    8.4645  -14.6882   25.6729 N   0  0  0  0  0  0  0  0  0  0  0  0
    8.1112  -15.1553   24.2814 C   0  0  0  0  0  0  0  0  0  0  0  0
    8.7541  -15.9281   26.4042 O   0  0  0  0  0  0  0  0  0  0  0  0
    8.9986  -15.9166   27.6678 C   0  0  0  0  0  0  0  0  0  0  0  0
    9.0345  -20.9105   26.5153 C   0  0  2  0  0  0  0  0  0  0  0  0
    8.7282  -19.6193   25.8369 C   0  0  0  0  0  0  0  0  0  0  0  0
    7.2729  -19.5402   25.4071 C   0  0  1  0  0  0  0  0  0  0  0  0
    9.1368  -18.3914   26.6338 N   0  0  0  0  0  0  0  0  0  0  0  0
    8.7879  -17.2420   25.8304 C   0  0  0  0  0  0  0  0  0  0  0  0
   10.5307  -18.4457   27.0660 O   0  0  0  0  0  0  0  0  0  0  0  0
   11.0201  -18.8517   28.2739 O   0  0  0  0  0  0  0  0  0  0  0  0
  2  3  2  0
  2  1  1  0
  4  2  1  0
  5  4  1  0
  6  5  1  0
  7  6  1  0
  8 10  1  0
  8  7  1  0
  8  9  1  1
 10 11  2  0
 13 12  1  6
 14 13  1  0
 16 15  1  6
 15 13  1  0
 17 16  1  0
 17 10  1  0
 18 16  1  0
 19 18  2  0
 21 20  1  6
 21 22  1  0
 23 21  1  0
 23 24  1  6
 24 18  1  0
 25 26  1  0
 25 23  1  0
 27 25  2  0
M  END
$$$$
