RLV.pdb
     RDKit          3D

 27 26  0  0  1  0  0  0  0  0999 V2000
    9.3797  -14.1976   16.2815 N   0  0  0  0  0  0  0  0  0  0  0  0
    8.0694  -13.6474   16.1925 C   0  0  0  0  0  0  0  0  0  0  0  0
    7.4652  -13.7092   15.0567 N   0  0  0  0  0  0  0  0  0  0  0  0
    7.4455  -13.0468   17.3218 N   0  0  0  0  0  0  0  0  0  0  0  0
    8.0979  -13.1350   18.6076 C   0  0  0  0  0  0  0  0  0  0  0  0
    7.6524  -14.3080   19.4097 C   0  0  0  0  0  0  0  0  0  0  0  0
    8.3388  -14.3866   20.7158 C   0  0  0  0  0  0  0  0  0  0  0  0
    8.2418  -15.6613   21.4743 C   0  0  2  0  0  0  0  0  0  0  0  0
    6.9164  -16.1751   21.6452 N   0  0  0  0  0  0  0  0  0  0  0  0
    8.8298  -15.3816   22.8387 C   0  0  0  0  0  0  0  0  0  0  0  0
   10.0723  -15.1679   22.9092 O   0  0  0  0  0  0  0  0  0  0  0  0
    6.5601  -13.2427   14.9163 C   0  0  0  0  0  0  0  0  0  0  0  0
    6.0866  -12.7530   26.8704 C   0  0  1  0  0  0  0  0  0  0  0  0
    7.2207  -13.0452   25.8319 C   0  0  0  0  0  0  0  0  0  0  0  0
    8.1608  -11.9036   25.9825 C   0  0  0  0  0  0  0  0  0  0  0  0
    7.6908  -14.3895   26.1513 C   0  0  2  0  0  0  0  0  0  0  0  0
    8.6941  -15.1078   25.3601 N   0  0  0  0  0  0  0  0  0  0  0  0
    8.0556  -15.3516   24.0140 C   0  0  0  0  0  0  0  0  0  0  0  0
    9.0618  -16.4493   25.8304 O   0  0  0  0  0  0  0  0  0  0  0  0
    8.2121  -17.4160   25.8223 C   0  0  0  0  0  0  0  0  0  0  0  0
   12.9653  -17.9372   25.9941 C   0  0  2  0  0  0  0  0  0  0  0  0
   11.7159  -18.7498   25.9778 C   0  0  0  0  0  0  0  0  0  0  0  0
   11.9831  -20.2010   26.3403 C   0  0  1  0  0  0  0  0  0  0  0  0
   10.5907  -18.1683   26.8177 N   0  0  0  0  0  0  0  0  0  0  0  0
   10.3534  -16.8315   26.3227 C   0  0  0  0  0  0  0  0  0  0  0  0
   10.8592  -18.2605   28.2502 O   0  0  0  0  0  0  0  0  0  0  0  0
   10.7818  -19.3642   29.0497 O   0  0  0  0  0  0  0  0  0  0  0  0
  2  3  2  0
  2  1  1  0
  4  2  1  0
  5  4  1  0
  6  5  1  0
  7  6  1  0
  8 10  1  0
  8  7  1  0
  8  9  1  1
 10 11  2  0
 13 12  1  6
 14 13  1  0
 16 15  1  6
 15 13  1  0
 17 16  1  0
 17 10  1  0
 18 16  1  0
 19 18  2  0
 21 20  1  6
 21 22  1  0
 23 21  1  0
 23 24  1  6
 24 18  1  0
 25 26  1  0
 25 23  1  0
 27 25  2  0
M  END
$$$$
