RLV.pdb
     RDKit          3D

 27 26  0  0  1  0  0  0  0  0999 V2000
    7.8044  -20.5728   18.3682 N   0  0  0  0  0  0  0  0  0  0  0  0
    9.0074  -21.0467   18.9647 C   0  0  0  0  0  0  0  0  0  0  0  0
    8.9281  -21.5977   20.1263 N   0  0  0  0  0  0  0  0  0  0  0  0
   10.2590  -20.9161   18.3004 N   0  0  0  0  0  0  0  0  0  0  0  0
   10.2873  -20.3493   16.9719 C   0  0  0  0  0  0  0  0  0  0  0  0
    9.9337  -18.9029   16.9461 C   0  0  0  0  0  0  0  0  0  0  0  0
   10.8552  -18.1162   16.1003 C   0  0  0  0  0  0  0  0  0  0  0  0
   10.6036  -16.6567   15.9728 C   0  0  2  0  0  0  0  0  0  0  0  0
   11.5285  -15.9440   15.1442 N   0  0  0  0  0  0  0  0  0  0  0  0
   10.6807  -16.0953   17.3744 C   0  0  0  0  0  0  0  0  0  0  0  0
   11.8242  -15.8189   17.8333 O   0  0  0  0  0  0  0  0  0  0  0  0
    9.7762  -21.8834   20.6318 C   0  0  0  0  0  0  0  0  0  0  0  0
    6.4046  -13.1431   19.6505 C   0  0  2  0  0  0  0  0  0  0  0  0
    7.8715  -13.3308   19.1376 C   0  0  0  0  0  0  0  0  0  0  0  0
    8.5545  -12.0620   19.5033 C   0  0  0  0  0  0  0  0  0  0  0  0
    8.3298  -14.5760   19.7455 C   0  0  2  0  0  0  0  0  0  0  0  0
    9.6514  -15.1608   19.5000 N   0  0  0  0  0  0  0  0  0  0  0  0
    9.5432  -15.8733   18.1735 C   0  0  0  0  0  0  0  0  0  0  0  0
   10.0890  -16.2061   20.4336 O   0  0  0  0  0  0  0  0  0  0  0  0
    9.6626  -17.4161   20.3291 C   0  0  0  0  0  0  0  0  0  0  0  0
   13.2919  -18.0822   23.6432 C   0  0  2  0  0  0  0  0  0  0  0  0
   12.8083  -17.0569   22.6755 C   0  0  0  0  0  0  0  0  0  0  0  0
   13.5855  -17.1031   21.3707 C   0  0  1  0  0  0  0  0  0  0  0  0
   11.3094  -17.1004   22.4281 N   0  0  0  0  0  0  0  0  0  0  0  0
   11.0091  -16.0190   21.5176 C   0  0  0  0  0  0  0  0  0  0  0  0
   10.5392  -17.0983   23.6688 O   0  0  0  0  0  0  0  0  0  0  0  0
    9.6773  -16.1410   24.1205 O   0  0  0  0  0  0  0  0  0  0  0  0
  2  3  2  0
  2  1  1  0
  4  2  1  0
  5  4  1  0
  6  5  1  0
  7  6  1  0
  8 10  1  0
  8  7  1  0
  8  9  1  6
 10 11  2  0
 13 12  1  6
 14 13  1  0
 16 15  1  6
 15 13  1  0
 17 16  1  0
 17 10  1  0
 18 16  1  0
 19 18  2  0
 21 20  1  1
 21 22  1  0
 23 21  1  0
 23 24  1  1
 24 18  1  0
 25 26  1  0
 25 23  1  0
 27 25  2  0
M  END
$$$$
