RLV.pdb
     RDKit          3D

 27 26  0  0  1  0  0  0  0  0999 V2000
   12.0302  -19.6139   16.6112 N   0  0  0  0  0  0  0  0  0  0  0  0
   11.3272  -19.6019   15.3729 C   0  0  0  0  0  0  0  0  0  0  0  0
   11.9004  -20.1328   14.3489 N   0  0  0  0  0  0  0  0  0  0  0  0
   10.0322  -19.0215   15.2679 N   0  0  0  0  0  0  0  0  0  0  0  0
    9.4184  -18.4674   16.4524 C   0  0  0  0  0  0  0  0  0  0  0  0
    9.8503  -19.1455   17.7060 C   0  0  0  0  0  0  0  0  0  0  0  0
   10.4145  -18.1980   18.6895 C   0  0  0  0  0  0  0  0  0  0  0  0
    9.9761  -18.3244   20.1042 C   0  0  2  0  0  0  0  0  0  0  0  0
    8.6360  -18.7920   20.2927 N   0  0  0  0  0  0  0  0  0  0  0  0
   10.0924  -16.9411   20.7030 C   0  0  0  0  0  0  0  0  0  0  0  0
   11.2227  -16.3794   20.6664 O   0  0  0  0  0  0  0  0  0  0  0  0
   11.5052  -20.0186   13.4070 C   0  0  0  0  0  0  0  0  0  0  0  0
    6.3386  -13.1970   19.7176 C   0  0  1  0  0  0  0  0  0  0  0  0
    7.7499  -13.8688   19.8021 C   0  0  0  0  0  0  0  0  0  0  0  0
    8.6560  -12.9092   19.1180 C   0  0  0  0  0  0  0  0  0  0  0  0
    7.9565  -14.1410   21.2210 C   0  0  2  0  0  0  0  0  0  0  0  0
    9.1333  -14.8359   21.7512 N   0  0  0  0  0  0  0  0  0  0  0  0
    9.0047  -16.2677   21.2905 C   0  0  0  0  0  0  0  0  0  0  0  0
    9.2311  -14.9371   23.2127 O   0  0  0  0  0  0  0  0  0  0  0  0
    9.2049  -13.8882   23.9582 C   0  0  0  0  0  0  0  0  0  0  0  0
    7.2662  -14.6119   24.9276 C   0  0  2  0  0  0  0  0  0  0  0  0
    7.7486  -15.8074   25.6757 C   0  0  0  0  0  0  0  0  0  0  0  0
    6.8304  -17.0022   25.4806 C   0  0  2  0  0  0  0  0  0  0  0  0
    9.1967  -16.1705   25.3910 N   0  0  0  0  0  0  0  0  0  0  0  0
    9.3512  -16.1588   23.9542 C   0  0  0  0  0  0  0  0  0  0  0  0
    9.5999  -17.4109   26.0479 O   0  0  0  0  0  0  0  0  0  0  0  0
    9.8218  -17.6229   27.3780 O   0  0  0  0  0  0  0  0  0  0  0  0
  2  3  2  0
  2  1  1  0
  4  2  1  0
  5  4  1  0
  6  5  1  0
  7  6  1  0
  8 10  1  0
  8  7  1  0
  8  9  1  6
 10 11  2  0
 13 12  1  6
 14 13  1  0
 16 15  1  6
 15 13  1  0
 17 16  1  0
 17 10  1  0
 18 16  1  0
 19 18  2  0
 21 20  1  1
 21 22  1  0
 23 21  1  0
 23 24  1  1
 24 18  1  0
 25 26  1  0
 25 23  1  0
 27 25  2  0
M  END
$$$$
