RLV.pdb
     RDKit          3D

 27 26  0  0  1  0  0  0  0  0999 V2000
   10.7053  -20.7167   17.5635 N   0  0  0  0  0  0  0  0  0  0  0  0
    9.8200  -19.7276   17.0480 C   0  0  0  0  0  0  0  0  0  0  0  0
    9.0380  -20.0632   16.0812 N   0  0  0  0  0  0  0  0  0  0  0  0
    9.7990  -18.4089   17.5825 N   0  0  0  0  0  0  0  0  0  0  0  0
   10.6650  -18.0936   18.6949 C   0  0  0  0  0  0  0  0  0  0  0  0
   10.0845  -18.4723   20.0130 C   0  0  0  0  0  0  0  0  0  0  0  0
   10.4170  -17.4973   21.0723 C   0  0  0  0  0  0  0  0  0  0  0  0
    9.9306  -17.7766   22.4489 C   0  0  2  0  0  0  0  0  0  0  0  0
    8.6419  -18.3951   22.5314 N   0  0  0  0  0  0  0  0  0  0  0  0
    9.8685  -16.4385   23.1497 C   0  0  0  0  0  0  0  0  0  0  0  0
   10.9181  -15.7366   23.1676 O   0  0  0  0  0  0  0  0  0  0  0  0
    8.3462  -19.3999   15.7098 C   0  0  0  0  0  0  0  0  0  0  0  0
    7.0567  -11.9488   24.8926 C   0  0  2  0  0  0  0  0  0  0  0  0
    6.8397  -13.2866   25.6757 C   0  0  0  0  0  0  0  0  0  0  0  0
    5.4119  -13.2448   26.0873 C   0  0  0  0  0  0  0  0  0  0  0  0
    7.2770  -14.3369   24.7616 C   0  0  1  0  0  0  0  0  0  0  0  0
    8.6831  -14.6015   24.4423 N   0  0  0  0  0  0  0  0  0  0  0  0
    8.7029  -15.9546   23.7732 C   0  0  0  0  0  0  0  0  0  0  0  0
    9.5966  -14.7519   25.5819 O   0  0  0  0  0  0  0  0  0  0  0  0
   10.4140  -13.8138   25.9111 C   0  0  0  0  0  0  0  0  0  0  0  0
   10.4519  -14.6667   29.8773 C   0  0  2  0  0  0  0  0  0  0  0  0
    9.8240  -14.7916   28.5313 C   0  0  0  0  0  0  0  0  0  0  0  0
    9.7657  -13.4551   27.8107 C   0  0  1  0  0  0  0  0  0  0  0  0
   10.4494  -15.8650   27.6558 N   0  0  0  0  0  0  0  0  0  0  0  0
    9.6790  -15.9027   26.4338 C   0  0  0  0  0  0  0  0  0  0  0  0
   10.5771  -17.1446   28.3480 O   0  0  0  0  0  0  0  0  0  0  0  0
   11.5786  -17.5522   29.1813 O   0  0  0  0  0  0  0  0  0  0  0  0
  2  3  2  0
  2  1  1  0
  4  2  1  0
  5  4  1  0
  6  5  1  0
  7  6  1  0
  8 10  1  0
  8  7  1  0
  8  9  1  6
 10 11  2  0
 13 12  1  1
 14 13  1  0
 16 15  1  6
 15 13  1  0
 17 16  1  0
 17 10  1  0
 18 16  1  0
 19 18  2  0
 21 20  1  1
 21 22  1  0
 23 21  1  0
 23 24  1  1
 24 18  1  0
 25 26  1  0
 25 23  1  0
 27 25  2  0
M  END
$$$$
