RLV.pdb
     RDKit          3D

 27 26  0  0  1  0  0  0  0  0999 V2000
    9.3955  -13.2012   17.9998 N   0  0  0  0  0  0  0  0  0  0  0  0
    8.8074  -12.4657   19.0679 C   0  0  0  0  0  0  0  0  0  0  0  0
    9.2858  -11.2993   19.3321 N   0  0  0  0  0  0  0  0  0  0  0  0
    7.7255  -13.0009   19.8215 N   0  0  0  0  0  0  0  0  0  0  0  0
    7.2513  -14.3302   19.5131 C   0  0  0  0  0  0  0  0  0  0  0  0
    6.9895  -15.1533   20.7263 C   0  0  0  0  0  0  0  0  0  0  0  0
    7.9607  -16.2569   20.8746 C   0  0  0  0  0  0  0  0  0  0  0  0
    7.7719  -17.1987   22.0090 C   0  0  2  0  0  0  0  0  0  0  0  0
    6.4114  -17.5082   22.3306 N   0  0  0  0  0  0  0  0  0  0  0  0
    8.4130  -16.5407   23.2097 C   0  0  0  0  0  0  0  0  0  0  0  0
    9.6538  -16.3115   23.1599 O   0  0  0  0  0  0  0  0  0  0  0  0
    8.8437  -10.6970   20.0379 C   0  0  0  0  0  0  0  0  0  0  0  0
    5.7423  -12.9975   26.7471 C   0  0  1  0  0  0  0  0  0  0  0  0
    6.8101  -13.4498   25.6958 C   0  0  0  0  0  0  0  0  0  0  0  0
    7.7407  -12.2949   25.5959 C   0  0  0  0  0  0  0  0  0  0  0  0
    7.3204  -14.7222   26.1964 C   0  0  2  0  0  0  0  0  0  0  0  0
    8.3679  -15.4972   25.5249 N   0  0  0  0  0  0  0  0  0  0  0  0
    7.6893  -16.1805   24.3622 C   0  0  0  0  0  0  0  0  0  0  0  0
    8.9607  -16.5999   26.2920 O   0  0  0  0  0  0  0  0  0  0  0  0
    8.2560  -17.6120   26.6603 C   0  0  0  0  0  0  0  0  0  0  0  0
   12.8669  -19.3472   27.3913 C   0  0  2  0  0  0  0  0  0  0  0  0
   12.1654  -18.2020   26.7449 C   0  0  0  0  0  0  0  0  0  0  0  0
   12.0246  -18.4015   25.2452 C   0  0  1  0  0  0  0  0  0  0  0  0
   10.8308  -17.8556   27.3843 N   0  0  0  0  0  0  0  0  0  0  0  0
   10.3340  -16.6858   26.6965 C   0  0  0  0  0  0  0  0  0  0  0  0
   10.9245  -17.7282   28.8361 O   0  0  0  0  0  0  0  0  0  0  0  0
   10.8387  -18.7172   29.7730 O   0  0  0  0  0  0  0  0  0  0  0  0
  2  3  2  0
  2  1  1  0
  4  2  1  0
  5  4  1  0
  6  5  1  0
  7  6  1  0
  8 10  1  0
  8  7  1  0
  8  9  1  1
 10 11  2  0
 13 12  1  6
 14 13  1  0
 16 15  1  6
 15 13  1  0
 17 16  1  0
 17 10  1  0
 18 16  1  0
 19 18  2  0
 21 20  1  6
 21 22  1  0
 23 21  1  0
 23 24  1  1
 24 18  1  0
 25 26  1  0
 25 23  1  0
 27 25  2  0
M  END
$$$$
