RLV.pdb
     RDKit          3D

 27 26  0  0  1  0  0  0  0  0999 V2000
   10.3335  -20.9862   19.5381 N   0  0  0  0  0  0  0  0  0  0  0  0
   10.1036  -20.6974   18.1629 C   0  0  0  0  0  0  0  0  0  0  0  0
   10.2344  -21.6580   17.3148 N   0  0  0  0  0  0  0  0  0  0  0  0
    9.7414  -19.3889   17.7366 N   0  0  0  0  0  0  0  0  0  0  0  0
    9.6222  -18.3418   18.7247 C   0  0  0  0  0  0  0  0  0  0  0  0
   10.4891  -18.5608   19.9157 C   0  0  0  0  0  0  0  0  0  0  0  0
   10.4136  -17.4412   20.8768 C   0  0  0  0  0  0  0  0  0  0  0  0
    9.4897  -17.5812   22.0329 C   0  0  2  0  0  0  0  0  0  0  0  0
    8.1308  -17.8855   21.7000 N   0  0  0  0  0  0  0  0  0  0  0  0
    9.5229  -16.2547   22.7575 C   0  0  0  0  0  0  0  0  0  0  0  0
   10.4331  -15.4377   22.4437 O   0  0  0  0  0  0  0  0  0  0  0  0
   10.0797  -21.4984   16.3113 C   0  0  0  0  0  0  0  0  0  0  0  0
    7.3436  -11.9110   25.2330 C   0  0  2  0  0  0  0  0  0  0  0  0
    7.0938  -13.2571   25.9916 C   0  0  0  0  0  0  0  0  0  0  0  0
    5.7114  -13.1292   26.5231 C   0  0  0  0  0  0  0  0  0  0  0  0
    7.3765  -14.3025   25.0131 C   0  0  1  0  0  0  0  0  0  0  0  0
    8.7217  -14.6075   24.5169 N   0  0  0  0  0  0  0  0  0  0  0  0
    8.5917  -15.9031   23.7530 C   0  0  0  0  0  0  0  0  0  0  0  0
    9.7454  -14.8905   25.5307 O   0  0  0  0  0  0  0  0  0  0  0  0
   10.8148  -14.1795   25.6166 C   0  0  0  0  0  0  0  0  0  0  0  0
   10.7946  -13.5125   27.5309 C   0  0  2  0  0  0  0  0  0  0  0  0
   10.5874  -14.7392   28.3517 C   0  0  0  0  0  0  0  0  0  0  0  0
    9.3037  -14.6651   29.1613 C   0  0  2  0  0  0  0  0  0  0  0  0
   10.6670  -16.0332   27.5586 N   0  0  0  0  0  0  0  0  0  0  0  0
    9.6779  -15.9366   26.5094 C   0  0  0  0  0  0  0  0  0  0  0  0
   10.5562  -17.2157   28.4083 O   0  0  0  0  0  0  0  0  0  0  0  0
   11.4498  -17.6710   29.3343 O   0  0  0  0  0  0  0  0  0  0  0  0
  2  3  2  0
  2  1  1  0
  4  2  1  0
  5  4  1  0
  6  5  1  0
  7  6  1  0
  8 10  1  0
  8  7  1  0
  8  9  1  6
 10 11  2  0
 13 12  1  1
 14 13  1  0
 16 15  1  6
 15 13  1  0
 17 16  1  0
 17 10  1  0
 18 16  1  0
 19 18  2  0
 21 20  1  1
 21 22  1  0
 23 21  1  0
 23 24  1  1
 24 18  1  0
 25 26  1  0
 25 23  1  0
 27 25  2  0
M  END
$$$$
