SYI.pdb
     RDKit          3D

 27 27  0  0  1  0  0  0  0  0999 V2000
   18.8919   -8.2143  -15.3420 O   0  0  0  0  0  0  0  0  0  0  0  0
   17.7893   -7.6660  -14.6707 C   0  0  0  0  0  0  0  0  0  0  0  0
   17.2653   -8.7287  -13.7276 C   0  0  2  0  0  0  0  0  0  0  0  0
   16.6641   -9.7593  -14.5184 N   0  0  0  0  0  0  0  0  0  0  0  0
   16.2998   -8.1816  -12.7647 C   0  0  0  0  0  0  0  0  0  0  0  0
   15.1086   -8.0015  -13.1188 O   0  0  0  0  0  0  0  0  0  0  0  0
   11.9688  -12.4272  -10.3593 O   0  0  0  0  0  0  0  0  0  0  0  0
   12.8716  -11.4091  -10.0915 C   0  0  0  0  0  0  0  0  0  0  0  0
   12.4532  -10.1463   -9.6697 C   0  0  0  0  0  0  0  0  0  0  0  0
   13.3600   -9.1381   -9.4053 C   0  0  0  0  0  0  0  0  0  0  0  0
   14.7113   -9.3710   -9.5574 C   0  0  0  0  0  0  0  0  0  0  0  0
   15.7284   -8.3315   -9.2875 C   0  0  0  0  0  0  0  0  0  0  0  0
   15.8450   -7.3686  -10.4199 C   0  0  2  0  0  0  0  0  0  0  0  0
   16.7349   -7.8625  -11.4364 N   0  0  0  0  0  0  0  0  0  0  0  0
   16.3167   -6.0227   -9.9790 C   0  0  0  0  0  0  0  0  0  0  0  0
   17.4762   -5.8914   -9.5182 O   0  0  0  0  0  0  0  0  0  0  0  0
   15.1322  -10.6136   -9.9729 C   0  0  0  0  0  0  0  0  0  0  0  0
   14.2112  -11.6178  -10.2352 C   0  0  0  0  0  0  0  0  0  0  0  0
   16.5840   -0.2955  -11.5618 C   0  0  0  0  0  0  0  0  0  0  0  0
   16.5225   -1.2632  -10.3826 C   0  0  0  0  0  0  0  0  0  0  0  0
   16.0574   -2.6243  -10.8236 C   0  0  2  0  0  0  0  0  0  0  0  0
   14.7088   -2.4691  -11.4865 C   0  0  0  0  0  0  0  0  0  0  0  0
   16.0956   -3.5782   -9.6859 C   0  0  2  0  0  0  0  0  0  0  0  0
   15.5138   -4.8699  -10.0540 N   0  0  0  0  0  0  0  0  0  0  0  0
   15.3921   -3.0646   -8.4922 C   0  0  0  0  0  0  0  0  0  0  0  0
   15.8476   -2.0379   -7.8644 O   0  0  0  0  0  0  0  0  0  0  0  0
   14.2375   -3.5880   -7.9468 O   0  0  0  0  0  0  0  0  0  0  0  0
  2  1  1  0
  3  4  1  6
  3  2  1  0
  5  3  1  0
  6  5  2  0
  7  8  1  0
  8 18  2  0
  8  9  1  0
  9 10  2  0
 10 11  1  0
 11 12  1  0
 13 12  1  1
 13 14  1  0
 14  5  1  0
 15 24  1  0
 15 13  1  0
 16 15  2  0
 17 11  2  0
 18 17  1  0
 20 19  1  0
 21 20  1  0
 21 22  1  1
 23 21  1  0
 23 24  1  6
 25 23  1  0
 25 27  1  0
 26 25  2  0
M  END
$$$$
