SYI.pdb
     RDKit          3D

 27 27  0  0  1  0  0  0  0  0999 V2000
   29.9371  -20.1369  -17.2526 O   0  0  0  0  0  0  0  0  0  0  0  0
   29.3043  -19.2617  -16.3578 C   0  0  0  0  0  0  0  0  0  0  0  0
   27.8613  -19.1353  -16.7997 C   0  0  2  0  0  0  0  0  0  0  0  0
   27.7709  -18.0165  -17.6878 N   0  0  0  0  0  0  0  0  0  0  0  0
   26.9498  -18.9697  -15.6595 C   0  0  0  0  0  0  0  0  0  0  0  0
   26.8115  -17.8355  -15.1386 O   0  0  0  0  0  0  0  0  0  0  0  0
   19.7430  -19.9108  -10.8779 O   0  0  0  0  0  0  0  0  0  0  0  0
   20.7627  -20.0501  -11.8074 C   0  0  0  0  0  0  0  0  0  0  0  0
   21.1947  -18.9800  -12.5922 C   0  0  0  0  0  0  0  0  0  0  0  0
   22.2114  -19.1283  -13.5157 C   0  0  0  0  0  0  0  0  0  0  0  0
   22.8216  -20.3551  -13.6760 C   0  0  0  0  0  0  0  0  0  0  0  0
   23.9160  -20.5735  -14.6469 C   0  0  0  0  0  0  0  0  0  0  0  0
   25.2056  -20.0057  -14.1593 C   0  0  2  0  0  0  0  0  0  0  0  0
   26.2331  -20.1070  -15.1607 N   0  0  0  0  0  0  0  0  0  0  0  0
   25.6841  -20.6666  -12.9093 C   0  0  0  0  0  0  0  0  0  0  0  0
   26.1616  -21.8255  -12.9633 O   0  0  0  0  0  0  0  0  0  0  0  0
   22.4016  -21.4156  -12.9060 C   0  0  0  0  0  0  0  0  0  0  0  0
   21.3793  -21.2536  -11.9819 C   0  0  0  0  0  0  0  0  0  0  0  0
   28.4358  -20.1066   -7.5941 C   0  0  0  0  0  0  0  0  0  0  0  0
   27.3759  -20.8399   -8.4125 C   0  0  0  0  0  0  0  0  0  0  0  0
   26.9617  -20.0301   -9.6108 C   0  0  2  0  0  0  0  0  0  0  0  0
   26.4268  -18.7048   -9.1214 C   0  0  0  0  0  0  0  0  0  0  0  0
   26.0307  -20.8097  -10.4659 C   0  0  2  0  0  0  0  0  0  0  0  0
   25.6271  -20.0463  -11.6478 N   0  0  0  0  0  0  0  0  0  0  0  0
   24.8164  -21.2356   -9.7394 C   0  0  0  0  0  0  0  0  0  0  0  0
   24.9072  -22.0553   -8.7519 O   0  0  0  0  0  0  0  0  0  0  0  0
   23.5263  -20.8289  -10.0132 O   0  0  0  0  0  0  0  0  0  0  0  0
  2  1  1  0
  3  4  1  6
  3  2  1  0
  5  3  1  0
  6  5  2  0
  7  8  1  0
  8 18  2  0
  8  9  1  0
  9 10  2  0
 10 11  1  0
 11 12  1  0
 13 12  1  6
 13 14  1  0
 14  5  1  0
 15 24  1  0
 15 13  1  0
 16 15  2  0
 17 11  2  0
 18 17  1  0
 20 19  1  0
 21 20  1  0
 21 22  1  1
 23 21  1  0
 23 24  1  6
 25 23  1  0
 25 27  1  0
 26 25  2  0
M  END
$$$$
