SYI.pdb
     RDKit          3D

 27 27  0  0  1  0  0  0  0  0999 V2000
   15.2317  -12.5317  -14.5810 O   0  0  0  0  0  0  0  0  0  0  0  0
   16.3609  -11.8244  -15.0189 C   0  0  0  0  0  0  0  0  0  0  0  0
   16.0007  -11.1796  -16.3409 C   0  0  2  0  0  0  0  0  0  0  0  0
   15.9668  -12.2080  -17.3359 N   0  0  0  0  0  0  0  0  0  0  0  0
   16.9522  -10.1245  -16.7153 C   0  0  0  0  0  0  0  0  0  0  0  0
   17.9386  -10.4101  -17.4380 O   0  0  0  0  0  0  0  0  0  0  0  0
   14.3199   -6.7409  -22.0268 O   0  0  0  0  0  0  0  0  0  0  0  0
   14.8937   -6.6780  -20.7658 C   0  0  0  0  0  0  0  0  0  0  0  0
   14.1573   -6.9343  -19.6084 C   0  0  0  0  0  0  0  0  0  0  0  0
   14.7376   -6.8692  -18.3563 C   0  0  0  0  0  0  0  0  0  0  0  0
   16.0729   -6.5451  -18.2330 C   0  0  0  0  0  0  0  0  0  0  0  0
   16.7487   -6.4622  -16.9198 C   0  0  0  0  0  0  0  0  0  0  0  0
   17.5660   -7.6783  -16.6438 C   0  0  2  0  0  0  0  0  0  0  0  0
   16.7379   -8.7860  -16.2485 N   0  0  0  0  0  0  0  0  0  0  0  0
   18.5965   -7.4465  -15.5891 C   0  0  0  0  0  0  0  0  0  0  0  0
   18.2422   -7.3164  -14.3927 O   0  0  0  0  0  0  0  0  0  0  0  0
   16.8062   -6.2910  -19.3695 C   0  0  0  0  0  0  0  0  0  0  0  0
   16.2115   -6.3596  -20.6213 C   0  0  0  0  0  0  0  0  0  0  0  0
   22.4870  -10.6657  -14.9834 C   0  0  0  0  0  0  0  0  0  0  0  0
   21.3977   -9.6060  -14.8379 C   0  0  0  0  0  0  0  0  0  0  0  0
   21.9890   -8.2228  -14.8093 C   0  0  2  0  0  0  0  0  0  0  0  0
   22.9855   -8.1602  -13.6757 C   0  0  0  0  0  0  0  0  0  0  0  0
   20.9127   -7.2006  -14.7612 C   0  0  2  0  0  0  0  0  0  0  0  0
   19.9725   -7.3643  -15.8709 N   0  0  0  0  0  0  0  0  0  0  0  0
   21.4407   -5.8206  -14.7871 C   0  0  0  0  0  0  0  0  0  0  0  0
   21.4978   -5.1703  -15.8958 O   0  0  0  0  0  0  0  0  0  0  0  0
   21.9015   -5.1109  -13.6969 O   0  0  0  0  0  0  0  0  0  0  0  0
  2  1  1  0
  3  4  1  6
  3  2  1  0
  5  3  1  0
  6  5  2  0
  7  8  1  0
  8 18  2  0
  8  9  1  0
  9 10  2  0
 10 11  1  0
 11 12  1  0
 13 12  1  1
 13 14  1  0
 14  5  1  0
 15 24  1  0
 15 13  1  0
 16 15  2  0
 17 11  2  0
 18 17  1  0
 20 19  1  0
 21 20  1  0
 21 22  1  1
 23 21  1  0
 23 24  1  6
 25 23  1  0
 25 27  1  0
 26 25  2  0
M  END
$$$$
