SYI.pdb
     RDKit          3D

 27 27  0  0  1  0  0  0  0  0999 V2000
   26.9593  -17.7299  -15.0402 O   0  0  0  0  0  0  0  0  0  0  0  0
   28.1037  -18.4020  -14.5863 C   0  0  0  0  0  0  0  0  0  0  0  0
   28.0923  -19.7801  -15.2140 C   0  0  2  0  0  0  0  0  0  0  0  0
   28.3021  -19.6230  -16.6212 N   0  0  0  0  0  0  0  0  0  0  0  0
   26.8349  -20.4933  -14.9517 C   0  0  0  0  0  0  0  0  0  0  0  0
   26.0017  -20.6385  -15.8799 O   0  0  0  0  0  0  0  0  0  0  0  0
   26.1894  -19.1063   -7.5855 O   0  0  0  0  0  0  0  0  0  0  0  0
   26.0659  -19.9457   -8.6825 C   0  0  0  0  0  0  0  0  0  0  0  0
   27.1707  -20.3292   -9.4441 C   0  0  0  0  0  0  0  0  0  0  0  0
   27.0379  -21.1658  -10.5354 C   0  0  0  0  0  0  0  0  0  0  0  0
   25.7922  -21.6398  -10.8913 C   0  0  0  0  0  0  0  0  0  0  0  0
   25.5888  -22.5393  -12.0478 C   0  0  0  0  0  0  0  0  0  0  0  0
   25.4052  -21.7743  -13.3143 C   0  0  2  0  0  0  0  0  0  0  0  0
   26.5806  -21.0115  -13.6393 N   0  0  0  0  0  0  0  0  0  0  0  0
   24.2323  -20.8526  -13.2599 C   0  0  0  0  0  0  0  0  0  0  0  0
   24.3527  -19.7257  -12.7216 O   0  0  0  0  0  0  0  0  0  0  0  0
   24.6975  -21.2664  -10.1454 C   0  0  0  0  0  0  0  0  0  0  0  0
   24.8443  -20.4255   -9.0516 C   0  0  0  0  0  0  0  0  0  0  0  0
   20.4504  -17.7472  -16.2706 C   0  0  0  0  0  0  0  0  0  0  0  0
   20.5944  -18.5169  -14.9600 C   0  0  0  0  0  0  0  0  0  0  0  0
   21.7244  -19.5073  -15.0357 C   0  0  2  0  0  0  0  0  0  0  0  0
   21.4754  -20.4164  -16.2161 C   0  0  0  0  0  0  0  0  0  0  0  0
   21.8959  -20.1977  -13.7320 C   0  0  2  0  0  0  0  0  0  0  0  0
   22.9731  -21.1870  -13.7908 N   0  0  0  0  0  0  0  0  0  0  0  0
   20.6598  -20.8695  -13.2799 C   0  0  0  0  0  0  0  0  0  0  0  0
   19.6185  -20.1755  -12.9806 O   0  0  0  0  0  0  0  0  0  0  0  0
   20.4854  -22.2311  -13.1377 O   0  0  0  0  0  0  0  0  0  0  0  0
  2  1  1  0
  3  4  1  6
  3  2  1  0
  5  3  1  0
  6  5  2  0
  7  8  1  0
  8 18  2  0
  8  9  1  0
  9 10  2  0
 10 11  1  0
 11 12  1  0
 13 12  1  1
 13 14  1  0
 14  5  1  0
 15 24  1  0
 15 13  1  0
 16 15  2  0
 17 11  2  0
 18 17  1  0
 20 19  1  0
 21 20  1  0
 21 22  1  6
 23 21  1  0
 23 24  1  6
 25 23  1  0
 25 27  1  0
 26 25  2  0
M  END
$$$$
