SYI.pdb
     RDKit          3D

 27 27  0  0  1  0  0  0  0  0999 V2000
   29.4945  -21.7386  -14.5533 O   0  0  0  0  0  0  0  0  0  0  0  0
   28.8298  -20.5539  -14.2042 C   0  0  0  0  0  0  0  0  0  0  0  0
   27.3474  -20.8630  -14.1782 C   0  0  2  0  0  0  0  0  0  0  0  0
   26.7692  -20.3401  -15.3787 N   0  0  0  0  0  0  0  0  0  0  0  0
   26.6885  -20.2965  -12.9936 C   0  0  0  0  0  0  0  0  0  0  0  0
   26.4250  -19.0691  -12.9608 O   0  0  0  0  0  0  0  0  0  0  0  0
   20.9889  -19.2432  -14.8710 O   0  0  0  0  0  0  0  0  0  0  0  0
   21.7854  -19.7215  -13.8414 C   0  0  0  0  0  0  0  0  0  0  0  0
   22.0810  -18.9470  -12.7188 C   0  0  0  0  0  0  0  0  0  0  0  0
   22.8755  -19.4320  -11.6980 C   0  0  0  0  0  0  0  0  0  0  0  0
   23.3946  -20.7078  -11.7771 C   0  0  0  0  0  0  0  0  0  0  0  0
   24.2494  -21.2813  -10.7149 C   0  0  0  0  0  0  0  0  0  0  0  0
   25.6237  -20.7037  -10.7427 C   0  0  2  0  0  0  0  0  0  0  0  0
   26.3573  -21.1555  -11.8945 N   0  0  0  0  0  0  0  0  0  0  0  0
   26.4058  -21.0312   -9.5142 C   0  0  0  0  0  0  0  0  0  0  0  0
   26.8818  -22.1830   -9.3698 O   0  0  0  0  0  0  0  0  0  0  0  0
   23.1078  -21.4781  -12.8809 C   0  0  0  0  0  0  0  0  0  0  0  0
   22.3084  -20.9792  -13.8994 C   0  0  0  0  0  0  0  0  0  0  0  0
   29.7920  -18.8199   -4.9131 C   0  0  0  0  0  0  0  0  0  0  0  0
   28.9030  -19.9205   -5.4867 C   0  0  0  0  0  0  0  0  0  0  0  0
   28.2402  -19.4716   -6.7605 C   0  0  2  0  0  0  0  0  0  0  0  0
   27.5714  -18.1423   -6.5002 C   0  0  0  0  0  0  0  0  0  0  0  0
   27.3463  -20.5367   -7.2823 C   0  0  2  0  0  0  0  0  0  0  0  0
   26.6425  -20.0979   -8.4884 N   0  0  0  0  0  0  0  0  0  0  0  0
   26.3486  -20.9775   -6.2853 C   0  0  0  0  0  0  0  0  0  0  0  0
   25.0918  -20.8316   -6.5193 O   0  0  0  0  0  0  0  0  0  0  0  0
   26.6274  -21.5628   -5.0670 O   0  0  0  0  0  0  0  0  0  0  0  0
  2  1  1  0
  3  4  1  6
  3  2  1  0
  5  3  1  0
  6  5  2  0
  7  8  1  0
  8 18  2  0
  8  9  1  0
  9 10  2  0
 10 11  1  0
 11 12  1  0
 13 12  1  1
 13 14  1  0
 14  5  1  0
 15 24  1  0
 15 13  1  0
 16 15  2  0
 17 11  2  0
 18 17  1  0
 20 19  1  0
 21 20  1  0
 21 22  1  1
 23 21  1  0
 23 24  1  6
 25 23  1  0
 25 27  1  0
 26 25  2  0
M  END
$$$$
