SYI.pdb
     RDKit          3D

 27 27  0  0  1  0  0  0  0  0999 V2000
   28.5479  -20.5587  -18.6890 O   0  0  0  0  0  0  0  0  0  0  0  0
   27.5131  -21.3433  -18.1590 C   0  0  0  0  0  0  0  0  0  0  0  0
   28.0808  -22.0891  -16.9694 C   0  0  2  0  0  0  0  0  0  0  0  0
   28.5209  -23.3725  -17.4255 N   0  0  0  0  0  0  0  0  0  0  0  0
   27.0960  -22.2305  -15.8883 C   0  0  0  0  0  0  0  0  0  0  0  0
   26.3904  -23.2675  -15.8270 O   0  0  0  0  0  0  0  0  0  0  0  0
   22.8572  -20.6852   -8.3474 O   0  0  0  0  0  0  0  0  0  0  0  0
   23.7586  -20.6210   -9.3993 C   0  0  0  0  0  0  0  0  0  0  0  0
   25.0146  -21.2255   -9.3305 C   0  0  0  0  0  0  0  0  0  0  0  0
   25.9060  -21.1562  -10.3837 C   0  0  0  0  0  0  0  0  0  0  0  0
   25.5602  -20.4780  -11.5341 C   0  0  0  0  0  0  0  0  0  0  0  0
   26.4719  -20.3719  -12.6941 C   0  0  0  0  0  0  0  0  0  0  0  0
   26.0389  -21.2525  -13.8166 C   0  0  2  0  0  0  0  0  0  0  0  0
   26.9574  -21.1811  -14.9212 N   0  0  0  0  0  0  0  0  0  0  0  0
   24.6686  -20.9206  -14.3070 C   0  0  0  0  0  0  0  0  0  0  0  0
   24.4703  -19.8388  -14.9107 O   0  0  0  0  0  0  0  0  0  0  0  0
   24.3235  -19.8790  -11.6101 C   0  0  0  0  0  0  0  0  0  0  0  0
   23.4372  -19.9559  -10.5453 C   0  0  0  0  0  0  0  0  0  0  0  0
   22.1286  -22.6869  -18.0672 C   0  0  0  0  0  0  0  0  0  0  0  0
   22.5554  -21.7984  -16.9013 C   0  0  0  0  0  0  0  0  0  0  0  0
   21.7156  -22.0656  -15.6820 C   0  0  2  0  0  0  0  0  0  0  0  0
   20.2724  -21.7926  -16.0353 C   0  0  0  0  0  0  0  0  0  0  0  0
   22.2356  -21.3037  -14.5181 C   0  0  2  0  0  0  0  0  0  0  0  0
   23.5649  -21.7737  -14.1246 N   0  0  0  0  0  0  0  0  0  0  0  0
   21.3398  -21.3797  -13.3453 C   0  0  0  0  0  0  0  0  0  0  0  0
   20.5319  -20.4129  -13.0844 O   0  0  0  0  0  0  0  0  0  0  0  0
   21.2654  -22.4287  -12.4517 O   0  0  0  0  0  0  0  0  0  0  0  0
  2  1  1  0
  3  4  1  6
  3  2  1  0
  5  3  1  0
  6  5  2  0
  7  8  1  0
  8 18  2  0
  8  9  1  0
  9 10  2  0
 10 11  1  0
 11 12  1  0
 13 12  1  1
 13 14  1  0
 14  5  1  0
 15 24  1  0
 15 13  1  0
 16 15  2  0
 17 11  2  0
 18 17  1  0
 20 19  1  0
 21 20  1  0
 21 22  1  6
 23 21  1  0
 23 24  1  1
 25 23  1  0
 25 27  1  0
 26 25  2  0
M  END
$$$$
