KTH.pdb
     RDKit          3D

 27 27  0  0  1  0  0  0  0  0999 V2000
    7.0094  -16.9970   18.4038 N   0  0  0  0  0  0  0  0  0  0  0  0
    7.9924  -16.3457   19.2484 C   0  0  1  0  0  0  0  0  0  0  0  0
    7.4475  -14.9945   19.6556 C   0  0  0  0  0  0  0  0  0  0  0  0
    8.3388  -13.8872   19.1646 C   0  0  0  0  0  0  0  0  0  0  0  0
    8.3225  -12.7085   20.1181 C   0  0  0  0  0  0  0  0  0  0  0  0
    9.1711  -11.5742   19.5424 C   0  0  0  0  0  0  0  0  0  0  0  0
    9.0410  -10.3646   20.3076 N   0  0  0  0  0  0  0  0  0  0  0  0
    8.2065  -17.1978   20.4614 C   0  0  0  0  0  0  0  0  0  0  0  0
    7.2507  -17.8422   20.9532 O   0  0  0  0  0  0  0  0  0  0  0  0
   11.0492  -19.9171   23.1854 C   0  0  0  0  0  0  0  0  0  0  0  0
   10.8921  -19.0611   21.9277 C   0  0  1  0  0  0  0  0  0  0  0  0
   10.4512  -19.9263   20.9288 O   0  0  0  0  0  0  0  0  0  0  0  0
    9.8272  -18.0602   22.2130 C   0  0  2  0  0  0  0  0  0  0  0  0
    9.5034  -17.2747   21.0572 N   0  0  0  0  0  0  0  0  0  0  0  0
   10.1013  -17.1843   23.3707 C   0  0  0  0  0  0  0  0  0  0  0  0
   10.9579  -16.2981   23.2630 O   0  0  0  0  0  0  0  0  0  0  0  0
    9.4244  -17.2970   24.6384 N   0  0  0  0  0  0  0  0  0  0  0  0
    9.7389  -16.4713   25.7541 C   0  0  1  0  0  0  0  0  0  0  0  0
    8.6548  -15.7421   26.4210 C   0  0  0  0  0  0  0  0  0  0  0  0
    7.9613  -14.6853   25.6570 C   0  0  0  0  0  0  0  0  0  0  0  0
    8.4370  -13.9576   24.6166 C   0  0  0  0  0  0  0  0  0  0  0  0
    7.4350  -13.1189   24.2095 N   0  0  0  0  0  0  0  0  0  0  0  0
    6.3778  -13.3335   24.9841 C   0  0  0  0  0  0  0  0  0  0  0  0
    6.6798  -14.2830   25.8699 N   0  0  0  0  0  0  0  0  0  0  0  0
   10.4936  -17.2737   26.7846 C   0  0  0  0  0  0  0  0  0  0  0  0
   10.6238  -18.5124   26.6378 O   0  0  0  0  0  0  0  0  0  0  0  0
   11.0604  -16.6930   27.9078 O   0  0  0  0  0  0  0  0  0  0  0  0
  2  1  1  6
  2  3  1  0
  4  3  1  0
  4  5  1  0
  5  6  1  0
  7  6  1  0
  8  9  2  0
  8  2  1  0
 11 10  1  1
 11 13  1  0
 12 11  1  0
 13 14  1  6
 14  8  1  0
 15 13  1  0
 15 17  1  0
 16 15  2  0
 18 17  1  0
 18 25  1  0
 18 19  1  1
 20 19  1  0
 21 20  2  0
 22 23  1  0
 22 21  1  0
 23 24  2  0
 24 20  1  0
 25 27  1  0
 26 25  2  0
M  END
$$$$
