KTH.pdb
     RDKit          3D

 27 27  0  0  1  0  0  0  0  0999 V2000
   10.5999  -16.8870   17.4584 N   0  0  0  0  0  0  0  0  0  0  0  0
   10.8038  -17.3181   18.8282 C   0  0  1  0  0  0  0  0  0  0  0  0
   12.2249  -16.9833   19.2245 C   0  0  0  0  0  0  0  0  0  0  0  0
   13.2100  -17.6928   18.3367 C   0  0  0  0  0  0  0  0  0  0  0  0
   14.6335  -17.4600   18.8038 C   0  0  0  0  0  0  0  0  0  0  0  0
   15.5883  -18.3292   17.9845 C   0  0  0  0  0  0  0  0  0  0  0  0
   16.9646  -18.0535   18.2938 N   0  0  0  0  0  0  0  0  0  0  0  0
    9.8405  -16.5752   19.7019 C   0  0  0  0  0  0  0  0  0  0  0  0
    9.2792  -15.5379   19.2779 O   0  0  0  0  0  0  0  0  0  0  0  0
    6.8487  -17.4164   20.3874 C   0  0  0  0  0  0  0  0  0  0  0  0
    7.3033  -17.3538   21.8465 C   0  0  1  0  0  0  0  0  0  0  0  0
    7.6165  -18.6628   22.2060 O   0  0  0  0  0  0  0  0  0  0  0  0
    8.5415  -16.5274   21.8811 C   0  0  2  0  0  0  0  0  0  0  0  0
    9.5625  -17.0516   21.0204 N   0  0  0  0  0  0  0  0  0  0  0  0
    9.0824  -16.2869   23.2347 C   0  0  0  0  0  0  0  0  0  0  0  0
   10.2730  -16.5384   23.4585 O   0  0  0  0  0  0  0  0  0  0  0  0
    8.3002  -15.7699   24.3296 N   0  0  0  0  0  0  0  0  0  0  0  0
    8.8297  -15.5989   25.6395 C   0  0  1  0  0  0  0  0  0  0  0  0
    8.0625  -14.8167   26.6149 C   0  0  0  0  0  0  0  0  0  0  0  0
    7.6673  -13.4436   26.2414 C   0  0  0  0  0  0  0  0  0  0  0  0
    8.2203  -12.6424   25.2978 C   0  0  0  0  0  0  0  0  0  0  0  0
    7.5099  -11.4726   25.2840 N   0  0  0  0  0  0  0  0  0  0  0  0
    6.5494  -11.5630   26.1966 C   0  0  0  0  0  0  0  0  0  0  0  0
    6.6300  -12.7549   26.7885 N   0  0  0  0  0  0  0  0  0  0  0  0
    9.1516  -16.9454   26.2383 C   0  0  0  0  0  0  0  0  0  0  0  0
    8.8159  -17.9926   25.6354 O   0  0  0  0  0  0  0  0  0  0  0  0
    9.8143  -17.0803   27.4477 O   0  0  0  0  0  0  0  0  0  0  0  0
  2  1  1  6
  2  3  1  0
  4  3  1  0
  4  5  1  0
  5  6  1  0
  7  6  1  0
  8  9  2  0
  8  2  1  0
 11 10  1  6
 11 13  1  0
 12 11  1  0
 13 14  1  6
 14  8  1  0
 15 13  1  0
 15 17  1  0
 16 15  2  0
 18 17  1  0
 18 25  1  0
 18 19  1  1
 20 19  1  0
 21 20  2  0
 22 23  1  0
 22 21  1  0
 23 24  2  0
 24 20  1  0
 25 27  1  0
 26 25  2  0
M  END
$$$$
