KTH.pdb
     RDKit          3D

 27 27  0  0  1  0  0  0  0  0999 V2000
    9.3803  -14.6897   16.2392 N   0  0  0  0  0  0  0  0  0  0  0  0
   10.0223  -13.9278   17.2933 C   0  0  1  0  0  0  0  0  0  0  0  0
    8.9470  -13.2300   18.0966 C   0  0  0  0  0  0  0  0  0  0  0  0
    8.0557  -14.2296   18.7808 C   0  0  0  0  0  0  0  0  0  0  0  0
    6.9051  -13.5416   19.4891 C   0  0  0  0  0  0  0  0  0  0  0  0
    5.9628  -14.5943   20.0740 C   0  0  0  0  0  0  0  0  0  0  0  0
    4.7768  -14.0035   20.6307 N   0  0  0  0  0  0  0  0  0  0  0  0
   10.7768  -14.8813   18.1680 C   0  0  0  0  0  0  0  0  0  0  0  0
   10.3863  -16.0660   18.2893 O   0  0  0  0  0  0  0  0  0  0  0  0
   14.4197  -14.6608   17.8101 C   0  0  0  0  0  0  0  0  0  0  0  0
   14.2778  -14.9142   19.3118 C   0  0  1  0  0  0  0  0  0  0  0  0
   14.5356  -13.6935   19.9317 O   0  0  0  0  0  0  0  0  0  0  0  0
   12.8597  -15.2971   19.5562 C   0  0  2  0  0  0  0  0  0  0  0  0
   11.9433  -14.4372   18.8643 N   0  0  0  0  0  0  0  0  0  0  0  0
   12.4890  -15.4042   20.9822 C   0  0  0  0  0  0  0  0  0  0  0  0
   11.5833  -14.6852   21.4223 O   0  0  0  0  0  0  0  0  0  0  0  0
   13.1242  -16.3067   21.9095 N   0  0  0  0  0  0  0  0  0  0  0  0
   12.4482  -16.8530   23.0364 C   0  0  1  0  0  0  0  0  0  0  0  0
   11.1611  -17.5258   22.8301 C   0  0  0  0  0  0  0  0  0  0  0  0
    9.9425  -16.6917   22.8026 C   0  0  0  0  0  0  0  0  0  0  0  0
    9.8282  -15.3701   23.0824 C   0  0  0  0  0  0  0  0  0  0  0  0
    8.5171  -15.0228   22.8982 N   0  0  0  0  0  0  0  0  0  0  0  0
    7.8534  -16.1077   22.5156 C   0  0  0  0  0  0  0  0  0  0  0  0
    8.7045  -17.1319   22.4520 N   0  0  0  0  0  0  0  0  0  0  0  0
   13.3717  -17.7839   23.7820 C   0  0  0  0  0  0  0  0  0  0  0  0
   14.4110  -18.2102   23.2245 O   0  0  0  0  0  0  0  0  0  0  0  0
   13.1187  -18.1972   25.0802 O   0  0  0  0  0  0  0  0  0  0  0  0
  2  1  1  6
  2  3  1  0
  4  3  1  0
  4  5  1  0
  5  6  1  0
  7  6  1  0
  8  9  2  0
  8  2  1  0
 11 10  1  6
 11 13  1  0
 12 11  1  0
 13 14  1  1
 14  8  1  0
 15 13  1  0
 15 17  1  0
 16 15  2  0
 18 17  1  0
 18 25  1  0
 18 19  1  6
 20 19  1  0
 21 20  2  0
 22 23  1  0
 22 21  1  0
 23 24  2  0
 24 20  1  0
 25 27  1  0
 26 25  2  0
M  END
$$$$
