KTH.pdb
     RDKit          3D

 27 27  0  0  1  0  0  0  0  0999 V2000
    8.1738  -14.9839   16.0184 N   0  0  0  0  0  0  0  0  0  0  0  0
    8.2830  -15.9283   17.1139 C   0  0  1  0  0  0  0  0  0  0  0  0
    9.2347  -17.0285   16.6988 C   0  0  0  0  0  0  0  0  0  0  0  0
    9.4275  -18.0191   17.8139 C   0  0  0  0  0  0  0  0  0  0  0  0
   10.3456  -19.1486   17.3893 C   0  0  0  0  0  0  0  0  0  0  0  0
   10.4552  -20.1706   18.5214 C   0  0  0  0  0  0  0  0  0  0  0  0
   11.2207  -21.3231   18.1323 N   0  0  0  0  0  0  0  0  0  0  0  0
    8.8279  -15.2030   18.3057 C   0  0  0  0  0  0  0  0  0  0  0  0
    9.8138  -14.4395   18.1798 O   0  0  0  0  0  0  0  0  0  0  0  0
    7.1946  -12.8425   20.3438 C   0  0  0  0  0  0  0  0  0  0  0  0
    7.5691  -13.8962   21.3873 C   0  0  1  0  0  0  0  0  0  0  0  0
    6.4300  -14.6778   21.5674 O   0  0  0  0  0  0  0  0  0  0  0  0
    8.6476  -14.7331   20.7927 C   0  0  2  0  0  0  0  0  0  0  0  0
    8.2212  -15.3834   19.5872 N   0  0  0  0  0  0  0  0  0  0  0  0
    9.2483  -15.7125   21.7214 C   0  0  0  0  0  0  0  0  0  0  0  0
    8.9709  -16.9112   21.5911 O   0  0  0  0  0  0  0  0  0  0  0  0
   10.1513  -15.3565   22.7871 N   0  0  0  0  0  0  0  0  0  0  0  0
   10.6251  -16.3002   23.7411 C   0  0  1  0  0  0  0  0  0  0  0  0
   12.0411  -16.2683   24.1231 C   0  0  0  0  0  0  0  0  0  0  0  0
   13.0439  -16.5745   23.0830 C   0  0  0  0  0  0  0  0  0  0  0  0
   12.8884  -17.3328   21.9699 C   0  0  0  0  0  0  0  0  0  0  0  0
   14.0757  -17.3121   21.2892 N   0  0  0  0  0  0  0  0  0  0  0  0
   14.9296  -16.5591   21.9730 C   0  0  0  0  0  0  0  0  0  0  0  0
   14.3191  -16.1023   23.0667 N   0  0  0  0  0  0  0  0  0  0  0  0
    9.7811  -16.2300   24.9893 C   0  0  0  0  0  0  0  0  0  0  0  0
    8.8860  -15.3572   25.0887 O   0  0  0  0  0  0  0  0  0  0  0  0
    9.9534  -17.1029   26.0516 O   0  0  0  0  0  0  0  0  0  0  0  0
  2  1  1  6
  2  3  1  0
  4  3  1  0
  4  5  1  0
  5  6  1  0
  7  6  1  0
  8  9  2  0
  8  2  1  0
 11 10  1  6
 11 13  1  0
 12 11  1  0
 13 14  1  6
 14  8  1  0
 15 13  1  0
 15 17  1  0
 16 15  2  0
 18 17  1  0
 18 25  1  0
 18 19  1  1
 20 19  1  0
 21 20  2  0
 22 23  1  0
 22 21  1  0
 23 24  2  0
 24 20  1  0
 25 27  1  0
 26 25  2  0
M  END
$$$$
