KTH.pdb
     RDKit          3D

 27 27  0  0  1  0  0  0  0  0999 V2000
    8.7418  -16.6991   17.6315 N   0  0  0  0  0  0  0  0  0  0  0  0
    9.8786  -16.5240   18.5152 C   0  0  1  0  0  0  0  0  0  0  0  0
   10.1012  -15.0409   18.7138 C   0  0  0  0  0  0  0  0  0  0  0  0
    8.8950  -14.3972   19.3402 C   0  0  0  0  0  0  0  0  0  0  0  0
    9.1133  -12.9110   19.5464 C   0  0  0  0  0  0  0  0  0  0  0  0
    7.8789  -12.3010   20.2115 C   0  0  0  0  0  0  0  0  0  0  0  0
    8.0183  -10.8837   20.4048 N   0  0  0  0  0  0  0  0  0  0  0  0
    9.5576  -17.1732   19.8263 C   0  0  0  0  0  0  0  0  0  0  0  0
    8.3637  -17.3481   20.1651 O   0  0  0  0  0  0  0  0  0  0  0  0
   10.8432  -20.3279   20.7754 C   0  0  0  0  0  0  0  0  0  0  0  0
   11.1830  -19.5292   22.0348 C   0  0  1  0  0  0  0  0  0  0  0  0
   12.5485  -19.2628   21.9619 O   0  0  0  0  0  0  0  0  0  0  0  0
   10.4295  -18.2474   21.9533 C   0  0  2  0  0  0  0  0  0  0  0  0
   10.6158  -17.5930   20.6904 N   0  0  0  0  0  0  0  0  0  0  0  0
   10.6918  -17.3086   23.0635 C   0  0  0  0  0  0  0  0  0  0  0  0
   11.4376  -16.3410   22.8675 O   0  0  0  0  0  0  0  0  0  0  0  0
   10.1261  -17.4490   24.3818 N   0  0  0  0  0  0  0  0  0  0  0  0
   10.4070  -16.5397   25.4401 C   0  0  1  0  0  0  0  0  0  0  0  0
    9.2893  -15.9937   26.2174 C   0  0  0  0  0  0  0  0  0  0  0  0
    9.6085  -15.1489   27.3861 C   0  0  0  0  0  0  0  0  0  0  0  0
   10.2822  -15.4974   28.5098 C   0  0  0  0  0  0  0  0  0  0  0  0
   10.3617  -14.3849   29.3032 N   0  0  0  0  0  0  0  0  0  0  0  0
    9.7514  -13.3865   28.6750 C   0  0  0  0  0  0  0  0  0  0  0  0
    9.2875  -13.8330   27.5077 N   0  0  0  0  0  0  0  0  0  0  0  0
   11.4065  -17.1547   26.3878 C   0  0  0  0  0  0  0  0  0  0  0  0
   11.9210  -16.4546   27.2922 O   0  0  0  0  0  0  0  0  0  0  0  0
   11.7892  -18.4837   26.3026 O   0  0  0  0  0  0  0  0  0  0  0  0
  2  1  1  6
  2  3  1  0
  4  3  1  0
  4  5  1  0
  5  6  1  0
  7  6  1  0
  8  9  2  0
  8  2  1  0
 11 10  1  6
 11 13  1  0
 12 11  1  0
 13 14  1  6
 14  8  1  0
 15 13  1  0
 15 17  1  0
 16 15  2  0
 18 17  1  0
 18 25  1  0
 18 19  1  1
 20 19  1  0
 21 20  2  0
 22 23  1  0
 22 21  1  0
 23 24  2  0
 24 20  1  0
 25 27  1  0
 26 25  2  0
M  END
$$$$
