KTH.pdb
     RDKit          3D

 27 27  0  0  1  0  0  0  0  0999 V2000
    9.1860  -14.7094   18.2033 N   0  0  0  0  0  0  0  0  0  0  0  0
   10.1523  -15.3187   19.0971 C   0  0  1  0  0  0  0  0  0  0  0  0
   11.3181  -14.3676   19.2550 C   0  0  0  0  0  0  0  0  0  0  0  0
   12.5696  -15.1118   19.6313 C   0  0  0  0  0  0  0  0  0  0  0  0
   13.7884  -14.2149   19.5375 C   0  0  0  0  0  0  0  0  0  0  0  0
   15.0505  -15.0400   19.7916 C   0  0  0  0  0  0  0  0  0  0  0  0
   16.2464  -14.2788   19.5554 N   0  0  0  0  0  0  0  0  0  0  0  0
    9.4904  -15.5411   20.4221 C   0  0  0  0  0  0  0  0  0  0  0  0
    8.3817  -15.0107   20.6674 O   0  0  0  0  0  0  0  0  0  0  0  0
    7.9076  -18.0104   21.1440 C   0  0  0  0  0  0  0  0  0  0  0  0
    8.8339  -18.1818   22.3491 C   0  0  1  0  0  0  0  0  0  0  0  0
    9.7999  -19.1072   21.9603 O   0  0  0  0  0  0  0  0  0  0  0  0
    9.4861  -16.8645   22.5871 C   0  0  2  0  0  0  0  0  0  0  0  0
   10.1258  -16.3597   21.4065 N   0  0  0  0  0  0  0  0  0  0  0  0
   10.4213  -16.8393   23.7305 C   0  0  0  0  0  0  0  0  0  0  0  0
   11.6275  -16.6671   23.5153 O   0  0  0  0  0  0  0  0  0  0  0  0
   10.0132  -17.0051   25.1030 N   0  0  0  0  0  0  0  0  0  0  0  0
   10.9361  -16.9953   26.1863 C   0  0  1  0  0  0  0  0  0  0  0  0
   10.4991  -16.4638   27.4817 C   0  0  0  0  0  0  0  0  0  0  0  0
    9.7225  -15.2075   27.4862 C   0  0  0  0  0  0  0  0  0  0  0  0
    9.6133  -14.2893   26.4947 C   0  0  0  0  0  0  0  0  0  0  0  0
    8.7684  -13.3068   26.9357 N   0  0  0  0  0  0  0  0  0  0  0  0
    8.3750  -13.6224   28.1642 C   0  0  0  0  0  0  0  0  0  0  0  0
    8.9453  -14.7753   28.5151 N   0  0  0  0  0  0  0  0  0  0  0  0
   11.4957  -18.3811   26.3908 C   0  0  0  0  0  0  0  0  0  0  0  0
   11.0003  -19.3517   25.7701 O   0  0  0  0  0  0  0  0  0  0  0  0
   12.5526  -18.6350   27.2501 O   0  0  0  0  0  0  0  0  0  0  0  0
  2  1  1  6
  2  3  1  0
  4  3  1  0
  4  5  1  0
  5  6  1  0
  7  6  1  0
  8  9  2  0
  8  2  1  0
 11 10  1  6
 11 13  1  0
 12 11  1  0
 13 14  1  6
 14  8  1  0
 15 13  1  0
 15 17  1  0
 16 15  2  0
 18 17  1  0
 18 25  1  0
 18 19  1  1
 20 19  1  0
 21 20  2  0
 22 23  1  0
 22 21  1  0
 23 24  2  0
 24 20  1  0
 25 27  1  0
 26 25  2  0
M  END
$$$$
