KTH.pdb
     RDKit          3D

 27 27  0  0  1  0  0  0  0  0999 V2000
    7.7172  -17.6399   18.2695 N   0  0  0  0  0  0  0  0  0  0  0  0
    6.9882  -17.1388   19.4191 C   0  0  1  0  0  0  0  0  0  0  0  0
    6.2865  -18.3043   20.0807 C   0  0  0  0  0  0  0  0  0  0  0  0
    5.7465  -19.2588   19.0516 C   0  0  0  0  0  0  0  0  0  0  0  0
    4.9647  -20.3820   19.7045 C   0  0  0  0  0  0  0  0  0  0  0  0
    4.3783  -21.2912   18.6239 C   0  0  0  0  0  0  0  0  0  0  0  0
    3.6271  -22.3794   19.1872 N   0  0  0  0  0  0  0  0  0  0  0  0
    7.9726  -16.5283   20.3686 C   0  0  0  0  0  0  0  0  0  0  0  0
    9.0793  -16.1171   19.9480 O   0  0  0  0  0  0  0  0  0  0  0  0
    8.7589  -14.2283   20.6728 C   0  0  0  0  0  0  0  0  0  0  0  0
    8.3439  -14.1255   22.1413 C   0  0  1  0  0  0  0  0  0  0  0  0
    7.0625  -13.5788   22.1393 O   0  0  0  0  0  0  0  0  0  0  0  0
    8.2822  -15.5146   22.6740 C   0  0  2  0  0  0  0  0  0  0  0  0
    7.6472  -16.4154   21.7557 N   0  0  0  0  0  0  0  0  0  0  0  0
    7.6734  -15.6322   24.0150 C   0  0  0  0  0  0  0  0  0  0  0  0
    6.4504  -15.4867   24.1335 O   0  0  0  0  0  0  0  0  0  0  0  0
    8.4239  -15.9099   25.2139 N   0  0  0  0  0  0  0  0  0  0  0  0
    8.0904  -16.9713   26.1014 C   0  0  1  0  0  0  0  0  0  0  0  0
    7.8084  -18.2976   25.5418 C   0  0  0  0  0  0  0  0  0  0  0  0
    7.5398  -19.4021   26.4848 C   0  0  0  0  0  0  0  0  0  0  0  0
    7.1314  -19.3185   27.7749 C   0  0  0  0  0  0  0  0  0  0  0  0
    6.9866  -20.5963   28.2438 N   0  0  0  0  0  0  0  0  0  0  0  0
    7.2992  -21.4336   27.2615 C   0  0  0  0  0  0  0  0  0  0  0  0
    7.6379  -20.7248   26.1843 N   0  0  0  0  0  0  0  0  0  0  0  0
    9.1574  -17.1046   27.1593 C   0  0  0  0  0  0  0  0  0  0  0  0
    8.8300  -17.2169   28.3647 O   0  0  0  0  0  0  0  0  0  0  0  0
   10.5088  -17.1085   26.8536 O   0  0  0  0  0  0  0  0  0  0  0  0
  2  1  1  6
  2  3  1  0
  4  3  1  0
  4  5  1  0
  5  6  1  0
  7  6  1  0
  8  9  2  0
  8  2  1  0
 11 10  1  6
 11 13  1  0
 12 11  1  0
 13 14  1  6
 14  8  1  0
 15 13  1  0
 15 17  1  0
 16 15  2  0
 18 17  1  0
 18 25  1  0
 18 19  1  6
 20 19  1  0
 21 20  2  0
 22 23  1  0
 22 21  1  0
 23 24  2  0
 24 20  1  0
 25 27  1  0
 26 25  2  0
M  END
$$$$
