KTH.pdb
     RDKit          3D

 27 27  0  0  1  0  0  0  0  0999 V2000
   10.5078  -15.4644   12.5722 N   0  0  0  0  0  0  0  0  0  0  0  0
   10.7005  -16.5256   13.5421 C   0  0  1  0  0  0  0  0  0  0  0  0
   11.9617  -17.2776   13.1780 C   0  0  0  0  0  0  0  0  0  0  0  0
   11.8753  -17.8229   11.7790 C   0  0  0  0  0  0  0  0  0  0  0  0
   12.5123  -19.1958   11.6869 C   0  0  0  0  0  0  0  0  0  0  0  0
   12.4988  -19.6684   10.2328 C   0  0  0  0  0  0  0  0  0  0  0  0
   12.9672  -21.0210   10.1033 N   0  0  0  0  0  0  0  0  0  0  0  0
   10.8493  -15.9022   14.8958 C   0  0  0  0  0  0  0  0  0  0  0  0
   11.7077  -15.0089   15.0853 O   0  0  0  0  0  0  0  0  0  0  0  0
    8.4741  -14.0969   16.5231 C   0  0  0  0  0  0  0  0  0  0  0  0
    8.7653  -15.0937   17.6460 C   0  0  1  0  0  0  0  0  0  0  0  0
    7.7234  -16.0180   17.6168 O   0  0  0  0  0  0  0  0  0  0  0  0
   10.0392  -15.7815   17.2974 C   0  0  2  0  0  0  0  0  0  0  0  0
   10.0101  -16.3283   15.9715 N   0  0  0  0  0  0  0  0  0  0  0  0
   10.4691  -16.8083   18.2686 C   0  0  0  0  0  0  0  0  0  0  0  0
   10.8922  -17.8922   17.8480 O   0  0  0  0  0  0  0  0  0  0  0  0
   10.4269  -16.6265   19.6980 N   0  0  0  0  0  0  0  0  0  0  0  0
   11.3809  -17.2130   20.5763 C   0  0  1  0  0  0  0  0  0  0  0  0
   12.8074  -16.9776   20.3286 C   0  0  0  0  0  0  0  0  0  0  0  0
   13.7830  -17.7149   21.1568 C   0  0  0  0  0  0  0  0  0  0  0  0
   13.5337  -18.6279   22.1276 C   0  0  0  0  0  0  0  0  0  0  0  0
   14.7414  -19.0651   22.6005 N   0  0  0  0  0  0  0  0  0  0  0  0
   15.6991  -18.4328   21.9322 C   0  0  0  0  0  0  0  0  0  0  0  0
   15.1345  -17.6078   21.0500 N   0  0  0  0  0  0  0  0  0  0  0  0
   11.0633  -16.8317   22.0008 C   0  0  0  0  0  0  0  0  0  0  0  0
   11.7696  -17.2751   22.9374 O   0  0  0  0  0  0  0  0  0  0  0  0
   10.0060  -15.9978   22.3274 O   0  0  0  0  0  0  0  0  0  0  0  0
  2  1  1  6
  2  3  1  0
  4  3  1  0
  4  5  1  0
  5  6  1  0
  7  6  1  0
  8  9  2  0
  8  2  1  0
 11 10  1  6
 11 13  1  0
 12 11  1  0
 13 14  1  6
 14  8  1  0
 15 13  1  0
 15 17  1  0
 16 15  2  0
 18 17  1  0
 18 25  1  0
 18 19  1  6
 20 19  1  0
 21 20  2  0
 22 23  1  0
 22 21  1  0
 23 24  2  0
 24 20  1  0
 25 27  1  0
 26 25  2  0
M  END
$$$$
