KTH.pdb
     RDKit          3D

 27 27  0  0  1  0  0  0  0  0999 V2000
    8.0701  -14.4213   14.3238 N   0  0  0  0  0  0  0  0  0  0  0  0
    8.5389  -15.3700   15.3158 C   0  0  1  0  0  0  0  0  0  0  0  0
    9.5865  -16.2512   14.6718 C   0  0  0  0  0  0  0  0  0  0  0  0
    8.9605  -17.1849   13.6727 C   0  0  0  0  0  0  0  0  0  0  0  0
   10.0109  -18.0379   12.9887 C   0  0  0  0  0  0  0  0  0  0  0  0
    9.3460  -18.9094   11.9225 C   0  0  0  0  0  0  0  0  0  0  0  0
   10.3127  -19.6036   11.1168 N   0  0  0  0  0  0  0  0  0  0  0  0
    9.1437  -14.6017   16.4503 C   0  0  0  0  0  0  0  0  0  0  0  0
    9.9399  -13.6619   16.2188 O   0  0  0  0  0  0  0  0  0  0  0  0
    7.2353  -13.1100   19.2103 C   0  0  0  0  0  0  0  0  0  0  0  0
    8.2758  -13.9554   19.9466 C   0  0  1  0  0  0  0  0  0  0  0  0
    7.6196  -15.1241   20.3265 O   0  0  0  0  0  0  0  0  0  0  0  0
    9.3404  -14.2904   18.9609 C   0  0  2  0  0  0  0  0  0  0  0  0
    8.8110  -14.9425   17.7979 N   0  0  0  0  0  0  0  0  0  0  0  0
   10.4702  -15.0640   19.5156 C   0  0  0  0  0  0  0  0  0  0  0  0
   10.5784  -16.2614   19.2234 O   0  0  0  0  0  0  0  0  0  0  0  0
   11.4712  -14.5052   20.3894 N   0  0  0  0  0  0  0  0  0  0  0  0
   12.5203  -15.2837   20.9541 C   0  0  1  0  0  0  0  0  0  0  0  0
   13.8807  -14.7351   20.9629 C   0  0  0  0  0  0  0  0  0  0  0  0
   14.5469  -14.5196   19.6624 C   0  0  0  0  0  0  0  0  0  0  0  0
   14.1521  -14.9522   18.4397 C   0  0  0  0  0  0  0  0  0  0  0  0
   15.0624  -14.4917   17.5271 N   0  0  0  0  0  0  0  0  0  0  0  0
   15.9859  -13.7966   18.1811 C   0  0  0  0  0  0  0  0  0  0  0  0
   15.6883  -13.8029   19.4806 N   0  0  0  0  0  0  0  0  0  0  0  0
   12.1505  -15.6947   22.3575 C   0  0  0  0  0  0  0  0  0  0  0  0
   12.8924  -16.4811   22.9930 O   0  0  0  0  0  0  0  0  0  0  0  0
   11.0062  -15.2338   22.9884 O   0  0  0  0  0  0  0  0  0  0  0  0
  2  1  1  6
  2  3  1  0
  4  3  1  0
  4  5  1  0
  5  6  1  0
  7  6  1  0
  8  9  2  0
  8  2  1  0
 11 10  1  6
 11 13  1  0
 12 11  1  0
 13 14  1  6
 14  8  1  0
 15 13  1  0
 15 17  1  0
 16 15  2  0
 18 17  1  0
 18 25  1  0
 18 19  1  1
 20 19  1  0
 21 20  2  0
 22 23  1  0
 22 21  1  0
 23 24  2  0
 24 20  1  0
 25 27  1  0
 26 25  2  0
M  END
$$$$
