SLH.pdb
     RDKit          3D

 25 25  0  0  1  0  0  0  0  0999 V2000
   26.4639  -19.3332  -16.7186 O   0  0  0  0  0  0  0  0  0  0  0  0
   27.7416  -19.3432  -16.1660 C   0  0  0  0  0  0  0  0  0  0  0  0
   28.1171  -20.7064  -15.6358 C   0  0  2  0  0  0  0  0  0  0  0  0
   28.3814  -21.5988  -16.7196 N   0  0  0  0  0  0  0  0  0  0  0  0
   27.1082  -21.2556  -14.7106 C   0  0  0  0  0  0  0  0  0  0  0  0
   26.3985  -22.2510  -14.9563 O   0  0  0  0  0  0  0  0  0  0  0  0
   25.3789  -22.0779   -9.5836 C   0  0  0  0  0  0  0  0  0  0  0  0
   25.3582  -20.6381  -10.0515 C   0  0  1  0  0  0  0  0  0  0  0  0
   25.8506  -19.8068   -8.8581 C   0  0  0  0  0  0  0  0  0  0  0  0
   26.3297  -20.4037  -11.1752 C   0  0  0  0  0  0  0  0  0  0  0  0
   25.9520  -21.0942  -12.4634 C   0  0  2  0  0  0  0  0  0  0  0  0
   26.9255  -20.6174  -13.4572 N   0  0  0  0  0  0  0  0  0  0  0  0
   24.6344  -20.5981  -12.8935 C   0  0  0  0  0  0  0  0  0  0  0  0
   24.3479  -19.3524  -12.9071 O   0  0  0  0  0  0  0  0  0  0  0  0
   23.5876  -21.4598  -13.3233 N   0  0  0  0  0  0  0  0  0  0  0  0
   22.3007  -20.9103  -13.7731 C   0  0  1  0  0  0  0  0  0  0  0  0
   21.5257  -21.9682  -14.5191 C   0  0  0  0  0  0  0  0  0  0  0  0
   20.2962  -21.3906  -15.0961 C   0  0  0  0  0  0  0  0  0  0  0  0
   20.0519  -20.0568  -15.4296 C   0  0  0  0  0  0  0  0  0  0  0  0
   18.8131  -19.9138  -15.9323 N   0  0  0  0  0  0  0  0  0  0  0  0
   18.2765  -21.1451  -15.9179 C   0  0  0  0  0  0  0  0  0  0  0  0
   19.1511  -22.0155  -15.4249 N   0  0  0  0  0  0  0  0  0  0  0  0
   21.5206  -20.5005  -12.5852 C   0  0  0  0  0  0  0  0  0  0  0  0
   21.4730  -21.3062  -11.5947 O   0  0  0  0  0  0  0  0  0  0  0  0
   20.8410  -19.3182  -12.4590 O   0  0  0  0  0  0  0  0  0  0  0  0
  2  1  1  0
  2  3  1  0
  3  4  1  6
  5  3  1  0
  5  6  2  0
  8  7  1  1
  8 10  1  0
  8  9  1  0
 11 10  1  1
 11 12  1  0
 12  5  1  0
 13 11  1  0
 14 13  2  0
 15 13  1  0
 16 15  1  0
 16 17  1  1
 18 17  1  0
 19 18  2  0
 20 21  1  0
 20 19  1  0
 21 22  2  0
 22 18  1  0
 23 16  1  0
 24 23  2  0
 25 23  1  0
M  END
$$$$
