SLH.pdb
     RDKit          3D

 25 25  0  0  1  0  0  0  0  0999 V2000
   13.6367  -12.3554    5.5925 O   0  0  0  0  0  0  0  0  0  0  0  0
   14.8454  -12.9601    5.9265 C   0  0  0  0  0  0  0  0  0  0  0  0
   15.9422  -12.6074    4.9503 C   0  0  2  0  0  0  0  0  0  0  0  0
   15.6171  -13.0978    3.6485 N   0  0  0  0  0  0  0  0  0  0  0  0
   17.2700  -13.0731    5.3927 C   0  0  0  0  0  0  0  0  0  0  0  0
   17.7955  -14.1437    5.0288 O   0  0  0  0  0  0  0  0  0  0  0  0
   22.2093  -10.1854    7.5759 C   0  0  0  0  0  0  0  0  0  0  0  0
   21.4582  -11.4996    7.5482 C   0  0  1  0  0  0  0  0  0  0  0  0
   21.3089  -11.9234    9.0165 C   0  0  0  0  0  0  0  0  0  0  0  0
   20.0677  -11.3348    6.9996 C   0  0  0  0  0  0  0  0  0  0  0  0
   19.3331  -12.6377    6.7951 C   0  0  2  0  0  0  0  0  0  0  0  0
   18.0052  -12.2575    6.2905 N   0  0  0  0  0  0  0  0  0  0  0  0
   19.1196  -13.2677    8.1084 C   0  0  0  0  0  0  0  0  0  0  0  0
   18.3283  -12.7707    8.9807 O   0  0  0  0  0  0  0  0  0  0  0  0
   19.7721  -14.4680    8.5042 N   0  0  0  0  0  0  0  0  0  0  0  0
   19.4424  -15.1146    9.7822 C   0  0  1  0  0  0  0  0  0  0  0  0
   19.1285  -16.5722    9.5517 C   0  0  0  0  0  0  0  0  0  0  0  0
   17.6945  -16.7452    9.2485 C   0  0  0  0  0  0  0  0  0  0  0  0
   16.6099  -16.0943    9.8401 C   0  0  0  0  0  0  0  0  0  0  0  0
   15.4530  -16.5153    9.2998 N   0  0  0  0  0  0  0  0  0  0  0  0
   15.8001  -17.4247    8.3742 C   0  0  0  0  0  0  0  0  0  0  0  0
   17.1215  -17.5600    8.3442 N   0  0  0  0  0  0  0  0  0  0  0  0
   20.6159  -15.0184   10.6774 C   0  0  0  0  0  0  0  0  0  0  0  0
   21.7246  -14.6365   10.1699 O   0  0  0  0  0  0  0  0  0  0  0  0
   20.6107  -15.3061   12.0164 O   0  0  0  0  0  0  0  0  0  0  0  0
  2  1  1  0
  2  3  1  0
  3  4  1  6
  5  3  1  0
  5  6  2  0
  8  7  1  1
  8 10  1  0
  8  9  1  0
 11 10  1  1
 11 12  1  0
 12  5  1  0
 13 11  1  0
 14 13  2  0
 15 13  1  0
 16 15  1  0
 16 17  1  6
 18 17  1  0
 19 18  2  0
 20 21  1  0
 20 19  1  0
 21 22  2  0
 22 18  1  0
 23 16  1  0
 24 23  2  0
 25 23  1  0
M  END
$$$$
