SLH.pdb
     RDKit          3D

 25 25  0  0  1  0  0  0  0  0999 V2000
   35.6397  -36.1527  -16.2786 O   0  0  0  0  0  0  0  0  0  0  0  0
   34.8136  -35.1018  -15.8901 C   0  0  0  0  0  0  0  0  0  0  0  0
   35.4651  -33.7581  -16.1150 C   0  0  2  0  0  0  0  0  0  0  0  0
   36.4253  -33.5004  -15.0891 N   0  0  0  0  0  0  0  0  0  0  0  0
   34.4848  -32.6622  -16.2323 C   0  0  0  0  0  0  0  0  0  0  0  0
   34.3030  -31.7870  -15.3629 O   0  0  0  0  0  0  0  0  0  0  0  0
   33.9948  -29.9046  -20.8709 C   0  0  0  0  0  0  0  0  0  0  0  0
   33.9191  -30.2180  -19.3916 C   0  0  1  0  0  0  0  0  0  0  0  0
   33.5727  -28.8900  -18.7032 C   0  0  0  0  0  0  0  0  0  0  0  0
   32.8001  -31.1736  -19.0814 C   0  0  0  0  0  0  0  0  0  0  0  0
   32.6918  -31.5338  -17.6194 C   0  0  2  0  0  0  0  0  0  0  0  0
   33.6925  -32.5901  -17.4064 N   0  0  0  0  0  0  0  0  0  0  0  0
   31.3749  -32.1479  -17.3832 C   0  0  0  0  0  0  0  0  0  0  0  0
   31.0303  -33.2501  -17.9313 O   0  0  0  0  0  0  0  0  0  0  0  0
   30.3929  -31.5667  -16.5341 N   0  0  0  0  0  0  0  0  0  0  0  0
   29.1485  -32.2851  -16.2250 C   0  0  1  0  0  0  0  0  0  0  0  0
   28.5330  -31.7238  -14.9671 C   0  0  0  0  0  0  0  0  0  0  0  0
   27.3434  -32.5092  -14.5848 C   0  0  0  0  0  0  0  0  0  0  0  0
   26.9037  -33.7171  -15.1303 C   0  0  0  0  0  0  0  0  0  0  0  0
   25.7783  -34.1298  -14.5213 N   0  0  0  0  0  0  0  0  0  0  0  0
   25.5065  -33.1926  -13.5981 C   0  0  0  0  0  0  0  0  0  0  0  0
   26.4293  -32.2374  -13.6358 N   0  0  0  0  0  0  0  0  0  0  0  0
   28.2005  -32.0914  -17.3437 C   0  0  0  0  0  0  0  0  0  0  0  0
   28.1761  -30.9488  -17.9150 O   0  0  0  0  0  0  0  0  0  0  0  0
   27.3411  -33.0447  -17.8216 O   0  0  0  0  0  0  0  0  0  0  0  0
  2  1  1  0
  2  3  1  0
  3  4  1  1
  5  3  1  0
  5  6  2  0
  8  7  1  6
  8 10  1  0
  8  9  1  0
 11 10  1  6
 11 12  1  0
 12  5  1  0
 13 11  1  0
 14 13  2  0
 15 13  1  0
 16 15  1  0
 16 17  1  1
 18 17  1  0
 19 18  2  0
 20 21  1  0
 20 19  1  0
 21 22  2  0
 22 18  1  0
 23 16  1  0
 24 23  2  0
 25 23  1  0
M  END
$$$$
