SLH.pdb
     RDKit          3D

 25 25  0  0  1  0  0  0  0  0999 V2000
   32.6953  -10.1614  -19.5361 O   0  0  0  0  0  0  0  0  0  0  0  0
   31.3555  -10.5157  -19.4047 C   0  0  0  0  0  0  0  0  0  0  0  0
   30.5398   -9.4153  -18.7689 C   0  0  2  0  0  0  0  0  0  0  0  0
   31.1045   -9.0518  -17.5080 N   0  0  0  0  0  0  0  0  0  0  0  0
   29.1115   -9.7626  -18.6471 C   0  0  0  0  0  0  0  0  0  0  0  0
   28.3679  -10.0243  -19.6132 O   0  0  0  0  0  0  0  0  0  0  0  0
   27.9099  -13.2110  -14.6786 C   0  0  0  0  0  0  0  0  0  0  0  0
   27.8640  -12.4558  -15.9900 C   0  0  1  0  0  0  0  0  0  0  0  0
   26.9142  -13.2534  -16.8952 C   0  0  0  0  0  0  0  0  0  0  0  0
   27.2607  -11.0883  -15.8243 C   0  0  0  0  0  0  0  0  0  0  0  0
   27.1733  -10.2992  -17.1083 C   0  0  2  0  0  0  0  0  0  0  0  0
   28.5365   -9.8042  -17.3512 N   0  0  0  0  0  0  0  0  0  0  0  0
   26.3307   -9.1148  -16.8754 C   0  0  0  0  0  0  0  0  0  0  0  0
   26.7291   -8.1243  -16.1724 O   0  0  0  0  0  0  0  0  0  0  0  0
   25.0194   -8.9828  -17.4103 N   0  0  0  0  0  0  0  0  0  0  0  0
   24.2439   -7.7521  -17.1998 C   0  0  1  0  0  0  0  0  0  0  0  0
   23.9943   -7.0724  -18.5235 C   0  0  0  0  0  0  0  0  0  0  0  0
   23.2470   -5.8159  -18.3207 C   0  0  0  0  0  0  0  0  0  0  0  0
   21.9778   -5.6557  -17.7608 C   0  0  0  0  0  0  0  0  0  0  0  0
   21.6285   -4.3574  -17.7436 N   0  0  0  0  0  0  0  0  0  0  0  0
   22.6661   -3.7002  -18.2874 C   0  0  0  0  0  0  0  0  0  0  0  0
   23.6200   -4.5602  -18.6275 N   0  0  0  0  0  0  0  0  0  0  0  0
   22.9412   -8.1113  -16.5984 C   0  0  0  0  0  0  0  0  0  0  0  0
   22.4566   -9.2627  -16.8666 O   0  0  0  0  0  0  0  0  0  0  0  0
   22.2071   -7.3046  -15.7701 O   0  0  0  0  0  0  0  0  0  0  0  0
  2  1  1  0
  2  3  1  0
  3  4  1  1
  5  3  1  0
  5  6  2  0
  8  7  1  1
  8 10  1  0
  8  9  1  0
 11 10  1  1
 11 12  1  0
 12  5  1  0
 13 11  1  0
 14 13  2  0
 15 13  1  0
 16 15  1  0
 16 17  1  6
 18 17  1  0
 19 18  2  0
 20 21  1  0
 20 19  1  0
 21 22  2  0
 22 18  1  0
 23 16  1  0
 24 23  2  0
 25 23  1  0
M  END
$$$$
