SLH.pdb
     RDKit          3D

 25 25  0  0  1  0  0  0  0  0999 V2000
   20.6794  -13.3529  -20.7204 O   0  0  0  0  0  0  0  0  0  0  0  0
   20.7707  -13.0093  -19.3745 C   0  0  0  0  0  0  0  0  0  0  0  0
   22.1888  -13.0994  -18.8633 C   0  0  2  0  0  0  0  0  0  0  0  0
   22.5404  -14.4642  -18.6296 N   0  0  0  0  0  0  0  0  0  0  0  0
   22.4179  -12.2649  -17.6688 C   0  0  0  0  0  0  0  0  0  0  0  0
   22.0266  -12.5585  -16.5219 O   0  0  0  0  0  0  0  0  0  0  0  0
   27.1968  -10.2080  -16.5466 C   0  0  0  0  0  0  0  0  0  0  0  0
   25.7720  -10.6811  -16.3507 C   0  0  1  0  0  0  0  0  0  0  0  0
   25.5804  -10.8034  -14.8322 C   0  0  0  0  0  0  0  0  0  0  0  0
   24.7759   -9.6636  -16.8343 C   0  0  0  0  0  0  0  0  0  0  0  0
   23.3387  -10.1090  -16.7114 C   0  0  2  0  0  0  0  0  0  0  0  0
   23.1284  -11.0473  -17.8241 N   0  0  0  0  0  0  0  0  0  0  0  0
   22.4649   -8.9519  -16.9658 C   0  0  0  0  0  0  0  0  0  0  0  0
   22.3751   -8.4079  -18.1191 O   0  0  0  0  0  0  0  0  0  0  0  0
   21.6601   -8.3553  -15.9562 N   0  0  0  0  0  0  0  0  0  0  0  0
   20.7839   -7.2177  -16.2701 C   0  0  1  0  0  0  0  0  0  0  0  0
   19.3860   -7.4976  -15.7764 C   0  0  0  0  0  0  0  0  0  0  0  0
   18.7220   -8.4834  -16.6514 C   0  0  0  0  0  0  0  0  0  0  0  0
   18.6360   -9.8657  -16.4726 C   0  0  0  0  0  0  0  0  0  0  0  0
   17.9503  -10.4317  -17.4812 N   0  0  0  0  0  0  0  0  0  0  0  0
   17.6045   -9.4183  -18.2922 C   0  0  0  0  0  0  0  0  0  0  0  0
   18.0595   -8.2699  -17.8028 N   0  0  0  0  0  0  0  0  0  0  0  0
   21.3002   -6.0178  -15.5762 C   0  0  0  0  0  0  0  0  0  0  0  0
   22.0762   -6.1935  -14.5764 O   0  0  0  0  0  0  0  0  0  0  0  0
   21.0133   -4.7240  -15.9216 O   0  0  0  0  0  0  0  0  0  0  0  0
  2  1  1  0
  2  3  1  0
  3  4  1  1
  5  3  1  0
  5  6  2  0
  8  7  1  1
  8 10  1  0
  8  9  1  0
 11 10  1  6
 11 12  1  0
 12  5  1  0
 13 11  1  0
 14 13  2  0
 15 13  1  0
 16 15  1  0
 16 17  1  1
 18 17  1  0
 19 18  2  0
 20 21  1  0
 20 19  1  0
 21 22  2  0
 22 18  1  0
 23 16  1  0
 24 23  2  0
 25 23  1  0
M  END
$$$$
