SLH.pdb
     RDKit          3D

 25 25  0  0  1  0  0  0  0  0999 V2000
   19.0575  -13.4681  -18.5490 O   0  0  0  0  0  0  0  0  0  0  0  0
   19.4774  -12.4400  -17.7096 C   0  0  0  0  0  0  0  0  0  0  0  0
   20.8109  -12.7428  -17.0688 C   0  0  2  0  0  0  0  0  0  0  0  0
   20.7299  -13.9542  -16.3159 N   0  0  0  0  0  0  0  0  0  0  0  0
   21.3167  -11.6248  -16.2504 C   0  0  0  0  0  0  0  0  0  0  0  0
   20.8958  -11.3421  -15.1113 O   0  0  0  0  0  0  0  0  0  0  0  0
   26.6388  -10.4199  -16.2668 C   0  0  0  0  0  0  0  0  0  0  0  0
   25.2019  -10.5362  -15.8041 C   0  0  1  0  0  0  0  0  0  0  0  0
   25.2170  -10.1819  -14.3102 C   0  0  0  0  0  0  0  0  0  0  0  0
   24.3155   -9.5277  -16.4814 C   0  0  0  0  0  0  0  0  0  0  0  0
   22.8627   -9.6261  -16.0832 C   0  0  2  0  0  0  0  0  0  0  0  0
   22.3491  -10.8122  -16.7847 N   0  0  0  0  0  0  0  0  0  0  0  0
   22.1444   -8.4662  -16.6363 C   0  0  0  0  0  0  0  0  0  0  0  0
   22.1918   -8.1656  -17.8778 O   0  0  0  0  0  0  0  0  0  0  0  0
   21.3492   -7.5981  -15.8381 N   0  0  0  0  0  0  0  0  0  0  0  0
   20.6679   -6.4419  -16.4377 C   0  0  1  0  0  0  0  0  0  0  0  0
   19.2936   -6.2888  -15.8343 C   0  0  0  0  0  0  0  0  0  0  0  0
   18.5913   -5.1433  -16.4448 C   0  0  0  0  0  0  0  0  0  0  0  0
   19.0177   -4.3464  -17.5094 C   0  0  0  0  0  0  0  0  0  0  0  0
   18.1062   -3.3972  -17.7849 N   0  0  0  0  0  0  0  0  0  0  0  0
   17.1110   -3.5899  -16.9036 C   0  0  0  0  0  0  0  0  0  0  0  0
   17.3973   -4.6192  -16.1138 N   0  0  0  0  0  0  0  0  0  0  0  0
   21.4538   -5.2243  -16.1417 C   0  0  0  0  0  0  0  0  0  0  0  0
   21.3457   -4.2343  -16.9421 O   0  0  0  0  0  0  0  0  0  0  0  0
   22.2932   -5.0700  -15.0706 O   0  0  0  0  0  0  0  0  0  0  0  0
  2  1  1  0
  2  3  1  0
  3  4  1  1
  5  3  1  0
  5  6  2  0
  8  7  1  6
  8 10  1  0
  8  9  1  0
 11 10  1  6
 11 12  1  0
 12  5  1  0
 13 11  1  0
 14 13  2  0
 15 13  1  0
 16 15  1  0
 16 17  1  1
 18 17  1  0
 19 18  2  0
 20 21  1  0
 20 19  1  0
 21 22  2  0
 22 18  1  0
 23 16  1  0
 24 23  2  0
 25 23  1  0
M  END
$$$$
