SLH.pdb
     RDKit          3D

 25 25  0  0  1  0  0  0  0  0999 V2000
   16.9824  -10.1638  -19.3622 O   0  0  0  0  0  0  0  0  0  0  0  0
   17.6218   -9.6543  -18.2355 C   0  0  0  0  0  0  0  0  0  0  0  0
   18.1183  -10.7507  -17.3234 C   0  0  2  0  0  0  0  0  0  0  0  0
   17.0127  -11.4374  -16.7344 N   0  0  0  0  0  0  0  0  0  0  0  0
   19.0616  -10.2585  -16.3019 C   0  0  0  0  0  0  0  0  0  0  0  0
   18.7254   -9.8657  -15.1672 O   0  0  0  0  0  0  0  0  0  0  0  0
   23.8585  -10.5746  -13.8950 C   0  0  0  0  0  0  0  0  0  0  0  0
   23.9350   -9.9545  -15.2742 C   0  0  1  0  0  0  0  0  0  0  0  0
   25.1783  -10.5660  -15.9358 C   0  0  0  0  0  0  0  0  0  0  0  0
   22.7558  -10.3402  -16.1242 C   0  0  0  0  0  0  0  0  0  0  0  0
   21.4561   -9.7074  -15.6893 C   0  0  2  0  0  0  0  0  0  0  0  0
   20.4432  -10.2257  -16.6209 N   0  0  0  0  0  0  0  0  0  0  0  0
   21.5389   -8.2562  -15.9225 C   0  0  0  0  0  0  0  0  0  0  0  0
   21.6875   -7.7627  -17.0923 O   0  0  0  0  0  0  0  0  0  0  0  0
   21.4607   -7.2997  -14.8727 N   0  0  0  0  0  0  0  0  0  0  0  0
   21.5316   -5.8605  -15.1624 C   0  0  1  0  0  0  0  0  0  0  0  0
   20.1769   -5.2298  -14.9547 C   0  0  0  0  0  0  0  0  0  0  0  0
   19.3663   -5.3421  -16.1830 C   0  0  0  0  0  0  0  0  0  0  0  0
   19.7333   -5.9181  -17.4011 C   0  0  0  0  0  0  0  0  0  0  0  0
   18.7264   -5.8319  -18.2879 N   0  0  0  0  0  0  0  0  0  0  0  0
   17.7300   -5.2072  -17.6388 C   0  0  0  0  0  0  0  0  0  0  0  0
   18.1075   -4.9186  -16.3980 N   0  0  0  0  0  0  0  0  0  0  0  0
   22.4930   -5.2369  -14.2273 C   0  0  0  0  0  0  0  0  0  0  0  0
   22.9296   -5.9461  -13.2583 O   0  0  0  0  0  0  0  0  0  0  0  0
   22.9582   -3.9518  -14.3170 O   0  0  0  0  0  0  0  0  0  0  0  0
  2  1  1  0
  2  3  1  0
  3  4  1  1
  5  3  1  0
  5  6  2  0
  8  7  1  1
  8 10  1  0
  8  9  1  0
 11 10  1  6
 11 12  1  0
 12  5  1  0
 13 11  1  0
 14 13  2  0
 15 13  1  0
 16 15  1  0
 16 17  1  1
 18 17  1  0
 19 18  2  0
 20 21  1  0
 20 19  1  0
 21 22  2  0
 22 18  1  0
 23 16  1  0
 24 23  2  0
 25 23  1  0
M  END
$$$$
