QTN.pdb
     RDKit          3D

 25 24  0  0  1  0  0  0  0  0999 V2000
    9.6311  -17.0747   12.7609 N   0  0  0  0  0  0  0  0  0  0  0  0
    8.4737  -16.2537   12.9181 C   0  0  0  0  0  0  0  0  0  0  0  0
    7.7419  -16.0520   11.9230 O   0  0  0  0  0  0  0  0  0  0  0  0
    8.2190  -15.6960   14.2569 C   0  0  0  0  0  0  0  0  0  0  0  0
    9.2678  -16.0164   15.2812 C   0  0  0  0  0  0  0  0  0  0  0  0
    8.6875  -16.5619   16.5428 C   0  0  2  0  0  0  0  0  0  0  0  0
    7.2205  -16.5070   16.5135 N   0  0  0  0  0  0  0  0  0  0  0  0
    9.2081  -15.8698   17.7557 C   0  0  0  0  0  0  0  0  0  0  0  0
   10.4541  -15.8079   17.9137 O   0  0  0  0  0  0  0  0  0  0  0  0
    6.6365  -13.9479   20.6274 C   0  0  0  0  0  0  0  0  0  0  0  0
    8.0336  -13.4889   20.3484 C   0  0  1  0  0  0  0  0  0  0  0  0
    8.5643  -12.9902   21.5734 O   0  0  0  0  0  0  0  0  0  0  0  0
    8.9475  -14.6585   19.9581 C   0  0  2  0  0  0  0  0  0  0  0  0
    8.3948  -15.2755   18.7451 N   0  0  0  0  0  0  0  0  0  0  0  0
    8.9348  -15.6380   21.0642 C   0  0  0  0  0  0  0  0  0  0  0  0
    8.0047  -16.5277   21.1348 O   0  0  0  0  0  0  0  0  0  0  0  0
   12.5364  -19.1530   22.3323 N   0  0  0  0  0  0  0  0  0  0  0  0
   11.7073  -18.0071   22.0534 C   0  0  0  0  0  0  0  0  0  0  0  0
   12.2628  -17.0501   21.4895 O   0  0  0  0  0  0  0  0  0  0  0  0
   10.3048  -18.0222   22.4324 C   0  0  0  0  0  0  0  0  0  0  0  0
    9.8043  -16.7877   23.1470 C   0  0  2  0  0  0  0  0  0  0  0  0
    9.8785  -15.7214   22.1111 N   0  0  0  0  0  0  0  0  0  0  0  0
   10.7493  -16.4592   24.2336 C   0  0  0  0  0  0  0  0  0  0  0  0
   10.8811  -17.2605   25.1837 O   0  0  0  0  0  0  0  0  0  0  0  0
   11.4799  -15.3050   24.2223 O   0  0  0  0  0  0  0  0  0  0  0  0
  2  1  1  0
  2  3  2  0
  4  2  1  0
  5  4  1  0
  6  7  1  6
  6  5  1  0
  8  6  1  0
  9  8  2  0
 11 10  1  1
 11 13  1  0
 11 12  1  0
 13 14  1  6
 14  8  1  0
 15 22  1  0
 15 13  1  0
 16 15  2  0
 18 17  1  0
 19 18  2  0
 20 18  1  0
 21 20  1  6
 21 22  1  0
 23 21  1  0
 23 25  1  0
 24 23  2  0
M  END
$$$$
