QTN.pdb
     RDKit          3D

 25 24  0  0  1  0  0  0  0  0999 V2000
   10.0700  -19.7575   17.0681 N   0  0  0  0  0  0  0  0  0  0  0  0
   10.3511  -19.2117   15.7792 C   0  0  0  0  0  0  0  0  0  0  0  0
   11.2355  -19.7533   15.0785 O   0  0  0  0  0  0  0  0  0  0  0  0
    9.5702  -18.0360   15.3595 C   0  0  0  0  0  0  0  0  0  0  0  0
    8.5099  -17.6065   16.3307 C   0  0  0  0  0  0  0  0  0  0  0  0
    8.2003  -16.1503   16.2325 C   0  0  2  0  0  0  0  0  0  0  0  0
    8.5871  -15.6179   14.9199 N   0  0  0  0  0  0  0  0  0  0  0  0
    8.8371  -15.3573   17.3218 C   0  0  0  0  0  0  0  0  0  0  0  0
    9.9428  -14.8070   17.0855 O   0  0  0  0  0  0  0  0  0  0  0  0
    7.2747  -12.6229   19.6866 C   0  0  0  0  0  0  0  0  0  0  0  0
    7.9320  -13.6962   20.4969 C   0  0  1  0  0  0  0  0  0  0  0  0
    6.9286  -14.6579   20.8124 O   0  0  0  0  0  0  0  0  0  0  0  0
    8.9824  -14.4607   19.6799 C   0  0  2  0  0  0  0  0  0  0  0  0
    8.2819  -15.1800   18.6078 N   0  0  0  0  0  0  0  0  0  0  0  0
    9.6448  -15.4291   20.5780 C   0  0  0  0  0  0  0  0  0  0  0  0
    9.3802  -16.6873   20.4869 O   0  0  0  0  0  0  0  0  0  0  0  0
   14.6793  -16.7962   23.1893 N   0  0  0  0  0  0  0  0  0  0  0  0
   13.4158  -16.3093   23.6840 C   0  0  0  0  0  0  0  0  0  0  0  0
   13.1288  -16.6131   24.8535 O   0  0  0  0  0  0  0  0  0  0  0  0
   12.5623  -15.5113   22.8207 C   0  0  0  0  0  0  0  0  0  0  0  0
   11.2975  -16.1864   22.3418 C   0  0  2  0  0  0  0  0  0  0  0  0
   10.5912  -15.1208   21.5795 N   0  0  0  0  0  0  0  0  0  0  0  0
   10.4823  -16.5452   23.5202 C   0  0  0  0  0  0  0  0  0  0  0  0
    9.6117  -15.7428   23.9208 O   0  0  0  0  0  0  0  0  0  0  0  0
   10.6573  -17.7297   24.1779 O   0  0  0  0  0  0  0  0  0  0  0  0
  2  1  1  0
  2  3  2  0
  4  2  1  0
  5  4  1  0
  6  7  1  6
  6  5  1  0
  8  6  1  0
  9  8  2  0
 11 10  1  6
 11 13  1  0
 11 12  1  0
 13 14  1  6
 14  8  1  0
 15 22  1  0
 15 13  1  0
 16 15  2  0
 18 17  1  0
 19 18  2  0
 20 18  1  0
 21 20  1  1
 21 22  1  0
 23 21  1  0
 23 25  1  0
 24 23  2  0
M  END
$$$$
