QTN.pdb
     RDKit          3D

 25 24  0  0  1  0  0  0  0  0999 V2000
    2.1994  -26.2312   29.3785 N   0  0  0  0  0  0  0  0  0  0  0  0
    1.8558  -27.3438   28.5525 C   0  0  0  0  0  0  0  0  0  0  0  0
    2.5337  -28.3918   28.6454 O   0  0  0  0  0  0  0  0  0  0  0  0
    0.7130  -27.1781   27.6388 C   0  0  0  0  0  0  0  0  0  0  0  0
    0.0021  -25.8616   27.7538 C   0  0  0  0  0  0  0  0  0  0  0  0
   -1.4807  -26.0156   27.8140 C   0  0  2  0  0  0  0  0  0  0  0  0
   -2.0273  -26.3615   26.4959 N   0  0  0  0  0  0  0  0  0  0  0  0
   -2.1583  -24.8031   28.3543 C   0  0  0  0  0  0  0  0  0  0  0  0
   -1.7115  -24.2980   29.4157 O   0  0  0  0  0  0  0  0  0  0  0  0
   -2.5681  -21.4703   26.7352 C   0  0  0  0  0  0  0  0  0  0  0  0
   -3.9344  -21.9237   27.1453 C   0  0  1  0  0  0  0  0  0  0  0  0
   -4.4931  -22.6268   26.0386 O   0  0  0  0  0  0  0  0  0  0  0  0
   -3.8732  -22.9484   28.2862 C   0  0  2  0  0  0  0  0  0  0  0  0
   -3.2732  -24.1788   27.7538 N   0  0  0  0  0  0  0  0  0  0  0  0
   -5.2556  -23.2213   28.7308 C   0  0  0  0  0  0  0  0  0  0  0  0
   -5.9392  -24.1687   28.1862 O   0  0  0  0  0  0  0  0  0  0  0  0
   -6.5031  -25.6660   32.2647 N   0  0  0  0  0  0  0  0  0  0  0  0
   -7.1407  -24.9697   31.1753 C   0  0  0  0  0  0  0  0  0  0  0  0
   -7.4204  -25.6510   30.1753 O   0  0  0  0  0  0  0  0  0  0  0  0
   -7.4183  -23.5484   31.2917 C   0  0  0  0  0  0  0  0  0  0  0  0
   -7.4017  -22.7677   29.9974 C   0  0  2  0  0  0  0  0  0  0  0  0
   -5.9547  -22.5289   29.7435 N   0  0  0  0  0  0  0  0  0  0  0  0
   -8.0637  -21.4671   30.2256 C   0  0  0  0  0  0  0  0  0  0  0  0
   -9.3101  -21.4292   30.3104 O   0  0  0  0  0  0  0  0  0  0  0  0
   -7.3469  -20.3106   30.3467 O   0  0  0  0  0  0  0  0  0  0  0  0
  2  1  1  0
  2  3  2  0
  4  2  1  0
  5  4  1  0
  6  7  1  6
  6  5  1  0
  8  6  1  0
  9  8  2  0
 11 10  1  6
 11 13  1  0
 11 12  1  0
 13 14  1  6
 14  8  1  0
 15 22  1  0
 15 13  1  0
 16 15  2  0
 18 17  1  0
 19 18  2  0
 20 18  1  0
 21 20  1  1
 21 22  1  0
 23 21  1  0
 23 25  1  0
 24 23  2  0
M  END
$$$$
