QTN.pdb
     RDKit          3D

 25 24  0  0  1  0  0  0  0  0999 V2000
   10.5867  -20.0137   14.8169 N   0  0  0  0  0  0  0  0  0  0  0  0
    9.1889  -20.2877   14.7203 C   0  0  0  0  0  0  0  0  0  0  0  0
    8.8083  -21.1998   13.9524 O   0  0  0  0  0  0  0  0  0  0  0  0
    8.2825  -19.4683   15.5419 C   0  0  0  0  0  0  0  0  0  0  0  0
    8.9663  -18.4540   16.4111 C   0  0  0  0  0  0  0  0  0  0  0  0
    8.0087  -17.6977   17.2695 C   0  0  2  0  0  0  0  0  0  0  0  0
    6.9691  -17.0540   16.4564 N   0  0  0  0  0  0  0  0  0  0  0  0
    8.6891  -16.6911   18.1326 C   0  0  0  0  0  0  0  0  0  0  0  0
    9.6645  -16.0602   17.6512 O   0  0  0  0  0  0  0  0  0  0  0  0
    7.1095  -13.7772   20.1944 C   0  0  0  0  0  0  0  0  0  0  0  0
    7.9679  -14.6223   21.0829 C   0  0  1  0  0  0  0  0  0  0  0  0
    7.1241  -15.6145   21.6615 O   0  0  0  0  0  0  0  0  0  0  0  0
    9.0187  -15.4025   20.2812 C   0  0  2  0  0  0  0  0  0  0  0  0
    8.3123  -16.3952   19.4608 N   0  0  0  0  0  0  0  0  0  0  0  0
    9.9072  -16.0913   21.2399 C   0  0  0  0  0  0  0  0  0  0  0  0
    9.7070  -17.3290   21.5389 O   0  0  0  0  0  0  0  0  0  0  0  0
   14.2385  -17.5784   24.0204 N   0  0  0  0  0  0  0  0  0  0  0  0
   14.1559  -16.1577   23.7899 C   0  0  0  0  0  0  0  0  0  0  0  0
   14.9541  -15.4498   24.4255 O   0  0  0  0  0  0  0  0  0  0  0  0
   13.1743  -15.6345   22.8552 C   0  0  0  0  0  0  0  0  0  0  0  0
   11.8134  -16.2910   22.8959 C   0  0  2  0  0  0  0  0  0  0  0  0
   11.0163  -15.5212   21.9022 N   0  0  0  0  0  0  0  0  0  0  0  0
   11.2306  -16.0796   24.2367 C   0  0  0  0  0  0  0  0  0  0  0  0
   10.4617  -15.1108   24.4163 O   0  0  0  0  0  0  0  0  0  0  0  0
   11.5111  -16.9165   25.2792 O   0  0  0  0  0  0  0  0  0  0  0  0
  2  1  1  0
  2  3  2  0
  4  2  1  0
  5  4  1  0
  6  7  1  6
  6  5  1  0
  8  6  1  0
  9  8  2  0
 11 10  1  6
 11 13  1  0
 11 12  1  0
 13 14  1  6
 14  8  1  0
 15 22  1  0
 15 13  1  0
 16 15  2  0
 18 17  1  0
 19 18  2  0
 20 18  1  0
 21 20  1  1
 21 22  1  0
 23 21  1  0
 23 25  1  0
 24 23  2  0
M  END
$$$$
