QTN.pdb
     RDKit          3D

 25 24  0  0  1  0  0  0  0  0999 V2000
   10.1194  -18.9651   15.8045 N   0  0  0  0  0  0  0  0  0  0  0  0
   11.3567  -18.6851   16.4594 C   0  0  0  0  0  0  0  0  0  0  0  0
   12.0986  -19.6426   16.7746 O   0  0  0  0  0  0  0  0  0  0  0  0
   11.6772  -17.2718   16.7203 C   0  0  0  0  0  0  0  0  0  0  0  0
   10.6673  -16.2918   16.1991 C   0  0  0  0  0  0  0  0  0  0  0  0
   11.0731  -14.8748   16.4302 C   0  0  2  0  0  0  0  0  0  0  0  0
   12.4210  -14.6217   15.9056 N   0  0  0  0  0  0  0  0  0  0  0  0
   10.9945  -14.4863   17.8668 C   0  0  0  0  0  0  0  0  0  0  0  0
   12.0661  -14.2184   18.4678 O   0  0  0  0  0  0  0  0  0  0  0  0
    7.7404  -12.5196   19.5460 C   0  0  0  0  0  0  0  0  0  0  0  0
    8.2908  -13.6503   20.3579 C   0  0  1  0  0  0  0  0  0  0  0  0
    7.5702  -14.8228   19.9875 O   0  0  0  0  0  0  0  0  0  0  0  0
    9.7540  -13.9451   20.0009 C   0  0  2  0  0  0  0  0  0  0  0  0
    9.7936  -14.3975   18.6040 N   0  0  0  0  0  0  0  0  0  0  0  0
   10.2326  -15.0259   20.8874 C   0  0  0  0  0  0  0  0  0  0  0  0
   10.8390  -16.0511   20.3947 O   0  0  0  0  0  0  0  0  0  0  0  0
   13.9886  -15.6892   21.1447 N   0  0  0  0  0  0  0  0  0  0  0  0
   13.3942  -16.0674   22.4024 C   0  0  0  0  0  0  0  0  0  0  0  0
   13.8254  -17.1088   22.9238 O   0  0  0  0  0  0  0  0  0  0  0  0
   12.3511  -15.2406   22.9848 C   0  0  0  0  0  0  0  0  0  0  0  0
   10.9994  -15.8996   23.1378 C   0  0  2  0  0  0  0  0  0  0  0  0
   10.0996  -15.0682   22.2924 N   0  0  0  0  0  0  0  0  0  0  0  0
   10.5739  -15.7755   24.5469 C   0  0  0  0  0  0  0  0  0  0  0  0
    9.9273  -14.7647   24.8968 O   0  0  0  0  0  0  0  0  0  0  0  0
   10.8689  -16.7370   25.4711 O   0  0  0  0  0  0  0  0  0  0  0  0
  2  1  1  0
  2  3  2  0
  4  2  1  0
  5  4  1  0
  6  7  1  1
  6  5  1  0
  8  6  1  0
  9  8  2  0
 11 10  1  6
 11 13  1  0
 11 12  1  0
 13 14  1  6
 14  8  1  0
 15 22  1  0
 15 13  1  0
 16 15  2  0
 18 17  1  0
 19 18  2  0
 20 18  1  0
 21 20  1  1
 21 22  1  0
 23 21  1  0
 23 25  1  0
 24 23  2  0
M  END
$$$$
