IMN.pdb
     RDKit          3D

 25 24  0  0  1  0  0  0  0  0999 V2000
    7.9899  -12.1431   21.3566 C   0  0  0  0  0  0  0  0  0  0  0  0
    8.2434  -13.5163   21.8942 C   0  0  0  0  0  0  0  0  0  0  0  0
    8.7501  -14.4914   20.8538 C   0  0  2  0  0  0  0  0  0  0  0  0
    7.8004  -14.5832   19.7123 C   0  0  0  0  0  0  0  0  0  0  0  0
    8.9790  -15.8117   21.5594 C   0  0  2  0  0  0  0  0  0  0  0  0
    7.6456  -16.2829   21.9834 N   0  0  0  0  0  0  0  0  0  0  0  0
    9.8059  -15.6963   22.7782 C   0  0  0  0  0  0  0  0  0  0  0  0
   11.0439  -15.3828   22.6716 O   0  0  0  0  0  0  0  0  0  0  0  0
    9.9359  -12.3007   26.9472 C   0  0  0  0  0  0  0  0  0  0  0  0
    9.6884  -13.4799   28.2837 S   0  0  0  0  0  0  0  0  0  0  0  0
   10.0329  -15.1933   27.7238 C   0  0  0  0  0  0  0  0  0  0  0  0
    9.2875  -15.3739   26.4370 C   0  0  0  0  0  0  0  0  0  0  0  0
   10.1764  -15.8119   25.2887 C   0  0  2  0  0  0  0  0  0  0  0  0
    9.3613  -15.9013   24.0987 N   0  0  0  0  0  0  0  0  0  0  0  0
   10.8774  -17.0715   25.5865 C   0  0  0  0  0  0  0  0  0  0  0  0
   11.6177  -17.1422   26.6212 O   0  0  0  0  0  0  0  0  0  0  0  0
   12.0451  -19.3102   21.6691 N   0  0  0  0  0  0  0  0  0  0  0  0
   11.4286  -19.9816   22.7929 C   0  0  0  0  0  0  0  0  0  0  0  0
   10.2677  -20.3990   22.5911 O   0  0  0  0  0  0  0  0  0  0  0  0
   12.1529  -20.1405   24.0648 C   0  0  0  0  0  0  0  0  0  0  0  0
   11.4390  -19.4927   25.1842 C   0  0  2  0  0  0  0  0  0  0  0  0
   10.7901  -18.2405   24.7911 N   0  0  0  0  0  0  0  0  0  0  0  0
   12.3070  -19.2453   26.3286 C   0  0  0  0  0  0  0  0  0  0  0  0
   13.2927  -18.4451   26.1818 O   0  0  0  0  0  0  0  0  0  0  0  0
   12.1727  -19.7930   27.5695 O   0  0  0  0  0  0  0  0  0  0  0  0
  2  1  1  0
  3  2  1  0
  3  5  1  0
  3  4  1  6
  5  7  1  0
  5  6  1  1
  7  8  2  0
 10 11  1  0
 10  9  1  0
 11 12  1  0
 13 12  1  1
 14 13  1  0
 14  7  1  0
 15 16  2  0
 15 13  1  0
 17 18  1  0
 18 20  1  0
 19 18  2  0
 21 20  1  6
 21 23  1  0
 21 22  1  0
 22 15  1  0
 23 25  1  0
 24 23  2  0
M  END
$$$$
