IMN.pdb
     RDKit          3D

 25 24  0  0  1  0  0  0  0  0999 V2000
    7.3866  -12.4053   18.2037 C   0  0  0  0  0  0  0  0  0  0  0  0
    7.3473  -13.6214   19.0747 C   0  0  0  0  0  0  0  0  0  0  0  0
    7.7114  -13.3466   20.5176 C   0  0  2  0  0  0  0  0  0  0  0  0
    9.0517  -12.7072   20.6093 C   0  0  0  0  0  0  0  0  0  0  0  0
    7.6171  -14.6650   21.2565 C   0  0  2  0  0  0  0  0  0  0  0  0
    6.3915  -15.3223   20.7607 N   0  0  0  0  0  0  0  0  0  0  0  0
    7.4677  -14.5152   22.7186 C   0  0  0  0  0  0  0  0  0  0  0  0
    6.8720  -13.4821   23.1879 O   0  0  0  0  0  0  0  0  0  0  0  0
    7.1824  -12.3244   27.7743 C   0  0  0  0  0  0  0  0  0  0  0  0
    5.9061  -12.6702   26.5540 S   0  0  0  0  0  0  0  0  0  0  0  0
    6.4932  -13.8876   25.3124 C   0  0  0  0  0  0  0  0  0  0  0  0
    7.6828  -14.5670   25.9184 C   0  0  0  0  0  0  0  0  0  0  0  0
    8.6671  -15.0812   24.8853 C   0  0  2  0  0  0  0  0  0  0  0  0
    7.9275  -15.4234   23.6918 N   0  0  0  0  0  0  0  0  0  0  0  0
    9.4618  -16.2093   25.3976 C   0  0  0  0  0  0  0  0  0  0  0  0
    9.7060  -16.2824   26.6461 O   0  0  0  0  0  0  0  0  0  0  0  0
    9.3702  -19.7469   22.3084 N   0  0  0  0  0  0  0  0  0  0  0  0
    9.5784  -19.7904   23.7397 C   0  0  0  0  0  0  0  0  0  0  0  0
    8.5685  -20.0850   24.4151 O   0  0  0  0  0  0  0  0  0  0  0  0
   10.9015  -19.5018   24.3173 C   0  0  0  0  0  0  0  0  0  0  0  0
   10.8849  -18.2693   25.1316 C   0  0  2  0  0  0  0  0  0  0  0  0
    9.9893  -17.2460   24.5890 N   0  0  0  0  0  0  0  0  0  0  0  0
   12.2151  -17.6999   25.3061 C   0  0  0  0  0  0  0  0  0  0  0  0
   12.4032  -16.4812   24.9701 O   0  0  0  0  0  0  0  0  0  0  0  0
   13.3057  -18.3491   25.8028 O   0  0  0  0  0  0  0  0  0  0  0  0
  2  1  1  0
  3  2  1  0
  3  5  1  0
  3  4  1  6
  5  7  1  0
  5  6  1  6
  7  8  2  0
 10 11  1  0
 10  9  1  0
 11 12  1  0
 13 12  1  1
 14 13  1  0
 14  7  1  0
 15 16  2  0
 15 13  1  0
 17 18  1  0
 18 20  1  0
 19 18  2  0
 21 20  1  6
 21 23  1  0
 21 22  1  0
 22 15  1  0
 23 25  1  0
 24 23  2  0
M  END
$$$$
