IMN.pdb
     RDKit          3D

 25 24  0  0  1  0  0  0  0  0999 V2000
    6.9592  -12.4663   18.6485 C   0  0  0  0  0  0  0  0  0  0  0  0
    7.3201  -13.7765   19.2749 C   0  0  0  0  0  0  0  0  0  0  0  0
    8.6589  -13.7638   19.9801 C   0  0  2  0  0  0  0  0  0  0  0  0
    9.7686  -13.6199   18.9996 C   0  0  0  0  0  0  0  0  0  0  0  0
    8.7376  -15.0328   20.8026 C   0  0  2  0  0  0  0  0  0  0  0  0
    7.3826  -15.6185   20.7777 N   0  0  0  0  0  0  0  0  0  0  0  0
    9.0832  -14.7995   22.2199 C   0  0  0  0  0  0  0  0  0  0  0  0
   10.2786  -14.4556   22.5281 O   0  0  0  0  0  0  0  0  0  0  0  0
    6.8300  -10.9822   26.9733 C   0  0  0  0  0  0  0  0  0  0  0  0
    6.5630  -12.6731   27.5276 S   0  0  0  0  0  0  0  0  0  0  0  0
    7.8626  -13.7937   26.8768 C   0  0  0  0  0  0  0  0  0  0  0  0
    7.5204  -14.0461   25.4403 C   0  0  0  0  0  0  0  0  0  0  0  0
    8.5754  -14.8535   24.7084 C   0  0  2  0  0  0  0  0  0  0  0  0
    8.2036  -14.9183   23.3134 N   0  0  0  0  0  0  0  0  0  0  0  0
    8.7581  -16.1868   25.3046 C   0  0  0  0  0  0  0  0  0  0  0  0
    7.7691  -16.9890   25.3504 O   0  0  0  0  0  0  0  0  0  0  0  0
   12.5020  -18.6527   23.6038 N   0  0  0  0  0  0  0  0  0  0  0  0
   11.2919  -18.8165   24.3801 C   0  0  0  0  0  0  0  0  0  0  0  0
   10.2603  -19.0499   23.7136 O   0  0  0  0  0  0  0  0  0  0  0  0
   11.3186  -18.7085   25.8481 C   0  0  0  0  0  0  0  0  0  0  0  0
   10.1193  -18.0195   26.3669 C   0  0  2  0  0  0  0  0  0  0  0  0
    9.9797  -16.6587   25.8450 N   0  0  0  0  0  0  0  0  0  0  0  0
   10.0862  -17.9811   27.8234 C   0  0  0  0  0  0  0  0  0  0  0  0
   10.2054  -19.0812   28.4631 O   0  0  0  0  0  0  0  0  0  0  0  0
    9.9376  -16.8657   28.5925 O   0  0  0  0  0  0  0  0  0  0  0  0
  2  1  1  0
  3  2  1  0
  3  5  1  0
  3  4  1  6
  5  7  1  0
  5  6  1  1
  7  8  2  0
 10 11  1  0
 10  9  1  0
 11 12  1  0
 13 12  1  1
 14 13  1  0
 14  7  1  0
 15 16  2  0
 15 13  1  0
 17 18  1  0
 18 20  1  0
 19 18  2  0
 21 20  1  1
 21 23  1  0
 21 22  1  0
 22 15  1  0
 23 25  1  0
 24 23  2  0
M  END
$$$$
