IMN.pdb
     RDKit          3D

 25 24  0  0  1  0  0  0  0  0999 V2000
    7.9462  -15.8084   16.6453 C   0  0  0  0  0  0  0  0  0  0  0  0
    7.8808  -14.6546   17.5960 C   0  0  0  0  0  0  0  0  0  0  0  0
    8.1374  -15.0400   19.0367 C   0  0  2  0  0  0  0  0  0  0  0  0
    7.2959  -16.2029   19.4280 C   0  0  0  0  0  0  0  0  0  0  0  0
    7.8907  -13.8038   19.8758 C   0  0  2  0  0  0  0  0  0  0  0  0
    8.7856  -12.7607   19.3363 N   0  0  0  0  0  0  0  0  0  0  0  0
    8.2368  -13.9770   21.3016 C   0  0  0  0  0  0  0  0  0  0  0  0
    9.4386  -14.2826   21.6251 O   0  0  0  0  0  0  0  0  0  0  0  0
    7.7906  -12.1898   28.4464 C   0  0  0  0  0  0  0  0  0  0  0  0
    7.3983  -12.1171   26.6918 S   0  0  0  0  0  0  0  0  0  0  0  0
    6.7533  -13.7274   26.0927 C   0  0  0  0  0  0  0  0  0  0  0  0
    6.5209  -13.5670   24.6215 C   0  0  0  0  0  0  0  0  0  0  0  0
    7.6717  -14.0786   23.7762 C   0  0  2  0  0  0  0  0  0  0  0  0
    7.3518  -13.8357   22.3880 N   0  0  0  0  0  0  0  0  0  0  0  0
    7.9641  -15.4957   24.0466 C   0  0  0  0  0  0  0  0  0  0  0  0
    7.4694  -16.3896   23.2852 O   0  0  0  0  0  0  0  0  0  0  0  0
   12.2081  -18.4431   22.8201 N   0  0  0  0  0  0  0  0  0  0  0  0
   10.9230  -17.7832   22.9029 C   0  0  0  0  0  0  0  0  0  0  0  0
   10.0309  -18.2629   22.1702 O   0  0  0  0  0  0  0  0  0  0  0  0
   10.7237  -16.6327   23.7997 C   0  0  0  0  0  0  0  0  0  0  0  0
    9.8159  -16.9626   24.9176 C   0  0  2  0  0  0  0  0  0  0  0  0
    8.7737  -15.9535   25.1152 N   0  0  0  0  0  0  0  0  0  0  0  0
   10.5296  -17.1680   26.1716 C   0  0  0  0  0  0  0  0  0  0  0  0
   11.4460  -18.0581   26.2104 O   0  0  0  0  0  0  0  0  0  0  0  0
   10.3151  -16.4923   27.3357 O   0  0  0  0  0  0  0  0  0  0  0  0
  2  1  1  0
  3  2  1  0
  3  5  1  0
  3  4  1  1
  5  7  1  0
  5  6  1  6
  7  8  2  0
 10 11  1  0
 10  9  1  0
 11 12  1  0
 13 12  1  1
 14 13  1  0
 14  7  1  0
 15 16  2  0
 15 13  1  0
 17 18  1  0
 18 20  1  0
 19 18  2  0
 21 20  1  6
 21 23  1  0
 21 22  1  0
 22 15  1  0
 23 25  1  0
 24 23  2  0
M  END
$$$$
