IMN.pdb
     RDKit          3D

 25 24  0  0  1  0  0  0  0  0999 V2000
    7.5953  -17.1090   17.7433 C   0  0  0  0  0  0  0  0  0  0  0  0
    7.3831  -15.7777   18.3926 C   0  0  0  0  0  0  0  0  0  0  0  0
    7.8754  -15.7142   19.8222 C   0  0  2  0  0  0  0  0  0  0  0  0
    7.3211  -16.8411   20.6199 C   0  0  0  0  0  0  0  0  0  0  0  0
    7.4997  -14.3491   20.3592 C   0  0  2  0  0  0  0  0  0  0  0  0
    7.9240  -13.3770   19.3321 N   0  0  0  0  0  0  0  0  0  0  0  0
    8.1997  -13.9915   21.6101 C   0  0  0  0  0  0  0  0  0  0  0  0
    9.4374  -13.6619   21.5668 O   0  0  0  0  0  0  0  0  0  0  0  0
    5.2316  -11.9398   27.1155 C   0  0  0  0  0  0  0  0  0  0  0  0
    6.9312  -11.3509   27.1645 S   0  0  0  0  0  0  0  0  0  0  0  0
    8.0639  -12.5356   26.3388 C   0  0  0  0  0  0  0  0  0  0  0  0
    7.4530  -12.8432   25.0061 C   0  0  0  0  0  0  0  0  0  0  0  0
    8.3357  -13.7130   24.1315 C   0  0  2  0  0  0  0  0  0  0  0  0
    7.6293  -13.9722   22.8976 N   0  0  0  0  0  0  0  0  0  0  0  0
    8.7409  -14.9502   24.8185 C   0  0  0  0  0  0  0  0  0  0  0  0
    9.3821  -14.8709   25.9167 O   0  0  0  0  0  0  0  0  0  0  0  0
    6.0615  -18.5365   23.2358 N   0  0  0  0  0  0  0  0  0  0  0  0
    6.6044  -18.0863   24.4993 C   0  0  0  0  0  0  0  0  0  0  0  0
    5.8808  -17.2894   25.1350 O   0  0  0  0  0  0  0  0  0  0  0  0
    7.9188  -18.5584   24.9651 C   0  0  0  0  0  0  0  0  0  0  0  0
    8.8909  -17.4510   25.0703 C   0  0  2  0  0  0  0  0  0  0  0  0
    8.4658  -16.2551   24.3404 N   0  0  0  0  0  0  0  0  0  0  0  0
   10.2240  -17.8369   24.6253 C   0  0  0  0  0  0  0  0  0  0  0  0
   10.7686  -17.1651   23.6842 O   0  0  0  0  0  0  0  0  0  0  0  0
   10.9679  -18.8656   25.1213 O   0  0  0  0  0  0  0  0  0  0  0  0
  2  1  1  0
  3  2  1  0
  3  5  1  0
  3  4  1  1
  5  7  1  0
  5  6  1  6
  7  8  2  0
 10 11  1  0
 10  9  1  0
 11 12  1  0
 13 12  1  1
 14 13  1  0
 14  7  1  0
 15 16  2  0
 15 13  1  0
 17 18  1  0
 18 20  1  0
 19 18  2  0
 21 20  1  6
 21 23  1  0
 21 22  1  0
 22 15  1  0
 23 25  1  0
 24 23  2  0
M  END
$$$$
