IMN.pdb
     RDKit          3D

 25 24  0  0  1  0  0  0  0  0999 V2000
    8.3207  -12.6437   27.7509 C   0  0  0  0  0  0  0  0  0  0  0  0
    7.8541  -13.9269   27.1387 C   0  0  0  0  0  0  0  0  0  0  0  0
    6.7106  -13.7533   26.1629 C   0  0  2  0  0  0  0  0  0  0  0  0
    5.5317  -13.1454   26.8367 C   0  0  0  0  0  0  0  0  0  0  0  0
    6.4303  -15.1153   25.5632 C   0  0  2  0  0  0  0  0  0  0  0  0
    6.4889  -16.0735   26.6848 N   0  0  0  0  0  0  0  0  0  0  0  0
    7.4385  -15.5451   24.5726 C   0  0  0  0  0  0  0  0  0  0  0  0
    8.1484  -16.5859   24.8078 O   0  0  0  0  0  0  0  0  0  0  0  0
    7.9347  -11.7069   19.6995 C   0  0  0  0  0  0  0  0  0  0  0  0
    7.0798  -13.2094   19.2002 S   0  0  0  0  0  0  0  0  0  0  0  0
    7.0488  -14.4354   20.5655 C   0  0  0  0  0  0  0  0  0  0  0  0
    8.4468  -14.5073   21.0990 C   0  0  0  0  0  0  0  0  0  0  0  0
    8.5790  -15.4158   22.3063 C   0  0  2  0  0  0  0  0  0  0  0  0
    7.7139  -14.9085   23.3468 N   0  0  0  0  0  0  0  0  0  0  0  0
    9.9773  -15.5414   22.7486 C   0  0  0  0  0  0  0  0  0  0  0  0
   10.3196  -15.0557   23.8758 O   0  0  0  0  0  0  0  0  0  0  0  0
   12.8359  -19.8163   24.7727 N   0  0  0  0  0  0  0  0  0  0  0  0
   12.8963  -18.4491   24.3029 C   0  0  0  0  0  0  0  0  0  0  0  0
   13.9883  -17.8702   24.4908 O   0  0  0  0  0  0  0  0  0  0  0  0
   11.7318  -17.8234   23.6548 C   0  0  0  0  0  0  0  0  0  0  0  0
   12.1397  -16.8269   22.6434 C   0  0  2  0  0  0  0  0  0  0  0  0
   10.9974  -16.1767   21.9985 N   0  0  0  0  0  0  0  0  0  0  0  0
   13.0088  -17.3957   21.6211 C   0  0  0  0  0  0  0  0  0  0  0  0
   14.2692  -17.2093   21.7226 O   0  0  0  0  0  0  0  0  0  0  0  0
   12.6062  -18.1238   20.5415 O   0  0  0  0  0  0  0  0  0  0  0  0
  2  1  1  0
  3  2  1  0
  3  5  1  0
  3  4  1  1
  5  7  1  0
  5  6  1  1
  7  8  2  0
 10 11  1  0
 10  9  1  0
 11 12  1  0
 13 12  1  6
 14 13  1  0
 14  7  1  0
 15 16  2  0
 15 13  1  0
 17 18  1  0
 18 20  1  0
 19 18  2  0
 21 20  1  1
 21 23  1  0
 21 22  1  0
 22 15  1  0
 23 25  1  0
 24 23  2  0
M  END
$$$$
