IMN.pdb
     RDKit          3D

 25 24  0  0  1  0  0  0  0  0999 V2000
    7.5710  -12.0550   18.9685 C   0  0  0  0  0  0  0  0  0  0  0  0
    7.3673  -13.2892   19.7897 C   0  0  0  0  0  0  0  0  0  0  0  0
    8.3280  -14.4085   19.4518 C   0  0  2  0  0  0  0  0  0  0  0  0
    8.0708  -14.9268   18.0812 C   0  0  0  0  0  0  0  0  0  0  0  0
    8.1826  -15.4579   20.5338 C   0  0  2  0  0  0  0  0  0  0  0  0
    6.7817  -15.9195   20.4672 N   0  0  0  0  0  0  0  0  0  0  0  0
    8.4028  -14.9363   21.8983 C   0  0  0  0  0  0  0  0  0  0  0  0
    8.2619  -13.6825   22.1234 O   0  0  0  0  0  0  0  0  0  0  0  0
    6.5187  -11.6770   27.8115 C   0  0  0  0  0  0  0  0  0  0  0  0
    6.4577  -12.5518   26.2403 S   0  0  0  0  0  0  0  0  0  0  0  0
    7.8496  -13.7387   26.0917 C   0  0  0  0  0  0  0  0  0  0  0  0
    7.7978  -14.2757   24.6941 C   0  0  0  0  0  0  0  0  0  0  0  0
    8.9601  -15.1924   24.3636 C   0  0  2  0  0  0  0  0  0  0  0  0
    8.7648  -15.7002   23.0248 N   0  0  0  0  0  0  0  0  0  0  0  0
    9.1109  -16.2680   25.3570 C   0  0  0  0  0  0  0  0  0  0  0  0
    8.1635  -17.1050   25.5168 O   0  0  0  0  0  0  0  0  0  0  0  0
   11.0795  -19.6839   24.6816 N   0  0  0  0  0  0  0  0  0  0  0  0
   12.2357  -19.0183   25.2421 C   0  0  0  0  0  0  0  0  0  0  0  0
   13.3291  -19.3189   24.7157 O   0  0  0  0  0  0  0  0  0  0  0  0
   12.0896  -18.0624   26.3521 C   0  0  0  0  0  0  0  0  0  0  0  0
   10.6699  -17.7724   26.6399 C   0  0  2  0  0  0  0  0  0  0  0  0
   10.2572  -16.4488   26.1695 N   0  0  0  0  0  0  0  0  0  0  0  0
   10.3524  -17.8993   28.0567 C   0  0  0  0  0  0  0  0  0  0  0  0
   10.0205  -16.8470   28.7016 O   0  0  0  0  0  0  0  0  0  0  0  0
   10.3736  -19.0528   28.7825 O   0  0  0  0  0  0  0  0  0  0  0  0
  2  1  1  0
  3  2  1  0
  3  5  1  0
  3  4  1  6
  5  7  1  0
  5  6  1  1
  7  8  2  0
 10 11  1  0
 10  9  1  0
 11 12  1  0
 13 12  1  1
 14 13  1  0
 14  7  1  0
 15 16  2  0
 15 13  1  0
 17 18  1  0
 18 20  1  0
 19 18  2  0
 21 20  1  1
 21 23  1  0
 21 22  1  0
 22 15  1  0
 23 25  1  0
 24 23  2  0
M  END
$$$$
