SPG.pdb
     RDKit          3D

 18 18  0  0  1  0  0  0  0  0999 V2000
    7.0543  -15.9800   21.1819 O   0  0  0  0  0  0  0  0  0  0  0  0
    6.2622  -14.8349   21.2918 C   0  0  0  0  0  0  0  0  0  0  0  0
    7.1223  -13.5902   21.3679 C   0  0  2  0  0  0  0  0  0  0  0  0
    7.8600  -13.3532   20.1702 N   0  0  0  0  0  0  0  0  0  0  0  0
    8.0563  -13.7714   22.4994 C   0  0  0  0  0  0  0  0  0  0  0  0
    9.2678  -14.0050   22.1937 O   0  0  0  0  0  0  0  0  0  0  0  0
    7.7068  -13.7050   23.8650 N   0  0  0  0  0  0  0  0  0  0  0  0
    6.3730  -13.4321   24.3512 C   0  0  0  0  0  0  0  0  0  0  0  0
    6.5047  -13.4174   25.8807 C   0  0  0  0  0  0  0  0  0  0  0  0
    7.9598  -13.0590   26.0469 C   0  0  0  0  0  0  0  0  0  0  0  0
    8.6123  -13.8936   24.9715 C   0  0  1  0  0  0  0  0  0  0  0  0
    8.6826  -15.3078   25.4367 C   0  0  0  0  0  0  0  0  0  0  0  0
    7.7045  -16.0832   25.3896 O   0  0  0  0  0  0  0  0  0  0  0  0
    9.9193  -15.7743   25.9492 N   0  0  0  0  0  0  0  0  0  0  0  0
   10.3926  -17.1211   25.7844 C   0  0  0  0  0  0  0  0  0  0  0  0
   10.0337  -17.9185   26.9752 C   0  0  0  0  0  0  0  0  0  0  0  0
   10.1063  -19.2925   26.9500 O   0  0  0  0  0  0  0  0  0  0  0  0
    9.6521  -17.3772   28.0458 O   0  0  0  0  0  0  0  0  0  0  0  0
  2  1  1  0
  3  2  1  0
  3  4  1  6
  5  6  2  0
  5  3  1  0
  7  5  1  0
  8  7  1  0
  9  8  1  0
 10  9  1  0
 10 11  1  0
 11  7  1  0
 11 12  1  1
 12 13  2  0
 14 12  1  0
 14 15  1  0
 15 16  1  0
 16 18  2  0
 16 17  1  0
M  END
$$$$
