SPG.pdb
     RDKit          3D

 18 18  0  0  1  0  0  0  0  0999 V2000
    9.8539  -16.9317   26.6348 O   0  0  0  0  0  0  0  0  0  0  0  0
    9.2381  -16.2645   27.6963 C   0  0  0  0  0  0  0  0  0  0  0  0
    7.7415  -16.4983   27.6839 C   0  0  2  0  0  0  0  0  0  0  0  0
    7.3979  -17.8824   27.6516 N   0  0  0  0  0  0  0  0  0  0  0  0
    7.2024  -15.8240   26.4838 C   0  0  0  0  0  0  0  0  0  0  0  0
    6.8426  -16.5825   25.5294 O   0  0  0  0  0  0  0  0  0  0  0  0
    7.0617  -14.4289   26.3253 N   0  0  0  0  0  0  0  0  0  0  0  0
    7.3572  -13.4590   27.3558 C   0  0  0  0  0  0  0  0  0  0  0  0
    7.0084  -12.1003   26.7322 C   0  0  0  0  0  0  0  0  0  0  0  0
    5.9918  -12.5053   25.6949 C   0  0  0  0  0  0  0  0  0  0  0  0
    6.6058  -13.7634   25.1298 C   0  0  1  0  0  0  0  0  0  0  0  0
    7.7158  -13.3855   24.2099 C   0  0  0  0  0  0  0  0  0  0  0  0
    8.8953  -13.2470   24.5967 O   0  0  0  0  0  0  0  0  0  0  0  0
    7.4007  -13.1806   22.8430 N   0  0  0  0  0  0  0  0  0  0  0  0
    7.0498  -14.2410   21.9388 C   0  0  0  0  0  0  0  0  0  0  0  0
    8.2798  -14.8882   21.4377 C   0  0  0  0  0  0  0  0  0  0  0  0
    9.1039  -15.5876   22.2894 O   0  0  0  0  0  0  0  0  0  0  0  0
    8.6165  -14.8249   20.2264 O   0  0  0  0  0  0  0  0  0  0  0  0
  2  1  1  0
  3  2  1  0
  3  4  1  6
  5  6  2  0
  5  3  1  0
  7  5  1  0
  8  7  1  0
  9  8  1  0
 10  9  1  0
 10 11  1  0
 11  7  1  0
 11 12  1  6
 12 13  2  0
 14 12  1  0
 14 15  1  0
 15 16  1  0
 16 18  2  0
 16 17  1  0
M  END
$$$$
