SPG.pdb
     RDKit          3D

 18 18  0  0  1  0  0  0  0  0999 V2000
    9.3930  -15.9067   24.8883 O   0  0  0  0  0  0  0  0  0  0  0  0
    8.6290  -14.7438   25.0100 C   0  0  0  0  0  0  0  0  0  0  0  0
    7.2061  -14.9833   24.5486 C   0  0  2  0  0  0  0  0  0  0  0  0
    6.5698  -16.0513   25.2480 N   0  0  0  0  0  0  0  0  0  0  0  0
    7.2606  -15.2972   23.1049 C   0  0  0  0  0  0  0  0  0  0  0  0
    6.9253  -16.4782   22.7755 O   0  0  0  0  0  0  0  0  0  0  0  0
    7.6496  -14.3990   22.0884 N   0  0  0  0  0  0  0  0  0  0  0  0
    8.0220  -13.0213   22.3187 C   0  0  0  0  0  0  0  0  0  0  0  0
    8.3134  -12.4515   20.9232 C   0  0  0  0  0  0  0  0  0  0  0  0
    7.4805  -13.3604   20.0549 C   0  0  0  0  0  0  0  0  0  0  0  0
    7.7328  -14.7100   20.6826 C   0  0  1  0  0  0  0  0  0  0  0  0
    9.0815  -15.1890   20.2671 C   0  0  0  0  0  0  0  0  0  0  0  0
    9.3774  -15.4230   19.0765 O   0  0  0  0  0  0  0  0  0  0  0  0
   10.0559  -15.3795   21.2790 N   0  0  0  0  0  0  0  0  0  0  0  0
   11.4032  -15.8058   21.0175 C   0  0  0  0  0  0  0  0  0  0  0  0
   11.6516  -17.0958   21.6932 C   0  0  0  0  0  0  0  0  0  0  0  0
   10.8474  -18.1852   21.4477 O   0  0  0  0  0  0  0  0  0  0  0  0
   12.5978  -17.2455   22.5101 O   0  0  0  0  0  0  0  0  0  0  0  0
  2  1  1  0
  3  2  1  0
  3  4  1  1
  5  6  2  0
  5  3  1  0
  7  5  1  0
  8  7  1  0
  9  8  1  0
 10  9  1  0
 10 11  1  0
 11  7  1  0
 11 12  1  1
 12 13  2  0
 14 12  1  0
 14 15  1  0
 15 16  1  0
 16 18  2  0
 16 17  1  0
M  END
$$$$
