SPG.pdb
     RDKit          3D

 18 18  0  0  1  0  0  0  0  0999 V2000
    5.3025  -18.6029   21.6500 O   0  0  0  0  0  0  0  0  0  0  0  0
    4.7693  -17.3653   21.2827 C   0  0  0  0  0  0  0  0  0  0  0  0
    5.2034  -16.9860   19.8819 C   0  0  2  0  0  0  0  0  0  0  0  0
    4.9816  -18.0274   18.9327 N   0  0  0  0  0  0  0  0  0  0  0  0
    6.6457  -16.6666   19.9414 C   0  0  0  0  0  0  0  0  0  0  0  0
    7.4361  -17.5628   19.5082 O   0  0  0  0  0  0  0  0  0  0  0  0
    7.1957  -15.4640   20.4339 N   0  0  0  0  0  0  0  0  0  0  0  0
    6.4129  -14.3518   20.9238 C   0  0  0  0  0  0  0  0  0  0  0  0
    7.4432  -13.2771   21.2983 C   0  0  0  0  0  0  0  0  0  0  0  0
    8.5994  -13.6553   20.4074 C   0  0  0  0  0  0  0  0  0  0  0  0
    8.6029  -15.1606   20.5217 C   0  0  1  0  0  0  0  0  0  0  0  0
    9.2040  -15.5421   21.8310 C   0  0  0  0  0  0  0  0  0  0  0  0
    8.5828  -15.4515   22.9108 O   0  0  0  0  0  0  0  0  0  0  0  0
   10.5362  -16.0269   21.8305 N   0  0  0  0  0  0  0  0  0  0  0  0
   11.0617  -16.9131   22.8323 C   0  0  0  0  0  0  0  0  0  0  0  0
   12.0262  -16.1822   23.6796 C   0  0  0  0  0  0  0  0  0  0  0  0
   11.8233  -16.0642   25.0356 O   0  0  0  0  0  0  0  0  0  0  0  0
   13.0584  -15.6456   23.1985 O   0  0  0  0  0  0  0  0  0  0  0  0
  2  1  1  0
  3  2  1  0
  3  4  1  6
  5  6  2  0
  5  3  1  0
  7  5  1  0
  8  7  1  0
  9  8  1  0
 10  9  1  0
 10 11  1  0
 11  7  1  0
 11 12  1  1
 12 13  2  0
 14 12  1  0
 14 15  1  0
 15 16  1  0
 16 18  2  0
 16 17  1  0
M  END
$$$$
