SPG.pdb
     RDKit          3D

 18 18  0  0  1  0  0  0  0  0999 V2000
    4.8170  -19.4787   21.1136 O   0  0  0  0  0  0  0  0  0  0  0  0
    6.1675  -19.1887   20.9060 C   0  0  0  0  0  0  0  0  0  0  0  0
    6.8235  -18.7290   22.1918 C   0  0  2  0  0  0  0  0  0  0  0  0
    5.9278  -18.0230   23.0484 N   0  0  0  0  0  0  0  0  0  0  0  0
    7.9513  -17.8492   21.8181 C   0  0  0  0  0  0  0  0  0  0  0  0
    8.8331  -18.3608   21.0589 O   0  0  0  0  0  0  0  0  0  0  0  0
    8.1154  -16.5110   22.2349 N   0  0  0  0  0  0  0  0  0  0  0  0
    7.1340  -15.7690   22.9939 C   0  0  0  0  0  0  0  0  0  0  0  0
    7.7395  -14.3682   23.1612 C   0  0  0  0  0  0  0  0  0  0  0  0
    8.6640  -14.3037   21.9718 C   0  0  0  0  0  0  0  0  0  0  0  0
    9.2690  -15.6868   21.9706 C   0  0  1  0  0  0  0  0  0  0  0  0
   10.3007  -15.7613   23.0436 C   0  0  0  0  0  0  0  0  0  0  0  0
   10.0616  -16.2243   24.1787 O   0  0  0  0  0  0  0  0  0  0  0  0
   11.6013  -15.2835   22.7441 N   0  0  0  0  0  0  0  0  0  0  0  0
   12.6546  -16.1122   22.2254 C   0  0  0  0  0  0  0  0  0  0  0  0
   13.3204  -16.8177   23.3396 C   0  0  0  0  0  0  0  0  0  0  0  0
   14.3207  -16.2075   24.0613 O   0  0  0  0  0  0  0  0  0  0  0  0
   13.0014  -17.9907   23.6672 O   0  0  0  0  0  0  0  0  0  0  0  0
  2  1  1  0
  3  2  1  0
  3  4  1  1
  5  6  2  0
  5  3  1  0
  7  5  1  0
  8  7  1  0
  9  8  1  0
 10  9  1  0
 10 11  1  0
 11  7  1  0
 11 12  1  1
 12 13  2  0
 14 12  1  0
 14 15  1  0
 15 16  1  0
 16 18  2  0
 16 17  1  0
M  END
$$$$
