SPG.pdb
     RDKit          3D

 18 18  0  0  1  0  0  0  0  0999 V2000
    6.5424  -18.6867   20.6729 O   0  0  0  0  0  0  0  0  0  0  0  0
    5.6620  -17.6620   20.3178 C   0  0  0  0  0  0  0  0  0  0  0  0
    6.0993  -16.9990   19.0279 C   0  0  2  0  0  0  0  0  0  0  0  0
    6.1604  -17.9089   17.9310 N   0  0  0  0  0  0  0  0  0  0  0  0
    7.4372  -16.4168   19.2659 C   0  0  0  0  0  0  0  0  0  0  0  0
    8.4229  -17.0685   18.7977 O   0  0  0  0  0  0  0  0  0  0  0  0
    7.6927  -15.2154   19.9606 N   0  0  0  0  0  0  0  0  0  0  0  0
    6.6657  -14.3575   20.5077 C   0  0  0  0  0  0  0  0  0  0  0  0
    7.4249  -13.1708   21.1177 C   0  0  0  0  0  0  0  0  0  0  0  0
    8.6955  -13.1862   20.3061 C   0  0  0  0  0  0  0  0  0  0  0  0
    8.9981  -14.6631   20.2270 C   0  0  1  0  0  0  0  0  0  0  0  0
    9.5677  -15.1078   21.5304 C   0  0  0  0  0  0  0  0  0  0  0  0
    8.8556  -15.4864   22.4841 O   0  0  0  0  0  0  0  0  0  0  0  0
   10.9780  -15.0951   21.6741 N   0  0  0  0  0  0  0  0  0  0  0  0
   11.7508  -16.2469   22.0503 C   0  0  0  0  0  0  0  0  0  0  0  0
   11.7923  -16.3525   23.5233 C   0  0  0  0  0  0  0  0  0  0  0  0
   10.7616  -16.9460   24.2156 O   0  0  0  0  0  0  0  0  0  0  0  0
   12.7613  -15.9085   24.1932 O   0  0  0  0  0  0  0  0  0  0  0  0
  2  1  1  0
  3  2  1  0
  3  4  1  6
  5  6  2  0
  5  3  1  0
  7  5  1  0
  8  7  1  0
  9  8  1  0
 10  9  1  0
 10 11  1  0
 11  7  1  0
 11 12  1  1
 12 13  2  0
 14 12  1  0
 14 15  1  0
 15 16  1  0
 16 18  2  0
 16 17  1  0
M  END
$$$$
