SPG.pdb
     RDKit          3D

 18 18  0  0  1  0  0  0  0  0999 V2000
    6.5733  -16.0026   21.3011 O   0  0  0  0  0  0  0  0  0  0  0  0
    6.4250  -14.6155   21.3698 C   0  0  0  0  0  0  0  0  0  0  0  0
    7.7397  -13.9499   21.7211 C   0  0  2  0  0  0  0  0  0  0  0  0
    8.7921  -14.2945   20.8220 N   0  0  0  0  0  0  0  0  0  0  0  0
    8.0955  -14.3783   23.0906 C   0  0  0  0  0  0  0  0  0  0  0  0
    9.0965  -15.1550   23.1921 O   0  0  0  0  0  0  0  0  0  0  0  0
    7.4183  -13.9948   24.2677 N   0  0  0  0  0  0  0  0  0  0  0  0
    6.2260  -13.1776   24.2909 C   0  0  0  0  0  0  0  0  0  0  0  0
    5.8980  -12.9984   25.7799 C   0  0  0  0  0  0  0  0  0  0  0  0
    7.2565  -13.1905   26.4053 C   0  0  0  0  0  0  0  0  0  0  0  0
    7.8053  -14.3508   25.6106 C   0  0  1  0  0  0  0  0  0  0  0  0
    7.1654  -15.6082   26.0910 C   0  0  0  0  0  0  0  0  0  0  0  0
    5.9850  -15.9118   25.8178 O   0  0  0  0  0  0  0  0  0  0  0  0
    7.9448  -16.4836   26.8883 N   0  0  0  0  0  0  0  0  0  0  0  0
    8.0380  -17.8993   26.6592 C   0  0  0  0  0  0  0  0  0  0  0  0
    8.9643  -18.4975   27.6425 C   0  0  0  0  0  0  0  0  0  0  0  0
    8.4862  -19.2353   28.7012 O   0  0  0  0  0  0  0  0  0  0  0  0
   10.2118  -18.3562   27.5501 O   0  0  0  0  0  0  0  0  0  0  0  0
  2  1  1  0
  3  2  1  0
  3  4  1  6
  5  6  2  0
  5  3  1  0
  7  5  1  0
  8  7  1  0
  9  8  1  0
 10  9  1  0
 10 11  1  0
 11  7  1  0
 11 12  1  1
 12 13  2  0
 14 12  1  0
 14 15  1  0
 15 16  1  0
 16 18  2  0
 16 17  1  0
M  END
$$$$
