SPG.pdb
     RDKit          3D

 18 18  0  0  1  0  0  0  0  0999 V2000
    7.0371  -16.4946   23.2362 O   0  0  0  0  0  0  0  0  0  0  0  0
    6.4087  -15.4285   22.5886 C   0  0  0  0  0  0  0  0  0  0  0  0
    7.3434  -14.2420   22.4730 C   0  0  2  0  0  0  0  0  0  0  0  0
    8.3211  -14.4055   21.4473 N   0  0  0  0  0  0  0  0  0  0  0  0
    8.0157  -14.0847   23.7802 C   0  0  0  0  0  0  0  0  0  0  0  0
    9.2290  -14.4597   23.8347 O   0  0  0  0  0  0  0  0  0  0  0  0
    7.4199  -13.5594   24.9466 N   0  0  0  0  0  0  0  0  0  0  0  0
    6.0252  -13.1945   25.0543 C   0  0  0  0  0  0  0  0  0  0  0  0
    5.8704  -12.6380   26.4766 C   0  0  0  0  0  0  0  0  0  0  0  0
    7.2767  -12.1780   26.7669 C   0  0  0  0  0  0  0  0  0  0  0  0
    8.0995  -13.3062   26.1932 C   0  0  1  0  0  0  0  0  0  0  0  0
    8.0512  -14.4624   27.1323 C   0  0  0  0  0  0  0  0  0  0  0  0
    8.3922  -14.3733   28.3306 O   0  0  0  0  0  0  0  0  0  0  0  0
    7.5953  -15.7059   26.6268 N   0  0  0  0  0  0  0  0  0  0  0  0
    7.3897  -16.8706   27.4432 C   0  0  0  0  0  0  0  0  0  0  0  0
    8.5554  -17.7699   27.3209 C   0  0  0  0  0  0  0  0  0  0  0  0
    9.8365  -17.2810   27.4364 O   0  0  0  0  0  0  0  0  0  0  0  0
    8.4221  -19.0036   27.1086 O   0  0  0  0  0  0  0  0  0  0  0  0
  2  1  1  0
  3  2  1  0
  3  4  1  6
  5  6  2  0
  5  3  1  0
  7  5  1  0
  8  7  1  0
  9  8  1  0
 10  9  1  0
 10 11  1  0
 11  7  1  0
 11 12  1  1
 12 13  2  0
 14 12  1  0
 14 15  1  0
 15 16  1  0
 16 18  2  0
 16 17  1  0
M  END
$$$$
