SPG.pdb
     RDKit          3D

 18 18  0  0  1  0  0  0  0  0999 V2000
    6.9977  -15.6607   21.7213 O   0  0  0  0  0  0  0  0  0  0  0  0
    6.2848  -14.4595   21.7292 C   0  0  0  0  0  0  0  0  0  0  0  0
    7.2234  -13.2769   21.8528 C   0  0  2  0  0  0  0  0  0  0  0  0
    8.0769  -13.1271   20.7198 N   0  0  0  0  0  0  0  0  0  0  0  0
    8.0406  -13.4909   23.0660 C   0  0  0  0  0  0  0  0  0  0  0  0
    9.2386  -13.8702   22.8746 O   0  0  0  0  0  0  0  0  0  0  0  0
    7.5956  -13.3080   24.3926 N   0  0  0  0  0  0  0  0  0  0  0  0
    6.2578  -12.8951   24.7525 C   0  0  0  0  0  0  0  0  0  0  0  0
    6.2737  -12.7929   26.2842 C   0  0  0  0  0  0  0  0  0  0  0  0
    7.7377  -12.5460   26.5470 C   0  0  0  0  0  0  0  0  0  0  0  0
    8.3945  -13.4992   25.5780 C   0  0  1  0  0  0  0  0  0  0  0  0
    8.3053  -14.8815   26.1281 C   0  0  0  0  0  0  0  0  0  0  0  0
    7.3230  -15.6260   25.9265 O   0  0  0  0  0  0  0  0  0  0  0  0
    9.3905  -15.3534   26.9087 N   0  0  0  0  0  0  0  0  0  0  0  0
   10.3855  -16.2676   26.4194 C   0  0  0  0  0  0  0  0  0  0  0  0
    9.9657  -17.6540   26.7092 C   0  0  0  0  0  0  0  0  0  0  0  0
   10.2261  -18.2269   27.9330 O   0  0  0  0  0  0  0  0  0  0  0  0
    9.3607  -18.3559   25.8570 O   0  0  0  0  0  0  0  0  0  0  0  0
  2  1  1  0
  3  2  1  0
  3  4  1  6
  5  6  2  0
  5  3  1  0
  7  5  1  0
  8  7  1  0
  9  8  1  0
 10  9  1  0
 10 11  1  0
 11  7  1  0
 11 12  1  1
 12 13  2  0
 14 12  1  0
 14 15  1  0
 15 16  1  0
 16 18  2  0
 16 17  1  0
M  END
$$$$
