SPG.pdb
     RDKit          3D

 18 18  0  0  1  0  0  0  0  0999 V2000
    7.3681  -18.3592   18.8060 O   0  0  0  0  0  0  0  0  0  0  0  0
    6.7052  -17.2732   18.2299 C   0  0  0  0  0  0  0  0  0  0  0  0
    7.6590  -16.4381   17.4006 C   0  0  2  0  0  0  0  0  0  0  0  0
    8.3490  -17.2025   16.4136 N   0  0  0  0  0  0  0  0  0  0  0  0
    8.6344  -15.8324   18.3318 C   0  0  0  0  0  0  0  0  0  0  0  0
    9.7796  -16.3818   18.3788 O   0  0  0  0  0  0  0  0  0  0  0  0
    8.3904  -14.7121   19.1545 N   0  0  0  0  0  0  0  0  0  0  0  0
    7.1627  -13.9489   19.1469 C   0  0  0  0  0  0  0  0  0  0  0  0
    7.3917  -12.8207   20.1625 C   0  0  0  0  0  0  0  0  0  0  0  0
    8.8954  -12.7108   20.1455 C   0  0  0  0  0  0  0  0  0  0  0  0
    9.3146  -14.1607   20.1146 C   0  0  1  0  0  0  0  0  0  0  0  0
    9.1545  -14.7368   21.4798 C   0  0  0  0  0  0  0  0  0  0  0  0
    8.0373  -14.9697   21.9873 O   0  0  0  0  0  0  0  0  0  0  0  0
   10.3302  -15.0269   22.2168 N   0  0  0  0  0  0  0  0  0  0  0  0
   10.4260  -16.0919   23.1769 C   0  0  0  0  0  0  0  0  0  0  0  0
   11.8229  -16.2108   23.6430 C   0  0  0  0  0  0  0  0  0  0  0  0
   12.1117  -16.7767   24.8637 O   0  0  0  0  0  0  0  0  0  0  0  0
   12.7909  -15.8032   22.9489 O   0  0  0  0  0  0  0  0  0  0  0  0
  2  1  1  0
  3  2  1  0
  3  4  1  6
  5  6  2  0
  5  3  1  0
  7  5  1  0
  8  7  1  0
  9  8  1  0
 10  9  1  0
 10 11  1  0
 11  7  1  0
 11 12  1  1
 12 13  2  0
 14 12  1  0
 14 15  1  0
 15 16  1  0
 16 18  2  0
 16 17  1  0
M  END
$$$$
