VYR.pdb
     RDKit          3D

 31 31  0  0  1  0  0  0  0  0999 V2000
    7.1312  -16.0037   20.7152 C   0  0  0  0  0  0  0  0  0  0  0  0
    7.7222  -14.9051   19.8542 C   0  0  1  0  0  0  0  0  0  0  0  0
    6.9816  -14.8030   18.5471 C   0  0  0  0  0  0  0  0  0  0  0  0
    7.7150  -13.5730   20.6141 C   0  0  2  0  0  0  0  0  0  0  0  0
    8.1449  -12.4954   19.7796 N   0  0  0  0  0  0  0  0  0  0  0  0
    8.5493  -13.7258   21.8340 C   0  0  0  0  0  0  0  0  0  0  0  0
    9.8023  -13.6821   21.7398 O   0  0  0  0  0  0  0  0  0  0  0  0
   10.3902  -15.3585   30.4738 O   0  0  0  0  0  0  0  0  0  0  0  0
    9.8187  -14.9682   29.2561 C   0  0  0  0  0  0  0  0  0  0  0  0
   10.0649  -13.7214   28.7213 C   0  0  0  0  0  0  0  0  0  0  0  0
    9.4975  -13.3325   27.5110 C   0  0  0  0  0  0  0  0  0  0  0  0
    8.6693  -14.1706   26.7968 C   0  0  0  0  0  0  0  0  0  0  0  0
    8.0539  -13.8033   25.5208 C   0  0  0  0  0  0  0  0  0  0  0  0
    8.8229  -14.2271   24.3057 C   0  0  2  0  0  0  0  0  0  0  0  0
    8.0078  -13.9231   23.1319 N   0  0  0  0  0  0  0  0  0  0  0  0
    9.2600  -15.6233   24.2884 C   0  0  0  0  0  0  0  0  0  0  0  0
    8.3910  -16.5348   24.1401 O   0  0  0  0  0  0  0  0  0  0  0  0
    8.4284  -15.4234   27.3448 C   0  0  0  0  0  0  0  0  0  0  0  0
    8.9904  -15.8110   28.5454 C   0  0  0  0  0  0  0  0  0  0  0  0
   12.6674  -19.5643   18.2468 N   0  0  0  0  0  0  0  0  0  0  0  0
   11.5369  -20.1261   18.8892 C   0  0  0  0  0  0  0  0  0  0  0  0
   10.6585  -20.8334   18.2231 N   0  0  0  0  0  0  0  0  0  0  0  0
   11.2874  -19.9602   20.2789 N   0  0  0  0  0  0  0  0  0  0  0  0
   11.7739  -18.8098   21.0147 C   0  0  0  0  0  0  0  0  0  0  0  0
   11.4962  -18.9492   22.4893 C   0  0  0  0  0  0  0  0  0  0  0  0
   11.8706  -17.7519   23.2854 C   0  0  0  0  0  0  0  0  0  0  0  0
   10.9731  -17.4688   24.4672 C   0  0  2  0  0  0  0  0  0  0  0  0
   10.6019  -16.0625   24.4246 N   0  0  0  0  0  0  0  0  0  0  0  0
   11.5727  -17.8557   25.7440 C   0  0  0  0  0  0  0  0  0  0  0  0
   11.7020  -19.1756   26.1398 O   0  0  0  0  0  0  0  0  0  0  0  0
   12.0201  -17.0024   26.5858 O   0  0  0  0  0  0  0  0  0  0  0  0
  2  1  1  1
  3  2  1  0
  4  2  1  0
  4  5  1  6
  6  4  1  0
  7  6  2  0
  8  9  1  0
  9 10  2  0
 10 11  1  0
 12 11  2  0
 12 13  1  0
 14 13  1  1
 14 15  1  0
 15  6  1  0
 16 14  1  0
 16 28  1  0
 17 16  2  0
 18 12  1  0
 19  9  1  0
 19 18  2  0
 20 21  1  0
 21 23  1  0
 21 22  2  0
 23 24  1  0
 24 25  1  0
 25 26  1  0
 27 26  1  6
 27 28  1  0
 29 27  1  0
 30 29  1  0
 31 29  2  0
M  END
$$$$
