VYR.pdb
     RDKit          3D

 31 31  0  0  1  0  0  0  0  0999 V2000
    8.2551  -12.2160   20.0240 C   0  0  0  0  0  0  0  0  0  0  0  0
    7.1380  -13.2087   20.2767 C   0  0  1  0  0  0  0  0  0  0  0  0
    6.1347  -13.1712   19.1546 C   0  0  0  0  0  0  0  0  0  0  0  0
    7.7133  -14.6166   20.4744 C   0  0  2  0  0  0  0  0  0  0  0  0
    6.6802  -15.6041   20.4866 N   0  0  0  0  0  0  0  0  0  0  0  0
    8.5278  -14.6189   21.7171 C   0  0  0  0  0  0  0  0  0  0  0  0
    9.7742  -14.4698   21.6438 O   0  0  0  0  0  0  0  0  0  0  0  0
   10.3540  -14.9118   30.4960 O   0  0  0  0  0  0  0  0  0  0  0  0
    9.7633  -14.7660   29.2344 C   0  0  0  0  0  0  0  0  0  0  0  0
    9.7655  -13.5505   28.5835 C   0  0  0  0  0  0  0  0  0  0  0  0
    9.1787  -13.4046   27.3295 C   0  0  0  0  0  0  0  0  0  0  0  0
    8.5729  -14.4614   26.6858 C   0  0  0  0  0  0  0  0  0  0  0  0
    7.9464  -14.3526   25.3677 C   0  0  0  0  0  0  0  0  0  0  0  0
    8.7817  -14.8576   24.2299 C   0  0  2  0  0  0  0  0  0  0  0  0
    7.9742  -14.7829   23.0145 N   0  0  0  0  0  0  0  0  0  0  0  0
    9.3409  -16.1987   24.4016 C   0  0  0  0  0  0  0  0  0  0  0  0
    8.5484  -17.1795   24.5369 O   0  0  0  0  0  0  0  0  0  0  0  0
    8.5766  -15.6804   27.3506 C   0  0  0  0  0  0  0  0  0  0  0  0
    9.1583  -15.8271   28.5947 C   0  0  0  0  0  0  0  0  0  0  0  0
   14.6139  -17.6003   18.8504 N   0  0  0  0  0  0  0  0  0  0  0  0
   13.4331  -18.3825   18.8375 C   0  0  0  0  0  0  0  0  0  0  0  0
   13.0561  -19.0260   17.7608 N   0  0  0  0  0  0  0  0  0  0  0  0
   12.5937  -18.5169   19.9769 N   0  0  0  0  0  0  0  0  0  0  0  0
   12.8362  -17.7790   21.2009 C   0  0  0  0  0  0  0  0  0  0  0  0
   11.7441  -18.0242   22.2100 C   0  0  0  0  0  0  0  0  0  0  0  0
   12.2386  -18.1794   23.6024 C   0  0  0  0  0  0  0  0  0  0  0  0
   11.2266  -17.8545   24.6760 C   0  0  2  0  0  0  0  0  0  0  0  0
   10.7243  -16.5112   24.4302 N   0  0  0  0  0  0  0  0  0  0  0  0
   11.7575  -18.0196   26.0288 C   0  0  0  0  0  0  0  0  0  0  0  0
   12.1007  -19.2542   26.5517 O   0  0  0  0  0  0  0  0  0  0  0  0
   11.9425  -17.0354   26.8250 O   0  0  0  0  0  0  0  0  0  0  0  0
  2  1  1  6
  3  2  1  0
  4  2  1  0
  4  5  1  1
  6  4  1  0
  7  6  2  0
  8  9  1  0
  9 10  2  0
 10 11  1  0
 12 11  2  0
 12 13  1  0
 14 13  1  1
 14 15  1  0
 15  6  1  0
 16 14  1  0
 16 28  1  0
 17 16  2  0
 18 12  1  0
 19  9  1  0
 19 18  2  0
 20 21  1  0
 21 23  1  0
 21 22  2  0
 23 24  1  0
 24 25  1  0
 25 26  1  0
 27 26  1  6
 27 28  1  0
 29 27  1  0
 30 29  1  0
 31 29  2  0
M  END
$$$$
