VYR.pdb
     RDKit          3D

 31 31  0  0  1  0  0  0  0  0999 V2000
    8.8772  -12.0008   19.9688 C   0  0  0  0  0  0  0  0  0  0  0  0
    7.6315  -12.8512   20.1196 C   0  0  1  0  0  0  0  0  0  0  0  0
    6.7607  -12.7332   18.8968 C   0  0  0  0  0  0  0  0  0  0  0  0
    8.0148  -14.3089   20.4027 C   0  0  2  0  0  0  0  0  0  0  0  0
    6.8638  -15.1560   20.4185 N   0  0  0  0  0  0  0  0  0  0  0  0
    8.7805  -14.3527   21.6752 C   0  0  0  0  0  0  0  0  0  0  0  0
    9.9894  -14.0073   21.6856 O   0  0  0  0  0  0  0  0  0  0  0  0
   10.3621  -15.2279   30.4638 O   0  0  0  0  0  0  0  0  0  0  0  0
    9.7920  -15.0951   29.1914 C   0  0  0  0  0  0  0  0  0  0  0  0
    9.3529  -16.1976   28.4894 C   0  0  0  0  0  0  0  0  0  0  0  0
    8.7861  -16.0667   27.2246 C   0  0  0  0  0  0  0  0  0  0  0  0
    8.6390  -14.8372   26.6205 C   0  0  0  0  0  0  0  0  0  0  0  0
    8.0474  -14.6542   25.2945 C   0  0  0  0  0  0  0  0  0  0  0  0
    8.9889  -14.8746   24.1490 C   0  0  2  0  0  0  0  0  0  0  0  0
    8.2197  -14.7704   22.9112 N   0  0  0  0  0  0  0  0  0  0  0  0
    9.7489  -16.1244   24.1858 C   0  0  0  0  0  0  0  0  0  0  0  0
    9.1257  -17.2231   24.0729 O   0  0  0  0  0  0  0  0  0  0  0  0
    9.0847  -13.7342   27.3364 C   0  0  0  0  0  0  0  0  0  0  0  0
    9.6473  -13.8621   28.5913 C   0  0  0  0  0  0  0  0  0  0  0  0
   15.6230  -14.8838   19.9841 N   0  0  0  0  0  0  0  0  0  0  0  0
   14.3225  -15.0638   19.4524 C   0  0  0  0  0  0  0  0  0  0  0  0
   13.9260  -14.4079   18.3903 N   0  0  0  0  0  0  0  0  0  0  0  0
   13.3781  -15.9557   20.0300 N   0  0  0  0  0  0  0  0  0  0  0  0
   13.7485  -16.9038   21.0621 C   0  0  0  0  0  0  0  0  0  0  0  0
   12.5923  -17.1798   21.9884 C   0  0  0  0  0  0  0  0  0  0  0  0
   12.9987  -17.4361   23.3943 C   0  0  0  0  0  0  0  0  0  0  0  0
   11.8592  -17.4956   24.3843 C   0  0  2  0  0  0  0  0  0  0  0  0
   11.1557  -16.2227   24.3388 N   0  0  0  0  0  0  0  0  0  0  0  0
   12.2947  -17.8516   25.7344 C   0  0  0  0  0  0  0  0  0  0  0  0
   12.4220  -16.9191   26.7492 O   0  0  0  0  0  0  0  0  0  0  0  0
   12.5891  -19.0495   26.0738 O   0  0  0  0  0  0  0  0  0  0  0  0
  2  1  1  6
  3  2  1  0
  4  2  1  0
  4  5  1  1
  6  4  1  0
  7  6  2  0
  8  9  1  0
  9 10  2  0
 10 11  1  0
 12 11  2  0
 12 13  1  0
 14 13  1  1
 14 15  1  0
 15  6  1  0
 16 14  1  0
 16 28  1  0
 17 16  2  0
 18 12  1  0
 19  9  1  0
 19 18  2  0
 20 21  1  0
 21 23  1  0
 21 22  2  0
 23 24  1  0
 24 25  1  0
 25 26  1  0
 27 26  1  6
 27 28  1  0
 29 27  1  0
 30 29  1  0
 31 29  2  0
M  END
$$$$
