VYR.pdb
     RDKit          3D

 31 31  0  0  1  0  0  0  0  0999 V2000
    8.7122  -12.1391   18.9306 C   0  0  0  0  0  0  0  0  0  0  0  0
    7.9491  -13.4383   18.7661 C   0  0  1  0  0  0  0  0  0  0  0  0
    7.4811  -13.5991   17.3439 C   0  0  0  0  0  0  0  0  0  0  0  0
    8.8142  -14.6227   19.2143 C   0  0  2  0  0  0  0  0  0  0  0  0
    8.1790  -15.8700   18.9256 N   0  0  0  0  0  0  0  0  0  0  0  0
    9.1259  -14.4548   20.6573 C   0  0  0  0  0  0  0  0  0  0  0  0
   10.2972  -14.1652   21.0108 O   0  0  0  0  0  0  0  0  0  0  0  0
    7.5117  -13.0559   29.3808 O   0  0  0  0  0  0  0  0  0  0  0  0
    7.4302  -13.2897   28.0023 C   0  0  0  0  0  0  0  0  0  0  0  0
    8.2321  -12.6032   27.1151 C   0  0  0  0  0  0  0  0  0  0  0  0
    8.1519  -12.8349   25.7447 C   0  0  0  0  0  0  0  0  0  0  0  0
    7.2733  -13.7550   25.2158 C   0  0  0  0  0  0  0  0  0  0  0  0
    7.1579  -14.0310   23.7832 C   0  0  0  0  0  0  0  0  0  0  0  0
    8.4495  -14.3677   23.1007 C   0  0  2  0  0  0  0  0  0  0  0  0
    8.1607  -14.6043   21.6882 N   0  0  0  0  0  0  0  0  0  0  0  0
    9.1951  -15.4883   23.6744 C   0  0  0  0  0  0  0  0  0  0  0  0
    9.5675  -15.4200   24.8847 O   0  0  0  0  0  0  0  0  0  0  0  0
    6.4709  -14.4402   26.1183 C   0  0  0  0  0  0  0  0  0  0  0  0
    6.5490  -14.2117   27.4782 C   0  0  0  0  0  0  0  0  0  0  0  0
   13.4997  -16.3488   18.0188 N   0  0  0  0  0  0  0  0  0  0  0  0
   13.9528  -15.6160   19.1431 C   0  0  0  0  0  0  0  0  0  0  0  0
   14.7959  -14.6223   19.0117 N   0  0  0  0  0  0  0  0  0  0  0  0
   13.5269  -15.9086   20.4675 N   0  0  0  0  0  0  0  0  0  0  0  0
   12.5934  -16.9796   20.7552 C   0  0  0  0  0  0  0  0  0  0  0  0
   12.3730  -17.1262   22.2388 C   0  0  0  0  0  0  0  0  0  0  0  0
   11.3828  -18.1743   22.5969 C   0  0  0  0  0  0  0  0  0  0  0  0
   10.3308  -17.7413   23.5910 C   0  0  2  0  0  0  0  0  0  0  0  0
    9.5479  -16.6759   22.9834 N   0  0  0  0  0  0  0  0  0  0  0  0
   10.8930  -17.3601   24.8864 C   0  0  0  0  0  0  0  0  0  0  0  0
   11.3999  -16.0973   25.1388 O   0  0  0  0  0  0  0  0  0  0  0  0
   10.9563  -18.1660   25.8779 O   0  0  0  0  0  0  0  0  0  0  0  0
  2  1  1  6
  3  2  1  0
  4  2  1  0
  4  5  1  1
  6  4  1  0
  7  6  2  0
  8  9  1  0
  9 10  2  0
 10 11  1  0
 12 11  2  0
 12 13  1  0
 14 13  1  1
 14 15  1  0
 15  6  1  0
 16 14  1  0
 16 28  1  0
 17 16  2  0
 18 12  1  0
 19  9  1  0
 19 18  2  0
 20 21  1  0
 21 23  1  0
 21 22  2  0
 23 24  1  0
 24 25  1  0
 25 26  1  0
 27 26  1  6
 27 28  1  0
 29 27  1  0
 30 29  1  0
 31 29  2  0
M  END
$$$$
