VYR.pdb
     RDKit          3D

 31 31  0  0  1  0  0  0  0  0999 V2000
    6.4878  -14.0106   19.0583 C   0  0  0  0  0  0  0  0  0  0  0  0
    7.3384  -14.5221   20.2038 C   0  0  1  0  0  0  0  0  0  0  0  0
    8.1362  -15.7243   19.7730 C   0  0  0  0  0  0  0  0  0  0  0  0
    8.2432  -13.4031   20.7343 C   0  0  2  0  0  0  0  0  0  0  0  0
    9.1637  -12.9601   19.7348 N   0  0  0  0  0  0  0  0  0  0  0  0
    8.9186  -13.8912   21.9645 C   0  0  0  0  0  0  0  0  0  0  0  0
   10.0938  -14.3328   21.8949 O   0  0  0  0  0  0  0  0  0  0  0  0
   10.0280  -15.6939   30.6938 O   0  0  0  0  0  0  0  0  0  0  0  0
    9.5697  -15.2416   29.4500 C   0  0  0  0  0  0  0  0  0  0  0  0
    9.9114  -13.9925   28.9767 C   0  0  0  0  0  0  0  0  0  0  0  0
    9.4564  -13.5420   27.7405 C   0  0  0  0  0  0  0  0  0  0  0  0
    8.6490  -14.3188   26.9387 C   0  0  0  0  0  0  0  0  0  0  0  0
    8.1504  -13.8857   25.6328 C   0  0  0  0  0  0  0  0  0  0  0  0
    8.9938  -14.3044   24.4663 C   0  0  2  0  0  0  0  0  0  0  0  0
    8.3058  -13.8906   23.2455 N   0  0  0  0  0  0  0  0  0  0  0  0
    9.3396  -15.7250   24.4128 C   0  0  0  0  0  0  0  0  0  0  0  0
    8.4177  -16.5721   24.2110 O   0  0  0  0  0  0  0  0  0  0  0  0
    8.3113  -15.5746   27.4255 C   0  0  0  0  0  0  0  0  0  0  0  0
    8.7617  -16.0233   28.6516 C   0  0  0  0  0  0  0  0  0  0  0  0
   12.4220  -16.6964   19.0018 N   0  0  0  0  0  0  0  0  0  0  0  0
   11.6657  -17.8844   18.8499 C   0  0  0  0  0  0  0  0  0  0  0  0
   10.9543  -18.1039   17.7722 N   0  0  0  0  0  0  0  0  0  0  0  0
   11.6314  -18.9001   19.8440 N   0  0  0  0  0  0  0  0  0  0  0  0
   12.3013  -18.7484   21.1205 C   0  0  0  0  0  0  0  0  0  0  0  0
   11.3088  -18.5378   22.2348 C   0  0  0  0  0  0  0  0  0  0  0  0
   11.9085  -17.9786   23.4738 C   0  0  0  0  0  0  0  0  0  0  0  0
   10.9227  -17.6843   24.5800 C   0  0  2  0  0  0  0  0  0  0  0  0
   10.6458  -16.2558   24.5687 N   0  0  0  0  0  0  0  0  0  0  0  0
   11.3733  -18.1614   25.8872 C   0  0  0  0  0  0  0  0  0  0  0  0
   11.9093  -17.3196   26.8461 O   0  0  0  0  0  0  0  0  0  0  0  0
   11.3043  -19.3899   26.2374 O   0  0  0  0  0  0  0  0  0  0  0  0
  2  1  1  6
  3  2  1  0
  4  2  1  0
  4  5  1  6
  6  4  1  0
  7  6  2  0
  8  9  1  0
  9 10  2  0
 10 11  1  0
 12 11  2  0
 12 13  1  0
 14 13  1  1
 14 15  1  0
 15  6  1  0
 16 14  1  0
 16 28  1  0
 17 16  2  0
 18 12  1  0
 19  9  1  0
 19 18  2  0
 20 21  1  0
 21 23  1  0
 21 22  2  0
 23 24  1  0
 24 25  1  0
 25 26  1  0
 27 26  1  6
 27 28  1  0
 29 27  1  0
 30 29  1  0
 31 29  2  0
M  END
$$$$
