VYR.pdb
     RDKit          3D

 31 31  0  0  1  0  0  0  0  0999 V2000
    8.5257  -12.3296   20.2740 C   0  0  0  0  0  0  0  0  0  0  0  0
    7.3381  -13.2710   20.3026 C   0  0  1  0  0  0  0  0  0  0  0  0
    6.4737  -13.0672   19.0866 C   0  0  0  0  0  0  0  0  0  0  0  0
    7.8148  -14.7239   20.4209 C   0  0  2  0  0  0  0  0  0  0  0  0
    6.7413  -15.6429   20.2078 N   0  0  0  0  0  0  0  0  0  0  0  0
    8.4671  -14.8959   21.7448 C   0  0  0  0  0  0  0  0  0  0  0  0
    9.6323  -14.4594   21.9252 O   0  0  0  0  0  0  0  0  0  0  0  0
    5.7617  -10.3217   26.7239 O   0  0  0  0  0  0  0  0  0  0  0  0
    6.1609  -11.6108   26.3488 C   0  0  0  0  0  0  0  0  0  0  0  0
    7.4362  -12.0654   26.6101 C   0  0  0  0  0  0  0  0  0  0  0  0
    7.8340  -13.3465   26.2377 C   0  0  0  0  0  0  0  0  0  0  0  0
    6.9769  -14.2130   25.5951 C   0  0  0  0  0  0  0  0  0  0  0  0
    7.3528  -15.5675   25.1882 C   0  0  0  0  0  0  0  0  0  0  0  0
    8.4517  -15.6373   24.1708 C   0  0  2  0  0  0  0  0  0  0  0  0
    7.8423  -15.5381   22.8466 N   0  0  0  0  0  0  0  0  0  0  0  0
    9.3207  -16.8112   24.2572 C   0  0  0  0  0  0  0  0  0  0  0  0
    8.8284  -17.9558   24.0208 O   0  0  0  0  0  0  0  0  0  0  0  0
    5.6956  -13.7446   25.3371 C   0  0  0  0  0  0  0  0  0  0  0  0
    5.2991  -12.4740   25.7058 C   0  0  0  0  0  0  0  0  0  0  0  0
   14.6071  -20.8281   25.5576 N   0  0  0  0  0  0  0  0  0  0  0  0
   15.7539  -20.8231   24.7262 C   0  0  0  0  0  0  0  0  0  0  0  0
   16.6302  -21.7955   24.7715 N   0  0  0  0  0  0  0  0  0  0  0  0
   16.0227  -19.7766   23.8023 N   0  0  0  0  0  0  0  0  0  0  0  0
   15.1544  -18.6228   23.6746 C   0  0  0  0  0  0  0  0  0  0  0  0
   13.8232  -18.8671   24.3373 C   0  0  0  0  0  0  0  0  0  0  0  0
   12.8735  -17.7315   24.2107 C   0  0  0  0  0  0  0  0  0  0  0  0
   11.4927  -17.9934   24.7650 C   0  0  2  0  0  0  0  0  0  0  0  0
   10.6998  -16.7861   24.5885 N   0  0  0  0  0  0  0  0  0  0  0  0
   11.5136  -18.4568   26.1522 C   0  0  0  0  0  0  0  0  0  0  0  0
   11.2035  -17.6332   27.2203 O   0  0  0  0  0  0  0  0  0  0  0  0
   11.8197  -19.6557   26.4772 O   0  0  0  0  0  0  0  0  0  0  0  0
  2  1  1  6
  3  2  1  0
  4  2  1  0
  4  5  1  1
  6  4  1  0
  7  6  2  0
  8  9  1  0
  9 10  2  0
 10 11  1  0
 12 11  2  0
 12 13  1  0
 14 13  1  1
 14 15  1  0
 15  6  1  0
 16 14  1  0
 16 28  1  0
 17 16  2  0
 18 12  1  0
 19  9  1  0
 19 18  2  0
 20 21  1  0
 21 23  1  0
 21 22  2  0
 23 24  1  0
 24 25  1  0
 25 26  1  0
 27 26  1  1
 27 28  1  0
 29 27  1  0
 30 29  1  0
 31 29  2  0
M  END
$$$$
