VYR.pdb
     RDKit          3D

 31 31  0  0  1  0  0  0  0  0999 V2000
    8.0827  -16.2673   19.5376 C   0  0  0  0  0  0  0  0  0  0  0  0
    8.3366  -14.8610   19.0323 C   0  0  1  0  0  0  0  0  0  0  0  0
    7.8195  -14.7036   17.6269 C   0  0  0  0  0  0  0  0  0  0  0  0
    7.7106  -13.8337   19.9837 C   0  0  2  0  0  0  0  0  0  0  0  0
    7.9364  -12.4978   19.5289 N   0  0  0  0  0  0  0  0  0  0  0  0
    8.2433  -14.0757   21.3495 C   0  0  0  0  0  0  0  0  0  0  0  0
    9.3820  -13.6414   21.6587 O   0  0  0  0  0  0  0  0  0  0  0  0
    6.1549  -10.4127   27.5433 O   0  0  0  0  0  0  0  0  0  0  0  0
    6.3565  -11.5985   26.8258 C   0  0  0  0  0  0  0  0  0  0  0  0
    5.4503  -12.0183   25.8751 C   0  0  0  0  0  0  0  0  0  0  0  0
    5.6498  -13.1968   25.1614 C   0  0  0  0  0  0  0  0  0  0  0  0
    6.7550  -13.9924   25.3711 C   0  0  0  0  0  0  0  0  0  0  0  0
    7.0046  -15.2367   24.6424 C   0  0  0  0  0  0  0  0  0  0  0  0
    8.1139  -15.1657   23.6365 C   0  0  2  0  0  0  0  0  0  0  0  0
    7.5301  -14.7838   22.3528 N   0  0  0  0  0  0  0  0  0  0  0  0
    8.9234  -16.3770   23.5004 C   0  0  0  0  0  0  0  0  0  0  0  0
    8.3460  -17.4704   23.2188 O   0  0  0  0  0  0  0  0  0  0  0  0
    7.6606  -13.5600   26.3306 C   0  0  0  0  0  0  0  0  0  0  0  0
    7.4644  -12.3911   27.0397 C   0  0  0  0  0  0  0  0  0  0  0  0
   17.2931  -17.8986   20.6975 N   0  0  0  0  0  0  0  0  0  0  0  0
   16.6602  -19.1439   20.9322 C   0  0  0  0  0  0  0  0  0  0  0  0
   17.2238  -20.2707   20.5742 N   0  0  0  0  0  0  0  0  0  0  0  0
   15.3904  -19.2482   21.5630 N   0  0  0  0  0  0  0  0  0  0  0  0
   14.6355  -18.0787   21.9678 C   0  0  0  0  0  0  0  0  0  0  0  0
   13.3028  -18.4671   22.5544 C   0  0  0  0  0  0  0  0  0  0  0  0
   12.4271  -17.3093   22.8709 C   0  0  0  0  0  0  0  0  0  0  0  0
   11.0913  -17.6701   23.4773 C   0  0  2  0  0  0  0  0  0  0  0  0
   10.3317  -16.4422   23.6573 N   0  0  0  0  0  0  0  0  0  0  0  0
   11.2161  -18.4427   24.7130 C   0  0  0  0  0  0  0  0  0  0  0  0
   11.4812  -19.8010   24.7219 O   0  0  0  0  0  0  0  0  0  0  0  0
   11.0893  -17.9186   25.8731 O   0  0  0  0  0  0  0  0  0  0  0  0
  2  1  1  1
  3  2  1  0
  4  2  1  0
  4  5  1  6
  6  4  1  0
  7  6  2  0
  8  9  1  0
  9 10  2  0
 10 11  1  0
 12 11  2  0
 12 13  1  0
 14 13  1  1
 14 15  1  0
 15  6  1  0
 16 14  1  0
 16 28  1  0
 17 16  2  0
 18 12  1  0
 19  9  1  0
 19 18  2  0
 20 21  1  0
 21 23  1  0
 21 22  2  0
 23 24  1  0
 24 25  1  0
 25 26  1  0
 27 26  1  1
 27 28  1  0
 29 27  1  0
 30 29  1  0
 31 29  2  0
M  END
$$$$
