QLV.pdb
     RDKit          3D

 25 24  0  0  1  0  0  0  0  0999 V2000
   20.1822  -11.6789  -20.3549 N   0  0  0  0  0  0  0  0  0  0  0  0
   19.1362  -12.6509  -20.2604 C   0  0  0  0  0  0  0  0  0  0  0  0
   19.2539  -13.6858  -20.9510 O   0  0  0  0  0  0  0  0  0  0  0  0
   17.9743  -12.4081  -19.3701 C   0  0  0  0  0  0  0  0  0  0  0  0
   18.1011  -11.1439  -18.5597 C   0  0  0  0  0  0  0  0  0  0  0  0
   18.4238  -11.3741  -17.1199 C   0  0  2  0  0  0  0  0  0  0  0  0
   17.1981  -11.8813  -16.4949 N   0  0  0  0  0  0  0  0  0  0  0  0
   18.8095  -10.0833  -16.4338 C   0  0  0  0  0  0  0  0  0  0  0  0
   17.8692   -9.3291  -16.0757 O   0  0  0  0  0  0  0  0  0  0  0  0
   23.2642  -10.0752  -13.2530 C   0  0  0  0  0  0  0  0  0  0  0  0
   21.9140   -9.7378  -13.8757 C   0  0  1  0  0  0  0  0  0  0  0  0
   21.1267   -9.0547  -12.7425 C   0  0  0  0  0  0  0  0  0  0  0  0
   22.0410   -8.7225  -14.9637 C   0  0  0  0  0  0  0  0  0  0  0  0
   20.6853   -8.5437  -15.6359 C   0  0  2  0  0  0  0  0  0  0  0  0
   20.1574   -9.7519  -16.2117 N   0  0  0  0  0  0  0  0  0  0  0  0
   20.6098   -7.3614  -16.5079 C   0  0  0  0  0  0  0  0  0  0  0  0
   21.2272   -7.4002  -17.6051 O   0  0  0  0  0  0  0  0  0  0  0  0
   18.3670   -3.4198  -18.2520 C   0  0  0  0  0  0  0  0  0  0  0  0
   18.4346   -4.6923  -17.4341 C   0  0  1  0  0  0  0  0  0  0  0  0
   17.8564   -5.7999  -18.2767 C   0  0  0  0  0  0  0  0  0  0  0  0
   19.8277   -5.0144  -16.9986 C   0  0  2  0  0  0  0  0  0  0  0  0
   19.8926   -6.2102  -16.1788 N   0  0  0  0  0  0  0  0  0  0  0  0
   20.3880   -3.8432  -16.2743 C   0  0  0  0  0  0  0  0  0  0  0  0
   20.2114   -3.7814  -15.0352 O   0  0  0  0  0  0  0  0  0  0  0  0
   21.0892   -2.8357  -16.9280 O   0  0  0  0  0  0  0  0  0  0  0  0
  2  1  1  0
  3  2  2  0
  4  2  1  0
  5  4  1  0
  6  5  1  0
  6  7  1  1
  8  6  1  0
  9  8  2  0
 11 10  1  1
 11 13  1  0
 11 12  1  0
 14 13  1  6
 14 15  1  0
 15  8  1  0
 16 17  2  0
 16 14  1  0
 19 21  1  0
 19 18  1  6
 20 19  1  0
 21 22  1  1
 22 16  1  0
 23 21  1  0
 24 23  2  0
 25 23  1  0
M  END
$$$$
