QLV.pdb
     RDKit          3D

 25 24  0  0  1  0  0  0  0  0999 V2000
   21.2493  -16.9192  -20.8813 N   0  0  0  0  0  0  0  0  0  0  0  0
   20.5229  -18.1117  -20.5680 C   0  0  0  0  0  0  0  0  0  0  0  0
   20.5240  -19.0228  -21.4234 O   0  0  0  0  0  0  0  0  0  0  0  0
   19.8088  -18.2281  -19.2725 C   0  0  0  0  0  0  0  0  0  0  0  0
   19.9779  -17.0180  -18.3904 C   0  0  0  0  0  0  0  0  0  0  0  0
   21.0434  -17.1645  -17.3544 C   0  0  2  0  0  0  0  0  0  0  0  0
   20.5443  -18.1397  -16.3797 N   0  0  0  0  0  0  0  0  0  0  0  0
   21.2902  -15.8571  -16.6364 C   0  0  0  0  0  0  0  0  0  0  0  0
   20.3526  -15.4163  -15.9237 O   0  0  0  0  0  0  0  0  0  0  0  0
   24.4927  -15.5981  -14.9549 C   0  0  0  0  0  0  0  0  0  0  0  0
   24.9836  -14.1712  -15.1726 C   0  0  1  0  0  0  0  0  0  0  0  0
   26.4688  -14.3274  -15.5477 C   0  0  0  0  0  0  0  0  0  0  0  0
   24.3236  -13.5288  -16.3484 C   0  0  0  0  0  0  0  0  0  0  0  0
   22.8338  -13.8470  -16.3160 C   0  0  2  0  0  0  0  0  0  0  0  0
   22.5126  -15.1753  -16.7662 N   0  0  0  0  0  0  0  0  0  0  0  0
   21.9903  -12.7835  -16.8826 C   0  0  0  0  0  0  0  0  0  0  0  0
   21.8986  -12.7118  -18.1369 O   0  0  0  0  0  0  0  0  0  0  0  0
   18.2284   -9.7454  -16.8364 C   0  0  0  0  0  0  0  0  0  0  0  0
   19.0393  -10.9380  -16.3749 C   0  0  1  0  0  0  0  0  0  0  0  0
   18.5021  -12.1510  -17.0896 C   0  0  0  0  0  0  0  0  0  0  0  0
   20.5017  -10.7633  -16.6292 C   0  0  2  0  0  0  0  0  0  0  0  0
   21.2936  -11.8595  -16.1023 N   0  0  0  0  0  0  0  0  0  0  0  0
   20.9392   -9.4660  -16.0496 C   0  0  0  0  0  0  0  0  0  0  0  0
   21.4970   -9.4841  -14.9275 O   0  0  0  0  0  0  0  0  0  0  0  0
   20.7469   -8.2581  -16.7113 O   0  0  0  0  0  0  0  0  0  0  0  0
  2  1  1  0
  3  2  2  0
  4  2  1  0
  5  4  1  0
  6  5  1  0
  6  7  1  1
  8  6  1  0
  9  8  2  0
 11 10  1  6
 11 13  1  0
 11 12  1  0
 14 13  1  6
 14 15  1  0
 15  8  1  0
 16 17  2  0
 16 14  1  0
 19 21  1  0
 19 18  1  6
 20 19  1  0
 21 22  1  1
 22 16  1  0
 23 21  1  0
 24 23  2  0
 25 23  1  0
M  END
$$$$
