QLV.pdb
     RDKit          3D

 25 24  0  0  1  0  0  0  0  0999 V2000
   23.5908  -16.8826  -17.3206 N   0  0  0  0  0  0  0  0  0  0  0  0
   24.3900  -16.3120  -18.3616 C   0  0  0  0  0  0  0  0  0  0  0  0
   24.2767  -15.0835  -18.5606 O   0  0  0  0  0  0  0  0  0  0  0  0
   25.3041  -17.1722  -19.1529 C   0  0  0  0  0  0  0  0  0  0  0  0
   25.2423  -18.6253  -18.7583 C   0  0  0  0  0  0  0  0  0  0  0  0
   26.2382  -19.0156  -17.7163 C   0  0  2  0  0  0  0  0  0  0  0  0
   27.2758  -19.7916  -18.4028 N   0  0  0  0  0  0  0  0  0  0  0  0
   25.6072  -19.8939  -16.6597 C   0  0  0  0  0  0  0  0  0  0  0  0
   24.8240  -20.7913  -17.0628 O   0  0  0  0  0  0  0  0  0  0  0  0
   28.4926  -20.7792  -12.1182 C   0  0  0  0  0  0  0  0  0  0  0  0
   27.5246  -20.8624  -13.2932 C   0  0  1  0  0  0  0  0  0  0  0  0
   27.3930  -22.3697  -13.5784 C   0  0  0  0  0  0  0  0  0  0  0  0
   26.1574  -20.3889  -12.9227 C   0  0  0  0  0  0  0  0  0  0  0  0
   25.2837  -20.3704  -14.1710 C   0  0  2  0  0  0  0  0  0  0  0  0
   25.8894  -19.7077  -15.2953 N   0  0  0  0  0  0  0  0  0  0  0  0
   23.8877  -19.9880  -13.9091 C   0  0  0  0  0  0  0  0  0  0  0  0
   23.6395  -18.7688  -13.7120 O   0  0  0  0  0  0  0  0  0  0  0  0
   21.2020  -19.4831  -15.8736 C   0  0  0  0  0  0  0  0  0  0  0  0
   20.6469  -20.4934  -14.8917 C   0  0  1  0  0  0  0  0  0  0  0  0
   20.6173  -21.8290  -15.5889 C   0  0  0  0  0  0  0  0  0  0  0  0
   21.4468  -20.5586  -13.6307 C   0  0  2  0  0  0  0  0  0  0  0  0
   22.8359  -20.9046  -13.8695 N   0  0  0  0  0  0  0  0  0  0  0  0
   20.8086  -21.5325  -12.7062 C   0  0  0  0  0  0  0  0  0  0  0  0
   21.3427  -22.6594  -12.5827 O   0  0  0  0  0  0  0  0  0  0  0  0
   19.6562  -21.2267  -11.9905 O   0  0  0  0  0  0  0  0  0  0  0  0
  2  1  1  0
  3  2  2  0
  4  2  1  0
  5  4  1  0
  6  5  1  0
  6  7  1  6
  8  6  1  0
  9  8  2  0
 11 10  1  1
 11 13  1  0
 11 12  1  0
 14 13  1  1
 14 15  1  0
 15  8  1  0
 16 17  2  0
 16 14  1  0
 19 21  1  0
 19 18  1  6
 20 19  1  0
 21 22  1  6
 22 16  1  0
 23 21  1  0
 24 23  2  0
 25 23  1  0
M  END
$$$$
