QLV.pdb
     RDKit          3D

 25 24  0  0  1  0  0  0  0  0999 V2000
   21.3050  -13.0424  -21.0607 N   0  0  0  0  0  0  0  0  0  0  0  0
   20.4396  -14.1758  -20.9412 C   0  0  0  0  0  0  0  0  0  0  0  0
   20.3394  -14.9256  -21.9360 O   0  0  0  0  0  0  0  0  0  0  0  0
   19.7061  -14.4205  -19.6748 C   0  0  0  0  0  0  0  0  0  0  0  0
   19.9606  -13.3667  -18.6280 C   0  0  0  0  0  0  0  0  0  0  0  0
   21.3005  -13.4677  -17.9764 C   0  0  2  0  0  0  0  0  0  0  0  0
   21.2773  -14.6887  -17.1649 N   0  0  0  0  0  0  0  0  0  0  0  0
   21.5521  -12.2915  -17.0603 C   0  0  0  0  0  0  0  0  0  0  0  0
   20.7347  -12.1209  -16.1200 O   0  0  0  0  0  0  0  0  0  0  0  0
   26.7541  -10.8184  -16.1043 C   0  0  0  0  0  0  0  0  0  0  0  0
   25.2520  -11.0744  -16.0537 C   0  0  1  0  0  0  0  0  0  0  0  0
   24.9317  -11.1950  -14.5525 C   0  0  0  0  0  0  0  0  0  0  0  0
   24.4706   -9.9032  -16.5523 C   0  0  0  0  0  0  0  0  0  0  0  0
   22.9866  -10.2477  -16.5215 C   0  0  2  0  0  0  0  0  0  0  0  0
   22.6497  -11.4363  -17.2590 N   0  0  0  0  0  0  0  0  0  0  0  0
   22.1076   -9.0958  -16.7744 C   0  0  0  0  0  0  0  0  0  0  0  0
   21.9948   -8.6923  -17.9624 O   0  0  0  0  0  0  0  0  0  0  0  0
   18.2355   -6.3484  -15.9785 C   0  0  0  0  0  0  0  0  0  0  0  0
   19.1064   -7.5720  -15.7854 C   0  0  1  0  0  0  0  0  0  0  0  0
   18.6318   -8.6201  -16.7586 C   0  0  0  0  0  0  0  0  0  0  0  0
   20.5579   -7.2721  -15.9780 C   0  0  2  0  0  0  0  0  0  0  0  0
   21.3997   -8.4358  -15.7688 N   0  0  0  0  0  0  0  0  0  0  0  0
   20.9459   -6.1653  -15.0643 C   0  0  0  0  0  0  0  0  0  0  0  0
   21.4161   -6.4688  -13.9431 O   0  0  0  0  0  0  0  0  0  0  0  0
   20.8013   -4.8285  -15.4192 O   0  0  0  0  0  0  0  0  0  0  0  0
  2  1  1  0
  3  2  2  0
  4  2  1  0
  5  4  1  0
  6  5  1  0
  6  7  1  1
  8  6  1  0
  9  8  2  0
 11 10  1  1
 11 13  1  0
 11 12  1  0
 14 13  1  6
 14 15  1  0
 15  8  1  0
 16 17  2  0
 16 14  1  0
 19 21  1  0
 19 18  1  6
 20 19  1  0
 21 22  1  1
 22 16  1  0
 23 21  1  0
 24 23  2  0
 25 23  1  0
M  END
$$$$
