QLV.pdb
     RDKit          3D

 25 24  0  0  1  0  0  0  0  0999 V2000
   19.2270  -12.6286  -20.8953 N   0  0  0  0  0  0  0  0  0  0  0  0
   18.8603  -13.9432  -20.4649 C   0  0  0  0  0  0  0  0  0  0  0  0
   18.5276  -14.7618  -21.3487 O   0  0  0  0  0  0  0  0  0  0  0  0
   18.8845  -14.2863  -19.0215 C   0  0  0  0  0  0  0  0  0  0  0  0
   19.2679  -13.1247  -18.1413 C   0  0  0  0  0  0  0  0  0  0  0  0
   20.6184  -13.2541  -17.5173 C   0  0  2  0  0  0  0  0  0  0  0  0
   20.5519  -14.4105  -16.6181 N   0  0  0  0  0  0  0  0  0  0  0  0
   20.9598  -12.0313  -16.6962 C   0  0  0  0  0  0  0  0  0  0  0  0
   20.1579  -11.7237  -15.7777 O   0  0  0  0  0  0  0  0  0  0  0  0
   26.1249  -11.0364  -15.4449 C   0  0  0  0  0  0  0  0  0  0  0  0
   24.6004  -11.0503  -15.4654 C   0  0  1  0  0  0  0  0  0  0  0  0
   24.1931  -10.8349  -13.9962 C   0  0  0  0  0  0  0  0  0  0  0  0
   24.0434   -9.8912  -16.2250 C   0  0  0  0  0  0  0  0  0  0  0  0
   22.5320  -10.0506  -16.3350 C   0  0  2  0  0  0  0  0  0  0  0  0
   22.1203  -11.2817  -16.9555 N   0  0  0  0  0  0  0  0  0  0  0  0
   21.8463   -8.8491  -16.8350 C   0  0  0  0  0  0  0  0  0  0  0  0
   21.8953   -8.6167  -18.0721 O   0  0  0  0  0  0  0  0  0  0  0  0
   18.2286   -5.6298  -16.6638 C   0  0  0  0  0  0  0  0  0  0  0  0
   18.9675   -6.8666  -16.1978 C   0  0  1  0  0  0  0  0  0  0  0  0
   18.3420   -8.0511  -16.8882 C   0  0  0  0  0  0  0  0  0  0  0  0
   20.4341   -6.7906  -16.4755 C   0  0  2  0  0  0  0  0  0  0  0  0
   21.1507   -7.9638  -16.0102 N   0  0  0  0  0  0  0  0  0  0  0  0
   20.9781   -5.5549  -15.8529 C   0  0  0  0  0  0  0  0  0  0  0  0
   21.4628   -5.6440  -14.7007 O   0  0  0  0  0  0  0  0  0  0  0  0
   20.9611   -4.3280  -16.5073 O   0  0  0  0  0  0  0  0  0  0  0  0
  2  1  1  0
  3  2  2  0
  4  2  1  0
  5  4  1  0
  6  5  1  0
  6  7  1  1
  8  6  1  0
  9  8  2  0
 11 10  1  1
 11 13  1  0
 11 12  1  0
 14 13  1  6
 14 15  1  0
 15  8  1  0
 16 17  2  0
 16 14  1  0
 19 21  1  0
 19 18  1  6
 20 19  1  0
 21 22  1  1
 22 16  1  0
 23 21  1  0
 24 23  2  0
 25 23  1  0
M  END
$$$$
