QLV.pdb
     RDKit          3D

 25 24  0  0  1  0  0  0  0  0999 V2000
   17.3660  -10.9536  -20.8595 N   0  0  0  0  0  0  0  0  0  0  0  0
   16.2378  -11.8278  -20.7565 C   0  0  0  0  0  0  0  0  0  0  0  0
   15.8198  -12.3482  -21.8131 O   0  0  0  0  0  0  0  0  0  0  0  0
   15.6139  -12.0835  -19.4347 C   0  0  0  0  0  0  0  0  0  0  0  0
   16.2680  -11.3205  -18.3118 C   0  0  0  0  0  0  0  0  0  0  0  0
   17.5967  -11.8640  -17.9002 C   0  0  2  0  0  0  0  0  0  0  0  0
   17.3368  -13.1579  -17.2612 N   0  0  0  0  0  0  0  0  0  0  0  0
   18.2671  -10.9602  -16.8905 C   0  0  0  0  0  0  0  0  0  0  0  0
   17.5366  -10.4809  -15.9861 O   0  0  0  0  0  0  0  0  0  0  0  0
   21.7622   -9.1760  -13.4691 C   0  0  0  0  0  0  0  0  0  0  0  0
   22.4499   -9.4045  -14.8106 C   0  0  1  0  0  0  0  0  0  0  0  0
   23.8019  -10.0449  -14.4466 C   0  0  0  0  0  0  0  0  0  0  0  0
   21.7249  -10.4101  -15.6436 C   0  0  0  0  0  0  0  0  0  0  0  0
   20.4111   -9.8037  -16.1213 C   0  0  2  0  0  0  0  0  0  0  0  0
   19.6415  -10.6759  -16.9681 N   0  0  0  0  0  0  0  0  0  0  0  0
   20.5421   -8.4241  -16.6144 C   0  0  0  0  0  0  0  0  0  0  0  0
   21.3016   -8.2216  -17.5988 O   0  0  0  0  0  0  0  0  0  0  0  0
   18.2556   -6.2962  -18.3785 C   0  0  0  0  0  0  0  0  0  0  0  0
   18.6271   -5.5259  -17.1289 C   0  0  1  0  0  0  0  0  0  0  0  0
   17.5002   -5.6971  -16.1432 C   0  0  0  0  0  0  0  0  0  0  0  0
   19.9277   -5.9788  -16.5481 C   0  0  2  0  0  0  0  0  0  0  0  0
   19.8704   -7.3399  -16.0476 N   0  0  0  0  0  0  0  0  0  0  0  0
   20.3291   -5.0343  -15.4724 C   0  0  0  0  0  0  0  0  0  0  0  0
   20.1556   -5.3920  -14.2839 O   0  0  0  0  0  0  0  0  0  0  0  0
   20.8813   -3.7886  -15.7503 O   0  0  0  0  0  0  0  0  0  0  0  0
  2  1  1  0
  3  2  2  0
  4  2  1  0
  5  4  1  0
  6  5  1  0
  6  7  1  1
  8  6  1  0
  9  8  2  0
 11 10  1  1
 11 13  1  0
 11 12  1  0
 14 13  1  6
 14 15  1  0
 15  8  1  0
 16 17  2  0
 16 14  1  0
 19 21  1  0
 19 18  1  6
 20 19  1  0
 21 22  1  1
 22 16  1  0
 23 21  1  0
 24 23  2  0
 25 23  1  0
M  END
$$$$
