QLV.pdb
     RDKit          3D

 25 24  0  0  1  0  0  0  0  0999 V2000
   28.2544  -19.3378  -19.5524 N   0  0  0  0  0  0  0  0  0  0  0  0
   27.7572  -17.9960  -19.5424 C   0  0  0  0  0  0  0  0  0  0  0  0
   27.9964  -17.2906  -20.5459 O   0  0  0  0  0  0  0  0  0  0  0  0
   26.9937  -17.4951  -18.3729 C   0  0  0  0  0  0  0  0  0  0  0  0
   26.8489  -18.5182  -17.2759 C   0  0  0  0  0  0  0  0  0  0  0  0
   27.6918  -18.2446  -16.0739 C   0  0  2  0  0  0  0  0  0  0  0  0
   29.0846  -18.4371  -16.4903 N   0  0  0  0  0  0  0  0  0  0  0  0
   27.3882  -19.2213  -14.9605 C   0  0  0  0  0  0  0  0  0  0  0  0
   26.3598  -19.9323  -15.0953 O   0  0  0  0  0  0  0  0  0  0  0  0
   31.6593  -20.9400  -11.7920 C   0  0  0  0  0  0  0  0  0  0  0  0
   30.3427  -20.9076  -12.5601 C   0  0  1  0  0  0  0  0  0  0  0  0
   29.9376  -22.3870  -12.6936 C   0  0  0  0  0  0  0  0  0  0  0  0
   29.2563  -20.2486  -11.7751 C   0  0  0  0  0  0  0  0  0  0  0  0
   28.0180  -20.1196  -12.6535 C   0  0  2  0  0  0  0  0  0  0  0  0
   28.2221  -19.3218  -13.8334 N   0  0  0  0  0  0  0  0  0  0  0  0
   26.7917  -19.8077  -11.9034 C   0  0  0  0  0  0  0  0  0  0  0  0
   26.6047  -18.6120  -11.5540 O   0  0  0  0  0  0  0  0  0  0  0  0
   22.1500  -20.7366  -10.6590 C   0  0  0  0  0  0  0  0  0  0  0  0
   23.4143  -21.1103  -11.4040 C   0  0  1  0  0  0  0  0  0  0  0  0
   23.2399  -20.6704  -12.8347 C   0  0  0  0  0  0  0  0  0  0  0  0
   24.6344  -20.4988  -10.7945 C   0  0  2  0  0  0  0  0  0  0  0  0
   25.8353  -20.7660  -11.5645 N   0  0  0  0  0  0  0  0  0  0  0  0
   24.7763  -20.9957   -9.4004 C   0  0  0  0  0  0  0  0  0  0  0  0
   25.5279  -21.9787   -9.2026 O   0  0  0  0  0  0  0  0  0  0  0  0
   24.1071  -20.4058   -8.3336 O   0  0  0  0  0  0  0  0  0  0  0  0
  2  1  1  0
  3  2  2  0
  4  2  1  0
  5  4  1  0
  6  5  1  0
  6  7  1  6
  8  6  1  0
  9  8  2  0
 11 10  1  1
 11 13  1  0
 11 12  1  0
 14 13  1  1
 14 15  1  0
 15  8  1  0
 16 17  2  0
 16 14  1  0
 19 21  1  0
 19 18  1  1
 20 19  1  0
 21 22  1  6
 22 16  1  0
 23 21  1  0
 24 23  2  0
 25 23  1  0
M  END
$$$$
