QLV.pdb
     RDKit          3D

 25 24  0  0  1  0  0  0  0  0999 V2000
   17.8967  -16.4745  -18.7600 N   0  0  0  0  0  0  0  0  0  0  0  0
   18.5137  -16.3733  -17.4728 C   0  0  0  0  0  0  0  0  0  0  0  0
   17.9169  -15.7014  -16.6044 O   0  0  0  0  0  0  0  0  0  0  0  0
   19.8086  -17.0500  -17.2141 C   0  0  0  0  0  0  0  0  0  0  0  0
   20.7883  -16.1889  -16.4592 C   0  0  0  0  0  0  0  0  0  0  0  0
   21.6874  -15.3797  -17.3348 C   0  0  2  0  0  0  0  0  0  0  0  0
   22.5932  -16.3282  -17.9906 N   0  0  0  0  0  0  0  0  0  0  0  0
   22.5176  -14.4136  -16.5204 C   0  0  0  0  0  0  0  0  0  0  0  0
   23.4276  -14.9094  -15.8080 O   0  0  0  0  0  0  0  0  0  0  0  0
   25.2381  -11.0579  -14.0783 C   0  0  0  0  0  0  0  0  0  0  0  0
   25.2938  -10.9994  -15.6008 C   0  0  1  0  0  0  0  0  0  0  0  0
   26.7831  -11.1939  -15.9399 C   0  0  0  0  0  0  0  0  0  0  0  0
   24.5717  -12.1463  -16.2286 C   0  0  0  0  0  0  0  0  0  0  0  0
   23.0751  -11.9758  -15.9986 C   0  0  2  0  0  0  0  0  0  0  0  0
   22.2756  -13.0296  -16.5647 N   0  0  0  0  0  0  0  0  0  0  0  0
   22.5864  -10.6160  -16.2739 C   0  0  0  0  0  0  0  0  0  0  0  0
   22.9340  -10.0747  -17.3569 O   0  0  0  0  0  0  0  0  0  0  0  0
   19.2320   -9.6138  -16.9528 C   0  0  0  0  0  0  0  0  0  0  0  0
   19.6654   -8.7099  -15.8178 C   0  0  1  0  0  0  0  0  0  0  0  0
   19.0461   -9.2471  -14.5534 C   0  0  0  0  0  0  0  0  0  0  0  0
   21.1527   -8.6227  -15.6974 C   0  0  2  0  0  0  0  0  0  0  0  0
   21.7636   -9.9050  -15.3990 N   0  0  0  0  0  0  0  0  0  0  0  0
   21.4927   -7.6177  -14.6559 C   0  0  0  0  0  0  0  0  0  0  0  0
   21.9441   -8.0353  -13.5640 O   0  0  0  0  0  0  0  0  0  0  0  0
   21.3244   -6.2528  -14.8625 O   0  0  0  0  0  0  0  0  0  0  0  0
  2  1  1  0
  3  2  2  0
  4  2  1  0
  5  4  1  0
  6  5  1  0
  6  7  1  1
  8  6  1  0
  9  8  2  0
 11 10  1  1
 11 13  1  0
 11 12  1  0
 14 13  1  6
 14 15  1  0
 15  8  1  0
 16 17  2  0
 16 14  1  0
 19 21  1  0
 19 18  1  6
 20 19  1  0
 21 22  1  1
 22 16  1  0
 23 21  1  0
 24 23  2  0
 25 23  1  0
M  END
$$$$
