QLV.pdb
     RDKit          3D

 25 24  0  0  1  0  0  0  0  0999 V2000
   29.1397  -21.5678  -16.1271 N   0  0  0  0  0  0  0  0  0  0  0  0
   29.2268  -22.3949  -17.2916 C   0  0  0  0  0  0  0  0  0  0  0  0
   30.3666  -22.6049  -17.7593 O   0  0  0  0  0  0  0  0  0  0  0  0
   27.9953  -22.9630  -17.8935 C   0  0  0  0  0  0  0  0  0  0  0  0
   26.7764  -22.7931  -17.0238 C   0  0  0  0  0  0  0  0  0  0  0  0
   26.7026  -23.7562  -15.8850 C   0  0  2  0  0  0  0  0  0  0  0  0
   26.3089  -25.0475  -16.4573 N   0  0  0  0  0  0  0  0  0  0  0  0
   25.6498  -23.3380  -14.8837 C   0  0  0  0  0  0  0  0  0  0  0  0
   24.4680  -23.6963  -15.1212 O   0  0  0  0  0  0  0  0  0  0  0  0
   23.8575  -21.4834  -10.1538 C   0  0  0  0  0  0  0  0  0  0  0  0
   24.7803  -20.4954  -10.8587 C   0  0  1  0  0  0  0  0  0  0  0  0
   25.5581  -19.8132   -9.7184 C   0  0  0  0  0  0  0  0  0  0  0  0
   25.8005  -21.1896  -11.7001 C   0  0  0  0  0  0  0  0  0  0  0  0
   25.1057  -21.8270  -12.8971 C   0  0  2  0  0  0  0  0  0  0  0  0
   25.9865  -22.5850  -13.7455 N   0  0  0  0  0  0  0  0  0  0  0  0
   24.1996  -20.9132  -13.6095 C   0  0  0  0  0  0  0  0  0  0  0  0
   24.6944  -19.8712  -14.1157 O   0  0  0  0  0  0  0  0  0  0  0  0
   22.6112  -20.9956  -16.7039 C   0  0  0  0  0  0  0  0  0  0  0  0
   21.4570  -20.7855  -15.7466 C   0  0  1  0  0  0  0  0  0  0  0  0
   20.7542  -22.1096  -15.5918 C   0  0  0  0  0  0  0  0  0  0  0  0
   21.9056  -20.2530  -14.4240 C   0  0  2  0  0  0  0  0  0  0  0  0
   22.8303  -21.1450  -13.7490 N   0  0  0  0  0  0  0  0  0  0  0  0
   20.7098  -19.9907  -13.5804 C   0  0  0  0  0  0  0  0  0  0  0  0
   20.4215  -20.8302  -12.6958 O   0  0  0  0  0  0  0  0  0  0  0  0
   19.9208  -18.8579  -13.7479 O   0  0  0  0  0  0  0  0  0  0  0  0
  2  1  1  0
  3  2  2  0
  4  2  1  0
  5  4  1  0
  6  5  1  0
  6  7  1  6
  8  6  1  0
  9  8  2  0
 11 10  1  1
 11 13  1  0
 11 12  1  0
 14 13  1  1
 14 15  1  0
 15  8  1  0
 16 17  2  0
 16 14  1  0
 19 21  1  0
 19 18  1  6
 20 19  1  0
 21 22  1  1
 22 16  1  0
 23 21  1  0
 24 23  2  0
 25 23  1  0
M  END
$$$$
