QLV.pdb
     RDKit          3D

 25 24  0  0  1  0  0  0  0  0999 V2000
   19.2966  -24.9113  -14.5526 N   0  0  0  0  0  0  0  0  0  0  0  0
   18.3188  -23.9097  -14.2553 C   0  0  0  0  0  0  0  0  0  0  0  0
   17.1169  -24.2417  -14.3393 O   0  0  0  0  0  0  0  0  0  0  0  0
   18.7486  -22.5435  -13.8673 C   0  0  0  0  0  0  0  0  0  0  0  0
   20.2444  -22.3620  -13.8925 C   0  0  0  0  0  0  0  0  0  0  0  0
   20.8240  -21.9076  -12.5934 C   0  0  2  0  0  0  0  0  0  0  0  0
   19.7500  -21.2084  -11.8808 N   0  0  0  0  0  0  0  0  0  0  0  0
   21.9612  -20.9359  -12.8131 C   0  0  0  0  0  0  0  0  0  0  0  0
   21.6537  -19.7866  -13.2204 O   0  0  0  0  0  0  0  0  0  0  0  0
   26.5352  -21.4352   -9.8422 C   0  0  0  0  0  0  0  0  0  0  0  0
   25.3419  -21.0862  -10.7247 C   0  0  1  0  0  0  0  0  0  0  0  0
   24.9468  -19.6619  -10.2933 C   0  0  0  0  0  0  0  0  0  0  0  0
   25.7237  -20.9928  -12.1657 C   0  0  0  0  0  0  0  0  0  0  0  0
   24.4911  -20.6248  -12.9824 C   0  0  2  0  0  0  0  0  0  0  0  0
   23.2945  -21.3095  -12.5707 N   0  0  0  0  0  0  0  0  0  0  0  0
   24.7263  -20.6143  -14.4344 C   0  0  0  0  0  0  0  0  0  0  0  0
   24.7715  -21.7231  -15.0304 O   0  0  0  0  0  0  0  0  0  0  0  0
   24.1593  -17.0607  -16.7753 C   0  0  0  0  0  0  0  0  0  0  0  0
   24.0434  -18.4895  -17.2631 C   0  0  1  0  0  0  0  0  0  0  0  0
   24.2123  -18.4687  -18.7605 C   0  0  0  0  0  0  0  0  0  0  0  0
   25.0443  -19.3929  -16.6180 C   0  0  2  0  0  0  0  0  0  0  0  0
   24.8999  -19.4440  -15.1748 N   0  0  0  0  0  0  0  0  0  0  0  0
   26.4105  -18.9472  -16.9992 C   0  0  0  0  0  0  0  0  0  0  0  0
   26.9862  -18.1204  -16.2539 O   0  0  0  0  0  0  0  0  0  0  0  0
   27.0502  -19.4178  -18.1408 O   0  0  0  0  0  0  0  0  0  0  0  0
  2  1  1  0
  3  2  2  0
  4  2  1  0
  5  4  1  0
  6  5  1  0
  6  7  1  1
  8  6  1  0
  9  8  2  0
 11 10  1  1
 11 13  1  0
 11 12  1  0
 14 13  1  1
 14 15  1  0
 15  8  1  0
 16 17  2  0
 16 14  1  0
 19 21  1  0
 19 18  1  1
 20 19  1  0
 21 22  1  1
 22 16  1  0
 23 21  1  0
 24 23  2  0
 25 23  1  0
M  END
$$$$
