WWK.pdb
     RDKit          3D

 38 41  0  0  1  0  0  0  0  0999 V2000
    7.2814  -18.7230   21.6557 N   0  0  0  0  0  0  0  0  0  0  0  0
    8.4563  -19.0189   22.4563 C   0  0  1  0  0  0  0  0  0  0  0  0
    9.4360  -19.6899   21.4959 C   0  0  0  0  0  0  0  0  0  0  0  0
    9.0518  -21.0895   21.2617 C   0  0  0  0  0  0  0  0  0  0  0  0
    8.3527  -21.6121   20.1654 C   0  0  0  0  0  0  0  0  0  0  0  0
    8.1985  -22.9215   20.3181 N   0  0  0  0  0  0  0  0  0  0  0  0
    8.7806  -23.2558   21.4847 C   0  0  0  0  0  0  0  0  0  0  0  0
    8.9067  -24.4629   22.1123 C   0  0  0  0  0  0  0  0  0  0  0  0
    9.5585  -24.5593   23.3272 C   0  0  0  0  0  0  0  0  0  0  0  0
   10.1060  -23.4624   23.9586 C   0  0  0  0  0  0  0  0  0  0  0  0
    9.9692  -22.2358   23.3054 C   0  0  0  0  0  0  0  0  0  0  0  0
    9.3223  -22.1426   22.1004 C   0  0  0  0  0  0  0  0  0  0  0  0
    9.0010  -17.7521   22.9655 C   0  0  0  0  0  0  0  0  0  0  0  0
    9.4398  -16.8999   22.1536 O   0  0  0  0  0  0  0  0  0  0  0  0
    9.0832  -17.3861   24.3215 N   0  0  0  0  0  0  0  0  0  0  0  0
    9.9205  -16.3167   24.8116 C   0  0  1  0  0  0  0  0  0  0  0  0
    9.5384  -15.7745   26.1288 C   0  0  0  0  0  0  0  0  0  0  0  0
    8.1698  -15.2165   26.0491 C   0  0  0  0  0  0  0  0  0  0  0  0
    6.9406  -15.8034   25.9048 C   0  0  0  0  0  0  0  0  0  0  0  0
    5.9989  -14.8421   25.8747 N   0  0  0  0  0  0  0  0  0  0  0  0
    6.5666  -13.6310   25.9949 C   0  0  0  0  0  0  0  0  0  0  0  0
    6.0797  -12.3280   26.0235 C   0  0  0  0  0  0  0  0  0  0  0  0
    6.9050  -11.2311   26.1585 C   0  0  0  0  0  0  0  0  0  0  0  0
    8.2573  -11.4513   26.2677 C   0  0  0  0  0  0  0  0  0  0  0  0
    8.7469  -12.7620   26.2388 C   0  0  0  0  0  0  0  0  0  0  0  0
    7.9046  -13.8454   26.1032 C   0  0  0  0  0  0  0  0  0  0  0  0
   11.2984  -16.8601   24.8892 C   0  0  0  0  0  0  0  0  0  0  0  0
   11.4659  -18.0015   25.3739 O   0  0  0  0  0  0  0  0  0  0  0  0
   12.3955  -16.1106   24.4284 N   0  0  0  0  0  0  0  0  0  0  0  0
   13.7858  -16.6898   24.3616 C   0  0  1  0  0  0  0  0  0  0  0  0
   14.6217  -15.7546   23.5936 C   0  0  0  0  0  0  0  0  0  0  0  0
   16.0405  -15.8893   23.3532 C   0  0  0  0  0  0  0  0  0  0  0  0
   16.8568  -14.9455   22.5827 C   0  0  0  0  0  0  0  0  0  0  0  0
   18.3214  -15.5174   22.6781 C   0  0  0  0  0  0  0  0  0  0  0  0
   19.0061  -14.9393   21.5373 N   0  0  0  0  0  0  0  0  0  0  0  0
   14.2223  -16.8324   25.7655 C   0  0  0  0  0  0  0  0  0  0  0  0
   13.7501  -16.2622   26.7641 O   0  0  0  0  0  0  0  0  0  0  0  0
   15.2973  -17.7091   26.0473 O   0  0  0  0  0  0  0  0  0  0  0  0
  2  1  1  6
  2  3  1  0
  3  4  1  0
  4  5  2  0
  6  5  1  0
  7  6  1  0
  8  7  2  0
  9  8  1  0
 10  9  2  0
 10 11  1  0
 11 12  2  0
 12  7  1  0
 12  4  1  0
 13  2  1  0
 13 15  1  0
 14 13  2  0
 16 15  1  0
 16 17  1  1
 18 17  1  0
 18 26  1  0
 19 18  2  0
 20 19  1  0
 20 21  1  0
 21 22  1  0
 21 26  2  0
 22 23  2  0
 23 24  1  0
 25 24  2  0
 26 25  1  0
 27 16  1  0
 28 27  2  0
 29 27  1  0
 30 31  1  6
 30 29  1  0
 32 31  1  0
 33 32  1  0
 34 33  1  0
 35 34  1  0
 36 38  1  0
 36 30  1  0
 37 36  2  0
M  END
$$$$
