WWK.pdb
     RDKit          3D

 38 41  0  0  1  0  0  0  0  0999 V2000
    5.1462  -19.6494   22.5688 N   0  0  0  0  0  0  0  0  0  0  0  0
    6.0729  -19.4652   23.6717 C   0  0  1  0  0  0  0  0  0  0  0  0
    6.9338  -20.7265   23.6855 C   0  0  0  0  0  0  0  0  0  0  0  0
    6.4938  -21.6397   24.7505 C   0  0  0  0  0  0  0  0  0  0  0  0
    5.8607  -22.8813   24.6045 C   0  0  0  0  0  0  0  0  0  0  0  0
    5.6223  -23.4034   25.8012 N   0  0  0  0  0  0  0  0  0  0  0  0
    6.0858  -22.5300   26.7143 C   0  0  0  0  0  0  0  0  0  0  0  0
    6.0923  -22.5769   28.0798 C   0  0  0  0  0  0  0  0  0  0  0  0
    6.6343  -21.5407   28.8165 C   0  0  0  0  0  0  0  0  0  0  0  0
    7.1870  -20.4253   28.2232 C   0  0  0  0  0  0  0  0  0  0  0  0
    7.1730  -20.3915   26.8273 C   0  0  0  0  0  0  0  0  0  0  0  0
    6.6349  -21.4205   26.0987 C   0  0  0  0  0  0  0  0  0  0  0  0
    6.8882  -18.2732   23.3975 C   0  0  0  0  0  0  0  0  0  0  0  0
    6.9438  -17.8212   22.2268 O   0  0  0  0  0  0  0  0  0  0  0  0
    7.6404  -17.5626   24.3507 N   0  0  0  0  0  0  0  0  0  0  0  0
    8.3803  -16.3597   24.0501 C   0  0  1  0  0  0  0  0  0  0  0  0
    8.6731  -15.4973   25.2101 C   0  0  0  0  0  0  0  0  0  0  0  0
    7.4247  -14.8399   25.6576 C   0  0  0  0  0  0  0  0  0  0  0  0
    6.2198  -15.3367   26.0793 C   0  0  0  0  0  0  0  0  0  0  0  0
    5.3995  -14.3084   26.3641 N   0  0  0  0  0  0  0  0  0  0  0  0
    6.0242  -13.1403   26.1440 C   0  0  0  0  0  0  0  0  0  0  0  0
    5.6579  -11.8038   26.2678 C   0  0  0  0  0  0  0  0  0  0  0  0
    6.5172  -10.7684   25.9640 C   0  0  0  0  0  0  0  0  0  0  0  0
    7.7795  -11.0866   25.5234 C   0  0  0  0  0  0  0  0  0  0  0  0
    8.1479  -12.4310   25.3987 C   0  0  0  0  0  0  0  0  0  0  0  0
    7.2736  -13.4515   25.7080 C   0  0  0  0  0  0  0  0  0  0  0  0
    9.6563  -16.7918   23.4296 C   0  0  0  0  0  0  0  0  0  0  0  0
   10.1030  -17.9274   23.7069 O   0  0  0  0  0  0  0  0  0  0  0  0
   10.3516  -15.9455   22.5477 N   0  0  0  0  0  0  0  0  0  0  0  0
   11.6328  -16.3714   21.8769 C   0  0  1  0  0  0  0  0  0  0  0  0
   11.9322  -15.3894   20.8237 C   0  0  0  0  0  0  0  0  0  0  0  0
   13.0696  -15.4244   19.9326 C   0  0  0  0  0  0  0  0  0  0  0  0
   13.2940  -14.4985   18.8178 C   0  0  0  0  0  0  0  0  0  0  0  0
   14.7099  -14.8938   18.2521 C   0  0  0  0  0  0  0  0  0  0  0  0
   14.8987  -14.0144   17.1139 N   0  0  0  0  0  0  0  0  0  0  0  0
   12.6502  -16.3957   22.9475 C   0  0  0  0  0  0  0  0  0  0  0  0
   12.6974  -15.6759   23.9599 O   0  0  0  0  0  0  0  0  0  0  0  0
   13.7077  -17.3310   22.8459 O   0  0  0  0  0  0  0  0  0  0  0  0
  2  1  1  6
  2  3  1  0
  3  4  1  0
  4  5  2  0
  6  5  1  0
  7  6  1  0
  8  7  2  0
  9  8  1  0
 10  9  2  0
 10 11  1  0
 11 12  2  0
 12  7  1  0
 12  4  1  0
 13  2  1  0
 13 15  1  0
 14 13  2  0
 16 15  1  0
 16 17  1  1
 18 17  1  0
 18 26  1  0
 19 18  2  0
 20 19  1  0
 20 21  1  0
 21 22  1  0
 21 26  2  0
 22 23  2  0
 23 24  1  0
 25 24  2  0
 26 25  1  0
 27 16  1  0
 28 27  2  0
 29 27  1  0
 30 31  1  6
 30 29  1  0
 32 31  1  0
 33 32  1  0
 34 33  1  0
 35 34  1  0
 36 38  1  0
 36 30  1  0
 37 36  2  0
M  END
$$$$
