WWK.pdb
     RDKit          3D

 38 41  0  0  1  0  0  0  0  0999 V2000
    7.9997  -20.0008   26.0977 N   0  0  0  0  0  0  0  0  0  0  0  0
    8.4419  -18.6178   26.1264 C   0  0  1  0  0  0  0  0  0  0  0  0
    9.8460  -18.6592   26.7257 C   0  0  0  0  0  0  0  0  0  0  0  0
    9.8980  -17.8812   27.9721 C   0  0  0  0  0  0  0  0  0  0  0  0
   10.2461  -18.3372   29.2506 C   0  0  0  0  0  0  0  0  0  0  0  0
   10.1738  -17.3340   30.1165 N   0  0  0  0  0  0  0  0  0  0  0  0
    9.7882  -16.2434   29.4286 C   0  0  0  0  0  0  0  0  0  0  0  0
    9.5630  -14.9583   29.8346 C   0  0  0  0  0  0  0  0  0  0  0  0
    9.1656  -13.9938   28.9280 C   0  0  0  0  0  0  0  0  0  0  0  0
    8.9787  -14.2723   27.5905 C   0  0  0  0  0  0  0  0  0  0  0  0
    9.2125  -15.5896   27.1905 C   0  0  0  0  0  0  0  0  0  0  0  0
    9.6066  -16.5446   28.0915 C   0  0  0  0  0  0  0  0  0  0  0  0
    8.4722  -18.1125   24.7464 C   0  0  0  0  0  0  0  0  0  0  0  0
    8.4064  -18.9258   23.7913 O   0  0  0  0  0  0  0  0  0  0  0  0
    8.5720  -16.7591   24.3753 N   0  0  0  0  0  0  0  0  0  0  0  0
    8.3351  -16.2780   23.0347 C   0  0  1  0  0  0  0  0  0  0  0  0
    7.5504  -15.0326   22.9448 C   0  0  0  0  0  0  0  0  0  0  0  0
    6.9809  -14.7170   24.2741 C   0  0  0  0  0  0  0  0  0  0  0  0
    6.2708  -15.4653   25.1753 C   0  0  0  0  0  0  0  0  0  0  0  0
    5.9718  -14.6980   26.2400 N   0  0  0  0  0  0  0  0  0  0  0  0
    6.4628  -13.4593   26.0731 C   0  0  0  0  0  0  0  0  0  0  0  0
    6.4464  -12.2963   26.8367 C   0  0  0  0  0  0  0  0  0  0  0  0
    7.0434  -11.1257   26.4173 C   0  0  0  0  0  0  0  0  0  0  0  0
    7.6740  -11.1252   25.1961 C   0  0  0  0  0  0  0  0  0  0  0  0
    7.6904  -12.2950   24.4281 C   0  0  0  0  0  0  0  0  0  0  0  0
    7.0875  -13.4555   24.8658 C   0  0  0  0  0  0  0  0  0  0  0  0
    9.6680  -16.0596   22.4220 C   0  0  0  0  0  0  0  0  0  0  0  0
    9.7248  -15.6648   21.2359 O   0  0  0  0  0  0  0  0  0  0  0  0
   10.8451  -16.2903   23.1561 N   0  0  0  0  0  0  0  0  0  0  0  0
   12.2124  -16.0569   22.5655 C   0  0  1  0  0  0  0  0  0  0  0  0
   13.1751  -16.8522   23.3426 C   0  0  0  0  0  0  0  0  0  0  0  0
   13.2620  -16.9032   24.7844 C   0  0  0  0  0  0  0  0  0  0  0  0
   14.4749  -16.6365   25.5643 C   0  0  0  0  0  0  0  0  0  0  0  0
   14.0221  -16.7845   27.0657 C   0  0  0  0  0  0  0  0  0  0  0  0
   15.2365  -16.5660   27.8288 N   0  0  0  0  0  0  0  0  0  0  0  0
   12.1132  -16.4891   21.1565 C   0  0  0  0  0  0  0  0  0  0  0  0
   12.2600  -15.7885   20.1403 O   0  0  0  0  0  0  0  0  0  0  0  0
   11.8195  -17.8482   20.8915 O   0  0  0  0  0  0  0  0  0  0  0  0
  2  1  1  6
  2  3  1  0
  3  4  1  0
  4  5  2  0
  6  5  1  0
  7  6  1  0
  8  7  2  0
  9  8  1  0
 10  9  2  0
 10 11  1  0
 11 12  2  0
 12  7  1  0
 12  4  1  0
 13  2  1  0
 13 15  1  0
 14 13  2  0
 16 15  1  0
 16 17  1  1
 18 17  1  0
 18 26  1  0
 19 18  2  0
 20 19  1  0
 20 21  1  0
 21 22  1  0
 21 26  2  0
 22 23  2  0
 23 24  1  0
 25 24  2  0
 26 25  1  0
 27 16  1  0
 28 27  2  0
 29 27  1  0
 30 31  1  1
 30 29  1  0
 32 31  1  0
 33 32  1  0
 34 33  1  0
 35 34  1  0
 36 38  1  0
 36 30  1  0
 37 36  2  0
M  END
$$$$
