WWK.pdb
     RDKit          3D

 38 41  0  0  1  0  0  0  0  0999 V2000
    8.3419  -16.9545   20.9242 N   0  0  0  0  0  0  0  0  0  0  0  0
    7.8490  -15.8803   21.7681 C   0  0  1  0  0  0  0  0  0  0  0  0
    6.5799  -15.3816   21.0803 C   0  0  0  0  0  0  0  0  0  0  0  0
    6.8930  -14.8415   19.7492 C   0  0  0  0  0  0  0  0  0  0  0  0
    6.4155  -15.2904   18.5105 C   0  0  0  0  0  0  0  0  0  0  0  0
    6.9273  -14.5450   17.5389 N   0  0  0  0  0  0  0  0  0  0  0  0
    7.7221  -13.6273   18.1200 C   0  0  0  0  0  0  0  0  0  0  0  0
    8.4806  -12.6262   17.5821 C   0  0  0  0  0  0  0  0  0  0  0  0
    9.2273  -11.7950   18.3956 C   0  0  0  0  0  0  0  0  0  0  0  0
    9.2460  -11.9297   19.7678 C   0  0  0  0  0  0  0  0  0  0  0  0
    8.4661  -12.9571   20.3030 C   0  0  0  0  0  0  0  0  0  0  0  0
    7.7263  -13.7803   19.4941 C   0  0  0  0  0  0  0  0  0  0  0  0
    7.5462  -16.4354   23.0951 C   0  0  0  0  0  0  0  0  0  0  0  0
    6.3680  -16.3879   23.5283 O   0  0  0  0  0  0  0  0  0  0  0  0
    8.4791  -17.0362   23.9602 N   0  0  0  0  0  0  0  0  0  0  0  0
    9.4590  -16.2950   24.7185 C   0  0  1  0  0  0  0  0  0  0  0  0
    9.1513  -16.1330   26.1517 C   0  0  0  0  0  0  0  0  0  0  0  0
    7.8515  -15.4402   26.2971 C   0  0  0  0  0  0  0  0  0  0  0  0
    6.5570  -15.8714   26.1755 C   0  0  0  0  0  0  0  0  0  0  0  0
    5.7289  -14.8335   26.3958 N   0  0  0  0  0  0  0  0  0  0  0  0
    6.4355  -13.7228   26.6608 C   0  0  0  0  0  0  0  0  0  0  0  0
    6.1006  -12.4042   26.9520 C   0  0  0  0  0  0  0  0  0  0  0  0
    7.0509  -11.4327   27.1880 C   0  0  0  0  0  0  0  0  0  0  0  0
    8.3746  -11.7980   27.1292 C   0  0  0  0  0  0  0  0  0  0  0  0
    8.7114  -13.1244   26.8362 C   0  0  0  0  0  0  0  0  0  0  0  0
    7.7456  -14.0809   26.6036 C   0  0  0  0  0  0  0  0  0  0  0  0
   10.7436  -17.0224   24.5749 C   0  0  0  0  0  0  0  0  0  0  0  0
   10.7133  -18.2514   24.3416 O   0  0  0  0  0  0  0  0  0  0  0  0
   11.9713  -16.3477   24.6975 N   0  0  0  0  0  0  0  0  0  0  0  0
   13.1241  -16.6124   23.7627 C   0  0  1  0  0  0  0  0  0  0  0  0
   13.1978  -15.4887   22.8167 C   0  0  0  0  0  0  0  0  0  0  0  0
   12.5701  -15.4350   21.5159 C   0  0  0  0  0  0  0  0  0  0  0  0
   13.2527  -15.0859   20.2659 C   0  0  0  0  0  0  0  0  0  0  0  0
   12.1139  -15.0871   19.1777 C   0  0  0  0  0  0  0  0  0  0  0  0
   12.7847  -14.6808   17.9572 N   0  0  0  0  0  0  0  0  0  0  0  0
   14.3175  -16.7168   24.6268 C   0  0  0  0  0  0  0  0  0  0  0  0
   14.4336  -16.3309   25.8027 O   0  0  0  0  0  0  0  0  0  0  0  0
   15.4816  -17.3188   24.0919 O   0  0  0  0  0  0  0  0  0  0  0  0
  2  1  1  6
  2  3  1  0
  3  4  1  0
  4  5  2  0
  6  5  1  0
  7  6  1  0
  8  7  2  0
  9  8  1  0
 10  9  2  0
 10 11  1  0
 11 12  2  0
 12  7  1  0
 12  4  1  0
 13  2  1  0
 13 15  1  0
 14 13  2  0
 16 15  1  0
 16 17  1  1
 18 17  1  0
 18 26  1  0
 19 18  2  0
 20 19  1  0
 20 21  1  0
 21 22  1  0
 21 26  2  0
 22 23  2  0
 23 24  1  0
 25 24  2  0
 26 25  1  0
 27 16  1  0
 28 27  2  0
 29 27  1  0
 30 31  1  6
 30 29  1  0
 32 31  1  0
 33 32  1  0
 34 33  1  0
 35 34  1  0
 36 38  1  0
 36 30  1  0
 37 36  2  0
M  END
$$$$
