WWK.pdb
     RDKit          3D

 38 41  0  0  1  0  0  0  0  0999 V2000
    6.9889  -16.5818   20.6930 N   0  0  0  0  0  0  0  0  0  0  0  0
    7.9540  -17.5734   20.2520 C   0  0  1  0  0  0  0  0  0  0  0  0
    8.5860  -16.9840   18.9928 C   0  0  0  0  0  0  0  0  0  0  0  0
    8.5785  -15.5149   19.0512 C   0  0  0  0  0  0  0  0  0  0  0  0
    9.1967  -14.6211   18.1664 C   0  0  0  0  0  0  0  0  0  0  0  0
    8.9604  -13.3743   18.5552 N   0  0  0  0  0  0  0  0  0  0  0  0
    8.2058  -13.4420   19.6676 C   0  0  0  0  0  0  0  0  0  0  0  0
    7.6884  -12.4592   20.4633 C   0  0  0  0  0  0  0  0  0  0  0  0
    6.9301  -12.7795   21.5735 C   0  0  0  0  0  0  0  0  0  0  0  0
    6.6606  -14.0840   21.9302 C   0  0  0  0  0  0  0  0  0  0  0  0
    7.1960  -15.0774   21.1078 C   0  0  0  0  0  0  0  0  0  0  0  0
    7.9479  -14.7572   20.0071 C   0  0  0  0  0  0  0  0  0  0  0  0
    8.9562  -17.7482   21.3129 C   0  0  0  0  0  0  0  0  0  0  0  0
   10.1686  -17.8571   21.0028 O   0  0  0  0  0  0  0  0  0  0  0  0
    8.6825  -17.8087   22.6916 N   0  0  0  0  0  0  0  0  0  0  0  0
    8.8970  -16.7058   23.5984 C   0  0  1  0  0  0  0  0  0  0  0  0
    7.6701  -16.0773   24.1227 C   0  0  0  0  0  0  0  0  0  0  0  0
    7.9814  -15.3821   25.3918 C   0  0  0  0  0  0  0  0  0  0  0  0
    8.6173  -15.7884   26.5350 C   0  0  0  0  0  0  0  0  0  0  0  0
    8.6311  -14.7681   27.4127 N   0  0  0  0  0  0  0  0  0  0  0  0
    8.0220  -13.6933   26.8862 C   0  0  0  0  0  0  0  0  0  0  0  0
    7.7573  -12.4057   27.3420 C   0  0  0  0  0  0  0  0  0  0  0  0
    7.0930  -11.4703   26.5765 C   0  0  0  0  0  0  0  0  0  0  0  0
    6.6838  -11.8405   25.3177 C   0  0  0  0  0  0  0  0  0  0  0  0
    6.9501  -13.1357   24.8593 C   0  0  0  0  0  0  0  0  0  0  0  0
    7.6161  -14.0563   25.6407 C   0  0  0  0  0  0  0  0  0  0  0  0
    9.6941  -17.2378   24.7304 C   0  0  0  0  0  0  0  0  0  0  0  0
    9.1145  -17.9258   25.6002 O   0  0  0  0  0  0  0  0  0  0  0  0
   11.0725  -16.9763   24.8268 N   0  0  0  0  0  0  0  0  0  0  0  0
   12.0943  -18.0843   24.8606 C   0  0  1  0  0  0  0  0  0  0  0  0
   13.1422  -17.7540   23.8829 C   0  0  0  0  0  0  0  0  0  0  0  0
   14.2948  -18.5682   23.5700 C   0  0  0  0  0  0  0  0  0  0  0  0
   15.3525  -18.2009   22.6231 C   0  0  0  0  0  0  0  0  0  0  0  0
   16.3181  -19.4453   22.6042 C   0  0  0  0  0  0  0  0  0  0  0  0
   17.3613  -19.0743   21.6667 N   0  0  0  0  0  0  0  0  0  0  0  0
   12.5938  -18.1189   26.2502 C   0  0  0  0  0  0  0  0  0  0  0  0
   13.2978  -18.9973   26.7773 O   0  0  0  0  0  0  0  0  0  0  0  0
   12.2543  -17.0479   27.1113 O   0  0  0  0  0  0  0  0  0  0  0  0
  2  1  1  1
  2  3  1  0
  3  4  1  0
  4  5  2  0
  6  5  1  0
  7  6  1  0
  8  7  2  0
  9  8  1  0
 10  9  2  0
 10 11  1  0
 11 12  2  0
 12  7  1  0
 12  4  1  0
 13  2  1  0
 13 15  1  0
 14 13  2  0
 16 15  1  0
 16 17  1  1
 18 17  1  0
 18 26  1  0
 19 18  2  0
 20 19  1  0
 20 21  1  0
 21 22  1  0
 21 26  2  0
 22 23  2  0
 23 24  1  0
 25 24  2  0
 26 25  1  0
 27 16  1  0
 28 27  2  0
 29 27  1  0
 30 31  1  6
 30 29  1  0
 32 31  1  0
 33 32  1  0
 34 33  1  0
 35 34  1  0
 36 38  1  0
 36 30  1  0
 37 36  2  0
M  END
$$$$
