WWK.pdb
     RDKit          3D

 38 41  0  0  1  0  0  0  0  0999 V2000
    8.4113  -16.9524   21.8214 N   0  0  0  0  0  0  0  0  0  0  0  0
    8.6846  -15.5758   22.1949 C   0  0  1  0  0  0  0  0  0  0  0  0
    7.4033  -14.8112   21.8695 C   0  0  0  0  0  0  0  0  0  0  0  0
    7.2328  -14.6860   20.4146 C   0  0  0  0  0  0  0  0  0  0  0  0
    6.3636  -15.4129   19.5900 C   0  0  0  0  0  0  0  0  0  0  0  0
    6.5009  -15.0103   18.3328 N   0  0  0  0  0  0  0  0  0  0  0  0
    7.4363  -14.0425   18.3264 C   0  0  0  0  0  0  0  0  0  0  0  0
    7.9515  -13.2979   17.3032 C   0  0  0  0  0  0  0  0  0  0  0  0
    8.9227  -12.3452   17.5464 C   0  0  0  0  0  0  0  0  0  0  0  0
    9.4140  -12.1001   18.8113 C   0  0  0  0  0  0  0  0  0  0  0  0
    8.8781  -12.8686   19.8467 C   0  0  0  0  0  0  0  0  0  0  0  0
    7.9149  -13.8131   19.6031 C   0  0  0  0  0  0  0  0  0  0  0  0
    8.9714  -15.5351   23.6360 C   0  0  0  0  0  0  0  0  0  0  0  0
    9.2060  -14.4304   24.1862 O   0  0  0  0  0  0  0  0  0  0  0  0
    9.0115  -16.6513   24.4916 N   0  0  0  0  0  0  0  0  0  0  0  0
    9.6718  -16.6512   25.7756 C   0  0  1  0  0  0  0  0  0  0  0  0
    8.7733  -16.5796   26.9428 C   0  0  0  0  0  0  0  0  0  0  0  0
    7.6209  -15.7088   26.6195 C   0  0  0  0  0  0  0  0  0  0  0  0
    6.3469  -15.9826   26.1971 C   0  0  0  0  0  0  0  0  0  0  0  0
    5.6836  -14.8233   26.0313 N   0  0  0  0  0  0  0  0  0  0  0  0
    6.4802  -13.7846   26.3313 C   0  0  0  0  0  0  0  0  0  0  0  0
    6.3162  -12.4030   26.3338 C   0  0  0  0  0  0  0  0  0  0  0  0
    7.3276  -11.5371   26.6941 C   0  0  0  0  0  0  0  0  0  0  0  0
    8.5373  -12.0761   27.0618 C   0  0  0  0  0  0  0  0  0  0  0  0
    8.7022  -13.4659   27.0592 C   0  0  0  0  0  0  0  0  0  0  0  0
    7.6778  -14.3145   26.6957 C   0  0  0  0  0  0  0  0  0  0  0  0
   10.4620  -17.9044   25.8449 C   0  0  0  0  0  0  0  0  0  0  0  0
    9.9555  -18.9018   26.4058 O   0  0  0  0  0  0  0  0  0  0  0  0
   11.7535  -17.9735   25.2927 N   0  0  0  0  0  0  0  0  0  0  0  0
   12.5757  -19.2362   25.3418 C   0  0  1  0  0  0  0  0  0  0  0  0
   13.0687  -19.5001   23.9814 C   0  0  0  0  0  0  0  0  0  0  0  0
   13.6190  -18.5177   23.0752 C   0  0  0  0  0  0  0  0  0  0  0  0
   14.1171  -18.8034   21.7259 C   0  0  0  0  0  0  0  0  0  0  0  0
   14.6873  -17.4273   21.2136 C   0  0  0  0  0  0  0  0  0  0  0  0
   15.2400  -17.7331   19.9075 N   0  0  0  0  0  0  0  0  0  0  0  0
   13.6620  -18.9631   26.3048 C   0  0  0  0  0  0  0  0  0  0  0  0
   14.5904  -19.7228   26.6303 O   0  0  0  0  0  0  0  0  0  0  0  0
   13.6836  -17.7040   26.9512 O   0  0  0  0  0  0  0  0  0  0  0  0
  2  1  1  1
  2  3  1  0
  3  4  1  0
  4  5  2  0
  6  5  1  0
  7  6  1  0
  8  7  2  0
  9  8  1  0
 10  9  2  0
 10 11  1  0
 11 12  2  0
 12  7  1  0
 12  4  1  0
 13  2  1  0
 13 15  1  0
 14 13  2  0
 16 15  1  0
 16 17  1  1
 18 17  1  0
 18 26  1  0
 19 18  2  0
 20 19  1  0
 20 21  1  0
 21 22  1  0
 21 26  2  0
 22 23  2  0
 23 24  1  0
 25 24  2  0
 26 25  1  0
 27 16  1  0
 28 27  2  0
 29 27  1  0
 30 31  1  6
 30 29  1  0
 32 31  1  0
 33 32  1  0
 34 33  1  0
 35 34  1  0
 36 38  1  0
 36 30  1  0
 37 36  2  0
M  END
$$$$
