KKD.pdb
     RDKit          3D

 27 26  0  0  1  0  0  0  0  0999 V2000
    8.2675  -16.0141   17.3579 N   0  0  0  0  0  0  0  0  0  0  0  0
    7.6036  -16.4395   18.5420 C   0  0  1  0  0  0  0  0  0  0  0  0
    7.5628  -17.9594   18.6313 C   0  0  0  0  0  0  0  0  0  0  0  0
    8.7246  -18.6489   18.0184 C   0  0  0  0  0  0  0  0  0  0  0  0
    8.6409  -20.1402   17.9240 C   0  0  0  0  0  0  0  0  0  0  0  0
    9.8851  -20.6880   17.2319 C   0  0  0  0  0  0  0  0  0  0  0  0
    9.6702  -22.1452   17.1899 N   0  0  0  0  0  0  0  0  0  0  0  0
    8.3123  -15.9029   19.7669 C   0  0  0  0  0  0  0  0  0  0  0  0
    9.5531  -15.8090   19.7212 O   0  0  0  0  0  0  0  0  0  0  0  0
    7.5711  -15.5334   20.9013 N   0  0  0  0  0  0  0  0  0  0  0  0
    8.1710  -14.9269   22.0739 C   0  0  1  0  0  0  0  0  0  0  0  0
    7.1015  -14.3685   22.9857 C   0  0  0  0  0  0  0  0  0  0  0  0
    7.5814  -13.8228   24.2757 C   0  0  0  0  0  0  0  0  0  0  0  0
    6.4603  -13.2320   25.1006 C   0  0  0  0  0  0  0  0  0  0  0  0
    6.8969  -12.6803   26.4247 C   0  0  0  0  0  0  0  0  0  0  0  0
    5.8457  -12.1592   27.2365 N   0  0  0  0  0  0  0  0  0  0  0  0
    9.0605  -15.8827   22.7250 C   0  0  0  0  0  0  0  0  0  0  0  0
    8.7569  -17.0753   23.0016 O   0  0  0  0  0  0  0  0  0  0  0  0
   10.3682  -15.4829   23.0854 N   0  0  0  0  0  0  0  0  0  0  0  0
   11.3312  -16.4665   23.6516 C   0  0  1  0  0  0  0  0  0  0  0  0
   12.6971  -15.8689   23.3982 C   0  0  0  0  0  0  0  0  0  0  0  0
   13.8358  -16.6496   23.8563 C   0  0  0  0  0  0  0  0  0  0  0  0
   13.6881  -17.7172   24.4646 O   0  0  0  0  0  0  0  0  0  0  0  0
   11.1131  -16.5852   25.0928 C   0  0  0  0  0  0  0  0  0  0  0  0
   11.7710  -17.4426   25.7515 O   0  0  0  0  0  0  0  0  0  0  0  0
   15.1541  -16.2211   23.6258 O   0  0  0  0  0  0  0  0  0  0  0  0
   10.2188  -15.8071   25.7940 O   0  0  0  0  0  0  0  0  0  0  0  0
  2  3  1  0
  2  1  1  6
  4  3  1  0
  4  5  1  0
  5  6  1  0
  6  7  1  0
  8  2  1  0
  9  8  2  0
 10  8  1  0
 11 10  1  0
 11 12  1  1
 13 12  1  0
 14 13  1  0
 15 14  1  0
 16 15  1  0
 17 11  1  0
 17 18  2  0
 19 17  1  0
 20 19  1  0
 20 21  1  1
 21 22  1  0
 22 26  1  0
 22 23  2  0
 24 20  1  0
 25 24  2  0
 27 24  1  0
M  END
$$$$
