KKD.pdb
     RDKit          3D

 27 26  0  0  1  0  0  0  0  0999 V2000
    7.2994  -15.5080   19.5433 N   0  0  0  0  0  0  0  0  0  0  0  0
    8.4569  -14.6813   19.5207 C   0  0  1  0  0  0  0  0  0  0  0  0
    8.1968  -13.3956   18.7466 C   0  0  0  0  0  0  0  0  0  0  0  0
    7.5502  -13.5864   17.4251 C   0  0  0  0  0  0  0  0  0  0  0  0
    8.4653  -13.7929   16.2590 C   0  0  0  0  0  0  0  0  0  0  0  0
    7.6484  -14.0042   14.9881 C   0  0  0  0  0  0  0  0  0  0  0  0
    8.6543  -14.2739   13.9457 N   0  0  0  0  0  0  0  0  0  0  0  0
    8.8757  -14.3201   20.9296 C   0  0  0  0  0  0  0  0  0  0  0  0
    9.9162  -13.6504   21.0689 O   0  0  0  0  0  0  0  0  0  0  0  0
    8.0995  -14.7404   22.0222 N   0  0  0  0  0  0  0  0  0  0  0  0
    8.4653  -14.4744   23.4000 C   0  0  1  0  0  0  0  0  0  0  0  0
    7.3170  -13.8197   24.1346 C   0  0  0  0  0  0  0  0  0  0  0  0
    7.6073  -13.3877   25.5207 C   0  0  0  0  0  0  0  0  0  0  0  0
    6.4129  -12.7355   26.1798 C   0  0  0  0  0  0  0  0  0  0  0  0
    6.6765  -12.2305   27.5668 C   0  0  0  0  0  0  0  0  0  0  0  0
    5.5778  -11.5607   28.1831 N   0  0  0  0  0  0  0  0  0  0  0  0
    8.9458  -15.6998   24.0297 C   0  0  0  0  0  0  0  0  0  0  0  0
    8.3036  -16.7844   24.0763 O   0  0  0  0  0  0  0  0  0  0  0  0
   10.2209  -15.7147   24.6408 N   0  0  0  0  0  0  0  0  0  0  0  0
   10.7337  -16.9511   25.2916 C   0  0  1  0  0  0  0  0  0  0  0  0
   12.2160  -16.9665   24.9921 C   0  0  0  0  0  0  0  0  0  0  0  0
   12.5913  -17.2518   23.6159 C   0  0  0  0  0  0  0  0  0  0  0  0
   11.7406  -17.4424   22.7375 O   0  0  0  0  0  0  0  0  0  0  0  0
   10.5315  -16.8586   26.7370 C   0  0  0  0  0  0  0  0  0  0  0  0
   10.2609  -15.7361   27.2553 O   0  0  0  0  0  0  0  0  0  0  0  0
   13.9399  -17.3229   23.2275 O   0  0  0  0  0  0  0  0  0  0  0  0
   10.6184  -17.9378   27.5884 O   0  0  0  0  0  0  0  0  0  0  0  0
  2  3  1  0
  2  1  1  1
  4  3  1  0
  4  5  1  0
  5  6  1  0
  6  7  1  0
  8  2  1  0
  9  8  2  0
 10  8  1  0
 11 10  1  0
 11 12  1  1
 13 12  1  0
 14 13  1  0
 15 14  1  0
 16 15  1  0
 17 11  1  0
 17 18  2  0
 19 17  1  0
 20 19  1  0
 20 21  1  1
 21 22  1  0
 22 26  1  0
 22 23  2  0
 24 20  1  0
 25 24  2  0
 27 24  1  0
M  END
$$$$
