KKD.pdb
     RDKit          3D

 27 26  0  0  1  0  0  0  0  0999 V2000
    9.0900  -19.7767   19.5979 N   0  0  0  0  0  0  0  0  0  0  0  0
    9.2201  -20.4683   20.8342 C   0  0  1  0  0  0  0  0  0  0  0  0
   10.6524  -20.4061   21.3487 C   0  0  0  0  0  0  0  0  0  0  0  0
   11.6907  -20.3539   20.2903 C   0  0  0  0  0  0  0  0  0  0  0  0
   13.1073  -20.5375   20.7368 C   0  0  0  0  0  0  0  0  0  0  0  0
   14.0334  -20.5767   19.5252 C   0  0  0  0  0  0  0  0  0  0  0  0
   15.3875  -20.6581   20.1006 N   0  0  0  0  0  0  0  0  0  0  0  0
    8.3060  -19.8625   21.8772 C   0  0  0  0  0  0  0  0  0  0  0  0
    8.2537  -18.6204   21.9478 O   0  0  0  0  0  0  0  0  0  0  0  0
    7.5562  -20.6964   22.7231 N   0  0  0  0  0  0  0  0  0  0  0  0
    6.5878  -20.1896   23.6760 C   0  0  1  0  0  0  0  0  0  0  0  0
    5.4465  -21.1680   23.8406 C   0  0  0  0  0  0  0  0  0  0  0  0
    5.1961  -22.0593   22.6851 C   0  0  0  0  0  0  0  0  0  0  0  0
    4.3466  -21.3971   21.6239 C   0  0  0  0  0  0  0  0  0  0  0  0
    4.0472  -22.2712   20.4430 C   0  0  0  0  0  0  0  0  0  0  0  0
    3.2614  -21.6571   19.4227 N   0  0  0  0  0  0  0  0  0  0  0  0
    7.2566  -19.8485   24.9271 C   0  0  0  0  0  0  0  0  0  0  0  0
    6.6918  -19.3232   25.9251 O   0  0  0  0  0  0  0  0  0  0  0  0
    8.6382  -20.1130   25.0725 N   0  0  0  0  0  0  0  0  0  0  0  0
    9.3773  -19.6378   26.2738 C   0  0  1  0  0  0  0  0  0  0  0  0
    9.6178  -20.8792   27.1033 C   0  0  0  0  0  0  0  0  0  0  0  0
   10.1246  -20.6649   28.4498 C   0  0  0  0  0  0  0  0  0  0  0  0
   11.1786  -20.0500   28.6563 O   0  0  0  0  0  0  0  0  0  0  0  0
   10.6618  -19.0730   25.8617 C   0  0  0  0  0  0  0  0  0  0  0  0
   10.9991  -19.1226   24.6428 O   0  0  0  0  0  0  0  0  0  0  0  0
    9.4351  -21.1495   29.5744 O   0  0  0  0  0  0  0  0  0  0  0  0
   11.5465  -18.4778   26.7334 O   0  0  0  0  0  0  0  0  0  0  0  0
  2  3  1  0
  2  1  1  6
  4  3  1  0
  4  5  1  0
  5  6  1  0
  6  7  1  0
  8  2  1  0
  9  8  2  0
 10  8  1  0
 11 10  1  0
 11 12  1  1
 13 12  1  0
 14 13  1  0
 15 14  1  0
 16 15  1  0
 17 11  1  0
 17 18  2  0
 19 17  1  0
 20 19  1  0
 20 21  1  1
 21 22  1  0
 22 26  1  0
 22 23  2  0
 24 20  1  0
 25 24  2  0
 27 24  1  0
M  END
$$$$
