KKD.pdb
     RDKit          3D

 27 26  0  0  1  0  0  0  0  0999 V2000
    8.8826  -15.9301   18.7999 N   0  0  0  0  0  0  0  0  0  0  0  0
    8.2363  -16.4477   19.9566 C   0  0  1  0  0  0  0  0  0  0  0  0
    8.4282  -17.9550   20.0632 C   0  0  0  0  0  0  0  0  0  0  0  0
    8.1421  -18.7070   18.8169 C   0  0  0  0  0  0  0  0  0  0  0  0
    8.3211  -20.1916   18.8784 C   0  0  0  0  0  0  0  0  0  0  0  0
    7.8396  -20.8277   17.5780 C   0  0  0  0  0  0  0  0  0  0  0  0
    8.0436  -22.2731   17.7788 N   0  0  0  0  0  0  0  0  0  0  0  0
    8.7927  -15.8008   21.2067 C   0  0  0  0  0  0  0  0  0  0  0  0
   10.0298  -15.6922   21.2989 O   0  0  0  0  0  0  0  0  0  0  0  0
    7.9209  -15.3498   22.2114 N   0  0  0  0  0  0  0  0  0  0  0  0
    8.3833  -14.7485   23.4472 C   0  0  1  0  0  0  0  0  0  0  0  0
    7.2644  -13.9774   24.1107 C   0  0  0  0  0  0  0  0  0  0  0  0
    7.5862  -13.3924   25.4322 C   0  0  0  0  0  0  0  0  0  0  0  0
    6.4487  -12.5632   25.9843 C   0  0  0  0  0  0  0  0  0  0  0  0
    6.7558  -11.8906   27.2888 C   0  0  0  0  0  0  0  0  0  0  0  0
    5.6511  -11.2238   27.8976 N   0  0  0  0  0  0  0  0  0  0  0  0
    8.9823  -15.7694   24.3003 C   0  0  0  0  0  0  0  0  0  0  0  0
    8.4216  -16.8494   24.6323 O   0  0  0  0  0  0  0  0  0  0  0  0
   10.2867  -15.5731   24.8101 N   0  0  0  0  0  0  0  0  0  0  0  0
   10.9549  -16.6365   25.6088 C   0  0  1  0  0  0  0  0  0  0  0  0
   12.4361  -16.3848   25.4361 C   0  0  0  0  0  0  0  0  0  0  0  0
   13.2077  -17.4666   24.8442 C   0  0  0  0  0  0  0  0  0  0  0  0
   14.3847  -17.3090   24.4958 O   0  0  0  0  0  0  0  0  0  0  0  0
   10.5974  -16.4820   27.0184 C   0  0  0  0  0  0  0  0  0  0  0  0
   11.4303  -15.9611   27.8164 O   0  0  0  0  0  0  0  0  0  0  0  0
   12.6452  -18.7386   24.6433 O   0  0  0  0  0  0  0  0  0  0  0  0
    9.3866  -16.8753   27.5442 O   0  0  0  0  0  0  0  0  0  0  0  0
  2  3  1  0
  2  1  1  6
  4  3  1  0
  4  5  1  0
  5  6  1  0
  6  7  1  0
  8  2  1  0
  9  8  2  0
 10  8  1  0
 11 10  1  0
 11 12  1  1
 13 12  1  0
 14 13  1  0
 15 14  1  0
 16 15  1  0
 17 11  1  0
 17 18  2  0
 19 17  1  0
 20 19  1  0
 20 21  1  1
 21 22  1  0
 22 26  1  0
 22 23  2  0
 24 20  1  0
 25 24  2  0
 27 24  1  0
M  END
$$$$
