KKD.pdb
     RDKit          3D

 27 26  0  0  1  0  0  0  0  0999 V2000
    7.1559  -15.5136   19.1288 N   0  0  0  0  0  0  0  0  0  0  0  0
    8.5038  -15.0587   19.1332 C   0  0  1  0  0  0  0  0  0  0  0  0
    8.6493  -13.7685   18.3370 C   0  0  0  0  0  0  0  0  0  0  0  0
    7.5553  -13.5096   17.3689 C   0  0  0  0  0  0  0  0  0  0  0  0
    7.5420  -14.3579   16.1359 C   0  0  0  0  0  0  0  0  0  0  0  0
    7.9549  -13.5243   14.9269 C   0  0  0  0  0  0  0  0  0  0  0  0
    7.9912  -14.4872   13.8121 N   0  0  0  0  0  0  0  0  0  0  0  0
    8.9716  -14.8066   20.5504 C   0  0  0  0  0  0  0  0  0  0  0  0
   10.1870  -14.6036   20.7297 O   0  0  0  0  0  0  0  0  0  0  0  0
    8.0454  -14.8091   21.6063 N   0  0  0  0  0  0  0  0  0  0  0  0
    8.4185  -14.5589   22.9851 C   0  0  1  0  0  0  0  0  0  0  0  0
    7.2559  -13.9640   23.7475 C   0  0  0  0  0  0  0  0  0  0  0  0
    7.5434  -13.5654   25.1441 C   0  0  0  0  0  0  0  0  0  0  0  0
    6.3271  -12.9972   25.8400 C   0  0  0  0  0  0  0  0  0  0  0  0
    6.5598  -12.6182   27.2719 C   0  0  0  0  0  0  0  0  0  0  0  0
    5.4017  -12.1650   27.9711 N   0  0  0  0  0  0  0  0  0  0  0  0
    8.9527  -15.7784   23.5820 C   0  0  0  0  0  0  0  0  0  0  0  0
    8.4485  -16.9266   23.4464 O   0  0  0  0  0  0  0  0  0  0  0  0
   10.1216  -15.7111   24.3750 N   0  0  0  0  0  0  0  0  0  0  0  0
   10.7607  -16.9537   24.8878 C   0  0  1  0  0  0  0  0  0  0  0  0
   12.2153  -16.8399   24.4898 C   0  0  0  0  0  0  0  0  0  0  0  0
   13.0797  -17.9391   24.8907 C   0  0  0  0  0  0  0  0  0  0  0  0
   13.7077  -17.9152   25.9568 O   0  0  0  0  0  0  0  0  0  0  0  0
   10.6577  -16.9865   26.3462 C   0  0  0  0  0  0  0  0  0  0  0  0
   10.2976  -15.9436   26.9666 O   0  0  0  0  0  0  0  0  0  0  0  0
   13.2370  -19.0762   24.0801 O   0  0  0  0  0  0  0  0  0  0  0  0
   10.9330  -18.1032   27.1039 O   0  0  0  0  0  0  0  0  0  0  0  0
  2  3  1  0
  2  1  1  1
  4  3  1  0
  4  5  1  0
  5  6  1  0
  6  7  1  0
  8  2  1  0
  9  8  2  0
 10  8  1  0
 11 10  1  0
 11 12  1  1
 13 12  1  0
 14 13  1  0
 15 14  1  0
 16 15  1  0
 17 11  1  0
 17 18  2  0
 19 17  1  0
 20 19  1  0
 20 21  1  1
 21 22  1  0
 22 26  1  0
 22 23  2  0
 24 20  1  0
 25 24  2  0
 27 24  1  0
M  END
$$$$
