KKD.pdb
     RDKit          3D

 27 26  0  0  1  0  0  0  0  0999 V2000
    9.7108  -19.1456   17.6169 N   0  0  0  0  0  0  0  0  0  0  0  0
   10.9445  -18.5244   17.2766 C   0  0  1  0  0  0  0  0  0  0  0  0
   10.8554  -17.8354   15.9211 C   0  0  0  0  0  0  0  0  0  0  0  0
    9.5429  -17.9680   15.2422 C   0  0  0  0  0  0  0  0  0  0  0  0
    9.4163  -17.3127   13.9027 C   0  0  0  0  0  0  0  0  0  0  0  0
    8.0145  -17.5372   13.3445 C   0  0  0  0  0  0  0  0  0  0  0  0
    7.9983  -16.7835   12.0785 N   0  0  0  0  0  0  0  0  0  0  0  0
   11.3218  -17.4932   18.3182 C   0  0  0  0  0  0  0  0  0  0  0  0
   12.3901  -16.8741   18.1573 O   0  0  0  0  0  0  0  0  0  0  0  0
   10.4782  -17.2650   19.4179 N   0  0  0  0  0  0  0  0  0  0  0  0
   10.7786  -16.2993   20.4570 C   0  0  1  0  0  0  0  0  0  0  0  0
    9.5126  -15.6210   20.9301 C   0  0  0  0  0  0  0  0  0  0  0  0
    9.0732  -14.4559   20.1291 C   0  0  0  0  0  0  0  0  0  0  0  0
    7.7964  -13.8441   20.6600 C   0  0  0  0  0  0  0  0  0  0  0  0
    7.3154  -12.6554   19.8828 C   0  0  0  0  0  0  0  0  0  0  0  0
    6.0835  -12.0969   20.3369 N   0  0  0  0  0  0  0  0  0  0  0  0
   11.5375  -16.9417   21.5249 C   0  0  0  0  0  0  0  0  0  0  0  0
   11.4035  -18.1447   21.8796 O   0  0  0  0  0  0  0  0  0  0  0  0
   12.5058  -16.1962   22.2365 N   0  0  0  0  0  0  0  0  0  0  0  0
   13.2511  -16.8101   23.3692 C   0  0  1  0  0  0  0  0  0  0  0  0
   14.4373  -15.9002   23.5975 C   0  0  0  0  0  0  0  0  0  0  0  0
   15.7331  -16.5504   23.7167 C   0  0  0  0  0  0  0  0  0  0  0  0
   15.8473  -17.7820   23.6761 O   0  0  0  0  0  0  0  0  0  0  0  0
   12.4052  -16.8133   24.5621 C   0  0  0  0  0  0  0  0  0  0  0  0
   12.7791  -17.4559   25.5864 O   0  0  0  0  0  0  0  0  0  0  0  0
   16.9115  -15.8032   23.8835 O   0  0  0  0  0  0  0  0  0  0  0  0
   11.2023  -16.1475   24.6441 O   0  0  0  0  0  0  0  0  0  0  0  0
  2  3  1  0
  2  1  1  1
  4  3  1  0
  4  5  1  0
  5  6  1  0
  6  7  1  0
  8  2  1  0
  9  8  2  0
 10  8  1  0
 11 10  1  0
 11 12  1  1
 13 12  1  0
 14 13  1  0
 15 14  1  0
 16 15  1  0
 17 11  1  0
 17 18  2  0
 19 17  1  0
 20 19  1  0
 20 21  1  1
 21 22  1  0
 22 26  1  0
 22 23  2  0
 24 20  1  0
 25 24  2  0
 27 24  1  0
M  END
$$$$
