KKD.pdb
     RDKit          3D

 27 26  0  0  1  0  0  0  0  0999 V2000
    7.4184  -15.8781   19.6273 N   0  0  0  0  0  0  0  0  0  0  0  0
    8.6539  -15.1733   19.6041 C   0  0  1  0  0  0  0  0  0  0  0  0
    8.5357  -13.8867   18.7975 C   0  0  0  0  0  0  0  0  0  0  0  0
    7.7076  -13.9963   17.5715 C   0  0  0  0  0  0  0  0  0  0  0  0
    8.3772  -13.6411   16.2811 C   0  0  0  0  0  0  0  0  0  0  0  0
    7.3519  -13.6210   15.1516 C   0  0  0  0  0  0  0  0  0  0  0  0
    8.1452  -13.3476   13.9404 N   0  0  0  0  0  0  0  0  0  0  0  0
    9.0886  -14.8228   21.0108 C   0  0  0  0  0  0  0  0  0  0  0  0
   10.2565  -14.4216   21.1712 O   0  0  0  0  0  0  0  0  0  0  0  0
    8.1858  -14.9567   22.0785 N   0  0  0  0  0  0  0  0  0  0  0  0
    8.5344  -14.6465   23.4515 C   0  0  1  0  0  0  0  0  0  0  0  0
    7.3690  -13.9901   24.1571 C   0  0  0  0  0  0  0  0  0  0  0  0
    7.6374  -13.5210   25.5356 C   0  0  0  0  0  0  0  0  0  0  0  0
    6.4207  -12.8890   26.1731 C   0  0  0  0  0  0  0  0  0  0  0  0
    6.6360  -12.4277   27.5834 C   0  0  0  0  0  0  0  0  0  0  0  0
    5.5260  -11.7517   28.1723 N   0  0  0  0  0  0  0  0  0  0  0  0
    9.0282  -15.8459   24.1196 C   0  0  0  0  0  0  0  0  0  0  0  0
    8.4073  -16.9421   24.1820 O   0  0  0  0  0  0  0  0  0  0  0  0
   10.2923  -15.8197   24.7529 N   0  0  0  0  0  0  0  0  0  0  0  0
   10.7914  -17.0089   25.4958 C   0  0  1  0  0  0  0  0  0  0  0  0
   12.2759  -17.0550   25.2112 C   0  0  0  0  0  0  0  0  0  0  0  0
   12.6593  -17.3812   23.8464 C   0  0  0  0  0  0  0  0  0  0  0  0
   12.2929  -18.4308   23.3026 O   0  0  0  0  0  0  0  0  0  0  0  0
   10.5778  -16.8108   26.9290 C   0  0  0  0  0  0  0  0  0  0  0  0
   10.9005  -17.7297   27.7374 O   0  0  0  0  0  0  0  0  0  0  0  0
   13.4645  -16.5143   23.0881 O   0  0  0  0  0  0  0  0  0  0  0  0
   10.0368  -15.6640   27.4667 O   0  0  0  0  0  0  0  0  0  0  0  0
  2  3  1  0
  2  1  1  1
  4  3  1  0
  4  5  1  0
  5  6  1  0
  6  7  1  0
  8  2  1  0
  9  8  2  0
 10  8  1  0
 11 10  1  0
 11 12  1  1
 13 12  1  0
 14 13  1  0
 15 14  1  0
 16 15  1  0
 17 11  1  0
 17 18  2  0
 19 17  1  0
 20 19  1  0
 20 21  1  1
 21 22  1  0
 22 26  1  0
 22 23  2  0
 24 20  1  0
 25 24  2  0
 27 24  1  0
M  END
$$$$
