VMW.pdb
     RDKit          3D

 30 31  0  0  1  0  0  0  0  0999 V2000
    9.0353  -21.2555   18.4375 C   0  0  0  0  0  0  0  0  0  0  0  0
    9.3308  -19.8147   18.7204 C   0  0  1  0  0  0  0  0  0  0  0  0
    8.2625  -18.9522   18.0650 C   0  0  0  0  0  0  0  0  0  0  0  0
    9.3481  -19.5985   20.2236 C   0  0  2  0  0  0  0  0  0  0  0  0
    8.0431  -19.8563   20.8053 N   0  0  0  0  0  0  0  0  0  0  0  0
    9.6612  -18.1777   20.4535 C   0  0  0  0  0  0  0  0  0  0  0  0
   10.7715  -17.6980   20.1035 O   0  0  0  0  0  0  0  0  0  0  0  0
    6.1045  -12.8592   19.7973 C   0  0  0  0  0  0  0  0  0  0  0  0
    7.8349  -12.3419   19.8805 S   0  0  0  0  0  0  0  0  0  0  0  0
    8.7465  -13.5421   20.8875 C   0  0  0  0  0  0  0  0  0  0  0  0
    8.2118  -14.9397   20.6455 C   0  0  0  0  0  0  0  0  0  0  0  0
    9.1022  -15.9135   21.3986 C   0  0  2  0  0  0  0  0  0  0  0  0
    8.7407  -17.2781   21.0746 N   0  0  0  0  0  0  0  0  0  0  0  0
    9.0256  -15.6823   22.8641 C   0  0  0  0  0  0  0  0  0  0  0  0
    8.0521  -15.0276   23.3519 O   0  0  0  0  0  0  0  0  0  0  0  0
   10.0571  -16.2073   23.6847 N   0  0  0  0  0  0  0  0  0  0  0  0
   10.2160  -15.7972   25.0615 C   0  0  1  0  0  0  0  0  0  0  0  0
    9.0620  -16.3441   25.8721 C   0  0  0  0  0  0  0  0  0  0  0  0
    7.8314  -15.5588   25.7089 C   0  0  0  0  0  0  0  0  0  0  0  0
    6.6419  -15.9679   25.1233 C   0  0  0  0  0  0  0  0  0  0  0  0
    5.7813  -14.9434   25.1823 N   0  0  0  0  0  0  0  0  0  0  0  0
    6.3236  -13.8755   25.7716 C   0  0  0  0  0  0  0  0  0  0  0  0
    5.8495  -12.6150   26.0594 C   0  0  0  0  0  0  0  0  0  0  0  0
    6.6810  -11.7211   26.6918 C   0  0  0  0  0  0  0  0  0  0  0  0
    7.9620  -12.1065   27.0206 C   0  0  0  0  0  0  0  0  0  0  0  0
    8.4440  -13.3640   26.7368 C   0  0  0  0  0  0  0  0  0  0  0  0
    7.6181  -14.2554   26.1073 C   0  0  0  0  0  0  0  0  0  0  0  0
   11.5265  -16.2613   25.5776 C   0  0  0  0  0  0  0  0  0  0  0  0
   11.8527  -15.9816   26.7577 O   0  0  0  0  0  0  0  0  0  0  0  0
   12.3741  -16.9903   24.7696 O   0  0  0  0  0  0  0  0  0  0  0  0
  2  1  1  1
  3  2  1  0
  4  6  1  0
  4  2  1  0
  4  5  1  6
  6  7  2  0
  9  8  1  0
 10  9  1  0
 11 10  1  0
 12 11  1  6
 12 14  1  0
 13 12  1  0
 13  6  1  0
 14 15  2  0
 16 14  1  0
 16 17  1  0
 17 28  1  0
 17 18  1  1
 19 27  1  0
 19 18  1  0
 20 19  2  0
 21 20  1  0
 21 22  1  0
 22 27  2  0
 23 22  1  0
 23 24  2  0
 24 25  1  0
 25 26  2  0
 27 26  1  0
 28 29  2  0
 28 30  1  0
M  END
$$$$
