VMW.pdb
     RDKit          3D

 30 31  0  0  1  0  0  0  0  0999 V2000
   10.0795  -20.1459   20.8755 C   0  0  0  0  0  0  0  0  0  0  0  0
   10.0983  -19.2201   19.6982 C   0  0  1  0  0  0  0  0  0  0  0  0
    9.9499  -20.0373   18.4234 C   0  0  0  0  0  0  0  0  0  0  0  0
    8.9599  -18.2238   19.8332 C   0  0  2  0  0  0  0  0  0  0  0  0
    8.9345  -17.3018   18.7121 N   0  0  0  0  0  0  0  0  0  0  0  0
    9.2175  -17.4337   21.0492 C   0  0  0  0  0  0  0  0  0  0  0  0
   10.2325  -16.6933   21.1333 O   0  0  0  0  0  0  0  0  0  0  0  0
    6.2137  -13.1404   25.8803 C   0  0  0  0  0  0  0  0  0  0  0  0
    6.2276  -14.9274   26.1547 S   0  0  0  0  0  0  0  0  0  0  0  0
    7.7137  -15.6170   25.3793 C   0  0  0  0  0  0  0  0  0  0  0  0
    7.3452  -16.3500   24.1046 C   0  0  0  0  0  0  0  0  0  0  0  0
    8.6353  -16.7122   23.3886 C   0  0  2  0  0  0  0  0  0  0  0  0
    8.3472  -17.4604   22.1824 N   0  0  0  0  0  0  0  0  0  0  0  0
    9.5428  -17.4795   24.2801 C   0  0  0  0  0  0  0  0  0  0  0  0
    9.3626  -18.7264   24.4455 O   0  0  0  0  0  0  0  0  0  0  0  0
   10.5971  -16.7859   24.9282 N   0  0  0  0  0  0  0  0  0  0  0  0
   11.5681  -17.4736   25.7487 C   0  0  1  0  0  0  0  0  0  0  0  0
   12.3991  -16.4484   26.4878 C   0  0  0  0  0  0  0  0  0  0  0  0
   11.6571  -15.7909   27.5716 C   0  0  0  0  0  0  0  0  0  0  0  0
   11.6124  -16.1613   28.9081 C   0  0  0  0  0  0  0  0  0  0  0  0
   10.8191  -15.2929   29.5487 N   0  0  0  0  0  0  0  0  0  0  0  0
   10.3317  -14.3655   28.7216 C   0  0  0  0  0  0  0  0  0  0  0  0
    9.4940  -13.2874   28.9023 C   0  0  0  0  0  0  0  0  0  0  0  0
    9.1755  -12.5048   27.8177 C   0  0  0  0  0  0  0  0  0  0  0  0
    9.6996  -12.8167   26.5826 C   0  0  0  0  0  0  0  0  0  0  0  0
   10.5374  -13.8920   26.3929 C   0  0  0  0  0  0  0  0  0  0  0  0
   10.8558  -14.6725   27.4711 C   0  0  0  0  0  0  0  0  0  0  0  0
   10.8772  -18.4019   26.6761 C   0  0  0  0  0  0  0  0  0  0  0  0
    9.6549  -18.2344   26.9108 O   0  0  0  0  0  0  0  0  0  0  0  0
   11.5708  -19.4347   27.2719 O   0  0  0  0  0  0  0  0  0  0  0  0
  2  1  1  1
  3  2  1  0
  4  6  1  0
  4  2  1  0
  4  5  1  6
  6  7  2  0
  9  8  1  0
 10  9  1  0
 11 10  1  0
 12 11  1  1
 12 14  1  0
 13 12  1  0
 13  6  1  0
 14 15  2  0
 16 14  1  0
 16 17  1  0
 17 28  1  0
 17 18  1  1
 19 27  1  0
 19 18  1  0
 20 19  2  0
 21 20  1  0
 21 22  1  0
 22 27  2  0
 23 22  1  0
 23 24  2  0
 24 25  1  0
 25 26  2  0
 27 26  1  0
 28 29  2  0
 28 30  1  0
M  END
$$$$
