VMW.pdb
     RDKit          3D

 30 31  0  0  1  0  0  0  0  0999 V2000
    6.6997  -20.8459   19.6719 C   0  0  0  0  0  0  0  0  0  0  0  0
    7.3575  -19.5014   19.7260 C   0  0  1  0  0  0  0  0  0  0  0  0
    6.3088  -18.4269   19.4798 C   0  0  0  0  0  0  0  0  0  0  0  0
    8.0026  -19.3201   21.0890 C   0  0  2  0  0  0  0  0  0  0  0  0
    7.0099  -19.3561   22.1478 N   0  0  0  0  0  0  0  0  0  0  0  0
    8.6155  -17.9808   21.1036 C   0  0  0  0  0  0  0  0  0  0  0  0
    9.5429  -17.6881   20.3038 O   0  0  0  0  0  0  0  0  0  0  0  0
    6.6359  -14.1734   26.6388 C   0  0  0  0  0  0  0  0  0  0  0  0
    7.1446  -13.6015   25.0009 S   0  0  0  0  0  0  0  0  0  0  0  0
    7.4352  -15.0497   23.9504 C   0  0  0  0  0  0  0  0  0  0  0  0
    7.8278  -14.6110   22.5534 C   0  0  0  0  0  0  0  0  0  0  0  0
    8.8024  -15.6376   22.0019 C   0  0  2  0  0  0  0  0  0  0  0  0
    8.2010  -16.9552   22.0084 N   0  0  0  0  0  0  0  0  0  0  0  0
   10.0727  -15.6348   22.7722 C   0  0  0  0  0  0  0  0  0  0  0  0
   10.8338  -14.6181   22.7348 O   0  0  0  0  0  0  0  0  0  0  0  0
   10.4009  -16.7843   23.5363 N   0  0  0  0  0  0  0  0  0  0  0  0
   11.6588  -16.8961   24.2393 C   0  0  1  0  0  0  0  0  0  0  0  0
   11.8492  -15.6679   25.1015 C   0  0  0  0  0  0  0  0  0  0  0  0
   11.3515  -15.8532   26.4710 C   0  0  0  0  0  0  0  0  0  0  0  0
   11.4014  -17.0093   27.2368 C   0  0  0  0  0  0  0  0  0  0  0  0
   10.8366  -16.7420   28.4213 N   0  0  0  0  0  0  0  0  0  0  0  0
   10.4128  -15.4783   28.4932 C   0  0  0  0  0  0  0  0  0  0  0  0
    9.7855  -14.7487   29.4784 C   0  0  0  0  0  0  0  0  0  0  0  0
    9.4746  -13.4319   29.2336 C   0  0  0  0  0  0  0  0  0  0  0  0
    9.7967  -12.8773   28.0145 C   0  0  0  0  0  0  0  0  0  0  0  0
   10.4236  -13.5990   27.0244 C   0  0  0  0  0  0  0  0  0  0  0  0
   10.7340  -14.9098   27.2658 C   0  0  0  0  0  0  0  0  0  0  0  0
   11.6803  -18.1448   25.0388 C   0  0  0  0  0  0  0  0  0  0  0  0
   10.6130  -18.7874   25.1978 O   0  0  0  0  0  0  0  0  0  0  0  0
   12.8585  -18.5922   25.5994 O   0  0  0  0  0  0  0  0  0  0  0  0
  2  1  1  1
  3  2  1  0
  4  6  1  0
  4  2  1  0
  4  5  1  1
  6  7  2  0
  9  8  1  0
 10  9  1  0
 11 10  1  0
 12 11  1  1
 12 14  1  0
 13 12  1  0
 13  6  1  0
 14 15  2  0
 16 14  1  0
 16 17  1  0
 17 28  1  0
 17 18  1  1
 19 27  1  0
 19 18  1  0
 20 19  2  0
 21 20  1  0
 21 22  1  0
 22 27  2  0
 23 22  1  0
 23 24  2  0
 24 25  1  0
 25 26  2  0
 27 26  1  0
 28 29  2  0
 28 30  1  0
M  END
$$$$
