VMW.pdb
     RDKit          3D

 30 31  0  0  1  0  0  0  0  0999 V2000
   13.3769  -18.9871   17.6996 C   0  0  0  0  0  0  0  0  0  0  0  0
   12.8857  -17.9309   18.6414 C   0  0  1  0  0  0  0  0  0  0  0  0
   12.1254  -16.8769   17.8502 C   0  0  0  0  0  0  0  0  0  0  0  0
   11.9857  -18.5745   19.6817 C   0  0  2  0  0  0  0  0  0  0  0  0
   10.7750  -19.0983   19.0756 N   0  0  0  0  0  0  0  0  0  0  0  0
   11.5856  -17.5151   20.6236 C   0  0  0  0  0  0  0  0  0  0  0  0
   12.4514  -16.8106   21.2063 O   0  0  0  0  0  0  0  0  0  0  0  0
    6.8741  -12.5796   20.4230 C   0  0  0  0  0  0  0  0  0  0  0  0
    6.9250  -14.2905   19.8407 S   0  0  0  0  0  0  0  0  0  0  0  0
    8.5383  -14.9966   20.2699 C   0  0  0  0  0  0  0  0  0  0  0  0
    8.4637  -15.6888   21.6164 C   0  0  0  0  0  0  0  0  0  0  0  0
    9.8403  -16.2528   21.9247 C   0  0  2  0  0  0  0  0  0  0  0  0
   10.2179  -17.2301   20.9247 N   0  0  0  0  0  0  0  0  0  0  0  0
    9.8803  -16.8488   23.2849 C   0  0  0  0  0  0  0  0  0  0  0  0
    9.9931  -18.1069   23.4219 O   0  0  0  0  0  0  0  0  0  0  0  0
    9.7896  -15.9818   24.4043 N   0  0  0  0  0  0  0  0  0  0  0  0
    9.8024  -16.4856   25.7589 C   0  0  1  0  0  0  0  0  0  0  0  0
    9.4033  -15.3708   26.7001 C   0  0  0  0  0  0  0  0  0  0  0  0
    8.0715  -14.8269   26.4032 C   0  0  0  0  0  0  0  0  0  0  0  0
    6.9425  -15.5303   26.0084 C   0  0  0  0  0  0  0  0  0  0  0  0
    5.9468  -14.6500   25.8437 N   0  0  0  0  0  0  0  0  0  0  0  0
    6.3419  -13.4020   26.1045 C   0  0  0  0  0  0  0  0  0  0  0  0
    5.6990  -12.1844   26.0782 C   0  0  0  0  0  0  0  0  0  0  0  0
    6.4058  -11.0529   26.4106 C   0  0  0  0  0  0  0  0  0  0  0  0
    7.7336  -11.1644   26.7602 C   0  0  0  0  0  0  0  0  0  0  0  0
    8.3839  -12.3769   26.7891 C   0  0  0  0  0  0  0  0  0  0  0  0
    7.6824  -13.5045   26.4585 C   0  0  0  0  0  0  0  0  0  0  0  0
    8.8991  -17.6564   25.8698 C   0  0  0  0  0  0  0  0  0  0  0  0
    8.0211  -17.8368   24.9901 O   0  0  0  0  0  0  0  0  0  0  0  0
    9.0238  -18.5340   26.9267 O   0  0  0  0  0  0  0  0  0  0  0  0
  2  1  1  6
  3  2  1  0
  4  6  1  0
  4  2  1  0
  4  5  1  6
  6  7  2  0
  9  8  1  0
 10  9  1  0
 11 10  1  0
 12 11  1  6
 12 14  1  0
 13 12  1  0
 13  6  1  0
 14 15  2  0
 16 14  1  0
 16 17  1  0
 17 28  1  0
 17 18  1  1
 19 27  1  0
 19 18  1  0
 20 19  2  0
 21 20  1  0
 21 22  1  0
 22 27  2  0
 23 22  1  0
 23 24  2  0
 24 25  1  0
 25 26  2  0
 27 26  1  0
 28 29  2  0
 28 30  1  0
M  END
$$$$
