VMW.pdb
     RDKit          3D

 30 31  0  0  1  0  0  0  0  0999 V2000
    7.7073  -18.7616   20.5741 C   0  0  0  0  0  0  0  0  0  0  0  0
    8.6885  -18.2825   19.5487 C   0  0  1  0  0  0  0  0  0  0  0  0
    8.4170  -18.9958   18.2326 C   0  0  0  0  0  0  0  0  0  0  0  0
    8.5405  -16.7798   19.3857 C   0  0  2  0  0  0  0  0  0  0  0  0
    9.4555  -16.2688   18.3811 N   0  0  0  0  0  0  0  0  0  0  0  0
    8.9099  -16.1659   20.6727 C   0  0  0  0  0  0  0  0  0  0  0  0
   10.1173  -15.9627   20.9664 O   0  0  0  0  0  0  0  0  0  0  0  0
    6.9290  -11.9973   27.0320 C   0  0  0  0  0  0  0  0  0  0  0  0
    6.3463  -12.6649   25.4561 S   0  0  0  0  0  0  0  0  0  0  0  0
    7.6559  -13.7004   24.7503 C   0  0  0  0  0  0  0  0  0  0  0  0
    7.2026  -14.2860   23.4276 C   0  0  0  0  0  0  0  0  0  0  0  0
    8.3162  -15.1810   22.9110 C   0  0  2  0  0  0  0  0  0  0  0  0
    7.9382  -15.7722   21.6439 N   0  0  0  0  0  0  0  0  0  0  0  0
    8.6578  -16.2335   23.9021 C   0  0  0  0  0  0  0  0  0  0  0  0
    7.9922  -16.3281   24.9803 O   0  0  0  0  0  0  0  0  0  0  0  0
    9.7324  -17.1125   23.6095 N   0  0  0  0  0  0  0  0  0  0  0  0
   11.0557  -16.9020   24.1512 C   0  0  1  0  0  0  0  0  0  0  0  0
   11.0094  -15.7424   25.1213 C   0  0  0  0  0  0  0  0  0  0  0  0
   10.7307  -16.1664   26.4997 C   0  0  0  0  0  0  0  0  0  0  0  0
   10.4143  -17.4432   26.9412 C   0  0  0  0  0  0  0  0  0  0  0  0
   10.2375  -17.3872   28.2675 N   0  0  0  0  0  0  0  0  0  0  0  0
   10.4168  -16.1512   28.7385 C   0  0  0  0  0  0  0  0  0  0  0  0
   10.3477  -15.6036   30.0002 C   0  0  0  0  0  0  0  0  0  0  0  0
   10.5938  -14.2599   30.1554 C   0  0  0  0  0  0  0  0  0  0  0  0
   10.9019  -13.4977   29.0500 C   0  0  0  0  0  0  0  0  0  0  0  0
   10.9731  -14.0365   27.7857 C   0  0  0  0  0  0  0  0  0  0  0  0
   10.7285  -15.3739   27.6288 C   0  0  0  0  0  0  0  0  0  0  0  0
   11.5404  -18.1465   24.7958 C   0  0  0  0  0  0  0  0  0  0  0  0
   12.7053  -18.1789   25.2638 O   0  0  0  0  0  0  0  0  0  0  0  0
   10.7202  -19.2524   24.8785 O   0  0  0  0  0  0  0  0  0  0  0  0
  2  1  1  1
  3  2  1  0
  4  6  1  0
  4  2  1  0
  4  5  1  6
  6  7  2  0
  9  8  1  0
 10  9  1  0
 11 10  1  0
 12 11  1  1
 12 14  1  0
 13 12  1  0
 13  6  1  0
 14 15  2  0
 16 14  1  0
 16 17  1  0
 17 28  1  0
 17 18  1  1
 19 27  1  0
 19 18  1  0
 20 19  2  0
 21 20  1  0
 21 22  1  0
 22 27  2  0
 23 22  1  0
 23 24  2  0
 24 25  1  0
 25 26  2  0
 27 26  1  0
 28 29  2  0
 28 30  1  0
M  END
$$$$
