VMW.pdb
     RDKit          3D

 30 31  0  0  1  0  0  0  0  0999 V2000
    7.6741  -19.8571   24.1505 C   0  0  0  0  0  0  0  0  0  0  0  0
    8.0042  -20.5820   22.8820 C   0  0  1  0  0  0  0  0  0  0  0  0
    7.4283  -21.9886   22.9514 C   0  0  0  0  0  0  0  0  0  0  0  0
    7.4169  -19.8184   21.7079 C   0  0  2  0  0  0  0  0  0  0  0  0
    7.5695  -20.5617   20.4701 N   0  0  0  0  0  0  0  0  0  0  0  0
    8.1889  -18.5714   21.5723 C   0  0  0  0  0  0  0  0  0  0  0  0
    9.3533  -18.5835   21.0932 O   0  0  0  0  0  0  0  0  0  0  0  0
    6.8722  -12.7835   18.6812 C   0  0  0  0  0  0  0  0  0  0  0  0
    7.2248  -12.4020   20.4129 S   0  0  0  0  0  0  0  0  0  0  0  0
    8.2797  -13.7125   21.0876 C   0  0  0  0  0  0  0  0  0  0  0  0
    7.4494  -14.9413   21.4017 C   0  0  0  0  0  0  0  0  0  0  0  0
    8.4051  -16.0704   21.7480 C   0  0  2  0  0  0  0  0  0  0  0  0
    7.6712  -17.2995   21.9683 N   0  0  0  0  0  0  0  0  0  0  0  0
    9.2272  -15.7276   22.9369 C   0  0  0  0  0  0  0  0  0  0  0  0
    9.9541  -14.6856   22.9251 O   0  0  0  0  0  0  0  0  0  0  0  0
    9.1743  -16.5873   24.0644 N   0  0  0  0  0  0  0  0  0  0  0  0
    9.9743  -16.3448   25.2434 C   0  0  1  0  0  0  0  0  0  0  0  0
    9.0765  -16.3780   26.4603 C   0  0  0  0  0  0  0  0  0  0  0  0
    7.9057  -15.5013   26.3258 C   0  0  0  0  0  0  0  0  0  0  0  0
    6.6179  -15.8651   25.9588 C   0  0  0  0  0  0  0  0  0  0  0  0
    5.8625  -14.7593   25.9603 N   0  0  0  0  0  0  0  0  0  0  0  0
    6.5671  -13.6795   26.3060 C   0  0  0  0  0  0  0  0  0  0  0  0
    6.2438  -12.3485   26.4484 C   0  0  0  0  0  0  0  0  0  0  0  0
    7.2252  -11.4638   26.8288 C   0  0  0  0  0  0  0  0  0  0  0  0
    8.5018  -11.9284   27.0570 C   0  0  0  0  0  0  0  0  0  0  0  0
    8.8336  -13.2567   26.9171 C   0  0  0  0  0  0  0  0  0  0  0  0
    7.8584  -14.1391   26.5386 C   0  0  0  0  0  0  0  0  0  0  0  0
   11.0631  -17.3479   25.3288 C   0  0  0  0  0  0  0  0  0  0  0  0
   11.1124  -18.2707   24.4783 O   0  0  0  0  0  0  0  0  0  0  0  0
   12.0079  -17.2660   26.3305 O   0  0  0  0  0  0  0  0  0  0  0  0
  2  1  1  1
  3  2  1  0
  4  6  1  0
  4  2  1  0
  4  5  1  6
  6  7  2  0
  9  8  1  0
 10  9  1  0
 11 10  1  0
 12 11  1  1
 12 14  1  0
 13 12  1  0
 13  6  1  0
 14 15  2  0
 16 14  1  0
 16 17  1  0
 17 28  1  0
 17 18  1  1
 19 27  1  0
 19 18  1  0
 20 19  2  0
 21 20  1  0
 21 22  1  0
 22 27  2  0
 23 22  1  0
 23 24  2  0
 24 25  1  0
 25 26  2  0
 27 26  1  0
 28 29  2  0
 28 30  1  0
M  END
$$$$
