KCN.pdb
     RDKit          3D

 24 23  0  0  1  0  0  0  0  0999 V2000
    7.9670  -12.7340   19.9093 N   0  0  0  0  0  0  0  0  0  0  0  0
    7.0715  -13.4256   20.8686 C   0  0  1  0  0  0  0  0  0  0  0  0
    6.7744  -14.7420   20.1850 C   0  0  0  0  0  0  0  0  0  0  0  0
    7.9457  -15.4187   19.5701 C   0  0  0  0  0  0  0  0  0  0  0  0
    7.5185  -16.7432   18.9484 C   0  0  0  0  0  0  0  0  0  0  0  0
    8.6025  -17.3625   18.1046 C   0  0  0  0  0  0  0  0  0  0  0  0
    8.0360  -18.6222   17.5931 N   0  0  0  0  0  0  0  0  0  0  0  0
    7.8314  -13.5560   22.1270 C   0  0  0  0  0  0  0  0  0  0  0  0
    9.0767  -13.8430   22.0838 O   0  0  0  0  0  0  0  0  0  0  0  0
    7.3181  -13.3908   23.4355 N   0  0  0  0  0  0  0  0  0  0  0  0
    8.0876  -13.6925   24.6291 C   0  0  1  0  0  0  0  0  0  0  0  0
    7.2693  -13.1587   25.7984 C   0  0  0  0  0  0  0  0  0  0  0  0
    5.5101  -13.0778   25.3672 S   0  0  0  0  0  0  0  0  0  0  0  0
    8.3148  -15.1305   24.8101 C   0  0  0  0  0  0  0  0  0  0  0  0
    7.4589  -15.9806   24.4339 O   0  0  0  0  0  0  0  0  0  0  0  0
   11.1132  -19.7116   25.5198 N   0  0  0  0  0  0  0  0  0  0  0  0
   11.5484  -18.7042   24.6291 C   0  0  0  0  0  0  0  0  0  0  0  0
   12.4745  -19.0738   23.8214 O   0  0  0  0  0  0  0  0  0  0  0  0
   11.0521  -17.3237   24.5501 C   0  0  0  0  0  0  0  0  0  0  0  0
    9.8760  -17.0080   25.4316 C   0  0  2  0  0  0  0  0  0  0  0  0
    9.5152  -15.5904   25.4181 N   0  0  0  0  0  0  0  0  0  0  0  0
   10.2082  -17.3862   26.8236 C   0  0  0  0  0  0  0  0  0  0  0  0
   10.7075  -18.5172   27.0916 O   0  0  0  0  0  0  0  0  0  0  0  0
    9.9601  -16.4649   27.8577 O   0  0  0  0  0  0  0  0  0  0  0  0
  2  1  1  6
  3  2  1  0
  4  3  1  0
  5  4  1  0
  6  5  1  0
  7  6  1  0
  8  2  1  0
  8  9  2  0
 10  8  1  0
 11 10  1  0
 11 12  1  1
 13 12  1  0
 14 11  1  0
 15 14  2  0
 16 17  1  0
 17 19  1  0
 17 18  2  0
 20 19  1  6
 20 22  1  0
 20 21  1  0
 21 14  1  0
 22 24  1  0
 23 22  2  0
M  END
$$$$
