KCN.pdb
     RDKit          3D

 24 23  0  0  1  0  0  0  0  0999 V2000
    8.6897  -12.3936   19.5586 N   0  0  0  0  0  0  0  0  0  0  0  0
    7.8831  -13.4534   20.2118 C   0  0  1  0  0  0  0  0  0  0  0  0
    8.0534  -14.6417   19.2913 C   0  0  0  0  0  0  0  0  0  0  0  0
    7.4951  -14.4736   17.9246 C   0  0  0  0  0  0  0  0  0  0  0  0
    7.8012  -15.7041   17.0788 C   0  0  0  0  0  0  0  0  0  0  0  0
    7.0945  -15.6818   15.7481 C   0  0  0  0  0  0  0  0  0  0  0  0
    7.4469  -16.9519   15.0906 N   0  0  0  0  0  0  0  0  0  0  0  0
    8.4586  -13.6440   21.5575 C   0  0  0  0  0  0  0  0  0  0  0  0
    9.7140  -13.8525   21.6817 O   0  0  0  0  0  0  0  0  0  0  0  0
    7.7494  -13.6195   22.7820 N   0  0  0  0  0  0  0  0  0  0  0  0
    8.3361  -14.0384   24.0422 C   0  0  1  0  0  0  0  0  0  0  0  0
    7.6088  -13.2485   25.1233 C   0  0  0  0  0  0  0  0  0  0  0  0
    5.8304  -13.6000   25.0890 S   0  0  0  0  0  0  0  0  0  0  0  0
    8.1727  -15.4742   24.2953 C   0  0  0  0  0  0  0  0  0  0  0  0
    7.3497  -16.1662   23.6316 O   0  0  0  0  0  0  0  0  0  0  0  0
   13.0024  -18.3769   23.8565 N   0  0  0  0  0  0  0  0  0  0  0  0
   11.6075  -18.2750   23.6535 C   0  0  0  0  0  0  0  0  0  0  0  0
   11.0641  -19.3288   23.1628 O   0  0  0  0  0  0  0  0  0  0  0  0
   10.7575  -17.1124   23.9443 C   0  0  0  0  0  0  0  0  0  0  0  0
    9.7307  -17.3159   25.0231 C   0  0  2  0  0  0  0  0  0  0  0  0
    8.9480  -16.1120   25.3025 N   0  0  0  0  0  0  0  0  0  0  0  0
   10.4213  -17.7166   26.2696 C   0  0  0  0  0  0  0  0  0  0  0  0
   10.3526  -18.9035   26.7018 O   0  0  0  0  0  0  0  0  0  0  0  0
   11.1637  -16.7532   26.9771 O   0  0  0  0  0  0  0  0  0  0  0  0
  2  1  1  6
  3  2  1  0
  4  3  1  0
  5  4  1  0
  6  5  1  0
  7  6  1  0
  8  2  1  0
  8  9  2  0
 10  8  1  0
 11 10  1  0
 11 12  1  1
 13 12  1  0
 14 11  1  0
 15 14  2  0
 16 17  1  0
 17 19  1  0
 17 18  2  0
 20 19  1  6
 20 22  1  0
 20 21  1  0
 21 14  1  0
 22 24  1  0
 23 22  2  0
M  END
$$$$
