KCN.pdb
     RDKit          3D

 24 23  0  0  1  0  0  0  0  0999 V2000
    8.2871  -12.4667   18.8848 N   0  0  0  0  0  0  0  0  0  0  0  0
    7.9160  -13.8351   19.3213 C   0  0  1  0  0  0  0  0  0  0  0  0
    8.5413  -14.7215   18.2669 C   0  0  0  0  0  0  0  0  0  0  0  0
    7.8483  -14.7337   16.9526 C   0  0  0  0  0  0  0  0  0  0  0  0
    8.4131  -15.8431   16.0730 C   0  0  0  0  0  0  0  0  0  0  0  0
    7.6030  -16.0573   14.8207 C   0  0  0  0  0  0  0  0  0  0  0  0
    8.2974  -17.1220   14.0765 N   0  0  0  0  0  0  0  0  0  0  0  0
    8.4846  -14.0092   20.6721 C   0  0  0  0  0  0  0  0  0  0  0  0
    9.7249  -13.7688   20.8689 O   0  0  0  0  0  0  0  0  0  0  0  0
    7.7832  -14.4288   21.8275 N   0  0  0  0  0  0  0  0  0  0  0  0
    8.4022  -14.5170   23.1378 C   0  0  1  0  0  0  0  0  0  0  0  0
    7.2755  -14.3214   24.1448 C   0  0  0  0  0  0  0  0  0  0  0  0
    7.0287  -12.5604   24.4986 S   0  0  0  0  0  0  0  0  0  0  0  0
    9.0477  -15.8129   23.3750 C   0  0  0  0  0  0  0  0  0  0  0  0
    8.4502  -16.8974   23.1229 O   0  0  0  0  0  0  0  0  0  0  0  0
   13.7348  -15.0760   22.8018 N   0  0  0  0  0  0  0  0  0  0  0  0
   13.1296  -16.3507   22.8800 C   0  0  0  0  0  0  0  0  0  0  0  0
   13.0872  -16.9874   21.7667 O   0  0  0  0  0  0  0  0  0  0  0  0
   12.5665  -16.9865   24.0789 C   0  0  0  0  0  0  0  0  0  0  0  0
   11.0705  -17.1339   24.0904 C   0  0  2  0  0  0  0  0  0  0  0  0
   10.3692  -15.8646   23.8976 N   0  0  0  0  0  0  0  0  0  0  0  0
   10.6566  -17.6960   25.3957 C   0  0  0  0  0  0  0  0  0  0  0  0
    9.8533  -17.0740   26.1494 O   0  0  0  0  0  0  0  0  0  0  0  0
   11.1713  -18.9433   25.7945 O   0  0  0  0  0  0  0  0  0  0  0  0
  2  1  1  6
  3  2  1  0
  4  3  1  0
  5  4  1  0
  6  5  1  0
  7  6  1  0
  8  2  1  0
  8  9  2  0
 10  8  1  0
 11 10  1  0
 11 12  1  1
 13 12  1  0
 14 11  1  0
 15 14  2  0
 16 17  1  0
 17 19  1  0
 17 18  2  0
 20 19  1  1
 20 22  1  0
 20 21  1  0
 21 14  1  0
 22 24  1  0
 23 22  2  0
M  END
$$$$
