IKS.pdb
     RDKit          3D

 24 23  0  0  1  0  0  0  0  0999 V2000
   14.5952  -24.6478    0.1457 C   0  0  0  0  0  0  0  0  0  0  0  0
   14.9758  -23.9559   -1.1195 C   0  0  0  0  0  0  0  0  0  0  0  0
   15.2529  -24.9101   -2.2592 C   0  0  2  0  0  0  0  0  0  0  0  0
   16.4633  -25.7405   -1.8901 C   0  0  0  0  0  0  0  0  0  0  0  0
   15.5705  -24.1753   -3.5412 C   0  0  2  0  0  0  0  0  0  0  0  0
   14.4568  -23.3352   -3.9569 N   0  0  0  0  0  0  0  0  0  0  0  0
   15.8822  -25.1756   -4.5936 C   0  0  0  0  0  0  0  0  0  0  0  0
   15.0034  -25.9734   -4.9960 O   0  0  0  0  0  0  0  0  0  0  0  0
   17.1532  -25.2543   -5.1595 N   0  0  0  0  0  0  0  0  0  0  0  0
   17.5303  -26.1794   -6.2498 C   0  0  1  0  0  0  0  0  0  0  0  0
   18.5783  -25.5368   -7.0929 C   0  0  0  0  0  0  0  0  0  0  0  0
   17.9976  -24.7449   -8.2141 C   0  0  0  0  0  0  0  0  0  0  0  0
   19.0642  -23.9701   -8.9777 C   0  0  0  0  0  0  0  0  0  0  0  0
   18.3820  -23.3114  -10.1773 C   0  0  0  0  0  0  0  0  0  0  0  0
   19.3101  -22.4934  -10.9128 N   0  0  0  0  0  0  0  0  0  0  0  0
   17.9174  -27.4136   -5.5642 C   0  0  0  0  0  0  0  0  0  0  0  0
   18.7459  -27.3515   -4.6214 O   0  0  0  0  0  0  0  0  0  0  0  0
   15.7191  -30.8516   -5.5445 O   0  0  0  0  0  0  0  0  0  0  0  0
   16.6089  -30.4858   -4.5336 C   0  0  0  0  0  0  0  0  0  0  0  0
   17.8475  -29.8561   -5.0935 C   0  0  2  0  0  0  0  0  0  0  0  0
   17.4190  -28.6855   -5.8842 N   0  0  0  0  0  0  0  0  0  0  0  0
   18.6226  -30.7662   -5.9375 C   0  0  0  0  0  0  0  0  0  0  0  0
   19.2304  -31.9171   -5.4583 O   0  0  0  0  0  0  0  0  0  0  0  0
   18.7580  -30.5129   -7.1608 O   0  0  0  0  0  0  0  0  0  0  0  0
  1  2  1  0
  3  4  1  1
  3  2  1  0
  5  6  1  6
  5  3  1  0
  7  5  1  0
  8  7  2  0
  9  7  1  0
 10  9  1  0
 10 11  1  1
 11 12  1  0
 12 13  1  0
 13 14  1  0
 14 15  1  0
 16 10  1  0
 17 16  2  0
 18 19  1  0
 20 19  1  6
 20 21  1  0
 21 16  1  0
 22 20  1  0
 22 23  1  0
 24 22  2  0
M  END
$$$$
