IKS.pdb
     RDKit          3D

 24 23  0  0  1  0  0  0  0  0999 V2000
   14.0592  -12.9032  -16.0655 C   0  0  0  0  0  0  0  0  0  0  0  0
   15.4732  -13.3069  -16.3150 C   0  0  0  0  0  0  0  0  0  0  0  0
   16.4776  -12.2852  -15.8319 C   0  0  2  0  0  0  0  0  0  0  0  0
   16.2547  -11.0062  -16.6098 C   0  0  0  0  0  0  0  0  0  0  0  0
   17.8989  -12.7351  -16.0805 C   0  0  2  0  0  0  0  0  0  0  0  0
   18.1653  -14.0162  -15.4427 N   0  0  0  0  0  0  0  0  0  0  0  0
   18.8213  -11.6965  -15.5551 C   0  0  0  0  0  0  0  0  0  0  0  0
   18.8483  -11.4270  -14.3315 O   0  0  0  0  0  0  0  0  0  0  0  0
   19.6772  -10.9970  -16.4036 N   0  0  0  0  0  0  0  0  0  0  0  0
   20.6311   -9.9570  -15.9616 C   0  0  1  0  0  0  0  0  0  0  0  0
   21.8959  -10.0946  -16.7385 C   0  0  0  0  0  0  0  0  0  0  0  0
   22.8829   -9.0276  -16.4090 C   0  0  0  0  0  0  0  0  0  0  0  0
   24.1810   -9.1902  -17.1899 C   0  0  0  0  0  0  0  0  0  0  0  0
   25.1141   -8.0539  -16.7702 C   0  0  0  0  0  0  0  0  0  0  0  0
   26.3132   -8.0510  -17.5662 N   0  0  0  0  0  0  0  0  0  0  0  0
   19.9023   -8.6982  -16.1283 C   0  0  0  0  0  0  0  0  0  0  0  0
   19.3546   -8.4542  -17.2327 O   0  0  0  0  0  0  0  0  0  0  0  0
   16.9057   -7.1502  -14.9076 O   0  0  0  0  0  0  0  0  0  0  0  0
   17.9418   -6.2914  -14.5383 C   0  0  0  0  0  0  0  0  0  0  0  0
   19.1243   -6.4350  -15.4467 C   0  0  2  0  0  0  0  0  0  0  0  0
   19.7629   -7.7267  -15.1258 N   0  0  0  0  0  0  0  0  0  0  0  0
   20.0971   -5.3519  -15.2978 C   0  0  0  0  0  0  0  0  0  0  0  0
   19.7820   -4.0145  -15.4863 O   0  0  0  0  0  0  0  0  0  0  0  0
   21.2833   -5.6230  -14.9841 O   0  0  0  0  0  0  0  0  0  0  0  0
  1  2  1  0
  3  4  1  6
  3  2  1  0
  5  6  1  1
  5  3  1  0
  7  5  1  0
  8  7  2  0
  9  7  1  0
 10  9  1  0
 10 11  1  6
 11 12  1  0
 12 13  1  0
 13 14  1  0
 14 15  1  0
 16 10  1  0
 17 16  2  0
 18 19  1  0
 20 19  1  1
 20 21  1  0
 21 16  1  0
 22 20  1  0
 22 23  1  0
 24 22  2  0
M  END
$$$$
