IKS.pdb
     RDKit          3D

 24 23  0  0  1  0  0  0  0  0999 V2000
   28.5867  -16.0061  -17.8871 C   0  0  0  0  0  0  0  0  0  0  0  0
   28.9496  -17.1571  -17.0107 C   0  0  0  0  0  0  0  0  0  0  0  0
   27.8069  -18.1231  -16.7939 C   0  0  2  0  0  0  0  0  0  0  0  0
   26.7179  -17.3965  -16.0343 C   0  0  0  0  0  0  0  0  0  0  0  0
   28.2298  -19.3155  -15.9671 C   0  0  2  0  0  0  0  0  0  0  0  0
   29.3378  -20.0235  -16.5916 N   0  0  0  0  0  0  0  0  0  0  0  0
   27.0623  -20.2201  -15.8120 C   0  0  0  0  0  0  0  0  0  0  0  0
   26.5582  -20.7880  -16.8091 O   0  0  0  0  0  0  0  0  0  0  0  0
   26.4983  -20.4610  -14.5607 N   0  0  0  0  0  0  0  0  0  0  0  0
   25.3627  -21.3755  -14.3144 C   0  0  1  0  0  0  0  0  0  0  0  0
   25.3571  -21.7686  -12.8765 C   0  0  0  0  0  0  0  0  0  0  0  0
   24.2000  -22.6425  -12.5318 C   0  0  0  0  0  0  0  0  0  0  0  0
   24.0791  -23.8292  -13.4796 C   0  0  0  0  0  0  0  0  0  0  0  0
   22.8258  -24.6090  -13.0806 C   0  0  0  0  0  0  0  0  0  0  0  0
   22.5596  -25.6703  -14.0157 N   0  0  0  0  0  0  0  0  0  0  0  0
   24.1903  -20.6381  -14.7888 C   0  0  0  0  0  0  0  0  0  0  0  0
   23.9742  -19.4849  -14.3390 O   0  0  0  0  0  0  0  0  0  0  0  0
   20.6363  -19.9880  -17.9762 O   0  0  0  0  0  0  0  0  0  0  0  0
   21.7526  -20.6923  -17.5233 C   0  0  0  0  0  0  0  0  0  0  0  0
   22.1170  -20.3027  -16.1234 C   0  0  2  0  0  0  0  0  0  0  0  0
   23.2743  -21.1307  -15.7304 N   0  0  0  0  0  0  0  0  0  0  0  0
   21.0234  -20.4973  -15.1706 C   0  0  0  0  0  0  0  0  0  0  0  0
   20.0932  -19.5140  -14.8683 O   0  0  0  0  0  0  0  0  0  0  0  0
   20.9010  -21.6022  -14.5848 O   0  0  0  0  0  0  0  0  0  0  0  0
  1  2  1  0
  3  4  1  1
  3  2  1  0
  5  6  1  6
  5  3  1  0
  7  5  1  0
  8  7  2  0
  9  7  1  0
 10  9  1  0
 10 11  1  1
 11 12  1  0
 12 13  1  0
 13 14  1  0
 14 15  1  0
 16 10  1  0
 17 16  2  0
 18 19  1  0
 20 19  1  6
 20 21  1  0
 21 16  1  0
 22 20  1  0
 22 23  1  0
 24 22  2  0
M  END
$$$$
