IKS.pdb
     RDKit          3D

 24 23  0  0  1  0  0  0  0  0999 V2000
   26.4058  -17.1169  -20.2024 C   0  0  0  0  0  0  0  0  0  0  0  0
   27.2857  -17.1832  -18.9999 C   0  0  0  0  0  0  0  0  0  0  0  0
   27.0116  -18.3876  -18.1279 C   0  0  2  0  0  0  0  0  0  0  0  0
   25.5698  -18.3171  -17.6728 C   0  0  0  0  0  0  0  0  0  0  0  0
   27.8852  -18.3975  -16.8946 C   0  0  2  0  0  0  0  0  0  0  0  0
   29.2944  -18.4882  -17.2478 N   0  0  0  0  0  0  0  0  0  0  0  0
   27.4913  -19.5514  -16.0467 C   0  0  0  0  0  0  0  0  0  0  0  0
   27.8927  -20.7076  -16.3161 O   0  0  0  0  0  0  0  0  0  0  0  0
   26.6692  -19.3810  -14.9345 N   0  0  0  0  0  0  0  0  0  0  0  0
   26.4130  -20.4198  -13.9137 C   0  0  1  0  0  0  0  0  0  0  0  0
   26.2213  -19.7638  -12.5889 C   0  0  0  0  0  0  0  0  0  0  0  0
   25.8088  -20.7301  -11.5318 C   0  0  0  0  0  0  0  0  0  0  0  0
   25.5623  -20.0424  -10.1949 C   0  0  0  0  0  0  0  0  0  0  0  0
   25.2359  -21.1313   -9.1723 C   0  0  0  0  0  0  0  0  0  0  0  0
   25.1498  -20.5824   -7.8446 N   0  0  0  0  0  0  0  0  0  0  0  0
   25.2701  -21.1710  -14.4358 C   0  0  0  0  0  0  0  0  0  0  0  0
   24.3361  -20.5451  -14.9970 O   0  0  0  0  0  0  0  0  0  0  0  0
   25.1771  -25.0557  -15.6540 O   0  0  0  0  0  0  0  0  0  0  0  0
   24.1303  -24.6878  -14.8076 C   0  0  0  0  0  0  0  0  0  0  0  0
   23.8974  -23.2082  -14.8331 C   0  0  2  0  0  0  0  0  0  0  0  0
   25.1392  -22.5658  -14.3592 N   0  0  0  0  0  0  0  0  0  0  0  0
   22.7731  -22.7898  -13.9950 C   0  0  0  0  0  0  0  0  0  0  0  0
   21.4464  -22.9970  -14.3421 O   0  0  0  0  0  0  0  0  0  0  0  0
   22.9965  -22.2120  -12.9017 O   0  0  0  0  0  0  0  0  0  0  0  0
  1  2  1  0
  3  4  1  1
  3  2  1  0
  5  6  1  6
  5  3  1  0
  7  5  1  0
  8  7  2  0
  9  7  1  0
 10  9  1  0
 10 11  1  1
 11 12  1  0
 12 13  1  0
 13 14  1  0
 14 15  1  0
 16 10  1  0
 17 16  2  0
 18 19  1  0
 20 19  1  1
 20 21  1  0
 21 16  1  0
 22 20  1  0
 22 23  1  0
 24 22  2  0
M  END
$$$$
