IKS.pdb
     RDKit          3D

 24 23  0  0  1  0  0  0  0  0999 V2000
   29.7715  -21.3500  -10.1292 C   0  0  0  0  0  0  0  0  0  0  0  0
   28.3180  -21.0373  -10.0100 C   0  0  0  0  0  0  0  0  0  0  0  0
   27.5652  -21.2034  -11.3107 C   0  0  2  0  0  0  0  0  0  0  0  0
   28.1836  -20.2722  -12.3311 C   0  0  0  0  0  0  0  0  0  0  0  0
   26.1080  -20.8288  -11.1670 C   0  0  2  0  0  0  0  0  0  0  0  0
   25.4705  -21.5911  -10.1033 N   0  0  0  0  0  0  0  0  0  0  0  0
   25.4260  -21.0814  -12.4618 C   0  0  0  0  0  0  0  0  0  0  0  0
   25.3647  -22.2402  -12.9353 O   0  0  0  0  0  0  0  0  0  0  0  0
   24.8389  -20.0428  -13.1818 N   0  0  0  0  0  0  0  0  0  0  0  0
   24.1101  -20.2134  -14.4571 C   0  0  1  0  0  0  0  0  0  0  0  0
   22.7839  -19.5406  -14.3538 C   0  0  0  0  0  0  0  0  0  0  0  0
   21.6515  -20.5084  -14.4030 C   0  0  0  0  0  0  0  0  0  0  0  0
   20.2996  -19.8060  -14.3884 C   0  0  0  0  0  0  0  0  0  0  0  0
   19.2201  -20.8890  -14.3843 C   0  0  0  0  0  0  0  0  0  0  0  0
   19.2158  -21.6075  -13.1372 N   0  0  0  0  0  0  0  0  0  0  0  0
   25.0246  -19.6897  -15.4734 C   0  0  0  0  0  0  0  0  0  0  0  0
   25.4812  -18.5266  -15.3392 O   0  0  0  0  0  0  0  0  0  0  0  0
   27.3104  -22.0076  -17.8414 O   0  0  0  0  0  0  0  0  0  0  0  0
   27.6377  -20.6924  -17.5089 C   0  0  0  0  0  0  0  0  0  0  0  0
   26.4304  -19.8056  -17.5233 C   0  0  2  0  0  0  0  0  0  0  0  0
   25.4413  -20.4051  -16.6060 N   0  0  0  0  0  0  0  0  0  0  0  0
   25.8431  -19.6575  -18.8555 C   0  0  0  0  0  0  0  0  0  0  0  0
   26.5504  -19.1847  -19.9509 O   0  0  0  0  0  0  0  0  0  0  0  0
   24.6396  -19.9679  -19.0403 O   0  0  0  0  0  0  0  0  0  0  0  0
  1  2  1  0
  3  4  1  6
  3  2  1  0
  5  6  1  1
  5  3  1  0
  7  5  1  0
  8  7  2  0
  9  7  1  0
 10  9  1  0
 10 11  1  1
 11 12  1  0
 12 13  1  0
 13 14  1  0
 14 15  1  0
 16 10  1  0
 17 16  2  0
 18 19  1  0
 20 19  1  6
 20 21  1  0
 21 16  1  0
 22 20  1  0
 22 23  1  0
 24 22  2  0
M  END
$$$$
