IKS.pdb
     RDKit          3D

 24 23  0  0  1  0  0  0  0  0999 V2000
   19.3414  -21.9866  -16.3321 C   0  0  0  0  0  0  0  0  0  0  0  0
   19.2880  -20.5923  -15.8053 C   0  0  0  0  0  0  0  0  0  0  0  0
   20.6442  -20.0535  -15.4095 C   0  0  2  0  0  0  0  0  0  0  0  0
   21.6283  -20.4170  -16.5005 C   0  0  0  0  0  0  0  0  0  0  0  0
   21.1370  -20.6679  -14.1196 C   0  0  2  0  0  0  0  0  0  0  0  0
   20.2123  -20.4091  -13.0256 N   0  0  0  0  0  0  0  0  0  0  0  0
   22.4745  -20.1024  -13.8084 C   0  0  0  0  0  0  0  0  0  0  0  0
   22.6447  -18.8622  -13.7488 O   0  0  0  0  0  0  0  0  0  0  0  0
   23.5707  -20.9305  -13.5754 N   0  0  0  0  0  0  0  0  0  0  0  0
   24.9068  -20.4555  -13.1559 C   0  0  1  0  0  0  0  0  0  0  0  0
   25.3254  -21.1973  -11.9326 C   0  0  0  0  0  0  0  0  0  0  0  0
   24.7755  -20.5923  -10.6864 C   0  0  0  0  0  0  0  0  0  0  0  0
   25.2938  -21.2914   -9.4359 C   0  0  0  0  0  0  0  0  0  0  0  0
   24.7029  -20.5658   -8.2266 C   0  0  0  0  0  0  0  0  0  0  0  0
   23.5416  -21.2551   -7.7288 N   0  0  0  0  0  0  0  0  0  0  0  0
   25.7470  -20.6348  -14.3414 C   0  0  0  0  0  0  0  0  0  0  0  0
   25.5436  -21.6258  -15.0867 O   0  0  0  0  0  0  0  0  0  0  0  0
   28.4478  -18.5109  -17.4894 O   0  0  0  0  0  0  0  0  0  0  0  0
   28.4896  -18.8972  -16.1490 C   0  0  0  0  0  0  0  0  0  0  0  0
   27.6136  -20.0851  -15.8924 C   0  0  2  0  0  0  0  0  0  0  0  0
   26.7798  -19.7629  -14.7175 N   0  0  0  0  0  0  0  0  0  0  0  0
   28.3702  -21.3121  -15.6404 C   0  0  0  0  0  0  0  0  0  0  0  0
   28.7991  -22.1626  -16.6486 O   0  0  0  0  0  0  0  0  0  0  0  0
   28.6573  -21.6318  -14.4595 O   0  0  0  0  0  0  0  0  0  0  0  0
  1  2  1  0
  3  4  1  6
  3  2  1  0
  5  6  1  1
  5  3  1  0
  7  5  1  0
  8  7  2  0
  9  7  1  0
 10  9  1  0
 10 11  1  1
 11 12  1  0
 12 13  1  0
 13 14  1  0
 14 15  1  0
 16 10  1  0
 17 16  2  0
 18 19  1  0
 20 19  1  1
 20 21  1  0
 21 16  1  0
 22 20  1  0
 22 23  1  0
 24 22  2  0
M  END
$$$$
