QWA.pdb
     RDKit          3D

 29 30  0  0  1  0  0  0  0  0999 V2000
   29.7772  -20.4069  -17.7838 N   0  0  0  0  0  0  0  0  0  0  0  0
   28.5028  -19.7876  -17.7582 C   0  0  0  0  0  0  0  0  0  0  0  0
   27.7848  -19.7957  -18.7786 O   0  0  0  0  0  0  0  0  0  0  0  0
   28.0484  -19.1397  -16.5103 C   0  0  0  0  0  0  0  0  0  0  0  0
   27.1097  -20.0535  -15.7944 C   0  0  0  0  0  0  0  0  0  0  0  0
   27.7644  -20.6867  -14.5807 C   0  0  2  0  0  0  0  0  0  0  0  0
   28.7415  -21.6725  -14.9621 N   0  0  0  0  0  0  0  0  0  0  0  0
   26.7945  -21.2136  -13.6143 C   0  0  0  0  0  0  0  0  0  0  0  0
   26.1027  -22.2319  -13.8778 O   0  0  0  0  0  0  0  0  0  0  0  0
   26.6025  -20.5891  -12.3436 N   0  0  0  0  0  0  0  0  0  0  0  0
   25.6790  -21.1127  -11.3614 C   0  0  1  0  0  0  0  0  0  0  0  0
   25.8813  -20.4641  -10.0088 C   0  0  0  0  0  0  0  0  0  0  0  0
   27.2137  -20.7307   -9.4295 C   0  0  0  0  0  0  0  0  0  0  0  0
   28.1819  -21.5051  -10.0246 C   0  0  0  0  0  0  0  0  0  0  0  0
   29.2568  -21.5164   -9.2069 N   0  0  0  0  0  0  0  0  0  0  0  0
   29.0100  -20.7731   -8.1042 C   0  0  0  0  0  0  0  0  0  0  0  0
   29.7575  -20.4632   -6.9825 C   0  0  0  0  0  0  0  0  0  0  0  0
   29.2660  -19.6613   -5.9685 C   0  0  0  0  0  0  0  0  0  0  0  0
   27.9776  -19.1722   -6.1195 C   0  0  0  0  0  0  0  0  0  0  0  0
   27.2105  -19.4637   -7.2243 C   0  0  0  0  0  0  0  0  0  0  0  0
   27.7136  -20.2671   -8.2322 C   0  0  0  0  0  0  0  0  0  0  0  0
   24.2987  -20.7292  -11.8063 C   0  0  0  0  0  0  0  0  0  0  0  0
   23.9426  -19.5165  -11.9057 O   0  0  0  0  0  0  0  0  0  0  0  0
   21.3639  -22.3908  -13.4723 C   0  0  0  0  0  0  0  0  0  0  0  0
   21.9868  -21.3336  -12.6007 C   0  0  2  0  0  0  0  0  0  0  0  0
   23.3159  -21.7029  -12.1401 N   0  0  0  0  0  0  0  0  0  0  0  0
   21.0930  -21.0031  -11.4670 C   0  0  0  0  0  0  0  0  0  0  0  0
   19.8987  -20.3599  -11.7547 O   0  0  0  0  0  0  0  0  0  0  0  0
   21.3497  -21.2688  -10.2646 O   0  0  0  0  0  0  0  0  0  0  0  0
  1  2  1  0
  2  3  2  0
  4  5  1  0
  4  2  1  0
  5  6  1  0
  6  7  1  6
  8  6  1  0
  9  8  2  0
 10  8  1  0
 11 10  1  0
 12 13  1  0
 11 12  1  1
 13 21  1  0
 13 14  2  0
 14 15  1  0
 16 15  1  0
 16 17  2  0
 18 17  1  0
 19 18  2  0
 20 19  1  0
 20 21  2  0
 21 16  1  0
 22 26  1  0
 22 11  1  0
 23 22  2  0
 25 24  1  1
 25 26  1  0
 25 27  1  0
 27 28  1  0
 29 27  2  0
M  END
$$$$
