QWA.pdb
     RDKit          3D

 29 30  0  0  1  0  0  0  0  0999 V2000
   33.1452  -39.9014   -5.1574 N   0  0  0  0  0  0  0  0  0  0  0  0
   33.4302  -39.4609   -6.4740 C   0  0  0  0  0  0  0  0  0  0  0  0
   32.9842  -40.0924   -7.4532 O   0  0  0  0  0  0  0  0  0  0  0  0
   34.2578  -38.2508   -6.6588 C   0  0  0  0  0  0  0  0  0  0  0  0
   33.6902  -37.1366   -5.8433 C   0  0  0  0  0  0  0  0  0  0  0  0
   32.7821  -36.2460   -6.6708 C   0  0  2  0  0  0  0  0  0  0  0  0
   33.5328  -35.4506   -7.6067 N   0  0  0  0  0  0  0  0  0  0  0  0
   31.8766  -35.4311   -5.8532 C   0  0  0  0  0  0  0  0  0  0  0  0
   32.2514  -34.3311   -5.3687 O   0  0  0  0  0  0  0  0  0  0  0  0
   30.5410  -35.8583   -5.5793 N   0  0  0  0  0  0  0  0  0  0  0  0
   29.6265  -35.0640   -4.7889 C   0  0  1  0  0  0  0  0  0  0  0  0
   28.2181  -35.1276   -5.3396 C   0  0  0  0  0  0  0  0  0  0  0  0
   28.0260  -34.2934   -6.5433 C   0  0  0  0  0  0  0  0  0  0  0  0
   28.8246  -34.3430   -7.6619 C   0  0  0  0  0  0  0  0  0  0  0  0
   28.3430  -33.4454   -8.5488 N   0  0  0  0  0  0  0  0  0  0  0  0
   27.2593  -32.8200   -8.0353 C   0  0  0  0  0  0  0  0  0  0  0  0
   26.4121  -31.8396   -8.5193 C   0  0  0  0  0  0  0  0  0  0  0  0
   25.3476  -31.3557   -7.7806 C   0  0  0  0  0  0  0  0  0  0  0  0
   25.1579  -31.8972   -6.5185 C   0  0  0  0  0  0  0  0  0  0  0  0
   25.9844  -32.8735   -6.0108 C   0  0  0  0  0  0  0  0  0  0  0  0
   27.0460  -33.3494   -6.7597 C   0  0  0  0  0  0  0  0  0  0  0  0
   29.5701  -35.6847   -3.4244 C   0  0  0  0  0  0  0  0  0  0  0  0
   29.3412  -36.9212   -3.2629 O   0  0  0  0  0  0  0  0  0  0  0  0
   30.1486  -34.5811    0.1683 C   0  0  0  0  0  0  0  0  0  0  0  0
   29.6735  -35.5127   -0.9143 C   0  0  2  0  0  0  0  0  0  0  0  0
   29.7696  -34.9219   -2.2397 N   0  0  0  0  0  0  0  0  0  0  0  0
   28.2980  -35.9814   -0.6286 C   0  0  0  0  0  0  0  0  0  0  0  0
   28.1039  -36.7556    0.5053 O   0  0  0  0  0  0  0  0  0  0  0  0
   27.2996  -35.7215   -1.3482 O   0  0  0  0  0  0  0  0  0  0  0  0
  1  2  1  0
  2  3  2  0
  4  5  1  0
  4  2  1  0
  5  6  1  0
  6  7  1  1
  8  6  1  0
  9  8  2  0
 10  8  1  0
 11 10  1  0
 12 13  1  0
 11 12  1  6
 13 21  1  0
 13 14  2  0
 14 15  1  0
 16 15  1  0
 16 17  2  0
 18 17  1  0
 19 18  2  0
 20 19  1  0
 20 21  2  0
 21 16  1  0
 22 26  1  0
 22 11  1  0
 23 22  2  0
 25 24  1  1
 25 26  1  0
 25 27  1  0
 27 28  1  0
 29 27  2  0
M  END
$$$$
