QWA.pdb
     RDKit          3D

 29 30  0  0  1  0  0  0  0  0999 V2000
   16.6034  -11.3208  -20.5364 N   0  0  0  0  0  0  0  0  0  0  0  0
   16.9859  -12.6390  -20.8893 C   0  0  0  0  0  0  0  0  0  0  0  0
   16.1677  -13.3973  -21.4481 O   0  0  0  0  0  0  0  0  0  0  0  0
   18.3595  -13.0900  -20.5843 C   0  0  0  0  0  0  0  0  0  0  0  0
   19.1358  -11.9514  -20.0101 C   0  0  0  0  0  0  0  0  0  0  0  0
   19.8049  -12.3350  -18.7033 C   0  0  2  0  0  0  0  0  0  0  0  0
   19.3514  -13.6183  -18.2349 N   0  0  0  0  0  0  0  0  0  0  0  0
   19.6896  -11.2972  -17.6727 C   0  0  0  0  0  0  0  0  0  0  0  0
   18.6715  -11.2238  -16.9358 O   0  0  0  0  0  0  0  0  0  0  0  0
   20.7274  -10.3360  -17.4716 N   0  0  0  0  0  0  0  0  0  0  0  0
   20.6078   -9.2662  -16.5057 C   0  0  1  0  0  0  0  0  0  0  0  0
   21.9356   -8.9650  -15.8444 C   0  0  0  0  0  0  0  0  0  0  0  0
   21.8782   -7.8121  -14.9228 C   0  0  0  0  0  0  0  0  0  0  0  0
   21.3107   -7.8426  -13.6704 C   0  0  0  0  0  0  0  0  0  0  0  0
   21.4491   -6.6133  -13.1283 N   0  0  0  0  0  0  0  0  0  0  0  0
   22.0881   -5.7930  -13.9933 C   0  0  0  0  0  0  0  0  0  0  0  0
   22.4722   -4.4656  -13.9337 C   0  0  0  0  0  0  0  0  0  0  0  0
   23.1304   -3.8418  -14.9780 C   0  0  0  0  0  0  0  0  0  0  0  0
   23.3951   -4.6069  -16.1035 C   0  0  0  0  0  0  0  0  0  0  0  0
   23.0250   -5.9296  -16.1911 C   0  0  0  0  0  0  0  0  0  0  0  0
   22.3671   -6.5424  -15.1395 C   0  0  0  0  0  0  0  0  0  0  0  0
   20.2285   -8.0286  -17.2638 C   0  0  0  0  0  0  0  0  0  0  0  0
   20.7804   -7.7247  -18.3639 O   0  0  0  0  0  0  0  0  0  0  0  0
   17.4679   -5.8064  -17.8848 C   0  0  0  0  0  0  0  0  0  0  0  0
   18.9160   -5.8908  -17.4835 C   0  0  2  0  0  0  0  0  0  0  0  0
   19.2311   -7.1302  -16.7911 N   0  0  0  0  0  0  0  0  0  0  0  0
   19.3014   -4.7081  -16.6796 C   0  0  0  0  0  0  0  0  0  0  0  0
   19.7915   -3.6014  -17.3561 O   0  0  0  0  0  0  0  0  0  0  0  0
   19.2117   -4.6464  -15.4264 O   0  0  0  0  0  0  0  0  0  0  0  0
  1  2  1  0
  2  3  2  0
  4  5  1  0
  4  2  1  0
  5  6  1  0
  6  7  1  1
  8  6  1  0
  9  8  2  0
 10  8  1  0
 11 10  1  0
 12 13  1  0
 11 12  1  6
 13 21  1  0
 13 14  2  0
 14 15  1  0
 16 15  1  0
 16 17  2  0
 18 17  1  0
 19 18  2  0
 20 19  1  0
 20 21  2  0
 21 16  1  0
 22 26  1  0
 22 11  1  0
 23 22  2  0
 25 24  1  1
 25 26  1  0
 25 27  1  0
 27 28  1  0
 29 27  2  0
M  END
$$$$
