QWA.pdb
     RDKit          3D

 29 30  0  0  1  0  0  0  0  0999 V2000
   28.3870  -24.8205  -16.4067 N   0  0  0  0  0  0  0  0  0  0  0  0
   29.0582  -23.5816  -16.2557 C   0  0  0  0  0  0  0  0  0  0  0  0
   30.2577  -23.4781  -16.5833 O   0  0  0  0  0  0  0  0  0  0  0  0
   28.3144  -22.4283  -15.7080 C   0  0  0  0  0  0  0  0  0  0  0  0
   26.9371  -22.8642  -15.3316 C   0  0  0  0  0  0  0  0  0  0  0  0
   26.0891  -21.6947  -14.8672 C   0  0  2  0  0  0  0  0  0  0  0  0
   26.8051  -20.4501  -14.9692 N   0  0  0  0  0  0  0  0  0  0  0  0
   25.5158  -21.8955  -13.5318 C   0  0  0  0  0  0  0  0  0  0  0  0
   25.0524  -23.0137  -13.1852 O   0  0  0  0  0  0  0  0  0  0  0  0
   25.4637  -20.8300  -12.5813 N   0  0  0  0  0  0  0  0  0  0  0  0
   24.8197  -20.9782  -11.2947 C   0  0  1  0  0  0  0  0  0  0  0  0
   25.4439  -20.0730  -10.2546 C   0  0  0  0  0  0  0  0  0  0  0  0
   26.7781  -20.5278   -9.8130 C   0  0  0  0  0  0  0  0  0  0  0  0
   27.6244  -21.3080  -10.5656 C   0  0  0  0  0  0  0  0  0  0  0  0
   28.7436  -21.5165   -9.8389 N   0  0  0  0  0  0  0  0  0  0  0  0
   28.6433  -20.8945   -8.6420 C   0  0  0  0  0  0  0  0  0  0  0  0
   29.4889  -20.7931   -7.5522 C   0  0  0  0  0  0  0  0  0  0  0  0
   29.1458  -20.0802   -6.4177 C   0  0  0  0  0  0  0  0  0  0  0  0
   27.9049  -19.4618   -6.4127 C   0  0  0  0  0  0  0  0  0  0  0  0
   27.0429  -19.5453   -7.4823 C   0  0  0  0  0  0  0  0  0  0  0  0
   27.3978  -20.2615   -8.6116 C   0  0  0  0  0  0  0  0  0  0  0  0
   23.4023  -20.5143  -11.4557 C   0  0  0  0  0  0  0  0  0  0  0  0
   23.0971  -19.5581  -12.2303 O   0  0  0  0  0  0  0  0  0  0  0  0
   20.8787  -19.1293  -10.7172 C   0  0  0  0  0  0  0  0  0  0  0  0
   20.9610  -20.6264  -10.8484 C   0  0  2  0  0  0  0  0  0  0  0  0
   22.3253  -21.1203  -10.7498 N   0  0  0  0  0  0  0  0  0  0  0  0
   20.3121  -21.0738  -12.1022 C   0  0  0  0  0  0  0  0  0  0  0  0
   18.9586  -20.8145  -12.2551 O   0  0  0  0  0  0  0  0  0  0  0  0
   20.9109  -21.6720  -13.0328 O   0  0  0  0  0  0  0  0  0  0  0  0
  1  2  1  0
  2  3  2  0
  4  5  1  0
  4  2  1  0
  5  6  1  0
  6  7  1  1
  8  6  1  0
  9  8  2  0
 10  8  1  0
 11 10  1  0
 12 13  1  0
 11 12  1  1
 13 21  1  0
 13 14  2  0
 14 15  1  0
 16 15  1  0
 16 17  2  0
 18 17  1  0
 19 18  2  0
 20 19  1  0
 20 21  2  0
 21 16  1  0
 22 26  1  0
 22 11  1  0
 23 22  2  0
 25 24  1  6
 25 26  1  0
 25 27  1  0
 27 28  1  0
 29 27  2  0
M  END
$$$$
