QWA.pdb
     RDKit          3D

 29 30  0  0  1  0  0  0  0  0999 V2000
   25.6168  -21.0343  -18.8653 N   0  0  0  0  0  0  0  0  0  0  0  0
   26.8723  -20.3815  -18.7869 C   0  0  0  0  0  0  0  0  0  0  0  0
   27.2780  -19.6929  -19.7450 O   0  0  0  0  0  0  0  0  0  0  0  0
   27.6806  -20.5328  -17.5593 C   0  0  0  0  0  0  0  0  0  0  0  0
   26.9455  -21.3966  -16.5887 C   0  0  0  0  0  0  0  0  0  0  0  0
   27.6991  -21.5300  -15.2785 C   0  0  2  0  0  0  0  0  0  0  0  0
   28.7809  -22.4737  -15.3854 N   0  0  0  0  0  0  0  0  0  0  0  0
   26.8223  -21.8200  -14.1386 C   0  0  0  0  0  0  0  0  0  0  0  0
   26.3527  -22.9740  -13.9572 O   0  0  0  0  0  0  0  0  0  0  0  0
   26.4721  -20.8035  -13.1974 N   0  0  0  0  0  0  0  0  0  0  0  0
   25.5890  -21.0605  -12.0812 C   0  0  1  0  0  0  0  0  0  0  0  0
   25.9079  -20.1642  -10.9040 C   0  0  0  0  0  0  0  0  0  0  0  0
   27.0983  -20.6009  -10.1462 C   0  0  0  0  0  0  0  0  0  0  0  0
   28.1062  -21.3827  -10.6602 C   0  0  0  0  0  0  0  0  0  0  0  0
   29.0175  -21.5713   -9.6814 N   0  0  0  0  0  0  0  0  0  0  0  0
   28.6270  -20.9350   -8.5537 C   0  0  0  0  0  0  0  0  0  0  0  0
   29.1831  -20.8116   -7.2933 C   0  0  0  0  0  0  0  0  0  0  0  0
   28.5715  -20.0874   -6.2861 C   0  0  0  0  0  0  0  0  0  0  0  0
   27.3627  -19.4806   -6.5904 C   0  0  0  0  0  0  0  0  0  0  0  0
   26.7855  -19.5859   -7.8354 C   0  0  0  0  0  0  0  0  0  0  0  0
   27.4074  -20.3133   -8.8347 C   0  0  0  0  0  0  0  0  0  0  0  0
   24.2031  -20.6933  -12.5225 C   0  0  0  0  0  0  0  0  0  0  0  0
   23.9403  -19.5570  -13.0195 O   0  0  0  0  0  0  0  0  0  0  0  0
   20.8810  -22.3936  -13.0818 C   0  0  0  0  0  0  0  0  0  0  0  0
   21.7486  -21.2117  -12.7418 C   0  0  2  0  0  0  0  0  0  0  0  0
   23.1104  -21.5978  -12.4076 N   0  0  0  0  0  0  0  0  0  0  0  0
   21.1321  -20.4095  -11.6603 C   0  0  0  0  0  0  0  0  0  0  0  0
   20.0122  -19.6553  -11.9761 O   0  0  0  0  0  0  0  0  0  0  0  0
   21.5602  -20.3704  -10.4781 O   0  0  0  0  0  0  0  0  0  0  0  0
  1  2  1  0
  2  3  2  0
  4  5  1  0
  4  2  1  0
  5  6  1  0
  6  7  1  6
  8  6  1  0
  9  8  2  0
 10  8  1  0
 11 10  1  0
 12 13  1  0
 11 12  1  1
 13 21  1  0
 13 14  2  0
 14 15  1  0
 16 15  1  0
 16 17  2  0
 18 17  1  0
 19 18  2  0
 20 19  1  0
 20 21  2  0
 21 16  1  0
 22 26  1  0
 22 11  1  0
 23 22  2  0
 25 24  1  1
 25 26  1  0
 25 27  1  0
 27 28  1  0
 29 27  2  0
M  END
$$$$
