QWA.pdb
     RDKit          3D

 29 30  0  0  1  0  0  0  0  0999 V2000
   18.2673   -7.0509  -20.1204 N   0  0  0  0  0  0  0  0  0  0  0  0
   18.5129   -8.2422  -20.8478 C   0  0  0  0  0  0  0  0  0  0  0  0
   17.6227   -9.1115  -20.9398 O   0  0  0  0  0  0  0  0  0  0  0  0
   19.8317   -8.4294  -21.4875 C   0  0  0  0  0  0  0  0  0  0  0  0
   20.6529   -7.1980  -21.2929 C   0  0  0  0  0  0  0  0  0  0  0  0
   21.9527   -7.5025  -20.5715 C   0  0  2  0  0  0  0  0  0  0  0  0
   22.4122   -8.8374  -20.8524 N   0  0  0  0  0  0  0  0  0  0  0  0
   21.8873   -7.2312  -19.1312 C   0  0  0  0  0  0  0  0  0  0  0  0
   21.2226   -7.9720  -18.3601 O   0  0  0  0  0  0  0  0  0  0  0  0
   22.5746   -6.1183  -18.5562 N   0  0  0  0  0  0  0  0  0  0  0  0
   22.5847   -5.8741  -17.1307 C   0  0  1  0  0  0  0  0  0  0  0  0
   23.9745   -5.5352  -16.6359 C   0  0  0  0  0  0  0  0  0  0  0  0
   24.8534   -6.7163  -16.5163 C   0  0  0  0  0  0  0  0  0  0  0  0
   26.0463   -6.8712  -17.1829 C   0  0  0  0  0  0  0  0  0  0  0  0
   26.5641   -8.0657  -16.8233 N   0  0  0  0  0  0  0  0  0  0  0  0
   25.7410   -8.6839  -15.9459 C   0  0  0  0  0  0  0  0  0  0  0  0
   25.7994   -9.8970  -15.2840 C   0  0  0  0  0  0  0  0  0  0  0  0
   24.8054  -10.3107  -14.4158 C   0  0  0  0  0  0  0  0  0  0  0  0
   23.7324   -9.4525  -14.2305 C   0  0  0  0  0  0  0  0  0  0  0  0
   23.6474   -8.2397  -14.8753 C   0  0  0  0  0  0  0  0  0  0  0  0
   24.6484   -7.8370  -15.7414 C   0  0  0  0  0  0  0  0  0  0  0  0
   21.7456   -4.6547  -16.8868 C   0  0  0  0  0  0  0  0  0  0  0  0
   21.8044   -3.6416  -17.6466 O   0  0  0  0  0  0  0  0  0  0  0  0
   18.6933   -3.7141  -14.9443 C   0  0  0  0  0  0  0  0  0  0  0  0
   20.0317   -3.3845  -15.5488 C   0  0  2  0  0  0  0  0  0  0  0  0
   20.8401   -4.5686  -15.7923 N   0  0  0  0  0  0  0  0  0  0  0  0
   20.7520   -2.4001  -14.7089 C   0  0  0  0  0  0  0  0  0  0  0  0
   20.3141   -1.0848  -14.7391 O   0  0  0  0  0  0  0  0  0  0  0  0
   21.7324   -2.6827  -13.9732 O   0  0  0  0  0  0  0  0  0  0  0  0
  1  2  1  0
  2  3  2  0
  4  5  1  0
  4  2  1  0
  5  6  1  0
  6  7  1  1
  8  6  1  0
  9  8  2  0
 10  8  1  0
 11 10  1  0
 12 13  1  0
 11 12  1  6
 13 21  1  0
 13 14  2  0
 14 15  1  0
 16 15  1  0
 16 17  2  0
 18 17  1  0
 19 18  2  0
 20 19  1  0
 20 21  2  0
 21 16  1  0
 22 26  1  0
 22 11  1  0
 23 22  2  0
 25 24  1  1
 25 26  1  0
 25 27  1  0
 27 28  1  0
 29 27  2  0
M  END
$$$$
