QWA.pdb
     RDKit          3D

 29 30  0  0  1  0  0  0  0  0999 V2000
   29.4799  -20.4660  -18.5245 N   0  0  0  0  0  0  0  0  0  0  0  0
   28.1291  -20.2275  -18.1684 C   0  0  0  0  0  0  0  0  0  0  0  0
   27.2138  -20.5136  -18.9666 O   0  0  0  0  0  0  0  0  0  0  0  0
   27.8322  -19.6394  -16.8457 C   0  0  0  0  0  0  0  0  0  0  0  0
   26.8546  -20.5097  -16.1278 C   0  0  0  0  0  0  0  0  0  0  0  0
   27.4582  -21.1074  -14.8704 C   0  0  2  0  0  0  0  0  0  0  0  0
   28.3236  -22.2163  -15.1758 N   0  0  0  0  0  0  0  0  0  0  0  0
   26.4532  -21.4518  -13.8587 C   0  0  0  0  0  0  0  0  0  0  0  0
   25.7082  -22.4571  -13.9989 O   0  0  0  0  0  0  0  0  0  0  0  0
   26.2861  -20.6587  -12.6820 N   0  0  0  0  0  0  0  0  0  0  0  0
   25.3572  -21.0228  -11.6349 C   0  0  1  0  0  0  0  0  0  0  0  0
   25.6842  -20.3204  -10.3346 C   0  0  0  0  0  0  0  0  0  0  0  0
   27.0212  -20.6633   -9.8085 C   0  0  0  0  0  0  0  0  0  0  0  0
   27.8893  -21.5491  -10.4028 C   0  0  0  0  0  0  0  0  0  0  0  0
   29.0038  -21.6028   -9.6419 N   0  0  0  0  0  0  0  0  0  0  0  0
   28.8795  -20.7790   -8.5765 C   0  0  0  0  0  0  0  0  0  0  0  0
   29.7111  -20.4682   -7.5159 C   0  0  0  0  0  0  0  0  0  0  0  0
   29.3431  -19.5707   -6.5299 C   0  0  0  0  0  0  0  0  0  0  0  0
   28.0917  -18.9853   -6.6452 C   0  0  0  0  0  0  0  0  0  0  0  0
   27.2431  -19.2751   -7.6892 C   0  0  0  0  0  0  0  0  0  0  0  0
   27.6229  -20.1747   -8.6694 C   0  0  0  0  0  0  0  0  0  0  0  0
   24.0057  -20.5226  -12.0515 C   0  0  0  0  0  0  0  0  0  0  0  0
   23.8714  -19.5098  -12.8021 O   0  0  0  0  0  0  0  0  0  0  0  0
   21.4140  -21.1245  -13.6594 C   0  0  0  0  0  0  0  0  0  0  0  0
   21.5079  -20.8097  -12.1905 C   0  0  2  0  0  0  0  0  0  0  0  0
   22.8036  -21.1557  -11.6281 N   0  0  0  0  0  0  0  0  0  0  0  0
   20.4039  -21.4611  -11.4488 C   0  0  0  0  0  0  0  0  0  0  0  0
   19.1056  -21.1124  -11.7888 O   0  0  0  0  0  0  0  0  0  0  0  0
   20.5709  -22.3074  -10.5333 O   0  0  0  0  0  0  0  0  0  0  0  0
  1  2  1  0
  2  3  2  0
  4  5  1  0
  4  2  1  0
  5  6  1  0
  6  7  1  6
  8  6  1  0
  9  8  2  0
 10  8  1  0
 11 10  1  0
 12 13  1  0
 11 12  1  1
 13 21  1  0
 13 14  2  0
 14 15  1  0
 16 15  1  0
 16 17  2  0
 18 17  1  0
 19 18  2  0
 20 19  1  0
 20 21  2  0
 21 16  1  0
 22 26  1  0
 22 11  1  0
 23 22  2  0
 25 24  1  6
 25 26  1  0
 25 27  1  0
 27 28  1  0
 29 27  2  0
M  END
$$$$
