KFT.pdb
     RDKit          3D

 28 28  0  0  1  0  0  0  0  0999 V2000
   28.4961  -22.6148  -17.0406 N   0  0  0  0  0  0  0  0  0  0  0  0
   27.8549  -21.3752  -16.6607 C   0  0  1  0  0  0  0  0  0  0  0  0
   26.8713  -20.8949  -17.6739 C   0  0  0  0  0  0  0  0  0  0  0  0
   27.4941  -20.4967  -18.9722 C   0  0  0  0  0  0  0  0  0  0  0  0
   28.2636  -19.2172  -18.8102 C   0  0  0  0  0  0  0  0  0  0  0  0
   28.8171  -18.7539  -20.1642 C   0  0  0  0  0  0  0  0  0  0  0  0
   27.8134  -19.0937  -21.1670 N   0  0  0  0  0  0  0  0  0  0  0  0
   27.1016  -21.5429  -15.3724 C   0  0  0  0  0  0  0  0  0  0  0  0
   26.1446  -22.3416  -15.2958 O   0  0  0  0  0  0  0  0  0  0  0  0
   27.4704  -20.8011  -14.2451 N   0  0  0  0  0  0  0  0  0  0  0  0
   26.8049  -20.8598  -12.9632 C   0  0  1  0  0  0  0  0  0  0  0  0
   27.6358  -20.3302  -11.8443 C   0  0  0  0  0  0  0  0  0  0  0  0
   27.0146  -20.3768  -10.5262 C   0  0  0  0  0  0  0  0  0  0  0  0
   26.4933  -19.2419   -9.9423 C   0  0  0  0  0  0  0  0  0  0  0  0
   25.8990  -19.2298   -8.7048 C   0  0  0  0  0  0  0  0  0  0  0  0
   25.8078  -20.4092   -7.9879 C   0  0  0  0  0  0  0  0  0  0  0  0
   26.3219  -21.5759   -8.5427 C   0  0  0  0  0  0  0  0  0  0  0  0
   26.9208  -21.5472   -9.8079 C   0  0  0  0  0  0  0  0  0  0  0  0
   25.4343  -20.3226  -13.0335 C   0  0  0  0  0  0  0  0  0  0  0  0
   25.2132  -19.1610  -13.4620 O   0  0  0  0  0  0  0  0  0  0  0  0
   22.9807  -20.9651  -15.1153 C   0  0  0  0  0  0  0  0  0  0  0  0
   22.2467  -21.2780  -13.8292 C   0  0  1  0  0  0  0  0  0  0  0  0
   22.2845  -22.6372  -13.6291 O   0  0  0  0  0  0  0  0  0  0  0  0
   22.9556  -20.5166  -12.7161 C   0  0  2  0  0  0  0  0  0  0  0  0
   24.3039  -21.0827  -12.6271 N   0  0  0  0  0  0  0  0  0  0  0  0
   22.2807  -20.6964  -11.4317 C   0  0  0  0  0  0  0  0  0  0  0  0
   22.8536  -21.3058  -10.4985 O   0  0  0  0  0  0  0  0  0  0  0  0
   21.0147  -20.2030  -11.2263 O   0  0  0  0  0  0  0  0  0  0  0  0
  2  1  1  6
  2  8  1  0
  2  3  1  0
  4  3  1  0
  5  4  1  0
  6  5  1  0
  7  6  1  0
  8  9  2  0
 10 11  1  0
 10  8  1  0
 12 13  1  0
 11 12  1  1
 13 18  2  0
 14 15  2  0
 14 13  1  0
 15 16  1  0
 16 17  2  0
 18 17  1  0
 19 20  2  0
 19 11  1  0
 22 21  1  6
 22 24  1  0
 23 22  1  0
 24 26  1  0
 24 25  1  1
 25 19  1  0
 26 28  1  0
 27 26  2  0
M  END
$$$$
