KFT.pdb
     RDKit          3D

 28 28  0  0  1  0  0  0  0  0999 V2000
   21.3071  -11.3556  -19.7525 N   0  0  0  0  0  0  0  0  0  0  0  0
   20.0475  -10.6514  -19.8505 C   0  0  1  0  0  0  0  0  0  0  0  0
   18.8665  -11.5596  -19.7797 C   0  0  0  0  0  0  0  0  0  0  0  0
   19.2153  -13.0072  -19.9014 C   0  0  0  0  0  0  0  0  0  0  0  0
   19.5510  -13.3442  -21.3258 C   0  0  0  0  0  0  0  0  0  0  0  0
   19.7080  -14.8616  -21.4910 C   0  0  0  0  0  0  0  0  0  0  0  0
   20.0806  -15.0967  -22.8818 N   0  0  0  0  0  0  0  0  0  0  0  0
   19.9037   -9.6664  -18.7261 C   0  0  0  0  0  0  0  0  0  0  0  0
   18.7968   -9.1446  -18.4769 O   0  0  0  0  0  0  0  0  0  0  0  0
   21.0152   -9.3267  -17.9476 N   0  0  0  0  0  0  0  0  0  0  0  0
   21.0142   -8.3389  -16.8922 C   0  0  1  0  0  0  0  0  0  0  0  0
   21.9309   -8.6796  -15.7669 C   0  0  0  0  0  0  0  0  0  0  0  0
   21.8841   -7.7746  -14.6248 C   0  0  0  0  0  0  0  0  0  0  0  0
   22.5282   -6.5559  -14.6529 C   0  0  0  0  0  0  0  0  0  0  0  0
   22.5168   -5.6674  -13.6064 C   0  0  0  0  0  0  0  0  0  0  0  0
   21.8280   -5.9926  -12.4518 C   0  0  0  0  0  0  0  0  0  0  0  0
   21.1652   -7.2130  -12.3843 C   0  0  0  0  0  0  0  0  0  0  0  0
   21.2004   -8.0924  -13.4732 C   0  0  0  0  0  0  0  0  0  0  0  0
   21.1561   -6.9713  -17.4230 C   0  0  0  0  0  0  0  0  0  0  0  0
   22.1410   -6.6506  -18.1363 O   0  0  0  0  0  0  0  0  0  0  0  0
   18.9209   -5.0254  -19.5540 C   0  0  0  0  0  0  0  0  0  0  0  0
   19.0843   -4.1792  -18.3099 C   0  0  1  0  0  0  0  0  0  0  0  0
   18.0074   -4.4071  -17.4870 O   0  0  0  0  0  0  0  0  0  0  0  0
   20.3983   -4.5940  -17.6595 C   0  0  2  0  0  0  0  0  0  0  0  0
   20.1960   -5.9565  -17.1605 N   0  0  0  0  0  0  0  0  0  0  0  0
   20.7363   -3.7230  -16.5349 C   0  0  0  0  0  0  0  0  0  0  0  0
   20.6763   -4.1575  -15.3610 O   0  0  0  0  0  0  0  0  0  0  0  0
   21.1240   -2.4214  -16.7441 O   0  0  0  0  0  0  0  0  0  0  0  0
  2  1  1  1
  2  8  1  0
  2  3  1  0
  4  3  1  0
  5  4  1  0
  6  5  1  0
  7  6  1  0
  8  9  2  0
 10 11  1  0
 10  8  1  0
 12 13  1  0
 11 12  1  1
 13 18  2  0
 14 15  2  0
 14 13  1  0
 15 16  1  0
 16 17  2  0
 18 17  1  0
 19 20  2  0
 19 11  1  0
 22 21  1  6
 22 24  1  0
 23 22  1  0
 24 26  1  0
 24 25  1  1
 25 19  1  0
 26 28  1  0
 27 26  2  0
M  END
$$$$
