KFT.pdb
     RDKit          3D

 28 28  0  0  1  0  0  0  0  0999 V2000
   19.0257  -12.6752  -18.9504 N   0  0  0  0  0  0  0  0  0  0  0  0
   19.6321  -11.3791  -19.1613 C   0  0  1  0  0  0  0  0  0  0  0  0
   18.9366  -10.5749  -20.2074 C   0  0  0  0  0  0  0  0  0  0  0  0
   19.3265  -10.9407  -21.6025 C   0  0  0  0  0  0  0  0  0  0  0  0
   20.7597  -10.5711  -21.8567 C   0  0  0  0  0  0  0  0  0  0  0  0
   21.1071  -10.7737  -23.3375 C   0  0  0  0  0  0  0  0  0  0  0  0
   22.5071  -10.3951  -23.4964 N   0  0  0  0  0  0  0  0  0  0  0  0
   19.5977  -10.5676  -17.8982 C   0  0  0  0  0  0  0  0  0  0  0  0
   18.6201  -10.6385  -17.1244 O   0  0  0  0  0  0  0  0  0  0  0  0
   20.6670   -9.7235  -17.5801 N   0  0  0  0  0  0  0  0  0  0  0  0
   20.6887   -8.8004  -16.4678 C   0  0  1  0  0  0  0  0  0  0  0  0
   21.9425   -8.8764  -15.6648 C   0  0  0  0  0  0  0  0  0  0  0  0
   22.0032   -7.9856  -14.5123 C   0  0  0  0  0  0  0  0  0  0  0  0
   21.7110   -8.4390  -13.2435 C   0  0  0  0  0  0  0  0  0  0  0  0
   21.7520   -7.6436  -12.1253 C   0  0  0  0  0  0  0  0  0  0  0  0
   22.1029   -6.3121  -12.2562 C   0  0  0  0  0  0  0  0  0  0  0  0
   22.4049   -5.8164  -13.5197 C   0  0  0  0  0  0  0  0  0  0  0  0
   22.3517   -6.6598  -14.6360 C   0  0  0  0  0  0  0  0  0  0  0  0
   20.2886   -7.4421  -16.8766 C   0  0  0  0  0  0  0  0  0  0  0  0
   20.8791   -6.8454  -17.8130 O   0  0  0  0  0  0  0  0  0  0  0  0
   16.9974   -6.1529  -18.0008 C   0  0  0  0  0  0  0  0  0  0  0  0
   17.3609   -5.3457  -16.7732 C   0  0  1  0  0  0  0  0  0  0  0  0
   16.7423   -5.9118  -15.6843 O   0  0  0  0  0  0  0  0  0  0  0  0
   18.8792   -5.3819  -16.6508 C   0  0  2  0  0  0  0  0  0  0  0  0
   19.2246   -6.7456  -16.2415 N   0  0  0  0  0  0  0  0  0  0  0  0
   19.3557   -4.4468  -15.6330 C   0  0  0  0  0  0  0  0  0  0  0  0
   19.2930   -3.2114  -15.8335 O   0  0  0  0  0  0  0  0  0  0  0  0
   19.8767   -4.9031  -14.4461 O   0  0  0  0  0  0  0  0  0  0  0  0
  2  1  1  1
  2  8  1  0
  2  3  1  0
  4  3  1  0
  5  4  1  0
  6  5  1  0
  7  6  1  0
  8  9  2  0
 10 11  1  0
 10  8  1  0
 12 13  1  0
 11 12  1  6
 13 18  2  0
 14 15  2  0
 14 13  1  0
 15 16  1  0
 16 17  2  0
 18 17  1  0
 19 20  2  0
 19 11  1  0
 22 21  1  6
 22 24  1  0
 23 22  1  0
 24 26  1  0
 24 25  1  1
 25 19  1  0
 26 28  1  0
 27 26  2  0
M  END
$$$$
