KFT.pdb
     RDKit          3D

 28 28  0  0  1  0  0  0  0  0999 V2000
   20.7798  -12.1930  -19.9741 N   0  0  0  0  0  0  0  0  0  0  0  0
   21.2528  -10.8261  -19.9696 C   0  0  1  0  0  0  0  0  0  0  0  0
   20.6543  -10.0001  -21.0579 C   0  0  0  0  0  0  0  0  0  0  0  0
   20.4319  -10.7533  -22.3288 C   0  0  0  0  0  0  0  0  0  0  0  0
   18.9661  -11.0083  -22.5336 C   0  0  0  0  0  0  0  0  0  0  0  0
   18.7168  -11.5863  -23.9329 C   0  0  0  0  0  0  0  0  0  0  0  0
   19.4097  -12.8691  -23.9873 N   0  0  0  0  0  0  0  0  0  0  0  0
   20.9060  -10.1509  -18.6738 C   0  0  0  0  0  0  0  0  0  0  0  0
   19.8455  -10.4302  -18.0763 O   0  0  0  0  0  0  0  0  0  0  0  0
   21.7742   -9.2004  -18.1263 N   0  0  0  0  0  0  0  0  0  0  0  0
   21.5468   -8.4895  -16.8884 C   0  0  1  0  0  0  0  0  0  0  0  0
   22.6347   -8.6869  -15.8883 C   0  0  0  0  0  0  0  0  0  0  0  0
   22.4441   -8.0072  -14.6127 C   0  0  0  0  0  0  0  0  0  0  0  0
   22.0563   -8.7000  -13.4857 C   0  0  0  0  0  0  0  0  0  0  0  0
   21.8621   -8.1098  -12.2615 C   0  0  0  0  0  0  0  0  0  0  0  0
   22.0606   -6.7473  -12.1295 C   0  0  0  0  0  0  0  0  0  0  0  0
   22.4522   -6.0130  -13.2434 C   0  0  0  0  0  0  0  0  0  0  0  0
   22.6400   -6.6517  -14.4751 C   0  0  0  0  0  0  0  0  0  0  0  0
   21.1622   -7.0867  -17.1260 C   0  0  0  0  0  0  0  0  0  0  0  0
   21.9149   -6.3060  -17.7630 O   0  0  0  0  0  0  0  0  0  0  0  0
   17.9283   -5.7224  -18.6236 C   0  0  0  0  0  0  0  0  0  0  0  0
   18.0896   -5.1432  -17.2347 C   0  0  1  0  0  0  0  0  0  0  0  0
   17.3712   -5.9185  -16.3563 O   0  0  0  0  0  0  0  0  0  0  0  0
   19.5802   -5.1537  -16.9189 C   0  0  2  0  0  0  0  0  0  0  0  0
   19.9328   -6.5509  -16.6545 N   0  0  0  0  0  0  0  0  0  0  0  0
   19.8805   -4.3564  -15.7308 C   0  0  0  0  0  0  0  0  0  0  0  0
   20.2049   -4.9197  -14.6594 O   0  0  0  0  0  0  0  0  0  0  0  0
   19.8133   -2.9845  -15.7680 O   0  0  0  0  0  0  0  0  0  0  0  0
  2  1  1  1
  2  8  1  0
  2  3  1  0
  4  3  1  0
  5  4  1  0
  6  5  1  0
  7  6  1  0
  8  9  2  0
 10 11  1  0
 10  8  1  0
 12 13  1  0
 11 12  1  1
 13 18  2  0
 14 15  2  0
 14 13  1  0
 15 16  1  0
 16 17  2  0
 18 17  1  0
 19 20  2  0
 19 11  1  0
 22 21  1  6
 22 24  1  0
 23 22  1  0
 24 26  1  0
 24 25  1  1
 25 19  1  0
 26 28  1  0
 27 26  2  0
M  END
$$$$
