KFT.pdb
     RDKit          3D

 28 28  0  0  1  0  0  0  0  0999 V2000
   28.7207  -21.8782  -16.4174 N   0  0  0  0  0  0  0  0  0  0  0  0
   27.8493  -20.7734  -16.0825 C   0  0  1  0  0  0  0  0  0  0  0  0
   26.9719  -20.3605  -17.2159 C   0  0  0  0  0  0  0  0  0  0  0  0
   27.7248  -19.8585  -18.4047 C   0  0  0  0  0  0  0  0  0  0  0  0
   26.7710  -19.3806  -19.4616 C   0  0  0  0  0  0  0  0  0  0  0  0
   27.5421  -18.7501  -20.6288 C   0  0  0  0  0  0  0  0  0  0  0  0
   26.5512  -18.3641  -21.6275 N   0  0  0  0  0  0  0  0  0  0  0  0
   26.9412  -21.1425  -14.9449 C   0  0  0  0  0  0  0  0  0  0  0  0
   26.4966  -22.3047  -14.8388 O   0  0  0  0  0  0  0  0  0  0  0  0
   26.5867  -20.1808  -13.9927 N   0  0  0  0  0  0  0  0  0  0  0  0
   25.7724  -20.4343  -12.8255 C   0  0  1  0  0  0  0  0  0  0  0  0
   26.3775  -19.9206  -11.5635 C   0  0  0  0  0  0  0  0  0  0  0  0
   27.6662  -20.5006  -11.2052 C   0  0  0  0  0  0  0  0  0  0  0  0
   28.8396  -20.0239  -11.7496 C   0  0  0  0  0  0  0  0  0  0  0  0
   30.0782  -20.5334  -11.4476 C   0  0  0  0  0  0  0  0  0  0  0  0
   30.1768  -21.5821  -10.5511 C   0  0  0  0  0  0  0  0  0  0  0  0
   29.0158  -22.0912   -9.9801 C   0  0  0  0  0  0  0  0  0  0  0  0
   27.7709  -21.5442  -10.3137 C   0  0  0  0  0  0  0  0  0  0  0  0
   24.3662  -20.0523  -13.0462 C   0  0  0  0  0  0  0  0  0  0  0  0
   24.0357  -18.8475  -13.1913 O   0  0  0  0  0  0  0  0  0  0  0  0
   22.2198  -21.2591  -15.6889 C   0  0  0  0  0  0  0  0  0  0  0  0
   21.4052  -21.5255  -14.4415 C   0  0  1  0  0  0  0  0  0  0  0  0
   21.5478  -22.8506  -14.1063 O   0  0  0  0  0  0  0  0  0  0  0  0
   21.9402  -20.6005  -13.3552 C   0  0  2  0  0  0  0  0  0  0  0  0
   23.3231  -21.0160  -13.1082 N   0  0  0  0  0  0  0  0  0  0  0  0
   21.1767  -20.7344  -12.1156 C   0  0  0  0  0  0  0  0  0  0  0  0
   21.7347  -21.1508  -11.0737 O   0  0  0  0  0  0  0  0  0  0  0  0
   19.8428  -20.4074  -12.0713 O   0  0  0  0  0  0  0  0  0  0  0  0
  2  1  1  6
  2  8  1  0
  2  3  1  0
  4  3  1  0
  5  4  1  0
  6  5  1  0
  7  6  1  0
  8  9  2  0
 10 11  1  0
 10  8  1  0
 12 13  1  0
 11 12  1  1
 13 18  2  0
 14 15  2  0
 14 13  1  0
 15 16  1  0
 16 17  2  0
 18 17  1  0
 19 20  2  0
 19 11  1  0
 22 21  1  6
 22 24  1  0
 23 22  1  0
 24 26  1  0
 24 25  1  1
 25 19  1  0
 26 28  1  0
 27 26  2  0
M  END
$$$$
