KFT.pdb
     RDKit          3D

 28 28  0  0  1  0  0  0  0  0999 V2000
   20.1376  -12.7141  -19.0787 N   0  0  0  0  0  0  0  0  0  0  0  0
   20.2544  -11.2917  -19.3135 C   0  0  1  0  0  0  0  0  0  0  0  0
   19.2182  -10.7700  -20.2509 C   0  0  0  0  0  0  0  0  0  0  0  0
   19.2295  -11.4363  -21.5881 C   0  0  0  0  0  0  0  0  0  0  0  0
   18.1996  -10.8159  -22.4880 C   0  0  0  0  0  0  0  0  0  0  0  0
   18.1968  -11.5141  -23.8544 C   0  0  0  0  0  0  0  0  0  0  0  0
   17.0226  -11.0293  -24.5717 N   0  0  0  0  0  0  0  0  0  0  0  0
   20.0988  -10.5293  -18.0291 C   0  0  0  0  0  0  0  0  0  0  0  0
   19.1492  -10.7750  -17.2561 O   0  0  0  0  0  0  0  0  0  0  0  0
   21.0221   -9.5345  -17.6901 N   0  0  0  0  0  0  0  0  0  0  0  0
   20.8997   -8.6448  -16.5573 C   0  0  1  0  0  0  0  0  0  0  0  0
   22.0991   -8.6518  -15.6718 C   0  0  0  0  0  0  0  0  0  0  0  0
   21.9934   -7.8367  -14.4676 C   0  0  0  0  0  0  0  0  0  0  0  0
   22.2823   -6.4888  -14.4904 C   0  0  0  0  0  0  0  0  0  0  0  0
   22.2000   -5.6764  -13.3869 C   0  0  0  0  0  0  0  0  0  0  0  0
   21.8079   -6.2190  -12.1765 C   0  0  0  0  0  0  0  0  0  0  0  0
   21.5078   -7.5751  -12.1123 C   0  0  0  0  0  0  0  0  0  0  0  0
   21.6039   -8.3708  -13.2603 C   0  0  0  0  0  0  0  0  0  0  0  0
   20.4270   -7.3083  -16.9603 C   0  0  0  0  0  0  0  0  0  0  0  0
   21.0222   -6.6504  -17.8517 O   0  0  0  0  0  0  0  0  0  0  0  0
   17.1278   -6.2902  -18.2348 C   0  0  0  0  0  0  0  0  0  0  0  0
   17.3506   -5.4455  -16.9988 C   0  0  1  0  0  0  0  0  0  0  0  0
   16.7101   -6.0473  -15.9423 O   0  0  0  0  0  0  0  0  0  0  0  0
   18.8565   -5.3631  -16.7822 C   0  0  2  0  0  0  0  0  0  0  0  0
   19.2848   -6.7021  -16.3698 N   0  0  0  0  0  0  0  0  0  0  0  0
   19.1930   -4.4115  -15.7245 C   0  0  0  0  0  0  0  0  0  0  0  0
   19.0467   -3.1814  -15.9136 O   0  0  0  0  0  0  0  0  0  0  0  0
   19.6718   -4.8464  -14.5121 O   0  0  0  0  0  0  0  0  0  0  0  0
  2  1  1  1
  2  8  1  0
  2  3  1  0
  4  3  1  0
  5  4  1  0
  6  5  1  0
  7  6  1  0
  8  9  2  0
 10 11  1  0
 10  8  1  0
 12 13  1  0
 11 12  1  6
 13 18  2  0
 14 15  2  0
 14 13  1  0
 15 16  1  0
 16 17  2  0
 18 17  1  0
 19 20  2  0
 19 11  1  0
 22 21  1  6
 22 24  1  0
 23 22  1  0
 24 26  1  0
 24 25  1  1
 25 19  1  0
 26 28  1  0
 27 26  2  0
M  END
$$$$
