KFT.pdb
     RDKit          3D

 28 28  0  0  1  0  0  0  0  0999 V2000
   14.0836  -25.2460    1.4863 N   0  0  0  0  0  0  0  0  0  0  0  0
   14.2770  -23.9533    2.1058 C   0  0  1  0  0  0  0  0  0  0  0  0
   13.0592  -23.4582    2.8105 C   0  0  0  0  0  0  0  0  0  0  0  0
   11.8697  -23.3094    1.9189 C   0  0  0  0  0  0  0  0  0  0  0  0
   11.8655  -21.9512    1.2781 C   0  0  0  0  0  0  0  0  0  0  0  0
   10.6432  -21.7980    0.3632 C   0  0  0  0  0  0  0  0  0  0  0  0
   10.6568  -20.4251   -0.1300 N   0  0  0  0  0  0  0  0  0  0  0  0
   15.3735  -24.0167    3.1300 C   0  0  0  0  0  0  0  0  0  0  0  0
   15.6452  -25.0923    3.7035 O   0  0  0  0  0  0  0  0  0  0  0  0
   16.1003  -22.8646    3.4486 N   0  0  0  0  0  0  0  0  0  0  0  0
   17.1250  -22.7887    4.4653 C   0  0  1  0  0  0  0  0  0  0  0  0
   18.5028  -22.6848    3.9053 C   0  0  0  0  0  0  0  0  0  0  0  0
   19.0690  -23.9296    3.4000 C   0  0  0  0  0  0  0  0  0  0  0  0
   18.7536  -24.3987    2.1426 C   0  0  0  0  0  0  0  0  0  0  0  0
   19.2573  -25.5635    1.6188 C   0  0  0  0  0  0  0  0  0  0  0  0
   20.1303  -26.3228    2.3768 C   0  0  0  0  0  0  0  0  0  0  0  0
   20.4733  -25.8835    3.6506 C   0  0  0  0  0  0  0  0  0  0  0  0
   19.9382  -24.6897    4.1494 C   0  0  0  0  0  0  0  0  0  0  0  0
   16.7941  -21.7946    5.5019 C   0  0  0  0  0  0  0  0  0  0  0  0
   16.7429  -20.5673    5.2318 O   0  0  0  0  0  0  0  0  0  0  0  0
   13.8410  -21.6651    7.8297 C   0  0  0  0  0  0  0  0  0  0  0  0
   15.0806  -21.6973    8.6974 C   0  0  1  0  0  0  0  0  0  0  0  0
   15.3029  -22.9966    9.0865 O   0  0  0  0  0  0  0  0  0  0  0  0
   16.2265  -21.1488    7.8562 C   0  0  2  0  0  0  0  0  0  0  0  0
   16.5167  -22.1684    6.8450 N   0  0  0  0  0  0  0  0  0  0  0  0
   17.4249  -20.9285    8.6642 C   0  0  0  0  0  0  0  0  0  0  0  0
   18.4405  -21.6425    8.4929 O   0  0  0  0  0  0  0  0  0  0  0  0
   17.4587  -19.9408    9.6189 O   0  0  0  0  0  0  0  0  0  0  0  0
  2  1  1  1
  2  8  1  0
  2  3  1  0
  4  3  1  0
  5  4  1  0
  6  5  1  0
  7  6  1  0
  8  9  2  0
 10 11  1  0
 10  8  1  0
 12 13  1  0
 11 12  1  6
 13 18  2  0
 14 15  2  0
 14 13  1  0
 15 16  1  0
 16 17  2  0
 18 17  1  0
 19 20  2  0
 19 11  1  0
 22 21  1  6
 22 24  1  0
 23 22  1  0
 24 26  1  0
 24 25  1  6
 25 19  1  0
 26 28  1  0
 27 26  2  0
M  END
$$$$
