GTS.pdb
     RDKit          3D

 18 17  0  0  1  0  0  0  0  0999 V2000
    6.6901  -12.6314   18.4617 N   0  0  0  0  0  0  0  0  0  0  0  0
    8.0697  -12.9643   18.6965 C   0  0  0  0  0  0  0  0  0  0  0  0
    8.1406  -14.2063   19.5101 C   0  0  0  0  0  0  0  0  0  0  0  0
    7.0848  -14.7086   19.9775 O   0  0  0  0  0  0  0  0  0  0  0  0
    9.1530  -17.4953   18.6421 C   0  0  0  0  0  0  0  0  0  0  0  0
   10.0262  -17.2203   19.8469 C   0  0  1  0  0  0  0  0  0  0  0  0
   11.3383  -17.0038   19.4993 O   0  0  0  0  0  0  0  0  0  0  0  0
    9.4749  -16.0254   20.5980 C   0  0  2  0  0  0  0  0  0  0  0  0
    9.3868  -14.8565   19.7816 N   0  0  0  0  0  0  0  0  0  0  0  0
   10.2602  -15.7568   21.8305 C   0  0  0  0  0  0  0  0  0  0  0  0
   11.2502  -15.0024   21.8420 O   0  0  0  0  0  0  0  0  0  0  0  0
    8.6889  -15.6905   25.5333 O   0  0  0  0  0  0  0  0  0  0  0  0
    9.8378  -16.4669   25.5279 C   0  0  0  0  0  0  0  0  0  0  0  0
   10.6497  -16.2495   24.2791 C   0  0  2  0  0  0  0  0  0  0  0  0
    9.9020  -16.3664   23.0745 N   0  0  0  0  0  0  0  0  0  0  0  0
   11.8330  -17.1164   24.3431 C   0  0  0  0  0  0  0  0  0  0  0  0
   12.0604  -17.9239   23.4144 O   0  0  0  0  0  0  0  0  0  0  0  0
   12.6868  -17.0438   25.4143 O   0  0  0  0  0  0  0  0  0  0  0  0
  2  1  1  0
  3  2  1  0
  4  3  2  0
  6  5  1  6
  6  7  1  0
  6  8  1  0
  8  9  1  6
  9  3  1  0
 10  8  1  0
 10 15  1  0
 11 10  2  0
 12 13  1  0
 14 15  1  0
 14 13  1  1
 14 16  1  0
 16 18  1  0
 17 16  2  0
M  END
$$$$
