GTS.pdb
     RDKit          3D

 18 17  0  0  1  0  0  0  0  0999 V2000
    5.2702  -20.1774   23.1996 N   0  0  0  0  0  0  0  0  0  0  0  0
    5.3272  -18.8200   22.7266 C   0  0  0  0  0  0  0  0  0  0  0  0
    6.7333  -18.4812   22.3834 C   0  0  0  0  0  0  0  0  0  0  0  0
    7.6587  -19.2837   22.6750 O   0  0  0  0  0  0  0  0  0  0  0  0
    9.8868  -15.8577   19.6679 C   0  0  0  0  0  0  0  0  0  0  0  0
    8.4448  -16.1265   20.0393 C   0  0  1  0  0  0  0  0  0  0  0  0
    7.7566  -16.7559   19.0296 O   0  0  0  0  0  0  0  0  0  0  0  0
    8.4043  -16.9590   21.3047 C   0  0  2  0  0  0  0  0  0  0  0  0
    7.0714  -17.2565   21.7239 N   0  0  0  0  0  0  0  0  0  0  0  0
    9.1751  -16.3122   22.3980 C   0  0  0  0  0  0  0  0  0  0  0  0
    8.7830  -15.2803   22.9733 O   0  0  0  0  0  0  0  0  0  0  0  0
   11.2377  -18.3237   25.0619 O   0  0  0  0  0  0  0  0  0  0  0  0
   11.1842  -16.9424   25.1728 C   0  0  0  0  0  0  0  0  0  0  0  0
   11.2602  -16.2734   23.8266 C   0  0  2  0  0  0  0  0  0  0  0  0
   10.4206  -16.8607   22.8397 N   0  0  0  0  0  0  0  0  0  0  0  0
   12.6733  -16.1779   23.4395 C   0  0  0  0  0  0  0  0  0  0  0  0
   13.0729  -16.7582   22.4054 O   0  0  0  0  0  0  0  0  0  0  0  0
   13.5533  -15.4568   24.2058 O   0  0  0  0  0  0  0  0  0  0  0  0
  2  1  1  0
  3  2  1  0
  4  3  2  0
  6  5  1  6
  6  7  1  0
  6  8  1  0
  8  9  1  1
  9  3  1  0
 10  8  1  0
 10 15  1  0
 11 10  2  0
 12 13  1  0
 14 15  1  0
 14 13  1  1
 14 16  1  0
 16 18  1  0
 17 16  2  0
M  END
$$$$
