GTS.pdb
     RDKit          3D

 18 17  0  0  1  0  0  0  0  0999 V2000
    3.5388  -17.9495   21.6501 N   0  0  0  0  0  0  0  0  0  0  0  0
    4.5819  -18.4410   22.5102 C   0  0  0  0  0  0  0  0  0  0  0  0
    5.8925  -17.9308   22.0289 C   0  0  0  0  0  0  0  0  0  0  0  0
    6.5029  -18.5420   21.1127 O   0  0  0  0  0  0  0  0  0  0  0  0
    6.6190  -14.5767   20.6317 C   0  0  0  0  0  0  0  0  0  0  0  0
    7.6320  -14.7553   21.7415 C   0  0  1  0  0  0  0  0  0  0  0  0
    7.3200  -14.0117   22.8546 O   0  0  0  0  0  0  0  0  0  0  0  0
    7.7252  -16.2251   22.0976 C   0  0  2  0  0  0  0  0  0  0  0  0
    6.4888  -16.7525   22.5813 N   0  0  0  0  0  0  0  0  0  0  0  0
    8.8258  -16.4747   23.0643 C   0  0  0  0  0  0  0  0  0  0  0  0
    8.7052  -16.2624   24.2848 O   0  0  0  0  0  0  0  0  0  0  0  0
   10.7838  -19.6134   23.4808 O   0  0  0  0  0  0  0  0  0  0  0  0
   11.7589  -18.6419   23.3129 C   0  0  0  0  0  0  0  0  0  0  0  0
   11.1952  -17.2553   23.4724 C   0  0  2  0  0  0  0  0  0  0  0  0
   10.0897  -16.9781   22.6210 N   0  0  0  0  0  0  0  0  0  0  0  0
   12.2997  -16.2943   23.3618 C   0  0  0  0  0  0  0  0  0  0  0  0
   13.1918  -16.2722   24.2392 O   0  0  0  0  0  0  0  0  0  0  0  0
   12.3561  -15.4237   22.3033 O   0  0  0  0  0  0  0  0  0  0  0  0
  2  1  1  0
  3  2  1  0
  4  3  2  0
  6  5  1  6
  6  7  1  0
  6  8  1  0
  8  9  1  1
  9  3  1  0
 10  8  1  0
 10 15  1  0
 11 10  2  0
 12 13  1  0
 14 15  1  0
 14 13  1  6
 14 16  1  0
 16 18  1  0
 17 16  2  0
M  END
$$$$
