GTS.pdb
     RDKit          3D

 18 17  0  0  1  0  0  0  0  0999 V2000
    7.4946  -17.5539   16.5360 N   0  0  0  0  0  0  0  0  0  0  0  0
    7.0779  -17.4443   17.9085 C   0  0  0  0  0  0  0  0  0  0  0  0
    8.0630  -16.6169   18.6532 C   0  0  0  0  0  0  0  0  0  0  0  0
    9.1807  -16.3575   18.1344 O   0  0  0  0  0  0  0  0  0  0  0  0
    7.5280  -13.2132   20.1664 C   0  0  0  0  0  0  0  0  0  0  0  0
    8.0951  -14.0641   21.2818 C   0  0  1  0  0  0  0  0  0  0  0  0
    7.1428  -14.4011   22.2139 O   0  0  0  0  0  0  0  0  0  0  0  0
    8.7175  -15.3115   20.6880 C   0  0  2  0  0  0  0  0  0  0  0  0
    7.7769  -16.1000   19.9571 N   0  0  0  0  0  0  0  0  0  0  0  0
    9.3954  -16.1226   21.7323 C   0  0  0  0  0  0  0  0  0  0  0  0
    8.8999  -17.1663   22.1954 O   0  0  0  0  0  0  0  0  0  0  0  0
   13.4425  -16.3449   22.0834 O   0  0  0  0  0  0  0  0  0  0  0  0
   12.8471  -16.1236   23.3161 C   0  0  0  0  0  0  0  0  0  0  0  0
   11.3712  -16.4174   23.2813 C   0  0  2  0  0  0  0  0  0  0  0  0
   10.6674  -15.7277   22.2553 N   0  0  0  0  0  0  0  0  0  0  0  0
   10.8293  -16.2114   24.6303 C   0  0  0  0  0  0  0  0  0  0  0  0
    9.9249  -15.3658   24.8121 O   0  0  0  0  0  0  0  0  0  0  0  0
   11.3101  -16.9407   25.6879 O   0  0  0  0  0  0  0  0  0  0  0  0
  2  1  1  0
  3  2  1  0
  4  3  2  0
  6  5  1  6
  6  7  1  0
  6  8  1  0
  8  9  1  1
  9  3  1  0
 10  8  1  0
 10 15  1  0
 11 10  2  0
 12 13  1  0
 14 15  1  0
 14 13  1  1
 14 16  1  0
 16 18  1  0
 17 16  2  0
M  END
$$$$
