GTS.pdb
     RDKit          3D

 18 17  0  0  1  0  0  0  0  0999 V2000
    7.9738  -15.8201   13.9655 N   0  0  0  0  0  0  0  0  0  0  0  0
    7.7241  -16.0200   15.3680 C   0  0  0  0  0  0  0  0  0  0  0  0
    8.6977  -15.2196   16.1562 C   0  0  0  0  0  0  0  0  0  0  0  0
    9.6472  -14.6362   15.5699 O   0  0  0  0  0  0  0  0  0  0  0  0
    7.6750  -12.7771   19.0379 C   0  0  0  0  0  0  0  0  0  0  0  0
    8.8251  -13.6289   19.5293 C   0  0  1  0  0  0  0  0  0  0  0  0
    8.4195  -14.5733   20.4419 O   0  0  0  0  0  0  0  0  0  0  0  0
    9.4935  -14.2937   18.3430 C   0  0  2  0  0  0  0  0  0  0  0  0
    8.5877  -15.0902   17.5776 N   0  0  0  0  0  0  0  0  0  0  0  0
   10.6743  -15.0893   18.7683 C   0  0  0  0  0  0  0  0  0  0  0  0
   10.6279  -16.3230   18.9270 O   0  0  0  0  0  0  0  0  0  0  0  0
   15.4669  -15.1112   19.7290 O   0  0  0  0  0  0  0  0  0  0  0  0
   14.3709  -14.3744   19.3060 C   0  0  0  0  0  0  0  0  0  0  0  0
   13.0803  -15.1120   19.5432 C   0  0  2  0  0  0  0  0  0  0  0  0
   11.9331  -14.4560   19.0164 N   0  0  0  0  0  0  0  0  0  0  0  0
   12.9902  -15.4332   20.9730 C   0  0  0  0  0  0  0  0  0  0  0  0
   12.2070  -14.7875   21.7049 O   0  0  0  0  0  0  0  0  0  0  0  0
   13.7595  -16.4356   21.5068 O   0  0  0  0  0  0  0  0  0  0  0  0
  2  1  1  0
  3  2  1  0
  4  3  2  0
  6  5  1  6
  6  7  1  0
  6  8  1  0
  8  9  1  1
  9  3  1  0
 10  8  1  0
 10 15  1  0
 11 10  2  0
 12 13  1  0
 14 15  1  0
 14 13  1  1
 14 16  1  0
 16 18  1  0
 17 16  2  0
M  END
$$$$
