GTS.pdb
     RDKit          3D

 18 17  0  0  1  0  0  0  0  0999 V2000
    8.7668  -14.4725   15.6697 N   0  0  0  0  0  0  0  0  0  0  0  0
    8.0049  -15.0673   16.7351 C   0  0  0  0  0  0  0  0  0  0  0  0
    8.6430  -14.7350   18.0359 C   0  0  0  0  0  0  0  0  0  0  0  0
    9.7750  -14.1837   18.0542 O   0  0  0  0  0  0  0  0  0  0  0  0
    7.4255  -12.5826   20.7828 C   0  0  0  0  0  0  0  0  0  0  0  0
    7.7172  -13.9112   21.4454 C   0  0  1  0  0  0  0  0  0  0  0  0
    6.5697  -14.6072   21.7420 O   0  0  0  0  0  0  0  0  0  0  0  0
    8.6135  -14.7319   20.5403 C   0  0  2  0  0  0  0  0  0  0  0  0
    8.0027  -15.0259   19.2828 N   0  0  0  0  0  0  0  0  0  0  0  0
    9.0660  -15.9752   21.2167 C   0  0  0  0  0  0  0  0  0  0  0  0
    8.5155  -17.0761   21.0313 O   0  0  0  0  0  0  0  0  0  0  0  0
   12.9896  -16.5380   22.3497 O   0  0  0  0  0  0  0  0  0  0  0  0
   12.0401  -17.5441   22.2532 C   0  0  0  0  0  0  0  0  0  0  0  0
   10.7028  -17.0988   22.7815 C   0  0  2  0  0  0  0  0  0  0  0  0
   10.1722  -15.9542   22.1240 N   0  0  0  0  0  0  0  0  0  0  0  0
   10.8057  -16.9651   24.2400 C   0  0  0  0  0  0  0  0  0  0  0  0
   11.2042  -17.9341   24.9243 O   0  0  0  0  0  0  0  0  0  0  0  0
   10.4675  -15.7851   24.8522 O   0  0  0  0  0  0  0  0  0  0  0  0
  2  1  1  0
  3  2  1  0
  4  3  2  0
  6  5  1  6
  6  7  1  0
  6  8  1  0
  8  9  1  6
  9  3  1  0
 10  8  1  0
 10 15  1  0
 11 10  2  0
 12 13  1  0
 14 15  1  0
 14 13  1  6
 14 16  1  0
 16 18  1  0
 17 16  2  0
M  END
$$$$
