GTS.pdb
     RDKit          3D

 18 17  0  0  1  0  0  0  0  0999 V2000
   -4.1528  -28.7882   28.0591 N   0  0  0  0  0  0  0  0  0  0  0  0
   -5.3731  -28.5442   28.7807 C   0  0  0  0  0  0  0  0  0  0  0  0
   -5.9440  -27.2417   28.3479 C   0  0  0  0  0  0  0  0  0  0  0  0
   -5.1787  -26.3267   27.9447 O   0  0  0  0  0  0  0  0  0  0  0  0
   -9.8453  -24.4940   27.0966 C   0  0  0  0  0  0  0  0  0  0  0  0
   -9.3738  -25.8351   27.6151 C   0  0  1  0  0  0  0  0  0  0  0  0
   -9.5558  -26.8408   26.6961 O   0  0  0  0  0  0  0  0  0  0  0  0
   -7.9127  -25.7323   28.0030 C   0  0  2  0  0  0  0  0  0  0  0  0
   -7.3535  -26.9928   28.3758 N   0  0  0  0  0  0  0  0  0  0  0  0
   -7.7112  -24.7220   29.0739 C   0  0  0  0  0  0  0  0  0  0  0  0
   -8.0334  -24.9291   30.2582 O   0  0  0  0  0  0  0  0  0  0  0  0
   -4.6897  -22.0637   28.7660 O   0  0  0  0  0  0  0  0  0  0  0  0
   -5.8087  -21.4441   29.3016 C   0  0  0  0  0  0  0  0  0  0  0  0
   -6.8396  -22.4465   29.7467 C   0  0  2  0  0  0  0  0  0  0  0  0
   -7.1282  -23.4490   28.7793 N   0  0  0  0  0  0  0  0  0  0  0  0
   -8.0171  -21.7130   30.2273 C   0  0  0  0  0  0  0  0  0  0  0  0
   -9.0982  -21.7990   29.6027 O   0  0  0  0  0  0  0  0  0  0  0  0
   -7.9357  -20.9363   31.3551 O   0  0  0  0  0  0  0  0  0  0  0  0
  2  1  1  0
  3  2  1  0
  4  3  2  0
  6  5  1  6
  6  7  1  0
  6  8  1  0
  8  9  1  1
  9  3  1  0
 10  8  1  0
 10 15  1  0
 11 10  2  0
 12 13  1  0
 14 15  1  0
 14 13  1  6
 14 16  1  0
 16 18  1  0
 17 16  2  0
M  END
$$$$
