DEC.pdb
     RDKit          3D

 24 23  0  0  1  0  0  0  0  0999 V2000
   18.7759  -12.2861  -18.0960 N   0  0  0  0  0  0  0  0  0  0  0  0
   19.7354  -11.7035  -17.2121 C   0  0  1  0  0  0  0  0  0  0  0  0
   21.1117  -11.6306  -17.8068 C   0  0  0  0  0  0  0  0  0  0  0  0
   21.5871  -13.0006  -18.0802 C   0  0  0  0  0  0  0  0  0  0  0  0
   21.3752  -13.9074  -17.2568 O   0  0  0  0  0  0  0  0  0  0  0  0
   19.2962  -10.3615  -16.7165 C   0  0  0  0  0  0  0  0  0  0  0  0
   18.8839   -9.5457  -17.5644 O   0  0  0  0  0  0  0  0  0  0  0  0
   22.2706  -13.2002  -19.2916 O   0  0  0  0  0  0  0  0  0  0  0  0
   19.3286   -9.9945  -15.3738 N   0  0  0  0  0  0  0  0  0  0  0  0
   18.8669   -8.6458  -14.9870 C   0  0  1  0  0  0  0  0  0  0  0  0
   17.7609   -8.7886  -13.9915 C   0  0  0  0  0  0  0  0  0  0  0  0
   16.4211   -8.5264  -14.5739 C   0  0  0  0  0  0  0  0  0  0  0  0
   15.2813   -8.6696  -13.6426 C   0  0  0  0  0  0  0  0  0  0  0  0
   14.1277   -8.4503  -14.0672 O   0  0  0  0  0  0  0  0  0  0  0  0
   20.0632   -7.9285  -14.5020 C   0  0  0  0  0  0  0  0  0  0  0  0
   20.7453   -8.4699  -13.5646 O   0  0  0  0  0  0  0  0  0  0  0  0
   15.4112   -9.0327  -12.3247 O   0  0  0  0  0  0  0  0  0  0  0  0
   20.5294   -6.6858  -14.9896 N   0  0  0  0  0  0  0  0  0  0  0  0
   21.7839   -6.0866  -14.6313 C   0  0  1  0  0  0  0  0  0  0  0  0
   22.6511   -5.7064  -15.7827 C   0  0  0  0  0  0  0  0  0  0  0  0
   22.6513   -7.0334  -17.0408 S   0  0  0  0  0  0  0  0  0  0  0  0
   21.6356   -4.9988  -13.6196 C   0  0  0  0  0  0  0  0  0  0  0  0
   20.5191   -4.5323  -13.3402 O   0  0  0  0  0  0  0  0  0  0  0  0
   22.7497   -4.4967  -12.9790 O   0  0  0  0  0  0  0  0  0  0  0  0
  2  1  1  6
  2  3  1  0
  3  4  1  0
  4  5  2  0
  4  8  1  0
  6  2  1  0
  6  9  1  0
  7  6  2  0
 10  9  1  0
 10 15  1  0
 10 11  1  1
 12 11  1  0
 13 12  1  0
 14 13  2  0
 15 18  1  0
 16 15  2  0
 17 13  1  0
 18 19  1  0
 19 20  1  6
 19 22  1  0
 20 21  1  0
 22 24  1  0
 23 22  2  0
M  END
$$$$
