DEC.pdb
     RDKit          3D

 24 23  0  0  1  0  0  0  0  0999 V2000
   16.9817  -10.6129  -17.1913 N   0  0  0  0  0  0  0  0  0  0  0  0
   16.8999   -9.9108  -15.9497 C   0  0  1  0  0  0  0  0  0  0  0  0
   17.7209  -10.5430  -14.8637 C   0  0  0  0  0  0  0  0  0  0  0  0
   17.2486  -11.9248  -14.6509 C   0  0  0  0  0  0  0  0  0  0  0  0
   16.0633  -12.1352  -14.3410 O   0  0  0  0  0  0  0  0  0  0  0  0
   17.2425   -8.4621  -16.1033 C   0  0  0  0  0  0  0  0  0  0  0  0
   18.0570   -8.1589  -16.9971 O   0  0  0  0  0  0  0  0  0  0  0  0
   18.1977  -12.9476  -14.8171 O   0  0  0  0  0  0  0  0  0  0  0  0
   16.6993   -7.4595  -15.3044 N   0  0  0  0  0  0  0  0  0  0  0  0
   17.1163   -6.0600  -15.5264 C   0  0  1  0  0  0  0  0  0  0  0  0
   15.9675   -5.1627  -15.1949 C   0  0  0  0  0  0  0  0  0  0  0  0
   16.2903   -3.7237  -15.3627 C   0  0  0  0  0  0  0  0  0  0  0  0
   15.1631   -2.7887  -15.1576 C   0  0  0  0  0  0  0  0  0  0  0  0
   14.9082   -1.9512  -16.0480 O   0  0  0  0  0  0  0  0  0  0  0  0
   18.3289   -5.8608  -14.7074 C   0  0  0  0  0  0  0  0  0  0  0  0
   18.3791   -6.4344  -13.5647 O   0  0  0  0  0  0  0  0  0  0  0  0
   14.3690   -2.7820  -14.0374 O   0  0  0  0  0  0  0  0  0  0  0  0
   19.4532   -5.0881  -15.0794 N   0  0  0  0  0  0  0  0  0  0  0  0
   20.6155   -4.8904  -14.2601 C   0  0  1  0  0  0  0  0  0  0  0  0
   21.6887   -5.9104  -14.4339 C   0  0  0  0  0  0  0  0  0  0  0  0
   23.1342   -5.4923  -13.3949 S   0  0  0  0  0  0  0  0  0  0  0  0
   21.1221   -3.4868  -14.3065 C   0  0  0  0  0  0  0  0  0  0  0  0
   20.9983   -2.7951  -15.3305 O   0  0  0  0  0  0  0  0  0  0  0  0
   21.7388   -2.9396  -13.2002 O   0  0  0  0  0  0  0  0  0  0  0  0
  2  1  1  6
  2  3  1  0
  3  4  1  0
  4  5  2  0
  4  8  1  0
  6  2  1  0
  6  9  1  0
  7  6  2  0
 10  9  1  0
 10 15  1  0
 10 11  1  1
 12 11  1  0
 13 12  1  0
 14 13  2  0
 15 18  1  0
 16 15  2  0
 17 13  1  0
 18 19  1  0
 19 20  1  6
 19 22  1  0
 20 21  1  0
 22 24  1  0
 23 22  2  0
M  END
$$$$
