DEC.pdb
     RDKit          3D

 24 23  0  0  1  0  0  0  0  0999 V2000
   18.5220  -12.2776  -17.2115 N   0  0  0  0  0  0  0  0  0  0  0  0
   17.7870  -11.2424  -16.5562 C   0  0  1  0  0  0  0  0  0  0  0  0
   17.4278  -11.5854  -15.1396 C   0  0  0  0  0  0  0  0  0  0  0  0
   16.4299  -12.6724  -15.1497 C   0  0  0  0  0  0  0  0  0  0  0  0
   15.7543  -12.8858  -16.1711 O   0  0  0  0  0  0  0  0  0  0  0  0
   18.4950   -9.9257  -16.6236 C   0  0  0  0  0  0  0  0  0  0  0  0
   19.6414   -9.9173  -17.1134 O   0  0  0  0  0  0  0  0  0  0  0  0
   16.3021  -13.4212  -13.9676 O   0  0  0  0  0  0  0  0  0  0  0  0
   17.9363   -8.7335  -16.1706 N   0  0  0  0  0  0  0  0  0  0  0  0
   18.6306   -7.4614  -16.4561 C   0  0  1  0  0  0  0  0  0  0  0  0
   17.6061   -6.3830  -16.6048 C   0  0  0  0  0  0  0  0  0  0  0  0
   18.2016   -5.0569  -16.9048 C   0  0  0  0  0  0  0  0  0  0  0  0
   17.2366   -3.9533  -17.0992 C   0  0  0  0  0  0  0  0  0  0  0  0
   16.9973   -3.1893  -16.1410 O   0  0  0  0  0  0  0  0  0  0  0  0
   19.5956   -7.2672  -15.3552 C   0  0  0  0  0  0  0  0  0  0  0  0
   19.1874   -7.4715  -14.1599 O   0  0  0  0  0  0  0  0  0  0  0  0
   16.5786   -3.7116  -18.2799 O   0  0  0  0  0  0  0  0  0  0  0  0
   20.9459   -6.8758  -15.5064 N   0  0  0  0  0  0  0  0  0  0  0  0
   21.8980   -6.7966  -14.4348 C   0  0  1  0  0  0  0  0  0  0  0  0
   23.1725   -7.5334  -14.6698 C   0  0  0  0  0  0  0  0  0  0  0  0
   22.8346   -9.3069  -14.9598 S   0  0  0  0  0  0  0  0  0  0  0  0
   22.1046   -5.4002  -13.9487 C   0  0  0  0  0  0  0  0  0  0  0  0
   21.8135   -4.4250  -14.6603 O   0  0  0  0  0  0  0  0  0  0  0  0
   22.6262   -5.1783  -12.6908 O   0  0  0  0  0  0  0  0  0  0  0  0
  2  1  1  1
  2  3  1  0
  3  4  1  0
  4  5  2  0
  4  8  1  0
  6  2  1  0
  6  9  1  0
  7  6  2  0
 10  9  1  0
 10 15  1  0
 10 11  1  1
 12 11  1  0
 13 12  1  0
 14 13  2  0
 15 18  1  0
 16 15  2  0
 17 13  1  0
 18 19  1  0
 19 20  1  6
 19 22  1  0
 20 21  1  0
 22 24  1  0
 23 22  2  0
M  END
$$$$
