DEC.pdb
     RDKit          3D

 24 23  0  0  1  0  0  0  0  0999 V2000
   17.0445  -11.6086  -14.2425 N   0  0  0  0  0  0  0  0  0  0  0  0
   16.0662  -10.8054  -13.5798 C   0  0  1  0  0  0  0  0  0  0  0  0
   14.9714  -11.6163  -12.9496 C   0  0  0  0  0  0  0  0  0  0  0  0
   14.1559  -12.2284  -14.0163 C   0  0  0  0  0  0  0  0  0  0  0  0
   13.9691  -11.6180  -15.0829 O   0  0  0  0  0  0  0  0  0  0  0  0
   16.6867   -9.8791  -12.5816 C   0  0  0  0  0  0  0  0  0  0  0  0
   17.6294  -10.3239  -11.8976 O   0  0  0  0  0  0  0  0  0  0  0  0
   13.6253  -13.5023  -13.7512 O   0  0  0  0  0  0  0  0  0  0  0  0
   16.2624   -8.5670  -12.3897 N   0  0  0  0  0  0  0  0  0  0  0  0
   17.0134   -7.6984  -11.4605 C   0  0  1  0  0  0  0  0  0  0  0  0
   17.9751   -6.8727  -12.2529 C   0  0  0  0  0  0  0  0  0  0  0  0
   17.3189   -6.1048  -13.3404 C   0  0  0  0  0  0  0  0  0  0  0  0
   18.2244   -5.3036  -14.1919 C   0  0  0  0  0  0  0  0  0  0  0  0
   17.7393   -4.6632  -15.1478 O   0  0  0  0  0  0  0  0  0  0  0  0
   15.9992   -6.9348  -10.7060 C   0  0  0  0  0  0  0  0  0  0  0  0
   15.0111   -6.4482  -11.3571 O   0  0  0  0  0  0  0  0  0  0  0  0
   19.5809   -5.2174  -13.9969 O   0  0  0  0  0  0  0  0  0  0  0  0
   16.0207   -6.6950   -9.3126 N   0  0  0  0  0  0  0  0  0  0  0  0
   15.0356   -5.9314   -8.6001 C   0  0  1  0  0  0  0  0  0  0  0  0
   14.7158   -6.4355   -7.2341 C   0  0  0  0  0  0  0  0  0  0  0  0
   14.2729   -8.2085   -7.3009 S   0  0  0  0  0  0  0  0  0  0  0  0
   15.3043   -4.4633   -8.6395 C   0  0  0  0  0  0  0  0  0  0  0  0
   14.4866   -3.6503   -8.1785 O   0  0  0  0  0  0  0  0  0  0  0  0
   16.4763   -3.9917   -9.1944 O   0  0  0  0  0  0  0  0  0  0  0  0
  2  1  1  1
  2  3  1  0
  3  4  1  0
  4  5  2  0
  4  8  1  0
  6  2  1  0
  6  9  1  0
  7  6  2  0
 10  9  1  0
 10 15  1  0
 10 11  1  6
 12 11  1  0
 13 12  1  0
 14 13  2  0
 15 18  1  0
 16 15  2  0
 17 13  1  0
 18 19  1  0
 19 20  1  1
 19 22  1  0
 20 21  1  0
 22 24  1  0
 23 22  2  0
M  END
$$$$
