DEC.pdb
     RDKit          3D

 24 23  0  0  1  0  0  0  0  0999 V2000
   17.3863  -12.7044  -15.4605 N   0  0  0  0  0  0  0  0  0  0  0  0
   17.2120  -11.2900  -15.5620 C   0  0  1  0  0  0  0  0  0  0  0  0
   16.1098  -10.7708  -14.6853 C   0  0  0  0  0  0  0  0  0  0  0  0
   14.8159  -11.2441  -15.2140 C   0  0  0  0  0  0  0  0  0  0  0  0
   14.6356  -11.3160  -16.4418 O   0  0  0  0  0  0  0  0  0  0  0  0
   18.4882  -10.5501  -15.3098 C   0  0  0  0  0  0  0  0  0  0  0  0
   19.0212  -10.6940  -14.1921 O   0  0  0  0  0  0  0  0  0  0  0  0
   13.8386  -11.5944  -14.2670 O   0  0  0  0  0  0  0  0  0  0  0  0
   19.0922   -9.7242  -16.2541 N   0  0  0  0  0  0  0  0  0  0  0  0
   20.3589   -9.0470  -15.9099 C   0  0  1  0  0  0  0  0  0  0  0  0
   21.0827   -8.7190  -17.1761 C   0  0  0  0  0  0  0  0  0  0  0  0
   21.7132   -9.9058  -17.8061 C   0  0  0  0  0  0  0  0  0  0  0  0
   22.4761   -9.6409  -19.0449 C   0  0  0  0  0  0  0  0  0  0  0  0
   22.0413  -10.0909  -20.1255 O   0  0  0  0  0  0  0  0  0  0  0  0
   19.9874   -7.8857  -15.0767 C   0  0  0  0  0  0  0  0  0  0  0  0
   18.8931   -7.2809  -15.3486 O   0  0  0  0  0  0  0  0  0  0  0  0
   23.6461   -8.9234  -19.0841 O   0  0  0  0  0  0  0  0  0  0  0  0
   20.7390   -7.3800  -13.9910 N   0  0  0  0  0  0  0  0  0  0  0  0
   20.4016   -6.2024  -13.2423 C   0  0  1  0  0  0  0  0  0  0  0  0
   19.7388   -6.4585  -11.9318 C   0  0  0  0  0  0  0  0  0  0  0  0
   19.6386   -4.9128  -10.9599 S   0  0  0  0  0  0  0  0  0  0  0  0
   21.5328   -5.2323  -13.1520 C   0  0  0  0  0  0  0  0  0  0  0  0
   22.7037   -5.6247  -13.0210 O   0  0  0  0  0  0  0  0  0  0  0  0
   21.2848   -3.8764  -13.2141 O   0  0  0  0  0  0  0  0  0  0  0  0
  2  1  1  1
  2  3  1  0
  3  4  1  0
  4  5  2  0
  4  8  1  0
  6  2  1  0
  6  9  1  0
  7  6  2  0
 10  9  1  0
 10 15  1  0
 10 11  1  6
 12 11  1  0
 13 12  1  0
 14 13  2  0
 15 18  1  0
 16 15  2  0
 17 13  1  0
 18 19  1  0
 19 20  1  1
 19 22  1  0
 20 21  1  0
 22 24  1  0
 23 22  2  0
M  END
$$$$
