DEC.pdb
     RDKit          3D

 24 23  0  0  1  0  0  0  0  0999 V2000
   16.8876  -11.3794  -15.6035 N   0  0  0  0  0  0  0  0  0  0  0  0
   16.2234  -11.3767  -14.3385 C   0  0  1  0  0  0  0  0  0  0  0  0
   15.9698  -12.7573  -13.8067 C   0  0  0  0  0  0  0  0  0  0  0  0
   14.9886  -13.4321  -14.6781 C   0  0  0  0  0  0  0  0  0  0  0  0
   14.5605  -14.5590  -14.3751 O   0  0  0  0  0  0  0  0  0  0  0  0
   16.9461  -10.5403  -13.3297 C   0  0  0  0  0  0  0  0  0  0  0  0
   16.9731  -10.9573  -12.1551 O   0  0  0  0  0  0  0  0  0  0  0  0
   14.5874  -12.7367  -15.8315 O   0  0  0  0  0  0  0  0  0  0  0  0
   17.5770   -9.3394  -13.6435 N   0  0  0  0  0  0  0  0  0  0  0  0
   18.2617   -8.5871  -12.5727 C   0  0  1  0  0  0  0  0  0  0  0  0
   19.2942   -7.7043  -13.1965 C   0  0  0  0  0  0  0  0  0  0  0  0
   19.9743   -6.8251  -12.2129 C   0  0  0  0  0  0  0  0  0  0  0  0
   20.9999   -5.9172  -12.7705 C   0  0  0  0  0  0  0  0  0  0  0  0
   21.5039   -5.0510  -12.0256 O   0  0  0  0  0  0  0  0  0  0  0  0
   17.1999   -7.8844  -11.8246 C   0  0  0  0  0  0  0  0  0  0  0  0
   16.2461   -7.3566  -12.4946 O   0  0  0  0  0  0  0  0  0  0  0  0
   21.4391   -5.9659  -14.0706 O   0  0  0  0  0  0  0  0  0  0  0  0
   17.1404   -7.7453  -10.4187 N   0  0  0  0  0  0  0  0  0  0  0  0
   16.1613   -6.9650   -9.7159 C   0  0  1  0  0  0  0  0  0  0  0  0
   15.2765   -7.7414   -8.8012 C   0  0  0  0  0  0  0  0  0  0  0  0
   14.1734   -6.6125   -7.8779 S   0  0  0  0  0  0  0  0  0  0  0  0
   16.7432   -5.7459   -9.0803 C   0  0  0  0  0  0  0  0  0  0  0  0
   17.9317   -5.7165   -8.7210 O   0  0  0  0  0  0  0  0  0  0  0  0
   15.9574   -4.6289   -8.8842 O   0  0  0  0  0  0  0  0  0  0  0  0
  2  1  1  6
  2  3  1  0
  3  4  1  0
  4  5  2  0
  4  8  1  0
  6  2  1  0
  6  9  1  0
  7  6  2  0
 10  9  1  0
 10 15  1  0
 10 11  1  6
 12 11  1  0
 13 12  1  0
 14 13  2  0
 15 18  1  0
 16 15  2  0
 17 13  1  0
 18 19  1  0
 19 20  1  1
 19 22  1  0
 20 21  1  0
 22 24  1  0
 23 22  2  0
M  END
$$$$
