DEC.pdb
     RDKit          3D

 24 23  0  0  1  0  0  0  0  0999 V2000
   13.5226   -9.1930  -10.5590 N   0  0  0  0  0  0  0  0  0  0  0  0
   14.8947   -9.1292  -10.1656 C   0  0  1  0  0  0  0  0  0  0  0  0
   15.7105  -10.2718  -10.6970 C   0  0  0  0  0  0  0  0  0  0  0  0
   15.0776  -11.5409  -10.2890 C   0  0  0  0  0  0  0  0  0  0  0  0
   14.4742  -11.6135   -9.2046 O   0  0  0  0  0  0  0  0  0  0  0  0
   15.5180   -7.8165  -10.5231 C   0  0  0  0  0  0  0  0  0  0  0  0
   15.3450   -7.3989  -11.6849 O   0  0  0  0  0  0  0  0  0  0  0  0
   15.2005  -12.6209  -11.1794 O   0  0  0  0  0  0  0  0  0  0  0  0
   16.2683   -7.0580   -9.6285 N   0  0  0  0  0  0  0  0  0  0  0  0
   16.7840   -5.7426  -10.0592 C   0  0  1  0  0  0  0  0  0  0  0  0
   16.4357   -4.7300   -9.0161 C   0  0  0  0  0  0  0  0  0  0  0  0
   16.9701   -3.3791   -9.3202 C   0  0  0  0  0  0  0  0  0  0  0  0
   16.5728   -2.3091   -8.3797 C   0  0  0  0  0  0  0  0  0  0  0  0
   15.4577   -2.3830   -7.8226 O   0  0  0  0  0  0  0  0  0  0  0  0
   18.2292   -5.9294  -10.2990 C   0  0  0  0  0  0  0  0  0  0  0  0
   18.9050   -6.5604   -9.4145 O   0  0  0  0  0  0  0  0  0  0  0  0
   17.3606   -1.2263   -8.0759 O   0  0  0  0  0  0  0  0  0  0  0  0
   18.9392   -5.4723  -11.4332 N   0  0  0  0  0  0  0  0  0  0  0  0
   20.2074   -5.9881  -11.8654 C   0  0  1  0  0  0  0  0  0  0  0  0
   20.2671   -7.4706  -12.0105 C   0  0  0  0  0  0  0  0  0  0  0  0
   21.9409   -7.9889  -12.5337 S   0  0  0  0  0  0  0  0  0  0  0  0
   20.7556   -5.2570  -13.0459 C   0  0  0  0  0  0  0  0  0  0  0  0
   20.0368   -4.9869  -14.0220 O   0  0  0  0  0  0  0  0  0  0  0  0
   22.0800   -4.8705  -13.0633 O   0  0  0  0  0  0  0  0  0  0  0  0
  2  1  1  6
  2  3  1  0
  3  4  1  0
  4  5  2  0
  4  8  1  0
  6  2  1  0
  6  9  1  0
  7  6  2  0
 10  9  1  0
 10 15  1  0
 10 11  1  1
 12 11  1  0
 13 12  1  0
 14 13  2  0
 15 18  1  0
 16 15  2  0
 17 13  1  0
 18 19  1  0
 19 20  1  6
 19 22  1  0
 20 21  1  0
 22 24  1  0
 23 22  2  0
M  END
$$$$
