DEC.pdb
     RDKit          3D

 24 23  0  0  1  0  0  0  0  0999 V2000
   14.7838  -23.6663   -3.2471 N   0  0  0  0  0  0  0  0  0  0  0  0
   14.2920  -24.0967   -1.9766 C   0  0  1  0  0  0  0  0  0  0  0  0
   14.7743  -25.4659   -1.5946 C   0  0  0  0  0  0  0  0  0  0  0  0
   14.3237  -26.4327   -2.6143 C   0  0  0  0  0  0  0  0  0  0  0  0
   15.0524  -27.3898   -2.9275 O   0  0  0  0  0  0  0  0  0  0  0  0
   14.5906  -23.1048   -0.8966 C   0  0  0  0  0  0  0  0  0  0  0  0
   15.7690  -22.7119   -0.7910 O   0  0  0  0  0  0  0  0  0  0  0  0
   13.0602  -26.2036   -3.1849 O   0  0  0  0  0  0  0  0  0  0  0  0
   13.6249  -22.6129   -0.0224 N   0  0  0  0  0  0  0  0  0  0  0  0
   14.0025  -21.5660    0.9488 C   0  0  1  0  0  0  0  0  0  0  0  0
   12.7697  -20.8214    1.3494 C   0  0  0  0  0  0  0  0  0  0  0  0
   12.7174  -19.4468    0.7918 C   0  0  0  0  0  0  0  0  0  0  0  0
   11.4827  -18.6867    1.0831 C   0  0  0  0  0  0  0  0  0  0  0  0
   10.5898  -18.6352    0.2118 O   0  0  0  0  0  0  0  0  0  0  0  0
   14.7038  -22.2616    2.0466 C   0  0  0  0  0  0  0  0  0  0  0  0
   14.7163  -23.5410    2.0317 O   0  0  0  0  0  0  0  0  0  0  0  0
   11.2521  -18.0256    2.2643 O   0  0  0  0  0  0  0  0  0  0  0  0
   15.3736  -21.6330    3.1216 N   0  0  0  0  0  0  0  0  0  0  0  0
   15.9991  -22.3268    4.2118 C   0  0  1  0  0  0  0  0  0  0  0  0
   17.3232  -22.9338    3.8944 C   0  0  0  0  0  0  0  0  0  0  0  0
   18.5022  -22.6310    5.2590 S   0  0  0  0  0  0  0  0  0  0  0  0
   16.0017  -21.5323    5.4758 C   0  0  0  0  0  0  0  0  0  0  0  0
   16.1039  -20.2948    5.4537 O   0  0  0  0  0  0  0  0  0  0  0  0
   15.8892  -22.1726    6.6927 O   0  0  0  0  0  0  0  0  0  0  0  0
  2  1  1  6
  2  3  1  0
  3  4  1  0
  4  5  2  0
  4  8  1  0
  6  2  1  0
  6  9  1  0
  7  6  2  0
 10  9  1  0
 10 15  1  0
 10 11  1  1
 12 11  1  0
 13 12  1  0
 14 13  2  0
 15 18  1  0
 16 15  2  0
 17 13  1  0
 18 19  1  0
 19 20  1  6
 19 22  1  0
 20 21  1  0
 22 24  1  0
 23 22  2  0
M  END
$$$$
