DEC.pdb
     RDKit          3D

 24 23  0  0  1  0  0  0  0  0999 V2000
   18.0813  -11.7213  -15.1761 N   0  0  0  0  0  0  0  0  0  0  0  0
   17.3574  -10.5077  -14.9653 C   0  0  1  0  0  0  0  0  0  0  0  0
   15.8703  -10.7096  -14.9375 C   0  0  0  0  0  0  0  0  0  0  0  0
   15.4065  -11.0325  -16.3007 C   0  0  0  0  0  0  0  0  0  0  0  0
   15.9360  -10.4847  -17.2829 O   0  0  0  0  0  0  0  0  0  0  0  0
   17.8213   -9.7860  -13.7392 C   0  0  0  0  0  0  0  0  0  0  0  0
   17.9941  -10.4643  -12.7075 O   0  0  0  0  0  0  0  0  0  0  0  0
   14.3631  -11.9678  -16.4061 O   0  0  0  0  0  0  0  0  0  0  0  0
   18.0629   -8.4152  -13.7046 N   0  0  0  0  0  0  0  0  0  0  0  0
   18.5446   -7.8027  -12.4498 C   0  0  1  0  0  0  0  0  0  0  0  0
   19.4960   -6.7017  -12.7922 C   0  0  0  0  0  0  0  0  0  0  0  0
   20.9180   -7.1182  -12.7055 C   0  0  0  0  0  0  0  0  0  0  0  0
   21.9086   -6.0910  -13.0933 C   0  0  0  0  0  0  0  0  0  0  0  0
   22.2449   -5.2329  -12.2508 O   0  0  0  0  0  0  0  0  0  0  0  0
   17.3368   -7.3851  -11.7097 C   0  0  0  0  0  0  0  0  0  0  0  0
   16.4365   -6.7401  -12.3506 O   0  0  0  0  0  0  0  0  0  0  0  0
   22.4897   -6.0189  -14.3353 O   0  0  0  0  0  0  0  0  0  0  0  0
   17.0820   -7.6411  -10.3426 N   0  0  0  0  0  0  0  0  0  0  0  0
   15.9607   -7.1241   -9.6101 C   0  0  1  0  0  0  0  0  0  0  0  0
   15.2335   -8.1277   -8.7817 C   0  0  0  0  0  0  0  0  0  0  0  0
   13.8904   -7.3188   -7.8407 S   0  0  0  0  0  0  0  0  0  0  0  0
   16.2852   -5.8699   -8.8680 C   0  0  0  0  0  0  0  0  0  0  0  0
   15.4811   -4.9245   -8.8264 O   0  0  0  0  0  0  0  0  0  0  0  0
   17.4944   -5.7488   -8.2146 O   0  0  0  0  0  0  0  0  0  0  0  0
  2  1  1  1
  2  3  1  0
  3  4  1  0
  4  5  2  0
  4  8  1  0
  6  2  1  0
  6  9  1  0
  7  6  2  0
 10  9  1  0
 10 15  1  0
 10 11  1  6
 12 11  1  0
 13 12  1  0
 14 13  2  0
 15 18  1  0
 16 15  2  0
 17 13  1  0
 18 19  1  0
 19 20  1  1
 19 22  1  0
 20 21  1  0
 22 24  1  0
 23 22  2  0
M  END
$$$$
