DEC.pdb
     RDKit          3D

 24 23  0  0  1  0  0  0  0  0999 V2000
   18.1347  -11.3800  -15.3522 N   0  0  0  0  0  0  0  0  0  0  0  0
   17.1488  -10.6478  -14.6220 C   0  0  1  0  0  0  0  0  0  0  0  0
   16.0266  -11.5116  -14.1241 C   0  0  0  0  0  0  0  0  0  0  0  0
   15.1645  -11.8787  -15.2641 C   0  0  0  0  0  0  0  0  0  0  0  0
   15.0888  -11.1285  -16.2524 O   0  0  0  0  0  0  0  0  0  0  0  0
   17.7532   -9.8599  -13.5025 C   0  0  0  0  0  0  0  0  0  0  0  0
   18.2641  -10.5007  -12.5631 O   0  0  0  0  0  0  0  0  0  0  0  0
   14.4615  -13.0907  -15.1575 O   0  0  0  0  0  0  0  0  0  0  0  0
   17.7679   -8.4680  -13.4684 N   0  0  0  0  0  0  0  0  0  0  0  0
   18.4175   -7.7847  -12.3314 C   0  0  1  0  0  0  0  0  0  0  0  0
   19.5754   -6.9941  -12.8497 C   0  0  0  0  0  0  0  0  0  0  0  0
   20.2693   -6.2214  -11.7893 C   0  0  0  0  0  0  0  0  0  0  0  0
   21.4281   -5.4199  -12.2384 C   0  0  0  0  0  0  0  0  0  0  0  0
   22.3808   -6.0025  -12.7971 O   0  0  0  0  0  0  0  0  0  0  0  0
   17.3589   -6.9942  -11.6715 C   0  0  0  0  0  0  0  0  0  0  0  0
   16.7371   -6.1242  -12.3741 O   0  0  0  0  0  0  0  0  0  0  0  0
   21.5253   -4.0596  -12.0785 O   0  0  0  0  0  0  0  0  0  0  0  0
   16.9640   -7.1176  -10.3194 N   0  0  0  0  0  0  0  0  0  0  0  0
   15.9501   -6.3205   -9.6887 C   0  0  1  0  0  0  0  0  0  0  0  0
   15.2215   -6.9943   -8.5763 C   0  0  0  0  0  0  0  0  0  0  0  0
   14.6788   -8.6622   -9.0931 S   0  0  0  0  0  0  0  0  0  0  0  0
   16.4290   -4.9510   -9.3366 C   0  0  0  0  0  0  0  0  0  0  0  0
   15.6393   -4.0798   -8.9369 O   0  0  0  0  0  0  0  0  0  0  0  0
   17.7676   -4.6376   -9.4533 O   0  0  0  0  0  0  0  0  0  0  0  0
  2  1  1  1
  2  3  1  0
  3  4  1  0
  4  5  2  0
  4  8  1  0
  6  2  1  0
  6  9  1  0
  7  6  2  0
 10  9  1  0
 10 15  1  0
 10 11  1  6
 12 11  1  0
 13 12  1  0
 14 13  2  0
 15 18  1  0
 16 15  2  0
 17 13  1  0
 18 19  1  0
 19 20  1  1
 19 22  1  0
 20 21  1  0
 22 24  1  0
 23 22  2  0
M  END
$$$$
