GYP.pdb
     RDKit          3D

 24 25  0  0  1  0  0  0  0  0999 V2000
   26.9188  -20.8917  -13.6292 N   0  0  0  0  0  0  0  0  0  0  0  0
   27.8514  -21.0311  -12.5493 C   0  0  0  0  0  0  0  0  0  0  0  0
   27.3734  -20.3500  -11.3096 C   0  0  0  0  0  0  0  0  0  0  0  0
   26.5754  -19.4140  -11.4363 O   0  0  0  0  0  0  0  0  0  0  0  0
   21.8382  -19.7321  -12.6674 O   0  0  0  0  0  0  0  0  0  0  0  0
   22.7925  -20.1687  -11.7587 C   0  0  0  0  0  0  0  0  0  0  0  0
   23.6821  -21.1375  -12.1341 C   0  0  0  0  0  0  0  0  0  0  0  0
   24.6531  -21.5965  -11.2417 C   0  0  0  0  0  0  0  0  0  0  0  0
   24.7368  -21.0859   -9.9677 C   0  0  0  0  0  0  0  0  0  0  0  0
   25.7353  -21.5290   -8.9979 C   0  0  0  0  0  0  0  0  0  0  0  0
   26.9444  -20.5707   -8.9071 C   0  0  2  0  0  0  0  0  0  0  0  0
   27.8023  -20.7409  -10.0133 N   0  0  0  0  0  0  0  0  0  0  0  0
   27.4719  -20.7184   -7.5600 C   0  0  0  0  0  0  0  0  0  0  0  0
   27.1035  -21.8928   -7.0490 O   0  0  0  0  0  0  0  0  0  0  0  0
   23.8196  -20.1082   -9.6263 C   0  0  0  0  0  0  0  0  0  0  0  0
   22.8565  -19.6478  -10.5003 C   0  0  0  0  0  0  0  0  0  0  0  0
   28.2373  -19.9682   -6.7191 N   0  0  0  0  0  0  0  0  0  0  0  0
   29.2345  -18.9541   -7.2695 C   0  0  0  0  0  0  0  0  0  0  0  0
   28.8362  -17.7259   -6.4277 C   0  0  0  0  0  0  0  0  0  0  0  0
   28.0397  -18.2927   -5.2273 C   0  0  0  0  0  0  0  0  0  0  0  0
   28.4813  -19.7524   -5.3296 C   0  0  1  0  0  0  0  0  0  0  0  0
   28.0650  -20.6490   -4.3128 C   0  0  0  0  0  0  0  0  0  0  0  0
   28.9022  -21.1630   -3.4886 O   0  0  0  0  0  0  0  0  0  0  0  0
   26.7568  -21.0527   -4.1218 O   0  0  0  0  0  0  0  0  0  0  0  0
  2  1  1  0
  3  2  1  0
  3 12  1  0
  4  3  2  0
  6  7  2  0
  6  5  1  0
  8  7  1  0
  9  8  2  0
 10  9  1  0
 11 10  1  6
 11 12  1  0
 13 17  1  0
 13 11  1  0
 14 13  2  0
 15  9  1  0
 15 16  2  0
 16  6  1  0
 17 18  1  0
 19 18  1  0
 20 19  1  0
 20 21  1  0
 21 17  1  0
 21 22  1  1
 22 24  1  0
 23 22  2  0
M  END
$$$$
