GYP.pdb
     RDKit          3D

 24 25  0  0  1  0  0  0  0  0999 V2000
   23.4461  -22.5904  -15.0319 N   0  0  0  0  0  0  0  0  0  0  0  0
   23.3773  -21.7355  -13.8832 C   0  0  0  0  0  0  0  0  0  0  0  0
   24.7016  -21.6051  -13.2062 C   0  0  0  0  0  0  0  0  0  0  0  0
   25.5078  -22.5343  -13.3312 O   0  0  0  0  0  0  0  0  0  0  0  0
   28.2807  -18.9466  -17.5639 O   0  0  0  0  0  0  0  0  0  0  0  0
   27.9992  -19.0214  -16.2067 C   0  0  0  0  0  0  0  0  0  0  0  0
   27.1541  -18.1038  -15.6457 C   0  0  0  0  0  0  0  0  0  0  0  0
   26.8524  -18.1539  -14.2831 C   0  0  0  0  0  0  0  0  0  0  0  0
   27.3969  -19.1249  -13.4761 C   0  0  0  0  0  0  0  0  0  0  0  0
   27.1110  -19.2231  -12.0470 C   0  0  0  0  0  0  0  0  0  0  0  0
   26.2525  -20.4589  -11.6944 C   0  0  2  0  0  0  0  0  0  0  0  0
   25.0538  -20.4642  -12.4371 N   0  0  0  0  0  0  0  0  0  0  0  0
   26.1974  -20.5067  -10.2420 C   0  0  0  0  0  0  0  0  0  0  0  0
   25.0154  -20.0657   -9.8127 O   0  0  0  0  0  0  0  0  0  0  0  0
   28.2465  -20.0340  -14.0809 C   0  0  0  0  0  0  0  0  0  0  0  0
   28.5511  -19.9933  -15.4258 C   0  0  0  0  0  0  0  0  0  0  0  0
   27.0384  -20.8898   -9.2411 N   0  0  0  0  0  0  0  0  0  0  0  0
   28.2916  -21.7037   -9.5454 C   0  0  0  0  0  0  0  0  0  0  0  0
   29.3303  -20.8658   -8.7741 C   0  0  0  0  0  0  0  0  0  0  0  0
   28.5090  -20.0079   -7.7811 C   0  0  0  0  0  0  0  0  0  0  0  0
   27.2007  -20.7971   -7.8262 C   0  0  1  0  0  0  0  0  0  0  0  0
   26.1598  -20.4157   -6.9418 C   0  0  0  0  0  0  0  0  0  0  0  0
   24.9596  -20.2372   -7.3568 O   0  0  0  0  0  0  0  0  0  0  0  0
   26.3328  -20.1959   -5.5881 O   0  0  0  0  0  0  0  0  0  0  0  0
  2  1  1  0
  3  2  1  0
  3 12  1  0
  4  3  2  0
  6  7  2  0
  6  5  1  0
  8  7  1  0
  9  8  2  0
 10  9  1  0
 11 10  1  1
 11 12  1  0
 13 17  1  0
 13 11  1  0
 14 13  2  0
 15  9  1  0
 15 16  2  0
 16  6  1  0
 17 18  1  0
 19 18  1  0
 20 19  1  0
 20 21  1  0
 21 17  1  0
 21 22  1  1
 22 24  1  0
 23 22  2  0
M  END
$$$$
