GYP.pdb
     RDKit          3D

 24 25  0  0  1  0  0  0  0  0999 V2000
   20.2671  -20.2133  -13.4927 N   0  0  0  0  0  0  0  0  0  0  0  0
   21.3043  -21.1566  -13.7921 C   0  0  0  0  0  0  0  0  0  0  0  0
   22.6633  -20.5736  -13.5860 C   0  0  0  0  0  0  0  0  0  0  0  0
   22.7478  -19.3514  -13.4187 O   0  0  0  0  0  0  0  0  0  0  0  0
   25.4146  -19.7260   -7.2033 O   0  0  0  0  0  0  0  0  0  0  0  0
   25.5573  -20.1669   -8.5119 C   0  0  0  0  0  0  0  0  0  0  0  0
   26.7204  -19.9084   -9.1835 C   0  0  0  0  0  0  0  0  0  0  0  0
   26.8926  -20.3395  -10.5006 C   0  0  0  0  0  0  0  0  0  0  0  0
   25.8987  -21.0323  -11.1507 C   0  0  0  0  0  0  0  0  0  0  0  0
   26.0302  -21.5079  -12.5257 C   0  0  0  0  0  0  0  0  0  0  0  0
   25.1059  -20.7537  -13.5082 C   0  0  2  0  0  0  0  0  0  0  0  0
   23.8393  -21.3699  -13.5772 N   0  0  0  0  0  0  0  0  0  0  0  0
   25.8812  -20.5679  -14.7244 C   0  0  0  0  0  0  0  0  0  0  0  0
   25.9795  -21.7203  -15.3866 O   0  0  0  0  0  0  0  0  0  0  0  0
   24.7379  -21.2738  -10.4378 C   0  0  0  0  0  0  0  0  0  0  0  0
   24.5577  -20.8523   -9.1366 C   0  0  0  0  0  0  0  0  0  0  0  0
   26.5091  -19.5258  -15.3373 N   0  0  0  0  0  0  0  0  0  0  0  0
   26.2570  -18.0908  -14.8868 C   0  0  0  0  0  0  0  0  0  0  0  0
   27.7149  -17.6123  -14.7406 C   0  0  0  0  0  0  0  0  0  0  0  0
   28.5614  -18.6235  -15.5515 C   0  0  0  0  0  0  0  0  0  0  0  0
   27.4393  -19.2452  -16.3826 C   0  0  1  0  0  0  0  0  0  0  0  0
   27.7925  -20.1804  -17.3885 C   0  0  0  0  0  0  0  0  0  0  0  0
   28.2686  -21.3340  -17.0935 O   0  0  0  0  0  0  0  0  0  0  0  0
   27.6713  -19.9442  -18.7451 O   0  0  0  0  0  0  0  0  0  0  0  0
  2  1  1  0
  3  2  1  0
  3 12  1  0
  4  3  2  0
  6  7  2  0
  6  5  1  0
  8  7  1  0
  9  8  2  0
 10  9  1  0
 11 10  1  1
 11 12  1  0
 13 17  1  0
 13 11  1  0
 14 13  2  0
 15  9  1  0
 15 16  2  0
 16  6  1  0
 17 18  1  0
 19 18  1  0
 20 19  1  0
 20 21  1  0
 21 17  1  0
 21 22  1  1
 22 24  1  0
 23 22  2  0
M  END
$$$$
