GYP.pdb
     RDKit          3D

 24 25  0  0  1  0  0  0  0  0999 V2000
   20.5918  -20.3838  -12.3397 N   0  0  0  0  0  0  0  0  0  0  0  0
   21.6290  -21.2514  -12.8160 C   0  0  0  0  0  0  0  0  0  0  0  0
   22.9555  -20.5670  -12.8492 C   0  0  0  0  0  0  0  0  0  0  0  0
   22.9701  -19.3325  -12.7803 O   0  0  0  0  0  0  0  0  0  0  0  0
   25.5514  -19.7177   -6.6992 O   0  0  0  0  0  0  0  0  0  0  0  0
   25.7796  -20.0707   -8.0222 C   0  0  0  0  0  0  0  0  0  0  0  0
   24.8900  -20.8903   -8.6606 C   0  0  0  0  0  0  0  0  0  0  0  0
   25.0933  -21.2624   -9.9912 C   0  0  0  0  0  0  0  0  0  0  0  0
   26.1903  -20.8139  -10.6884 C   0  0  0  0  0  0  0  0  0  0  0  0
   26.4469  -21.1705  -12.0815 C   0  0  0  0  0  0  0  0  0  0  0  0
   25.3976  -20.5805  -13.0508 C   0  0  2  0  0  0  0  0  0  0  0  0
   24.1780  -21.2820  -12.9558 N   0  0  0  0  0  0  0  0  0  0  0  0
   26.0622  -20.4672  -14.3393 C   0  0  0  0  0  0  0  0  0  0  0  0
   26.2508  -21.6765  -14.8665 O   0  0  0  0  0  0  0  0  0  0  0  0
   27.0664  -19.9871  -10.0079 C   0  0  0  0  0  0  0  0  0  0  0  0
   26.8748  -19.6138   -8.6937 C   0  0  0  0  0  0  0  0  0  0  0  0
   26.5206  -19.4491  -15.1198 N   0  0  0  0  0  0  0  0  0  0  0  0
   26.1780  -18.0000  -14.7903 C   0  0  0  0  0  0  0  0  0  0  0  0
   27.5900  -17.3855  -14.8565 C   0  0  0  0  0  0  0  0  0  0  0  0
   28.4433  -18.4038  -15.6512 C   0  0  0  0  0  0  0  0  0  0  0  0
   27.3078  -19.2068  -16.2853 C   0  0  1  0  0  0  0  0  0  0  0  0
   27.6455  -20.2135  -17.2254 C   0  0  0  0  0  0  0  0  0  0  0  0
   27.8808  -21.4199  -16.8599 O   0  0  0  0  0  0  0  0  0  0  0  0
   27.7604  -19.9979  -18.5860 O   0  0  0  0  0  0  0  0  0  0  0  0
  2  1  1  0
  3  2  1  0
  3 12  1  0
  4  3  2  0
  6  7  2  0
  6  5  1  0
  8  7  1  0
  9  8  2  0
 10  9  1  0
 11 10  1  1
 11 12  1  0
 13 17  1  0
 13 11  1  0
 14 13  2  0
 15  9  1  0
 15 16  2  0
 16  6  1  0
 17 18  1  0
 19 18  1  0
 20 19  1  0
 20 21  1  0
 21 17  1  0
 21 22  1  1
 22 24  1  0
 23 22  2  0
M  END
$$$$
