GYP.pdb
     RDKit          3D

 24 25  0  0  1  0  0  0  0  0999 V2000
   32.0918  -29.1351  -19.0429 N   0  0  0  0  0  0  0  0  0  0  0  0
   30.6825  -29.3982  -19.0484 C   0  0  0  0  0  0  0  0  0  0  0  0
   30.2900  -30.3510  -17.9679 C   0  0  0  0  0  0  0  0  0  0  0  0
   30.6803  -30.1135  -16.8189 O   0  0  0  0  0  0  0  0  0  0  0  0
   25.2247  -33.6519  -12.0908 O   0  0  0  0  0  0  0  0  0  0  0  0
   25.8752  -33.0508  -13.1598 C   0  0  0  0  0  0  0  0  0  0  0  0
   25.2461  -32.9776  -14.3721 C   0  0  0  0  0  0  0  0  0  0  0  0
   25.8755  -32.3787  -15.4655 C   0  0  0  0  0  0  0  0  0  0  0  0
   27.1394  -31.8501  -15.3482 C   0  0  0  0  0  0  0  0  0  0  0  0
   27.8396  -31.2105  -16.4593 C   0  0  0  0  0  0  0  0  0  0  0  0
   28.8473  -32.1558  -17.1520 C   0  0  2  0  0  0  0  0  0  0  0  0
   29.4955  -31.5010  -18.2195 N   0  0  0  0  0  0  0  0  0  0  0  0
   28.1279  -33.3949  -17.4004 C   0  0  0  0  0  0  0  0  0  0  0  0
   26.9737  -33.1402  -18.0159 O   0  0  0  0  0  0  0  0  0  0  0  0
   27.7418  -31.9439  -14.1063 C   0  0  0  0  0  0  0  0  0  0  0  0
   27.1289  -32.5334  -13.0200 C   0  0  0  0  0  0  0  0  0  0  0  0
   28.3467  -34.7192  -17.1675 N   0  0  0  0  0  0  0  0  0  0  0  0
   29.6988  -35.2075  -16.6584 C   0  0  0  0  0  0  0  0  0  0  0  0
   29.2246  -36.0786  -15.4784 C   0  0  0  0  0  0  0  0  0  0  0  0
   27.7256  -36.3547  -15.7494 C   0  0  0  0  0  0  0  0  0  0  0  0
   27.6901  -35.9847  -17.2320 C   0  0  1  0  0  0  0  0  0  0  0  0
   26.4857  -36.2065  -17.9472 C   0  0  0  0  0  0  0  0  0  0  0  0
   26.4615  -36.9161  -19.0151 O   0  0  0  0  0  0  0  0  0  0  0  0
   25.2582  -35.6876  -17.5802 O   0  0  0  0  0  0  0  0  0  0  0  0
  2  1  1  0
  3  2  1  0
  3 12  1  0
  4  3  2  0
  6  7  2  0
  6  5  1  0
  8  7  1  0
  9  8  2  0
 10  9  1  0
 11 10  1  6
 11 12  1  0
 13 17  1  0
 13 11  1  0
 14 13  2  0
 15  9  1  0
 15 16  2  0
 16  6  1  0
 17 18  1  0
 19 18  1  0
 20 19  1  0
 20 21  1  0
 21 17  1  0
 21 22  1  1
 22 24  1  0
 23 22  2  0
M  END
$$$$
