GYP.pdb
     RDKit          3D

 24 25  0  0  1  0  0  0  0  0999 V2000
   24.5065  -24.3876  -15.1078 N   0  0  0  0  0  0  0  0  0  0  0  0
   25.7690  -23.7566  -15.3596 C   0  0  0  0  0  0  0  0  0  0  0  0
   25.7436  -22.3040  -15.0154 C   0  0  0  0  0  0  0  0  0  0  0  0
   24.6412  -21.7509  -14.9265 O   0  0  0  0  0  0  0  0  0  0  0  0
   24.6353  -21.3060   -8.6824 O   0  0  0  0  0  0  0  0  0  0  0  0
   25.3514  -20.9233   -9.8084 C   0  0  0  0  0  0  0  0  0  0  0  0
   26.5195  -21.5674  -10.1110 C   0  0  0  0  0  0  0  0  0  0  0  0
   27.2613  -21.2043  -11.2371 C   0  0  0  0  0  0  0  0  0  0  0  0
   26.8349  -20.1932  -12.0656 C   0  0  0  0  0  0  0  0  0  0  0  0
   27.5716  -19.7778  -13.2568 C   0  0  0  0  0  0  0  0  0  0  0  0
   26.8509  -20.1643  -14.5682 C   0  0  2  0  0  0  0  0  0  0  0  0
   26.9290  -21.5544  -14.7914 N   0  0  0  0  0  0  0  0  0  0  0  0
   27.3444  -19.2455  -15.5817 C   0  0  0  0  0  0  0  0  0  0  0  0
   28.4717  -19.7140  -16.1161 O   0  0  0  0  0  0  0  0  0  0  0  0
   25.6493  -19.5665  -11.7257 C   0  0  0  0  0  0  0  0  0  0  0  0
   24.9091  -19.9174  -10.6156 C   0  0  0  0  0  0  0  0  0  0  0  0
   26.9392  -18.0558  -16.1073 N   0  0  0  0  0  0  0  0  0  0  0  0
   25.6631  -17.3811  -15.6151 C   0  0  0  0  0  0  0  0  0  0  0  0
   26.2116  -15.9648  -15.3523 C   0  0  0  0  0  0  0  0  0  0  0  0
   27.5381  -15.8852  -16.1464 C   0  0  0  0  0  0  0  0  0  0  0  0
   27.3193  -17.0789  -17.0757 C   0  0  1  0  0  0  0  0  0  0  0  0
   28.2773  -17.3170  -18.0939 C   0  0  0  0  0  0  0  0  0  0  0  0
   28.9369  -18.4153  -18.1499 O   0  0  0  0  0  0  0  0  0  0  0  0
   28.5919  -16.4124  -19.0906 O   0  0  0  0  0  0  0  0  0  0  0  0
  2  1  1  0
  3  2  1  0
  3 12  1  0
  4  3  2  0
  6  7  2  0
  6  5  1  0
  8  7  1  0
  9  8  2  0
 10  9  1  0
 11 10  1  1
 11 12  1  0
 13 17  1  0
 13 11  1  0
 14 13  2  0
 15  9  1  0
 15 16  2  0
 16  6  1  0
 17 18  1  0
 19 18  1  0
 20 19  1  0
 20 21  1  0
 21 17  1  0
 21 22  1  1
 22 24  1  0
 23 22  2  0
M  END
$$$$
