GYP.pdb
     RDKit          3D

 24 25  0  0  1  0  0  0  0  0999 V2000
   20.9159  -20.2273  -13.2104 N   0  0  0  0  0  0  0  0  0  0  0  0
   21.8601  -20.7386  -14.1603 C   0  0  0  0  0  0  0  0  0  0  0  0
   23.1732  -20.0333  -14.0748 C   0  0  0  0  0  0  0  0  0  0  0  0
   23.1615  -18.8149  -13.8641 O   0  0  0  0  0  0  0  0  0  0  0  0
   24.7468  -20.8549   -7.9316 O   0  0  0  0  0  0  0  0  0  0  0  0
   25.2070  -20.8054   -9.2404 C   0  0  0  0  0  0  0  0  0  0  0  0
   25.9691  -19.7434   -9.6433 C   0  0  0  0  0  0  0  0  0  0  0  0
   26.4461  -19.6663  -10.9535 C   0  0  0  0  0  0  0  0  0  0  0  0
   26.1612  -20.6543  -11.8664 C   0  0  0  0  0  0  0  0  0  0  0  0
   26.6385  -20.6229  -13.2466 C   0  0  0  0  0  0  0  0  0  0  0  0
   25.6191  -19.9820  -14.2154 C   0  0  2  0  0  0  0  0  0  0  0  0
   24.4121  -20.7111  -14.2262 N   0  0  0  0  0  0  0  0  0  0  0  0
   26.3355  -19.7610  -15.4614 C   0  0  0  0  0  0  0  0  0  0  0  0
   26.6148  -20.9268  -16.0434 O   0  0  0  0  0  0  0  0  0  0  0  0
   25.3878  -21.7112  -11.4204 C   0  0  0  0  0  0  0  0  0  0  0  0
   24.9116  -21.7969  -10.1284 C   0  0  0  0  0  0  0  0  0  0  0  0
   26.7727  -18.6775  -16.1621 N   0  0  0  0  0  0  0  0  0  0  0  0
   26.3131  -17.2719  -15.7897 C   0  0  0  0  0  0  0  0  0  0  0  0
   27.6819  -16.5654  -15.7335 C   0  0  0  0  0  0  0  0  0  0  0  0
   28.6504  -17.4855  -16.5158 C   0  0  0  0  0  0  0  0  0  0  0  0
   27.6139  -18.3268  -17.2603 C   0  0  1  0  0  0  0  0  0  0  0  0
   28.0775  -19.2611  -18.2212 C   0  0  0  0  0  0  0  0  0  0  0  0
   28.5407  -20.4055  -17.8742 O   0  0  0  0  0  0  0  0  0  0  0  0
   28.0845  -19.0336  -19.5847 O   0  0  0  0  0  0  0  0  0  0  0  0
  2  1  1  0
  3  2  1  0
  3 12  1  0
  4  3  2  0
  6  7  2  0
  6  5  1  0
  8  7  1  0
  9  8  2  0
 10  9  1  0
 11 10  1  1
 11 12  1  0
 13 17  1  0
 13 11  1  0
 14 13  2  0
 15  9  1  0
 15 16  2  0
 16  6  1  0
 17 18  1  0
 19 18  1  0
 20 19  1  0
 20 21  1  0
 21 17  1  0
 21 22  1  1
 22 24  1  0
 23 22  2  0
M  END
$$$$
