GYP.pdb
     RDKit          3D

 24 25  0  0  1  0  0  0  0  0999 V2000
   28.5177  -20.1464  -18.7902 N   0  0  0  0  0  0  0  0  0  0  0  0
   27.2346  -20.5232  -18.2736 C   0  0  0  0  0  0  0  0  0  0  0  0
   26.9340  -19.8426  -16.9791 C   0  0  0  0  0  0  0  0  0  0  0  0
   26.7430  -18.6212  -16.9998 O   0  0  0  0  0  0  0  0  0  0  0  0
   19.7404  -19.0483  -13.0940 O   0  0  0  0  0  0  0  0  0  0  0  0
   20.8970  -19.4691  -13.7361 C   0  0  0  0  0  0  0  0  0  0  0  0
   21.4370  -20.6844  -13.4163 C   0  0  0  0  0  0  0  0  0  0  0  0
   22.5998  -21.1342  -14.0456 C   0  0  0  0  0  0  0  0  0  0  0  0
   23.2267  -20.3671  -14.9991 C   0  0  0  0  0  0  0  0  0  0  0  0
   24.4420  -20.7930  -15.6887 C   0  0  0  0  0  0  0  0  0  0  0  0
   25.7280  -20.4086  -14.9225 C   0  0  2  0  0  0  0  0  0  0  0  0
   26.8629  -20.5470  -15.7479 N   0  0  0  0  0  0  0  0  0  0  0  0
   25.6687  -21.1233  -13.6574 C   0  0  0  0  0  0  0  0  0  0  0  0
   25.1754  -22.3471  -13.8442 O   0  0  0  0  0  0  0  0  0  0  0  0
   22.6498  -19.1448  -15.2944 C   0  0  0  0  0  0  0  0  0  0  0  0
   21.5016  -18.6912  -14.6786 C   0  0  0  0  0  0  0  0  0  0  0  0
   25.9936  -20.8528  -12.3624 N   0  0  0  0  0  0  0  0  0  0  0  0
   27.2463  -20.0512  -12.0247 C   0  0  0  0  0  0  0  0  0  0  0  0
   26.6313  -19.0144  -11.0642 C   0  0  0  0  0  0  0  0  0  0  0  0
   25.2788  -19.6211  -10.6178 C   0  0  0  0  0  0  0  0  0  0  0  0
   25.5324  -21.0710  -11.0296 C   0  0  1  0  0  0  0  0  0  0  0  0
   24.5579  -22.0428  -10.6873 C   0  0  0  0  0  0  0  0  0  0  0  0
   24.8857  -23.1607  -10.1513 O   0  0  0  0  0  0  0  0  0  0  0  0
   23.2007  -21.8896  -10.9002 O   0  0  0  0  0  0  0  0  0  0  0  0
  2  1  1  0
  3  2  1  0
  3 12  1  0
  4  3  2  0
  6  7  2  0
  6  5  1  0
  8  7  1  0
  9  8  2  0
 10  9  1  0
 11 10  1  6
 11 12  1  0
 13 17  1  0
 13 11  1  0
 14 13  2  0
 15  9  1  0
 15 16  2  0
 16  6  1  0
 17 18  1  0
 19 18  1  0
 20 19  1  0
 20 21  1  0
 21 17  1  0
 21 22  1  6
 22 24  1  0
 23 22  2  0
M  END
$$$$
