DQF.pdb
     RDKit          3D

 29 29  0  0  1  0  0  0  0  0999 V2000
   23.7533  -14.1060  -20.2398 N   0  0  0  0  0  0  0  0  0  0  0  0
   24.9205  -13.5521  -19.4936 C   0  0  1  0  0  0  0  0  0  0  0  0
   26.1622  -13.8104  -20.2671 C   0  0  0  0  0  0  0  0  0  0  0  0
   26.5338  -15.2227  -20.3489 C   0  0  0  0  0  0  0  0  0  0  0  0
   25.7248  -16.1187  -20.0508 O   0  0  0  0  0  0  0  0  0  0  0  0
   24.6374  -12.0901  -19.2682 C   0  0  0  0  0  0  0  0  0  0  0  0
   25.4449  -11.2921  -18.7697 O   0  0  0  0  0  0  0  0  0  0  0  0
   27.8219  -15.6254  -20.7682 O   0  0  0  0  0  0  0  0  0  0  0  0
   19.2305   -8.8618  -21.1509 N   0  0  0  0  0  0  0  0  0  0  0  0
   20.0304   -7.9600  -20.4030 C   0  0  0  0  0  0  0  0  0  0  0  0
   19.6073   -6.7961  -20.2265 O   0  0  0  0  0  0  0  0  0  0  0  0
   21.3386   -8.3396  -19.8279 C   0  0  0  0  0  0  0  0  0  0  0  0
   21.7462   -9.7463  -20.0456 C   0  0  0  0  0  0  0  0  0  0  0  0
   23.0159  -10.1400  -19.3793 C   0  0  2  0  0  0  0  0  0  0  0  0
   23.3695  -11.5250  -19.6327 N   0  0  0  0  0  0  0  0  0  0  0  0
   22.9811   -9.9623  -17.8908 C   0  0  0  0  0  0  0  0  0  0  0  0
   22.5445  -10.8304  -17.0990 O   0  0  0  0  0  0  0  0  0  0  0  0
   23.4577   -8.7629  -17.3039 N   0  0  0  0  0  0  0  0  0  0  0  0
   23.3283   -8.5279  -15.8782 C   0  0  1  0  0  0  0  0  0  0  0  0
   24.7199   -8.2838  -15.3245 C   0  0  0  0  0  0  0  0  0  0  0  0
   25.6170   -9.4351  -15.4661 C   0  0  0  0  0  0  0  0  0  0  0  0
   25.4473  -10.5932  -14.7353 C   0  0  0  0  0  0  0  0  0  0  0  0
   26.3181  -11.6486  -14.9112 C   0  0  0  0  0  0  0  0  0  0  0  0
   27.3684  -11.5981  -15.7992 C   0  0  0  0  0  0  0  0  0  0  0  0
   27.5424  -10.4434  -16.5316 C   0  0  0  0  0  0  0  0  0  0  0  0
   26.6650   -9.3755  -16.3567 C   0  0  0  0  0  0  0  0  0  0  0  0
   22.4084   -7.3944  -15.6569 C   0  0  0  0  0  0  0  0  0  0  0  0
   22.0072   -6.6872  -16.6055 O   0  0  0  0  0  0  0  0  0  0  0  0
   21.9755   -7.0991  -14.3812 O   0  0  0  0  0  0  0  0  0  0  0  0
  2  1  1  6
  2  6  1  0
  3  2  1  0
  4  3  1  0
  4  5  2  0
  6  7  2  0
  8  4  1  0
  9 10  1  0
 10 12  1  0
 10 11  2  0
 12 13  1  0
 14 13  1  1
 14 16  1  0
 15  6  1  0
 15 14  1  0
 16 17  2  0
 18 19  1  0
 18 16  1  0
 19 27  1  0
 19 20  1  6
 21 20  1  0
 22 21  2  0
 23 22  1  0
 24 23  2  0
 24 25  1  0
 25 26  2  0
 26 21  1  0
 27 28  2  0
 27 29  1  0
M  END
$$$$
