DQF.pdb
     RDKit          3D

 29 29  0  0  1  0  0  0  0  0999 V2000
   16.8107  -12.7267  -18.8334 N   0  0  0  0  0  0  0  0  0  0  0  0
   16.9945  -12.1034  -17.4904 C   0  0  1  0  0  0  0  0  0  0  0  0
   17.6588  -13.0772  -16.5865 C   0  0  0  0  0  0  0  0  0  0  0  0
   16.8274  -14.2266  -16.2299 C   0  0  0  0  0  0  0  0  0  0  0  0
   15.5933  -14.1986  -16.3795 O   0  0  0  0  0  0  0  0  0  0  0  0
   17.7814  -10.8370  -17.7038 C   0  0  0  0  0  0  0  0  0  0  0  0
   18.5632  -10.6525  -18.6484 O   0  0  0  0  0  0  0  0  0  0  0  0
   17.3900  -15.4111  -15.7030 O   0  0  0  0  0  0  0  0  0  0  0  0
   18.9291   -6.2690  -14.0684 N   0  0  0  0  0  0  0  0  0  0  0  0
   19.0122   -5.5414  -15.2834 C   0  0  0  0  0  0  0  0  0  0  0  0
   19.5790   -4.4264  -15.2708 O   0  0  0  0  0  0  0  0  0  0  0  0
   18.4568   -6.0465  -16.5573 C   0  0  0  0  0  0  0  0  0  0  0  0
   17.7011   -7.3163  -16.4639 C   0  0  0  0  0  0  0  0  0  0  0  0
   18.4511   -8.5241  -16.8997 C   0  0  2  0  0  0  0  0  0  0  0  0
   17.6618   -9.7375  -16.7892 N   0  0  0  0  0  0  0  0  0  0  0  0
   19.7118   -8.7494  -16.1199 C   0  0  0  0  0  0  0  0  0  0  0  0
   19.8325   -9.6303  -15.2365 O   0  0  0  0  0  0  0  0  0  0  0  0
   20.8541   -7.9451  -16.3621 N   0  0  0  0  0  0  0  0  0  0  0  0
   22.0978   -8.1843  -15.6544 C   0  0  1  0  0  0  0  0  0  0  0  0
   22.7160   -9.4470  -16.2257 C   0  0  0  0  0  0  0  0  0  0  0  0
   24.1499   -9.5753  -15.9464 C   0  0  0  0  0  0  0  0  0  0  0  0
   25.1090   -8.9757  -16.7368 C   0  0  0  0  0  0  0  0  0  0  0  0
   26.4447   -9.1249  -16.4259 C   0  0  0  0  0  0  0  0  0  0  0  0
   26.8724   -9.8585  -15.3429 C   0  0  0  0  0  0  0  0  0  0  0  0
   25.9184  -10.4597  -14.5502 C   0  0  0  0  0  0  0  0  0  0  0  0
   24.5684  -10.3112  -14.8610 C   0  0  0  0  0  0  0  0  0  0  0  0
   22.9674   -6.9989  -15.7915 C   0  0  0  0  0  0  0  0  0  0  0  0
   22.9482   -6.2937  -16.8226 O   0  0  0  0  0  0  0  0  0  0  0  0
   23.8235   -6.6521  -14.7674 O   0  0  0  0  0  0  0  0  0  0  0  0
  2  1  1  6
  2  6  1  0
  3  2  1  0
  4  3  1  0
  4  5  2  0
  6  7  2  0
  8  4  1  0
  9 10  1  0
 10 12  1  0
 10 11  2  0
 12 13  1  0
 14 13  1  1
 14 16  1  0
 15  6  1  0
 15 14  1  0
 16 17  2  0
 18 19  1  0
 18 16  1  0
 19 27  1  0
 19 20  1  6
 21 20  1  0
 22 21  2  0
 23 22  1  0
 24 23  2  0
 24 25  1  0
 25 26  2  0
 26 21  1  0
 27 28  2  0
 27 29  1  0
M  END
$$$$
