DQF.pdb
     RDKit          3D

 29 29  0  0  1  0  0  0  0  0999 V2000
   15.2965  -15.4216    4.4701 N   0  0  0  0  0  0  0  0  0  0  0  0
   16.5155  -16.1318    3.9846 C   0  0  1  0  0  0  0  0  0  0  0  0
   17.6532  -15.1775    3.9440 C   0  0  0  0  0  0  0  0  0  0  0  0
   17.5682  -14.1900    2.8683 C   0  0  0  0  0  0  0  0  0  0  0  0
   16.6031  -14.1745    2.0844 O   0  0  0  0  0  0  0  0  0  0  0  0
   16.7343  -17.3000    4.9097 C   0  0  0  0  0  0  0  0  0  0  0  0
   16.6701  -17.2322    6.1461 O   0  0  0  0  0  0  0  0  0  0  0  0
   18.5751  -13.2170    2.6764 O   0  0  0  0  0  0  0  0  0  0  0  0
   17.3375  -23.5597    3.1791 N   0  0  0  0  0  0  0  0  0  0  0  0
   16.1550  -22.8708    3.5527 C   0  0  0  0  0  0  0  0  0  0  0  0
   15.0522  -23.4124    3.3178 O   0  0  0  0  0  0  0  0  0  0  0  0
   16.1750  -21.5436    4.2044 C   0  0  0  0  0  0  0  0  0  0  0  0
   17.5200  -20.9945    4.4904 C   0  0  0  0  0  0  0  0  0  0  0  0
   17.5244  -19.6937    5.2108 C   0  0  2  0  0  0  0  0  0  0  0  0
   17.0404  -18.6010    4.3867 N   0  0  0  0  0  0  0  0  0  0  0  0
   18.8828  -19.2988    5.7078 C   0  0  0  0  0  0  0  0  0  0  0  0
   19.6336  -18.4941    5.1080 O   0  0  0  0  0  0  0  0  0  0  0  0
   19.3855  -19.8409    6.9176 N   0  0  0  0  0  0  0  0  0  0  0  0
   20.6219  -19.3507    7.4971 C   0  0  1  0  0  0  0  0  0  0  0  0
   20.4497  -17.8659    7.7590 C   0  0  0  0  0  0  0  0  0  0  0  0
   21.5531  -17.2739    8.5222 C   0  0  0  0  0  0  0  0  0  0  0  0
   22.8541  -17.2859    8.0626 C   0  0  0  0  0  0  0  0  0  0  0  0
   23.8538  -16.7101    8.8191 C   0  0  0  0  0  0  0  0  0  0  0  0
   23.6080  -16.1131   10.0345 C   0  0  0  0  0  0  0  0  0  0  0  0
   22.3100  -16.0986   10.4983 C   0  0  0  0  0  0  0  0  0  0  0  0
   21.2978  -16.6791    9.7371 C   0  0  0  0  0  0  0  0  0  0  0  0
   20.9232  -20.1244    8.7181 C   0  0  0  0  0  0  0  0  0  0  0  0
   22.0699  -20.5671    8.9414 O   0  0  0  0  0  0  0  0  0  0  0  0
   19.9270  -20.3706    9.6395 O   0  0  0  0  0  0  0  0  0  0  0  0
  2  1  1  1
  2  6  1  0
  3  2  1  0
  4  3  1  0
  4  5  2  0
  6  7  2  0
  8  4  1  0
  9 10  1  0
 10 12  1  0
 10 11  2  0
 12 13  1  0
 14 13  1  6
 14 16  1  0
 15  6  1  0
 15 14  1  0
 16 17  2  0
 18 19  1  0
 18 16  1  0
 19 27  1  0
 19 20  1  1
 21 20  1  0
 22 21  2  0
 23 22  1  0
 24 23  2  0
 24 25  1  0
 25 26  2  0
 26 21  1  0
 27 28  2  0
 27 29  1  0
M  END
$$$$
