DQF.pdb
     RDKit          3D

 29 29  0  0  1  0  0  0  0  0999 V2000
   27.6078  -20.3908  -15.5071 N   0  0  0  0  0  0  0  0  0  0  0  0
   27.9575  -19.1688  -14.7258 C   0  0  1  0  0  0  0  0  0  0  0  0
   27.6718  -17.9649  -15.5479 C   0  0  0  0  0  0  0  0  0  0  0  0
   28.4406  -17.8920  -16.7901 C   0  0  0  0  0  0  0  0  0  0  0  0
   28.1380  -18.5876  -17.7753 O   0  0  0  0  0  0  0  0  0  0  0  0
   27.1678  -19.2320  -13.4449 C   0  0  0  0  0  0  0  0  0  0  0  0
   27.0568  -18.2896  -12.6468 O   0  0  0  0  0  0  0  0  0  0  0  0
   29.5540  -17.0316  -16.9213 O   0  0  0  0  0  0  0  0  0  0  0  0
   21.9517  -19.8140  -12.7086 N   0  0  0  0  0  0  0  0  0  0  0  0
   22.1016  -20.5979  -11.5357 C   0  0  0  0  0  0  0  0  0  0  0  0
   21.1801  -20.5841  -10.6898 O   0  0  0  0  0  0  0  0  0  0  0  0
   23.2989  -21.4253  -11.2747 C   0  0  0  0  0  0  0  0  0  0  0  0
   24.3508  -21.3700  -12.3153 C   0  0  0  0  0  0  0  0  0  0  0  0
   25.5009  -20.4833  -11.9957 C   0  0  2  0  0  0  0  0  0  0  0  0
   26.4776  -20.4327  -13.0685 N   0  0  0  0  0  0  0  0  0  0  0  0
   26.2350  -20.8931  -10.7542 C   0  0  0  0  0  0  0  0  0  0  0  0
   26.9872  -21.8938  -10.6920 O   0  0  0  0  0  0  0  0  0  0  0  0
   26.1000  -20.1365   -9.5627 N   0  0  0  0  0  0  0  0  0  0  0  0
   26.7095  -20.5819   -8.3238 C   0  0  1  0  0  0  0  0  0  0  0  0
   27.5490  -19.4373   -7.7872 C   0  0  0  0  0  0  0  0  0  0  0  0
   28.0706  -19.6759   -6.4376 C   0  0  0  0  0  0  0  0  0  0  0  0
   27.5588  -19.0348   -5.3280 C   0  0  0  0  0  0  0  0  0  0  0  0
   28.0838  -19.3000   -4.0801 C   0  0  0  0  0  0  0  0  0  0  0  0
   29.1143  -20.1917   -3.8878 C   0  0  0  0  0  0  0  0  0  0  0  0
   29.6293  -20.8346   -4.9930 C   0  0  0  0  0  0  0  0  0  0  0  0
   29.1017  -20.5694   -6.2548 C   0  0  0  0  0  0  0  0  0  0  0  0
   25.6488  -21.0110   -7.3905 C   0  0  0  0  0  0  0  0  0  0  0  0
   24.4537  -20.6974   -7.5751 O   0  0  0  0  0  0  0  0  0  0  0  0
   25.9707  -21.7743   -6.2879 O   0  0  0  0  0  0  0  0  0  0  0  0
  2  1  1  6
  2  6  1  0
  3  2  1  0
  4  3  1  0
  4  5  2  0
  6  7  2  0
  8  4  1  0
  9 10  1  0
 10 12  1  0
 10 11  2  0
 12 13  1  0
 14 13  1  6
 14 16  1  0
 15  6  1  0
 15 14  1  0
 16 17  2  0
 18 19  1  0
 18 16  1  0
 19 27  1  0
 19 20  1  1
 21 20  1  0
 22 21  2  0
 23 22  1  0
 24 23  2  0
 24 25  1  0
 25 26  2  0
 26 21  1  0
 27 28  2  0
 27 29  1  0
M  END
$$$$
