DQF.pdb
     RDKit          3D

 29 29  0  0  1  0  0  0  0  0999 V2000
   28.2295  -19.1491  -15.9329 N   0  0  0  0  0  0  0  0  0  0  0  0
   27.1169  -19.8843  -16.6020 C   0  0  1  0  0  0  0  0  0  0  0  0
   27.6712  -20.7115  -17.7044 C   0  0  0  0  0  0  0  0  0  0  0  0
   28.5680  -19.9865  -18.6042 C   0  0  0  0  0  0  0  0  0  0  0  0
   29.5011  -20.5665  -19.1866 O   0  0  0  0  0  0  0  0  0  0  0  0
   26.4204  -20.6840  -15.5325 C   0  0  0  0  0  0  0  0  0  0  0  0
   25.5577  -21.5459  -15.7568 O   0  0  0  0  0  0  0  0  0  0  0  0
   28.4116  -18.6033  -18.8477 O   0  0  0  0  0  0  0  0  0  0  0  0
   25.6158  -19.4895   -9.8451 N   0  0  0  0  0  0  0  0  0  0  0  0
   25.5888  -20.8964   -9.6650 C   0  0  0  0  0  0  0  0  0  0  0  0
   25.0952  -21.3511   -8.6093 O   0  0  0  0  0  0  0  0  0  0  0  0
   26.1197  -21.8415  -10.6706 C   0  0  0  0  0  0  0  0  0  0  0  0
   26.8182  -21.2228  -11.8201 C   0  0  0  0  0  0  0  0  0  0  0  0
   26.0138  -21.1355  -13.0677 C   0  0  2  0  0  0  0  0  0  0  0  0
   26.7316  -20.4807  -14.1463 N   0  0  0  0  0  0  0  0  0  0  0  0
   24.7231  -20.3941  -12.8872 C   0  0  0  0  0  0  0  0  0  0  0  0
   24.6577  -19.1821  -12.5747 O   0  0  0  0  0  0  0  0  0  0  0  0
   23.4854  -21.0611  -13.0697 N   0  0  0  0  0  0  0  0  0  0  0  0
   22.2279  -20.3747  -12.8413 C   0  0  1  0  0  0  0  0  0  0  0  0
   22.1958  -19.1598  -13.7501 C   0  0  0  0  0  0  0  0  0  0  0  0
   22.0322  -19.4935  -15.1686 C   0  0  0  0  0  0  0  0  0  0  0  0
   23.1077  -19.6076  -16.0255 C   0  0  0  0  0  0  0  0  0  0  0  0
   22.8975  -19.9286  -17.3506 C   0  0  0  0  0  0  0  0  0  0  0  0
   21.6400  -20.1442  -17.8667 C   0  0  0  0  0  0  0  0  0  0  0  0
   20.5622  -20.0313  -17.0150 C   0  0  0  0  0  0  0  0  0  0  0  0
   20.7705  -19.7074  -15.6761 C   0  0  0  0  0  0  0  0  0  0  0  0
   21.1140  -21.3124  -13.0864 C   0  0  0  0  0  0  0  0  0  0  0  0
   21.3186  -22.4676  -13.5160 O   0  0  0  0  0  0  0  0  0  0  0  0
   19.8158  -20.9174  -12.8401 O   0  0  0  0  0  0  0  0  0  0  0  0
  2  1  1  1
  2  6  1  0
  3  2  1  0
  4  3  1  0
  4  5  2  0
  6  7  2  0
  8  4  1  0
  9 10  1  0
 10 12  1  0
 10 11  2  0
 12 13  1  0
 14 13  1  1
 14 16  1  0
 15  6  1  0
 15 14  1  0
 16 17  2  0
 18 19  1  0
 18 16  1  0
 19 27  1  0
 19 20  1  6
 21 20  1  0
 22 21  2  0
 23 22  1  0
 24 23  2  0
 24 25  1  0
 25 26  2  0
 26 21  1  0
 27 28  2  0
 27 29  1  0
M  END
$$$$
