DQF.pdb
     RDKit          3D

 29 29  0  0  1  0  0  0  0  0999 V2000
   21.9964  -19.6398  -14.2919 N   0  0  0  0  0  0  0  0  0  0  0  0
   22.6790  -19.3946  -12.9881 C   0  0  1  0  0  0  0  0  0  0  0  0
   21.6566  -19.2625  -11.9185 C   0  0  0  0  0  0  0  0  0  0  0  0
   20.3445  -18.8258  -12.3952 C   0  0  0  0  0  0  0  0  0  0  0  0
   20.1451  -18.5849  -13.5987 O   0  0  0  0  0  0  0  0  0  0  0  0
   23.6355  -20.5388  -12.7772 C   0  0  0  0  0  0  0  0  0  0  0  0
   23.3236  -21.7351  -12.8722 O   0  0  0  0  0  0  0  0  0  0  0  0
   19.2541  -18.6604  -11.5115 O   0  0  0  0  0  0  0  0  0  0  0  0
   24.2758  -23.2638  -14.8580 N   0  0  0  0  0  0  0  0  0  0  0  0
   25.5396  -23.2856  -14.2139 C   0  0  0  0  0  0  0  0  0  0  0  0
   25.7510  -24.1645  -13.3493 O   0  0  0  0  0  0  0  0  0  0  0  0
   26.6109  -22.3141  -14.5221 C   0  0  0  0  0  0  0  0  0  0  0  0
   26.9619  -21.3835  -13.4252 C   0  0  0  0  0  0  0  0  0  0  0  0
   25.9925  -21.3509  -12.2981 C   0  0  2  0  0  0  0  0  0  0  0  0
   25.0091  -20.2928  -12.4421 N   0  0  0  0  0  0  0  0  0  0  0  0
   26.6466  -21.1619  -10.9622 C   0  0  0  0  0  0  0  0  0  0  0  0
   27.8609  -20.8868  -10.8176 O   0  0  0  0  0  0  0  0  0  0  0  0
   25.8883  -21.2925   -9.7714 N   0  0  0  0  0  0  0  0  0  0  0  0
   26.5280  -21.2375   -8.4705 C   0  0  1  0  0  0  0  0  0  0  0  0
   27.3699  -19.9758   -8.4254 C   0  0  0  0  0  0  0  0  0  0  0  0
   27.9878  -19.7302   -7.1183 C   0  0  0  0  0  0  0  0  0  0  0  0
   28.9328  -20.5801   -6.5809 C   0  0  0  0  0  0  0  0  0  0  0  0
   29.4858  -20.2991   -5.3487 C   0  0  0  0  0  0  0  0  0  0  0  0
   29.1312  -19.1886   -4.6171 C   0  0  0  0  0  0  0  0  0  0  0  0
   28.1875  -18.3365   -5.1494 C   0  0  0  0  0  0  0  0  0  0  0  0
   27.6267  -18.6170   -6.3935 C   0  0  0  0  0  0  0  0  0  0  0  0
   25.4913  -21.2813   -7.4200 C   0  0  0  0  0  0  0  0  0  0  0  0
   24.3012  -20.9929   -7.6679 O   0  0  0  0  0  0  0  0  0  0  0  0
   25.8304  -21.6465   -6.1341 O   0  0  0  0  0  0  0  0  0  0  0  0
  2  1  1  6
  2  6  1  0
  3  2  1  0
  4  3  1  0
  4  5  2  0
  6  7  2  0
  8  4  1  0
  9 10  1  0
 10 12  1  0
 10 11  2  0
 12 13  1  0
 14 13  1  6
 14 16  1  0
 15  6  1  0
 15 14  1  0
 16 17  2  0
 18 19  1  0
 18 16  1  0
 19 27  1  0
 19 20  1  6
 21 20  1  0
 22 21  2  0
 23 22  1  0
 24 23  2  0
 24 25  1  0
 25 26  2  0
 26 21  1  0
 27 28  2  0
 27 29  1  0
M  END
$$$$
