DQF.pdb
     RDKit          3D

 29 29  0  0  1  0  0  0  0  0999 V2000
   20.2231  -10.6874  -21.6158 N   0  0  0  0  0  0  0  0  0  0  0  0
   21.4262  -10.4869  -20.7567 C   0  0  1  0  0  0  0  0  0  0  0  0
   22.5449   -9.9808  -21.5928 C   0  0  0  0  0  0  0  0  0  0  0  0
   23.1098  -10.9764  -22.5033 C   0  0  0  0  0  0  0  0  0  0  0  0
   23.4698  -12.0931  -22.0916 O   0  0  0  0  0  0  0  0  0  0  0  0
   21.0190   -9.5474  -19.6522 C   0  0  0  0  0  0  0  0  0  0  0  0
   19.9676   -8.8901  -19.6479 O   0  0  0  0  0  0  0  0  0  0  0  0
   23.2691  -10.7114  -23.8823 O   0  0  0  0  0  0  0  0  0  0  0  0
   21.3243  -10.3401  -13.4772 N   0  0  0  0  0  0  0  0  0  0  0  0
   20.9779   -8.9758  -13.6538 C   0  0  0  0  0  0  0  0  0  0  0  0
   20.6091   -8.3219  -12.6532 O   0  0  0  0  0  0  0  0  0  0  0  0
   21.0341   -8.3003  -14.9679 C   0  0  0  0  0  0  0  0  0  0  0  0
   21.3887   -9.1668  -16.1150 C   0  0  0  0  0  0  0  0  0  0  0  0
   21.5248   -8.4586  -17.4154 C   0  0  2  0  0  0  0  0  0  0  0  0
   21.8599   -9.3577  -18.5048 N   0  0  0  0  0  0  0  0  0  0  0  0
   22.5712   -7.3849  -17.3962 C   0  0  0  0  0  0  0  0  0  0  0  0
   23.7153   -7.5229  -17.8893 O   0  0  0  0  0  0  0  0  0  0  0  0
   22.2949   -6.1296  -16.7979 N   0  0  0  0  0  0  0  0  0  0  0  0
   23.3107   -5.0960  -16.7307 C   0  0  1  0  0  0  0  0  0  0  0  0
   23.1394   -4.2036  -17.9461 C   0  0  0  0  0  0  0  0  0  0  0  0
   23.9911   -3.0101  -17.9212 C   0  0  0  0  0  0  0  0  0  0  0  0
   23.6235   -1.8588  -17.2554 C   0  0  0  0  0  0  0  0  0  0  0  0
   24.4652   -0.7657  -17.2601 C   0  0  0  0  0  0  0  0  0  0  0  0
   25.6778   -0.7714  -17.9110 C   0  0  0  0  0  0  0  0  0  0  0  0
   26.0496   -1.9190  -18.5778 C   0  0  0  0  0  0  0  0  0  0  0  0
   25.2023   -3.0249  -18.5753 C   0  0  0  0  0  0  0  0  0  0  0  0
   23.1761   -4.3685  -15.4529 C   0  0  0  0  0  0  0  0  0  0  0  0
   24.1293   -3.7224  -14.9685 O   0  0  0  0  0  0  0  0  0  0  0  0
   21.9785   -4.3949  -14.7695 O   0  0  0  0  0  0  0  0  0  0  0  0
  2  1  1  6
  2  6  1  0
  3  2  1  0
  4  3  1  0
  4  5  2  0
  6  7  2  0
  8  4  1  0
  9 10  1  0
 10 12  1  0
 10 11  2  0
 12 13  1  0
 14 13  1  1
 14 16  1  0
 15  6  1  0
 15 14  1  0
 16 17  2  0
 18 19  1  0
 18 16  1  0
 19 27  1  0
 19 20  1  6
 21 20  1  0
 22 21  2  0
 23 22  1  0
 24 23  2  0
 24 25  1  0
 25 26  2  0
 26 21  1  0
 27 28  2  0
 27 29  1  0
M  END
$$$$
