DQF.pdb
     RDKit          3D

 29 29  0  0  1  0  0  0  0  0999 V2000
   20.0234   -8.9227  -17.0345 N   0  0  0  0  0  0  0  0  0  0  0  0
   20.1630   -7.4679  -17.3345 C   0  0  1  0  0  0  0  0  0  0  0  0
   19.6755   -6.6805  -16.1730 C   0  0  0  0  0  0  0  0  0  0  0  0
   18.2307   -6.7604  -15.9596 C   0  0  0  0  0  0  0  0  0  0  0  0
   17.5096   -7.4568  -16.6953 O   0  0  0  0  0  0  0  0  0  0  0  0
   21.6131   -7.2302  -17.6648 C   0  0  0  0  0  0  0  0  0  0  0  0
   22.5282   -8.0235  -17.3986 O   0  0  0  0  0  0  0  0  0  0  0  0
   17.5975   -6.0526  -14.9130 O   0  0  0  0  0  0  0  0  0  0  0  0
   23.9808   -4.0444  -22.2779 N   0  0  0  0  0  0  0  0  0  0  0  0
   25.1215   -4.6532  -21.6942 C   0  0  0  0  0  0  0  0  0  0  0  0
   26.2512   -4.3397  -22.1302 O   0  0  0  0  0  0  0  0  0  0  0  0
   25.0276   -5.6399  -20.5969 C   0  0  0  0  0  0  0  0  0  0  0  0
   23.6545   -5.9662  -20.1493 C   0  0  0  0  0  0  0  0  0  0  0  0
   23.4028   -5.7563  -18.6989 C   0  0  2  0  0  0  0  0  0  0  0  0
   22.0251   -6.0270  -18.3297 N   0  0  0  0  0  0  0  0  0  0  0  0
   23.7129   -4.3625  -18.2416 C   0  0  0  0  0  0  0  0  0  0  0  0
   22.8944   -3.4151  -18.3010 O   0  0  0  0  0  0  0  0  0  0  0  0
   24.9891   -4.0543  -17.7064 N   0  0  0  0  0  0  0  0  0  0  0  0
   25.3478   -2.6886  -17.3733 C   0  0  1  0  0  0  0  0  0  0  0  0
   26.0706   -2.7156  -16.0392 C   0  0  0  0  0  0  0  0  0  0  0  0
   26.5352   -1.3966  -15.5979 C   0  0  0  0  0  0  0  0  0  0  0  0
   27.8524   -1.0035  -15.7179 C   0  0  0  0  0  0  0  0  0  0  0  0
   28.2350    0.2512  -15.2907 C   0  0  0  0  0  0  0  0  0  0  0  0
   27.3459    1.1457  -14.7397 C   0  0  0  0  0  0  0  0  0  0  0  0
   26.0289    0.7577  -14.6174 C   0  0  0  0  0  0  0  0  0  0  0  0
   25.6387   -0.5086  -15.0477 C   0  0  0  0  0  0  0  0  0  0  0  0
   26.1657   -2.1238  -18.4652 C   0  0  0  0  0  0  0  0  0  0  0  0
   26.1701   -0.8983  -18.7078 O   0  0  0  0  0  0  0  0  0  0  0  0
   26.9454   -2.9556  -19.2411 O   0  0  0  0  0  0  0  0  0  0  0  0
  2  1  1  1
  2  6  1  0
  3  2  1  0
  4  3  1  0
  4  5  2  0
  6  7  2  0
  8  4  1  0
  9 10  1  0
 10 12  1  0
 10 11  2  0
 12 13  1  0
 14 13  1  6
 14 16  1  0
 15  6  1  0
 15 14  1  0
 16 17  2  0
 18 19  1  0
 18 16  1  0
 19 27  1  0
 19 20  1  1
 21 20  1  0
 22 21  2  0
 23 22  1  0
 24 23  2  0
 24 25  1  0
 25 26  2  0
 26 21  1  0
 27 28  2  0
 27 29  1  0
M  END
$$$$
