DQF.pdb
     RDKit          3D

 29 29  0  0  1  0  0  0  0  0999 V2000
   18.5192  -11.8536  -19.2306 N   0  0  0  0  0  0  0  0  0  0  0  0
   19.5718  -12.1634  -18.2197 C   0  0  1  0  0  0  0  0  0  0  0  0
   20.3774  -13.3189  -18.6914 C   0  0  0  0  0  0  0  0  0  0  0  0
   19.9112  -14.6148  -18.1984 C   0  0  0  0  0  0  0  0  0  0  0  0
   18.7111  -14.8097  -17.9377 O   0  0  0  0  0  0  0  0  0  0  0  0
   20.3723  -10.9024  -18.0264 C   0  0  0  0  0  0  0  0  0  0  0  0
   21.2894  -10.7781  -17.2012 O   0  0  0  0  0  0  0  0  0  0  0  0
   20.8016  -15.6940  -17.9991 O   0  0  0  0  0  0  0  0  0  0  0  0
   24.0697   -8.9550  -21.0675 N   0  0  0  0  0  0  0  0  0  0  0  0
   23.0576   -7.9615  -21.0981 C   0  0  0  0  0  0  0  0  0  0  0  0
   23.4048   -6.7606  -21.1446 O   0  0  0  0  0  0  0  0  0  0  0  0
   21.6157   -8.2881  -21.0760 C   0  0  0  0  0  0  0  0  0  0  0  0
   20.8473   -7.7041  -19.9532 C   0  0  0  0  0  0  0  0  0  0  0  0
   20.8641   -8.5047  -18.7003 C   0  0  2  0  0  0  0  0  0  0  0  0
   20.1035   -9.7357  -18.8178 N   0  0  0  0  0  0  0  0  0  0  0  0
   20.3161   -7.7627  -17.5182 C   0  0  0  0  0  0  0  0  0  0  0  0
   19.0925   -7.5687  -17.3278 O   0  0  0  0  0  0  0  0  0  0  0  0
   21.1936   -7.2342  -16.5379 N   0  0  0  0  0  0  0  0  0  0  0  0
   20.6778   -6.5575  -15.3629 C   0  0  1  0  0  0  0  0  0  0  0  0
   19.8366   -7.5561  -14.5896 C   0  0  0  0  0  0  0  0  0  0  0  0
   20.6290   -8.4832  -13.7753 C   0  0  0  0  0  0  0  0  0  0  0  0
   21.3464   -9.5218  -14.3325 C   0  0  0  0  0  0  0  0  0  0  0  0
   22.0793  -10.3622  -13.5202 C   0  0  0  0  0  0  0  0  0  0  0  0
   22.1283  -10.2089  -12.1534 C   0  0  0  0  0  0  0  0  0  0  0  0
   21.4133   -9.1730  -11.5917 C   0  0  0  0  0  0  0  0  0  0  0  0
   20.6720   -8.3223  -12.4088 C   0  0  0  0  0  0  0  0  0  0  0  0
   21.8083   -6.0208  -14.5792 C   0  0  0  0  0  0  0  0  0  0  0  0
   22.9903   -6.1739  -14.9536 O   0  0  0  0  0  0  0  0  0  0  0  0
   21.5681   -5.3345  -13.4073 O   0  0  0  0  0  0  0  0  0  0  0  0
  2  1  1  6
  2  6  1  0
  3  2  1  0
  4  3  1  0
  4  5  2  0
  6  7  2  0
  8  4  1  0
  9 10  1  0
 10 12  1  0
 10 11  2  0
 12 13  1  0
 14 13  1  6
 14 16  1  0
 15  6  1  0
 15 14  1  0
 16 17  2  0
 18 19  1  0
 18 16  1  0
 19 27  1  0
 19 20  1  1
 21 20  1  0
 22 21  2  0
 23 22  1  0
 24 23  2  0
 24 25  1  0
 25 26  2  0
 26 21  1  0
 27 28  2  0
 27 29  1  0
M  END
$$$$
