CWT.pdb
     RDKit          3D

 28 29  0  0  1  0  0  0  0  0999 V2000
    6.5876  -14.6311   20.4209 N   0  0  0  0  0  0  0  0  0  0  0  0
    6.9557  -15.8632   21.1046 C   0  0  1  0  0  0  0  0  0  0  0  0
    7.3853  -16.8483   20.0189 C   0  0  0  0  0  0  0  0  0  0  0  0
    7.7740  -18.4707   20.7198 S   0  0  0  0  0  0  0  0  0  0  0  0
    8.0465  -15.5587   22.0559 C   0  0  0  0  0  0  0  0  0  0  0  0
    8.8935  -14.6958   21.7598 O   0  0  0  0  0  0  0  0  0  0  0  0
    8.0994  -16.2552   23.2766 N   0  0  0  0  0  0  0  0  0  0  0  0
    9.1539  -16.1170   24.2339 C   0  0  1  0  0  0  0  0  0  0  0  0
    8.6090  -16.0474   25.6106 C   0  0  0  0  0  0  0  0  0  0  0  0
    7.4690  -15.1509   25.8161 C   0  0  0  0  0  0  0  0  0  0  0  0
    6.1100  -15.4929   25.8002 C   0  0  0  0  0  0  0  0  0  0  0  0
    5.3847  -14.3759   25.9598 N   0  0  0  0  0  0  0  0  0  0  0  0
    6.2139  -13.3137   26.0801 C   0  0  0  0  0  0  0  0  0  0  0  0
    5.9697  -11.9712   26.3000 C   0  0  0  0  0  0  0  0  0  0  0  0
    7.0160  -11.0564   26.4407 C   0  0  0  0  0  0  0  0  0  0  0  0
    8.3129  -11.5256   26.3538 C   0  0  0  0  0  0  0  0  0  0  0  0
    8.5177  -12.8586   26.1341 C   0  0  0  0  0  0  0  0  0  0  0  0
    7.5086  -13.7939   25.9901 C   0  0  0  0  0  0  0  0  0  0  0  0
   10.3146  -16.9530   23.9530 C   0  0  0  0  0  0  0  0  0  0  0  0
   10.2244  -18.2303   23.9737 O   0  0  0  0  0  0  0  0  0  0  0  0
   12.4535  -16.7664   20.9130 C   0  0  0  0  0  0  0  0  0  0  0  0
   13.3914  -16.8067   22.0897 C   0  0  1  0  0  0  0  0  0  0  0  0
   13.8836  -15.4982   22.3117 O   0  0  0  0  0  0  0  0  0  0  0  0
   12.7264  -17.3290   23.3166 C   0  0  2  0  0  0  0  0  0  0  0  0
   11.6033  -16.4250   23.6556 N   0  0  0  0  0  0  0  0  0  0  0  0
   13.7091  -17.2200   24.4592 C   0  0  0  0  0  0  0  0  0  0  0  0
   14.7166  -17.9163   24.4499 O   0  0  0  0  0  0  0  0  0  0  0  0
   13.4229  -16.3360   25.4654 O   0  0  0  0  0  0  0  0  0  0  0  0
  2  1  1  6
  2  3  1  0
  4  3  1  0
  5  2  1  0
  5  6  2  0
  7  5  1  0
  8  7  1  0
  8  9  1  1
 10  9  1  0
 10 18  1  0
 11 12  1  0
 11 10  2  0
 12 13  1  0
 13 18  2  0
 13 14  1  0
 14 15  2  0
 15 16  1  0
 17 16  2  0
 18 17  1  0
 19  8  1  0
 19 20  2  0
 22 21  1  6
 23 22  1  0
 24 25  1  1
 24 22  1  0
 25 19  1  0
 26 24  1  0
 27 26  2  0
 28 26  1  0
M  END
$$$$
