CWT.pdb
     RDKit          3D

 28 29  0  0  1  0  0  0  0  0999 V2000
    7.0951  -13.5451   20.0273 N   0  0  0  0  0  0  0  0  0  0  0  0
    7.2679  -14.9286   20.4482 C   0  0  1  0  0  0  0  0  0  0  0  0
    7.8482  -15.6761   19.2490 C   0  0  0  0  0  0  0  0  0  0  0  0
    8.0706  -17.4343   19.6151 S   0  0  0  0  0  0  0  0  0  0  0  0
    8.1718  -14.9487   21.6187 C   0  0  0  0  0  0  0  0  0  0  0  0
    9.0733  -14.0951   21.7103 O   0  0  0  0  0  0  0  0  0  0  0  0
    7.9891  -15.9365   22.6031 N   0  0  0  0  0  0  0  0  0  0  0  0
    8.8929  -16.1636   23.6890 C   0  0  1  0  0  0  0  0  0  0  0  0
    8.1639  -16.2139   24.9786 C   0  0  0  0  0  0  0  0  0  0  0  0
    7.2602  -15.0962   25.2607 C   0  0  0  0  0  0  0  0  0  0  0  0
    5.8881  -15.0267   24.9837 C   0  0  0  0  0  0  0  0  0  0  0  0
    5.4413  -13.8108   25.3316 N   0  0  0  0  0  0  0  0  0  0  0  0
    6.4659  -13.0789   25.8265 C   0  0  0  0  0  0  0  0  0  0  0  0
    6.5198  -11.8016   26.3518 C   0  0  0  0  0  0  0  0  0  0  0  0
    7.7107  -11.2735   26.8559 C   0  0  0  0  0  0  0  0  0  0  0  0
    8.8451  -12.0617   26.8176 C   0  0  0  0  0  0  0  0  0  0  0  0
    8.7561  -13.3189   26.2899 C   0  0  0  0  0  0  0  0  0  0  0  0
    7.5961  -13.8760   25.7820 C   0  0  0  0  0  0  0  0  0  0  0  0
    9.9233  -17.1527   23.3975 C   0  0  0  0  0  0  0  0  0  0  0  0
    9.6263  -18.3916   23.2674 O   0  0  0  0  0  0  0  0  0  0  0  0
   14.6524  -18.2094   22.2434 C   0  0  0  0  0  0  0  0  0  0  0  0
   13.5197  -17.2322   22.4110 C   0  0  1  0  0  0  0  0  0  0  0  0
   13.2399  -16.6543   21.1495 O   0  0  0  0  0  0  0  0  0  0  0  0
   12.3002  -17.8811   22.9696 C   0  0  2  0  0  0  0  0  0  0  0  0
   11.3015  -16.8247   23.2527 N   0  0  0  0  0  0  0  0  0  0  0  0
   12.6650  -18.4798   24.3082 C   0  0  0  0  0  0  0  0  0  0  0  0
   12.2993  -17.9190   25.3337 O   0  0  0  0  0  0  0  0  0  0  0  0
   13.3977  -19.6369   24.3117 O   0  0  0  0  0  0  0  0  0  0  0  0
  2  1  1  6
  2  3  1  0
  4  3  1  0
  5  2  1  0
  5  6  2  0
  7  5  1  0
  8  7  1  0
  8  9  1  1
 10  9  1  0
 10 18  1  0
 11 12  1  0
 11 10  2  0
 12 13  1  0
 13 18  2  0
 13 14  1  0
 14 15  2  0
 15 16  1  0
 17 16  2  0
 18 17  1  0
 19  8  1  0
 19 20  2  0
 22 21  1  6
 23 22  1  0
 24 25  1  1
 24 22  1  0
 25 19  1  0
 26 24  1  0
 27 26  2  0
 28 26  1  0
M  END
$$$$
