CWT.pdb
     RDKit          3D

 28 29  0  0  1  0  0  0  0  0999 V2000
    6.9113  -14.5573   20.1530 N   0  0  0  0  0  0  0  0  0  0  0  0
    6.8160  -15.6578   21.1020 C   0  0  1  0  0  0  0  0  0  0  0  0
    6.8696  -16.9440   20.2793 C   0  0  0  0  0  0  0  0  0  0  0  0
    8.5116  -17.1980   19.5627 S   0  0  0  0  0  0  0  0  0  0  0  0
    7.9418  -15.5486   22.0549 C   0  0  0  0  0  0  0  0  0  0  0  0
    8.8795  -14.7681   21.8072 O   0  0  0  0  0  0  0  0  0  0  0  0
    7.9244  -16.3331   23.2221 N   0  0  0  0  0  0  0  0  0  0  0  0
    8.9856  -16.3675   24.1813 C   0  0  1  0  0  0  0  0  0  0  0  0
    8.4518  -16.2676   25.5605 C   0  0  0  0  0  0  0  0  0  0  0  0
    7.4233  -15.2502   25.7894 C   0  0  0  0  0  0  0  0  0  0  0  0
    6.0337  -15.4264   25.7435 C   0  0  0  0  0  0  0  0  0  0  0  0
    5.4438  -14.2379   25.9405 N   0  0  0  0  0  0  0  0  0  0  0  0
    6.3913  -13.2880   26.1143 C   0  0  0  0  0  0  0  0  0  0  0  0
    6.3049  -11.9357   26.3864 C   0  0  0  0  0  0  0  0  0  0  0  0
    7.4501  -11.1588   26.5770 C   0  0  0  0  0  0  0  0  0  0  0  0
    8.6832  -11.7758   26.4861 C   0  0  0  0  0  0  0  0  0  0  0  0
    8.7317  -13.1139   26.2140 C   0  0  0  0  0  0  0  0  0  0  0  0
    7.6210  -13.9155   26.0197 C   0  0  0  0  0  0  0  0  0  0  0  0
   10.0239  -17.3431   23.8727 C   0  0  0  0  0  0  0  0  0  0  0  0
    9.7204  -18.5412   23.5374 O   0  0  0  0  0  0  0  0  0  0  0  0
   12.6870  -17.2949   21.2623 C   0  0  0  0  0  0  0  0  0  0  0  0
   13.3578  -17.5201   22.5910 C   0  0  1  0  0  0  0  0  0  0  0  0
   13.8845  -16.2850   23.0388 O   0  0  0  0  0  0  0  0  0  0  0  0
   12.4197  -18.0845   23.6019 C   0  0  2  0  0  0  0  0  0  0  0  0
   11.4156  -17.0472   23.9323 N   0  0  0  0  0  0  0  0  0  0  0  0
   13.1997  -18.3299   24.8726 C   0  0  0  0  0  0  0  0  0  0  0  0
   12.9738  -17.6362   25.8563 O   0  0  0  0  0  0  0  0  0  0  0  0
   14.1356  -19.3298   24.8643 O   0  0  0  0  0  0  0  0  0  0  0  0
  2  1  1  6
  2  3  1  0
  4  3  1  0
  5  2  1  0
  5  6  2  0
  7  5  1  0
  8  7  1  0
  8  9  1  1
 10  9  1  0
 10 18  1  0
 11 12  1  0
 11 10  2  0
 12 13  1  0
 13 18  2  0
 13 14  1  0
 14 15  2  0
 15 16  1  0
 17 16  2  0
 18 17  1  0
 19  8  1  0
 19 20  2  0
 22 21  1  6
 23 22  1  0
 24 25  1  1
 24 22  1  0
 25 19  1  0
 26 24  1  0
 27 26  2  0
 28 26  1  0
M  END
$$$$
