CWT.pdb
     RDKit          3D

 28 29  0  0  1  0  0  0  0  0999 V2000
    6.7282  -17.4395   21.6805 N   0  0  0  0  0  0  0  0  0  0  0  0
    7.3390  -16.1761   21.2911 C   0  0  1  0  0  0  0  0  0  0  0  0
    6.2132  -15.1440   21.2568 C   0  0  0  0  0  0  0  0  0  0  0  0
    4.8400  -15.7032   20.2193 S   0  0  0  0  0  0  0  0  0  0  0  0
    8.3842  -15.8403   22.2821 C   0  0  0  0  0  0  0  0  0  0  0  0
    9.0812  -14.8224   22.1152 O   0  0  0  0  0  0  0  0  0  0  0  0
    8.5651  -16.6834   23.3932 N   0  0  0  0  0  0  0  0  0  0  0  0
    9.5860  -16.5029   24.3793 C   0  0  1  0  0  0  0  0  0  0  0  0
    8.9987  -16.4364   25.7387 C   0  0  0  0  0  0  0  0  0  0  0  0
    7.8455  -15.5493   25.9080 C   0  0  0  0  0  0  0  0  0  0  0  0
    6.4911  -15.8911   25.7942 C   0  0  0  0  0  0  0  0  0  0  0  0
    5.7541  -14.7815   25.9522 N   0  0  0  0  0  0  0  0  0  0  0  0
    6.5711  -13.7245   26.1656 C   0  0  0  0  0  0  0  0  0  0  0  0
    6.3098  -12.3918   26.4225 C   0  0  0  0  0  0  0  0  0  0  0  0
    7.3426  -11.4828   26.6639 C   0  0  0  0  0  0  0  0  0  0  0  0
    8.6437  -11.9477   26.6394 C   0  0  0  0  0  0  0  0  0  0  0  0
    8.8657  -13.2708   26.3806 C   0  0  0  0  0  0  0  0  0  0  0  0
    7.8702  -14.2002   26.1374 C   0  0  0  0  0  0  0  0  0  0  0  0
   10.7796  -17.3054   24.1417 C   0  0  0  0  0  0  0  0  0  0  0  0
   10.7284  -18.5846   24.1759 O   0  0  0  0  0  0  0  0  0  0  0  0
   12.8307  -17.3515   21.1165 C   0  0  0  0  0  0  0  0  0  0  0  0
   13.7931  -17.1640   22.2587 C   0  0  1  0  0  0  0  0  0  0  0  0
   14.1491  -15.7955   22.3209 O   0  0  0  0  0  0  0  0  0  0  0  0
   13.2140  -17.6121   23.5565 C   0  0  2  0  0  0  0  0  0  0  0  0
   12.0592  -16.7409   23.8741 N   0  0  0  0  0  0  0  0  0  0  0  0
   14.2399  -17.3549   24.6357 C   0  0  0  0  0  0  0  0  0  0  0  0
   14.0691  -16.4244   25.4136 O   0  0  0  0  0  0  0  0  0  0  0  0
   15.3273  -18.1854   24.6939 O   0  0  0  0  0  0  0  0  0  0  0  0
  2  1  1  1
  2  3  1  0
  4  3  1  0
  5  2  1  0
  5  6  2  0
  7  5  1  0
  8  7  1  0
  8  9  1  1
 10  9  1  0
 10 18  1  0
 11 12  1  0
 11 10  2  0
 12 13  1  0
 13 18  2  0
 13 14  1  0
 14 15  2  0
 15 16  1  0
 17 16  2  0
 18 17  1  0
 19  8  1  0
 19 20  2  0
 22 21  1  6
 23 22  1  0
 24 25  1  1
 24 22  1  0
 25 19  1  0
 26 24  1  0
 27 26  2  0
 28 26  1  0
M  END
$$$$
