CWT.pdb
     RDKit          3D

 28 29  0  0  1  0  0  0  0  0999 V2000
    9.7887  -16.1691   17.7310 N   0  0  0  0  0  0  0  0  0  0  0  0
    8.6784  -16.5684   18.5847 C   0  0  1  0  0  0  0  0  0  0  0  0
    8.5415  -18.0826   18.4358 C   0  0  0  0  0  0  0  0  0  0  0  0
    9.9627  -18.9447   19.1511 S   0  0  0  0  0  0  0  0  0  0  0  0
    8.9898  -16.1624   19.9724 C   0  0  0  0  0  0  0  0  0  0  0  0
   10.1302  -15.7451   20.2466 O   0  0  0  0  0  0  0  0  0  0  0  0
    7.9849  -16.2586   20.9517 N   0  0  0  0  0  0  0  0  0  0  0  0
    8.1562  -15.8691   22.3178 C   0  0  1  0  0  0  0  0  0  0  0  0
    6.9122  -15.2671   22.8534 C   0  0  0  0  0  0  0  0  0  0  0  0
    6.8755  -15.0222   24.2971 C   0  0  0  0  0  0  0  0  0  0  0  0
    6.5664  -15.9463   25.3045 C   0  0  0  0  0  0  0  0  0  0  0  0
    6.5753  -15.3116   26.4862 N   0  0  0  0  0  0  0  0  0  0  0  0
    6.8783  -14.0070   26.2946 C   0  0  0  0  0  0  0  0  0  0  0  0
    7.0507  -12.9590   27.1790 C   0  0  0  0  0  0  0  0  0  0  0  0
    7.4189  -11.6869   26.7345 C   0  0  0  0  0  0  0  0  0  0  0  0
    7.6083  -11.4957   25.3791 C   0  0  0  0  0  0  0  0  0  0  0  0
    7.4276  -12.5534   24.5332 C   0  0  0  0  0  0  0  0  0  0  0  0
    7.0639  -13.8261   24.9353 C   0  0  0  0  0  0  0  0  0  0  0  0
    8.8965  -16.8388   23.1159 C   0  0  0  0  0  0  0  0  0  0  0  0
    8.5252  -18.0632   23.1722 O   0  0  0  0  0  0  0  0  0  0  0  0
   12.2845  -17.9786   22.6362 C   0  0  0  0  0  0  0  0  0  0  0  0
   12.2112  -17.5427   24.0751 C   0  0  1  0  0  0  0  0  0  0  0  0
   12.7667  -16.2447   24.1760 O   0  0  0  0  0  0  0  0  0  0  0  0
   10.8134  -17.5535   24.5915 C   0  0  2  0  0  0  0  0  0  0  0  0
   10.0489  -16.5023   23.8817 N   0  0  0  0  0  0  0  0  0  0  0  0
   10.8517  -17.1336   26.0426 C   0  0  0  0  0  0  0  0  0  0  0  0
   11.3592  -17.8822   26.8685 O   0  0  0  0  0  0  0  0  0  0  0  0
   10.3094  -15.9195   26.3705 O   0  0  0  0  0  0  0  0  0  0  0  0
  2  1  1  6
  2  3  1  0
  4  3  1  0
  5  2  1  0
  5  6  2  0
  7  5  1  0
  8  7  1  0
  8  9  1  1
 10  9  1  0
 10 18  1  0
 11 12  1  0
 11 10  2  0
 12 13  1  0
 13 18  2  0
 13 14  1  0
 14 15  2  0
 15 16  1  0
 17 16  2  0
 18 17  1  0
 19  8  1  0
 19 20  2  0
 22 21  1  6
 23 22  1  0
 24 25  1  6
 24 22  1  0
 25 19  1  0
 26 24  1  0
 27 26  2  0
 28 26  1  0
M  END
$$$$
