CWT.pdb
     RDKit          3D

 28 29  0  0  1  0  0  0  0  0999 V2000
    7.3176  -14.7565   20.3378 N   0  0  0  0  0  0  0  0  0  0  0  0
    7.5786  -16.0495   20.9551 C   0  0  1  0  0  0  0  0  0  0  0  0
    8.2126  -16.9242   19.8749 C   0  0  0  0  0  0  0  0  0  0  0  0
    8.5090  -18.6039   20.4792 S   0  0  0  0  0  0  0  0  0  0  0  0
    8.4761  -15.8396   22.1118 C   0  0  0  0  0  0  0  0  0  0  0  0
    9.3894  -14.9974   22.0325 O   0  0  0  0  0  0  0  0  0  0  0  0
    8.2740  -16.6004   23.2772 N   0  0  0  0  0  0  0  0  0  0  0  0
    9.1228  -16.5461   24.4278 C   0  0  1  0  0  0  0  0  0  0  0  0
    8.3195  -16.4756   25.6715 C   0  0  0  0  0  0  0  0  0  0  0  0
    7.3482  -15.3827   25.7592 C   0  0  0  0  0  0  0  0  0  0  0  0
    5.9590  -15.4701   25.5959 C   0  0  0  0  0  0  0  0  0  0  0  0
    5.4384  -14.2369   25.6838 N   0  0  0  0  0  0  0  0  0  0  0  0
    6.4310  -13.3431   25.8985 C   0  0  0  0  0  0  0  0  0  0  0  0
    6.4155  -11.9757   26.0991 C   0  0  0  0  0  0  0  0  0  0  0  0
    7.5910  -11.2662   26.3565 C   0  0  0  0  0  0  0  0  0  0  0  0
    8.7814  -11.9663   26.4060 C   0  0  0  0  0  0  0  0  0  0  0  0
    8.7601  -13.3171   26.2015 C   0  0  0  0  0  0  0  0  0  0  0  0
    7.6175  -14.0536   25.9446 C   0  0  0  0  0  0  0  0  0  0  0  0
   10.2700  -17.4425   24.3534 C   0  0  0  0  0  0  0  0  0  0  0  0
   10.1226  -18.6719   24.0266 O   0  0  0  0  0  0  0  0  0  0  0  0
   13.3450  -17.0007   22.3338 C   0  0  0  0  0  0  0  0  0  0  0  0
   13.8052  -17.3446   23.7253 C   0  0  1  0  0  0  0  0  0  0  0  0
   14.2487  -16.1564   24.3539 O   0  0  0  0  0  0  0  0  0  0  0  0
   12.7267  -17.9879   24.5274 C   0  0  2  0  0  0  0  0  0  0  0  0
   11.6021  -17.0312   24.6436 N   0  0  0  0  0  0  0  0  0  0  0  0
   13.2495  -18.1896   25.9306 C   0  0  0  0  0  0  0  0  0  0  0  0
   12.7936  -17.5102   26.8420 O   0  0  0  0  0  0  0  0  0  0  0  0
   14.2222  -19.1350   26.1199 O   0  0  0  0  0  0  0  0  0  0  0  0
  2  1  1  6
  2  3  1  0
  4  3  1  0
  5  2  1  0
  5  6  2  0
  7  5  1  0
  8  7  1  0
  8  9  1  1
 10  9  1  0
 10 18  1  0
 11 12  1  0
 11 10  2  0
 12 13  1  0
 13 18  2  0
 13 14  1  0
 14 15  2  0
 15 16  1  0
 17 16  2  0
 18 17  1  0
 19  8  1  0
 19 20  2  0
 22 21  1  6
 23 22  1  0
 24 25  1  1
 24 22  1  0
 25 19  1  0
 26 24  1  0
 27 26  2  0
 28 26  1  0
M  END
$$$$
