CWT.pdb
     RDKit          3D

 28 29  0  0  1  0  0  0  0  0999 V2000
    9.0445  -17.7629   19.1920 N   0  0  0  0  0  0  0  0  0  0  0  0
   10.1372  -16.8095   19.3261 C   0  0  1  0  0  0  0  0  0  0  0  0
    9.9589  -15.7870   18.2052 C   0  0  0  0  0  0  0  0  0  0  0  0
    8.3991  -14.8863   18.3789 S   0  0  0  0  0  0  0  0  0  0  0  0
   10.0563  -16.1959   20.6695 C   0  0  0  0  0  0  0  0  0  0  0  0
   10.9923  -15.4811   21.0729 O   0  0  0  0  0  0  0  0  0  0  0  0
    8.9188  -16.4369   21.4607 N   0  0  0  0  0  0  0  0  0  0  0  0
    8.7615  -15.9676   22.8032 C   0  0  1  0  0  0  0  0  0  0  0  0
    7.4617  -15.2748   22.9696 C   0  0  0  0  0  0  0  0  0  0  0  0
    7.0572  -14.9688   24.3438 C   0  0  0  0  0  0  0  0  0  0  0  0
    6.4280  -15.8306   25.2523 C   0  0  0  0  0  0  0  0  0  0  0  0
    6.1640  -15.1493   26.3773 N   0  0  0  0  0  0  0  0  0  0  0  0
    6.5953  -13.8740   26.2434 C   0  0  0  0  0  0  0  0  0  0  0  0
    6.5961  -12.8025   27.1163 C   0  0  0  0  0  0  0  0  0  0  0  0
    7.1556  -11.5739   26.7573 C   0  0  0  0  0  0  0  0  0  0  0  0
    7.7129  -11.4503   25.4988 C   0  0  0  0  0  0  0  0  0  0  0  0
    7.6932  -12.5295   24.6610 C   0  0  0  0  0  0  0  0  0  0  0  0
    7.1494  -13.7607   24.9804 C   0  0  0  0  0  0  0  0  0  0  0  0
    9.2138  -16.9166   23.8131 C   0  0  0  0  0  0  0  0  0  0  0  0
    8.6495  -18.0592   23.9401 O   0  0  0  0  0  0  0  0  0  0  0  0
   12.4683  -18.4265   23.8818 C   0  0  0  0  0  0  0  0  0  0  0  0
   12.2589  -17.8968   25.2752 C   0  0  1  0  0  0  0  0  0  0  0  0
   12.9515  -16.6680   25.3932 O   0  0  0  0  0  0  0  0  0  0  0  0
   10.8144  -17.7140   25.5922 C   0  0  2  0  0  0  0  0  0  0  0  0
   10.2796  -16.6451   24.7176 N   0  0  0  0  0  0  0  0  0  0  0  0
   10.7124  -17.1872   27.0048 C   0  0  0  0  0  0  0  0  0  0  0  0
   10.9835  -17.9293   27.9407 O   0  0  0  0  0  0  0  0  0  0  0  0
   10.3160  -15.8873   27.1744 O   0  0  0  0  0  0  0  0  0  0  0  0
  2  1  1  1
  2  3  1  0
  4  3  1  0
  5  2  1  0
  5  6  2  0
  7  5  1  0
  8  7  1  0
  8  9  1  1
 10  9  1  0
 10 18  1  0
 11 12  1  0
 11 10  2  0
 12 13  1  0
 13 18  2  0
 13 14  1  0
 14 15  2  0
 15 16  1  0
 17 16  2  0
 18 17  1  0
 19  8  1  0
 19 20  2  0
 22 21  1  6
 23 22  1  0
 24 25  1  6
 24 22  1  0
 25 19  1  0
 26 24  1  0
 27 26  2  0
 28 26  1  0
M  END
$$$$
