CWT.pdb
     RDKit          3D

 28 29  0  0  1  0  0  0  0  0999 V2000
   10.7668  -16.3011   18.1390 N   0  0  0  0  0  0  0  0  0  0  0  0
    9.5198  -16.6120   18.8240 C   0  0  1  0  0  0  0  0  0  0  0  0
    9.3178  -18.1204   18.6911 C   0  0  0  0  0  0  0  0  0  0  0  0
   10.4876  -19.0340   19.7261 S   0  0  0  0  0  0  0  0  0  0  0  0
    9.6434  -16.1799   20.2331 C   0  0  0  0  0  0  0  0  0  0  0  0
   10.7679  -15.9094   20.6937 O   0  0  0  0  0  0  0  0  0  0  0  0
    8.4820  -16.0853   21.0206 N   0  0  0  0  0  0  0  0  0  0  0  0
    8.4794  -15.7288   22.4064 C   0  0  1  0  0  0  0  0  0  0  0  0
    7.2090  -15.0601   22.7753 C   0  0  0  0  0  0  0  0  0  0  0  0
    7.0045  -14.7898   24.2003 C   0  0  0  0  0  0  0  0  0  0  0  0
    6.5413  -15.6856   25.1735 C   0  0  0  0  0  0  0  0  0  0  0  0
    6.4282  -15.0317   26.3393 N   0  0  0  0  0  0  0  0  0  0  0  0
    6.7991  -13.7417   26.1700 C   0  0  0  0  0  0  0  0  0  0  0  0
    6.8994  -12.6853   27.0557 C   0  0  0  0  0  0  0  0  0  0  0  0
    7.3649  -11.4343   26.6439 C   0  0  0  0  0  0  0  0  0  0  0  0
    7.7256  -11.2726   25.3198 C   0  0  0  0  0  0  0  0  0  0  0  0
    7.6121  -12.3376   24.4715 C   0  0  0  0  0  0  0  0  0  0  0  0
    7.1563  -13.5902   24.8418 C   0  0  0  0  0  0  0  0  0  0  0  0
    9.0403  -16.7547   23.2771 C   0  0  0  0  0  0  0  0  0  0  0  0
    8.5687  -17.9454   23.2775 O   0  0  0  0  0  0  0  0  0  0  0  0
   12.3448  -18.2971   23.2641 C   0  0  0  0  0  0  0  0  0  0  0  0
   12.1332  -17.7401   24.6464 C   0  0  1  0  0  0  0  0  0  0  0  0
   12.7697  -16.4780   24.7201 O   0  0  0  0  0  0  0  0  0  0  0  0
   10.6870  -17.6154   24.9831 C   0  0  2  0  0  0  0  0  0  0  0  0
   10.1169  -16.5116   24.1769 N   0  0  0  0  0  0  0  0  0  0  0  0
   10.5825  -17.1759   26.4251 C   0  0  0  0  0  0  0  0  0  0  0  0
   10.1736  -16.0496   26.6788 O   0  0  0  0  0  0  0  0  0  0  0  0
   10.9554  -18.0695   27.3936 O   0  0  0  0  0  0  0  0  0  0  0  0
  2  1  1  6
  2  3  1  0
  4  3  1  0
  5  2  1  0
  5  6  2  0
  7  5  1  0
  8  7  1  0
  8  9  1  1
 10  9  1  0
 10 18  1  0
 11 12  1  0
 11 10  2  0
 12 13  1  0
 13 18  2  0
 13 14  1  0
 14 15  2  0
 15 16  1  0
 17 16  2  0
 18 17  1  0
 19  8  1  0
 19 20  2  0
 22 21  1  6
 23 22  1  0
 24 25  1  6
 24 22  1  0
 25 19  1  0
 26 24  1  0
 27 26  2  0
 28 26  1  0
M  END
$$$$
