CWT.pdb
     RDKit          3D

 28 29  0  0  1  0  0  0  0  0999 V2000
    8.0410  -16.6258   21.0329 N   0  0  0  0  0  0  0  0  0  0  0  0
    8.7281  -15.3776   21.3346 C   0  0  1  0  0  0  0  0  0  0  0  0
    7.6982  -14.2633   21.1573 C   0  0  0  0  0  0  0  0  0  0  0  0
    6.1321  -14.6816   21.9616 S   0  0  0  0  0  0  0  0  0  0  0  0
    9.2456  -15.4546   22.7180 C   0  0  0  0  0  0  0  0  0  0  0  0
    9.9857  -14.5495   23.1456 O   0  0  0  0  0  0  0  0  0  0  0  0
    8.8868  -16.5536   23.5189 N   0  0  0  0  0  0  0  0  0  0  0  0
    9.3791  -16.7750   24.8441 C   0  0  1  0  0  0  0  0  0  0  0  0
    8.2707  -16.7518   25.8280 C   0  0  0  0  0  0  0  0  0  0  0  0
    7.3844  -15.5865   25.7843 C   0  0  0  0  0  0  0  0  0  0  0  0
    6.0462  -15.5563   25.3692 C   0  0  0  0  0  0  0  0  0  0  0  0
    5.6120  -14.2878   25.4129 N   0  0  0  0  0  0  0  0  0  0  0  0
    6.6125  -13.4838   25.8405 C   0  0  0  0  0  0  0  0  0  0  0  0
    6.6629  -12.1256   26.0918 C   0  0  0  0  0  0  0  0  0  0  0  0
    7.8210  -11.5212   26.5866 C   0  0  0  0  0  0  0  0  0  0  0  0
    8.9263  -12.3167   26.8212 C   0  0  0  0  0  0  0  0  0  0  0  0
    8.8419  -13.6552   26.5600 C   0  0  0  0  0  0  0  0  0  0  0  0
    7.7139  -14.2892   26.0705 C   0  0  0  0  0  0  0  0  0  0  0  0
   10.4010  -17.8115   24.9247 C   0  0  0  0  0  0  0  0  0  0  0  0
   10.1036  -19.0429   24.7369 O   0  0  0  0  0  0  0  0  0  0  0  0
   13.8228  -17.8759   23.1904 C   0  0  0  0  0  0  0  0  0  0  0  0
   14.0155  -18.1814   24.6517 C   0  0  1  0  0  0  0  0  0  0  0  0
   14.5022  -17.0155   25.2899 O   0  0  0  0  0  0  0  0  0  0  0  0
   12.7537  -18.6414   25.2974 C   0  0  2  0  0  0  0  0  0  0  0  0
   11.7667  -17.5398   25.2231 N   0  0  0  0  0  0  0  0  0  0  0  0
   13.0345  -18.8515   26.7672 C   0  0  0  0  0  0  0  0  0  0  0  0
   13.7705  -19.7684   27.1103 O   0  0  0  0  0  0  0  0  0  0  0  0
   12.4446  -17.9955   27.6587 O   0  0  0  0  0  0  0  0  0  0  0  0
  2  1  1  1
  2  3  1  0
  4  3  1  0
  5  2  1  0
  5  6  2  0
  7  5  1  0
  8  7  1  0
  8  9  1  1
 10  9  1  0
 10 18  1  0
 11 12  1  0
 11 10  2  0
 12 13  1  0
 13 18  2  0
 13 14  1  0
 14 15  2  0
 15 16  1  0
 17 16  2  0
 18 17  1  0
 19  8  1  0
 19 20  2  0
 22 21  1  6
 23 22  1  0
 24 25  1  1
 24 22  1  0
 25 19  1  0
 26 24  1  0
 27 26  2  0
 28 26  1  0
M  END
$$$$
