CWT.pdb
     RDKit          3D

 28 29  0  0  1  0  0  0  0  0999 V2000
    6.6741  -14.6523   20.1237 N   0  0  0  0  0  0  0  0  0  0  0  0
    6.8510  -15.9064   20.8427 C   0  0  1  0  0  0  0  0  0  0  0  0
    7.1354  -16.9736   19.7873 C   0  0  0  0  0  0  0  0  0  0  0  0
    7.3643  -18.6015   20.5434 S   0  0  0  0  0  0  0  0  0  0  0  0
    7.9698  -15.7416   21.7961 C   0  0  0  0  0  0  0  0  0  0  0  0
    8.9066  -14.9722   21.5130 O   0  0  0  0  0  0  0  0  0  0  0  0
    7.9467  -16.4618   23.0039 N   0  0  0  0  0  0  0  0  0  0  0  0
    8.9623  -16.3763   24.0082 C   0  0  1  0  0  0  0  0  0  0  0  0
    8.3600  -16.3004   25.3605 C   0  0  0  0  0  0  0  0  0  0  0  0
    7.3638  -15.2477   25.5723 C   0  0  0  0  0  0  0  0  0  0  0  0
    5.9777  -15.3453   25.3896 C   0  0  0  0  0  0  0  0  0  0  0  0
    5.4288  -14.1435   25.6217 N   0  0  0  0  0  0  0  0  0  0  0  0
    6.3998  -13.2605   25.9498 C   0  0  0  0  0  0  0  0  0  0  0  0
    6.3524  -11.9280   26.3136 C   0  0  0  0  0  0  0  0  0  0  0  0
    7.5103  -11.2291   26.6632 C   0  0  0  0  0  0  0  0  0  0  0  0
    8.7160  -11.9036   26.6367 C   0  0  0  0  0  0  0  0  0  0  0  0
    8.7264  -13.2200   26.2706 C   0  0  0  0  0  0  0  0  0  0  0  0
    7.6020  -13.9451   25.9185 C   0  0  0  0  0  0  0  0  0  0  0  0
   10.1005  -17.2549   23.7679 C   0  0  0  0  0  0  0  0  0  0  0  0
    9.9312  -18.5073   23.5609 O   0  0  0  0  0  0  0  0  0  0  0  0
   14.9495  -17.8563   22.8689 C   0  0  0  0  0  0  0  0  0  0  0  0
   13.7058  -17.0117   22.9462 C   0  0  1  0  0  0  0  0  0  0  0  0
   13.3789  -16.5799   21.6384 O   0  0  0  0  0  0  0  0  0  0  0  0
   12.5638  -17.7531   23.5515 C   0  0  2  0  0  0  0  0  0  0  0  0
   11.4497  -16.7995   23.7586 N   0  0  0  0  0  0  0  0  0  0  0  0
   12.9846  -18.2086   24.9295 C   0  0  0  0  0  0  0  0  0  0  0  0
   12.5158  -17.6495   25.9132 O   0  0  0  0  0  0  0  0  0  0  0  0
   13.8828  -19.2390   25.0147 O   0  0  0  0  0  0  0  0  0  0  0  0
  2  1  1  6
  2  3  1  0
  4  3  1  0
  5  2  1  0
  5  6  2  0
  7  5  1  0
  8  7  1  0
  8  9  1  1
 10  9  1  0
 10 18  1  0
 11 12  1  0
 11 10  2  0
 12 13  1  0
 13 18  2  0
 13 14  1  0
 14 15  2  0
 15 16  1  0
 17 16  2  0
 18 17  1  0
 19  8  1  0
 19 20  2  0
 22 21  1  6
 23 22  1  0
 24 25  1  1
 24 22  1  0
 25 19  1  0
 26 24  1  0
 27 26  2  0
 28 26  1  0
M  END
$$$$
