VRY.pdb
     RDKit          3D

 31 31  0  0  1  0  0  0  0  0999 V2000
   14.8453  -16.3845   19.2120 C   0  0  0  0  0  0  0  0  0  0  0  0
   13.7884  -15.6416   19.9933 C   0  0  1  0  0  0  0  0  0  0  0  0
   14.4266  -14.4831   20.7204 C   0  0  0  0  0  0  0  0  0  0  0  0
   12.7012  -15.1046   19.0737 C   0  0  2  0  0  0  0  0  0  0  0  0
   13.2346  -14.1509   18.1264 N   0  0  0  0  0  0  0  0  0  0  0  0
   11.6597  -14.4174   19.8764 C   0  0  0  0  0  0  0  0  0  0  0  0
   11.6929  -13.1921   20.1424 O   0  0  0  0  0  0  0  0  0  0  0  0
    8.6673  -17.0151   17.2685 N   0  0  0  0  0  0  0  0  0  0  0  0
    7.4230  -17.6646   17.3314 C   0  0  0  0  0  0  0  0  0  0  0  0
    7.0447  -18.5680   16.4979 N   0  0  0  0  0  0  0  0  0  0  0  0
    6.5188  -17.2937   18.3959 N   0  0  0  0  0  0  0  0  0  0  0  0
    6.7035  -16.0240   19.0388 C   0  0  0  0  0  0  0  0  0  0  0  0
    8.0874  -16.0274   19.7044 C   0  0  0  0  0  0  0  0  0  0  0  0
    8.2176  -14.7717   20.4778 C   0  0  0  0  0  0  0  0  0  0  0  0
    9.5347  -14.6019   21.2251 C   0  0  2  0  0  0  0  0  0  0  0  0
   10.5841  -15.1787   20.3613 N   0  0  0  0  0  0  0  0  0  0  0  0
    9.5028  -15.2884   22.5201 C   0  0  0  0  0  0  0  0  0  0  0  0
    9.6154  -16.5674   22.6010 O   0  0  0  0  0  0  0  0  0  0  0  0
    6.0913  -18.9706   16.5949 O   0  0  0  0  0  0  0  0  0  0  0  0
   10.9705  -15.9923   31.1648 C   0  0  0  0  0  0  0  0  0  0  0  0
   10.4934  -15.6252   29.9161 C   0  0  0  0  0  0  0  0  0  0  0  0
   10.0748  -16.5358   28.9669 C   0  0  0  0  0  0  0  0  0  0  0  0
    9.6043  -16.1255   27.7300 C   0  0  0  0  0  0  0  0  0  0  0  0
    9.5453  -14.7937   27.4227 C   0  0  0  0  0  0  0  0  0  0  0  0
    9.0487  -14.3774   26.1060 C   0  0  2  0  0  0  0  0  0  0  0  0
    9.2184  -15.4222   25.0251 N   0  0  0  0  0  0  0  0  0  0  0  0
    9.3569  -14.6582   23.7843 C   0  0  0  0  0  0  0  0  0  0  0  0
    8.0419  -16.2994   25.0160 O   0  0  0  0  0  0  0  0  0  0  0  0
    7.0140  -16.2115   24.1004 C   0  0  0  0  0  0  0  0  0  0  0  0
    9.9631  -13.8628   28.3680 C   0  0  0  0  0  0  0  0  0  0  0  0
   10.4280  -14.2834   29.5922 O   0  0  0  0  0  0  0  0  0  0  0  0
  2  1  1  6
  2  3  1  0
  4  2  1  0
  4  5  1  6
  6  4  1  0
  7  6  2  0
  9 11  1  0
  9  8  1  0
 10  9  2  0
 12 13  1  0
 12 11  1  0
 13 14  1  0
 15 14  1  6
 15 16  1  0
 16  6  1  0
 17 15  1  0
 17 18  2  0
 20 19  1  0
 21 20  2  0
 22 21  1  0
 23 29  1  0
 23 22  2  0
 24 23  1  0
 25 24  1  1
 25 26  1  0
 26 17  1  0
 27 25  1  0
 28 27  1  0
 29 30  2  0
 30 20  1  0
 31 27  2  0
M  END
$$$$
