VRY.pdb
     RDKit          3D

 31 31  0  0  1  0  0  0  0  0999 V2000
    7.7853  -11.7969   19.9122 C   0  0  0  0  0  0  0  0  0  0  0  0
    8.0064  -12.9768   20.8278 C   0  0  1  0  0  0  0  0  0  0  0  0
    6.7733  -13.1926   21.6712 C   0  0  0  0  0  0  0  0  0  0  0  0
    8.2851  -14.2444   20.0332 C   0  0  2  0  0  0  0  0  0  0  0  0
    7.1703  -14.5871   19.1780 N   0  0  0  0  0  0  0  0  0  0  0  0
    8.5139  -15.3784   20.9619 C   0  0  0  0  0  0  0  0  0  0  0  0
    7.6317  -16.2234   21.2468 O   0  0  0  0  0  0  0  0  0  0  0  0
   16.0597  -16.0964   20.8595 N   0  0  0  0  0  0  0  0  0  0  0  0
   15.2662  -15.6651   19.7830 C   0  0  0  0  0  0  0  0  0  0  0  0
   15.5510  -14.6506   19.0458 N   0  0  0  0  0  0  0  0  0  0  0  0
   14.0614  -16.4074   19.4902 N   0  0  0  0  0  0  0  0  0  0  0  0
   13.4291  -17.1326   20.5550 C   0  0  0  0  0  0  0  0  0  0  0  0
   12.0982  -16.4373   20.8763 C   0  0  0  0  0  0  0  0  0  0  0  0
   11.4316  -17.2140   21.9461 C   0  0  0  0  0  0  0  0  0  0  0  0
   10.1203  -16.6277   22.4545 C   0  0  2  0  0  0  0  0  0  0  0  0
    9.7820  -15.5106   21.5502 N   0  0  0  0  0  0  0  0  0  0  0  0
   10.2523  -16.1481   23.8337 C   0  0  0  0  0  0  0  0  0  0  0  0
   10.9839  -15.1292   24.1193 O   0  0  0  0  0  0  0  0  0  0  0  0
   14.8908  -14.3803   18.2897 O   0  0  0  0  0  0  0  0  0  0  0  0
    6.1681  -11.2204   24.8787 C   0  0  0  0  0  0  0  0  0  0  0  0
    6.7285  -12.3945   25.3575 C   0  0  0  0  0  0  0  0  0  0  0  0
    6.3476  -13.6482   24.9231 C   0  0  0  0  0  0  0  0  0  0  0  0
    6.9343  -14.7971   25.4286 C   0  0  0  0  0  0  0  0  0  0  0  0
    7.9139  -14.7091   26.3796 C   0  0  0  0  0  0  0  0  0  0  0  0
    8.5209  -15.9366   26.9071 C   0  0  2  0  0  0  0  0  0  0  0  0
    9.8841  -16.2474   26.3293 N   0  0  0  0  0  0  0  0  0  0  0  0
    9.6162  -16.7165   24.9689 C   0  0  0  0  0  0  0  0  0  0  0  0
   10.5353  -17.2691   27.1575 O   0  0  0  0  0  0  0  0  0  0  0  0
   11.0267  -17.0435   28.4265 C   0  0  0  0  0  0  0  0  0  0  0  0
    8.3096  -13.4533   26.8281 C   0  0  0  0  0  0  0  0  0  0  0  0
    7.7192  -12.3207   26.3180 O   0  0  0  0  0  0  0  0  0  0  0  0
  2  1  1  6
  2  3  1  0
  4  2  1  0
  4  5  1  6
  6  4  1  0
  7  6  2  0
  9 11  1  0
  9  8  1  0
 10  9  2  0
 12 13  1  0
 12 11  1  0
 13 14  1  0
 15 14  1  6
 15 16  1  0
 16  6  1  0
 17 15  1  0
 17 18  2  0
 20 19  1  0
 21 20  2  0
 22 21  1  0
 23 29  1  0
 23 22  2  0
 24 23  1  0
 25 24  1  6
 25 26  1  0
 26 17  1  0
 27 25  1  0
 28 27  1  0
 29 30  2  0
 30 20  1  0
 31 27  2  0
M  END
$$$$
