VRY.pdb
     RDKit          3D

 31 31  0  0  1  0  0  0  0  0999 V2000
    6.3381  -11.0407   26.4637 C   0  0  0  0  0  0  0  0  0  0  0  0
    7.0983  -12.2388   25.9477 C   0  0  1  0  0  0  0  0  0  0  0  0
    8.1079  -12.6732   26.9822 C   0  0  0  0  0  0  0  0  0  0  0  0
    6.1605  -13.4019   25.6588 C   0  0  2  0  0  0  0  0  0  0  0  0
    5.4953  -13.8547   26.8604 N   0  0  0  0  0  0  0  0  0  0  0  0
    6.9316  -14.5425   25.1062 C   0  0  0  0  0  0  0  0  0  0  0  0
    7.3379  -15.5016   25.8051 O   0  0  0  0  0  0  0  0  0  0  0  0
    8.3553  -14.5079   16.8907 N   0  0  0  0  0  0  0  0  0  0  0  0
    8.1431  -13.7932   18.0818 C   0  0  0  0  0  0  0  0  0  0  0  0
    7.9389  -12.5244   18.1280 N   0  0  0  0  0  0  0  0  0  0  0  0
    8.1555  -14.5303   19.3248 N   0  0  0  0  0  0  0  0  0  0  0  0
    8.7700  -15.8270   19.3449 C   0  0  0  0  0  0  0  0  0  0  0  0
    8.6560  -16.3828   20.7718 C   0  0  0  0  0  0  0  0  0  0  0  0
    7.9827  -15.3578   21.6013 C   0  0  0  0  0  0  0  0  0  0  0  0
    8.0686  -15.5803   23.1063 C   0  0  2  0  0  0  0  0  0  0  0  0
    7.2198  -14.5466   23.7319 N   0  0  0  0  0  0  0  0  0  0  0  0
    9.4505  -15.4652   23.5822 C   0  0  0  0  0  0  0  0  0  0  0  0
   10.0617  -14.3332   23.5911 O   0  0  0  0  0  0  0  0  0  0  0  0
    7.8617  -12.0634   19.0565 O   0  0  0  0  0  0  0  0  0  0  0  0
    9.3828  -14.5429   30.0857 C   0  0  0  0  0  0  0  0  0  0  0  0
   10.0134  -15.1472   29.0091 C   0  0  0  0  0  0  0  0  0  0  0  0
   11.1546  -14.6429   28.4186 C   0  0  0  0  0  0  0  0  0  0  0  0
   11.7533  -15.2792   27.3433 C   0  0  0  0  0  0  0  0  0  0  0  0
   11.2177  -16.4334   26.8406 C   0  0  0  0  0  0  0  0  0  0  0  0
   11.8625  -17.0913   25.6982 C   0  0  2  0  0  0  0  0  0  0  0  0
   11.6669  -16.3717   24.3820 N   0  0  0  0  0  0  0  0  0  0  0  0
   10.2451  -16.5344   24.0739 C   0  0  0  0  0  0  0  0  0  0  0  0
   12.5345  -16.9816   23.3675 O   0  0  0  0  0  0  0  0  0  0  0  0
   13.9084  -16.8614   23.3461 C   0  0  0  0  0  0  0  0  0  0  0  0
   10.0680  -16.9551   27.4242 C   0  0  0  0  0  0  0  0  0  0  0  0
    9.4836  -16.3136   28.4912 O   0  0  0  0  0  0  0  0  0  0  0  0
  2  1  1  1
  2  3  1  0
  4  2  1  0
  4  5  1  1
  6  4  1  0
  7  6  2  0
  9 11  1  0
  9  8  1  0
 10  9  2  0
 12 13  1  0
 12 11  1  0
 13 14  1  0
 15 14  1  6
 15 16  1  0
 16  6  1  0
 17 15  1  0
 17 18  2  0
 20 19  1  0
 21 20  2  0
 22 21  1  0
 23 29  1  0
 23 22  2  0
 24 23  1  0
 25 24  1  1
 25 26  1  0
 26 17  1  0
 27 25  1  0
 28 27  1  0
 29 30  2  0
 30 20  1  0
 31 27  2  0
M  END
$$$$
