VRY.pdb
     RDKit          3D

 31 31  0  0  1  0  0  0  0  0999 V2000
    7.8397  -12.2785   24.7306 C   0  0  0  0  0  0  0  0  0  0  0  0
    7.1000  -12.9418   25.8674 C   0  0  1  0  0  0  0  0  0  0  0  0
    6.2187  -11.9248   26.5509 C   0  0  0  0  0  0  0  0  0  0  0  0
    6.2306  -14.0851   25.3644 C   0  0  2  0  0  0  0  0  0  0  0  0
    5.4160  -14.6351   26.4253 N   0  0  0  0  0  0  0  0  0  0  0  0
    7.0895  -15.1737   24.8369 C   0  0  0  0  0  0  0  0  0  0  0  0
    7.3467  -16.2200   25.4792 O   0  0  0  0  0  0  0  0  0  0  0  0
    9.7219  -14.5813   18.3208 N   0  0  0  0  0  0  0  0  0  0  0  0
    8.6191  -13.7506   18.0595 C   0  0  0  0  0  0  0  0  0  0  0  0
    8.7058  -12.6112   17.4696 N   0  0  0  0  0  0  0  0  0  0  0  0
    7.3136  -14.2067   18.4791 N   0  0  0  0  0  0  0  0  0  0  0  0
    7.2320  -15.3683   19.3179 C   0  0  0  0  0  0  0  0  0  0  0  0
    7.9380  -15.0460   20.6429 C   0  0  0  0  0  0  0  0  0  0  0  0
    7.8597  -16.2512   21.4991 C   0  0  0  0  0  0  0  0  0  0  0  0
    8.4284  -16.0892   22.9035 C   0  0  2  0  0  0  0  0  0  0  0  0
    7.6409  -15.0232   23.5543 N   0  0  0  0  0  0  0  0  0  0  0  0
    9.8480  -15.7249   22.8628 C   0  0  0  0  0  0  0  0  0  0  0  0
   10.6447  -16.2386   21.9930 O   0  0  0  0  0  0  0  0  0  0  0  0
    7.8376  -12.0614   17.3132 O   0  0  0  0  0  0  0  0  0  0  0  0
   11.1096  -16.2576   31.3618 C   0  0  0  0  0  0  0  0  0  0  0  0
   10.7968  -15.9629   30.0438 C   0  0  0  0  0  0  0  0  0  0  0  0
   10.5804  -14.6792   29.5850 C   0  0  0  0  0  0  0  0  0  0  0  0
   10.2698  -14.4287   28.2583 C   0  0  0  0  0  0  0  0  0  0  0  0
   10.1705  -15.4622   27.3672 C   0  0  0  0  0  0  0  0  0  0  0  0
    9.8360  -15.1788   25.9667 C   0  0  2  0  0  0  0  0  0  0  0  0
   11.0261  -15.1990   25.0329 N   0  0  0  0  0  0  0  0  0  0  0  0
   10.4875  -14.8012   23.7312 C   0  0  0  0  0  0  0  0  0  0  0  0
   11.5991  -16.5500   25.0142 O   0  0  0  0  0  0  0  0  0  0  0  0
   12.8285  -16.8801   25.5454 C   0  0  0  0  0  0  0  0  0  0  0  0
   10.3858  -16.7620   27.8131 C   0  0  0  0  0  0  0  0  0  0  0  0
   10.6935  -16.9969   29.1328 O   0  0  0  0  0  0  0  0  0  0  0  0
  2  1  1  6
  2  3  1  0
  4  2  1  0
  4  5  1  1
  6  4  1  0
  7  6  2  0
  9 11  1  0
  9  8  1  0
 10  9  2  0
 12 13  1  0
 12 11  1  0
 13 14  1  0
 15 14  1  6
 15 16  1  0
 16  6  1  0
 17 15  1  0
 17 18  2  0
 20 19  1  0
 21 20  2  0
 22 21  1  0
 23 29  1  0
 23 22  2  0
 24 23  1  0
 25 24  1  1
 25 26  1  0
 26 17  1  0
 27 25  1  0
 28 27  1  0
 29 30  2  0
 30 20  1  0
 31 27  2  0
M  END
$$$$
