VRY.pdb
     RDKit          3D

 31 31  0  0  1  0  0  0  0  0999 V2000
    9.0367  -13.2140   21.4364 C   0  0  0  0  0  0  0  0  0  0  0  0
    8.1253  -13.4322   20.2526 C   0  0  1  0  0  0  0  0  0  0  0  0
    7.6727  -12.0953   19.7176 C   0  0  0  0  0  0  0  0  0  0  0  0
    8.8390  -14.1889   19.1417 C   0  0  2  0  0  0  0  0  0  0  0  0
    7.9912  -14.3453   17.9806 N   0  0  0  0  0  0  0  0  0  0  0  0
    9.2150  -15.5425   19.6185 C   0  0  0  0  0  0  0  0  0  0  0  0
    8.8553  -16.5986   19.0452 O   0  0  0  0  0  0  0  0  0  0  0  0
   13.1410  -14.8841   16.9559 N   0  0  0  0  0  0  0  0  0  0  0  0
   14.3991  -15.1701   17.5123 C   0  0  0  0  0  0  0  0  0  0  0  0
   15.4276  -14.4086   17.3845 N   0  0  0  0  0  0  0  0  0  0  0  0
   14.5417  -16.3913   18.2717 N   0  0  0  0  0  0  0  0  0  0  0  0
   13.3678  -17.1736   18.5354 C   0  0  0  0  0  0  0  0  0  0  0  0
   12.6528  -16.5603   19.7481 C   0  0  0  0  0  0  0  0  0  0  0  0
   11.4806  -17.4105   20.0565 C   0  0  0  0  0  0  0  0  0  0  0  0
   10.6083  -16.9228   21.2068 C   0  0  2  0  0  0  0  0  0  0  0  0
   10.0136  -15.6441   20.7689 N   0  0  0  0  0  0  0  0  0  0  0  0
   11.3978  -16.7292   22.4269 C   0  0  0  0  0  0  0  0  0  0  0  0
   12.2634  -15.7819   22.5190 O   0  0  0  0  0  0  0  0  0  0  0  0
   16.3173  -14.6882   17.8436 O   0  0  0  0  0  0  0  0  0  0  0  0
    9.5677  -13.0516   29.7413 C   0  0  0  0  0  0  0  0  0  0  0  0
    9.7108  -13.7982   28.5821 C   0  0  0  0  0  0  0  0  0  0  0  0
   10.1501  -15.1068   28.5729 C   0  0  0  0  0  0  0  0  0  0  0  0
   10.2790  -15.8174   27.3905 C   0  0  0  0  0  0  0  0  0  0  0  0
    9.9695  -15.2278   26.1953 C   0  0  0  0  0  0  0  0  0  0  0  0
   10.1164  -15.9940   24.9524 C   0  0  2  0  0  0  0  0  0  0  0  0
   11.3057  -16.9289   24.9419 N   0  0  0  0  0  0  0  0  0  0  0  0
   11.3058  -17.5199   23.6028 C   0  0  0  0  0  0  0  0  0  0  0  0
   11.1367  -17.9330   25.9988 O   0  0  0  0  0  0  0  0  0  0  0  0
   11.8526  -17.9484   27.1778 C   0  0  0  0  0  0  0  0  0  0  0  0
    9.5251  -13.9098   26.1870 C   0  0  0  0  0  0  0  0  0  0  0  0
    9.4016  -13.2156   27.3678 O   0  0  0  0  0  0  0  0  0  0  0  0
  2  1  1  1
  2  3  1  0
  4  2  1  0
  4  5  1  6
  6  4  1  0
  7  6  2  0
  9 11  1  0
  9  8  1  0
 10  9  2  0
 12 13  1  0
 12 11  1  0
 13 14  1  0
 15 14  1  6
 15 16  1  0
 16  6  1  0
 17 15  1  0
 17 18  2  0
 20 19  1  0
 21 20  2  0
 22 21  1  0
 23 29  1  0
 23 22  2  0
 24 23  1  0
 25 24  1  6
 25 26  1  0
 26 17  1  0
 27 25  1  0
 28 27  1  0
 29 30  2  0
 30 20  1  0
 31 27  2  0
M  END
$$$$
