VRY.pdb
     RDKit          3D

 31 31  0  0  1  0  0  0  0  0999 V2000
    6.6800  -18.9669   25.5035 C   0  0  0  0  0  0  0  0  0  0  0  0
    7.0990  -20.1186   24.6217 C   0  0  1  0  0  0  0  0  0  0  0  0
    6.2783  -21.3371   24.9678 C   0  0  0  0  0  0  0  0  0  0  0  0
    6.8908  -19.7885   23.1508 C   0  0  2  0  0  0  0  0  0  0  0  0
    7.1003  -20.9496   22.3144 N   0  0  0  0  0  0  0  0  0  0  0  0
    7.8553  -18.7426   22.7301 C   0  0  0  0  0  0  0  0  0  0  0  0
    9.0670  -18.9749   22.5033 O   0  0  0  0  0  0  0  0  0  0  0  0
    8.7618  -15.0011   17.7247 N   0  0  0  0  0  0  0  0  0  0  0  0
    8.2504  -13.7240   18.0104 C   0  0  0  0  0  0  0  0  0  0  0  0
    7.5604  -13.0272   17.1784 N   0  0  0  0  0  0  0  0  0  0  0  0
    8.5168  -13.1646   19.3160 N   0  0  0  0  0  0  0  0  0  0  0  0
    9.0028  -14.0363   20.3472 C   0  0  0  0  0  0  0  0  0  0  0  0
    8.0981  -13.8662   21.5762 C   0  0  0  0  0  0  0  0  0  0  0  0
    7.4008  -15.1524   21.8030 C   0  0  0  0  0  0  0  0  0  0  0  0
    8.2873  -16.2980   22.2758 C   0  0  2  0  0  0  0  0  0  0  0  0
    7.3862  -17.4278   22.5788 N   0  0  0  0  0  0  0  0  0  0  0  0
    9.0532  -15.9200   23.4674 C   0  0  0  0  0  0  0  0  0  0  0  0
   10.1911  -15.3279   23.3700 O   0  0  0  0  0  0  0  0  0  0  0  0
    7.1764  -12.1126   17.4893 O   0  0  0  0  0  0  0  0  0  0  0  0
    5.6927  -10.3836   25.2619 C   0  0  0  0  0  0  0  0  0  0  0  0
    6.3099  -11.5548   25.6732 C   0  0  0  0  0  0  0  0  0  0  0  0
    5.6296  -12.6069   26.2524 C   0  0  0  0  0  0  0  0  0  0  0  0
    6.2859  -13.7607   26.6494 C   0  0  0  0  0  0  0  0  0  0  0  0
    7.6373  -13.8799   26.4726 C   0  0  0  0  0  0  0  0  0  0  0  0
    8.3168  -15.1072   26.9034 C   0  0  2  0  0  0  0  0  0  0  0  0
    9.3869  -15.5868   25.9476 N   0  0  0  0  0  0  0  0  0  0  0  0
    8.6517  -16.1438   24.8111 C   0  0  0  0  0  0  0  0  0  0  0  0
   10.2200  -16.5888   26.6229 O   0  0  0  0  0  0  0  0  0  0  0  0
   10.3338  -17.9033   26.2208 C   0  0  0  0  0  0  0  0  0  0  0  0
    8.3380  -12.8289   25.8903 C   0  0  0  0  0  0  0  0  0  0  0  0
    7.6744  -11.6890   25.5006 O   0  0  0  0  0  0  0  0  0  0  0  0
  2  1  1  1
  2  3  1  0
  4  2  1  0
  4  5  1  6
  6  4  1  0
  7  6  2  0
  9 11  1  0
  9  8  1  0
 10  9  2  0
 12 13  1  0
 12 11  1  0
 13 14  1  0
 15 14  1  1
 15 16  1  0
 16  6  1  0
 17 15  1  0
 17 18  2  0
 20 19  1  0
 21 20  2  0
 22 21  1  0
 23 29  1  0
 23 22  2  0
 24 23  1  0
 25 24  1  6
 25 26  1  0
 26 17  1  0
 27 25  1  0
 28 27  1  0
 29 30  2  0
 30 20  1  0
 31 27  2  0
M  END
$$$$
