VRY.pdb
     RDKit          3D

 31 31  0  0  1  0  0  0  0  0999 V2000
    8.3668  -12.4529   19.3530 C   0  0  0  0  0  0  0  0  0  0  0  0
    8.4606  -13.5457   20.3906 C   0  0  1  0  0  0  0  0  0  0  0  0
    7.2337  -13.5072   21.2690 C   0  0  0  0  0  0  0  0  0  0  0  0
    8.5534  -14.9171   19.7375 C   0  0  2  0  0  0  0  0  0  0  0  0
    7.4678  -15.1330   18.8067 N   0  0  0  0  0  0  0  0  0  0  0  0
    8.4810  -15.9734   20.7767 C   0  0  0  0  0  0  0  0  0  0  0  0
    7.7694  -17.0004   20.6657 O   0  0  0  0  0  0  0  0  0  0  0  0
   13.0936  -18.8782   18.0509 N   0  0  0  0  0  0  0  0  0  0  0  0
   11.8040  -19.3937   17.8376 C   0  0  0  0  0  0  0  0  0  0  0  0
   11.2881  -19.5708   16.6731 N   0  0  0  0  0  0  0  0  0  0  0  0
   11.0151  -19.7446   18.9964 N   0  0  0  0  0  0  0  0  0  0  0  0
   11.5725  -19.5142   20.2986 C   0  0  0  0  0  0  0  0  0  0  0  0
   10.4541  -18.9790   21.2044 C   0  0  0  0  0  0  0  0  0  0  0  0
   10.8199  -17.6013   21.6046 C   0  0  0  0  0  0  0  0  0  0  0  0
    9.8927  -16.9528   22.6252 C   0  0  2  0  0  0  0  0  0  0  0  0
    9.2484  -15.8135   21.9417 N   0  0  0  0  0  0  0  0  0  0  0  0
   10.6370  -16.4904   23.8006 C   0  0  0  0  0  0  0  0  0  0  0  0
   11.7686  -17.0113   24.1221 O   0  0  0  0  0  0  0  0  0  0  0  0
   10.3616  -20.0368   16.6018 O   0  0  0  0  0  0  0  0  0  0  0  0
    5.6768  -10.7071   26.6351 C   0  0  0  0  0  0  0  0  0  0  0  0
    6.2994  -11.9222   26.3951 C   0  0  0  0  0  0  0  0  0  0  0  0
    7.5694  -12.0315   25.8654 C   0  0  0  0  0  0  0  0  0  0  0  0
    8.1549  -13.2670   25.6414 C   0  0  0  0  0  0  0  0  0  0  0  0
    7.4768  -14.4158   25.9448 C   0  0  0  0  0  0  0  0  0  0  0  0
    8.1107  -15.7159   25.6965 C   0  0  2  0  0  0  0  0  0  0  0  0
    9.5974  -15.7396   25.9753 N   0  0  0  0  0  0  0  0  0  0  0  0
   10.2252  -15.4572   24.6835 C   0  0  0  0  0  0  0  0  0  0  0  0
    9.9663  -17.0586   26.5024 O   0  0  0  0  0  0  0  0  0  0  0  0
   10.4514  -17.2791   27.7747 C   0  0  0  0  0  0  0  0  0  0  0  0
    6.1961  -14.3234   26.4795 C   0  0  0  0  0  0  0  0  0  0  0  0
    5.6263  -13.0907   26.6970 O   0  0  0  0  0  0  0  0  0  0  0  0
  2  1  1  6
  2  3  1  0
  4  2  1  0
  4  5  1  6
  6  4  1  0
  7  6  2  0
  9 11  1  0
  9  8  1  0
 10  9  2  0
 12 13  1  0
 12 11  1  0
 13 14  1  0
 15 14  1  6
 15 16  1  0
 16  6  1  0
 17 15  1  0
 17 18  2  0
 20 19  1  0
 21 20  2  0
 22 21  1  0
 23 29  1  0
 23 22  2  0
 24 23  1  0
 25 24  1  1
 25 26  1  0
 26 17  1  0
 27 25  1  0
 28 27  1  0
 29 30  2  0
 30 20  1  0
 31 27  2  0
M  END
$$$$
