VRY.pdb
     RDKit          3D

 31 31  0  0  1  0  0  0  0  0999 V2000
    7.9639  -11.7954   25.5377 C   0  0  0  0  0  0  0  0  0  0  0  0
    7.0022  -12.5054   26.4600 C   0  0  1  0  0  0  0  0  0  0  0  0
    6.1685  -11.4840   27.1948 C   0  0  0  0  0  0  0  0  0  0  0  0
    6.0747  -13.4278   25.6823 C   0  0  2  0  0  0  0  0  0  0  0  0
    5.1283  -14.0843   26.5568 N   0  0  0  0  0  0  0  0  0  0  0  0
    6.8692  -14.4777   24.9986 C   0  0  0  0  0  0  0  0  0  0  0  0
    7.2390  -15.5364   25.5607 O   0  0  0  0  0  0  0  0  0  0  0  0
    7.3303  -15.2679   16.6620 N   0  0  0  0  0  0  0  0  0  0  0  0
    8.1816  -14.2541   17.1331 C   0  0  0  0  0  0  0  0  0  0  0  0
    8.4964  -13.2102   16.4512 N   0  0  0  0  0  0  0  0  0  0  0  0
    8.7328  -14.3959   18.4614 N   0  0  0  0  0  0  0  0  0  0  0  0
    8.3850  -15.5599   19.2255 C   0  0  0  0  0  0  0  0  0  0  0  0
    9.0780  -15.4538   20.5917 C   0  0  0  0  0  0  0  0  0  0  0  0
    8.1846  -14.6888   21.4909 C   0  0  0  0  0  0  0  0  0  0  0  0
    8.1180  -15.1957   22.9264 C   0  0  2  0  0  0  0  0  0  0  0  0
    7.2238  -14.2741   23.6553 N   0  0  0  0  0  0  0  0  0  0  0  0
    9.4472  -15.2155   23.5449 C   0  0  0  0  0  0  0  0  0  0  0  0
    9.8797  -14.2166   24.2306 O   0  0  0  0  0  0  0  0  0  0  0  0
    9.1505  -12.5184   16.8685 O   0  0  0  0  0  0  0  0  0  0  0  0
    9.1413  -14.0872   29.6096 C   0  0  0  0  0  0  0  0  0  0  0  0
    9.7458  -14.7908   28.5794 C   0  0  0  0  0  0  0  0  0  0  0  0
   10.9767  -14.4549   28.0525 C   0  0  0  0  0  0  0  0  0  0  0  0
   11.5453  -15.1860   27.0221 C   0  0  0  0  0  0  0  0  0  0  0  0
   10.8892  -16.2677   26.5013 C   0  0  0  0  0  0  0  0  0  0  0  0
   11.5044  -17.0276   25.4070 C   0  0  2  0  0  0  0  0  0  0  0  0
   11.6811  -16.2356   24.1302 N   0  0  0  0  0  0  0  0  0  0  0  0
   10.3744  -16.2886   23.4727 C   0  0  0  0  0  0  0  0  0  0  0  0
   12.7406  -16.8536   23.3243 O   0  0  0  0  0  0  0  0  0  0  0  0
   14.0741  -16.8722   23.6765 C   0  0  0  0  0  0  0  0  0  0  0  0
    9.6480  -16.6198   27.0210 C   0  0  0  0  0  0  0  0  0  0  0  0
    9.0946  -15.8857   28.0439 O   0  0  0  0  0  0  0  0  0  0  0  0
  2  1  1  6
  2  3  1  0
  4  2  1  0
  4  5  1  1
  6  4  1  0
  7  6  2  0
  9 11  1  0
  9  8  1  0
 10  9  2  0
 12 13  1  0
 12 11  1  0
 13 14  1  0
 15 14  1  6
 15 16  1  0
 16  6  1  0
 17 15  1  0
 17 18  2  0
 20 19  1  0
 21 20  2  0
 22 21  1  0
 23 29  1  0
 23 22  2  0
 24 23  1  0
 25 24  1  1
 25 26  1  0
 26 17  1  0
 27 25  1  0
 28 27  1  0
 29 30  2  0
 30 20  1  0
 31 27  2  0
M  END
$$$$
