VRY.pdb
     RDKit          3D

 31 31  0  0  1  0  0  0  0  0999 V2000
    6.3422  -19.8167   26.4791 C   0  0  0  0  0  0  0  0  0  0  0  0
    6.7720  -21.0293   25.6889 C   0  0  1  0  0  0  0  0  0  0  0  0
    5.9424  -22.2185   26.1080 C   0  0  0  0  0  0  0  0  0  0  0  0
    6.5884  -20.8051   24.1949 C   0  0  2  0  0  0  0  0  0  0  0  0
    6.8971  -21.9993   23.4400 N   0  0  0  0  0  0  0  0  0  0  0  0
    7.4965  -19.7260   23.7344 C   0  0  0  0  0  0  0  0  0  0  0  0
    8.7319  -19.8833   23.5850 O   0  0  0  0  0  0  0  0  0  0  0  0
    8.0921  -12.5820   20.8133 N   0  0  0  0  0  0  0  0  0  0  0  0
    7.9265  -13.1007   19.5180 C   0  0  0  0  0  0  0  0  0  0  0  0
    8.5036  -12.6180   18.4750 N   0  0  0  0  0  0  0  0  0  0  0  0
    7.0571  -14.2431   19.3522 N   0  0  0  0  0  0  0  0  0  0  0  0
    6.4537  -14.8184   20.5203 C   0  0  0  0  0  0  0  0  0  0  0  0
    7.5443  -15.5749   21.2926 C   0  0  0  0  0  0  0  0  0  0  0  0
    6.8867  -16.3062   22.3993 C   0  0  0  0  0  0  0  0  0  0  0  0
    7.7784  -17.2870   23.1509 C   0  0  2  0  0  0  0  0  0  0  0  0
    6.9431  -18.4667   23.4522 N   0  0  0  0  0  0  0  0  0  0  0  0
    8.2938  -16.6947   24.3890 C   0  0  0  0  0  0  0  0  0  0  0  0
    7.7260  -16.9159   25.5220 O   0  0  0  0  0  0  0  0  0  0  0  0
    8.3176  -13.0577   17.5516 O   0  0  0  0  0  0  0  0  0  0  0  0
    5.8194  -10.6911   25.6579 C   0  0  0  0  0  0  0  0  0  0  0  0
    6.5944  -11.8131   25.9076 C   0  0  0  0  0  0  0  0  0  0  0  0
    7.9375  -11.8905   25.5988 C   0  0  0  0  0  0  0  0  0  0  0  0
    8.6757  -13.0322   25.8657 C   0  0  0  0  0  0  0  0  0  0  0  0
    8.0794  -14.1175   26.4474 C   0  0  0  0  0  0  0  0  0  0  0  0
    8.8756  -15.3201   26.7186 C   0  0  2  0  0  0  0  0  0  0  0  0
   10.0420  -15.5125   25.7747 N   0  0  0  0  0  0  0  0  0  0  0  0
    9.4308  -15.8498   24.4880 C   0  0  0  0  0  0  0  0  0  0  0  0
   10.9020  -16.5861   26.2863 O   0  0  0  0  0  0  0  0  0  0  0  0
   11.1119  -17.7874   25.6419 C   0  0  0  0  0  0  0  0  0  0  0  0
    6.7267  -14.0560   26.7652 C   0  0  0  0  0  0  0  0  0  0  0  0
    6.0054  -12.9166   26.4950 O   0  0  0  0  0  0  0  0  0  0  0  0
  2  1  1  1
  2  3  1  0
  4  2  1  0
  4  5  1  6
  6  4  1  0
  7  6  2  0
  9 11  1  0
  9  8  1  0
 10  9  2  0
 12 13  1  0
 12 11  1  0
 13 14  1  0
 15 14  1  1
 15 16  1  0
 16  6  1  0
 17 15  1  0
 17 18  2  0
 20 19  1  0
 21 20  2  0
 22 21  1  0
 23 29  1  0
 23 22  2  0
 24 23  1  0
 25 24  1  6
 25 26  1  0
 26 17  1  0
 27 25  1  0
 28 27  1  0
 29 30  2  0
 30 20  1  0
 31 27  2  0
M  END
$$$$
