VRY.pdb
     RDKit          3D

 31 31  0  0  1  0  0  0  0  0999 V2000
    8.8937  -12.5591   20.0491 C   0  0  0  0  0  0  0  0  0  0  0  0
    7.8428  -13.2258   19.1943 C   0  0  1  0  0  0  0  0  0  0  0  0
    7.5696  -12.3708   17.9808 C   0  0  0  0  0  0  0  0  0  0  0  0
    8.3019  -14.6011   18.7320 C   0  0  2  0  0  0  0  0  0  0  0  0
    7.3920  -15.1614   17.7575 N   0  0  0  0  0  0  0  0  0  0  0  0
    8.3576  -15.5267   19.8901 C   0  0  0  0  0  0  0  0  0  0  0  0
    7.3358  -16.0010   20.4418 O   0  0  0  0  0  0  0  0  0  0  0  0
   10.0380  -22.9840   20.2581 N   0  0  0  0  0  0  0  0  0  0  0  0
   11.1631  -22.1654   20.0626 C   0  0  0  0  0  0  0  0  0  0  0  0
   12.3577  -22.6162   19.9090 N   0  0  0  0  0  0  0  0  0  0  0  0
   10.9623  -20.7346   20.0326 N   0  0  0  0  0  0  0  0  0  0  0  0
    9.6461  -20.2232   20.2885 C   0  0  0  0  0  0  0  0  0  0  0  0
    9.6599  -18.7150   20.0003 C   0  0  0  0  0  0  0  0  0  0  0  0
   10.3841  -18.0519   21.1084 C   0  0  0  0  0  0  0  0  0  0  0  0
    9.7770  -16.7392   21.5883 C   0  0  2  0  0  0  0  0  0  0  0  0
    9.6181  -15.8887   20.3919 N   0  0  0  0  0  0  0  0  0  0  0  0
   10.6427  -16.0822   22.5724 C   0  0  0  0  0  0  0  0  0  0  0  0
   11.9233  -16.1882   22.5117 O   0  0  0  0  0  0  0  0  0  0  0  0
   13.1373  -21.9384   19.7931 O   0  0  0  0  0  0  0  0  0  0  0  0
   10.8144  -15.6251   31.4111 C   0  0  0  0  0  0  0  0  0  0  0  0
   10.5358  -15.4843   30.0604 C   0  0  0  0  0  0  0  0  0  0  0  0
   10.6218  -16.5239   29.1564 C   0  0  0  0  0  0  0  0  0  0  0  0
   10.3341  -16.3396   27.8138 C   0  0  0  0  0  0  0  0  0  0  0  0
    9.9549  -15.1083   27.3533 C   0  0  0  0  0  0  0  0  0  0  0  0
    9.6585  -14.9302   25.9271 C   0  0  1  0  0  0  0  0  0  0  0  0
   10.7551  -15.4154   25.0048 N   0  0  0  0  0  0  0  0  0  0  0  0
   10.1979  -15.2818   23.6578 C   0  0  0  0  0  0  0  0  0  0  0  0
   11.0850  -16.8055   25.3405 O   0  0  0  0  0  0  0  0  0  0  0  0
   12.2407  -17.1962   25.9843 C   0  0  0  0  0  0  0  0  0  0  0  0
    9.8630  -14.0499   28.2512 C   0  0  0  0  0  0  0  0  0  0  0  0
   10.1513  -14.2464   29.5815 O   0  0  0  0  0  0  0  0  0  0  0  0
  2  1  1  1
  2  3  1  0
  4  2  1  0
  4  5  1  6
  6  4  1  0
  7  6  2  0
  9 11  1  0
  9  8  1  0
 10  9  2  0
 12 13  1  0
 12 11  1  0
 13 14  1  0
 15 14  1  6
 15 16  1  0
 16  6  1  0
 17 15  1  0
 17 18  2  0
 20 19  1  0
 21 20  2  0
 22 21  1  0
 23 29  1  0
 23 22  2  0
 24 23  1  0
 25 24  1  6
 25 26  1  0
 26 17  1  0
 27 25  1  0
 28 27  1  0
 29 30  2  0
 30 20  1  0
 31 27  2  0
M  END
$$$$
