RPN.pdb
     RDKit          3D

 27 27  0  0  1  0  0  0  0  0999 V2000
   26.7112  -24.0562  -15.7622 N   0  0  0  0  0  0  0  0  0  0  0  0
   26.3066  -25.0133  -16.7167 C   0  0  0  0  0  0  0  0  0  0  0  0
   26.0624  -26.2256  -16.2858 N   0  0  0  0  0  0  0  0  0  0  0  0
   26.1666  -24.6705  -18.0802 N   0  0  0  0  0  0  0  0  0  0  0  0
   26.3557  -23.2491  -18.4364 C   0  0  0  0  0  0  0  0  0  0  0  0
   27.4397  -22.7167  -17.5722 C   0  0  0  0  0  0  0  0  0  0  0  0
   27.0679  -21.7367  -16.5123 C   0  0  0  0  0  0  0  0  0  0  0  0
   27.0783  -20.3191  -16.9908 C   0  0  2  0  0  0  0  0  0  0  0  0
   28.3385  -19.6838  -16.6629 N   0  0  0  0  0  0  0  0  0  0  0  0
   25.9541  -19.5394  -16.4424 C   0  0  0  0  0  0  0  0  0  0  0  0
   25.9989  -19.1653  -15.2212 O   0  0  0  0  0  0  0  0  0  0  0  0
   25.7862  -26.9880  -16.9206 N   0  0  0  0  0  0  0  0  0  0  0  0
   24.8234  -19.1812  -17.1977 C   0  0  0  0  0  0  0  0  0  0  0  0
   24.6445  -19.4482  -18.6116 C   0  0  0  0  0  0  0  0  0  0  0  0
   23.8906  -18.1832  -19.0552 C   0  0  0  0  0  0  0  0  0  0  0  0
   22.9390  -17.9783  -17.9349 C   0  0  2  0  0  0  0  0  0  0  0  0
   23.6534  -18.4752  -16.7076 C   0  0  0  0  0  0  0  0  0  0  0  0
   22.7856  -19.3365  -15.8687 O   0  0  0  0  0  0  0  0  0  0  0  0
   22.7788  -20.5716  -16.1046 N   0  0  0  0  0  0  0  0  0  0  0  0
   19.6403  -21.0526  -11.9657 C   0  0  0  0  0  0  0  0  0  0  0  0
   20.1888  -19.7754  -11.6794 O   0  0  0  0  0  0  0  0  0  0  0  0
   19.9716  -19.2798  -10.5606 C   0  0  0  0  0  0  0  0  0  0  0  0
   20.9794  -19.0908  -12.6906 C   0  0  1  0  0  0  0  0  0  0  0  0
   21.1700  -19.8204  -13.9951 N   0  0  0  0  0  0  0  0  0  0  0  0
   21.9658  -18.8823  -14.8253 C   0  0  0  0  0  0  0  0  0  0  0  0
   19.9183  -20.1454  -14.7014 O   0  0  0  0  0  0  0  0  0  0  0  0
   19.3196  -21.4091  -14.6282 O   0  0  0  0  0  0  0  0  0  0  0  0
  2  1  1  0
  3  2  2  0
  4  2  1  0
  5  4  1  0
  6  5  1  0
  7  6  1  0
  8  7  1  0
  8  9  1  1
 10  8  1  0
 10 12  1  0
 11 10  2  0
 12 13  1  0
 13 14  1  0
 15 14  1  0
 16 12  1  0
 16 15  1  0
 16 17  1  6
 18 17  2  0
 19 20  1  0
 20 21  2  0
 23 22  1  1
 22 20  1  0
 23 24  1  0
 24 17  1  0
 25 23  1  0
 25 26  1  0
 27 25  2  0
M  END
$$$$
