RPN.pdb
     RDKit          3D

 27 27  0  0  1  0  0  0  0  0999 V2000
   29.5980  -18.8390  -18.0168 N   0  0  0  0  0  0  0  0  0  0  0  0
   29.0894  -17.6017  -17.5683 C   0  0  0  0  0  0  0  0  0  0  0  0
   29.2081  -16.5758  -18.3736 N   0  0  0  0  0  0  0  0  0  0  0  0
   28.4727  -17.4814  -16.3028 N   0  0  0  0  0  0  0  0  0  0  0  0
   28.3832  -18.7067  -15.4821 C   0  0  0  0  0  0  0  0  0  0  0  0
   27.3462  -19.5752  -16.0952 C   0  0  0  0  0  0  0  0  0  0  0  0
   26.1660  -19.9446  -15.2630 C   0  0  0  0  0  0  0  0  0  0  0  0
   26.3682  -21.2033  -14.4797 C   0  0  2  0  0  0  0  0  0  0  0  0
   26.6210  -22.3180  -15.3702 N   0  0  0  0  0  0  0  0  0  0  0  0
   25.2234  -21.5004  -13.6002 C   0  0  0  0  0  0  0  0  0  0  0  0
   24.3012  -22.2756  -14.0266 O   0  0  0  0  0  0  0  0  0  0  0  0
   28.8351  -15.6459  -18.1358 N   0  0  0  0  0  0  0  0  0  0  0  0
   25.0893  -20.9715  -12.3042 C   0  0  0  0  0  0  0  0  0  0  0  0
   26.0725  -20.1422  -11.6348 C   0  0  0  0  0  0  0  0  0  0  0  0
   25.9290  -20.6318  -10.1839 C   0  0  0  0  0  0  0  0  0  0  0  0
   24.4579  -20.7704  -10.0454 C   0  0  2  0  0  0  0  0  0  0  0  0
   23.9640  -21.1707  -11.4090 C   0  0  0  0  0  0  0  0  0  0  0  0
   22.7717  -20.3911  -11.8203 O   0  0  0  0  0  0  0  0  0  0  0  0
   22.9311  -19.1748  -12.0967 N   0  0  0  0  0  0  0  0  0  0  0  0
   18.6290  -19.0109  -14.4931 C   0  0  0  0  0  0  0  0  0  0  0  0
   19.9306  -19.3597  -14.9384 O   0  0  0  0  0  0  0  0  0  0  0  0
   20.2206  -19.1492  -16.1285 C   0  0  0  0  0  0  0  0  0  0  0  0
   20.8764  -19.9466  -14.0018 C   0  0  1  0  0  0  0  0  0  0  0  0
   20.3846  -20.1406  -12.5908 N   0  0  0  0  0  0  0  0  0  0  0  0
   21.4706  -20.9039  -11.9273 C   0  0  0  0  0  0  0  0  0  0  0  0
   19.1263  -20.8997  -12.4817 O   0  0  0  0  0  0  0  0  0  0  0  0
   17.8776  -20.2749  -12.3766 O   0  0  0  0  0  0  0  0  0  0  0  0
  2  1  1  0
  3  2  2  0
  4  2  1  0
  5  4  1  0
  6  5  1  0
  7  6  1  0
  8  7  1  0
  8  9  1  6
 10  8  1  0
 10 12  1  0
 11 10  2  0
 12 13  1  0
 13 14  1  0
 15 14  1  0
 16 12  1  0
 16 15  1  0
 16 17  1  1
 18 17  2  0
 19 20  1  0
 20 21  2  0
 23 22  1  1
 22 20  1  0
 23 24  1  0
 24 17  1  0
 25 23  1  0
 25 26  1  0
 27 25  2  0
M  END
$$$$
