RPN.pdb
     RDKit          3D

 27 27  0  0  1  0  0  0  0  0999 V2000
   20.1047  -22.5305   -7.0423 N   0  0  0  0  0  0  0  0  0  0  0  0
   19.5777  -23.5225   -7.8962 C   0  0  0  0  0  0  0  0  0  0  0  0
   18.4921  -24.1397   -7.5019 N   0  0  0  0  0  0  0  0  0  0  0  0
   20.1973  -23.8295   -9.1283 N   0  0  0  0  0  0  0  0  0  0  0  0
   21.6404  -23.5345   -9.2442 C   0  0  0  0  0  0  0  0  0  0  0  0
   21.8106  -22.0725   -9.0462 C   0  0  0  0  0  0  0  0  0  0  0  0
   22.4032  -21.2826  -10.1627 C   0  0  0  0  0  0  0  0  0  0  0  0
   23.8115  -20.8524   -9.8974 C   0  0  2  0  0  0  0  0  0  0  0  0
   23.8729  -20.0295   -8.7063 N   0  0  0  0  0  0  0  0  0  0  0  0
   24.3994  -20.1373  -11.0443 C   0  0  0  0  0  0  0  0  0  0  0  0
   23.9037  -19.0116  -11.3910 O   0  0  0  0  0  0  0  0  0  0  0  0
   18.0458  -24.8778   -8.0646 N   0  0  0  0  0  0  0  0  0  0  0  0
   25.4873  -20.6318  -11.7855 C   0  0  0  0  0  0  0  0  0  0  0  0
   26.2163  -21.8494  -11.4879 C   0  0  0  0  0  0  0  0  0  0  0  0
   27.6457  -21.4373  -11.8782 C   0  0  0  0  0  0  0  0  0  0  0  0
   27.4192  -20.6728  -13.1299 C   0  0  2  0  0  0  0  0  0  0  0  0
   26.0785  -20.0123  -12.9577 C   0  0  0  0  0  0  0  0  0  0  0  0
   25.2269  -20.1588  -14.1627 O   0  0  0  0  0  0  0  0  0  0  0  0
   24.3851  -21.0928  -14.1778 N   0  0  0  0  0  0  0  0  0  0  0  0
   21.6167  -20.4812  -16.3638 C   0  0  0  0  0  0  0  0  0  0  0  0
   21.7507  -19.4055  -15.4479 O   0  0  0  0  0  0  0  0  0  0  0  0
   20.7714  -19.1088  -14.7425 C   0  0  0  0  0  0  0  0  0  0  0  0
   23.0140  -18.6893  -15.3616 C   0  0  2  0  0  0  0  0  0  0  0  0
   24.1346  -19.2071  -16.2256 N   0  0  0  0  0  0  0  0  0  0  0  0
   25.2841  -19.3339  -15.2955 C   0  0  0  0  0  0  0  0  0  0  0  0
   24.5105  -18.3156  -17.3371 O   0  0  0  0  0  0  0  0  0  0  0  0
   24.1290  -18.5627  -18.6615 O   0  0  0  0  0  0  0  0  0  0  0  0
  2  1  1  0
  3  2  2  0
  4  2  1  0
  5  4  1  0
  6  5  1  0
  7  6  1  0
  8  7  1  0
  8  9  1  1
 10  8  1  0
 10 12  1  0
 11 10  2  0
 12 13  1  0
 13 14  1  0
 15 14  1  0
 16 12  1  0
 16 15  1  0
 16 17  1  6
 18 17  2  0
 19 20  1  0
 20 21  2  0
 23 22  1  1
 22 20  1  0
 23 24  1  0
 24 17  1  0
 25 23  1  0
 25 26  1  0
 27 25  2  0
M  END
$$$$
