RPN.pdb
     RDKit          3D

 27 27  0  0  1  0  0  0  0  0999 V2000
   25.8044  -24.0702  -17.3955 N   0  0  0  0  0  0  0  0  0  0  0  0
   25.0178  -23.4064  -18.3607 C   0  0  0  0  0  0  0  0  0  0  0  0
   24.3293  -24.1505  -19.1897 N   0  0  0  0  0  0  0  0  0  0  0  0
   24.9742  -21.9956  -18.4220 N   0  0  0  0  0  0  0  0  0  0  0  0
   24.9988  -21.2680  -17.1363 C   0  0  0  0  0  0  0  0  0  0  0  0
   26.3997  -20.8359  -16.8991 C   0  0  0  0  0  0  0  0  0  0  0  0
   26.7679  -20.3893  -15.5254 C   0  0  0  0  0  0  0  0  0  0  0  0
   27.0305  -21.5249  -14.5873 C   0  0  2  0  0  0  0  0  0  0  0  0
   27.5161  -22.6800  -15.3148 N   0  0  0  0  0  0  0  0  0  0  0  0
   25.8375  -21.8813  -13.7986 C   0  0  0  0  0  0  0  0  0  0  0  0
   25.0755  -22.8171  -14.2190 O   0  0  0  0  0  0  0  0  0  0  0  0
   23.6684  -23.7475  -19.8688 N   0  0  0  0  0  0  0  0  0  0  0  0
   25.4885  -21.2407  -12.5964 C   0  0  0  0  0  0  0  0  0  0  0  0
   26.2989  -20.2531  -11.9105 C   0  0  0  0  0  0  0  0  0  0  0  0
   26.0092  -20.6059  -10.4418 C   0  0  0  0  0  0  0  0  0  0  0  0
   24.5505  -20.8777  -10.4681 C   0  0  2  0  0  0  0  0  0  0  0  0
   24.2771  -21.4613  -11.8276 C   0  0  0  0  0  0  0  0  0  0  0  0
   23.0856  -20.8515  -12.4658 O   0  0  0  0  0  0  0  0  0  0  0  0
   23.2714  -20.0776  -13.4393 N   0  0  0  0  0  0  0  0  0  0  0  0
   19.0123  -22.3122  -15.6896 C   0  0  0  0  0  0  0  0  0  0  0  0
   19.7785  -21.2148  -15.2177 O   0  0  0  0  0  0  0  0  0  0  0  0
   19.5610  -20.0929  -15.7063 C   0  0  0  0  0  0  0  0  0  0  0  0
   20.7843  -21.4310  -14.1892 C   0  0  2  0  0  0  0  0  0  0  0  0
   20.6133  -20.6472  -12.9138 N   0  0  0  0  0  0  0  0  0  0  0  0
   21.7581  -21.0697  -12.0692 C   0  0  0  0  0  0  0  0  0  0  0  0
   19.3570  -20.9196  -12.1935 O   0  0  0  0  0  0  0  0  0  0  0  0
   18.2281  -20.1000  -12.3136 O   0  0  0  0  0  0  0  0  0  0  0  0
  2  1  1  0
  3  2  2  0
  4  2  1  0
  5  4  1  0
  6  5  1  0
  7  6  1  0
  8  7  1  0
  8  9  1  6
 10  8  1  0
 10 12  1  0
 11 10  2  0
 12 13  1  0
 13 14  1  0
 15 14  1  0
 16 12  1  0
 16 15  1  0
 16 17  1  6
 18 17  2  0
 19 20  1  0
 20 21  2  0
 23 22  1  6
 22 20  1  0
 23 24  1  0
 24 17  1  0
 25 23  1  0
 25 26  1  0
 27 25  2  0
M  END
$$$$
