RPN.pdb
     RDKit          3D

 27 27  0  0  1  0  0  0  0  0999 V2000
   29.2538  -29.0389  -17.4993 N   0  0  0  0  0  0  0  0  0  0  0  0
   28.0112  -28.4724  -17.8541 C   0  0  0  0  0  0  0  0  0  0  0  0
   26.9671  -29.2629  -17.8492 N   0  0  0  0  0  0  0  0  0  0  0  0
   27.9027  -27.1055  -18.1945 N   0  0  0  0  0  0  0  0  0  0  0  0
   29.1359  -26.2955  -18.1158 C   0  0  0  0  0  0  0  0  0  0  0  0
   28.7861  -24.9149  -18.5365 C   0  0  0  0  0  0  0  0  0  0  0  0
   27.9503  -24.0960  -17.6131 C   0  0  0  0  0  0  0  0  0  0  0  0
   28.7486  -23.4013  -16.5554 C   0  0  2  0  0  0  0  0  0  0  0  0
   29.4874  -24.3649  -15.7648 N   0  0  0  0  0  0  0  0  0  0  0  0
   27.9059  -22.5630  -15.6840 C   0  0  0  0  0  0  0  0  0  0  0  0
   27.4003  -23.0798  -14.6302 O   0  0  0  0  0  0  0  0  0  0  0  0
   26.0262  -28.9302  -18.1028 N   0  0  0  0  0  0  0  0  0  0  0  0
   27.6248  -21.2115  -15.9521 C   0  0  0  0  0  0  0  0  0  0  0  0
   28.0528  -20.4879  -17.1335 C   0  0  0  0  0  0  0  0  0  0  0  0
   28.3339  -19.0975  -16.5390 C   0  0  0  0  0  0  0  0  0  0  0  0
   27.1969  -18.9235  -15.6013 C   0  0  2  0  0  0  0  0  0  0  0  0
   26.8786  -20.3052  -15.0983 C   0  0  0  0  0  0  0  0  0  0  0  0
   25.4221  -20.5830  -15.1180 O   0  0  0  0  0  0  0  0  0  0  0  0
   24.9425  -21.1340  -16.1415 N   0  0  0  0  0  0  0  0  0  0  0  0
   20.3436  -21.0334  -13.6392 C   0  0  0  0  0  0  0  0  0  0  0  0
   21.1744  -20.7198  -12.5322 O   0  0  0  0  0  0  0  0  0  0  0  0
   20.6502  -20.6396  -11.4082 C   0  0  0  0  0  0  0  0  0  0  0  0
   22.5976  -20.5034  -12.7414 C   0  0  1  0  0  0  0  0  0  0  0  0
   23.0919  -20.6400  -14.1582 N   0  0  0  0  0  0  0  0  0  0  0  0
   24.5293  -20.2791  -14.0799 C   0  0  0  0  0  0  0  0  0  0  0  0
   22.4244  -19.7517  -15.1260 O   0  0  0  0  0  0  0  0  0  0  0  0
   21.3342  -20.1669  -15.9005 O   0  0  0  0  0  0  0  0  0  0  0  0
  2  1  1  0
  3  2  2  0
  4  2  1  0
  5  4  1  0
  6  5  1  0
  7  6  1  0
  8  7  1  0
  8  9  1  1
 10  8  1  0
 10 12  1  0
 11 10  2  0
 12 13  1  0
 13 14  1  0
 15 14  1  0
 16 12  1  0
 16 15  1  0
 16 17  1  6
 18 17  2  0
 19 20  1  0
 20 21  2  0
 23 22  1  1
 22 20  1  0
 23 24  1  0
 24 17  1  0
 25 23  1  0
 25 26  1  0
 27 25  2  0
M  END
$$$$
