RPN.pdb
     RDKit          3D

 27 27  0  0  1  0  0  0  0  0999 V2000
   22.3038  -19.9906  -10.2681 N   0  0  0  0  0  0  0  0  0  0  0  0
   22.9838  -20.4834   -9.1342 C   0  0  0  0  0  0  0  0  0  0  0  0
   22.2804  -21.1527   -8.2555 N   0  0  0  0  0  0  0  0  0  0  0  0
   24.3691  -20.2653   -8.9619 N   0  0  0  0  0  0  0  0  0  0  0  0
   25.1948  -20.2027  -10.1856 C   0  0  0  0  0  0  0  0  0  0  0  0
   24.8650  -21.3976  -11.0035 C   0  0  0  0  0  0  0  0  0  0  0  0
   25.5716  -21.5676  -12.3049 C   0  0  0  0  0  0  0  0  0  0  0  0
   25.0445  -20.6736  -13.3827 C   0  0  2  0  0  0  0  0  0  0  0  0
   23.6245  -20.8918  -13.5713 N   0  0  0  0  0  0  0  0  0  0  0  0
   25.7637  -20.8550  -14.6563 C   0  0  0  0  0  0  0  0  0  0  0  0
   25.2669  -21.6315  -15.5415 O   0  0  0  0  0  0  0  0  0  0  0  0
   22.6966  -21.5300   -7.3925 N   0  0  0  0  0  0  0  0  0  0  0  0
   26.9794  -20.2139  -14.9532 C   0  0  0  0  0  0  0  0  0  0  0  0
   27.5888  -19.1679  -14.1549 C   0  0  0  0  0  0  0  0  0  0  0  0
   28.2035  -18.2829  -15.2524 C   0  0  0  0  0  0  0  0  0  0  0  0
   28.7544  -19.2899  -16.1930 C   0  0  2  0  0  0  0  0  0  0  0  0
   27.8246  -20.4695  -16.1055 C   0  0  0  0  0  0  0  0  0  0  0  0
   28.5609  -21.7515  -15.9911 O   0  0  0  0  0  0  0  0  0  0  0  0
   28.5474  -22.3403  -14.8801 N   0  0  0  0  0  0  0  0  0  0  0  0
   30.0148  -26.5706  -16.7990 C   0  0  0  0  0  0  0  0  0  0  0  0
   28.7463  -26.0102  -16.4976 O   0  0  0  0  0  0  0  0  0  0  0  0
   27.8311  -26.7781  -16.1550 C   0  0  0  0  0  0  0  0  0  0  0  0
   28.5551  -24.5716  -16.5973 C   0  0  2  0  0  0  0  0  0  0  0  0
   29.7825  -23.7557  -16.9106 N   0  0  0  0  0  0  0  0  0  0  0  0
   29.2764  -22.3656  -17.0294 C   0  0  0  0  0  0  0  0  0  0  0  0
   30.4608  -24.1300  -18.1641 O   0  0  0  0  0  0  0  0  0  0  0  0
   31.6918  -24.7971  -18.1830 O   0  0  0  0  0  0  0  0  0  0  0  0
  2  1  1  0
  3  2  2  0
  4  2  1  0
  5  4  1  0
  6  5  1  0
  7  6  1  0
  8  7  1  0
  8  9  1  6
 10  8  1  0
 10 12  1  0
 11 10  2  0
 12 13  1  0
 13 14  1  0
 15 14  1  0
 16 12  1  0
 16 15  1  0
 16 17  1  1
 18 17  2  0
 19 20  1  0
 20 21  2  0
 23 22  1  1
 22 20  1  0
 23 24  1  0
 24 17  1  0
 25 23  1  0
 25 26  1  0
 27 25  2  0
M  END
$$$$
