RPN.pdb
     RDKit          3D

 27 27  0  0  1  0  0  0  0  0999 V2000
   19.6214  -27.4612  -10.9088 N   0  0  0  0  0  0  0  0  0  0  0  0
   20.2454  -27.7340  -12.1445 C   0  0  0  0  0  0  0  0  0  0  0  0
   20.0040  -26.9110  -13.1341 N   0  0  0  0  0  0  0  0  0  0  0  0
   21.0997  -28.8484  -12.3006 N   0  0  0  0  0  0  0  0  0  0  0  0
   21.2263  -29.7623  -11.1465 C   0  0  0  0  0  0  0  0  0  0  0  0
   22.1235  -30.8722  -11.5573 C   0  0  0  0  0  0  0  0  0  0  0  0
   22.2557  -32.0379  -10.6378 C   0  0  0  0  0  0  0  0  0  0  0  0
   23.1700  -33.1003  -11.1610 C   0  0  2  0  0  0  0  0  0  0  0  0
   22.5163  -33.8597  -12.2077 N   0  0  0  0  0  0  0  0  0  0  0  0
   23.6429  -34.0010  -10.0945 C   0  0  0  0  0  0  0  0  0  0  0  0
   22.9227  -35.0053   -9.7690 O   0  0  0  0  0  0  0  0  0  0  0  0
   20.4107  -27.0452  -14.0706 N   0  0  0  0  0  0  0  0  0  0  0  0
   24.8559  -33.8132   -9.4084 C   0  0  0  0  0  0  0  0  0  0  0  0
   25.7593  -32.6952   -9.5997 C   0  0  0  0  0  0  0  0  0  0  0  0
   27.1219  -33.3875   -9.4281 C   0  0  0  0  0  0  0  0  0  0  0  0
   26.8668  -34.2994   -8.2853 C   0  0  2  0  0  0  0  0  0  0  0  0
   25.4223  -34.7012   -8.4093 C   0  0  0  0  0  0  0  0  0  0  0  0
   24.7082  -34.6188   -7.1123 O   0  0  0  0  0  0  0  0  0  0  0  0
   24.3380  -33.4843   -6.7160 N   0  0  0  0  0  0  0  0  0  0  0  0
   20.6088  -36.9582   -5.0112 C   0  0  0  0  0  0  0  0  0  0  0  0
   21.9047  -37.2169   -5.5287 O   0  0  0  0  0  0  0  0  0  0  0  0
   21.9955  -37.7246   -6.6594 C   0  0  0  0  0  0  0  0  0  0  0  0
   23.0754  -36.8852   -4.7312 C   0  0  2  0  0  0  0  0  0  0  0  0
   23.7012  -35.5398   -4.9928 N   0  0  0  0  0  0  0  0  0  0  0  0
   24.4096  -35.7117   -6.2856 C   0  0  0  0  0  0  0  0  0  0  0  0
   24.6675  -35.1062   -3.9682 O   0  0  0  0  0  0  0  0  0  0  0  0
   26.0524  -35.1900   -4.1570 O   0  0  0  0  0  0  0  0  0  0  0  0
  2  1  1  0
  3  2  2  0
  4  2  1  0
  5  4  1  0
  6  5  1  0
  7  6  1  0
  8  7  1  0
  8  9  1  6
 10  8  1  0
 10 12  1  0
 11 10  2  0
 12 13  1  0
 13 14  1  0
 15 14  1  0
 16 12  1  0
 16 15  1  0
 16 17  1  1
 18 17  2  0
 19 20  1  0
 20 21  2  0
 23 22  1  6
 22 20  1  0
 23 24  1  0
 24 17  1  0
 25 23  1  0
 25 26  1  0
 27 25  2  0
M  END
$$$$
