VCA.pdb
     RDKit          3D

 19 18  0  0  1  0  0  0  0  0999 V2000
    6.8657  -19.8932   23.2441 C   0  0  0  0  0  0  0  0  0  0  0  0
    5.5926  -19.1081   23.5049 C   0  0  2  0  0  0  0  0  0  0  0  0
    4.4410  -19.9621   23.0336 C   0  0  0  0  0  0  0  0  0  0  0  0
    5.6914  -17.8222   22.7316 C   0  0  2  0  0  0  0  0  0  0  0  0
    5.7230  -18.1340   21.3178 N   0  0  0  0  0  0  0  0  0  0  0  0
    6.8505  -16.9936   23.1432 C   0  0  0  0  0  0  0  0  0  0  0  0
    7.9022  -16.9821   22.4541 O   0  0  0  0  0  0  0  0  0  0  0  0
    6.8461  -16.1822   24.3106 N   0  0  0  0  0  0  0  0  0  0  0  0
    8.0328  -15.5256   24.8288 C   0  0  1  0  0  0  0  0  0  0  0  0
    7.5353  -14.5138   25.8525 C   0  0  0  0  0  0  0  0  0  0  0  0
    5.7601  -14.2208   25.6891 S   0  0  0  0  0  0  0  0  0  0  0  0
    8.9810  -16.4900   25.4281 C   0  0  0  0  0  0  0  0  0  0  0  0
    8.5024  -17.3477   26.2149 O   0  0  0  0  0  0  0  0  0  0  0  0
   12.4689  -17.4961   24.6803 C   0  0  0  0  0  0  0  0  0  0  0  0
   11.2407  -17.6098   25.5677 C   0  0  2  0  0  0  0  0  0  0  0  0
   10.3633  -16.5178   25.1852 N   0  0  0  0  0  0  0  0  0  0  0  0
   11.7114  -17.4689   26.9696 C   0  0  0  0  0  0  0  0  0  0  0  0
   11.2444  -16.3712   27.6797 O   0  0  0  0  0  0  0  0  0  0  0  0
   12.4878  -18.2804   27.5091 O   0  0  0  0  0  0  0  0  0  0  0  0
  2  3  1  6
  2  1  1  0
  4  5  1  6
  4  2  1  0
  6  4  1  0
  7  6  2  0
  8  6  1  0
  9  8  1  0
  9 12  1  0
  9 10  1  1
 11 10  1  0
 12 16  1  0
 13 12  2  0
 15 14  1  6
 16 15  1  0
 17 18  1  0
 17 15  1  0
 19 17  2  0
M  END
$$$$
