VCA.pdb
     RDKit          3D

 19 18  0  0  1  0  0  0  0  0999 V2000
   13.3558  -21.0270   19.9035 C   0  0  0  0  0  0  0  0  0  0  0  0
   12.1427  -20.6278   20.7244 C   0  0  2  0  0  0  0  0  0  0  0  0
   10.9919  -21.4875   20.2614 C   0  0  0  0  0  0  0  0  0  0  0  0
   11.8899  -19.1672   20.4713 C   0  0  2  0  0  0  0  0  0  0  0  0
   11.5501  -18.9919   19.0746 N   0  0  0  0  0  0  0  0  0  0  0  0
   13.0298  -18.3096   20.8771 C   0  0  0  0  0  0  0  0  0  0  0  0
   13.8537  -17.8979   20.0211 O   0  0  0  0  0  0  0  0  0  0  0  0
   13.2569  -17.9096   22.2223 N   0  0  0  0  0  0  0  0  0  0  0  0
   14.3810  -17.0860   22.6295 C   0  0  1  0  0  0  0  0  0  0  0  0
   13.8267  -16.0992   23.6484 C   0  0  0  0  0  0  0  0  0  0  0  0
   15.1433  -15.1382   24.4275 S   0  0  0  0  0  0  0  0  0  0  0  0
   15.4832  -17.8951   23.1941 C   0  0  0  0  0  0  0  0  0  0  0  0
   15.1958  -18.6663   24.1461 O   0  0  0  0  0  0  0  0  0  0  0  0
   19.0032  -18.6840   22.3199 C   0  0  0  0  0  0  0  0  0  0  0  0
   17.8998  -18.6103   23.3620 C   0  0  2  0  0  0  0  0  0  0  0  0
   16.8143  -17.8654   22.7493 N   0  0  0  0  0  0  0  0  0  0  0  0
   18.4647  -17.8917   24.5329 C   0  0  0  0  0  0  0  0  0  0  0  0
   18.9164  -18.6721   25.5885 O   0  0  0  0  0  0  0  0  0  0  0  0
   18.5425  -16.6496   24.5935 O   0  0  0  0  0  0  0  0  0  0  0  0
  2  3  1  6
  2  1  1  0
  4  5  1  6
  4  2  1  0
  6  4  1  0
  7  6  2  0
  8  6  1  0
  9  8  1  0
  9 12  1  0
  9 10  1  1
 11 10  1  0
 12 16  1  0
 13 12  2  0
 15 14  1  6
 16 15  1  0
 17 18  1  0
 17 15  1  0
 19 17  2  0
M  END
$$$$
