VCA.pdb
     RDKit          3D

 19 18  0  0  1  0  0  0  0  0999 V2000
    7.0923  -13.2716   20.7397 C   0  0  0  0  0  0  0  0  0  0  0  0
    8.1492  -14.3551   20.6209 C   0  0  2  0  0  0  0  0  0  0  0  0
    7.7271  -15.2640   19.4924 C   0  0  0  0  0  0  0  0  0  0  0  0
    8.1992  -15.0802   21.9373 C   0  0  2  0  0  0  0  0  0  0  0  0
    6.9340  -15.7543   22.1423 N   0  0  0  0  0  0  0  0  0  0  0  0
    8.5424  -14.1875   23.0707 C   0  0  0  0  0  0  0  0  0  0  0  0
    9.4972  -13.3749   22.9752 O   0  0  0  0  0  0  0  0  0  0  0  0
    7.8334  -14.1937   24.3029 N   0  0  0  0  0  0  0  0  0  0  0  0
    8.2416  -13.4188   25.4608 C   0  0  1  0  0  0  0  0  0  0  0  0
    6.9847  -12.7152   25.9552 C   0  0  0  0  0  0  0  0  0  0  0  0
    5.5291  -13.7756   25.8111 S   0  0  0  0  0  0  0  0  0  0  0  0
    8.8423  -14.2693   26.5114 C   0  0  0  0  0  0  0  0  0  0  0  0
    8.1909  -15.2866   26.8643 O   0  0  0  0  0  0  0  0  0  0  0  0
    9.5039  -14.2191   29.4361 C   0  0  0  0  0  0  0  0  0  0  0  0
   10.5023  -14.6531   28.3761 C   0  0  2  0  0  0  0  0  0  0  0  0
   10.0749  -14.0266   27.1378 N   0  0  0  0  0  0  0  0  0  0  0  0
   10.4241  -16.1343   28.2959 C   0  0  0  0  0  0  0  0  0  0  0  0
    9.9011  -16.6716   27.1275 O   0  0  0  0  0  0  0  0  0  0  0  0
   10.8019  -16.8842   29.2164 O   0  0  0  0  0  0  0  0  0  0  0  0
  2  3  1  6
  2  1  1  0
  4  5  1  1
  4  2  1  0
  6  4  1  0
  7  6  2  0
  8  6  1  0
  9  8  1  0
  9 12  1  0
  9 10  1  1
 11 10  1  0
 12 16  1  0
 13 12  2  0
 15 14  1  1
 16 15  1  0
 17 18  1  0
 17 15  1  0
 19 17  2  0
M  END
$$$$
