VCA.pdb
     RDKit          3D

 19 18  0  0  1  0  0  0  0  0999 V2000
    7.1075  -12.7566   20.0830 C   0  0  0  0  0  0  0  0  0  0  0  0
    8.4912  -13.3692   19.9603 C   0  0  2  0  0  0  0  0  0  0  0  0
    8.9992  -13.0428   18.5771 C   0  0  0  0  0  0  0  0  0  0  0  0
    8.3467  -14.8512   20.1702 C   0  0  2  0  0  0  0  0  0  0  0  0
    7.6071  -15.4062   19.0557 N   0  0  0  0  0  0  0  0  0  0  0  0
    7.7225  -15.1873   21.4729 C   0  0  0  0  0  0  0  0  0  0  0  0
    6.5440  -15.6231   21.5211 O   0  0  0  0  0  0  0  0  0  0  0  0
    8.3983  -15.0421   22.7152 N   0  0  0  0  0  0  0  0  0  0  0  0
    7.8364  -15.4728   23.9827 C   0  0  1  0  0  0  0  0  0  0  0  0
    7.5395  -16.9579   23.8235 C   0  0  0  0  0  0  0  0  0  0  0  0
    7.0096  -17.7008   25.3827 S   0  0  0  0  0  0  0  0  0  0  0  0
    8.7576  -15.2163   25.1113 C   0  0  0  0  0  0  0  0  0  0  0  0
    9.9013  -15.7371   25.0447 O   0  0  0  0  0  0  0  0  0  0  0  0
    8.7554  -12.9879   28.0961 C   0  0  0  0  0  0  0  0  0  0  0  0
    9.4073  -14.0884   27.2759 C   0  0  2  0  0  0  0  0  0  0  0  0
    8.4517  -14.4414   26.2412 N   0  0  0  0  0  0  0  0  0  0  0  0
    9.6551  -15.2227   28.2026 C   0  0  0  0  0  0  0  0  0  0  0  0
    8.9064  -16.3737   27.9979 O   0  0  0  0  0  0  0  0  0  0  0  0
   10.4880  -15.1730   29.1280 O   0  0  0  0  0  0  0  0  0  0  0  0
  2  3  1  6
  2  1  1  0
  4  5  1  6
  4  2  1  0
  6  4  1  0
  7  6  2  0
  8  6  1  0
  9  8  1  0
  9 12  1  0
  9 10  1  6
 11 10  1  0
 12 16  1  0
 13 12  2  0
 15 14  1  1
 16 15  1  0
 17 18  1  0
 17 15  1  0
 19 17  2  0
M  END
$$$$
