VCA.pdb
     RDKit          3D

 19 18  0  0  1  0  0  0  0  0999 V2000
    6.4062  -16.4174   19.9095 C   0  0  0  0  0  0  0  0  0  0  0  0
    7.1651  -16.2451   21.2132 C   0  0  2  0  0  0  0  0  0  0  0  0
    6.2927  -16.8035   22.3109 C   0  0  0  0  0  0  0  0  0  0  0  0
    7.4214  -14.7743   21.3929 C   0  0  2  0  0  0  0  0  0  0  0  0
    8.1849  -14.2960   20.2592 N   0  0  0  0  0  0  0  0  0  0  0  0
    8.0859  -14.4616   22.6814 C   0  0  0  0  0  0  0  0  0  0  0  0
    9.3171  -14.6694   22.8301 O   0  0  0  0  0  0  0  0  0  0  0  0
    7.3924  -13.9220   23.7989 N   0  0  0  0  0  0  0  0  0  0  0  0
    7.9960  -13.7618   25.1095 C   0  0  1  0  0  0  0  0  0  0  0  0
    7.0532  -12.8596   25.8947 C   0  0  0  0  0  0  0  0  0  0  0  0
    7.5414  -12.7373   27.6298 S   0  0  0  0  0  0  0  0  0  0  0  0
    8.2010  -15.0610   25.7863 C   0  0  0  0  0  0  0  0  0  0  0  0
    7.1933  -15.8041   25.9134 O   0  0  0  0  0  0  0  0  0  0  0  0
   10.5133  -17.6344   26.2774 C   0  0  0  0  0  0  0  0  0  0  0  0
    9.5865  -16.7334   27.0761 C   0  0  2  0  0  0  0  0  0  0  0  0
    9.4268  -15.5214   26.2925 N   0  0  0  0  0  0  0  0  0  0  0  0
   10.2633  -16.4635   28.3706 C   0  0  0  0  0  0  0  0  0  0  0  0
   10.4509  -17.5476   29.2173 O   0  0  0  0  0  0  0  0  0  0  0  0
   10.6548  -15.3297   28.7078 O   0  0  0  0  0  0  0  0  0  0  0  0
  2  3  1  1
  2  1  1  0
  4  5  1  6
  4  2  1  0
  6  4  1  0
  7  6  2  0
  8  6  1  0
  9  8  1  0
  9 12  1  0
  9 10  1  1
 11 10  1  0
 12 16  1  0
 13 12  2  0
 15 14  1  6
 16 15  1  0
 17 18  1  0
 17 15  1  0
 19 17  2  0
M  END
$$$$
