VCA.pdb
     RDKit          3D

 19 18  0  0  1  0  0  0  0  0999 V2000
    6.0012  -19.9620   17.4389 C   0  0  0  0  0  0  0  0  0  0  0  0
    5.6315  -19.5865   18.8627 C   0  0  2  0  0  0  0  0  0  0  0  0
    6.8791  -19.0439   19.5161 C   0  0  0  0  0  0  0  0  0  0  0  0
    5.1385  -20.8338   19.5427 C   0  0  2  0  0  0  0  0  0  0  0  0
    4.0353  -21.3736   18.7755 N   0  0  0  0  0  0  0  0  0  0  0  0
    4.7692  -20.6056   20.9609 C   0  0  0  0  0  0  0  0  0  0  0  0
    3.8158  -19.8407   21.2558 O   0  0  0  0  0  0  0  0  0  0  0  0
    5.4507  -21.2203   22.0466 N   0  0  0  0  0  0  0  0  0  0  0  0
    5.1317  -20.9580   23.4384 C   0  0  1  0  0  0  0  0  0  0  0  0
    4.7141  -22.2979   24.0296 C   0  0  0  0  0  0  0  0  0  0  0  0
    4.7350  -22.2631   25.8357 S   0  0  0  0  0  0  0  0  0  0  0  0
    6.2775  -20.3711   24.1670 C   0  0  0  0  0  0  0  0  0  0  0  0
    7.4135  -20.8597   23.9335 O   0  0  0  0  0  0  0  0  0  0  0  0
    6.8267  -17.4240   26.3770 C   0  0  0  0  0  0  0  0  0  0  0  0
    7.3321  -18.7158   25.7568 C   0  0  2  0  0  0  0  0  0  0  0  0
    6.1907  -19.3185   25.0917 N   0  0  0  0  0  0  0  0  0  0  0  0
    7.8251  -19.5622   26.8736 C   0  0  0  0  0  0  0  0  0  0  0  0
    9.0259  -19.1872   27.4608 O   0  0  0  0  0  0  0  0  0  0  0  0
    7.2124  -20.5659   27.2854 O   0  0  0  0  0  0  0  0  0  0  0  0
  2  3  1  1
  2  1  1  0
  4  5  1  6
  4  2  1  0
  6  4  1  0
  7  6  2  0
  8  6  1  0
  9  8  1  0
  9 12  1  0
  9 10  1  1
 11 10  1  0
 12 16  1  0
 13 12  2  0
 15 14  1  1
 16 15  1  0
 17 18  1  0
 17 15  1  0
 19 17  2  0
M  END
$$$$
