VCA.pdb
     RDKit          3D

 19 18  0  0  1  0  0  0  0  0999 V2000
    6.6744  -14.4172   19.3031 C   0  0  0  0  0  0  0  0  0  0  0  0
    7.4318  -14.6564   20.5971 C   0  0  2  0  0  0  0  0  0  0  0  0
    6.7062  -15.7521   21.3392 C   0  0  0  0  0  0  0  0  0  0  0  0
    7.4308  -13.3629   21.3639 C   0  0  2  0  0  0  0  0  0  0  0  0
    8.0892  -12.3507   20.5644 N   0  0  0  0  0  0  0  0  0  0  0  0
    8.0430  -13.4932   22.7084 C   0  0  0  0  0  0  0  0  0  0  0  0
    9.2901  -13.5942   22.8335 O   0  0  0  0  0  0  0  0  0  0  0  0
    7.2799  -13.5118   23.9077 N   0  0  0  0  0  0  0  0  0  0  0  0
    7.8567  -13.7687   25.2151 C   0  0  1  0  0  0  0  0  0  0  0  0
    6.8062  -13.3309   26.2270 C   0  0  0  0  0  0  0  0  0  0  0  0
    6.6502  -11.5320   26.2874 S   0  0  0  0  0  0  0  0  0  0  0  0
    8.2239  -15.1912   25.3874 C   0  0  0  0  0  0  0  0  0  0  0  0
    7.2863  -16.0303   25.3612 O   0  0  0  0  0  0  0  0  0  0  0  0
   11.2669  -17.2580   25.2521 C   0  0  0  0  0  0  0  0  0  0  0  0
    9.8674  -17.0619   25.8106 C   0  0  2  0  0  0  0  0  0  0  0  0
    9.5303  -15.6691   25.5764 N   0  0  0  0  0  0  0  0  0  0  0  0
    9.9389  -17.3717   27.2617 C   0  0  0  0  0  0  0  0  0  0  0  0
   10.1896  -18.6923   27.6086 O   0  0  0  0  0  0  0  0  0  0  0  0
    9.7853  -16.5091   28.1476 O   0  0  0  0  0  0  0  0  0  0  0  0
  2  3  1  1
  2  1  1  0
  4  5  1  6
  4  2  1  0
  6  4  1  0
  7  6  2  0
  8  6  1  0
  9  8  1  0
  9 12  1  0
  9 10  1  1
 11 10  1  0
 12 16  1  0
 13 12  2  0
 15 14  1  1
 16 15  1  0
 17 18  1  0
 17 15  1  0
 19 17  2  0
M  END
$$$$
