VCA.pdb
     RDKit          3D

 19 18  0  0  1  0  0  0  0  0999 V2000
   -3.2807  -24.9893   25.0125 C   0  0  0  0  0  0  0  0  0  0  0  0
   -4.3223  -24.1215   24.3292 C   0  0  2  0  0  0  0  0  0  0  0  0
   -3.9733  -24.0830   22.8614 C   0  0  0  0  0  0  0  0  0  0  0  0
   -4.2538  -22.7576   24.9587 C   0  0  2  0  0  0  0  0  0  0  0  0
   -2.9271  -22.2168   24.7474 N   0  0  0  0  0  0  0  0  0  0  0  0
   -4.6260  -22.7696   26.3943 C   0  0  0  0  0  0  0  0  0  0  0  0
   -3.7459  -22.9206   27.2794 O   0  0  0  0  0  0  0  0  0  0  0  0
   -5.9645  -22.6154   26.8479 N   0  0  0  0  0  0  0  0  0  0  0  0
   -6.3554  -22.7574   28.2389 C   0  0  1  0  0  0  0  0  0  0  0  0
   -7.0485  -21.4536   28.6118 C   0  0  0  0  0  0  0  0  0  0  0  0
   -7.7846  -21.5397   30.2594 S   0  0  0  0  0  0  0  0  0  0  0  0
   -7.2377  -23.9261   28.4486 C   0  0  0  0  0  0  0  0  0  0  0  0
   -8.2498  -24.0181   27.7063 O   0  0  0  0  0  0  0  0  0  0  0  0
   -7.1817  -26.9973   30.5696 C   0  0  0  0  0  0  0  0  0  0  0  0
   -7.8914  -26.0867   29.5818 C   0  0  2  0  0  0  0  0  0  0  0  0
   -7.0301  -24.9308   29.4068 N   0  0  0  0  0  0  0  0  0  0  0  0
   -9.1895  -25.7138   30.2004 C   0  0  0  0  0  0  0  0  0  0  0  0
  -10.2584  -26.5715   29.9784 O   0  0  0  0  0  0  0  0  0  0  0  0
   -9.3421  -24.6874   30.8901 O   0  0  0  0  0  0  0  0  0  0  0  0
  2  3  1  6
  2  1  1  0
  4  5  1  1
  4  2  1  0
  6  4  1  0
  7  6  2  0
  8  6  1  0
  9  8  1  0
  9 12  1  0
  9 10  1  6
 11 10  1  0
 12 16  1  0
 13 12  2  0
 15 14  1  1
 16 15  1  0
 17 18  1  0
 17 15  1  0
 19 17  2  0
M  END
$$$$
