YRV.pdb
     RDKit          3D

 31 31  0  0  1  0  0  0  0  0999 V2000
   25.9993  -32.9604  -12.7095 O   0  0  0  0  0  0  0  0  0  0  0  0
   26.7037  -32.8043  -13.8956 C   0  0  0  0  0  0  0  0  0  0  0  0
   27.9747  -33.3658  -13.9717 C   0  0  0  0  0  0  0  0  0  0  0  0
   28.6877  -33.2188  -15.1452 C   0  0  0  0  0  0  0  0  0  0  0  0
   28.1937  -32.5437  -16.2349 C   0  0  0  0  0  0  0  0  0  0  0  0
   28.9717  -32.3940  -17.4802 C   0  0  0  0  0  0  0  0  0  0  0  0
   29.9816  -31.2654  -17.2564 C   0  0  2  0  0  0  0  0  0  0  0  0
   29.2331  -30.0329  -17.2485 N   0  0  0  0  0  0  0  0  0  0  0  0
   31.0554  -31.3191  -18.2553 C   0  0  0  0  0  0  0  0  0  0  0  0
   30.9514  -30.5708  -19.2706 O   0  0  0  0  0  0  0  0  0  0  0  0
   26.9267  -31.9989  -16.1233 C   0  0  0  0  0  0  0  0  0  0  0  0
   26.1881  -32.1273  -14.9650 C   0  0  0  0  0  0  0  0  0  0  0  0
   38.7002  -32.4442  -15.7042 N   0  0  0  0  0  0  0  0  0  0  0  0
   37.5344  -31.6577  -15.4644 C   0  0  0  0  0  0  0  0  0  0  0  0
   37.5639  -30.7117  -14.6081 N   0  0  0  0  0  0  0  0  0  0  0  0
   36.3592  -31.9443  -16.1875 N   0  0  0  0  0  0  0  0  0  0  0  0
   36.2592  -33.1234  -16.9903 C   0  0  0  0  0  0  0  0  0  0  0  0
   34.9196  -33.2761  -17.6774 C   0  0  0  0  0  0  0  0  0  0  0  0
   34.5671  -31.9945  -18.3823 C   0  0  0  0  0  0  0  0  0  0  0  0
   33.2581  -32.0750  -19.1229 C   0  0  2  0  0  0  0  0  0  0  0  0
   32.1806  -32.1438  -18.1516 N   0  0  0  0  0  0  0  0  0  0  0  0
   33.1579  -33.2235  -20.0182 C   0  0  0  0  0  0  0  0  0  0  0  0
   32.7759  -34.3416  -19.5899 O   0  0  0  0  0  0  0  0  0  0  0  0
   36.7256  -30.1270  -14.4372 C   0  0  0  0  0  0  0  0  0  0  0  0
   31.9817  -32.8846  -23.7871 C   0  0  1  0  0  0  0  0  0  0  0  0
   32.1053  -34.2518  -23.1356 C   0  0  0  0  0  0  0  0  0  0  0  0
   30.9031  -34.4270  -22.2316 C   0  0  1  0  0  0  0  0  0  0  0  0
   33.3443  -34.3363  -22.2729 N   0  0  0  0  0  0  0  0  0  0  0  0
   33.4772  -33.1693  -21.4153 C   0  0  0  0  0  0  0  0  0  0  0  0
   34.5260  -34.4889  -23.1258 O   0  0  0  0  0  0  0  0  0  0  0  0
   35.3770  -33.3903  -23.3313 O   0  0  0  0  0  0  0  0  0  0  0  0
  2 12  2  0
  2  1  1  0
  3  2  1  0
  4  5  1  0
  4  3  2  0
  5 11  2  0
  6  7  1  0
  6  5  1  0
  7  8  1  6
  9  7  1  0
  9 21  1  0
 10  9  2  0
 11 12  1  0
 14 13  1  0
 14 16  1  0
 15 14  2  0
 17 16  1  0
 18 19  1  0
 18 17  1  0
 20 19  1  1
 20 21  1  0
 22 23  2  0
 22 20  1  0
 25 24  1  6
 26 25  1  0
 27 28  1  1
 27 25  1  0
 28 22  1  0
 29 27  1  0
 30 29  1  0
 31 29  2  0
M  END
$$$$
