YRV.pdb
     RDKit          3D

 31 31  0  0  1  0  0  0  0  0999 V2000
   32.7962  -22.7280   -9.2622 O   0  0  0  0  0  0  0  0  0  0  0  0
   31.5582  -22.2511   -9.6710 C   0  0  0  0  0  0  0  0  0  0  0  0
   31.2030  -22.4335  -11.0042 C   0  0  0  0  0  0  0  0  0  0  0  0
   29.9746  -21.9644  -11.4259 C   0  0  0  0  0  0  0  0  0  0  0  0
   29.0939  -21.3280  -10.5851 C   0  0  0  0  0  0  0  0  0  0  0  0
   27.7861  -20.8304  -11.0545 C   0  0  0  0  0  0  0  0  0  0  0  0
   27.8214  -20.8229  -12.5850 C   0  0  2  0  0  0  0  0  0  0  0  0
   28.9918  -20.0738  -12.9704 N   0  0  0  0  0  0  0  0  0  0  0  0
   26.5615  -20.3088  -13.1345 C   0  0  0  0  0  0  0  0  0  0  0  0
   26.5853  -19.1767  -13.6994 O   0  0  0  0  0  0  0  0  0  0  0  0
   29.4804  -21.1646   -9.2667 C   0  0  0  0  0  0  0  0  0  0  0  0
   30.7009  -21.6212   -8.8131 C   0  0  0  0  0  0  0  0  0  0  0  0
   25.1481  -24.8708  -15.8591 N   0  0  0  0  0  0  0  0  0  0  0  0
   26.1185  -24.5128  -16.8417 C   0  0  0  0  0  0  0  0  0  0  0  0
   27.0244  -25.3451  -17.1814 N   0  0  0  0  0  0  0  0  0  0  0  0
   26.0557  -23.2315  -17.4252 N   0  0  0  0  0  0  0  0  0  0  0  0
   25.0704  -22.2821  -17.0098 C   0  0  0  0  0  0  0  0  0  0  0  0
   25.0662  -22.0273  -15.5181 C   0  0  0  0  0  0  0  0  0  0  0  0
   24.3078  -20.7610  -15.2266 C   0  0  0  0  0  0  0  0  0  0  0  0
   24.1612  -20.4932  -13.7517 C   0  0  2  0  0  0  0  0  0  0  0  0
   25.3429  -20.9929  -13.0712 N   0  0  0  0  0  0  0  0  0  0  0  0
   22.9798  -21.1097  -13.1560 C   0  0  0  0  0  0  0  0  0  0  0  0
   22.9285  -22.3508  -12.9659 O   0  0  0  0  0  0  0  0  0  0  0  0
   27.7671  -25.0738  -17.8512 C   0  0  0  0  0  0  0  0  0  0  0  0
   19.7063  -18.8107  -11.4362 C   0  0  1  0  0  0  0  0  0  0  0  0
   20.1822  -20.1649  -10.9377 C   0  0  0  0  0  0  0  0  0  0  0  0
   21.3335  -19.9125   -9.9869 C   0  0  1  0  0  0  0  0  0  0  0  0
   20.7040  -21.0138  -12.0751 N   0  0  0  0  0  0  0  0  0  0  0  0
   21.8189  -20.3706  -12.7521 C   0  0  0  0  0  0  0  0  0  0  0  0
   19.6173  -21.2919  -13.0178 O   0  0  0  0  0  0  0  0  0  0  0  0
   18.5230  -22.0684  -12.6022 O   0  0  0  0  0  0  0  0  0  0  0  0
  2 12  2  0
  2  1  1  0
  3  2  1  0
  4  5  1  0
  4  3  2  0
  5 11  2  0
  6  7  1  0
  6  5  1  0
  7  8  1  1
  9  7  1  0
  9 21  1  0
 10  9  2  0
 11 12  1  0
 14 13  1  0
 14 16  1  0
 15 14  2  0
 17 16  1  0
 18 19  1  0
 18 17  1  0
 20 19  1  6
 20 21  1  0
 22 23  2  0
 22 20  1  0
 25 24  1  1
 26 25  1  0
 27 28  1  6
 27 25  1  0
 28 22  1  0
 29 27  1  0
 30 29  1  0
 31 29  2  0
M  END
$$$$
