YRV.pdb
     RDKit          3D

 31 31  0  0  1  0  0  0  0  0999 V2000
   30.8404  -16.1552  -19.0224 O   0  0  0  0  0  0  0  0  0  0  0  0
   29.9770  -16.4982  -17.9908 C   0  0  0  0  0  0  0  0  0  0  0  0
   28.7888  -15.7827  -17.8770 C   0  0  0  0  0  0  0  0  0  0  0  0
   27.9198  -16.1123  -16.8557 C   0  0  0  0  0  0  0  0  0  0  0  0
   28.1808  -17.1139  -15.9523 C   0  0  0  0  0  0  0  0  0  0  0  0
   27.2412  -17.4501  -14.8650 C   0  0  0  0  0  0  0  0  0  0  0  0
   26.4553  -18.6879  -15.3052 C   0  0  2  0  0  0  0  0  0  0  0  0
   25.7371  -18.3211  -16.5007 N   0  0  0  0  0  0  0  0  0  0  0  0
   25.6084  -19.1847  -14.2146 C   0  0  0  0  0  0  0  0  0  0  0  0
   24.4893  -18.6213  -14.0362 O   0  0  0  0  0  0  0  0  0  0  0  0
   29.3714  -17.8040  -16.0962 C   0  0  0  0  0  0  0  0  0  0  0  0
   30.2617  -17.4996  -17.1054 C   0  0  0  0  0  0  0  0  0  0  0  0
   21.4971  -24.9943  -15.6385 N   0  0  0  0  0  0  0  0  0  0  0  0
   22.7495  -25.0371  -14.9567 C   0  0  0  0  0  0  0  0  0  0  0  0
   23.3522  -26.1499  -14.7918 N   0  0  0  0  0  0  0  0  0  0  0  0
   23.3031  -23.8343  -14.4737 N   0  0  0  0  0  0  0  0  0  0  0  0
   22.6402  -22.5845  -14.6812 C   0  0  0  0  0  0  0  0  0  0  0  0
   23.3910  -21.3994  -14.1136 C   0  0  0  0  0  0  0  0  0  0  0  0
   24.2289  -21.8472  -12.9470 C   0  0  0  0  0  0  0  0  0  0  0  0
   25.0473  -20.7315  -12.3521 C   0  0  2  0  0  0  0  0  0  0  0  0
   25.9632  -20.2385  -13.3656 N   0  0  0  0  0  0  0  0  0  0  0  0
   25.8164  -21.1278  -11.1765 C   0  0  0  0  0  0  0  0  0  0  0  0
   26.3991  -22.2404  -11.1339 O   0  0  0  0  0  0  0  0  0  0  0  0
   24.2509  -26.1932  -14.2776 C   0  0  0  0  0  0  0  0  0  0  0  0
   25.8958  -18.6362   -7.5658 C   0  0  1  0  0  0  0  0  0  0  0  0
   26.6700  -19.9375   -7.6920 C   0  0  0  0  0  0  0  0  0  0  0  0
   28.0392  -19.5924   -8.2391 C   0  0  1  0  0  0  0  0  0  0  0  0
   26.0061  -20.8754   -8.6750 N   0  0  0  0  0  0  0  0  0  0  0  0
   25.9642  -20.3040  -10.0117 C   0  0  0  0  0  0  0  0  0  0  0  0
   24.6555  -21.1990   -8.2081 O   0  0  0  0  0  0  0  0  0  0  0  0
   24.4919  -21.9729   -7.0472 O   0  0  0  0  0  0  0  0  0  0  0  0
  2 12  2  0
  2  1  1  0
  3  2  1  0
  4  5  1  0
  4  3  2  0
  5 11  2  0
  6  7  1  0
  6  5  1  0
  7  8  1  6
  9  7  1  0
  9 21  1  0
 10  9  2  0
 11 12  1  0
 14 13  1  0
 14 16  1  0
 15 14  2  0
 17 16  1  0
 18 19  1  0
 18 17  1  0
 20 19  1  6
 20 21  1  0
 22 23  2  0
 22 20  1  0
 25 24  1  1
 26 25  1  0
 27 28  1  6
 27 25  1  0
 28 22  1  0
 29 27  1  0
 30 29  1  0
 31 29  2  0
M  END
$$$$
