YRV.pdb
     RDKit          3D

 31 31  0  0  1  0  0  0  0  0999 V2000
   30.3178  -15.4907  -19.5992 O   0  0  0  0  0  0  0  0  0  0  0  0
   29.3757  -16.2098  -18.8763 C   0  0  0  0  0  0  0  0  0  0  0  0
   28.3050  -16.7588  -19.5756 C   0  0  0  0  0  0  0  0  0  0  0  0
   27.3596  -17.4767  -18.8700 C   0  0  0  0  0  0  0  0  0  0  0  0
   27.4344  -17.6694  -17.5119 C   0  0  0  0  0  0  0  0  0  0  0  0
   26.4126  -18.4373  -16.7739 C   0  0  0  0  0  0  0  0  0  0  0  0
   27.1133  -19.6431  -16.1424 C   0  0  2  0  0  0  0  0  0  0  0  0
   27.5653  -20.4772  -17.2284 N   0  0  0  0  0  0  0  0  0  0  0  0
   26.2306  -20.3176  -15.1835 C   0  0  0  0  0  0  0  0  0  0  0  0
   25.4549  -21.2132  -15.6282 O   0  0  0  0  0  0  0  0  0  0  0  0
   28.5126  -17.1095  -16.8497 C   0  0  0  0  0  0  0  0  0  0  0  0
   29.4745  -16.3863  -17.5247 C   0  0  0  0  0  0  0  0  0  0  0  0
   22.3753  -20.2200   -8.8805 N   0  0  0  0  0  0  0  0  0  0  0  0
   23.0153  -21.1009   -7.9588 C   0  0  0  0  0  0  0  0  0  0  0  0
   22.3367  -21.6734   -7.0420 N   0  0  0  0  0  0  0  0  0  0  0  0
   24.4014  -21.3245   -8.0813 N   0  0  0  0  0  0  0  0  0  0  0  0
   25.1626  -20.6786   -9.1051 C   0  0  0  0  0  0  0  0  0  0  0  0
   24.7011  -21.0158  -10.5064 C   0  0  0  0  0  0  0  0  0  0  0  0
   25.6309  -20.3853  -11.5072 C   0  0  0  0  0  0  0  0  0  0  0  0
   25.2400  -20.6753  -12.9325 C   0  0  2  0  0  0  0  0  0  0  0  0
   26.1967  -20.0307  -13.8148 N   0  0  0  0  0  0  0  0  0  0  0  0
   23.8981  -20.2178  -13.2797 C   0  0  0  0  0  0  0  0  0  0  0  0
   23.6123  -18.9941  -13.2671 O   0  0  0  0  0  0  0  0  0  0  0  0
   22.7967  -22.3003   -6.3570 C   0  0  0  0  0  0  0  0  0  0  0  0
   21.0995  -22.6311  -15.4232 C   0  0  1  0  0  0  0  0  0  0  0  0
   21.1003  -21.1120  -15.3887 C   0  0  0  0  0  0  0  0  0  0  0  0
   22.1272  -20.6420  -16.3976 C   0  0  1  0  0  0  0  0  0  0  0  0
   21.5213  -20.5962  -14.0311 N   0  0  0  0  0  0  0  0  0  0  0  0
   22.8314  -21.1012  -13.6519 C   0  0  0  0  0  0  0  0  0  0  0  0
   20.5151  -20.9666  -13.0323 O   0  0  0  0  0  0  0  0  0  0  0  0
   20.8345  -21.9169  -12.0484 O   0  0  0  0  0  0  0  0  0  0  0  0
  2 12  2  0
  2  1  1  0
  3  2  1  0
  4  5  1  0
  4  3  2  0
  5 11  2  0
  6  7  1  0
  6  5  1  0
  7  8  1  6
  9  7  1  0
  9 21  1  0
 10  9  2  0
 11 12  1  0
 14 13  1  0
 14 16  1  0
 15 14  2  0
 17 16  1  0
 18 19  1  0
 18 17  1  0
 20 19  1  1
 20 21  1  0
 22 23  2  0
 22 20  1  0
 25 24  1  6
 26 25  1  0
 27 28  1  6
 27 25  1  0
 28 22  1  0
 29 27  1  0
 30 29  1  0
 31 29  2  0
M  END
$$$$
