YRV.pdb
     RDKit          3D

 31 31  0  0  1  0  0  0  0  0999 V2000
   31.9624  -17.5164  -19.6688 O   0  0  0  0  0  0  0  0  0  0  0  0
   30.8839  -17.4396  -18.7981 C   0  0  0  0  0  0  0  0  0  0  0  0
   30.4049  -18.6281  -18.2553 C   0  0  0  0  0  0  0  0  0  0  0  0
   29.3323  -18.5678  -17.3876 C   0  0  0  0  0  0  0  0  0  0  0  0
   28.7229  -17.3864  -17.0408 C   0  0  0  0  0  0  0  0  0  0  0  0
   27.5753  -17.3416  -16.1138 C   0  0  0  0  0  0  0  0  0  0  0  0
   26.3983  -18.0314  -16.8085 C   0  0  2  0  0  0  0  0  0  0  0  0
   26.0205  -17.1919  -17.9184 N   0  0  0  0  0  0  0  0  0  0  0  0
   25.3160  -18.3044  -15.8557 C   0  0  0  0  0  0  0  0  0  0  0  0
   24.7829  -17.3156  -15.2728 O   0  0  0  0  0  0  0  0  0  0  0  0
   29.2259  -16.2248  -17.5994 C   0  0  0  0  0  0  0  0  0  0  0  0
   30.2960  -16.2502  -18.4700 C   0  0  0  0  0  0  0  0  0  0  0  0
   19.2246  -21.5684  -12.5110 N   0  0  0  0  0  0  0  0  0  0  0  0
   19.4028  -22.6997  -13.3617 C   0  0  0  0  0  0  0  0  0  0  0  0
   19.1008  -23.8682  -12.9466 N   0  0  0  0  0  0  0  0  0  0  0  0
   19.9144  -22.5015  -14.6599 N   0  0  0  0  0  0  0  0  0  0  0  0
   20.2716  -21.1948  -15.1177 C   0  0  0  0  0  0  0  0  0  0  0  0
   21.4191  -20.5767  -14.3486 C   0  0  0  0  0  0  0  0  0  0  0  0
   22.5755  -20.3341  -15.2800 C   0  0  0  0  0  0  0  0  0  0  0  0
   23.7904  -19.7905  -14.5750 C   0  0  2  0  0  0  0  0  0  0  0  0
   24.8415  -19.5858  -15.5560 N   0  0  0  0  0  0  0  0  0  0  0  0
   24.2967  -20.6611  -13.5184 C   0  0  0  0  0  0  0  0  0  0  0  0
   24.5372  -21.8737  -13.7441 O   0  0  0  0  0  0  0  0  0  0  0  0
   19.3273  -24.7055  -13.5135 C   0  0  0  0  0  0  0  0  0  0  0  0
   26.0769  -19.3789   -9.7745 C   0  0  1  0  0  0  0  0  0  0  0  0
   26.2235  -20.7274  -10.4591 C   0  0  0  0  0  0  0  0  0  0  0  0
   27.2704  -20.5683  -11.5416 C   0  0  1  0  0  0  0  0  0  0  0  0
   24.9326  -21.1447  -11.1270 N   0  0  0  0  0  0  0  0  0  0  0  0
   24.5525  -20.2156  -12.1793 C   0  0  0  0  0  0  0  0  0  0  0  0
   23.8719  -21.2494  -10.1215 O   0  0  0  0  0  0  0  0  0  0  0  0
   23.9601  -22.2339   -9.1233 O   0  0  0  0  0  0  0  0  0  0  0  0
  2 12  2  0
  2  1  1  0
  3  2  1  0
  4  5  1  0
  4  3  2  0
  5 11  2  0
  6  7  1  0
  6  5  1  0
  7  8  1  6
  9  7  1  0
  9 21  1  0
 10  9  2  0
 11 12  1  0
 14 13  1  0
 14 16  1  0
 15 14  2  0
 17 16  1  0
 18 19  1  0
 18 17  1  0
 20 19  1  6
 20 21  1  0
 22 23  2  0
 22 20  1  0
 25 24  1  1
 26 25  1  0
 27 28  1  6
 27 25  1  0
 28 22  1  0
 29 27  1  0
 30 29  1  0
 31 29  2  0
M  END
$$$$
