YRV.pdb
     RDKit          3D

 31 31  0  0  1  0  0  0  0  0999 V2000
   31.1899  -21.4601   -9.6929 O   0  0  0  0  0  0  0  0  0  0  0  0
   30.0062  -21.1521  -10.3496 C   0  0  0  0  0  0  0  0  0  0  0  0
   30.0924  -20.7219  -11.6703 C   0  0  0  0  0  0  0  0  0  0  0  0
   28.9234  -20.4117  -12.3368 C   0  0  0  0  0  0  0  0  0  0  0  0
   27.6851  -20.5107  -11.7502 C   0  0  0  0  0  0  0  0  0  0  0  0
   26.4463  -20.1717  -12.4774 C   0  0  0  0  0  0  0  0  0  0  0  0
   25.6147  -21.4523  -12.5873 C   0  0  2  0  0  0  0  0  0  0  0  0
   26.3517  -22.3552  -13.4364 N   0  0  0  0  0  0  0  0  0  0  0  0
   24.2546  -21.1542  -13.0511 C   0  0  0  0  0  0  0  0  0  0  0  0
   24.0000  -21.3316  -14.2779 O   0  0  0  0  0  0  0  0  0  0  0  0
   27.6377  -20.9419  -10.4363 C   0  0  0  0  0  0  0  0  0  0  0  0
   28.7869  -21.2596   -9.7418 C   0  0  0  0  0  0  0  0  0  0  0  0
   18.2602  -25.0575  -10.6165 N   0  0  0  0  0  0  0  0  0  0  0  0
   18.2415  -23.9849   -9.6761 C   0  0  0  0  0  0  0  0  0  0  0  0
   17.8431  -24.1870   -8.4806 N   0  0  0  0  0  0  0  0  0  0  0  0
   18.6696  -22.7079  -10.0914 N   0  0  0  0  0  0  0  0  0  0  0  0
   19.0624  -22.4686  -11.4453 C   0  0  0  0  0  0  0  0  0  0  0  0
   19.5208  -21.0491  -11.7007 C   0  0  0  0  0  0  0  0  0  0  0  0
   20.9882  -20.9312  -11.3903 C   0  0  0  0  0  0  0  0  0  0  0  0
   21.8363  -20.7717  -12.6247 C   0  0  2  0  0  0  0  0  0  0  0  0
   23.2290  -20.6886  -12.2214 N   0  0  0  0  0  0  0  0  0  0  0  0
   21.5055  -19.5918  -13.4179 C   0  0  0  0  0  0  0  0  0  0  0  0
   21.5340  -18.4442  -12.9066 O   0  0  0  0  0  0  0  0  0  0  0  0
   17.8508  -23.4198   -7.7840 C   0  0  0  0  0  0  0  0  0  0  0  0
   22.4239  -18.8614  -17.3921 C   0  0  1  0  0  0  0  0  0  0  0  0
   20.9628  -18.6463  -17.0344 C   0  0  0  0  0  0  0  0  0  0  0  0
   20.5153  -17.3752  -17.7252 C   0  0  2  0  0  0  0  0  0  0  0  0
   20.7883  -18.4454  -15.5458 N   0  0  0  0  0  0  0  0  0  0  0  0
   21.1331  -19.6465  -14.8018 C   0  0  0  0  0  0  0  0  0  0  0  0
   19.4084  -18.0407  -15.2643 O   0  0  0  0  0  0  0  0  0  0  0  0
   18.4894  -18.9951  -14.7976 O   0  0  0  0  0  0  0  0  0  0  0  0
  2 12  2  0
  2  1  1  0
  3  2  1  0
  4  5  1  0
  4  3  2  0
  5 11  2  0
  6  7  1  0
  6  5  1  0
  7  8  1  6
  9  7  1  0
  9 21  1  0
 10  9  2  0
 11 12  1  0
 14 13  1  0
 14 16  1  0
 15 14  2  0
 17 16  1  0
 18 19  1  0
 18 17  1  0
 20 19  1  1
 20 21  1  0
 22 23  2  0
 22 20  1  0
 25 24  1  6
 26 25  1  0
 27 28  1  1
 27 25  1  0
 28 22  1  0
 29 27  1  0
 30 29  1  0
 31 29  2  0
M  END
$$$$
