RRK.pdb
     RDKit          3D

 32 31  0  0  1  0  0  0  0  0999 V2000
   12.2561  -18.4019   14.2496 N   0  0  0  0  0  0  0  0  0  0  0  0
   13.5418  -18.9954   14.3696 C   0  0  0  0  0  0  0  0  0  0  0  0
   14.4015  -18.8846   13.4187 N   0  0  0  0  0  0  0  0  0  0  0  0
   13.9318  -19.7294   15.5249 N   0  0  0  0  0  0  0  0  0  0  0  0
   13.0399  -20.0170   16.6070 C   0  0  0  0  0  0  0  0  0  0  0  0
   13.3865  -19.2540   17.8658 C   0  0  0  0  0  0  0  0  0  0  0  0
   12.5202  -19.7060   19.0459 C   0  0  0  0  0  0  0  0  0  0  0  0
   11.4138  -18.6582   19.1339 C   0  0  2  0  0  0  0  0  0  0  0  0
   11.7085  -17.6544   18.1299 N   0  0  0  0  0  0  0  0  0  0  0  0
   11.3199  -18.0572   20.4891 C   0  0  0  0  0  0  0  0  0  0  0  0
   12.3825  -17.9513   21.1355 O   0  0  0  0  0  0  0  0  0  0  0  0
   15.3589  -19.2425   13.4490 N   0  0  0  0  0  0  0  0  0  0  0  0
    8.6620  -13.9116   18.3997 C   0  0  0  0  0  0  0  0  0  0  0  0
    8.2655  -12.9110   19.3208 N   0  0  0  0  0  0  0  0  0  0  0  0
    8.8402  -11.7354   19.2428 N   0  0  0  0  0  0  0  0  0  0  0  0
    7.2796  -13.1634   20.2918 C   0  0  0  0  0  0  0  0  0  0  0  0
    7.4251  -14.1600   21.2831 C   0  0  0  0  0  0  0  0  0  0  0  0
    8.6965  -14.9644   21.2691 C   0  0  0  0  0  0  0  0  0  0  0  0
    8.6364  -16.0524   22.2960 C   0  0  2  0  0  0  0  0  0  0  0  0
    9.8361  -16.9917   22.2639 N   0  0  0  0  0  0  0  0  0  0  0  0
   10.1087  -17.6247   21.0326 C   0  0  0  0  0  0  0  0  0  0  0  0
    9.8571  -17.7843   23.4817 O   0  0  0  0  0  0  0  0  0  0  0  0
    8.8372  -18.5045   23.7159 N   0  0  0  0  0  0  0  0  0  0  0  0
    8.5820  -10.9846   19.9038 C   0  0  1  0  0  0  0  0  0  0  0  0
   10.8972  -17.8331   24.4296 C   0  0  0  0  0  0  0  0  0  0  0  0
   10.9694  -18.6627   25.5862 C   0  0  0  0  0  0  0  0  0  0  0  0
   12.2059  -19.5362   25.6491 C   0  0  0  0  0  0  0  0  0  0  0  0
   12.3806  -20.3548   24.4010 C   0  0  0  0  0  0  0  0  0  0  0  0
   13.6329  -21.1829   24.5399 N   0  0  0  0  0  0  0  0  0  0  0  0
   13.9439  -22.0107   23.3194 C   0  0  0  0  0  0  0  0  0  0  0  0
   15.2589  -22.6260   23.4808 O   0  0  0  0  0  0  0  0  0  0  0  0
   10.9502  -17.8883   26.8573 O   0  0  0  0  0  0  0  0  0  0  0  0
  2  3  2  0
  2  1  1  0
  4  2  1  0
  5  4  1  0
  6  7  1  0
  6  5  1  0
  8 10  1  0
  8  7  1  0
  8  9  1  6
 10 11  2  0
 13 15  1  0
 13 12  1  0
 14 13  2  0
 16 15  1  0
 17 16  1  0
 17 18  1  0
 19 18  1  6
 20 10  1  0
 20 19  1  0
 21 23  1  0
 21 19  1  0
 22 21  2  0
 24 25  1  1
 24 23  1  0
 25 26  1  0
 26 27  1  0
 27 28  1  0
 28 29  1  0
 30 24  1  0
 30 31  1  0
 32 30  2  0
M  END
$$$$
