RRK.pdb
     RDKit          3D

 32 31  0  0  1  0  0  0  0  0999 V2000
   17.3537  -19.9220   10.5357 N   0  0  0  0  0  0  0  0  0  0  0  0
   18.2260  -18.8833   10.1116 C   0  0  0  0  0  0  0  0  0  0  0  0
   18.3199  -18.5803    8.8647 N   0  0  0  0  0  0  0  0  0  0  0  0
   19.0247  -18.1439   11.0288 N   0  0  0  0  0  0  0  0  0  0  0  0
   18.9080  -18.2744   12.4496 C   0  0  0  0  0  0  0  0  0  0  0  0
   17.5033  -18.0134   12.9449 C   0  0  0  0  0  0  0  0  0  0  0  0
   17.4143  -18.1619   14.4673 C   0  0  0  0  0  0  0  0  0  0  0  0
   16.1278  -17.4349   14.8497 C   0  0  2  0  0  0  0  0  0  0  0  0
   16.1299  -16.1760   14.1302 N   0  0  0  0  0  0  0  0  0  0  0  0
   16.0219  -17.2204   16.3157 C   0  0  0  0  0  0  0  0  0  0  0  0
   16.8490  -16.4429   16.8346 O   0  0  0  0  0  0  0  0  0  0  0  0
   18.9055  -17.8327    8.4853 N   0  0  0  0  0  0  0  0  0  0  0  0
   12.7509  -22.5277   20.3748 C   0  0  0  0  0  0  0  0  0  0  0  0
   11.7849  -22.5877   19.3405 N   0  0  0  0  0  0  0  0  0  0  0  0
   11.2918  -23.7596   19.0213 N   0  0  0  0  0  0  0  0  0  0  0  0
   11.3582  -21.4252   18.6732 C   0  0  0  0  0  0  0  0  0  0  0  0
   11.8124  -20.1346   19.0267 C   0  0  0  0  0  0  0  0  0  0  0  0
   13.1984  -19.7480   18.5866 C   0  0  0  0  0  0  0  0  0  0  0  0
   13.4995  -18.3382   18.9911 C   0  0  1  0  0  0  0  0  0  0  0  0
   14.8474  -17.8324   18.4913 N   0  0  0  0  0  0  0  0  0  0  0  0
   15.0493  -17.8502   17.0949 C   0  0  0  0  0  0  0  0  0  0  0  0
   15.8994  -18.3326   19.3601 O   0  0  0  0  0  0  0  0  0  0  0  0
   16.4882  -19.3974   18.9948 N   0  0  0  0  0  0  0  0  0  0  0  0
   10.5362  -23.8335   18.3207 C   0  0  2  0  0  0  0  0  0  0  0  0
   16.3313  -17.7536   20.5687 C   0  0  0  0  0  0  0  0  0  0  0  0
   17.4569  -18.1386   21.3536 C   0  0  0  0  0  0  0  0  0  0  0  0
   18.7347  -17.3986   21.0139 C   0  0  0  0  0  0  0  0  0  0  0  0
   19.9419  -18.0478   21.6301 C   0  0  0  0  0  0  0  0  0  0  0  0
   21.1729  -17.3067   21.1732 N   0  0  0  0  0  0  0  0  0  0  0  0
   22.4556  -17.8788   21.7199 C   0  0  0  0  0  0  0  0  0  0  0  0
   23.5816  -17.0961   21.2163 O   0  0  0  0  0  0  0  0  0  0  0  0
   17.2426  -17.9369   22.8128 O   0  0  0  0  0  0  0  0  0  0  0  0
  2  3  2  0
  2  1  1  0
  4  2  1  0
  5  4  1  0
  6  7  1  0
  6  5  1  0
  8 10  1  0
  8  7  1  0
  8  9  1  6
 10 11  2  0
 13 15  1  0
 13 12  1  0
 14 13  2  0
 16 15  1  0
 17 16  1  0
 17 18  1  0
 19 18  1  6
 20 10  1  0
 20 19  1  0
 21 23  1  0
 21 19  1  0
 22 21  2  0
 24 25  1  6
 24 23  1  0
 25 26  1  0
 26 27  1  0
 27 28  1  0
 28 29  1  0
 30 24  1  0
 30 31  1  0
 32 30  2  0
M  END
$$$$
