RRK.pdb
     RDKit          3D

 32 31  0  0  1  0  0  0  0  0999 V2000
    9.7129  -22.1186   15.6416 N   0  0  0  0  0  0  0  0  0  0  0  0
    8.6745  -21.2913   16.1483 C   0  0  0  0  0  0  0  0  0  0  0  0
    8.7185  -20.0161   15.9827 N   0  0  0  0  0  0  0  0  0  0  0  0
    7.5579  -21.8236   16.8523 N   0  0  0  0  0  0  0  0  0  0  0  0
    7.6834  -22.7833   17.9071 C   0  0  0  0  0  0  0  0  0  0  0  0
    7.7000  -22.1437   19.2773 C   0  0  0  0  0  0  0  0  0  0  0  0
    8.9833  -22.4929   20.0381 C   0  0  0  0  0  0  0  0  0  0  0  0
    8.8849  -21.7030   21.3405 C   0  0  2  0  0  0  0  0  0  0  0  0
    7.4723  -21.5242   21.6147 N   0  0  0  0  0  0  0  0  0  0  0  0
    9.5896  -20.3981   21.2570 C   0  0  0  0  0  0  0  0  0  0  0  0
   10.8069  -20.4293   20.9827 O   0  0  0  0  0  0  0  0  0  0  0  0
    8.0372  -19.3521   16.3577 N   0  0  0  0  0  0  0  0  0  0  0  0
    7.5939  -13.7537   16.5466 C   0  0  0  0  0  0  0  0  0  0  0  0
    7.6158  -13.4949   17.9392 N   0  0  0  0  0  0  0  0  0  0  0  0
    6.7995  -12.5849   18.4125 N   0  0  0  0  0  0  0  0  0  0  0  0
    8.4835  -14.1946   18.7972 C   0  0  0  0  0  0  0  0  0  0  0  0
    8.1345  -14.5292   20.1251 C   0  0  0  0  0  0  0  0  0  0  0  0
    9.0776  -15.4267   20.8794 C   0  0  0  0  0  0  0  0  0  0  0  0
    8.4413  -16.7587   21.1298 C   0  0  2  0  0  0  0  0  0  0  0  0
    9.4401  -17.8632   21.4541 N   0  0  0  0  0  0  0  0  0  0  0  0
    8.9384  -19.1819   21.4722 C   0  0  0  0  0  0  0  0  0  0  0  0
   10.3046  -17.4250   22.5369 O   0  0  0  0  0  0  0  0  0  0  0  0
    9.7536  -17.2125   23.6617 N   0  0  0  0  0  0  0  0  0  0  0  0
    6.7451  -12.4124   19.4296 C   0  0  2  0  0  0  0  0  0  0  0  0
   11.6944  -17.2120   22.4631 C   0  0  0  0  0  0  0  0  0  0  0  0
   12.5881  -16.9773   23.5482 C   0  0  0  0  0  0  0  0  0  0  0  0
   12.8801  -18.2030   24.3898 C   0  0  0  0  0  0  0  0  0  0  0  0
   13.8243  -17.8986   25.5187 C   0  0  0  0  0  0  0  0  0  0  0  0
   13.9414  -19.1223   26.3916 N   0  0  0  0  0  0  0  0  0  0  0  0
   14.8141  -18.9147   27.6027 C   0  0  0  0  0  0  0  0  0  0  0  0
   14.9130  -20.1706   28.3423 O   0  0  0  0  0  0  0  0  0  0  0  0
   13.9118  -16.4585   23.1074 O   0  0  0  0  0  0  0  0  0  0  0  0
  2  3  2  0
  2  1  1  0
  4  2  1  0
  5  4  1  0
  6  7  1  0
  6  5  1  0
  8 10  1  0
  8  7  1  0
  8  9  1  6
 10 11  2  0
 13 15  1  0
 13 12  1  0
 14 13  2  0
 16 15  1  0
 17 16  1  0
 17 18  1  0
 19 18  1  6
 20 10  1  0
 20 19  1  0
 21 23  1  0
 21 19  1  0
 22 21  2  0
 24 25  1  1
 24 23  1  0
 25 26  1  0
 26 27  1  0
 27 28  1  0
 28 29  1  0
 30 24  1  0
 30 31  1  0
 32 30  2  0
M  END
$$$$
