RRK.pdb
     RDKit          3D

 32 31  0  0  1  0  0  0  0  0999 V2000
    8.6138  -13.0919   16.8120 N   0  0  0  0  0  0  0  0  0  0  0  0
    8.0592  -12.7599   18.0776 C   0  0  0  0  0  0  0  0  0  0  0  0
    8.5665  -11.8101   18.7819 N   0  0  0  0  0  0  0  0  0  0  0  0
    6.9383  -13.4510   18.6177 N   0  0  0  0  0  0  0  0  0  0  0  0
    6.4201  -14.6611   18.0553 C   0  0  0  0  0  0  0  0  0  0  0  0
    7.4029  -15.8077   18.1345 C   0  0  0  0  0  0  0  0  0  0  0  0
    7.2046  -16.6220   19.4171 C   0  0  0  0  0  0  0  0  0  0  0  0
    8.5904  -17.1747   19.7395 C   0  0  2  0  0  0  0  0  0  0  0  0
    8.4216  -18.5871   20.0207 N   0  0  0  0  0  0  0  0  0  0  0  0
    9.2220  -16.4669   20.8825 C   0  0  0  0  0  0  0  0  0  0  0  0
    9.7243  -15.3487   20.6473 O   0  0  0  0  0  0  0  0  0  0  0  0
    8.2332  -11.5220   19.7048 N   0  0  0  0  0  0  0  0  0  0  0  0
   11.0031  -16.1789   28.5978 C   0  0  0  0  0  0  0  0  0  0  0  0
   10.3105  -14.9462   28.5119 N   0  0  0  0  0  0  0  0  0  0  0  0
   10.6481  -13.9876   29.3398 N   0  0  0  0  0  0  0  0  0  0  0  0
    9.2909  -14.7474   27.5635 C   0  0  0  0  0  0  0  0  0  0  0  0
    9.4470  -15.0760   26.1979 C   0  0  0  0  0  0  0  0  0  0  0  0
    9.9543  -16.4553   25.8753 C   0  0  0  0  0  0  0  0  0  0  0  0
    9.2586  -16.9968   24.6652 C   0  0  1  0  0  0  0  0  0  0  0  0
    9.8572  -16.5166   23.3485 N   0  0  0  0  0  0  0  0  0  0  0  0
    9.2624  -17.0104   22.1680 C   0  0  0  0  0  0  0  0  0  0  0  0
   11.3064  -16.5088   23.4554 O   0  0  0  0  0  0  0  0  0  0  0  0
   11.8075  -15.8540   24.4218 N   0  0  0  0  0  0  0  0  0  0  0  0
   10.1662  -13.0745   29.3037 C   0  0  2  0  0  0  0  0  0  0  0  0
   12.2118  -17.1556   22.5926 C   0  0  0  0  0  0  0  0  0  0  0  0
   13.6350  -17.1376   22.6679 C   0  0  0  0  0  0  0  0  0  0  0  0
   14.2827  -15.9858   21.9266 C   0  0  0  0  0  0  0  0  0  0  0  0
   13.9453  -15.9983   20.4622 C   0  0  0  0  0  0  0  0  0  0  0  0
   14.5952  -14.8053   19.8083 N   0  0  0  0  0  0  0  0  0  0  0  0
   14.2473  -14.6565   18.3494 C   0  0  0  0  0  0  0  0  0  0  0  0
   14.8976  -13.4595   17.8219 O   0  0  0  0  0  0  0  0  0  0  0  0
   14.1406  -17.0608   24.0658 O   0  0  0  0  0  0  0  0  0  0  0  0
  2  3  2  0
  2  1  1  0
  4  2  1  0
  5  4  1  0
  6  7  1  0
  6  5  1  0
  8 10  1  0
  8  7  1  0
  8  9  1  1
 10 11  2  0
 13 15  1  0
 13 12  1  0
 14 13  2  0
 16 15  1  0
 17 16  1  0
 17 18  1  0
 19 18  1  6
 20 10  1  0
 20 19  1  0
 21 23  1  0
 21 19  1  0
 22 21  2  0
 24 25  1  1
 24 23  1  0
 25 26  1  0
 26 27  1  0
 27 28  1  0
 28 29  1  0
 30 24  1  0
 30 31  1  0
 32 30  2  0
M  END
$$$$
