RRK.pdb
     RDKit          3D

 32 31  0  0  1  0  0  0  0  0999 V2000
    7.3896  -17.9732   15.0503 N   0  0  0  0  0  0  0  0  0  0  0  0
    7.9995  -17.7236   13.7912 C   0  0  0  0  0  0  0  0  0  0  0  0
    8.5127  -18.6894   13.1134 N   0  0  0  0  0  0  0  0  0  0  0  0
    8.0728  -16.4172   13.2312 N   0  0  0  0  0  0  0  0  0  0  0  0
    7.9660  -15.2234   14.0140 C   0  0  0  0  0  0  0  0  0  0  0  0
    7.5844  -15.5014   15.4507 C   0  0  0  0  0  0  0  0  0  0  0  0
    8.7108  -15.1065   16.4112 C   0  0  0  0  0  0  0  0  0  0  0  0
    8.0058  -14.3747   17.5502 C   0  0  2  0  0  0  0  0  0  0  0  0
    7.7557  -13.0237   17.0869 N   0  0  0  0  0  0  0  0  0  0  0  0
    8.8097  -14.3787   18.7992 C   0  0  0  0  0  0  0  0  0  0  0  0
    9.6023  -13.4288   18.9645 O   0  0  0  0  0  0  0  0  0  0  0  0
    8.9235  -18.5984   12.1814 N   0  0  0  0  0  0  0  0  0  0  0  0
    8.0361  -13.3581   26.6033 C   0  0  0  0  0  0  0  0  0  0  0  0
    8.7622  -14.5617   26.7788 N   0  0  0  0  0  0  0  0  0  0  0  0
    9.6858  -14.5975   27.7083 N   0  0  0  0  0  0  0  0  0  0  0  0
    8.5013  -15.6929   25.9843 C   0  0  0  0  0  0  0  0  0  0  0  0
    8.0069  -15.5980   24.6639 C   0  0  0  0  0  0  0  0  0  0  0  0
    9.0188  -15.5608   23.5509 C   0  0  0  0  0  0  0  0  0  0  0  0
    8.3321  -15.4407   22.2258 C   0  0  2  0  0  0  0  0  0  0  0  0
    9.2824  -15.5013   21.0360 N   0  0  0  0  0  0  0  0  0  0  0  0
    8.6987  -15.3893   19.7563 C   0  0  0  0  0  0  0  0  0  0  0  0
   10.2752  -16.5369   21.2676 O   0  0  0  0  0  0  0  0  0  0  0  0
    9.9021  -17.7390   21.0954 N   0  0  0  0  0  0  0  0  0  0  0  0
   10.2155  -15.4670   27.8830 C   0  0  2  0  0  0  0  0  0  0  0  0
   11.6116  -16.3401   21.6649 C   0  0  0  0  0  0  0  0  0  0  0  0
   12.6119  -17.3390   21.8455 C   0  0  0  0  0  0  0  0  0  0  0  0
   14.0176  -16.7927   21.9912 C   0  0  0  0  0  0  0  0  0  0  0  0
   15.0505  -17.8840   21.9703 C   0  0  0  0  0  0  0  0  0  0  0  0
   16.4135  -17.2601   22.1328 N   0  0  0  0  0  0  0  0  0  0  0  0
   17.5463  -18.2395   21.9633 C   0  0  0  0  0  0  0  0  0  0  0  0
   18.8145  -17.5457   22.1740 O   0  0  0  0  0  0  0  0  0  0  0  0
   12.3753  -18.1860   23.0465 O   0  0  0  0  0  0  0  0  0  0  0  0
  2  3  2  0
  2  1  1  0
  4  2  1  0
  5  4  1  0
  6  7  1  0
  6  5  1  0
  8 10  1  0
  8  7  1  0
  8  9  1  6
 10 11  2  0
 13 15  1  0
 13 12  1  0
 14 13  2  0
 16 15  1  0
 17 16  1  0
 17 18  1  0
 19 18  1  1
 20 10  1  0
 20 19  1  0
 21 23  1  0
 21 19  1  0
 22 21  2  0
 24 25  1  1
 24 23  1  0
 25 26  1  0
 26 27  1  0
 27 28  1  0
 28 29  1  0
 30 24  1  0
 30 31  1  0
 32 30  2  0
M  END
$$$$
