MVF.pdb
     RDKit          3D

 27 27  0  0  1  0  0  0  0  0999 V2000
    7.3585  -19.1542   27.8995 C   0  0  0  0  0  0  0  0  0  0  0  0
    6.6483  -20.6640   27.2681 S   0  0  0  0  0  0  0  0  0  0  0  0
    6.3770  -20.6109   25.5089 C   0  0  0  0  0  0  0  0  0  0  0  0
    6.4736  -19.2530   24.8745 C   0  0  0  0  0  0  0  0  0  0  0  0
    6.2678  -19.2217   23.3925 C   0  0  2  0  0  0  0  0  0  0  0  0
    6.3841  -20.5711   22.8620 N   0  0  0  0  0  0  0  0  0  0  0  0
    7.3588  -18.3719   22.7963 C   0  0  0  0  0  0  0  0  0  0  0  0
    8.4305  -18.9200   22.5248 O   0  0  0  0  0  0  0  0  0  0  0  0
    6.8643  -13.8343   22.2734 C   0  0  0  0  0  0  0  0  0  0  0  0
    7.3708  -14.9629   21.4074 C   0  0  2  0  0  0  0  0  0  0  0  0
    6.3299  -15.3741   20.3821 C   0  0  0  0  0  0  0  0  0  0  0  0
    8.0930  -16.0471   22.0705 C   0  0  2  0  0  0  0  0  0  0  0  0
    7.1265  -17.0042   22.5707 N   0  0  0  0  0  0  0  0  0  0  0  0
    9.0965  -15.7784   23.0863 C   0  0  0  0  0  0  0  0  0  0  0  0
   10.2359  -15.3533   22.6726 O   0  0  0  0  0  0  0  0  0  0  0  0
    8.9693  -15.9266   24.4708 N   0  0  0  0  0  0  0  0  0  0  0  0
   10.0998  -15.6527   25.3689 C   0  0  1  0  0  0  0  0  0  0  0  0
   10.2618  -14.1845   25.5618 C   0  0  0  0  0  0  0  0  0  0  0  0
    9.0182  -13.5711   26.0447 C   0  0  0  0  0  0  0  0  0  0  0  0
    8.8682  -13.1125   27.3340 C   0  0  0  0  0  0  0  0  0  0  0  0
    7.6955  -12.5267   27.7898 C   0  0  0  0  0  0  0  0  0  0  0  0
    6.6227  -12.3902   26.9268 C   0  0  0  0  0  0  0  0  0  0  0  0
    6.7364  -12.8365   25.6338 C   0  0  0  0  0  0  0  0  0  0  0  0
    7.9100  -13.4139   25.2053 C   0  0  0  0  0  0  0  0  0  0  0  0
    9.8723  -16.3201   26.6614 C   0  0  0  0  0  0  0  0  0  0  0  0
   10.8491  -16.2392   27.6394 O   0  0  0  0  0  0  0  0  0  0  0  0
    8.8341  -16.9517   26.9010 O   0  0  0  0  0  0  0  0  0  0  0  0
  2  3  1  0
  2  1  1  0
  4  3  1  0
  4  5  1  0
  5  6  1  6
  7  5  1  0
  7  8  2  0
 10  9  1  1
 11 10  1  0
 12 10  1  0
 12 13  1  1
 13  7  1  0
 14 12  1  0
 15 14  2  0
 16 14  1  0
 17 18  1  1
 17 16  1  0
 18 19  1  0
 19 24  2  0
 20 21  2  0
 20 19  1  0
 21 22  1  0
 22 23  2  0
 24 23  1  0
 25 26  1  0
 25 17  1  0
 27 25  2  0
M  END
$$$$
