MVF.pdb
     RDKit          3D

 27 27  0  0  1  0  0  0  0  0999 V2000
   14.4819  -19.0317   21.8859 C   0  0  0  0  0  0  0  0  0  0  0  0
   14.1088  -19.6502   20.2548 S   0  0  0  0  0  0  0  0  0  0  0  0
   12.5935  -18.9834   19.5986 C   0  0  0  0  0  0  0  0  0  0  0  0
   12.2642  -17.5787   20.0156 C   0  0  0  0  0  0  0  0  0  0  0  0
   10.9467  -17.0587   19.5325 C   0  0  2  0  0  0  0  0  0  0  0  0
   11.1206  -16.4499   18.2229 N   0  0  0  0  0  0  0  0  0  0  0  0
   10.4887  -16.0003   20.5010 C   0  0  0  0  0  0  0  0  0  0  0  0
   11.2967  -15.1230   20.8176 O   0  0  0  0  0  0  0  0  0  0  0  0
    6.2348  -15.3433   21.0054 C   0  0  0  0  0  0  0  0  0  0  0  0
    7.4365  -14.4699   21.2760 C   0  0  2  0  0  0  0  0  0  0  0  0
    7.7370  -13.5714   20.0902 C   0  0  0  0  0  0  0  0  0  0  0  0
    8.5876  -15.0930   21.9268 C   0  0  2  0  0  0  0  0  0  0  0  0
    9.1775  -16.0433   21.0053 N   0  0  0  0  0  0  0  0  0  0  0  0
    8.4810  -15.6851   23.2493 C   0  0  0  0  0  0  0  0  0  0  0  0
    8.7669  -16.9337   23.3465 O   0  0  0  0  0  0  0  0  0  0  0  0
    8.1032  -15.0539   24.4384 N   0  0  0  0  0  0  0  0  0  0  0  0
    8.0167  -15.8033   25.6995 C   0  0  1  0  0  0  0  0  0  0  0  0
    7.6927  -14.8834   26.8255 C   0  0  0  0  0  0  0  0  0  0  0  0
    8.8608  -14.6671   27.6884 C   0  0  0  0  0  0  0  0  0  0  0  0
    9.3460  -13.4124   27.9807 C   0  0  0  0  0  0  0  0  0  0  0  0
   10.4462  -13.2063   28.8013 C   0  0  0  0  0  0  0  0  0  0  0  0
   11.0944  -14.2951   29.3569 C   0  0  0  0  0  0  0  0  0  0  0  0
   10.6383  -15.5612   29.0871 C   0  0  0  0  0  0  0  0  0  0  0  0
    9.5451  -15.7398   28.2702 C   0  0  0  0  0  0  0  0  0  0  0  0
    6.9894  -16.8508   25.5781 C   0  0  0  0  0  0  0  0  0  0  0  0
    7.1007  -17.9928   26.3532 O   0  0  0  0  0  0  0  0  0  0  0  0
    6.0285  -16.7423   24.8041 O   0  0  0  0  0  0  0  0  0  0  0  0
  2  3  1  0
  2  1  1  0
  4  3  1  0
  4  5  1  0
  5  6  1  6
  7  5  1  0
  7  8  2  0
 10  9  1  6
 11 10  1  0
 12 10  1  0
 12 13  1  6
 13  7  1  0
 14 12  1  0
 15 14  2  0
 16 14  1  0
 17 18  1  1
 17 16  1  0
 18 19  1  0
 19 24  2  0
 20 21  2  0
 20 19  1  0
 21 22  1  0
 22 23  2  0
 24 23  1  0
 25 26  1  0
 25 17  1  0
 27 25  2  0
M  END
$$$$
