MVF.pdb
     RDKit          3D

 27 27  0  0  1  0  0  0  0  0999 V2000
    6.5390  -11.6958   19.8902 C   0  0  0  0  0  0  0  0  0  0  0  0
    7.9159  -12.4696   19.0607 S   0  0  0  0  0  0  0  0  0  0  0  0
    8.7726  -13.6371   20.0972 C   0  0  0  0  0  0  0  0  0  0  0  0
    7.9130  -14.4173   21.0500 C   0  0  0  0  0  0  0  0  0  0  0  0
    7.9608  -15.9041   20.8863 C   0  0  2  0  0  0  0  0  0  0  0  0
    6.7775  -16.3471   20.1657 N   0  0  0  0  0  0  0  0  0  0  0  0
    7.9474  -16.5172   22.2618 C   0  0  0  0  0  0  0  0  0  0  0  0
    6.9547  -16.3218   22.9683 O   0  0  0  0  0  0  0  0  0  0  0  0
    9.2623  -20.2099   22.7838 C   0  0  0  0  0  0  0  0  0  0  0  0
    9.8747  -19.2233   23.7491 C   0  0  2  0  0  0  0  0  0  0  0  0
   10.3939  -19.9246   24.9910 C   0  0  0  0  0  0  0  0  0  0  0  0
    9.1650  -17.9635   23.9635 C   0  0  2  0  0  0  0  0  0  0  0  0
    9.0468  -17.2805   22.6908 N   0  0  0  0  0  0  0  0  0  0  0  0
    9.5805  -17.0260   24.9929 C   0  0  0  0  0  0  0  0  0  0  0  0
   10.6214  -16.3170   24.7405 O   0  0  0  0  0  0  0  0  0  0  0  0
    8.9777  -16.8001   26.2341 N   0  0  0  0  0  0  0  0  0  0  0  0
    9.6462  -15.9948   27.2656 C   0  0  1  0  0  0  0  0  0  0  0  0
    8.6883  -15.0233   27.8636 C   0  0  0  0  0  0  0  0  0  0  0  0
    8.3107  -13.9850   26.8965 C   0  0  0  0  0  0  0  0  0  0  0  0
    9.0590  -12.8464   26.6994 C   0  0  0  0  0  0  0  0  0  0  0  0
    8.7066  -11.8672   25.7811 C   0  0  0  0  0  0  0  0  0  0  0  0
    7.5592  -12.0252   25.0242 C   0  0  0  0  0  0  0  0  0  0  0  0
    6.7884  -13.1481   25.1943 C   0  0  0  0  0  0  0  0  0  0  0  0
    7.1590  -14.1052   26.1113 C   0  0  0  0  0  0  0  0  0  0  0  0
   10.1939  -16.8837   28.3035 C   0  0  0  0  0  0  0  0  0  0  0  0
    9.9213  -18.2396   28.2378 O   0  0  0  0  0  0  0  0  0  0  0  0
   10.8910  -16.4562   29.2339 O   0  0  0  0  0  0  0  0  0  0  0  0
  2  3  1  0
  2  1  1  0
  4  3  1  0
  4  5  1  0
  5  6  1  6
  7  5  1  0
  7  8  2  0
 10  9  1  1
 11 10  1  0
 12 10  1  0
 12 13  1  6
 13  7  1  0
 14 12  1  0
 15 14  2  0
 16 14  1  0
 17 18  1  1
 17 16  1  0
 18 19  1  0
 19 24  2  0
 20 21  2  0
 20 19  1  0
 21 22  1  0
 22 23  2  0
 24 23  1  0
 25 26  1  0
 25 17  1  0
 27 25  2  0
M  END
$$$$
