MVF.pdb
     RDKit          3D

 27 27  0  0  1  0  0  0  0  0999 V2000
    7.1318  -22.5980   20.8503 C   0  0  0  0  0  0  0  0  0  0  0  0
    8.1353  -22.3950   19.3894 S   0  0  0  0  0  0  0  0  0  0  0  0
    8.1294  -20.7214   18.7806 C   0  0  0  0  0  0  0  0  0  0  0  0
    8.0678  -19.6465   19.8276 C   0  0  0  0  0  0  0  0  0  0  0  0
    7.9282  -18.2507   19.3059 C   0  0  2  0  0  0  0  0  0  0  0  0
    8.5076  -18.1748   17.9739 N   0  0  0  0  0  0  0  0  0  0  0  0
    8.7016  -17.3396   20.2224 C   0  0  0  0  0  0  0  0  0  0  0  0
    9.8835  -17.1161   19.9470 O   0  0  0  0  0  0  0  0  0  0  0  0
    6.4994  -14.9078   23.2637 C   0  0  0  0  0  0  0  0  0  0  0  0
    7.7276  -14.7003   22.4100 C   0  0  2  0  0  0  0  0  0  0  0  0
    7.3880  -13.9431   21.1392 C   0  0  0  0  0  0  0  0  0  0  0  0
    8.6460  -15.8286   22.2679 C   0  0  2  0  0  0  0  0  0  0  0  0
    8.0640  -16.7810   21.3435 N   0  0  0  0  0  0  0  0  0  0  0  0
    9.1764  -16.5241   23.4282 C   0  0  0  0  0  0  0  0  0  0  0  0
    8.7524  -17.7202   23.6268 O   0  0  0  0  0  0  0  0  0  0  0  0
   10.1013  -16.0445   24.3607 N   0  0  0  0  0  0  0  0  0  0  0  0
   10.6144  -16.9092   25.4324 C   0  0  1  0  0  0  0  0  0  0  0  0
   11.5399  -16.1446   26.3142 C   0  0  0  0  0  0  0  0  0  0  0  0
   10.8075  -15.1813   27.1458 C   0  0  0  0  0  0  0  0  0  0  0  0
   10.7212  -15.2968   28.5149 C   0  0  0  0  0  0  0  0  0  0  0  0
   10.0347  -14.3834   29.3027 C   0  0  0  0  0  0  0  0  0  0  0  0
    9.4049  -13.3065   28.7044 C   0  0  0  0  0  0  0  0  0  0  0  0
    9.4699  -13.1595   27.3413 C   0  0  0  0  0  0  0  0  0  0  0  0
   10.1571  -14.0787   26.5815 C   0  0  0  0  0  0  0  0  0  0  0  0
    9.4866  -17.4464   26.2115 C   0  0  0  0  0  0  0  0  0  0  0  0
    9.7133  -18.4991   27.0818 O   0  0  0  0  0  0  0  0  0  0  0  0
    8.3410  -16.9856   26.1127 O   0  0  0  0  0  0  0  0  0  0  0  0
  2  3  1  0
  2  1  1  0
  4  3  1  0
  4  5  1  0
  5  6  1  6
  7  5  1  0
  7  8  2  0
 10  9  1  6
 11 10  1  0
 12 10  1  0
 12 13  1  6
 13  7  1  0
 14 12  1  0
 15 14  2  0
 16 14  1  0
 17 18  1  1
 17 16  1  0
 18 19  1  0
 19 24  2  0
 20 21  2  0
 20 19  1  0
 21 22  1  0
 22 23  2  0
 24 23  1  0
 25 26  1  0
 25 17  1  0
 27 25  2  0
M  END
$$$$
