MVF.pdb
     RDKit          3D

 27 27  0  0  1  0  0  0  0  0999 V2000
    9.2578  -12.8599   19.7603 C   0  0  0  0  0  0  0  0  0  0  0  0
    7.8006  -13.1276   18.7667 S   0  0  0  0  0  0  0  0  0  0  0  0
    6.9957  -14.6735   19.1324 C   0  0  0  0  0  0  0  0  0  0  0  0
    7.9075  -15.8318   19.4198 C   0  0  0  0  0  0  0  0  0  0  0  0
    7.2229  -17.1091   19.7937 C   0  0  2  0  0  0  0  0  0  0  0  0
    6.0175  -17.2610   18.9938 N   0  0  0  0  0  0  0  0  0  0  0  0
    6.8315  -17.0114   21.2446 C   0  0  0  0  0  0  0  0  0  0  0  0
    5.8718  -16.2916   21.5336 O   0  0  0  0  0  0  0  0  0  0  0  0
    6.8039  -19.3251   25.5334 C   0  0  0  0  0  0  0  0  0  0  0  0
    6.8954  -19.0522   24.0510 C   0  0  2  0  0  0  0  0  0  0  0  0
    7.5301  -20.2204   23.3187 C   0  0  0  0  0  0  0  0  0  0  0  0
    7.3240  -17.7170   23.6384 C   0  0  2  0  0  0  0  0  0  0  0  0
    7.5585  -17.7313   22.2083 N   0  0  0  0  0  0  0  0  0  0  0  0
    8.4116  -17.0288   24.3125 C   0  0  0  0  0  0  0  0  0  0  0  0
    9.5744  -17.1227   23.7747 O   0  0  0  0  0  0  0  0  0  0  0  0
    8.3438  -16.2694   25.4846 N   0  0  0  0  0  0  0  0  0  0  0  0
    9.5511  -15.6693   26.0693 C   0  0  1  0  0  0  0  0  0  0  0  0
    9.5365  -14.1918   25.8808 C   0  0  0  0  0  0  0  0  0  0  0  0
    8.3124  -13.5974   26.4325 C   0  0  0  0  0  0  0  0  0  0  0  0
    8.2751  -12.9826   27.6637 C   0  0  0  0  0  0  0  0  0  0  0  0
    7.1203  -12.4148   28.1835 C   0  0  0  0  0  0  0  0  0  0  0  0
    5.9492  -12.4594   27.4480 C   0  0  0  0  0  0  0  0  0  0  0  0
    5.9493  -13.0646   26.2161 C   0  0  0  0  0  0  0  0  0  0  0  0
    7.1074  -13.6205   25.7221 C   0  0  0  0  0  0  0  0  0  0  0  0
    9.6217  -16.0053   27.5010 C   0  0  0  0  0  0  0  0  0  0  0  0
    8.6387  -16.8108   28.0505 O   0  0  0  0  0  0  0  0  0  0  0  0
   10.5334  -15.5897   28.2293 O   0  0  0  0  0  0  0  0  0  0  0  0
  2  3  1  0
  2  1  1  0
  4  3  1  0
  4  5  1  0
  5  6  1  6
  7  5  1  0
  7  8  2  0
 10  9  1  1
 11 10  1  0
 12 10  1  0
 12 13  1  6
 13  7  1  0
 14 12  1  0
 15 14  2  0
 16 14  1  0
 17 18  1  1
 17 16  1  0
 18 19  1  0
 19 24  2  0
 20 21  2  0
 20 19  1  0
 21 22  1  0
 22 23  2  0
 24 23  1  0
 25 26  1  0
 25 17  1  0
 27 25  2  0
M  END
$$$$
