MVF.pdb
     RDKit          3D

 27 27  0  0  1  0  0  0  0  0999 V2000
    7.8100  -19.1878   27.9473 C   0  0  0  0  0  0  0  0  0  0  0  0
    6.8096  -20.5788   27.4508 S   0  0  0  0  0  0  0  0  0  0  0  0
    6.2408  -20.4486   25.7682 C   0  0  0  0  0  0  0  0  0  0  0  0
    6.9219  -19.4065   24.9281 C   0  0  0  0  0  0  0  0  0  0  0  0
    6.3890  -19.2552   23.5378 C   0  0  2  0  0  0  0  0  0  0  0  0
    6.4831  -20.5307   22.8450 N   0  0  0  0  0  0  0  0  0  0  0  0
    7.2540  -18.2512   22.8223 C   0  0  0  0  0  0  0  0  0  0  0  0
    8.2252  -18.6763   22.1907 O   0  0  0  0  0  0  0  0  0  0  0  0
    6.0792  -15.0909   20.7896 C   0  0  0  0  0  0  0  0  0  0  0  0
    6.9807  -14.7227   21.9437 C   0  0  2  0  0  0  0  0  0  0  0  0
    7.6741  -13.3959   21.6934 C   0  0  0  0  0  0  0  0  0  0  0  0
    7.8014  -15.7855   22.5215 C   0  0  2  0  0  0  0  0  0  0  0  0
    6.9336  -16.8847   22.8942 N   0  0  0  0  0  0  0  0  0  0  0  0
    8.7470  -15.5153   23.5910 C   0  0  0  0  0  0  0  0  0  0  0  0
    9.8019  -14.8542   23.2744 O   0  0  0  0  0  0  0  0  0  0  0  0
    8.6452  -15.8902   24.9342 N   0  0  0  0  0  0  0  0  0  0  0  0
    9.6437  -15.4540   25.9202 C   0  0  1  0  0  0  0  0  0  0  0  0
    8.9696  -14.9450   27.1472 C   0  0  0  0  0  0  0  0  0  0  0  0
    8.1036  -13.7993   26.8417 C   0  0  0  0  0  0  0  0  0  0  0  0
    6.7580  -13.9334   26.5839 C   0  0  0  0  0  0  0  0  0  0  0  0
    5.9371  -12.8506   26.3014 C   0  0  0  0  0  0  0  0  0  0  0  0
    6.4763  -11.5767   26.2731 C   0  0  0  0  0  0  0  0  0  0  0  0
    7.8146  -11.4052   26.5252 C   0  0  0  0  0  0  0  0  0  0  0  0
    8.6081  -12.4949   26.8031 C   0  0  0  0  0  0  0  0  0  0  0  0
   10.5320  -16.5808   26.2502 C   0  0  0  0  0  0  0  0  0  0  0  0
   11.5763  -16.3749   27.1356 O   0  0  0  0  0  0  0  0  0  0  0  0
   10.3739  -17.7074   25.7602 O   0  0  0  0  0  0  0  0  0  0  0  0
  2  3  1  0
  2  1  1  0
  4  3  1  0
  4  5  1  0
  5  6  1  6
  7  5  1  0
  7  8  2  0
 10  9  1  6
 11 10  1  0
 12 10  1  0
 12 13  1  1
 13  7  1  0
 14 12  1  0
 15 14  2  0
 16 14  1  0
 17 18  1  1
 17 16  1  0
 18 19  1  0
 19 24  2  0
 20 21  2  0
 20 19  1  0
 21 22  1  0
 22 23  2  0
 24 23  1  0
 25 26  1  0
 25 17  1  0
 27 25  2  0
M  END
$$$$
