MVF.pdb
     RDKit          3D

 27 27  0  0  1  0  0  0  0  0999 V2000
    8.6037  -11.5665   21.2023 C   0  0  0  0  0  0  0  0  0  0  0  0
    7.5898  -12.3179   19.9415 S   0  0  0  0  0  0  0  0  0  0  0  0
    7.9843  -14.0342   19.6770 C   0  0  0  0  0  0  0  0  0  0  0  0
    8.1022  -14.8751   20.9158 C   0  0  0  0  0  0  0  0  0  0  0  0
    8.5448  -16.2871   20.6924 C   0  0  2  0  0  0  0  0  0  0  0  0
    7.5979  -16.9547   19.8129 N   0  0  0  0  0  0  0  0  0  0  0  0
    8.5404  -16.9852   22.0269 C   0  0  0  0  0  0  0  0  0  0  0  0
    7.5013  -17.5522   22.3753 O   0  0  0  0  0  0  0  0  0  0  0  0
   12.2026  -18.5358   23.3760 C   0  0  0  0  0  0  0  0  0  0  0  0
   10.7791  -18.8419   23.7759 C   0  0  2  0  0  0  0  0  0  0  0  0
   10.1982  -19.9528   22.9204 C   0  0  0  0  0  0  0  0  0  0  0  0
    9.8995  -17.7074   24.0521 C   0  0  2  0  0  0  0  0  0  0  0  0
    9.7004  -16.9702   22.8204 N   0  0  0  0  0  0  0  0  0  0  0  0
   10.1709  -16.7868   25.1429 C   0  0  0  0  0  0  0  0  0  0  0  0
   10.9487  -15.7982   24.8827 O   0  0  0  0  0  0  0  0  0  0  0  0
    9.6822  -16.8474   26.4515 N   0  0  0  0  0  0  0  0  0  0  0  0
   10.2052  -15.9575   27.4975 C   0  0  1  0  0  0  0  0  0  0  0  0
    9.0856  -15.2590   28.1884 C   0  0  0  0  0  0  0  0  0  0  0  0
    8.3894  -14.3408   27.2783 C   0  0  0  0  0  0  0  0  0  0  0  0
    8.8392  -13.0650   27.0233 C   0  0  0  0  0  0  0  0  0  0  0  0
    8.1856  -12.1984   26.1584 C   0  0  0  0  0  0  0  0  0  0  0  0
    7.0330  -12.6170   25.5177 C   0  0  0  0  0  0  0  0  0  0  0  0
    6.5551  -13.8829   25.7483 C   0  0  0  0  0  0  0  0  0  0  0  0
    7.2213  -14.7239   26.6104 C   0  0  0  0  0  0  0  0  0  0  0  0
   10.9946  -16.7432   28.4603 C   0  0  0  0  0  0  0  0  0  0  0  0
   11.7481  -16.0772   29.4120 O   0  0  0  0  0  0  0  0  0  0  0  0
   11.0054  -17.9818   28.4455 O   0  0  0  0  0  0  0  0  0  0  0  0
  2  3  1  0
  2  1  1  0
  4  3  1  0
  4  5  1  0
  5  6  1  6
  7  5  1  0
  7  8  2  0
 10  9  1  6
 11 10  1  0
 12 10  1  0
 12 13  1  6
 13  7  1  0
 14 12  1  0
 15 14  2  0
 16 14  1  0
 17 18  1  1
 17 16  1  0
 18 19  1  0
 19 24  2  0
 20 21  2  0
 20 19  1  0
 21 22  1  0
 22 23  2  0
 24 23  1  0
 25 26  1  0
 25 17  1  0
 27 25  2  0
M  END
$$$$
