MVF.pdb
     RDKit          3D

 27 27  0  0  1  0  0  0  0  0999 V2000
    6.3464  -18.9127   28.1424 C   0  0  0  0  0  0  0  0  0  0  0  0
    7.2190  -20.2777   27.3955 S   0  0  0  0  0  0  0  0  0  0  0  0
    6.8679  -20.4477   25.6579 C   0  0  0  0  0  0  0  0  0  0  0  0
    6.0348  -19.3555   25.0507 C   0  0  0  0  0  0  0  0  0  0  0  0
    5.7544  -19.5012   23.5879 C   0  0  2  0  0  0  0  0  0  0  0  0
    5.9344  -20.8914   23.1996 N   0  0  0  0  0  0  0  0  0  0  0  0
    6.7553  -18.6575   22.8433 C   0  0  0  0  0  0  0  0  0  0  0  0
    7.7668  -19.2152   22.4090 O   0  0  0  0  0  0  0  0  0  0  0  0
    5.8241  -14.4387   21.5687 C   0  0  0  0  0  0  0  0  0  0  0  0
    6.7512  -15.5347   21.1001 C   0  0  2  0  0  0  0  0  0  0  0  0
    6.1356  -16.3187   19.9556 C   0  0  0  0  0  0  0  0  0  0  0  0
    7.4412  -16.3157   22.1252 C   0  0  2  0  0  0  0  0  0  0  0  0
    6.5104  -17.2846   22.6684 N   0  0  0  0  0  0  0  0  0  0  0  0
    8.1727  -15.6721   23.2030 C   0  0  0  0  0  0  0  0  0  0  0  0
    7.4766  -15.2269   24.1865 O   0  0  0  0  0  0  0  0  0  0  0  0
    9.5541  -15.4790   23.2997 N   0  0  0  0  0  0  0  0  0  0  0  0
   10.1793  -15.1061   24.5763 C   0  0  1  0  0  0  0  0  0  0  0  0
    9.2942  -15.4821   25.7139 C   0  0  0  0  0  0  0  0  0  0  0  0
    8.5010  -14.3346   26.1723 C   0  0  0  0  0  0  0  0  0  0  0  0
    7.1838  -14.1526   25.8160 C   0  0  0  0  0  0  0  0  0  0  0  0
    6.4311  -13.0718   26.2537 C   0  0  0  0  0  0  0  0  0  0  0  0
    7.0123  -12.1286   27.0826 C   0  0  0  0  0  0  0  0  0  0  0  0
    8.3240  -12.2778   27.4581 C   0  0  0  0  0  0  0  0  0  0  0  0
    9.0497  -13.3584   27.0109 C   0  0  0  0  0  0  0  0  0  0  0  0
   11.4853  -15.7751   24.6967 C   0  0  0  0  0  0  0  0  0  0  0  0
   12.3577  -15.3694   25.6924 O   0  0  0  0  0  0  0  0  0  0  0  0
   11.8278  -16.6897   23.9349 O   0  0  0  0  0  0  0  0  0  0  0  0
  2  3  1  0
  2  1  1  0
  4  3  1  0
  4  5  1  0
  5  6  1  6
  7  5  1  0
  7  8  2  0
 10  9  1  1
 11 10  1  0
 12 10  1  0
 12 13  1  1
 13  7  1  0
 14 12  1  0
 15 14  2  0
 16 14  1  0
 17 18  1  1
 17 16  1  0
 18 19  1  0
 19 24  2  0
 20 21  2  0
 20 19  1  0
 21 22  1  0
 22 23  2  0
 24 23  1  0
 25 26  1  0
 25 17  1  0
 27 25  2  0
M  END
$$$$
