WLI.pdb
     RDKit          3D

 31 32  0  0  1  0  0  0  0  0999 V2000
   27.6924  -22.3980  -13.7007 N   0  0  0  0  0  0  0  0  0  0  0  0
   26.6068  -22.0042  -12.8391 C   0  0  1  0  0  0  0  0  0  0  0  0
   26.7550  -20.6429  -12.2279 C   0  0  0  0  0  0  0  0  0  0  0  0
   27.7831  -20.6487  -11.1648 C   0  0  0  0  0  0  0  0  0  0  0  0
   29.1464  -20.6304  -11.4175 C   0  0  0  0  0  0  0  0  0  0  0  0
   29.8062  -20.6185  -10.2527 N   0  0  0  0  0  0  0  0  0  0  0  0
   28.9405  -20.6285   -9.2056 C   0  0  0  0  0  0  0  0  0  0  0  0
   29.0964  -20.6281   -7.8406 C   0  0  0  0  0  0  0  0  0  0  0  0
   27.9967  -20.6477   -7.0251 C   0  0  0  0  0  0  0  0  0  0  0  0
   26.7337  -20.6680   -7.5797 C   0  0  0  0  0  0  0  0  0  0  0  0
   26.5781  -20.6684   -8.9623 C   0  0  0  0  0  0  0  0  0  0  0  0
   27.6761  -20.6479   -9.7949 C   0  0  0  0  0  0  0  0  0  0  0  0
   25.3420  -21.9710  -13.6386 C   0  0  0  0  0  0  0  0  0  0  0  0
   25.2339  -21.1920  -14.6115 O   0  0  0  0  0  0  0  0  0  0  0  0
   23.8007  -24.3797  -16.6741 C   0  0  0  0  0  0  0  0  0  0  0  0
   23.7858  -25.0190  -15.2764 C   0  0  2  0  0  0  0  0  0  0  0  0
   23.5320  -26.4803  -15.3912 C   0  0  0  0  0  0  0  0  0  0  0  0
   22.7918  -24.2601  -14.4821 C   0  0  0  0  0  0  0  0  0  0  0  0
   23.1139  -22.8105  -14.2366 C   0  0  2  0  0  0  0  0  0  0  0  0
   24.2508  -22.8118  -13.3157 N   0  0  0  0  0  0  0  0  0  0  0  0
   21.9840  -22.1387  -13.5373 C   0  0  0  0  0  0  0  0  0  0  0  0
   21.9050  -22.2799  -12.2949 O   0  0  0  0  0  0  0  0  0  0  0  0
   21.0197  -16.9891  -13.3516 C   0  0  0  0  0  0  0  0  0  0  0  0
   20.9732  -18.4394  -12.9745 C   0  0  0  0  0  0  0  0  0  0  0  0
   20.0043  -19.1613  -13.9035 C   0  0  2  0  0  0  0  0  0  0  0  0
   18.6595  -18.5113  -13.7476 C   0  0  0  0  0  0  0  0  0  0  0  0
   19.9931  -20.6179  -13.5868 C   0  0  2  0  0  0  0  0  0  0  0  0
   21.0302  -21.3667  -14.2459 N   0  0  0  0  0  0  0  0  0  0  0  0
   18.6740  -21.2703  -13.8812 C   0  0  0  0  0  0  0  0  0  0  0  0
   18.5914  -22.1305  -14.9655 O   0  0  0  0  0  0  0  0  0  0  0  0
   17.6379  -21.0904  -13.2118 O   0  0  0  0  0  0  0  0  0  0  0  0
  2  1  1  6
  2 13  1  0
  3  4  1  0
  3  2  1  0
  4 12  1  0
  4  5  2  0
  5  6  1  0
  7  6  1  0
  7  8  2  0
  9  8  1  0
 10  9  2  0
 11 10  1  0
 11 12  2  0
 12  7  1  0
 13 14  2  0
 16 15  1  6
 17 16  1  0
 18 16  1  0
 19 18  1  1
 20 13  1  0
 20 19  1  0
 21 19  1  0
 21 22  2  0
 23 24  1  0
 25 24  1  0
 25 26  1  1
 27 28  1  6
 27 25  1  0
 28 21  1  0
 29 27  1  0
 30 29  1  0
 31 29  2  0
M  END
$$$$
