WLI.pdb
     RDKit          3D

 31 32  0  0  1  0  0  0  0  0999 V2000
   27.3682  -19.2554  -11.6349 N   0  0  0  0  0  0  0  0  0  0  0  0
   27.0510  -20.6608  -11.6574 C   0  0  1  0  0  0  0  0  0  0  0  0
   26.4002  -21.1755  -10.4083 C   0  0  0  0  0  0  0  0  0  0  0  0
   27.1818  -20.7998   -9.2103 C   0  0  0  0  0  0  0  0  0  0  0  0
   26.6757  -20.0260   -8.1770 C   0  0  0  0  0  0  0  0  0  0  0  0
   27.6175  -19.8839   -7.2362 N   0  0  0  0  0  0  0  0  0  0  0  0
   28.7565  -20.5350   -7.5890 C   0  0  0  0  0  0  0  0  0  0  0  0
   29.9856  -20.6941   -6.9960 C   0  0  0  0  0  0  0  0  0  0  0  0
   30.9600  -21.4237   -7.6230 C   0  0  0  0  0  0  0  0  0  0  0  0
   30.7022  -21.9969   -8.8510 C   0  0  0  0  0  0  0  0  0  0  0  0
   29.4568  -21.8345   -9.4499 C   0  0  0  0  0  0  0  0  0  0  0  0
   28.4667  -21.1036   -8.8296 C   0  0  0  0  0  0  0  0  0  0  0  0
   26.0872  -20.9216  -12.7722 C   0  0  0  0  0  0  0  0  0  0  0  0
   25.2735  -20.0369  -13.1193 O   0  0  0  0  0  0  0  0  0  0  0  0
   25.6447  -25.0935  -17.1754 C   0  0  0  0  0  0  0  0  0  0  0  0
   24.9690  -23.8348  -16.6085 C   0  0  2  0  0  0  0  0  0  0  0  0
   24.8734  -22.7924  -17.6655 C   0  0  0  0  0  0  0  0  0  0  0  0
   25.7436  -23.4526  -15.4049 C   0  0  0  0  0  0  0  0  0  0  0  0
   25.2305  -22.2600  -14.6434 C   0  0  2  0  0  0  0  0  0  0  0  0
   26.0745  -22.1622  -13.4523 N   0  0  0  0  0  0  0  0  0  0  0  0
   23.8380  -22.5027  -14.1753 C   0  0  0  0  0  0  0  0  0  0  0  0
   23.6607  -23.4088  -13.3285 O   0  0  0  0  0  0  0  0  0  0  0  0
   20.6237  -18.7057  -12.3814 C   0  0  0  0  0  0  0  0  0  0  0  0
   21.3871  -19.9493  -12.7256 C   0  0  0  0  0  0  0  0  0  0  0  0
   20.6902  -20.6528  -13.8843 C   0  0  2  0  0  0  0  0  0  0  0  0
   19.2553  -20.8580  -13.4911 C   0  0  0  0  0  0  0  0  0  0  0  0
   21.3999  -21.9245  -14.2021 C   0  0  2  0  0  0  0  0  0  0  0  0
   22.7495  -21.7398  -14.6662 N   0  0  0  0  0  0  0  0  0  0  0  0
   20.6649  -22.7710  -15.1998 C   0  0  0  0  0  0  0  0  0  0  0  0
   20.8365  -22.4993  -16.5485 O   0  0  0  0  0  0  0  0  0  0  0  0
   19.9034  -23.7104  -14.8966 O   0  0  0  0  0  0  0  0  0  0  0  0
  2  1  1  1
  2 13  1  0
  3  4  1  0
  3  2  1  0
  4 12  1  0
  4  5  2  0
  5  6  1  0
  7  6  1  0
  7  8  2  0
  9  8  1  0
 10  9  2  0
 11 10  1  0
 11 12  2  0
 12  7  1  0
 13 14  2  0
 16 15  1  6
 17 16  1  0
 18 16  1  0
 19 18  1  6
 20 13  1  0
 20 19  1  0
 21 19  1  0
 21 22  2  0
 23 24  1  0
 25 24  1  0
 25 26  1  1
 27 28  1  6
 27 25  1  0
 28 21  1  0
 29 27  1  0
 30 29  1  0
 31 29  2  0
M  END
$$$$
