WLI.pdb
     RDKit          3D

 31 32  0  0  1  0  0  0  0  0999 V2000
   25.6522  -18.4326   -8.4393 N   0  0  0  0  0  0  0  0  0  0  0  0
   26.2752  -19.6105   -8.9875 C   0  0  1  0  0  0  0  0  0  0  0  0
   25.9869  -20.8772   -8.2384 C   0  0  0  0  0  0  0  0  0  0  0  0
   26.3381  -20.7385   -6.8085 C   0  0  0  0  0  0  0  0  0  0  0  0
   25.4424  -20.9639   -5.7743 C   0  0  0  0  0  0  0  0  0  0  0  0
   26.0689  -20.7784   -4.6058 N   0  0  0  0  0  0  0  0  0  0  0  0
   27.3678  -20.4319   -4.8024 C   0  0  0  0  0  0  0  0  0  0  0  0
   28.4121  -20.1339   -3.9610 C   0  0  0  0  0  0  0  0  0  0  0  0
   29.6369  -19.8060   -4.4779 C   0  0  0  0  0  0  0  0  0  0  0  0
   29.8168  -19.7763   -5.8454 C   0  0  0  0  0  0  0  0  0  0  0  0
   28.7579  -20.0785   -6.6958 C   0  0  0  0  0  0  0  0  0  0  0  0
   27.5201  -20.4109   -6.1890 C   0  0  0  0  0  0  0  0  0  0  0  0
   25.7701  -19.8213  -10.3805 C   0  0  0  0  0  0  0  0  0  0  0  0
   24.8425  -19.1103  -10.8269 O   0  0  0  0  0  0  0  0  0  0  0  0
   28.3434  -19.2350  -13.9483 C   0  0  0  0  0  0  0  0  0  0  0  0
   28.5938  -20.5712  -13.2313 C   0  0  2  0  0  0  0  0  0  0  0  0
   29.7734  -21.2527  -13.8289 C   0  0  0  0  0  0  0  0  0  0  0  0
   27.3203  -21.3252  -13.2993 C   0  0  0  0  0  0  0  0  0  0  0  0
   26.1296  -20.6648  -12.6578 C   0  0  2  0  0  0  0  0  0  0  0  0
   26.3248  -20.8194  -11.2160 N   0  0  0  0  0  0  0  0  0  0  0  0
   24.8793  -21.3922  -13.0112 C   0  0  0  0  0  0  0  0  0  0  0  0
   24.7647  -22.5749  -12.6143 O   0  0  0  0  0  0  0  0  0  0  0  0
   19.7236  -22.1192  -12.9702 C   0  0  0  0  0  0  0  0  0  0  0  0
   20.1355  -21.3108  -14.1639 C   0  0  0  0  0  0  0  0  0  0  0  0
   21.4087  -20.5438  -13.8264 C   0  0  2  0  0  0  0  0  0  0  0  0
   21.4253  -19.3018  -14.6705 C   0  0  0  0  0  0  0  0  0  0  0  0
   22.5964  -21.4180  -14.0440 C   0  0  2  0  0  0  0  0  0  0  0  0
   23.8535  -20.7742  -13.7686 N   0  0  0  0  0  0  0  0  0  0  0  0
   22.6508  -21.9972  -15.4274 C   0  0  0  0  0  0  0  0  0  0  0  0
   23.3879  -21.3293  -16.3932 O   0  0  0  0  0  0  0  0  0  0  0  0
   22.0735  -23.0473  -15.7711 O   0  0  0  0  0  0  0  0  0  0  0  0
  2  1  1  1
  2 13  1  0
  3  4  1  0
  3  2  1  0
  4 12  1  0
  4  5  2  0
  5  6  1  0
  7  6  1  0
  7  8  2  0
  9  8  1  0
 10  9  2  0
 11 10  1  0
 11 12  2  0
 12  7  1  0
 13 14  2  0
 16 15  1  6
 17 16  1  0
 18 16  1  0
 19 18  1  6
 20 13  1  0
 20 19  1  0
 21 19  1  0
 21 22  2  0
 23 24  1  0
 25 24  1  0
 25 26  1  6
 27 28  1  6
 27 25  1  0
 28 21  1  0
 29 27  1  0
 30 29  1  0
 31 29  2  0
M  END
$$$$
