WLI.pdb
     RDKit          3D

 31 32  0  0  1  0  0  0  0  0999 V2000
   26.3864  -20.3099  -16.6062 N   0  0  0  0  0  0  0  0  0  0  0  0
   25.9111  -19.4627  -15.5421 C   0  0  1  0  0  0  0  0  0  0  0  0
   24.8131  -18.5202  -15.9356 C   0  0  0  0  0  0  0  0  0  0  0  0
   25.3125  -17.4837  -16.8648 C   0  0  0  0  0  0  0  0  0  0  0  0
   24.9324  -17.4007  -18.1957 C   0  0  0  0  0  0  0  0  0  0  0  0
   25.5376  -16.3471  -18.7578 N   0  0  0  0  0  0  0  0  0  0  0  0
   26.3229  -15.7019  -17.8562 C   0  0  0  0  0  0  0  0  0  0  0  0
   27.1380  -14.5978  -17.9207 C   0  0  0  0  0  0  0  0  0  0  0  0
   27.8245  -14.1867  -16.8096 C   0  0  0  0  0  0  0  0  0  0  0  0
   27.6942  -14.8855  -15.6272 C   0  0  0  0  0  0  0  0  0  0  0  0
   26.8682  -16.0033  -15.5641 C   0  0  0  0  0  0  0  0  0  0  0  0
   26.1708  -16.4276  -16.6745 C   0  0  0  0  0  0  0  0  0  0  0  0
   25.3561  -20.3226  -14.4501 C   0  0  0  0  0  0  0  0  0  0  0  0
   24.8323  -21.4254  -14.7234 O   0  0  0  0  0  0  0  0  0  0  0  0
   25.5710  -20.4565   -8.3733 C   0  0  0  0  0  0  0  0  0  0  0  0
   24.9264  -21.1318   -9.5943 C   0  0  2  0  0  0  0  0  0  0  0  0
   25.2193  -22.5902   -9.5791 C   0  0  0  0  0  0  0  0  0  0  0  0
   25.4156  -20.3960  -10.7835 C   0  0  0  0  0  0  0  0  0  0  0  0
   24.8252  -20.8126  -12.1038 C   0  0  2  0  0  0  0  0  0  0  0  0
   25.4109  -19.9121  -13.0971 N   0  0  0  0  0  0  0  0  0  0  0  0
   23.3549  -20.5778  -12.1123 C   0  0  0  0  0  0  0  0  0  0  0  0
   22.9566  -19.3921  -12.0408 O   0  0  0  0  0  0  0  0  0  0  0  0
   20.0195  -23.7531  -15.1354 C   0  0  0  0  0  0  0  0  0  0  0  0
   20.5849  -23.3660  -13.8019 C   0  0  0  0  0  0  0  0  0  0  0  0
   20.4461  -21.8586  -13.6245 C   0  0  2  0  0  0  0  0  0  0  0  0
   21.1261  -21.2016  -14.7913 C   0  0  0  0  0  0  0  0  0  0  0  0
   21.0144  -21.4515  -12.3079 C   0  0  2  0  0  0  0  0  0  0  0  0
   22.4351  -21.6524  -12.1980 N   0  0  0  0  0  0  0  0  0  0  0  0
   20.3464  -22.1295  -11.1477 C   0  0  0  0  0  0  0  0  0  0  0  0
   21.1166  -22.9329  -10.3208 O   0  0  0  0  0  0  0  0  0  0  0  0
   19.1353  -22.0190  -10.8735 O   0  0  0  0  0  0  0  0  0  0  0  0
  2  1  1  6
  2 13  1  0
  3  4  1  0
  3  2  1  0
  4 12  1  0
  4  5  2  0
  5  6  1  0
  7  6  1  0
  7  8  2  0
  9  8  1  0
 10  9  2  0
 11 10  1  0
 11 12  2  0
 12  7  1  0
 13 14  2  0
 16 15  1  1
 17 16  1  0
 18 16  1  0
 19 18  1  1
 20 13  1  0
 20 19  1  0
 21 19  1  0
 21 22  2  0
 23 24  1  0
 25 24  1  0
 25 26  1  6
 27 28  1  6
 27 25  1  0
 28 21  1  0
 29 27  1  0
 30 29  1  0
 31 29  2  0
M  END
$$$$
