WLI.pdb
     RDKit          3D

 31 32  0  0  1  0  0  0  0  0999 V2000
   28.1483  -20.0845  -10.4108 N   0  0  0  0  0  0  0  0  0  0  0  0
   26.9408  -20.6773   -9.8943 C   0  0  1  0  0  0  0  0  0  0  0  0
   26.3191  -19.9346   -8.7495 C   0  0  0  0  0  0  0  0  0  0  0  0
   27.3443  -19.5221   -7.7666 C   0  0  0  0  0  0  0  0  0  0  0  0
   28.2673  -18.5139   -7.9998 C   0  0  0  0  0  0  0  0  0  0  0  0
   29.0373  -18.3673   -6.9145 N   0  0  0  0  0  0  0  0  0  0  0  0
   28.6742  -19.2430   -5.9413 C   0  0  0  0  0  0  0  0  0  0  0  0
   29.1330  -19.5008   -4.6722 C   0  0  0  0  0  0  0  0  0  0  0  0
   28.5461  -20.4806   -3.9169 C   0  0  0  0  0  0  0  0  0  0  0  0
   27.4939  -21.2064   -4.4356 C   0  0  0  0  0  0  0  0  0  0  0  0
   27.0308  -20.9437   -5.7210 C   0  0  0  0  0  0  0  0  0  0  0  0
   27.6116  -19.9599   -6.4918 C   0  0  0  0  0  0  0  0  0  0  0  0
   25.9137  -20.7092  -10.9824 C   0  0  0  0  0  0  0  0  0  0  0  0
   25.4919  -19.6416  -11.4800 O   0  0  0  0  0  0  0  0  0  0  0  0
   24.2230  -24.9852  -14.9146 C   0  0  0  0  0  0  0  0  0  0  0  0
   24.0503  -23.4933  -14.5876 C   0  0  2  0  0  0  0  0  0  0  0  0
   24.4435  -22.6692  -15.7620 C   0  0  0  0  0  0  0  0  0  0  0  0
   24.8237  -23.2466  -13.3483 C   0  0  0  0  0  0  0  0  0  0  0  0
   24.6432  -21.8913  -12.7189 C   0  0  2  0  0  0  0  0  0  0  0  0
   25.4016  -21.9354  -11.4685 N   0  0  0  0  0  0  0  0  0  0  0  0
   23.2153  -21.6724  -12.3581 C   0  0  0  0  0  0  0  0  0  0  0  0
   22.7771  -22.2606  -11.3424 O   0  0  0  0  0  0  0  0  0  0  0  0
   20.4829  -16.9865  -13.7666 C   0  0  0  0  0  0  0  0  0  0  0  0
   20.9041  -18.4151  -13.9386 C   0  0  0  0  0  0  0  0  0  0  0  0
   20.6365  -19.1692  -12.6414 C   0  0  2  0  0  0  0  0  0  0  0  0
   21.4186  -18.4898  -11.5540 C   0  0  0  0  0  0  0  0  0  0  0  0
   20.9931  -20.6066  -12.8112 C   0  0  2  0  0  0  0  0  0  0  0  0
   22.3780  -20.8307  -13.1316 N   0  0  0  0  0  0  0  0  0  0  0  0
   20.1481  -21.3015  -13.8385 C   0  0  0  0  0  0  0  0  0  0  0  0
   18.7995  -21.4808  -13.5710 O   0  0  0  0  0  0  0  0  0  0  0  0
   20.5792  -21.7326  -14.9258 O   0  0  0  0  0  0  0  0  0  0  0  0
  2  1  1  6
  2 13  1  0
  3  4  1  0
  3  2  1  0
  4 12  1  0
  4  5  2  0
  5  6  1  0
  7  6  1  0
  7  8  2  0
  9  8  1  0
 10  9  2  0
 11 10  1  0
 11 12  2  0
 12  7  1  0
 13 14  2  0
 16 15  1  6
 17 16  1  0
 18 16  1  0
 19 18  1  1
 20 13  1  0
 20 19  1  0
 21 19  1  0
 21 22  2  0
 23 24  1  0
 25 24  1  0
 25 26  1  1
 27 28  1  6
 27 25  1  0
 28 21  1  0
 29 27  1  0
 30 29  1  0
 31 29  2  0
M  END
$$$$
