TFY.pdb
     RDKit          3D

 31 32  0  0  1  0  0  0  0  0999 V2000
    9.8039  -19.6548   19.3878 C   0  0  0  0  0  0  0  0  0  0  0  0
    9.8917  -18.5207   20.3849 C   0  0  1  0  0  0  0  0  0  0  0  0
   11.1968  -18.4667   20.9031 O   0  0  0  0  0  0  0  0  0  0  0  0
    9.5510  -17.1960   19.6920 C   0  0  2  0  0  0  0  0  0  0  0  0
   10.6555  -16.9210   18.7815 N   0  0  0  0  0  0  0  0  0  0  0  0
    9.5639  -16.1420   20.7416 C   0  0  0  0  0  0  0  0  0  0  0  0
   10.6302  -15.5134   20.9870 O   0  0  0  0  0  0  0  0  0  0  0  0
    8.4065  -15.8031   21.4967 N   0  0  0  0  0  0  0  0  0  0  0  0
    8.3950  -14.8659   22.5832 C   0  0  1  0  0  0  0  0  0  0  0  0
    7.0119  -14.5941   23.1112 C   0  0  0  0  0  0  0  0  0  0  0  0
    6.9712  -13.6362   24.2133 C   0  0  0  0  0  0  0  0  0  0  0  0
    7.4369  -12.3501   24.0503 C   0  0  0  0  0  0  0  0  0  0  0  0
    7.4036  -11.4251   25.0960 C   0  0  0  0  0  0  0  0  0  0  0  0
    6.9014  -11.7707   26.3308 C   0  0  0  0  0  0  0  0  0  0  0  0
    6.4351  -13.0553   26.4976 C   0  0  0  0  0  0  0  0  0  0  0  0
    6.4725  -13.9677   25.4517 C   0  0  0  0  0  0  0  0  0  0  0  0
    9.3628  -15.2121   23.6545 C   0  0  0  0  0  0  0  0  0  0  0  0
   10.5131  -14.7103   23.5640 O   0  0  0  0  0  0  0  0  0  0  0  0
   12.1222  -16.8262   31.9146 O   0  0  0  0  0  0  0  0  0  0  0  0
   11.4199  -16.5857   30.7605 C   0  0  0  0  0  0  0  0  0  0  0  0
   11.5552  -15.3863   30.1149 C   0  0  0  0  0  0  0  0  0  0  0  0
   10.8400  -15.1606   28.9530 C   0  0  0  0  0  0  0  0  0  0  0  0
    9.9948  -16.0808   28.4078 C   0  0  0  0  0  0  0  0  0  0  0  0
    9.2018  -15.8907   27.1784 C   0  0  0  0  0  0  0  0  0  0  0  0
    9.9658  -16.0874   25.9080 C   0  0  2  0  0  0  0  0  0  0  0  0
    9.0753  -16.0523   24.7446 N   0  0  0  0  0  0  0  0  0  0  0  0
   10.6489  -17.3973   25.8882 C   0  0  0  0  0  0  0  0  0  0  0  0
   11.7985  -17.5020   26.3652 O   0  0  0  0  0  0  0  0  0  0  0  0
    9.8589  -17.3044   29.0691 C   0  0  0  0  0  0  0  0  0  0  0  0
   10.5724  -17.5259   30.2253 C   0  0  0  0  0  0  0  0  0  0  0  0
   10.0613  -18.5209   25.3584 O   0  0  0  0  0  0  0  0  0  0  0  0
  2  1  1  6
  2  3  1  0
  4  2  1  0
  4  5  1  6
  6  4  1  0
  6  7  2  0
  8  6  1  0
  9  8  1  0
  9 10  1  1
 11 10  1  0
 11 12  2  0
 13 12  1  0
 14 13  2  0
 15 16  2  0
 15 14  1  0
 16 11  1  0
 17  9  1  0
 18 17  2  0
 19 20  1  0
 20 30  2  0
 20 21  1  0
 21 22  2  0
 22 23  1  0
 23 24  1  0
 25 24  1  1
 25 27  1  0
 25 26  1  0
 26 17  1  0
 27 31  1  0
 28 27  2  0
 29 23  2  0
 30 29  1  0
M  END
$$$$
