TFY.pdb
     RDKit          3D

 31 32  0  0  1  0  0  0  0  0999 V2000
    8.5781  -16.1108   18.7023 C   0  0  0  0  0  0  0  0  0  0  0  0
    8.8202  -14.7148   18.1723 C   0  0  1  0  0  0  0  0  0  0  0  0
    8.6829  -14.7258   16.7739 O   0  0  0  0  0  0  0  0  0  0  0  0
    7.8047  -13.7451   18.7881 C   0  0  2  0  0  0  0  0  0  0  0  0
    8.0292  -12.4595   18.1387 N   0  0  0  0  0  0  0  0  0  0  0  0
    8.1674  -13.5908   20.2225 C   0  0  0  0  0  0  0  0  0  0  0  0
    9.2394  -13.0052   20.5395 O   0  0  0  0  0  0  0  0  0  0  0  0
    7.3453  -14.0826   21.2745 N   0  0  0  0  0  0  0  0  0  0  0  0
    7.7246  -14.0979   22.6582 C   0  0  1  0  0  0  0  0  0  0  0  0
    6.5473  -14.0109   23.5920 C   0  0  0  0  0  0  0  0  0  0  0  0
    6.9112  -13.8872   25.0014 C   0  0  0  0  0  0  0  0  0  0  0  0
    7.2416  -12.6640   25.5420 C   0  0  0  0  0  0  0  0  0  0  0  0
    7.5913  -12.5327   26.8876 C   0  0  0  0  0  0  0  0  0  0  0  0
    7.6173  -13.6277   27.7222 C   0  0  0  0  0  0  0  0  0  0  0  0
    7.2878  -14.8520   27.1855 C   0  0  0  0  0  0  0  0  0  0  0  0
    6.9414  -14.9723   25.8463 C   0  0  0  0  0  0  0  0  0  0  0  0
    8.6438  -15.2149   22.9925 C   0  0  0  0  0  0  0  0  0  0  0  0
    8.3353  -16.3539   22.5560 O   0  0  0  0  0  0  0  0  0  0  0  0
   12.8787  -14.8320   18.1064 O   0  0  0  0  0  0  0  0  0  0  0  0
   12.6891  -15.1132   19.4360 C   0  0  0  0  0  0  0  0  0  0  0  0
   12.3730  -16.3861   19.8276 C   0  0  0  0  0  0  0  0  0  0  0  0
   12.1853  -16.6520   21.1717 C   0  0  0  0  0  0  0  0  0  0  0  0
   12.2994  -15.7014   22.1421 C   0  0  0  0  0  0  0  0  0  0  0  0
   12.1016  -15.9263   23.5867 C   0  0  0  0  0  0  0  0  0  0  0  0
   10.6921  -16.2314   23.9821 C   0  0  2  0  0  0  0  0  0  0  0  0
    9.8176  -15.0776   23.7545 N   0  0  0  0  0  0  0  0  0  0  0  0
   10.5968  -16.5676   25.4177 C   0  0  0  0  0  0  0  0  0  0  0  0
    9.8391  -15.9062   26.1582 O   0  0  0  0  0  0  0  0  0  0  0  0
   12.6223  -14.4028   21.7393 C   0  0  0  0  0  0  0  0  0  0  0  0
   12.8086  -14.1416   20.4006 C   0  0  0  0  0  0  0  0  0  0  0  0
   11.3189  -17.5936   25.9783 O   0  0  0  0  0  0  0  0  0  0  0  0
  2  1  1  1
  2  3  1  0
  4  2  1  0
  4  5  1  6
  6  4  1  0
  6  7  2  0
  8  6  1  0
  9  8  1  0
  9 10  1  1
 11 10  1  0
 11 12  2  0
 13 12  1  0
 14 13  2  0
 15 16  2  0
 15 14  1  0
 16 11  1  0
 17  9  1  0
 18 17  2  0
 19 20  1  0
 20 30  2  0
 20 21  1  0
 21 22  2  0
 22 23  1  0
 23 24  1  0
 25 24  1  1
 25 27  1  0
 25 26  1  0
 26 17  1  0
 27 31  1  0
 28 27  2  0
 29 23  2  0
 30 29  1  0
M  END
$$$$
