TFY.pdb
     RDKit          3D

 31 32  0  0  1  0  0  0  0  0999 V2000
    9.6890  -19.4950   21.8396 C   0  0  0  0  0  0  0  0  0  0  0  0
    8.9911  -19.0543   20.5719 C   0  0  1  0  0  0  0  0  0  0  0  0
    8.8339  -20.1652   19.7259 O   0  0  0  0  0  0  0  0  0  0  0  0
    7.6190  -18.4631   20.9162 C   0  0  2  0  0  0  0  0  0  0  0  0
    6.9398  -18.2517   19.6440 N   0  0  0  0  0  0  0  0  0  0  0  0
    7.8625  -17.1259   21.5207 C   0  0  0  0  0  0  0  0  0  0  0  0
    8.3762  -16.2067   20.8252 O   0  0  0  0  0  0  0  0  0  0  0  0
    7.5365  -16.8294   22.8736 N   0  0  0  0  0  0  0  0  0  0  0  0
    7.7713  -15.5616   23.5033 C   0  0  1  0  0  0  0  0  0  0  0  0
    6.9522  -15.3634   24.7504 C   0  0  0  0  0  0  0  0  0  0  0  0
    7.1097  -14.0477   25.3652 C   0  0  0  0  0  0  0  0  0  0  0  0
    6.8704  -12.8976   24.6460 C   0  0  0  0  0  0  0  0  0  0  0  0
    7.0174  -11.6341   25.2222 C   0  0  0  0  0  0  0  0  0  0  0  0
    7.4086  -11.4962   26.5353 C   0  0  0  0  0  0  0  0  0  0  0  0
    7.6488  -12.6436   27.2575 C   0  0  0  0  0  0  0  0  0  0  0  0
    7.4997  -13.8953   26.6756 C   0  0  0  0  0  0  0  0  0  0  0  0
    9.2138  -15.2781   23.7104 C   0  0  0  0  0  0  0  0  0  0  0  0
    9.6079  -14.1139   23.4414 O   0  0  0  0  0  0  0  0  0  0  0  0
    8.8498  -15.6639   30.3327 O   0  0  0  0  0  0  0  0  0  0  0  0
    9.6108  -15.8790   29.2113 C   0  0  0  0  0  0  0  0  0  0  0  0
    9.4753  -17.0443   28.5061 C   0  0  0  0  0  0  0  0  0  0  0  0
   10.2501  -17.2448   27.3783 C   0  0  0  0  0  0  0  0  0  0  0  0
   11.1549  -16.3319   26.9240 C   0  0  0  0  0  0  0  0  0  0  0  0
   12.0124  -16.4966   25.7349 C   0  0  0  0  0  0  0  0  0  0  0  0
   11.5157  -15.8010   24.5079 C   0  0  2  0  0  0  0  0  0  0  0  0
   10.1490  -16.2169   24.1810 N   0  0  0  0  0  0  0  0  0  0  0  0
   12.3546  -16.1171   23.3334 C   0  0  0  0  0  0  0  0  0  0  0  0
   13.5504  -15.7572   23.3134 O   0  0  0  0  0  0  0  0  0  0  0  0
   11.2908  -15.1431   27.6460 C   0  0  0  0  0  0  0  0  0  0  0  0
   10.5179  -14.9467   28.7681 C   0  0  0  0  0  0  0  0  0  0  0  0
   11.8643  -16.8009   22.2469 O   0  0  0  0  0  0  0  0  0  0  0  0
  2  1  1  1
  2  3  1  0
  4  2  1  0
  4  5  1  6
  6  4  1  0
  6  7  2  0
  8  6  1  0
  9  8  1  0
  9 10  1  1
 11 10  1  0
 11 12  2  0
 13 12  1  0
 14 13  2  0
 15 16  2  0
 15 14  1  0
 16 11  1  0
 17  9  1  0
 18 17  2  0
 19 20  1  0
 20 30  2  0
 20 21  1  0
 21 22  2  0
 22 23  1  0
 23 24  1  0
 25 24  1  1
 25 27  1  0
 25 26  1  0
 26 17  1  0
 27 31  1  0
 28 27  2  0
 29 23  2  0
 30 29  1  0
M  END
$$$$
