TFY.pdb
     RDKit          3D

 31 32  0  0  1  0  0  0  0  0999 V2000
    8.0895  -12.7789   17.9249 C   0  0  0  0  0  0  0  0  0  0  0  0
    7.6054  -14.2113   17.9699 C   0  0  1  0  0  0  0  0  0  0  0  0
    7.3890  -14.6629   16.6569 O   0  0  0  0  0  0  0  0  0  0  0  0
    8.6569  -15.0907   18.6568 C   0  0  2  0  0  0  0  0  0  0  0  0
    8.0808  -16.4278   18.7278 N   0  0  0  0  0  0  0  0  0  0  0  0
    8.7974  -14.5898   20.0504 C   0  0  0  0  0  0  0  0  0  0  0  0
    9.6089  -13.6571   20.3035 O   0  0  0  0  0  0  0  0  0  0  0  0
    8.0442  -15.1243   21.1328 N   0  0  0  0  0  0  0  0  0  0  0  0
    8.1820  -14.7066   22.4986 C   0  0  1  0  0  0  0  0  0  0  0  0
    6.8602  -14.5409   23.1994 C   0  0  0  0  0  0  0  0  0  0  0  0
    6.9537  -13.8896   24.5036 C   0  0  0  0  0  0  0  0  0  0  0  0
    7.2181  -12.5414   24.6038 C   0  0  0  0  0  0  0  0  0  0  0  0
    7.3100  -11.9073   25.8446 C   0  0  0  0  0  0  0  0  0  0  0  0
    7.1383  -12.6130   27.0146 C   0  0  0  0  0  0  0  0  0  0  0  0
    6.8738  -13.9607   26.9185 C   0  0  0  0  0  0  0  0  0  0  0  0
    6.7844  -14.5821   25.6801 C   0  0  0  0  0  0  0  0  0  0  0  0
    9.1391  -15.5440   23.2646 C   0  0  0  0  0  0  0  0  0  0  0  0
    9.1476  -16.7757   23.0078 O   0  0  0  0  0  0  0  0  0  0  0  0
   10.0706  -15.9863   31.2015 O   0  0  0  0  0  0  0  0  0  0  0  0
   10.4981  -15.8130   29.9091 C   0  0  0  0  0  0  0  0  0  0  0  0
   11.1206  -16.8393   29.2513 C   0  0  0  0  0  0  0  0  0  0  0  0
   11.5451  -16.6475   27.9492 C   0  0  0  0  0  0  0  0  0  0  0  0
   11.3752  -15.4747   27.2753 C   0  0  0  0  0  0  0  0  0  0  0  0
   11.8152  -15.2121   25.8919 C   0  0  0  0  0  0  0  0  0  0  0  0
   11.0291  -15.9299   24.8417 C   0  0  2  0  0  0  0  0  0  0  0  0
   10.0209  -15.0510   24.2427 N   0  0  0  0  0  0  0  0  0  0  0  0
   10.3086  -17.0892   25.4072 C   0  0  0  0  0  0  0  0  0  0  0  0
    9.0912  -16.9923   25.6690 O   0  0  0  0  0  0  0  0  0  0  0  0
   10.7393  -14.4289   27.9495 C   0  0  0  0  0  0  0  0  0  0  0  0
   10.3177  -14.6231   29.2456 C   0  0  0  0  0  0  0  0  0  0  0  0
   10.9336  -18.2867   25.6602 O   0  0  0  0  0  0  0  0  0  0  0  0
  2  1  1  6
  2  3  1  0
  4  2  1  0
  4  5  1  1
  6  4  1  0
  6  7  2  0
  8  6  1  0
  9  8  1  0
  9 10  1  1
 11 10  1  0
 11 12  2  0
 13 12  1  0
 14 13  2  0
 15 16  2  0
 15 14  1  0
 16 11  1  0
 17  9  1  0
 18 17  2  0
 19 20  1  0
 20 30  2  0
 20 21  1  0
 21 22  2  0
 22 23  1  0
 23 24  1  0
 25 24  1  1
 25 27  1  0
 25 26  1  0
 26 17  1  0
 27 31  1  0
 28 27  2  0
 29 23  2  0
 30 29  1  0
M  END
$$$$
