TFY.pdb
     RDKit          3D

 31 32  0  0  1  0  0  0  0  0999 V2000
    7.1277  -14.7006   17.4013 C   0  0  0  0  0  0  0  0  0  0  0  0
    7.8430  -14.8074   18.7299 C   0  0  1  0  0  0  0  0  0  0  0  0
    9.2301  -14.7735   18.5071 O   0  0  0  0  0  0  0  0  0  0  0  0
    7.4316  -13.6391   19.6335 C   0  0  2  0  0  0  0  0  0  0  0  0
    7.9604  -12.4358   19.0034 N   0  0  0  0  0  0  0  0  0  0  0  0
    8.1464  -13.8180   20.9258 C   0  0  0  0  0  0  0  0  0  0  0  0
    9.3071  -13.3450   21.0719 O   0  0  0  0  0  0  0  0  0  0  0  0
    7.5704  -14.5116   22.0265 N   0  0  0  0  0  0  0  0  0  0  0  0
    8.2324  -14.7314   23.2804 C   0  0  1  0  0  0  0  0  0  0  0  0
    7.2750  -14.9099   24.4280 C   0  0  0  0  0  0  0  0  0  0  0  0
    7.1544  -13.7386   25.2925 C   0  0  0  0  0  0  0  0  0  0  0  0
    5.9617  -13.0578   25.3992 C   0  0  0  0  0  0  0  0  0  0  0  0
    5.8337  -11.9368   26.2220 C   0  0  0  0  0  0  0  0  0  0  0  0
    6.9016  -11.4730   26.9575 C   0  0  0  0  0  0  0  0  0  0  0  0
    8.0955  -12.1508   26.8535 C   0  0  0  0  0  0  0  0  0  0  0  0
    8.2127  -13.2645   26.0326 C   0  0  0  0  0  0  0  0  0  0  0  0
    9.2565  -15.8043   23.2124 C   0  0  0  0  0  0  0  0  0  0  0  0
    8.9355  -16.8574   22.6033 O   0  0  0  0  0  0  0  0  0  0  0  0
   13.2989  -14.8352   17.9084 O   0  0  0  0  0  0  0  0  0  0  0  0
   13.1786  -15.2077   19.2236 C   0  0  0  0  0  0  0  0  0  0  0  0
   12.8186  -14.2827   20.1662 C   0  0  0  0  0  0  0  0  0  0  0  0
   12.7020  -14.6752   21.4871 C   0  0  0  0  0  0  0  0  0  0  0  0
   12.9296  -15.9517   21.9079 C   0  0  0  0  0  0  0  0  0  0  0  0
   12.8290  -16.4231   23.3022 C   0  0  0  0  0  0  0  0  0  0  0  0
   11.4586  -16.8554   23.7160 C   0  0  2  0  0  0  0  0  0  0  0  0
   10.5406  -15.7147   23.7781 N   0  0  0  0  0  0  0  0  0  0  0  0
   11.4713  -17.4715   25.0588 C   0  0  0  0  0  0  0  0  0  0  0  0
   12.1876  -18.4721   25.2728 O   0  0  0  0  0  0  0  0  0  0  0  0
   13.2968  -16.8938   20.9433 C   0  0  0  0  0  0  0  0  0  0  0  0
   13.4118  -16.4998   19.6292 C   0  0  0  0  0  0  0  0  0  0  0  0
   10.7157  -16.9804   26.0963 O   0  0  0  0  0  0  0  0  0  0  0  0
  2  1  1  6
  2  3  1  0
  4  2  1  0
  4  5  1  6
  6  4  1  0
  6  7  2  0
  8  6  1  0
  9  8  1  0
  9 10  1  1
 11 10  1  0
 11 12  2  0
 13 12  1  0
 14 13  2  0
 15 16  2  0
 15 14  1  0
 16 11  1  0
 17  9  1  0
 18 17  2  0
 19 20  1  0
 20 30  2  0
 20 21  1  0
 21 22  2  0
 22 23  1  0
 23 24  1  0
 25 24  1  1
 25 27  1  0
 25 26  1  0
 26 17  1  0
 27 31  1  0
 28 27  2  0
 29 23  2  0
 30 29  1  0
M  END
$$$$
