TFY.pdb
     RDKit          3D

 31 32  0  0  1  0  0  0  0  0999 V2000
    8.7669  -18.7647   18.8864 C   0  0  0  0  0  0  0  0  0  0  0  0
    9.0102  -18.0147   20.1772 C   0  0  1  0  0  0  0  0  0  0  0  0
   10.1068  -18.5900   20.8413 O   0  0  0  0  0  0  0  0  0  0  0  0
    9.3010  -16.5407   19.8713 C   0  0  2  0  0  0  0  0  0  0  0  0
   10.5965  -16.5149   19.2038 N   0  0  0  0  0  0  0  0  0  0  0  0
    9.4580  -15.8494   21.1791 C   0  0  0  0  0  0  0  0  0  0  0  0
   10.5577  -15.9130   21.7948 O   0  0  0  0  0  0  0  0  0  0  0  0
    8.4047  -15.1050   21.7799 N   0  0  0  0  0  0  0  0  0  0  0  0
    8.4380  -14.5925   23.1197 C   0  0  1  0  0  0  0  0  0  0  0  0
    7.3840  -13.5492   23.3770 C   0  0  0  0  0  0  0  0  0  0  0  0
    7.3865  -13.0215   24.7391 C   0  0  0  0  0  0  0  0  0  0  0  0
    8.3585  -12.1378   25.1536 C   0  0  0  0  0  0  0  0  0  0  0  0
    8.3718  -11.6263   26.4530 C   0  0  0  0  0  0  0  0  0  0  0  0
    7.4085  -11.9908   27.3671 C   0  0  0  0  0  0  0  0  0  0  0  0
    6.4354  -12.8739   26.9565 C   0  0  0  0  0  0  0  0  0  0  0  0
    6.4306  -13.3769   25.6624 C   0  0  0  0  0  0  0  0  0  0  0  0
    8.4510  -15.6639   24.1474 C   0  0  0  0  0  0  0  0  0  0  0  0
    7.5399  -16.5288   24.0773 O   0  0  0  0  0  0  0  0  0  0  0  0
   15.5057  -16.6283   24.0480 O   0  0  0  0  0  0  0  0  0  0  0  0
   14.2164  -16.9780   24.3616 C   0  0  0  0  0  0  0  0  0  0  0  0
   13.2818  -17.1052   23.3697 C   0  0  0  0  0  0  0  0  0  0  0  0
   11.9870  -17.4583   23.7034 C   0  0  0  0  0  0  0  0  0  0  0  0
   11.5848  -17.6898   24.9852 C   0  0  0  0  0  0  0  0  0  0  0  0
   10.2178  -18.0595   25.3988 C   0  0  0  0  0  0  0  0  0  0  0  0
    9.4395  -16.9533   26.0365 C   0  0  2  0  0  0  0  0  0  0  0  0
    9.4041  -15.7675   25.1760 N   0  0  0  0  0  0  0  0  0  0  0  0
   10.0465  -16.5376   27.3178 C   0  0  0  0  0  0  0  0  0  0  0  0
   10.3650  -15.3425   27.4918 O   0  0  0  0  0  0  0  0  0  0  0  0
   12.5413  -17.5593   25.9956 C   0  0  0  0  0  0  0  0  0  0  0  0
   13.8293  -17.2078   25.6600 C   0  0  0  0  0  0  0  0  0  0  0  0
   10.2776  -17.4264   28.3402 O   0  0  0  0  0  0  0  0  0  0  0  0
  2  1  1  6
  2  3  1  0
  4  2  1  0
  4  5  1  6
  6  4  1  0
  6  7  2  0
  8  6  1  0
  9  8  1  0
  9 10  1  1
 11 10  1  0
 11 12  2  0
 13 12  1  0
 14 13  2  0
 15 16  2  0
 15 14  1  0
 16 11  1  0
 17  9  1  0
 18 17  2  0
 19 20  1  0
 20 30  2  0
 20 21  1  0
 21 22  2  0
 22 23  1  0
 23 24  1  0
 25 24  1  6
 25 27  1  0
 25 26  1  0
 26 17  1  0
 27 31  1  0
 28 27  2  0
 29 23  2  0
 30 29  1  0
M  END
$$$$
