TFY.pdb
     RDKit          3D

 31 32  0  0  1  0  0  0  0  0999 V2000
   10.2886  -18.0836   18.2820 C   0  0  0  0  0  0  0  0  0  0  0  0
   10.3076  -17.0087   19.3461 C   0  0  1  0  0  0  0  0  0  0  0  0
    9.6478  -15.8685   18.8569 O   0  0  0  0  0  0  0  0  0  0  0  0
    9.6012  -17.5183   20.6079 C   0  0  2  0  0  0  0  0  0  0  0  0
    8.2029  -17.7044   20.2405 N   0  0  0  0  0  0  0  0  0  0  0  0
    9.6578  -16.4202   21.6098 C   0  0  0  0  0  0  0  0  0  0  0  0
   10.7748  -15.9593   21.9736 O   0  0  0  0  0  0  0  0  0  0  0  0
    8.4876  -15.8542   22.1884 N   0  0  0  0  0  0  0  0  0  0  0  0
    8.4836  -15.0261   23.3602 C   0  0  1  0  0  0  0  0  0  0  0  0
    7.1974  -14.2648   23.5383 C   0  0  0  0  0  0  0  0  0  0  0  0
    7.1314  -13.4848   24.7716 C   0  0  0  0  0  0  0  0  0  0  0  0
    7.7925  -12.2815   24.8839 C   0  0  0  0  0  0  0  0  0  0  0  0
    7.7373  -11.5266   26.0575 C   0  0  0  0  0  0  0  0  0  0  0  0
    7.0162  -11.9630   27.1465 C   0  0  0  0  0  0  0  0  0  0  0  0
    6.3540  -13.1652   27.0380 C   0  0  0  0  0  0  0  0  0  0  0  0
    6.4151  -13.9085   25.8669 C   0  0  0  0  0  0  0  0  0  0  0  0
    8.8947  -15.7572   24.5853 C   0  0  0  0  0  0  0  0  0  0  0  0
    8.1872  -16.7411   24.9234 O   0  0  0  0  0  0  0  0  0  0  0  0
   13.6751  -19.5849   30.9368 O   0  0  0  0  0  0  0  0  0  0  0  0
   13.2203  -18.8282   29.8864 C   0  0  0  0  0  0  0  0  0  0  0  0
   12.3352  -17.8084   30.1109 C   0  0  0  0  0  0  0  0  0  0  0  0
   11.8870  -17.0558   29.0408 C   0  0  0  0  0  0  0  0  0  0  0  0
   12.2840  -17.2775   27.7557 C   0  0  0  0  0  0  0  0  0  0  0  0
   11.8323  -16.5135   26.5773 C   0  0  0  0  0  0  0  0  0  0  0  0
   10.3631  -16.2373   26.5401 C   0  0  2  0  0  0  0  0  0  0  0  0
   10.0079  -15.4212   25.3758 N   0  0  0  0  0  0  0  0  0  0  0  0
    9.9252  -15.4921   27.7383 C   0  0  0  0  0  0  0  0  0  0  0  0
   10.1890  -14.2755   27.8400 O   0  0  0  0  0  0  0  0  0  0  0  0
   13.1877  -18.3192   27.5297 C   0  0  0  0  0  0  0  0  0  0  0  0
   13.6321  -19.0664   28.5971 C   0  0  0  0  0  0  0  0  0  0  0  0
    9.2292  -16.0928   28.7597 O   0  0  0  0  0  0  0  0  0  0  0  0
  2  1  1  6
  2  3  1  0
  4  2  1  0
  4  5  1  6
  6  4  1  0
  6  7  2  0
  8  6  1  0
  9  8  1  0
  9 10  1  1
 11 10  1  0
 11 12  2  0
 13 12  1  0
 14 13  2  0
 15 16  2  0
 15 14  1  0
 16 11  1  0
 17  9  1  0
 18 17  2  0
 19 20  1  0
 20 30  2  0
 20 21  1  0
 21 22  2  0
 22 23  1  0
 23 24  1  0
 25 24  1  1
 25 27  1  0
 25 26  1  0
 26 17  1  0
 27 31  1  0
 28 27  2  0
 29 23  2  0
 30 29  1  0
M  END
$$$$
