TFY.pdb
     RDKit          3D

 31 32  0  0  1  0  0  0  0  0999 V2000
    8.0807  -16.3245   18.5855 C   0  0  0  0  0  0  0  0  0  0  0  0
    8.5508  -15.0217   17.9774 C   0  0  1  0  0  0  0  0  0  0  0  0
    8.2661  -15.0297   16.6014 O   0  0  0  0  0  0  0  0  0  0  0  0
    7.8313  -13.8476   18.6516 C   0  0  2  0  0  0  0  0  0  0  0  0
    8.3140  -12.6433   17.9873 N   0  0  0  0  0  0  0  0  0  0  0  0
    8.3047  -13.8009   20.0611 C   0  0  0  0  0  0  0  0  0  0  0  0
    9.4957  -13.4681   20.3126 O   0  0  0  0  0  0  0  0  0  0  0  0
    7.4600  -14.1203   21.1606 N   0  0  0  0  0  0  0  0  0  0  0  0
    7.8743  -14.0926   22.5341 C   0  0  1  0  0  0  0  0  0  0  0  0
    6.7369  -13.8385   23.4867 C   0  0  0  0  0  0  0  0  0  0  0  0
    7.1522  -13.6427   24.8735 C   0  0  0  0  0  0  0  0  0  0  0  0
    7.1631  -14.6938   25.7638 C   0  0  0  0  0  0  0  0  0  0  0  0
    7.5578  -14.5195   27.0919 C   0  0  0  0  0  0  0  0  0  0  0  0
    7.9511  -13.2845   27.5572 C   0  0  0  0  0  0  0  0  0  0  0  0
    7.9415  -12.2315   26.6703 C   0  0  0  0  0  0  0  0  0  0  0  0
    7.5473  -12.4149   25.3517 C   0  0  0  0  0  0  0  0  0  0  0  0
    8.6918  -15.2720   22.9145 C   0  0  0  0  0  0  0  0  0  0  0  0
    8.2780  -16.3968   22.5314 O   0  0  0  0  0  0  0  0  0  0  0  0
   13.2292  -14.3548   18.3556 O   0  0  0  0  0  0  0  0  0  0  0  0
   12.9647  -14.8048   19.6247 C   0  0  0  0  0  0  0  0  0  0  0  0
   12.8050  -16.1444   19.8560 C   0  0  0  0  0  0  0  0  0  0  0  0
   12.5388  -16.5806   21.1411 C   0  0  0  0  0  0  0  0  0  0  0  0
   12.4249  -15.7367   22.2056 C   0  0  0  0  0  0  0  0  0  0  0  0
   12.1339  -16.1451   23.5930 C   0  0  0  0  0  0  0  0  0  0  0  0
   10.6894  -16.4111   23.8738 C   0  0  2  0  0  0  0  0  0  0  0  0
    9.8796  -15.2077   23.6642 N   0  0  0  0  0  0  0  0  0  0  0  0
   10.4820  -16.8311   25.2751 C   0  0  0  0  0  0  0  0  0  0  0  0
    9.7140  -16.1750   26.0096 O   0  0  0  0  0  0  0  0  0  0  0  0
   12.5887  -14.3697   21.9664 C   0  0  0  0  0  0  0  0  0  0  0  0
   12.8536  -13.9388   20.6860 C   0  0  0  0  0  0  0  0  0  0  0  0
   11.1097  -17.9305   25.8098 O   0  0  0  0  0  0  0  0  0  0  0  0
  2  1  1  1
  2  3  1  0
  4  2  1  0
  4  5  1  6
  6  4  1  0
  6  7  2  0
  8  6  1  0
  9  8  1  0
  9 10  1  1
 11 10  1  0
 11 12  2  0
 13 12  1  0
 14 13  2  0
 15 16  2  0
 15 14  1  0
 16 11  1  0
 17  9  1  0
 18 17  2  0
 19 20  1  0
 20 30  2  0
 20 21  1  0
 21 22  2  0
 22 23  1  0
 23 24  1  0
 25 24  1  1
 25 27  1  0
 25 26  1  0
 26 17  1  0
 27 31  1  0
 28 27  2  0
 29 23  2  0
 30 29  1  0
M  END
$$$$
