TFY.pdb
     RDKit          3D

 31 32  0  0  1  0  0  0  0  0999 V2000
    9.4173  -18.8993   20.9539 C   0  0  0  0  0  0  0  0  0  0  0  0
   10.3773  -18.1748   20.0366 C   0  0  1  0  0  0  0  0  0  0  0  0
   10.5823  -18.9509   18.8832 O   0  0  0  0  0  0  0  0  0  0  0  0
    9.7928  -16.8111   19.6500 C   0  0  2  0  0  0  0  0  0  0  0  0
   10.7570  -16.2012   18.7428 N   0  0  0  0  0  0  0  0  0  0  0  0
    9.7601  -15.9869   20.8878 C   0  0  0  0  0  0  0  0  0  0  0  0
   10.8347  -15.5305   21.3667 O   0  0  0  0  0  0  0  0  0  0  0  0
    8.5492  -15.6832   21.5704 N   0  0  0  0  0  0  0  0  0  0  0  0
    8.4719  -14.9061   22.7742 C   0  0  1  0  0  0  0  0  0  0  0  0
    7.1214  -14.2745   22.9811 C   0  0  0  0  0  0  0  0  0  0  0  0
    7.0235  -13.4564   24.1874 C   0  0  0  0  0  0  0  0  0  0  0  0
    7.4864  -12.1591   24.2019 C   0  0  0  0  0  0  0  0  0  0  0  0
    7.3987  -11.3671   25.3487 C   0  0  0  0  0  0  0  0  0  0  0  0
    6.8435  -11.8599   26.5086 C   0  0  0  0  0  0  0  0  0  0  0  0
    6.3798  -13.1562   26.4979 C   0  0  0  0  0  0  0  0  0  0  0  0
    6.4715  -13.9358   25.3527 C   0  0  0  0  0  0  0  0  0  0  0  0
    8.9519  -15.6442   23.9697 C   0  0  0  0  0  0  0  0  0  0  0  0
    8.5808  -16.8409   24.0847 O   0  0  0  0  0  0  0  0  0  0  0  0
   12.6799  -17.8036   31.7268 O   0  0  0  0  0  0  0  0  0  0  0  0
   12.3089  -17.1649   30.5704 C   0  0  0  0  0  0  0  0  0  0  0  0
   12.9025  -17.4999   29.3834 C   0  0  0  0  0  0  0  0  0  0  0  0
   12.5166  -16.8462   28.2274 C   0  0  0  0  0  0  0  0  0  0  0  0
   11.5635  -15.8718   28.2054 C   0  0  0  0  0  0  0  0  0  0  0  0
   11.1200  -15.1366   27.0057 C   0  0  0  0  0  0  0  0  0  0  0  0
   10.2269  -15.9149   26.0931 C   0  0  2  0  0  0  0  0  0  0  0  0
    9.7817  -15.0948   24.9631 N   0  0  0  0  0  0  0  0  0  0  0  0
    9.0117  -16.3772   26.7950 C   0  0  0  0  0  0  0  0  0  0  0  0
    8.0272  -15.6150   26.8931 O   0  0  0  0  0  0  0  0  0  0  0  0
   10.9592  -15.5321   29.4187 C   0  0  0  0  0  0  0  0  0  0  0  0
   11.3455  -16.1849   30.5675 C   0  0  0  0  0  0  0  0  0  0  0  0
    8.9206  -17.6302   27.3520 O   0  0  0  0  0  0  0  0  0  0  0  0
  2  1  1  1
  2  3  1  0
  4  2  1  0
  4  5  1  6
  6  4  1  0
  6  7  2  0
  8  6  1  0
  9  8  1  0
  9 10  1  1
 11 10  1  0
 11 12  2  0
 13 12  1  0
 14 13  2  0
 15 16  2  0
 15 14  1  0
 16 11  1  0
 17  9  1  0
 18 17  2  0
 19 20  1  0
 20 30  2  0
 20 21  1  0
 21 22  2  0
 22 23  1  0
 23 24  1  0
 25 24  1  1
 25 27  1  0
 25 26  1  0
 26 17  1  0
 27 31  1  0
 28 27  2  0
 29 23  2  0
 30 29  1  0
M  END
$$$$
