TFY.pdb
     RDKit          3D

 31 32  0  0  1  0  0  0  0  0999 V2000
    6.8443  -20.2357   22.5396 C   0  0  0  0  0  0  0  0  0  0  0  0
    5.6922  -19.7622   21.6813 C   0  0  1  0  0  0  0  0  0  0  0  0
    5.0432  -20.8796   21.1292 O   0  0  0  0  0  0  0  0  0  0  0  0
    4.7071  -18.9574   22.5371 C   0  0  2  0  0  0  0  0  0  0  0  0
    3.6116  -18.5862   21.6501 N   0  0  0  0  0  0  0  0  0  0  0  0
    5.4028  -17.7048   22.9367 C   0  0  0  0  0  0  0  0  0  0  0  0
    5.6091  -16.8008   22.0808 O   0  0  0  0  0  0  0  0  0  0  0  0
    5.8556  -17.4743   24.2658 N   0  0  0  0  0  0  0  0  0  0  0  0
    6.5967  -16.3171   24.6789 C   0  0  1  0  0  0  0  0  0  0  0  0
    6.3203  -15.9192   26.1040 C   0  0  0  0  0  0  0  0  0  0  0  0
    6.8230  -14.5953   26.4623 C   0  0  0  0  0  0  0  0  0  0  0  0
    8.1042  -14.4307   26.9409 C   0  0  0  0  0  0  0  0  0  0  0  0
    8.5963  -13.1705   27.2869 C   0  0  0  0  0  0  0  0  0  0  0  0
    7.8125  -12.0453   27.1603 C   0  0  0  0  0  0  0  0  0  0  0  0
    6.5314  -12.2058   26.6823 C   0  0  0  0  0  0  0  0  0  0  0  0
    6.0512  -13.4631   26.3409 C   0  0  0  0  0  0  0  0  0  0  0  0
    8.0474  -16.4242   24.3817 C   0  0  0  0  0  0  0  0  0  0  0  0
    8.5975  -17.5284   24.6294 O   0  0  0  0  0  0  0  0  0  0  0  0
    7.0092  -13.4983   18.1322 O   0  0  0  0  0  0  0  0  0  0  0  0
    7.8725  -13.7470   19.1694 C   0  0  0  0  0  0  0  0  0  0  0  0
    7.9091  -12.9028   20.2462 C   0  0  0  0  0  0  0  0  0  0  0  0
    8.7852  -13.1684   21.2827 C   0  0  0  0  0  0  0  0  0  0  0  0
    9.6269  -14.2406   21.2906 C   0  0  0  0  0  0  0  0  0  0  0  0
   10.5862  -14.5668   22.3628 C   0  0  0  0  0  0  0  0  0  0  0  0
   10.1481  -15.6660   23.2771 C   0  0  2  0  0  0  0  0  0  0  0  0
    8.8289  -15.3835   23.8494 N   0  0  0  0  0  0  0  0  0  0  0  0
   11.0830  -15.8288   24.4095 C   0  0  0  0  0  0  0  0  0  0  0  0
   12.2979  -16.0133   24.1861 O   0  0  0  0  0  0  0  0  0  0  0  0
    9.5871  -15.1008   20.1899 C   0  0  0  0  0  0  0  0  0  0  0  0
    8.7138  -14.8336   19.1598 C   0  0  0  0  0  0  0  0  0  0  0  0
   10.6629  -15.7845   25.7172 O   0  0  0  0  0  0  0  0  0  0  0  0
  2  1  1  1
  2  3  1  0
  4  2  1  0
  4  5  1  6
  6  4  1  0
  6  7  2  0
  8  6  1  0
  9  8  1  0
  9 10  1  1
 11 10  1  0
 11 12  2  0
 13 12  1  0
 14 13  2  0
 15 16  2  0
 15 14  1  0
 16 11  1  0
 17  9  1  0
 18 17  2  0
 19 20  1  0
 20 30  2  0
 20 21  1  0
 21 22  2  0
 22 23  1  0
 23 24  1  0
 25 24  1  6
 25 27  1  0
 25 26  1  0
 26 17  1  0
 27 31  1  0
 28 27  2  0
 29 23  2  0
 30 29  1  0
M  END
$$$$
