TFY.pdb
     RDKit          3D

 31 32  0  0  1  0  0  0  0  0999 V2000
    8.8782  -19.1302   20.1168 C   0  0  0  0  0  0  0  0  0  0  0  0
    9.8264  -18.4422   19.1599 C   0  0  1  0  0  0  0  0  0  0  0  0
    9.8147  -19.1266   17.9326 O   0  0  0  0  0  0  0  0  0  0  0  0
    9.3847  -16.9890   18.9504 C   0  0  2  0  0  0  0  0  0  0  0  0
   10.3602  -16.3975   18.0431 N   0  0  0  0  0  0  0  0  0  0  0  0
    9.5203  -16.3014   20.2625 C   0  0  0  0  0  0  0  0  0  0  0  0
   10.6616  -16.1586   20.7816 O   0  0  0  0  0  0  0  0  0  0  0  0
    8.4003  -15.7870   20.9736 N   0  0  0  0  0  0  0  0  0  0  0  0
    8.4719  -15.1998   22.2809 C   0  0  1  0  0  0  0  0  0  0  0  0
    7.1799  -14.5570   22.7088 C   0  0  0  0  0  0  0  0  0  0  0  0
    7.2229  -13.9600   24.0413 C   0  0  0  0  0  0  0  0  0  0  0  0
    6.6694  -14.6067   25.1244 C   0  0  0  0  0  0  0  0  0  0  0  0
    6.7039  -14.0464   26.4031 C   0  0  0  0  0  0  0  0  0  0  0  0
    7.2956  -12.8227   26.6240 C   0  0  0  0  0  0  0  0  0  0  0  0
    7.8499  -12.1733   25.5439 C   0  0  0  0  0  0  0  0  0  0  0  0
    7.8105  -12.7386   24.2764 C   0  0  0  0  0  0  0  0  0  0  0  0
    9.0191  -16.1286   23.3018 C   0  0  0  0  0  0  0  0  0  0  0  0
    8.5976  -17.3138   23.2749 O   0  0  0  0  0  0  0  0  0  0  0  0
    9.6300  -14.5637   30.9348 O   0  0  0  0  0  0  0  0  0  0  0  0
   10.1340  -14.9743   29.7263 C   0  0  0  0  0  0  0  0  0  0  0  0
   10.6064  -16.2507   29.5804 C   0  0  0  0  0  0  0  0  0  0  0  0
   11.1108  -16.6479   28.3556 C   0  0  0  0  0  0  0  0  0  0  0  0
   11.1644  -15.8255   27.2697 C   0  0  0  0  0  0  0  0  0  0  0  0
   11.6991  -16.1925   25.9447 C   0  0  0  0  0  0  0  0  0  0  0  0
   10.6975  -16.8012   25.0159 C   0  0  2  0  0  0  0  0  0  0  0  0
    9.9635  -15.7686   24.2793 N   0  0  0  0  0  0  0  0  0  0  0  0
    9.6957  -17.5990   25.7528 C   0  0  0  0  0  0  0  0  0  0  0  0
    8.5220  -17.1824   25.8470 O   0  0  0  0  0  0  0  0  0  0  0  0
   10.6812  -14.5231   27.4218 C   0  0  0  0  0  0  0  0  0  0  0  0
   10.1796  -14.1309   28.6423 C   0  0  0  0  0  0  0  0  0  0  0  0
   10.0086  -18.7979   26.3471 O   0  0  0  0  0  0  0  0  0  0  0  0
  2  1  1  1
  2  3  1  0
  4  2  1  0
  4  5  1  6
  6  4  1  0
  6  7  2  0
  8  6  1  0
  9  8  1  0
  9 10  1  1
 11 10  1  0
 11 12  2  0
 13 12  1  0
 14 13  2  0
 15 16  2  0
 15 14  1  0
 16 11  1  0
 17  9  1  0
 18 17  2  0
 19 20  1  0
 20 30  2  0
 20 21  1  0
 21 22  2  0
 22 23  1  0
 23 24  1  0
 25 24  1  1
 25 27  1  0
 25 26  1  0
 26 17  1  0
 27 31  1  0
 28 27  2  0
 29 23  2  0
 30 29  1  0
M  END
$$$$
