CSE.pdb
     RDKit          3D

 22 21  0  0  1  0  0  0  0  0999 V2000
    6.8765  -13.5733   19.1408 N   0  0  0  0  0  0  0  0  0  0  0  0
    8.2400  -13.9808   19.2331 C   0  0  1  0  0  0  0  0  0  0  0  0
    9.0714  -12.7404   19.5920 C   0  0  0  0  0  0  0  0  0  0  0  0
    9.1981  -11.6767   18.1368 S   0  0  0  0  0  0  0  0  0  0  0  0
    8.5314  -14.9954   20.2572 C   0  0  0  0  0  0  0  0  0  0  0  0
    7.9725  -14.8280   21.3847 O   0  0  0  0  0  0  0  0  0  0  0  0
    9.5869  -18.7153   19.4671 O   0  0  0  0  0  0  0  0  0  0  0  0
    9.0680  -18.4055   20.7161 C   0  0  0  0  0  0  0  0  0  0  0  0
    9.6270  -17.0585   21.1955 C   0  0  2  0  0  0  0  0  0  0  0  0
    9.3586  -16.1236   20.1180 N   0  0  0  0  0  0  0  0  0  0  0  0
   11.0795  -17.2564   21.4299 C   0  0  0  0  0  0  0  0  0  0  0  0
   11.8372  -17.0212   20.4334 O   0  0  0  0  0  0  0  0  0  0  0  0
   11.6261  -17.6714   22.6425 N   0  0  0  0  0  0  0  0  0  0  0  0
   13.0663  -17.8847   22.7632 C   0  0  1  0  0  0  0  0  0  0  0  0
   13.7021  -16.6154   22.2631 C   0  0  0  0  0  0  0  0  0  0  0  0
   14.6854  -15.9766   23.1802 C   0  0  0  0  0  0  0  0  0  0  0  0
   15.8395  -15.3393   22.5245 C   0  0  0  0  0  0  0  0  0  0  0  0
   15.8522  -15.0626   21.2747 O   0  0  0  0  0  0  0  0  0  0  0  0
   13.4644  -18.3598   24.0675 C   0  0  0  0  0  0  0  0  0  0  0  0
   14.5757  -18.9609   24.2789 O   0  0  0  0  0  0  0  0  0  0  0  0
   16.9840  -15.0037   23.2382 O   0  0  0  0  0  0  0  0  0  0  0  0
   12.6900  -18.2053   25.2278 O   0  0  0  0  0  0  0  0  0  0  0  0
  2  5  1  0
  2  1  1  1
  2  3  1  0
  3  4  1  0
  5 10  1  0
  6  5  2  0
  8  7  1  0
  9  8  1  6
 10  9  1  0
 11 12  2  0
 11  9  1  0
 13 11  1  0
 14 15  1  1
 14 13  1  0
 15 16  1  0
 16 17  1  0
 17 18  2  0
 19 14  1  0
 20 19  2  0
 21 17  1  0
 22 19  1  0
M  END
$$$$
