CSE.pdb
     RDKit          3D

 22 21  0  0  1  0  0  0  0  0999 V2000
    8.7009  -17.1519   16.0629 N   0  0  0  0  0  0  0  0  0  0  0  0
    7.9682  -17.2471   17.2827 C   0  0  1  0  0  0  0  0  0  0  0  0
    7.9080  -18.7313   17.6728 C   0  0  0  0  0  0  0  0  0  0  0  0
    6.5847  -19.5314   16.7380 S   0  0  0  0  0  0  0  0  0  0  0  0
    8.5487  -16.5322   18.4294 C   0  0  0  0  0  0  0  0  0  0  0  0
    9.8083  -16.3755   18.4109 O   0  0  0  0  0  0  0  0  0  0  0  0
    6.6295  -15.7794   21.9793 O   0  0  0  0  0  0  0  0  0  0  0  0
    7.3482  -14.7113   21.4618 C   0  0  0  0  0  0  0  0  0  0  0  0
    8.4952  -15.2292   20.5826 C   0  0  2  0  0  0  0  0  0  0  0  0
    7.8582  -16.0077   19.5361 N   0  0  0  0  0  0  0  0  0  0  0  0
    9.3661  -16.0543   21.4570 C   0  0  0  0  0  0  0  0  0  0  0  0
    9.1032  -17.3005   21.4812 O   0  0  0  0  0  0  0  0  0  0  0  0
   10.4145  -15.5450   22.2205 N   0  0  0  0  0  0  0  0  0  0  0  0
   11.2481  -16.4443   23.0145 C   0  0  1  0  0  0  0  0  0  0  0  0
   12.6583  -15.9523   22.8271 C   0  0  0  0  0  0  0  0  0  0  0  0
   13.7105  -16.6984   23.5703 C   0  0  0  0  0  0  0  0  0  0  0  0
   15.0854  -16.2052   23.3845 C   0  0  0  0  0  0  0  0  0  0  0  0
   15.3459  -14.9773   23.1336 O   0  0  0  0  0  0  0  0  0  0  0  0
   10.7758  -16.6117   24.3688 C   0  0  0  0  0  0  0  0  0  0  0  0
   11.2513  -17.4940   25.1667 O   0  0  0  0  0  0  0  0  0  0  0  0
   16.1792  -17.0582   23.4732 O   0  0  0  0  0  0  0  0  0  0  0  0
    9.7663  -15.8283   24.9492 O   0  0  0  0  0  0  0  0  0  0  0  0
  2  5  1  0
  2  1  1  6
  2  3  1  0
  3  4  1  0
  5 10  1  0
  6  5  2  0
  8  7  1  0
  9  8  1  1
 10  9  1  0
 11 12  2  0
 11  9  1  0
 13 11  1  0
 14 15  1  1
 14 13  1  0
 15 16  1  0
 16 17  1  0
 17 18  2  0
 19 14  1  0
 20 19  2  0
 21 17  1  0
 22 19  1  0
M  END
$$$$
