CSE.pdb
     RDKit          3D

 22 21  0  0  1  0  0  0  0  0999 V2000
   10.0052  -16.3968   17.7322 N   0  0  0  0  0  0  0  0  0  0  0  0
    9.7020  -17.0491   18.9636 C   0  0  1  0  0  0  0  0  0  0  0  0
   10.2929  -18.4651   18.8960 C   0  0  0  0  0  0  0  0  0  0  0  0
    9.0808  -19.5723   18.1410 S   0  0  0  0  0  0  0  0  0  0  0  0
   10.2568  -16.4171   20.1702 C   0  0  0  0  0  0  0  0  0  0  0  0
   11.4196  -15.9207   20.0568 O   0  0  0  0  0  0  0  0  0  0  0  0
    9.7037  -15.0174   24.7998 O   0  0  0  0  0  0  0  0  0  0  0  0
    9.1694  -15.5022   23.6146 C   0  0  0  0  0  0  0  0  0  0  0  0
   10.2922  -15.7505   22.5974 C   0  0  2  0  0  0  0  0  0  0  0  0
    9.6372  -16.3063   21.4274 N   0  0  0  0  0  0  0  0  0  0  0  0
   11.2383  -16.7049   23.2282 C   0  0  0  0  0  0  0  0  0  0  0  0
   10.8598  -17.9208   23.2571 O   0  0  0  0  0  0  0  0  0  0  0  0
   12.4708  -16.3424   23.7677 N   0  0  0  0  0  0  0  0  0  0  0  0
   13.3688  -17.3651   24.2982 C   0  0  1  0  0  0  0  0  0  0  0  0
   14.7132  -17.0730   23.6874 C   0  0  0  0  0  0  0  0  0  0  0  0
   15.3160  -15.7590   24.0425 C   0  0  0  0  0  0  0  0  0  0  0  0
   16.6044  -15.4594   23.3956 C   0  0  0  0  0  0  0  0  0  0  0  0
   17.6790  -15.2655   24.0637 O   0  0  0  0  0  0  0  0  0  0  0  0
   13.3036  -17.4907   25.7353 C   0  0  0  0  0  0  0  0  0  0  0  0
   12.5433  -16.7603   26.4631 O   0  0  0  0  0  0  0  0  0  0  0  0
   16.7177  -15.3713   22.0132 O   0  0  0  0  0  0  0  0  0  0  0  0
   14.0490  -18.4217   26.4752 O   0  0  0  0  0  0  0  0  0  0  0  0
  2  5  1  0
  2  1  1  6
  2  3  1  0
  3  4  1  0
  5 10  1  0
  6  5  2  0
  8  7  1  0
  9  8  1  1
 10  9  1  0
 11 12  2  0
 11  9  1  0
 13 11  1  0
 14 15  1  1
 14 13  1  0
 15 16  1  0
 16 17  1  0
 17 18  2  0
 19 14  1  0
 20 19  2  0
 21 17  1  0
 22 19  1  0
M  END
$$$$
