CSE.pdb
     RDKit          3D

 22 21  0  0  1  0  0  0  0  0999 V2000
    9.6625  -16.2064   18.8419 N   0  0  0  0  0  0  0  0  0  0  0  0
    8.7951  -15.9571   19.9462 C   0  0  1  0  0  0  0  0  0  0  0  0
    7.8316  -17.1479   20.0571 C   0  0  0  0  0  0  0  0  0  0  0  0
    8.7228  -18.5632   20.7409 S   0  0  0  0  0  0  0  0  0  0  0  0
    9.4545  -15.8241   21.2540 C   0  0  0  0  0  0  0  0  0  0  0  0
   10.7052  -16.0413   21.2740 O   0  0  0  0  0  0  0  0  0  0  0  0
    7.4211  -15.1000   24.7180 O   0  0  0  0  0  0  0  0  0  0  0  0
    8.6582  -14.4790   24.6215 C   0  0  0  0  0  0  0  0  0  0  0  0
    9.5853  -15.2979   23.7123 C   0  0  2  0  0  0  0  0  0  0  0  0
    8.8480  -15.4836   22.4758 N   0  0  0  0  0  0  0  0  0  0  0  0
    9.8523  -16.5783   24.4145 C   0  0  0  0  0  0  0  0  0  0  0  0
    9.0525  -17.5329   24.1466 O   0  0  0  0  0  0  0  0  0  0  0  0
   10.8964  -16.7722   25.3166 N   0  0  0  0  0  0  0  0  0  0  0  0
   11.0821  -18.0727   25.9554 C   0  0  1  0  0  0  0  0  0  0  0  0
   12.4674  -18.5152   25.5668 C   0  0  0  0  0  0  0  0  0  0  0  0
   12.9336  -19.7939   26.1697 C   0  0  0  0  0  0  0  0  0  0  0  0
   14.3005  -20.2028   25.8056 C   0  0  0  0  0  0  0  0  0  0  0  0
   14.5377  -21.0685   24.8930 O   0  0  0  0  0  0  0  0  0  0  0  0
   10.7545  -18.0685   27.3618 C   0  0  0  0  0  0  0  0  0  0  0  0
   10.6478  -19.1412   28.0539 O   0  0  0  0  0  0  0  0  0  0  0  0
   15.4119  -19.6630   26.4421 O   0  0  0  0  0  0  0  0  0  0  0  0
   10.5319  -16.9028   28.1111 O   0  0  0  0  0  0  0  0  0  0  0  0
  2  5  1  0
  2  1  1  6
  2  3  1  0
  3  4  1  0
  5 10  1  0
  6  5  2  0
  8  7  1  0
  9  8  1  1
 10  9  1  0
 11 12  2  0
 11  9  1  0
 13 11  1  0
 14 15  1  1
 14 13  1  0
 15 16  1  0
 16 17  1  0
 17 18  2  0
 19 14  1  0
 20 19  2  0
 21 17  1  0
 22 19  1  0
M  END
$$$$
