CSE.pdb
     RDKit          3D

 22 21  0  0  1  0  0  0  0  0999 V2000
    8.9116  -17.1102   16.3585 N   0  0  0  0  0  0  0  0  0  0  0  0
    8.2635  -17.3557   17.6049 C   0  0  1  0  0  0  0  0  0  0  0  0
    8.4631  -18.8395   17.9470 C   0  0  0  0  0  0  0  0  0  0  0  0
    7.6852  -19.1850   19.5409 S   0  0  0  0  0  0  0  0  0  0  0  0
    8.7751  -16.5860   18.7489 C   0  0  0  0  0  0  0  0  0  0  0  0
   10.0380  -16.5349   18.8683 O   0  0  0  0  0  0  0  0  0  0  0  0
    6.6123  -15.6842   22.1412 O   0  0  0  0  0  0  0  0  0  0  0  0
    7.4087  -14.6604   21.6485 C   0  0  0  0  0  0  0  0  0  0  0  0
    8.5967  -15.2480   20.8738 C   0  0  2  0  0  0  0  0  0  0  0  0
    8.0162  -15.9054   19.7171 N   0  0  0  0  0  0  0  0  0  0  0  0
    9.2762  -16.1993   21.7887 C   0  0  0  0  0  0  0  0  0  0  0  0
    9.6300  -17.3078   21.2703 O   0  0  0  0  0  0  0  0  0  0  0  0
    9.5325  -15.9422   23.1339 N   0  0  0  0  0  0  0  0  0  0  0  0
   10.6350  -16.6185   23.8131 C   0  0  1  0  0  0  0  0  0  0  0  0
   11.8641  -16.2847   23.0108 C   0  0  0  0  0  0  0  0  0  0  0  0
   13.1580  -16.7497   23.5813 C   0  0  0  0  0  0  0  0  0  0  0  0
   14.3573  -16.3803   22.8111 C   0  0  0  0  0  0  0  0  0  0  0  0
   15.2616  -15.6046   23.2793 O   0  0  0  0  0  0  0  0  0  0  0  0
   10.6754  -16.3574   25.2327 C   0  0  0  0  0  0  0  0  0  0  0  0
   10.1592  -15.3113   25.7621 O   0  0  0  0  0  0  0  0  0  0  0  0
   14.5682  -16.8608   21.5241 O   0  0  0  0  0  0  0  0  0  0  0  0
   11.2679  -17.2168   26.1710 O   0  0  0  0  0  0  0  0  0  0  0  0
  2  5  1  0
  2  1  1  6
  2  3  1  0
  3  4  1  0
  5 10  1  0
  6  5  2  0
  8  7  1  0
  9  8  1  1
 10  9  1  0
 11 12  2  0
 11  9  1  0
 13 11  1  0
 14 15  1  6
 14 13  1  0
 15 16  1  0
 16 17  1  0
 17 18  2  0
 19 14  1  0
 20 19  2  0
 21 17  1  0
 22 19  1  0
M  END
$$$$
