CSE.pdb
     RDKit          3D

 22 21  0  0  1  0  0  0  0  0999 V2000
   10.2366  -16.7821   17.9005 N   0  0  0  0  0  0  0  0  0  0  0  0
    9.5153  -16.9967   19.1118 C   0  0  1  0  0  0  0  0  0  0  0  0
    9.5201  -18.5065   19.3932 C   0  0  0  0  0  0  0  0  0  0  0  0
    8.0203  -19.2383   18.7002 S   0  0  0  0  0  0  0  0  0  0  0  0
   10.0712  -16.3427   20.3061 C   0  0  0  0  0  0  0  0  0  0  0  0
   11.2556  -15.8983   20.1997 O   0  0  0  0  0  0  0  0  0  0  0  0
    8.1219  -16.1429   23.9405 O   0  0  0  0  0  0  0  0  0  0  0  0
    8.8967  -15.0505   23.5776 C   0  0  0  0  0  0  0  0  0  0  0  0
   10.0561  -15.5062   22.6803 C   0  0  2  0  0  0  0  0  0  0  0  0
    9.4315  -16.1597   21.5446 N   0  0  0  0  0  0  0  0  0  0  0  0
   10.8835  -16.4363   23.4890 C   0  0  0  0  0  0  0  0  0  0  0  0
   10.5449  -17.6633   23.4389 O   0  0  0  0  0  0  0  0  0  0  0  0
   11.9689  -16.0409   24.2681 N   0  0  0  0  0  0  0  0  0  0  0  0
   12.6809  -17.0203   25.0854 C   0  0  1  0  0  0  0  0  0  0  0  0
   14.1333  -16.6348   24.9972 C   0  0  0  0  0  0  0  0  0  0  0  0
   14.6627  -16.4080   23.6245 C   0  0  0  0  0  0  0  0  0  0  0  0
   16.0918  -16.0615   23.5477 C   0  0  0  0  0  0  0  0  0  0  0  0
   16.8258  -15.9418   24.5896 O   0  0  0  0  0  0  0  0  0  0  0  0
   12.1139  -17.1823   26.4035 C   0  0  0  0  0  0  0  0  0  0  0  0
   12.5836  -18.0049   27.2659 O   0  0  0  0  0  0  0  0  0  0  0  0
   16.7201  -15.8447   22.3271 O   0  0  0  0  0  0  0  0  0  0  0  0
   11.0091  -16.4569   26.8759 O   0  0  0  0  0  0  0  0  0  0  0  0
  2  5  1  0
  2  1  1  6
  2  3  1  0
  3  4  1  0
  5 10  1  0
  6  5  2  0
  8  7  1  0
  9  8  1  1
 10  9  1  0
 11 12  2  0
 11  9  1  0
 13 11  1  0
 14 15  1  1
 14 13  1  0
 15 16  1  0
 16 17  1  0
 17 18  2  0
 19 14  1  0
 20 19  2  0
 21 17  1  0
 22 19  1  0
M  END
$$$$
