CSE.pdb
     RDKit          3D

 22 21  0  0  1  0  0  0  0  0999 V2000
    7.6337  -15.0671   20.7003 N   0  0  0  0  0  0  0  0  0  0  0  0
    7.0555  -15.2653   21.9888 C   0  0  1  0  0  0  0  0  0  0  0  0
    7.0473  -16.7759   22.2659 C   0  0  0  0  0  0  0  0  0  0  0  0
    6.2850  -17.0738   23.8769 S   0  0  0  0  0  0  0  0  0  0  0  0
    7.7696  -14.6344   23.1090 C   0  0  0  0  0  0  0  0  0  0  0  0
    9.0370  -14.6982   23.0708 O   0  0  0  0  0  0  0  0  0  0  0  0
    5.8758  -13.4388   26.4855 O   0  0  0  0  0  0  0  0  0  0  0  0
    6.9787  -12.6557   26.1765 C   0  0  0  0  0  0  0  0  0  0  0  0
    7.9717  -13.4619   25.3275 C   0  0  2  0  0  0  0  0  0  0  0  0
    7.1986  -13.9722   24.2099 N   0  0  0  0  0  0  0  0  0  0  0  0
    8.4991  -14.5435   26.1969 C   0  0  0  0  0  0  0  0  0  0  0  0
    7.7646  -15.5793   26.2977 O   0  0  0  0  0  0  0  0  0  0  0  0
    9.7122  -14.4765   26.8789 N   0  0  0  0  0  0  0  0  0  0  0  0
   10.0838  -15.5299   27.8203 C   0  0  1  0  0  0  0  0  0  0  0  0
   11.4129  -16.0466   27.3384 C   0  0  0  0  0  0  0  0  0  0  0  0
   11.4769  -16.4347   25.9027 C   0  0  0  0  0  0  0  0  0  0  0  0
   12.7717  -16.9702   25.4500 C   0  0  0  0  0  0  0  0  0  0  0  0
   13.7592  -17.1424   26.2462 O   0  0  0  0  0  0  0  0  0  0  0  0
    9.9904  -15.1186   29.2014 C   0  0  0  0  0  0  0  0  0  0  0  0
   10.2524  -15.9032   30.1796 O   0  0  0  0  0  0  0  0  0  0  0  0
   12.9873  -17.3182   24.1218 O   0  0  0  0  0  0  0  0  0  0  0  0
    9.6176  -13.8292   29.6115 O   0  0  0  0  0  0  0  0  0  0  0  0
  2  5  1  0
  2  1  1  6
  2  3  1  0
  3  4  1  0
  5 10  1  0
  6  5  2  0
  8  7  1  0
  9  8  1  1
 10  9  1  0
 11 12  2  0
 11  9  1  0
 13 11  1  0
 14 15  1  6
 14 13  1  0
 15 16  1  0
 16 17  1  0
 17 18  2  0
 19 14  1  0
 20 19  2  0
 21 17  1  0
 22 19  1  0
M  END
$$$$
