CSE.pdb
     RDKit          3D

 22 21  0  0  1  0  0  0  0  0999 V2000
    8.3075  -14.5334   13.2348 N   0  0  0  0  0  0  0  0  0  0  0  0
    7.8538  -14.9491   14.5213 C   0  0  1  0  0  0  0  0  0  0  0  0
    8.0353  -16.4717   14.6073 C   0  0  0  0  0  0  0  0  0  0  0  0
    6.6944  -17.2756   13.7013 S   0  0  0  0  0  0  0  0  0  0  0  0
    8.5751  -14.3724   15.6658 C   0  0  0  0  0  0  0  0  0  0  0  0
    9.8059  -14.1218   15.4820 O   0  0  0  0  0  0  0  0  0  0  0  0
    7.3037  -14.3447   19.6144 O   0  0  0  0  0  0  0  0  0  0  0  0
    7.8025  -13.1517   19.1114 C   0  0  0  0  0  0  0  0  0  0  0  0
    8.8125  -13.4377   17.9911 C   0  0  2  0  0  0  0  0  0  0  0  0
    8.0467  -14.0717   16.9335 N   0  0  0  0  0  0  0  0  0  0  0  0
    9.8451  -14.3369   18.5647 C   0  0  0  0  0  0  0  0  0  0  0  0
    9.6711  -15.5815   18.3572 O   0  0  0  0  0  0  0  0  0  0  0  0
   10.9499  -13.8958   19.2902 N   0  0  0  0  0  0  0  0  0  0  0  0
   11.9477  -14.8530   19.7617 C   0  0  1  0  0  0  0  0  0  0  0  0
   13.2806  -14.2132   19.4793 C   0  0  0  0  0  0  0  0  0  0  0  0
   14.4767  -14.9865   19.9122 C   0  0  0  0  0  0  0  0  0  0  0  0
   15.7734  -14.3316   19.6719 C   0  0  0  0  0  0  0  0  0  0  0  0
   16.2421  -13.4308   20.4513 O   0  0  0  0  0  0  0  0  0  0  0  0
   11.7026  -15.3147   21.1078 C   0  0  0  0  0  0  0  0  0  0  0  0
   12.3547  -16.2799   21.6411 O   0  0  0  0  0  0  0  0  0  0  0  0
   16.5602  -14.6629   18.5750 O   0  0  0  0  0  0  0  0  0  0  0  0
   10.7437  -14.7546   21.9661 O   0  0  0  0  0  0  0  0  0  0  0  0
  2  5  1  0
  2  1  1  6
  2  3  1  0
  3  4  1  0
  5 10  1  0
  6  5  2  0
  8  7  1  0
  9  8  1  1
 10  9  1  0
 11 12  2  0
 11  9  1  0
 13 11  1  0
 14 15  1  1
 14 13  1  0
 15 16  1  0
 16 17  1  0
 17 18  2  0
 19 14  1  0
 20 19  2  0
 21 17  1  0
 22 19  1  0
M  END
$$$$
