EHD.pdb
     RDKit          3D

 28 28  0  0  1  0  0  0  0  0999 V2000
   20.9161  -13.5137  -16.3789 N   0  0  0  0  0  0  0  0  0  0  0  0
   20.1275  -12.2874  -16.5801 C   0  0  1  0  0  0  0  0  0  0  0  0
   18.9665  -12.3641  -15.6486 C   0  0  0  0  0  0  0  0  0  0  0  0
   17.9782  -13.4362  -15.9491 C   0  0  0  0  0  0  0  0  0  0  0  0
   16.7916  -13.4449  -15.0963 C   0  0  0  0  0  0  0  0  0  0  0  0
   16.4761  -12.4466  -14.4049 O   0  0  0  0  0  0  0  0  0  0  0  0
   21.0063  -11.1196  -16.3169 C   0  0  0  0  0  0  0  0  0  0  0  0
   21.8936  -11.1772  -15.4349 O   0  0  0  0  0  0  0  0  0  0  0  0
   15.9821  -14.5660  -15.0323 O   0  0  0  0  0  0  0  0  0  0  0  0
   20.8803   -9.8896  -17.0509 N   0  0  0  0  0  0  0  0  0  0  0  0
   21.8528   -8.8639  -16.8825 C   0  0  1  0  0  0  0  0  0  0  0  0
   22.6683   -8.5604  -18.0825 C   0  0  0  0  0  0  0  0  0  0  0  0
   23.5949   -9.5821  -18.5479 C   0  0  0  0  0  0  0  0  0  0  0  0
   24.8583   -9.8988  -18.1383 C   0  0  0  0  0  0  0  0  0  0  0  0
   25.3522  -10.9647  -18.8427 N   0  0  0  0  0  0  0  0  0  0  0  0
   24.3625  -11.2850  -19.6841 C   0  0  0  0  0  0  0  0  0  0  0  0
   23.3147  -10.4915  -19.5364 N   0  0  0  0  0  0  0  0  0  0  0  0
   21.2726   -7.6208  -16.3051 C   0  0  0  0  0  0  0  0  0  0  0  0
   20.1250   -7.2940  -16.6546 O   0  0  0  0  0  0  0  0  0  0  0  0
   21.9899   -6.8287  -15.3897 N   0  0  0  0  0  0  0  0  0  0  0  0
   21.4400   -5.5372  -14.9493 C   0  0  1  0  0  0  0  0  0  0  0  0
   22.2992   -4.9459  -13.8780 C   0  0  0  0  0  0  0  0  0  0  0  0
   21.8260   -3.6364  -13.3820 C   0  0  0  0  0  0  0  0  0  0  0  0
   22.3160   -2.5411  -13.7445 O   0  0  0  0  0  0  0  0  0  0  0  0
   21.3441   -4.6239  -16.1054 C   0  0  0  0  0  0  0  0  0  0  0  0
   20.2589   -3.8255  -16.3657 O   0  0  0  0  0  0  0  0  0  0  0  0
   20.7843   -3.5831  -12.4642 O   0  0  0  0  0  0  0  0  0  0  0  0
   22.3198   -4.5701  -16.9104 O   0  0  0  0  0  0  0  0  0  0  0  0
  2  1  1  1
  2  3  1  0
  4  3  1  0
  5  4  1  0
  6  5  2  0
  7  2  1  0
  7  8  2  0
  9  5  1  0
 10  7  1  0
 11 10  1  0
 11 12  1  6
 12 13  1  0
 13 17  1  0
 14 13  2  0
 14 15  1  0
 15 16  1  0
 17 16  2  0
 18 11  1  0
 19 18  2  0
 20 18  1  0
 21 20  1  0
 21 22  1  1
 23 22  1  0
 24 23  2  0
 25 21  1  0
 26 25  1  0
 27 23  1  0
 28 25  2  0
M  END
$$$$
