EHD.pdb
     RDKit          3D

 28 28  0  0  1  0  0  0  0  0999 V2000
   22.6160  -14.5770  -17.1681 N   0  0  0  0  0  0  0  0  0  0  0  0
   22.8578  -13.6538  -16.0476 C   0  0  1  0  0  0  0  0  0  0  0  0
   24.3157  -13.3441  -16.0516 C   0  0  0  0  0  0  0  0  0  0  0  0
   25.2100  -14.4822  -15.7031 C   0  0  0  0  0  0  0  0  0  0  0  0
   26.6344  -14.1601  -15.6497 C   0  0  0  0  0  0  0  0  0  0  0  0
   27.0681  -13.0483  -16.0364 O   0  0  0  0  0  0  0  0  0  0  0  0
   22.0087  -12.4512  -16.2428 C   0  0  0  0  0  0  0  0  0  0  0  0
   21.7599  -12.0283  -17.3951 O   0  0  0  0  0  0  0  0  0  0  0  0
   27.5446  -15.0843  -15.1663 O   0  0  0  0  0  0  0  0  0  0  0  0
   21.4428  -11.7295  -15.1354 N   0  0  0  0  0  0  0  0  0  0  0  0
   20.6168  -10.5961  -15.3792 C   0  0  1  0  0  0  0  0  0  0  0  0
   19.1753  -10.7887  -15.0928 C   0  0  0  0  0  0  0  0  0  0  0  0
   18.4570  -11.7859  -15.8731 C   0  0  0  0  0  0  0  0  0  0  0  0
   17.6761  -11.6598  -16.9860 C   0  0  0  0  0  0  0  0  0  0  0  0
   17.2203  -12.8803  -17.4091 N   0  0  0  0  0  0  0  0  0  0  0  0
   17.7418  -13.7444  -16.5308 C   0  0  0  0  0  0  0  0  0  0  0  0
   18.4744  -13.1334  -15.6147 N   0  0  0  0  0  0  0  0  0  0  0  0
   21.1310   -9.3660  -14.7175 C   0  0  0  0  0  0  0  0  0  0  0  0
   21.5225   -9.4553  -13.5408 O   0  0  0  0  0  0  0  0  0  0  0  0
   21.1788   -8.1317  -15.3912 N   0  0  0  0  0  0  0  0  0  0  0  0
   21.7299   -6.9476  -14.7142 C   0  0  1  0  0  0  0  0  0  0  0  0
   21.9907   -5.8583  -15.7045 C   0  0  0  0  0  0  0  0  0  0  0  0
   22.5194   -4.6148  -15.1054 C   0  0  0  0  0  0  0  0  0  0  0  0
   23.4033   -4.5963  -14.2168 O   0  0  0  0  0  0  0  0  0  0  0  0
   20.7863   -6.4926  -13.6737 C   0  0  0  0  0  0  0  0  0  0  0  0
   19.5350   -7.0235  -13.4863 O   0  0  0  0  0  0  0  0  0  0  0  0
   22.0312   -3.3847  -15.5284 O   0  0  0  0  0  0  0  0  0  0  0  0
   21.1480   -5.5546  -12.9041 O   0  0  0  0  0  0  0  0  0  0  0  0
  2  1  1  6
  2  3  1  0
  4  3  1  0
  5  4  1  0
  6  5  2  0
  7  2  1  0
  7  8  2  0
  9  5  1  0
 10  7  1  0
 11 10  1  0
 11 12  1  1
 12 13  1  0
 13 17  1  0
 14 13  2  0
 14 15  1  0
 15 16  1  0
 17 16  2  0
 18 11  1  0
 19 18  2  0
 20 18  1  0
 21 20  1  0
 21 22  1  6
 23 22  1  0
 24 23  2  0
 25 21  1  0
 26 25  1  0
 27 23  1  0
 28 25  2  0
M  END
$$$$
