EHD.pdb
     RDKit          3D

 28 28  0  0  1  0  0  0  0  0999 V2000
   19.2108  -10.6546  -17.2883 N   0  0  0  0  0  0  0  0  0  0  0  0
   20.4577  -10.0521  -16.7902 C   0  0  1  0  0  0  0  0  0  0  0  0
   21.1544   -9.4659  -17.9702 C   0  0  0  0  0  0  0  0  0  0  0  0
   21.9344  -10.4303  -18.7937 C   0  0  0  0  0  0  0  0  0  0  0  0
   23.0237  -11.1072  -18.0932 C   0  0  0  0  0  0  0  0  0  0  0  0
   22.8070  -12.0838  -17.3360 O   0  0  0  0  0  0  0  0  0  0  0  0
   20.1080   -9.0401  -15.7612 C   0  0  0  0  0  0  0  0  0  0  0  0
   19.1064   -8.3028  -15.9086 O   0  0  0  0  0  0  0  0  0  0  0  0
   24.3312  -10.6810  -18.2517 O   0  0  0  0  0  0  0  0  0  0  0  0
   20.8910   -8.8637  -14.5681 N   0  0  0  0  0  0  0  0  0  0  0  0
   20.5653   -7.8189  -13.6578 C   0  0  1  0  0  0  0  0  0  0  0  0
   20.8994   -8.0873  -12.2388 C   0  0  0  0  0  0  0  0  0  0  0  0
   20.5870   -7.0539  -11.2623 C   0  0  0  0  0  0  0  0  0  0  0  0
   21.3334   -6.0124  -10.7909 C   0  0  0  0  0  0  0  0  0  0  0  0
   20.6213   -5.2626   -9.8925 N   0  0  0  0  0  0  0  0  0  0  0  0
   19.4315   -5.8713   -9.8319 C   0  0  0  0  0  0  0  0  0  0  0  0
   19.3782   -6.9281  -10.6254 N   0  0  0  0  0  0  0  0  0  0  0  0
   21.1033   -6.5004  -14.0909 C   0  0  0  0  0  0  0  0  0  0  0  0
   22.2979   -6.4394  -14.4304 O   0  0  0  0  0  0  0  0  0  0  0  0
   20.2959   -5.3485  -14.1203 N   0  0  0  0  0  0  0  0  0  0  0  0
   20.8697   -4.0614  -14.5426 C   0  0  1  0  0  0  0  0  0  0  0  0
   20.7820   -3.9168  -16.0281 C   0  0  0  0  0  0  0  0  0  0  0  0
   21.1954   -2.5889  -16.5285 C   0  0  0  0  0  0  0  0  0  0  0  0
   22.3326   -2.0991  -16.3329 O   0  0  0  0  0  0  0  0  0  0  0  0
   20.1553   -2.9597  -13.8675 C   0  0  0  0  0  0  0  0  0  0  0  0
   19.0042   -3.1231  -13.1389 O   0  0  0  0  0  0  0  0  0  0  0  0
   20.2988   -1.8180  -17.2581 O   0  0  0  0  0  0  0  0  0  0  0  0
   20.6287   -1.7893  -13.9637 O   0  0  0  0  0  0  0  0  0  0  0  0
  2  1  1  6
  2  3  1  0
  4  3  1  0
  5  4  1  0
  6  5  2  0
  7  2  1  0
  7  8  2  0
  9  5  1  0
 10  7  1  0
 11 10  1  0
 11 12  1  1
 12 13  1  0
 13 17  1  0
 14 13  2  0
 14 15  1  0
 15 16  1  0
 17 16  2  0
 18 11  1  0
 19 18  2  0
 20 18  1  0
 21 20  1  0
 21 22  1  6
 23 22  1  0
 24 23  2  0
 25 21  1  0
 26 25  1  0
 27 23  1  0
 28 25  2  0
M  END
$$$$
