EHD.pdb
     RDKit          3D

 28 28  0  0  1  0  0  0  0  0999 V2000
   27.2978  -34.0577   -5.6485 N   0  0  0  0  0  0  0  0  0  0  0  0
   26.1159  -34.4711   -4.8750 C   0  0  1  0  0  0  0  0  0  0  0  0
   26.3063  -35.9093   -4.5330 C   0  0  0  0  0  0  0  0  0  0  0  0
   27.5573  -36.2276   -3.7913 C   0  0  0  0  0  0  0  0  0  0  0  0
   27.3697  -36.6278   -2.3984 C   0  0  0  0  0  0  0  0  0  0  0  0
   28.1439  -36.2312   -1.4943 O   0  0  0  0  0  0  0  0  0  0  0  0
   26.0138  -33.5987   -3.6776 C   0  0  0  0  0  0  0  0  0  0  0  0
   26.9935  -32.9138   -3.3041 O   0  0  0  0  0  0  0  0  0  0  0  0
   26.3231  -37.4613   -2.0431 O   0  0  0  0  0  0  0  0  0  0  0  0
   24.8048  -33.5023   -2.9051 N   0  0  0  0  0  0  0  0  0  0  0  0
   24.7456  -32.6147   -1.7939 C   0  0  1  0  0  0  0  0  0  0  0  0
   23.4015  -32.0692   -1.4891 C   0  0  0  0  0  0  0  0  0  0  0  0
   23.1878  -30.6433   -1.6899 C   0  0  0  0  0  0  0  0  0  0  0  0
   24.0209  -29.6709   -2.1636 C   0  0  0  0  0  0  0  0  0  0  0  0
   23.3854  -28.4585   -2.2133 N   0  0  0  0  0  0  0  0  0  0  0  0
   22.1533  -28.7185   -1.7612 C   0  0  0  0  0  0  0  0  0  0  0  0
   22.0041  -29.9940   -1.4449 N   0  0  0  0  0  0  0  0  0  0  0  0
   25.3757  -33.1894   -0.5741 C   0  0  0  0  0  0  0  0  0  0  0  0
   25.6845  -34.3938   -0.5876 O   0  0  0  0  0  0  0  0  0  0  0  0
   25.6209  -32.4053    0.5682 N   0  0  0  0  0  0  0  0  0  0  0  0
   26.1682  -33.0296    1.7826 C   0  0  1  0  0  0  0  0  0  0  0  0
   27.6459  -32.8145    1.8555 C   0  0  0  0  0  0  0  0  0  0  0  0
   28.2860  -33.4317    3.0363 C   0  0  0  0  0  0  0  0  0  0  0  0
   27.6627  -34.1126    3.8843 O   0  0  0  0  0  0  0  0  0  0  0  0
   25.4988  -32.4636    2.9707 C   0  0  0  0  0  0  0  0  0  0  0  0
   25.2655  -33.1638    4.1275 O   0  0  0  0  0  0  0  0  0  0  0  0
   29.6496  -33.2667    3.2456 O   0  0  0  0  0  0  0  0  0  0  0  0
   25.1132  -31.2585    2.9253 O   0  0  0  0  0  0  0  0  0  0  0  0
  2  1  1  6
  2  3  1  0
  4  3  1  0
  5  4  1  0
  6  5  2  0
  7  2  1  0
  7  8  2  0
  9  5  1  0
 10  7  1  0
 11 10  1  0
 11 12  1  1
 12 13  1  0
 13 17  1  0
 14 13  2  0
 14 15  1  0
 15 16  1  0
 17 16  2  0
 18 11  1  0
 19 18  2  0
 20 18  1  0
 21 20  1  0
 21 22  1  1
 23 22  1  0
 24 23  2  0
 25 21  1  0
 26 25  1  0
 27 23  1  0
 28 25  2  0
M  END
$$$$
