RAQ.pdb
     RDKit          3D

 26 25  0  0  1  0  0  0  0  0999 V2000
    8.7391  -12.6172   17.7136 N   0  0  0  0  0  0  0  0  0  0  0  0
    8.4717  -13.9375   17.2506 C   0  0  0  0  0  0  0  0  0  0  0  0
    7.8372  -14.0739   16.1489 N   0  0  0  0  0  0  0  0  0  0  0  0
    8.9141  -15.0418   18.0204 N   0  0  0  0  0  0  0  0  0  0  0  0
    8.7682  -14.9805   19.4843 C   0  0  0  0  0  0  0  0  0  0  0  0
    8.0828  -16.2163   19.9457 C   0  0  0  0  0  0  0  0  0  0  0  0
    8.0396  -16.4093   21.4081 C   0  0  0  0  0  0  0  0  0  0  0  0
    7.1362  -15.4599   22.1084 C   0  0  2  0  0  0  0  0  0  0  0  0
    6.5238  -14.4583   21.2763 N   0  0  0  0  0  0  0  0  0  0  0  0
    7.8805  -14.7690   23.1988 C   0  0  0  0  0  0  0  0  0  0  0  0
    9.1330  -14.6854   23.2107 O   0  0  0  0  0  0  0  0  0  0  0  0
    7.5885  -14.9897   15.7253 C   0  0  0  0  0  0  0  0  0  0  0  0
    7.0638  -12.3868   25.9263 C   0  0  2  0  0  0  0  0  0  0  0  0
    7.8291  -13.5824   25.3976 N   0  0  0  0  0  0  0  0  0  0  0  0
    7.1558  -14.1831   24.2637 C   0  0  0  0  0  0  0  0  0  0  0  0
    8.0760  -14.5991   26.4197 O   0  0  0  0  0  0  0  0  0  0  0  0
    7.3347  -15.6404   26.4634 N   0  0  0  0  0  0  0  0  0  0  0  0
   13.1041  -18.9959   25.8779 C   0  0  0  0  0  0  0  0  0  0  0  0
   11.9013  -18.2106   25.7398 O   0  0  0  0  0  0  0  0  0  0  0  0
   11.4233  -18.1142   24.5905 C   0  0  0  0  0  0  0  0  0  0  0  0
   11.2743  -17.5583   26.8753 C   0  0  0  0  0  0  0  0  0  0  0  0
   10.3930  -16.4073   26.6925 C   0  0  1  0  0  0  0  0  0  0  0  0
    9.7943  -15.7473   27.8952 N   0  0  0  0  0  0  0  0  0  0  0  0
    9.0902  -14.5426   27.4000 C   0  0  0  0  0  0  0  0  0  0  0  0
   10.7292  -15.3620   28.9587 O   0  0  0  0  0  0  0  0  0  0  0  0
   11.2189  -14.2032   29.0511 O   0  0  0  0  0  0  0  0  0  0  0  0
  2  1  1  0
  3  2  2  0
  4  2  1  0
  5  6  1  0
  5  4  1  0
  6  7  1  0
  7  8  1  0
  8  9  1  6
 10  8  1  0
 11 10  2  0
 13 12  1  6
 13 15  1  0
 13 14  1  0
 14 10  1  0
 15 23  1  0
 16 15  2  0
 18 19  2  0
 18 17  1  0
 20 18  1  0
 22 21  1  6
 21 20  1  0
 22 24  1  0
 23 22  1  0
 24 25  2  0
 24 26  1  0
M  END
$$$$
