RAQ.pdb
     RDKit          3D

 26 25  0  0  1  0  0  0  0  0999 V2000
    7.2534  -12.9644   18.0063 N   0  0  0  0  0  0  0  0  0  0  0  0
    7.6399  -14.0054   17.1141 C   0  0  0  0  0  0  0  0  0  0  0  0
    8.0514  -13.6794   15.9482 N   0  0  0  0  0  0  0  0  0  0  0  0
    7.5550  -15.3521   17.5466 N   0  0  0  0  0  0  0  0  0  0  0  0
    7.0981  -15.6207   18.9203 C   0  0  0  0  0  0  0  0  0  0  0  0
    8.2398  -15.4147   19.8498 C   0  0  0  0  0  0  0  0  0  0  0  0
    7.9777  -15.7552   21.2616 C   0  0  0  0  0  0  0  0  0  0  0  0
    9.1400  -15.5208   22.1571 C   0  0  2  0  0  0  0  0  0  0  0  0
   10.3025  -14.9519   21.5281 N   0  0  0  0  0  0  0  0  0  0  0  0
    9.5405  -16.8008   22.8065 C   0  0  0  0  0  0  0  0  0  0  0  0
    8.7232  -17.5272   23.4232 O   0  0  0  0  0  0  0  0  0  0  0  0
    8.3455  -14.3593   15.2192 C   0  0  0  0  0  0  0  0  0  0  0  0
   12.5470  -19.0103   22.5127 C   0  0  2  0  0  0  0  0  0  0  0  0
   11.3120  -18.5110   23.2339 N   0  0  0  0  0  0  0  0  0  0  0  0
   10.8901  -17.2195   22.7298 C   0  0  0  0  0  0  0  0  0  0  0  0
   11.4876  -18.4407   24.6842 O   0  0  0  0  0  0  0  0  0  0  0  0
   12.1440  -19.3602   25.2839 N   0  0  0  0  0  0  0  0  0  0  0  0
    9.4561  -13.6006   28.5438 C   0  0  0  0  0  0  0  0  0  0  0  0
   10.0949  -14.5649   29.4067 O   0  0  0  0  0  0  0  0  0  0  0  0
   10.0790  -14.3193   30.6307 C   0  0  0  0  0  0  0  0  0  0  0  0
   10.7305  -15.7614   28.8849 C   0  0  0  0  0  0  0  0  0  0  0  0
   10.7353  -16.0501   27.4526 C   0  0  1  0  0  0  0  0  0  0  0  0
   11.2489  -17.3727   26.9757 N   0  0  0  0  0  0  0  0  0  0  0  0
   10.9852  -17.4195   25.5194 C   0  0  0  0  0  0  0  0  0  0  0  0
   10.6731  -18.5625   27.6132 O   0  0  0  0  0  0  0  0  0  0  0  0
   11.1751  -19.0986   28.6387 O   0  0  0  0  0  0  0  0  0  0  0  0
  2  1  1  0
  3  2  2  0
  4  2  1  0
  5  6  1  0
  5  4  1  0
  6  7  1  0
  7  8  1  0
  8  9  1  6
 10  8  1  0
 11 10  2  0
 13 12  1  6
 13 15  1  0
 13 14  1  0
 14 10  1  0
 15 23  1  0
 16 15  2  0
 18 19  2  0
 18 17  1  0
 20 18  1  0
 22 21  1  6
 21 20  1  0
 22 24  1  0
 23 22  1  0
 24 25  2  0
 24 26  1  0
M  END
$$$$
