RAQ.pdb
     RDKit          3D

 26 25  0  0  1  0  0  0  0  0999 V2000
    7.4741  -12.0351   19.1656 N   0  0  0  0  0  0  0  0  0  0  0  0
    7.7079  -13.1755   18.3446 C   0  0  0  0  0  0  0  0  0  0  0  0
    8.0675  -12.9833   17.1327 N   0  0  0  0  0  0  0  0  0  0  0  0
    7.5349  -14.4696   18.8953 N   0  0  0  0  0  0  0  0  0  0  0  0
    8.4305  -15.5488   18.4468 C   0  0  0  0  0  0  0  0  0  0  0  0
    9.7510  -15.3759   19.1071 C   0  0  0  0  0  0  0  0  0  0  0  0
   10.4543  -16.6255   19.4559 C   0  0  0  0  0  0  0  0  0  0  0  0
    9.8219  -17.3736   20.5732 C   0  0  2  0  0  0  0  0  0  0  0  0
    8.4617  -17.7872   20.3510 N   0  0  0  0  0  0  0  0  0  0  0  0
    9.8625  -16.5515   21.8153 C   0  0  0  0  0  0  0  0  0  0  0  0
   10.9051  -15.9704   22.2041 O   0  0  0  0  0  0  0  0  0  0  0  0
    8.2741  -13.7438   16.4552 C   0  0  0  0  0  0  0  0  0  0  0  0
    7.2395  -15.2317   24.1726 C   0  0  2  0  0  0  0  0  0  0  0  0
    8.6577  -15.5979   23.7862 N   0  0  0  0  0  0  0  0  0  0  0  0
    8.6864  -16.4162   22.5906 C   0  0  0  0  0  0  0  0  0  0  0  0
    9.3862  -16.2704   24.8615 O   0  0  0  0  0  0  0  0  0  0  0  0
    9.5925  -17.5306   24.7896 N   0  0  0  0  0  0  0  0  0  0  0  0
   11.5182  -15.3989   32.0342 C   0  0  0  0  0  0  0  0  0  0  0  0
   10.9099  -15.0154   30.7830 O   0  0  0  0  0  0  0  0  0  0  0  0
   10.4157  -13.8703   30.7275 C   0  0  0  0  0  0  0  0  0  0  0  0
   10.8669  -15.9124   29.6421 C   0  0  0  0  0  0  0  0  0  0  0  0
   10.4517  -15.4377   28.3241 C   0  0  1  0  0  0  0  0  0  0  0  0
   10.4179  -16.4002   27.1783 N   0  0  0  0  0  0  0  0  0  0  0  0
    9.9042  -15.6421   26.0147 C   0  0  0  0  0  0  0  0  0  0  0  0
    9.6078  -17.6091   27.3678 O   0  0  0  0  0  0  0  0  0  0  0  0
    8.3620  -17.6343   27.1718 O   0  0  0  0  0  0  0  0  0  0  0  0
  2  1  1  0
  3  2  2  0
  4  2  1  0
  5  6  1  0
  5  4  1  0
  6  7  1  0
  7  8  1  0
  8  9  1  6
 10  8  1  0
 11 10  2  0
 13 12  1  6
 13 15  1  0
 13 14  1  0
 14 10  1  0
 15 23  1  0
 16 15  2  0
 18 19  2  0
 18 17  1  0
 20 18  1  0
 22 21  1  6
 21 20  1  0
 22 24  1  0
 23 22  1  0
 24 25  2  0
 24 26  1  0
M  END
$$$$
