RAQ.pdb
     RDKit          3D

 26 25  0  0  1  0  0  0  0  0999 V2000
    6.9759  -12.5221   19.0883 N   0  0  0  0  0  0  0  0  0  0  0  0
    7.6823  -13.0851   17.9869 C   0  0  0  0  0  0  0  0  0  0  0  0
    7.0221  -13.3747   16.9309 N   0  0  0  0  0  0  0  0  0  0  0  0
    9.0780  -13.3022   18.1003 N   0  0  0  0  0  0  0  0  0  0  0  0
    9.7122  -13.1195   19.4165 C   0  0  0  0  0  0  0  0  0  0  0  0
    9.3155  -14.2501   20.2962 C   0  0  0  0  0  0  0  0  0  0  0  0
   10.3095  -15.3335   20.4238 C   0  0  0  0  0  0  0  0  0  0  0  0
    9.7052  -16.6791   20.6027 C   0  0  2  0  0  0  0  0  0  0  0  0
    8.2667  -16.7159   20.6165 N   0  0  0  0  0  0  0  0  0  0  0  0
   10.1996  -17.2878   21.8697 C   0  0  0  0  0  0  0  0  0  0  0  0
   10.7570  -16.6118   22.7686 O   0  0  0  0  0  0  0  0  0  0  0  0
    7.4473  -13.7403   16.0558 C   0  0  0  0  0  0  0  0  0  0  0  0
    9.9937  -20.7407   23.3958 C   0  0  2  0  0  0  0  0  0  0  0  0
   10.5314  -19.3300   23.2715 N   0  0  0  0  0  0  0  0  0  0  0  0
   10.0385  -18.6788   22.0745 C   0  0  0  0  0  0  0  0  0  0  0  0
   11.9927  -19.2721   23.2980 O   0  0  0  0  0  0  0  0  0  0  0  0
   12.6538  -19.5793   22.2471 N   0  0  0  0  0  0  0  0  0  0  0  0
   17.4262  -15.3804   22.2180 C   0  0  0  0  0  0  0  0  0  0  0  0
   16.0933  -15.7451   22.6339 O   0  0  0  0  0  0  0  0  0  0  0  0
   15.1725  -14.9657   22.3125 C   0  0  0  0  0  0  0  0  0  0  0  0
   15.8284  -16.9544   23.3924 C   0  0  0  0  0  0  0  0  0  0  0  0
   14.4740  -17.4898   23.5106 C   0  0  1  0  0  0  0  0  0  0  0  0
   14.2431  -18.7174   24.3354 N   0  0  0  0  0  0  0  0  0  0  0  0
   12.7752  -18.8962   24.4112 C   0  0  0  0  0  0  0  0  0  0  0  0
   14.8026  -18.7044   25.6919 O   0  0  0  0  0  0  0  0  0  0  0  0
   16.0311  -18.8698   25.9258 O   0  0  0  0  0  0  0  0  0  0  0  0
  2  1  1  0
  3  2  2  0
  4  2  1  0
  5  6  1  0
  5  4  1  0
  6  7  1  0
  7  8  1  0
  8  9  1  1
 10  8  1  0
 11 10  2  0
 13 12  1  1
 13 15  1  0
 13 14  1  0
 14 10  1  0
 15 23  1  0
 16 15  2  0
 18 19  2  0
 18 17  1  0
 20 18  1  0
 22 21  1  6
 21 20  1  0
 22 24  1  0
 23 22  1  0
 24 25  2  0
 24 26  1  0
M  END
$$$$
