RAQ.pdb
     RDKit          3D

 26 25  0  0  1  0  0  0  0  0999 V2000
    7.0794  -12.4814   17.6580 N   0  0  0  0  0  0  0  0  0  0  0  0
    7.4958  -13.8386   17.5402 C   0  0  0  0  0  0  0  0  0  0  0  0
    7.8053  -14.2764   16.3794 N   0  0  0  0  0  0  0  0  0  0  0  0
    7.5510  -14.6471   18.7026 N   0  0  0  0  0  0  0  0  0  0  0  0
    7.1028  -14.0700   19.9809 C   0  0  0  0  0  0  0  0  0  0  0  0
    7.2696  -15.0915   21.0480 C   0  0  0  0  0  0  0  0  0  0  0  0
    8.4253  -14.8904   21.9434 C   0  0  0  0  0  0  0  0  0  0  0  0
    9.6114  -15.7076   21.5786 C   0  0  2  0  0  0  0  0  0  0  0  0
    9.4342  -16.5918   20.4573 N   0  0  0  0  0  0  0  0  0  0  0  0
   10.0412  -16.5211   22.7507 C   0  0  0  0  0  0  0  0  0  0  0  0
    9.7092  -17.7233   22.8938 O   0  0  0  0  0  0  0  0  0  0  0  0
    8.1805  -15.2274   16.1927 C   0  0  0  0  0  0  0  0  0  0  0  0
   12.6293  -16.0263   25.4275 C   0  0  2  0  0  0  0  0  0  0  0  0
   11.4071  -16.6980   24.8361 N   0  0  0  0  0  0  0  0  0  0  0  0
   10.8536  -15.9236   23.7435 C   0  0  0  0  0  0  0  0  0  0  0  0
   10.3663  -16.9645   25.8285 O   0  0  0  0  0  0  0  0  0  0  0  0
    9.4257  -16.1144   25.9976 N   0  0  0  0  0  0  0  0  0  0  0  0
    5.5455  -19.4271   25.3771 C   0  0  0  0  0  0  0  0  0  0  0  0
    6.7218  -20.2628   25.3972 O   0  0  0  0  0  0  0  0  0  0  0  0
    6.6576  -21.3368   24.7639 C   0  0  0  0  0  0  0  0  0  0  0  0
    7.9227  -19.8827   26.1192 C   0  0  0  0  0  0  0  0  0  0  0  0
    7.9828  -18.6378   26.8817 C   0  0  1  0  0  0  0  0  0  0  0  0
    9.2240  -18.3124   27.6524 N   0  0  0  0  0  0  0  0  0  0  0  0
   10.2943  -18.1107   26.6493 C   0  0  0  0  0  0  0  0  0  0  0  0
    9.6600  -19.3109   28.6354 O   0  0  0  0  0  0  0  0  0  0  0  0
    8.9800  -19.6076   29.6555 O   0  0  0  0  0  0  0  0  0  0  0  0
  2  1  1  0
  3  2  2  0
  4  2  1  0
  5  6  1  0
  5  4  1  0
  6  7  1  0
  7  8  1  0
  8  9  1  6
 10  8  1  0
 11 10  2  0
 13 12  1  6
 13 15  1  0
 13 14  1  0
 14 10  1  0
 15 23  1  0
 16 15  2  0
 18 19  2  0
 18 17  1  0
 20 18  1  0
 22 21  1  6
 21 20  1  0
 22 24  1  0
 23 22  1  0
 24 25  2  0
 24 26  1  0
M  END
$$$$
