RAQ.pdb
     RDKit          3D

 26 25  0  0  1  0  0  0  0  0999 V2000
   10.6799  -16.8110   16.9022 N   0  0  0  0  0  0  0  0  0  0  0  0
    9.5736  -16.6665   16.0165 C   0  0  0  0  0  0  0  0  0  0  0  0
    9.8019  -16.6789   14.7585 N   0  0  0  0  0  0  0  0  0  0  0  0
    8.2723  -16.5153   16.5565 N   0  0  0  0  0  0  0  0  0  0  0  0
    8.1161  -16.5102   18.0206 C   0  0  0  0  0  0  0  0  0  0  0  0
    8.1127  -15.1008   18.4932 C   0  0  0  0  0  0  0  0  0  0  0  0
    7.9557  -14.9205   19.9495 C   0  0  0  0  0  0  0  0  0  0  0  0
    7.8067  -13.5008   20.3619 C   0  0  2  0  0  0  0  0  0  0  0  0
    8.4580  -12.5373   19.5143 N   0  0  0  0  0  0  0  0  0  0  0  0
    8.3201  -13.3238   21.7495 C   0  0  0  0  0  0  0  0  0  0  0  0
    9.4945  -12.9512   21.9903 O   0  0  0  0  0  0  0  0  0  0  0  0
    9.0631  -16.6422   14.0285 C   0  0  0  0  0  0  0  0  0  0  0  0
    6.7116  -12.9510   25.0868 C   0  0  1  0  0  0  0  0  0  0  0  0
    7.8784  -13.3543   24.2091 N   0  0  0  0  0  0  0  0  0  0  0  0
    7.4581  -13.5834   22.8413 C   0  0  0  0  0  0  0  0  0  0  0  0
    8.5892  -14.5304   24.7099 O   0  0  0  0  0  0  0  0  0  0  0  0
    8.0082  -15.6698   24.6967 N   0  0  0  0  0  0  0  0  0  0  0  0
   10.2636  -13.6961   29.1738 C   0  0  0  0  0  0  0  0  0  0  0  0
    9.6216  -14.9865   29.1016 O   0  0  0  0  0  0  0  0  0  0  0  0
    8.5977  -15.1432   29.7985 C   0  0  0  0  0  0  0  0  0  0  0  0
   10.1370  -16.0560   28.2658 C   0  0  0  0  0  0  0  0  0  0  0  0
    9.6798  -16.2243   26.8882 C   0  0  2  0  0  0  0  0  0  0  0  0
   10.5501  -15.7498   25.7666 N   0  0  0  0  0  0  0  0  0  0  0  0
    9.9031  -14.5325   25.2261 C   0  0  0  0  0  0  0  0  0  0  0  0
   10.7825  -16.7030   24.6754 O   0  0  0  0  0  0  0  0  0  0  0  0
   10.1351  -16.6737   23.5932 O   0  0  0  0  0  0  0  0  0  0  0  0
  2  1  1  0
  3  2  2  0
  4  2  1  0
  5  6  1  0
  5  4  1  0
  6  7  1  0
  7  8  1  0
  8  9  1  6
 10  8  1  0
 11 10  2  0
 13 12  1  6
 13 15  1  0
 13 14  1  0
 14 10  1  0
 15 23  1  0
 16 15  2  0
 18 19  2  0
 18 17  1  0
 20 18  1  0
 22 21  1  1
 21 20  1  0
 22 24  1  0
 23 22  1  0
 24 25  2  0
 24 26  1  0
M  END
$$$$
