RAQ.pdb
     RDKit          3D

 26 25  0  0  1  0  0  0  0  0999 V2000
    8.8024  -13.8427   16.9927 N   0  0  0  0  0  0  0  0  0  0  0  0
    8.1729  -13.0092   17.9614 C   0  0  0  0  0  0  0  0  0  0  0  0
    7.9490  -11.7886   17.6532 N   0  0  0  0  0  0  0  0  0  0  0  0
    7.8213  -13.5575   19.2198 N   0  0  0  0  0  0  0  0  0  0  0  0
    7.0179  -14.7911   19.2481 C   0  0  0  0  0  0  0  0  0  0  0  0
    7.8924  -15.9363   18.8827 C   0  0  0  0  0  0  0  0  0  0  0  0
    9.1182  -16.0817   19.6914 C   0  0  0  0  0  0  0  0  0  0  0  0
    8.9491  -16.9604   20.8776 C   0  0  2  0  0  0  0  0  0  0  0  0
    7.6717  -17.6137   20.9883 N   0  0  0  0  0  0  0  0  0  0  0  0
    9.1806  -16.1748   22.1224 C   0  0  0  0  0  0  0  0  0  0  0  0
   10.2422  -15.5372   22.3283 O   0  0  0  0  0  0  0  0  0  0  0  0
    7.4722  -11.1054   18.2745 C   0  0  0  0  0  0  0  0  0  0  0  0
    6.9897  -14.8552   24.8310 C   0  0  2  0  0  0  0  0  0  0  0  0
    8.3249  -15.3606   24.3248 N   0  0  0  0  0  0  0  0  0  0  0  0
    8.1713  -16.1414   23.1138 C   0  0  0  0  0  0  0  0  0  0  0  0
    9.0562  -16.1393   25.3240 O   0  0  0  0  0  0  0  0  0  0  0  0
    9.0441  -17.4166   25.2585 N   0  0  0  0  0  0  0  0  0  0  0  0
   11.1062  -13.8570   31.0329 C   0  0  0  0  0  0  0  0  0  0  0  0
   11.2906  -15.2879   31.0665 O   0  0  0  0  0  0  0  0  0  0  0  0
   11.6365  -15.7832   32.1591 C   0  0  0  0  0  0  0  0  0  0  0  0
   11.0900  -16.1169   29.8916 C   0  0  0  0  0  0  0  0  0  0  0  0
   10.5701  -15.5513   28.6486 C   0  0  1  0  0  0  0  0  0  0  0  0
   10.4035  -16.4395   27.4554 N   0  0  0  0  0  0  0  0  0  0  0  0
    9.8023  -15.6000   26.3941 C   0  0  0  0  0  0  0  0  0  0  0  0
    9.5838  -17.6413   27.6483 O   0  0  0  0  0  0  0  0  0  0  0  0
    8.3236  -17.6244   27.5955 O   0  0  0  0  0  0  0  0  0  0  0  0
  2  1  1  0
  3  2  2  0
  4  2  1  0
  5  6  1  0
  5  4  1  0
  6  7  1  0
  7  8  1  0
  8  9  1  1
 10  8  1  0
 11 10  2  0
 13 12  1  6
 13 15  1  0
 13 14  1  0
 14 10  1  0
 15 23  1  0
 16 15  2  0
 18 19  2  0
 18 17  1  0
 20 18  1  0
 22 21  1  6
 21 20  1  0
 22 24  1  0
 23 22  1  0
 24 25  2  0
 24 26  1  0
M  END
$$$$
