RAQ.pdb
     RDKit          3D

 26 25  0  0  1  0  0  0  0  0999 V2000
    6.9390  -13.7177   15.7342 N   0  0  0  0  0  0  0  0  0  0  0  0
    7.9916  -13.5236   16.6742 C   0  0  0  0  0  0  0  0  0  0  0  0
    8.3063  -12.3250   16.9890 N   0  0  0  0  0  0  0  0  0  0  0  0
    8.6461  -14.6552   17.2210 N   0  0  0  0  0  0  0  0  0  0  0  0
    8.5482  -14.8900   18.6713 C   0  0  0  0  0  0  0  0  0  0  0  0
    7.1634  -15.3268   18.9896 C   0  0  0  0  0  0  0  0  0  0  0  0
    6.8831  -15.5539   20.4206 C   0  0  0  0  0  0  0  0  0  0  0  0
    7.9479  -16.3156   21.1232 C   0  0  2  0  0  0  0  0  0  0  0  0
    8.1070  -17.6846   20.7093 N   0  0  0  0  0  0  0  0  0  0  0  0
    7.6929  -16.2988   22.5912 C   0  0  0  0  0  0  0  0  0  0  0  0
    7.3978  -15.2479   23.2112 O   0  0  0  0  0  0  0  0  0  0  0  0
    8.9700  -12.0735   17.7482 C   0  0  0  0  0  0  0  0  0  0  0  0
    7.5375  -18.9826   25.2605 C   0  0  1  0  0  0  0  0  0  0  0  0
    7.4950  -17.5610   24.7391 N   0  0  0  0  0  0  0  0  0  0  0  0
    7.7849  -17.5082   23.3203 C   0  0  0  0  0  0  0  0  0  0  0  0
    8.3954  -16.6617   25.4601 O   0  0  0  0  0  0  0  0  0  0  0  0
    9.6194  -16.5747   25.0993 N   0  0  0  0  0  0  0  0  0  0  0  0
    6.2698  -11.5701   28.4007 C   0  0  0  0  0  0  0  0  0  0  0  0
    6.6015  -11.8324   27.0210 O   0  0  0  0  0  0  0  0  0  0  0  0
    6.0690  -11.0947   26.1661 C   0  0  0  0  0  0  0  0  0  0  0  0
    7.5054  -12.9020   26.6374 C   0  0  0  0  0  0  0  0  0  0  0  0
    8.1605  -13.7339   27.6442 C   0  0  2  0  0  0  0  0  0  0  0  0
    8.9766  -14.9086   27.2027 N   0  0  0  0  0  0  0  0  0  0  0  0
    8.0335  -15.8494   26.5563 C   0  0  0  0  0  0  0  0  0  0  0  0
    9.7242  -15.6122   28.2512 O   0  0  0  0  0  0  0  0  0  0  0  0
    9.3741  -16.7370   28.7022 O   0  0  0  0  0  0  0  0  0  0  0  0
  2  1  1  0
  3  2  2  0
  4  2  1  0
  5  6  1  0
  5  4  1  0
  6  7  1  0
  7  8  1  0
  8  9  1  6
 10  8  1  0
 11 10  2  0
 13 12  1  6
 13 15  1  0
 13 14  1  0
 14 10  1  0
 15 23  1  0
 16 15  2  0
 18 19  2  0
 18 17  1  0
 20 18  1  0
 22 21  1  6
 21 20  1  0
 22 24  1  0
 23 22  1  0
 24 25  2  0
 24 26  1  0
M  END
$$$$
