CCH.pdb
     RDKit          3D

 23 23  0  0  1  0  0  0  0  0999 V2000
   19.8723  -13.5473  -17.5835 N   0  0  0  0  0  0  0  0  0  0  0  0
   19.2487  -12.2361  -17.5579 C   0  0  1  0  0  0  0  0  0  0  0  0
   17.7453  -12.3685  -17.4536 C   0  0  0  0  0  0  0  0  0  0  0  0
   17.0822  -12.7708  -19.0821 S   0  0  0  0  0  0  0  0  0  0  0  0
   19.8199  -11.4540  -16.4380 C   0  0  0  0  0  0  0  0  0  0  0  0
   19.8941  -12.0074  -15.3094 O   0  0  0  0  0  0  0  0  0  0  0  0
   20.2828  -10.1110  -16.5944 N   0  0  0  0  0  0  0  0  0  0  0  0
   20.7415   -9.3163  -15.4851 C   0  0  1  0  0  0  0  0  0  0  0  0
   21.6699   -8.2161  -15.9390 C   0  0  0  0  0  0  0  0  0  0  0  0
   23.3340   -8.8545  -16.2821 S   0  0  0  0  0  0  0  0  0  0  0  0
   19.5783   -8.6511  -14.7987 C   0  0  0  0  0  0  0  0  0  0  0  0
   18.6167   -8.1909  -15.4578 O   0  0  0  0  0  0  0  0  0  0  0  0
   19.5336   -8.5242  -13.3870 N   0  0  0  0  0  0  0  0  0  0  0  0
   18.4212   -7.7994  -12.7063 C   0  0  1  0  0  0  0  0  0  0  0  0
   18.1974   -8.4513  -11.3631 C   0  0  0  0  0  0  0  0  0  0  0  0
   17.2352   -7.7246  -10.5188 C   0  0  0  0  0  0  0  0  0  0  0  0
   16.5484   -6.5544  -10.8975 C   0  0  0  0  0  0  0  0  0  0  0  0
   15.7869   -6.2245   -9.8604 N   0  0  0  0  0  0  0  0  0  0  0  0
   15.9261   -7.0841   -8.8466 C   0  0  0  0  0  0  0  0  0  0  0  0
   16.8187   -7.9907   -9.2794 N   0  0  0  0  0  0  0  0  0  0  0  0
   18.7528   -6.3736  -12.6459 C   0  0  0  0  0  0  0  0  0  0  0  0
   19.9802   -5.8305  -12.3804 O   0  0  0  0  0  0  0  0  0  0  0  0
   17.8147   -5.5295  -12.8591 O   0  0  0  0  0  0  0  0  0  0  0  0
  2  1  1  1
  3  2  1  0
  4  3  1  0
  5  2  1  0
  5  7  1  0
  6  5  2  0
  8  7  1  0
  8 11  1  0
  8  9  1  6
 10  9  1  0
 11 13  1  0
 11 12  2  0
 13 14  1  0
 14 15  1  1
 15 16  1  0
 16 17  2  0
 18 17  1  0
 19 18  1  0
 20 19  2  0
 20 16  1  0
 21 14  1  0
 21 22  1  0
 23 21  2  0
M  END
$$$$
