CCH.pdb
     RDKit          3D

 23 23  0  0  1  0  0  0  0  0999 V2000
   20.1347  -15.5410  -18.0497 N   0  0  0  0  0  0  0  0  0  0  0  0
   20.9906  -14.3699  -17.9799 C   0  0  1  0  0  0  0  0  0  0  0  0
   21.8708  -14.2856  -19.2074 C   0  0  0  0  0  0  0  0  0  0  0  0
   23.3973  -15.1935  -18.8922 S   0  0  0  0  0  0  0  0  0  0  0  0
   20.1452  -13.1657  -17.8147 C   0  0  0  0  0  0  0  0  0  0  0  0
   19.0975  -13.0808  -18.5080 O   0  0  0  0  0  0  0  0  0  0  0  0
   20.4750  -12.1123  -16.9070 N   0  0  0  0  0  0  0  0  0  0  0  0
   19.6280  -10.9646  -16.7126 C   0  0  1  0  0  0  0  0  0  0  0  0
   18.3583  -11.3311  -15.9832 C   0  0  0  0  0  0  0  0  0  0  0  0
   17.3524   -9.8628  -15.6276 S   0  0  0  0  0  0  0  0  0  0  0  0
   20.3300   -9.9294  -15.8747 C   0  0  0  0  0  0  0  0  0  0  0  0
   20.7841  -10.2149  -14.7419 O   0  0  0  0  0  0  0  0  0  0  0  0
   20.4994   -8.6003  -16.3395 N   0  0  0  0  0  0  0  0  0  0  0  0
   21.2891   -7.6000  -15.5637 C   0  0  1  0  0  0  0  0  0  0  0  0
   22.4323   -7.1367  -16.4341 C   0  0  0  0  0  0  0  0  0  0  0  0
   23.3943   -8.2062  -16.7459 C   0  0  0  0  0  0  0  0  0  0  0  0
   23.4809   -8.8830  -17.9784 C   0  0  0  0  0  0  0  0  0  0  0  0
   24.4680   -9.7618  -17.8454 N   0  0  0  0  0  0  0  0  0  0  0  0
   25.0235   -9.7072  -16.6312 C   0  0  0  0  0  0  0  0  0  0  0  0
   24.3453   -8.7461  -15.9813 N   0  0  0  0  0  0  0  0  0  0  0  0
   20.3906   -6.5328  -15.1159 C   0  0  0  0  0  0  0  0  0  0  0  0
   20.7031   -5.5011  -14.2734 O   0  0  0  0  0  0  0  0  0  0  0  0
   19.1839   -6.5456  -15.5422 O   0  0  0  0  0  0  0  0  0  0  0  0
  2  1  1  6
  3  2  1  0
  4  3  1  0
  5  2  1  0
  5  7  1  0
  6  5  2  0
  8  7  1  0
  8 11  1  0
  8  9  1  1
 10  9  1  0
 11 13  1  0
 11 12  2  0
 13 14  1  0
 14 15  1  6
 15 16  1  0
 16 17  2  0
 18 17  1  0
 19 18  1  0
 20 19  2  0
 20 16  1  0
 21 14  1  0
 21 22  1  0
 23 21  2  0
M  END
$$$$
