CCH.pdb
     RDKit          3D

 23 23  0  0  1  0  0  0  0  0999 V2000
   17.5375  -12.8793  -14.9314 N   0  0  0  0  0  0  0  0  0  0  0  0
   16.8027  -12.2983  -13.8217 C   0  0  1  0  0  0  0  0  0  0  0  0
   16.8187  -13.2320  -12.6315 C   0  0  0  0  0  0  0  0  0  0  0  0
   15.5239  -14.4695  -12.8454 S   0  0  0  0  0  0  0  0  0  0  0  0
   17.3833  -10.9745  -13.5014 C   0  0  0  0  0  0  0  0  0  0  0  0
   18.5517  -10.7301  -13.9022 O   0  0  0  0  0  0  0  0  0  0  0  0
   16.6707   -9.9798  -12.7628 N   0  0  0  0  0  0  0  0  0  0  0  0
   17.0672   -8.5960  -12.7464 C   0  0  1  0  0  0  0  0  0  0  0  0
   16.9981   -7.9843  -14.1246 C   0  0  0  0  0  0  0  0  0  0  0  0
   18.5242   -8.2864  -15.0596 S   0  0  0  0  0  0  0  0  0  0  0  0
   16.1447   -7.7955  -11.8663 C   0  0  0  0  0  0  0  0  0  0  0  0
   14.9661   -8.1677  -11.6583 O   0  0  0  0  0  0  0  0  0  0  0  0
   16.5790   -6.5968  -11.2454 N   0  0  0  0  0  0  0  0  0  0  0  0
   15.9213   -6.0780  -10.0107 C   0  0  1  0  0  0  0  0  0  0  0  0
   16.0669   -7.1256   -8.9334 C   0  0  0  0  0  0  0  0  0  0  0  0
   14.9487   -8.0821   -8.8995 C   0  0  0  0  0  0  0  0  0  0  0  0
   15.0587   -9.4649   -9.1449 C   0  0  0  0  0  0  0  0  0  0  0  0
   13.8323   -9.9587   -9.0165 N   0  0  0  0  0  0  0  0  0  0  0  0
   12.9429   -9.0098   -8.7092 C   0  0  0  0  0  0  0  0  0  0  0  0
   13.6558   -7.8725   -8.6445 N   0  0  0  0  0  0  0  0  0  0  0  0
   16.5016   -4.7745   -9.6779 C   0  0  0  0  0  0  0  0  0  0  0  0
   15.9099   -3.7781   -8.9507 O   0  0  0  0  0  0  0  0  0  0  0  0
   17.6820   -4.5174  -10.1004 O   0  0  0  0  0  0  0  0  0  0  0  0
  2  1  1  6
  3  2  1  0
  4  3  1  0
  5  2  1  0
  5  7  1  0
  6  5  2  0
  8  7  1  0
  8 11  1  0
  8  9  1  6
 10  9  1  0
 11 13  1  0
 11 12  2  0
 13 14  1  0
 14 15  1  1
 15 16  1  0
 16 17  2  0
 18 17  1  0
 19 18  1  0
 20 19  2  0
 20 16  1  0
 21 14  1  0
 21 22  1  0
 23 21  2  0
M  END
$$$$
