CCH.pdb
     RDKit          3D

 23 23  0  0  1  0  0  0  0  0999 V2000
   23.7686  -13.4303  -16.0050 N   0  0  0  0  0  0  0  0  0  0  0  0
   22.4353  -12.8573  -16.0574 C   0  0  1  0  0  0  0  0  0  0  0  0
   21.4198  -13.8316  -15.5022 C   0  0  0  0  0  0  0  0  0  0  0  0
   20.9720  -15.0057  -16.7963 S   0  0  0  0  0  0  0  0  0  0  0  0
   22.4355  -11.5715  -15.3234 C   0  0  0  0  0  0  0  0  0  0  0  0
   22.9565  -11.5465  -14.1773 O   0  0  0  0  0  0  0  0  0  0  0  0
   21.8717  -10.3755  -15.8657 N   0  0  0  0  0  0  0  0  0  0  0  0
   21.9035   -9.1181  -15.1653 C   0  0  1  0  0  0  0  0  0  0  0  0
   22.3539   -7.9940  -16.0665 C   0  0  0  0  0  0  0  0  0  0  0  0
   24.1272   -8.1121  -16.4352 S   0  0  0  0  0  0  0  0  0  0  0  0
   20.5281   -8.7572  -14.6708 C   0  0  0  0  0  0  0  0  0  0  0  0
   19.5253   -8.8647  -15.4149 O   0  0  0  0  0  0  0  0  0  0  0  0
   20.3235   -8.2850  -13.3493 N   0  0  0  0  0  0  0  0  0  0  0  0
   18.9642   -7.9166  -12.8569 C   0  0  1  0  0  0  0  0  0  0  0  0
   18.8976   -8.2521  -11.3865 C   0  0  0  0  0  0  0  0  0  0  0  0
   17.6703   -7.7657  -10.7355 C   0  0  0  0  0  0  0  0  0  0  0  0
   16.5750   -7.1848  -11.4043 C   0  0  0  0  0  0  0  0  0  0  0  0
   15.6862   -6.8881  -10.4629 N   0  0  0  0  0  0  0  0  0  0  0  0
   16.1177   -7.2292   -9.2449 C   0  0  0  0  0  0  0  0  0  0  0  0
   17.3345   -7.7637   -9.4441 N   0  0  0  0  0  0  0  0  0  0  0  0
   18.7117   -6.5088  -13.1745 C   0  0  0  0  0  0  0  0  0  0  0  0
   17.5101   -5.9507  -13.5160 O   0  0  0  0  0  0  0  0  0  0  0  0
   19.7012   -5.6979  -13.1363 O   0  0  0  0  0  0  0  0  0  0  0  0
  2  1  1  1
  3  2  1  0
  4  3  1  0
  5  2  1  0
  5  7  1  0
  6  5  2  0
  8  7  1  0
  8 11  1  0
  8  9  1  6
 10  9  1  0
 11 13  1  0
 11 12  2  0
 13 14  1  0
 14 15  1  1
 15 16  1  0
 16 17  2  0
 18 17  1  0
 19 18  1  0
 20 19  2  0
 20 16  1  0
 21 14  1  0
 21 22  1  0
 23 21  2  0
M  END
$$$$
