CCH.pdb
     RDKit          3D

 23 23  0  0  1  0  0  0  0  0999 V2000
   24.8407  -14.5702  -18.8109 N   0  0  0  0  0  0  0  0  0  0  0  0
   24.8792  -13.1743  -19.2095 C   0  0  1  0  0  0  0  0  0  0  0  0
   23.8667  -12.9092  -20.3019 C   0  0  0  0  0  0  0  0  0  0  0  0
   24.5453  -13.4759  -21.8742 S   0  0  0  0  0  0  0  0  0  0  0  0
   24.6496  -12.3273  -18.0170 C   0  0  0  0  0  0  0  0  0  0  0  0
   23.6274  -12.5568  -17.3185 O   0  0  0  0  0  0  0  0  0  0  0  0
   25.5375  -11.2733  -17.6390 N   0  0  0  0  0  0  0  0  0  0  0  0
   25.3195  -10.4587  -16.4722 C   0  0  1  0  0  0  0  0  0  0  0  0
   26.6228   -9.9793  -15.8806 C   0  0  0  0  0  0  0  0  0  0  0  0
   27.5650  -11.3515  -15.1569 S   0  0  0  0  0  0  0  0  0  0  0  0
   24.5241   -9.2314  -16.8294 C   0  0  0  0  0  0  0  0  0  0  0  0
   24.8759   -8.4859  -17.7735 O   0  0  0  0  0  0  0  0  0  0  0  0
   23.3533   -8.8802  -16.1103 N   0  0  0  0  0  0  0  0  0  0  0  0
   22.5379   -7.6886  -16.4862 C   0  0  1  0  0  0  0  0  0  0  0  0
   21.5441   -8.1206  -17.5373 C   0  0  0  0  0  0  0  0  0  0  0  0
   20.6146   -7.0496  -17.9318 C   0  0  0  0  0  0  0  0  0  0  0  0
   20.7420   -6.2515  -19.0856 C   0  0  0  0  0  0  0  0  0  0  0  0
   19.7089   -5.4167  -19.0698 N   0  0  0  0  0  0  0  0  0  0  0  0
   18.9278   -5.6108  -18.0030 C   0  0  0  0  0  0  0  0  0  0  0  0
   19.5077   -6.6162  -17.3256 N   0  0  0  0  0  0  0  0  0  0  0  0
   21.9389   -7.1241  -15.2742 C   0  0  0  0  0  0  0  0  0  0  0  0
   21.9289   -7.6888  -14.0281 O   0  0  0  0  0  0  0  0  0  0  0  0
   21.3586   -5.9870  -15.3649 O   0  0  0  0  0  0  0  0  0  0  0  0
  2  1  1  1
  3  2  1  0
  4  3  1  0
  5  2  1  0
  5  7  1  0
  6  5  2  0
  8  7  1  0
  8 11  1  0
  8  9  1  6
 10  9  1  0
 11 13  1  0
 11 12  2  0
 13 14  1  0
 14 15  1  6
 15 16  1  0
 16 17  2  0
 18 17  1  0
 19 18  1  0
 20 19  2  0
 20 16  1  0
 21 14  1  0
 21 22  1  0
 23 21  2  0
M  END
$$$$
