CCH.pdb
     RDKit          3D

 23 23  0  0  1  0  0  0  0  0999 V2000
   17.1538  -11.1131  -15.6016 N   0  0  0  0  0  0  0  0  0  0  0  0
   17.2276   -9.7068  -15.9565 C   0  0  1  0  0  0  0  0  0  0  0  0
   15.8427   -9.0993  -15.9971 C   0  0  0  0  0  0  0  0  0  0  0  0
   14.9569   -9.7647  -17.4206 S   0  0  0  0  0  0  0  0  0  0  0  0
   18.1138   -9.0139  -14.9939 C   0  0  0  0  0  0  0  0  0  0  0  0
   17.7074   -8.8784  -13.8099 O   0  0  0  0  0  0  0  0  0  0  0  0
   19.3968   -8.5015  -15.3600 N   0  0  0  0  0  0  0  0  0  0  0  0
   20.2308   -7.7736  -14.4397 C   0  0  1  0  0  0  0  0  0  0  0  0
   21.6000   -8.3979  -14.3211 C   0  0  0  0  0  0  0  0  0  0  0  0
   22.6997   -7.3891  -13.2880 S   0  0  0  0  0  0  0  0  0  0  0  0
   20.4346   -6.3612  -14.9196 C   0  0  0  0  0  0  0  0  0  0  0  0
   20.9604   -6.1269  -16.0329 O   0  0  0  0  0  0  0  0  0  0  0  0
   20.0388   -5.2527  -14.1286 N   0  0  0  0  0  0  0  0  0  0  0  0
   20.2557   -3.8508  -14.5907 C   0  0  1  0  0  0  0  0  0  0  0  0
   19.1535   -2.9967  -14.0120 C   0  0  0  0  0  0  0  0  0  0  0  0
   19.3008   -1.5668  -14.3285 C   0  0  0  0  0  0  0  0  0  0  0  0
   20.2882   -1.0222  -15.1728 C   0  0  0  0  0  0  0  0  0  0  0  0
   20.0729    0.2884  -15.1908 N   0  0  0  0  0  0  0  0  0  0  0  0
   19.0301    0.6325  -14.4292 C   0  0  0  0  0  0  0  0  0  0  0  0
   18.5785   -0.5239  -13.9147 N   0  0  0  0  0  0  0  0  0  0  0  0
   21.6104   -3.4346  -14.2189 C   0  0  0  0  0  0  0  0  0  0  0  0
   22.2816   -3.7652  -13.0735 O   0  0  0  0  0  0  0  0  0  0  0  0
   22.2522   -2.6835  -15.0326 O   0  0  0  0  0  0  0  0  0  0  0  0
  2  1  1  1
  3  2  1  0
  4  3  1  0
  5  2  1  0
  5  7  1  0
  6  5  2  0
  8  7  1  0
  8 11  1  0
  8  9  1  6
 10  9  1  0
 11 13  1  0
 11 12  2  0
 13 14  1  0
 14 15  1  1
 15 16  1  0
 16 17  2  0
 18 17  1  0
 19 18  1  0
 20 19  2  0
 20 16  1  0
 21 14  1  0
 21 22  1  0
 23 21  2  0
M  END
$$$$
