CCH.pdb
     RDKit          3D

 23 23  0  0  1  0  0  0  0  0999 V2000
   34.2297   -6.0385  -17.8411 N   0  0  0  0  0  0  0  0  0  0  0  0
   33.5036   -6.8247  -16.8595 C   0  0  1  0  0  0  0  0  0  0  0  0
   32.6267   -5.9304  -16.0110 C   0  0  0  0  0  0  0  0  0  0  0  0
   31.1481   -5.5034  -16.9518 S   0  0  0  0  0  0  0  0  0  0  0  0
   32.7234   -7.8688  -17.5618 C   0  0  0  0  0  0  0  0  0  0  0  0
   32.4254   -7.6707  -18.7691 O   0  0  0  0  0  0  0  0  0  0  0  0
   32.3038   -9.0765  -16.9230 N   0  0  0  0  0  0  0  0  0  0  0  0
   31.5884  -10.1128  -17.6206 C   0  0  1  0  0  0  0  0  0  0  0  0
   31.8560  -11.4711  -17.0189 C   0  0  0  0  0  0  0  0  0  0  0  0
   33.5413  -12.0365  -17.3857 S   0  0  0  0  0  0  0  0  0  0  0  0
   30.1039   -9.8793  -17.5295 C   0  0  0  0  0  0  0  0  0  0  0  0
   29.5956   -9.3410  -16.5181 O   0  0  0  0  0  0  0  0  0  0  0  0
   29.2347  -10.2603  -18.5832 N   0  0  0  0  0  0  0  0  0  0  0  0
   27.7575  -10.0801  -18.4764 C   0  0  1  0  0  0  0  0  0  0  0  0
   27.3341   -9.0893  -19.5338 C   0  0  0  0  0  0  0  0  0  0  0  0
   25.8733   -8.9456  -19.6425 C   0  0  0  0  0  0  0  0  0  0  0  0
   25.0201   -8.5382  -18.5983 C   0  0  0  0  0  0  0  0  0  0  0  0
   23.7927   -8.5389  -19.1063 N   0  0  0  0  0  0  0  0  0  0  0  0
   23.7849   -8.9125  -20.3894 C   0  0  0  0  0  0  0  0  0  0  0  0
   25.0723   -9.1548  -20.6891 N   0  0  0  0  0  0  0  0  0  0  0  0
   27.1127  -11.3920  -18.5751 C   0  0  0  0  0  0  0  0  0  0  0  0
   25.8148  -11.6906  -18.2616 O   0  0  0  0  0  0  0  0  0  0  0  0
   27.8153  -12.3762  -18.9943 O   0  0  0  0  0  0  0  0  0  0  0  0
  2  1  1  6
  3  2  1  0
  4  3  1  0
  5  2  1  0
  5  7  1  0
  6  5  2  0
  8  7  1  0
  8 11  1  0
  8  9  1  1
 10  9  1  0
 11 13  1  0
 11 12  2  0
 13 14  1  0
 14 15  1  6
 15 16  1  0
 16 17  2  0
 18 17  1  0
 19 18  1  0
 20 19  2  0
 20 16  1  0
 21 14  1  0
 21 22  1  0
 23 21  2  0
M  END
$$$$
