GAC.pdb
     RDKit          3D

 16 15  0  0  1  0  0  0  0  0999 V2000
   29.3536  -22.9468  -16.7924 N   0  0  0  0  0  0  0  0  0  0  0  0
   27.9576  -22.9777  -16.4801 C   0  0  0  0  0  0  0  0  0  0  0  0
   27.6176  -22.0320  -15.3635 C   0  0  0  0  0  0  0  0  0  0  0  0
   28.3073  -21.9780  -14.3163 O   0  0  0  0  0  0  0  0  0  0  0  0
   25.3330  -19.0887  -14.7894 C   0  0  0  0  0  0  0  0  0  0  0  0
   26.1721  -20.2693  -14.3640 C   0  0  2  0  0  0  0  0  0  0  0  0
   26.4992  -21.1507  -15.4340 N   0  0  0  0  0  0  0  0  0  0  0  0
   25.4648  -20.9513  -13.2421 C   0  0  0  0  0  0  0  0  0  0  0  0
   24.6888  -21.9219  -13.4083 O   0  0  0  0  0  0  0  0  0  0  0  0
   25.6757  -20.4832  -11.9151 N   0  0  0  0  0  0  0  0  0  0  0  0
   25.0089  -21.0661  -10.7659 C   0  0  1  0  0  0  0  0  0  0  0  0
   25.6522  -20.5967   -9.4681 C   0  0  0  0  0  0  0  0  0  0  0  0
   27.4654  -20.8104   -9.5539 S   0  0  0  0  0  0  0  0  0  0  0  0
   23.5733  -20.6857  -10.8267 C   0  0  0  0  0  0  0  0  0  0  0  0
   22.6014  -21.3093  -10.0555 O   0  0  0  0  0  0  0  0  0  0  0  0
   23.1644  -19.7634  -11.5942 O   0  0  0  0  0  0  0  0  0  0  0  0
  2  1  1  0
  3  2  1  0
  4  3  2  0
  6  5  1  6
  6  8  1  0
  6  7  1  0
  7  3  1  0
  8  9  2  0
 10 11  1  0
 10  8  1  0
 11 12  1  1
 12 13  1  0
 14 15  1  0
 14 11  1  0
 16 14  2  0
M  END
$$$$
