GAC.pdb
     RDKit          3D

 16 15  0  0  1  0  0  0  0  0999 V2000
   17.0095  -12.7338  -14.0889 N   0  0  0  0  0  0  0  0  0  0  0  0
   16.3616  -11.6604  -14.7783 C   0  0  0  0  0  0  0  0  0  0  0  0
   17.3288  -10.5693  -15.1403 C   0  0  0  0  0  0  0  0  0  0  0  0
   18.5668  -10.7150  -14.9953 O   0  0  0  0  0  0  0  0  0  0  0  0
   17.2069   -7.3942  -17.1587 C   0  0  0  0  0  0  0  0  0  0  0  0
   17.8156   -8.3537  -16.1648 C   0  0  2  0  0  0  0  0  0  0  0  0
   16.8934   -9.3172  -15.6650 N   0  0  0  0  0  0  0  0  0  0  0  0
   18.4584   -7.5476  -15.0873 C   0  0  0  0  0  0  0  0  0  0  0  0
   17.9209   -7.3357  -13.9745 O   0  0  0  0  0  0  0  0  0  0  0  0
   19.7447   -6.9883  -15.3261 N   0  0  0  0  0  0  0  0  0  0  0  0
   20.4142   -6.1310  -14.3659 C   0  0  1  0  0  0  0  0  0  0  0  0
   21.9238   -6.1727  -14.5598 C   0  0  0  0  0  0  0  0  0  0  0  0
   22.7367   -5.0126  -13.4047 S   0  0  0  0  0  0  0  0  0  0  0  0
   19.8850   -4.7523  -14.5346 C   0  0  0  0  0  0  0  0  0  0  0  0
   19.6578   -3.9021  -13.4604 O   0  0  0  0  0  0  0  0  0  0  0  0
   19.6132   -4.2826  -15.6802 O   0  0  0  0  0  0  0  0  0  0  0  0
  2  1  1  0
  3  2  1  0
  4  3  2  0
  6  5  1  6
  6  8  1  0
  6  7  1  0
  7  3  1  0
  8  9  2  0
 10 11  1  0
 10  8  1  0
 11 12  1  6
 12 13  1  0
 14 15  1  0
 14 11  1  0
 16 14  2  0
M  END
$$$$
