GAC.pdb
     RDKit          3D

 16 15  0  0  1  0  0  0  0  0999 V2000
   28.3749  -14.2987  -19.8080 N   0  0  0  0  0  0  0  0  0  0  0  0
   28.3945  -12.8773  -19.6446 C   0  0  0  0  0  0  0  0  0  0  0  0
   27.3664  -12.4188  -18.6499 C   0  0  0  0  0  0  0  0  0  0  0  0
   26.1503  -12.6971  -18.7873 O   0  0  0  0  0  0  0  0  0  0  0  0
   27.3273  -10.7845  -15.2378 C   0  0  0  0  0  0  0  0  0  0  0  0
   26.7387  -11.2320  -16.5539 C   0  0  2  0  0  0  0  0  0  0  0  0
   27.7161  -11.6471  -17.5032 N   0  0  0  0  0  0  0  0  0  0  0  0
   25.8640  -10.1348  -17.0591 C   0  0  0  0  0  0  0  0  0  0  0  0
   26.3008   -9.1439  -17.6909 O   0  0  0  0  0  0  0  0  0  0  0  0
   24.4640  -10.2091  -16.8163 N   0  0  0  0  0  0  0  0  0  0  0  0
   23.5321   -9.2109  -17.3064 C   0  0  1  0  0  0  0  0  0  0  0  0
   22.0972   -9.7094  -17.2028 C   0  0  0  0  0  0  0  0  0  0  0  0
   20.9346   -8.3696  -17.6435 S   0  0  0  0  0  0  0  0  0  0  0  0
   23.7318   -7.9689  -16.5146 C   0  0  0  0  0  0  0  0  0  0  0  0
   23.8610   -7.9764  -15.1320 O   0  0  0  0  0  0  0  0  0  0  0  0
   23.7942   -6.8315  -17.0708 O   0  0  0  0  0  0  0  0  0  0  0  0
  2  1  1  0
  3  2  1  0
  4  3  2  0
  6  5  1  1
  6  8  1  0
  6  7  1  0
  7  3  1  0
  8  9  2  0
 10 11  1  0
 10  8  1  0
 11 12  1  1
 12 13  1  0
 14 15  1  0
 14 11  1  0
 16 14  2  0
M  END
$$$$
