GAC.pdb
     RDKit          3D

 16 15  0  0  1  0  0  0  0  0999 V2000
   17.3321  -14.8082  -14.7145 N   0  0  0  0  0  0  0  0  0  0  0  0
   16.4862  -13.7031  -15.0466 C   0  0  0  0  0  0  0  0  0  0  0  0
   17.2787  -12.5265  -15.5409 C   0  0  0  0  0  0  0  0  0  0  0  0
   18.4790  -12.6430  -15.8885 O   0  0  0  0  0  0  0  0  0  0  0  0
   16.5715   -9.2940  -17.1539 C   0  0  0  0  0  0  0  0  0  0  0  0
   17.4216  -10.1413  -16.2382 C   0  0  2  0  0  0  0  0  0  0  0  0
   16.7119  -11.2221  -15.6405 N   0  0  0  0  0  0  0  0  0  0  0  0
   18.0564   -9.2360  -15.2376 C   0  0  0  0  0  0  0  0  0  0  0  0
   17.6026   -9.0641  -14.0815 O   0  0  0  0  0  0  0  0  0  0  0  0
   19.2353   -8.5292  -15.6053 N   0  0  0  0  0  0  0  0  0  0  0  0
   19.8639   -7.5526  -14.7357 C   0  0  1  0  0  0  0  0  0  0  0  0
   21.3437   -7.4062  -15.0627 C   0  0  0  0  0  0  0  0  0  0  0  0
   22.2705   -8.8512  -14.4353 S   0  0  0  0  0  0  0  0  0  0  0  0
   19.1436   -6.2626  -14.8985 C   0  0  0  0  0  0  0  0  0  0  0  0
   19.1085   -5.2952  -13.9028 O   0  0  0  0  0  0  0  0  0  0  0  0
   18.5206   -5.9819  -15.9662 O   0  0  0  0  0  0  0  0  0  0  0  0
  2  1  1  0
  3  2  1  0
  4  3  2  0
  6  5  1  1
  6  8  1  0
  6  7  1  0
  7  3  1  0
  8  9  2  0
 10 11  1  0
 10  8  1  0
 11 12  1  6
 12 13  1  0
 14 15  1  0
 14 11  1  0
 16 14  2  0
M  END
$$$$
