GAC.pdb
     RDKit          3D

 16 15  0  0  1  0  0  0  0  0999 V2000
   29.5004  -23.2171  -16.9088 N   0  0  0  0  0  0  0  0  0  0  0  0
   28.0921  -23.2977  -16.6691 C   0  0  0  0  0  0  0  0  0  0  0  0
   27.6319  -22.2419  -15.7047 C   0  0  0  0  0  0  0  0  0  0  0  0
   28.2999  -21.9502  -14.6830 O   0  0  0  0  0  0  0  0  0  0  0  0
   25.0011  -19.5457  -15.5460 C   0  0  0  0  0  0  0  0  0  0  0  0
   25.9697  -20.5449  -14.9610 C   0  0  2  0  0  0  0  0  0  0  0  0
   26.4182  -21.5193  -15.8982 N   0  0  0  0  0  0  0  0  0  0  0  0
   25.3320  -21.1462  -13.7545 C   0  0  0  0  0  0  0  0  0  0  0  0
   24.7417  -22.2522  -13.7687 O   0  0  0  0  0  0  0  0  0  0  0  0
   25.3922  -20.4360  -12.5230 N   0  0  0  0  0  0  0  0  0  0  0  0
   24.7904  -20.9375  -11.3018 C   0  0  1  0  0  0  0  0  0  0  0  0
   25.3500  -20.2156  -10.0836 C   0  0  0  0  0  0  0  0  0  0  0  0
   26.2409  -21.3961   -9.0096 S   0  0  0  0  0  0  0  0  0  0  0  0
   23.3187  -20.7581  -11.4082 C   0  0  0  0  0  0  0  0  0  0  0  0
   22.4146  -21.6273  -10.8122 O   0  0  0  0  0  0  0  0  0  0  0  0
   22.8143  -19.7919  -12.0555 O   0  0  0  0  0  0  0  0  0  0  0  0
  2  1  1  0
  3  2  1  0
  4  3  2  0
  6  5  1  6
  6  8  1  0
  6  7  1  0
  7  3  1  0
  8  9  2  0
 10 11  1  0
 10  8  1  0
 11 12  1  1
 12 13  1  0
 14 15  1  0
 14 11  1  0
 16 14  2  0
M  END
$$$$
