GAC.pdb
     RDKit          3D

 16 15  0  0  1  0  0  0  0  0999 V2000
   26.0028  -15.1898  -19.3204 N   0  0  0  0  0  0  0  0  0  0  0  0
   26.1043  -14.2607  -18.2370 C   0  0  0  0  0  0  0  0  0  0  0  0
   26.6942  -12.9525  -18.6812 C   0  0  0  0  0  0  0  0  0  0  0  0
   27.8872  -12.8658  -19.0612 O   0  0  0  0  0  0  0  0  0  0  0  0
   25.5010   -9.3865  -19.2140 C   0  0  0  0  0  0  0  0  0  0  0  0
   26.5083  -10.5038  -19.0872 C   0  0  2  0  0  0  0  0  0  0  0  0
   25.9338  -11.7466  -18.6943 N   0  0  0  0  0  0  0  0  0  0  0  0
   27.5873  -10.0430  -18.1666 C   0  0  0  0  0  0  0  0  0  0  0  0
   27.5015  -10.1138  -16.9178 O   0  0  0  0  0  0  0  0  0  0  0  0
   28.7756   -9.4950  -18.7254 N   0  0  0  0  0  0  0  0  0  0  0  0
   29.8928   -9.0575  -17.9096 C   0  0  1  0  0  0  0  0  0  0  0  0
   31.0930   -9.9762  -18.0938 C   0  0  0  0  0  0  0  0  0  0  0  0
   32.4966   -9.3842  -17.0836 S   0  0  0  0  0  0  0  0  0  0  0  0
   30.2190   -7.6583  -18.2908 C   0  0  0  0  0  0  0  0  0  0  0  0
   30.1048   -7.1926  -19.5940 O   0  0  0  0  0  0  0  0  0  0  0  0
   30.6214   -6.8151  -17.4341 O   0  0  0  0  0  0  0  0  0  0  0  0
  2  1  1  0
  3  2  1  0
  4  3  2  0
  6  5  1  1
  6  8  1  0
  6  7  1  0
  7  3  1  0
  8  9  2  0
 10 11  1  0
 10  8  1  0
 11 12  1  6
 12 13  1  0
 14 15  1  0
 14 11  1  0
 16 14  2  0
M  END
$$$$
