IMH.pdb
     RDKit          3D

 27 27  0  0  1  0  0  0  0  0999 V2000
   12.1559  -15.3367    4.2339 C   0  0  0  0  0  0  0  0  0  0  0  0
   13.1248  -14.2533    4.5658 C   0  0  0  0  0  0  0  0  0  0  0  0
   14.5629  -14.7761    4.6814 C   0  0  2  0  0  0  0  0  0  0  0  0
   14.5376  -15.6775    5.9005 C   0  0  0  0  0  0  0  0  0  0  0  0
   15.4339  -13.5899    4.8855 C   0  0  2  0  0  0  0  0  0  0  0  0
   15.4080  -12.7436    3.6848 N   0  0  0  0  0  0  0  0  0  0  0  0
   16.8244  -13.8120    5.2523 C   0  0  0  0  0  0  0  0  0  0  0  0
   17.6455  -14.2697    4.3644 O   0  0  0  0  0  0  0  0  0  0  0  0
   21.9448  -10.3132    6.8843 C   0  0  0  0  0  0  0  0  0  0  0  0
   21.7713  -11.4378    8.3190 S   0  0  0  0  0  0  0  0  0  0  0  0
   20.9554  -12.9483    7.6966 C   0  0  0  0  0  0  0  0  0  0  0  0
   19.5277  -12.6927    7.3565 C   0  0  0  0  0  0  0  0  0  0  0  0
   18.8565  -13.8957    6.7799 C   0  0  2  0  0  0  0  0  0  0  0  0
   17.4363  -13.5834    6.5098 N   0  0  0  0  0  0  0  0  0  0  0  0
   18.9350  -15.1260    7.6104 C   0  0  0  0  0  0  0  0  0  0  0  0
   18.1587  -15.3264    8.5782 O   0  0  0  0  0  0  0  0  0  0  0  0
   19.9056  -16.1274    7.3299 N   0  0  0  0  0  0  0  0  0  0  0  0
   20.0068  -17.3737    8.1195 C   0  0  1  0  0  0  0  0  0  0  0  0
   20.1111  -18.5242    7.1734 C   0  0  0  0  0  0  0  0  0  0  0  0
   18.8254  -19.0758    6.7463 C   0  0  0  0  0  0  0  0  0  0  0  0
   17.5525  -18.7039    7.0530 C   0  0  0  0  0  0  0  0  0  0  0  0
   16.7101  -19.4933    6.3290 N   0  0  0  0  0  0  0  0  0  0  0  0
   17.4230  -20.3314    5.5913 C   0  0  0  0  0  0  0  0  0  0  0  0
   18.6986  -20.0832    5.8393 N   0  0  0  0  0  0  0  0  0  0  0  0
   21.2478  -17.2278    8.9687 C   0  0  0  0  0  0  0  0  0  0  0  0
   21.4300  -18.0549    9.8854 O   0  0  0  0  0  0  0  0  0  0  0  0
   22.1662  -16.2447    8.7856 O   0  0  0  0  0  0  0  0  0  0  0  0
  2  1  1  0
  3  2  1  0
  3  4  1  1
  5  3  1  0
  5  7  1  0
  5  6  1  6
  7  8  2  0
  9 10  1  0
 10 11  1  0
 11 12  1  0
 13 12  1  1
 13 15  1  0
 14 13  1  0
 14  7  1  0
 15 17  1  0
 15 16  2  0
 17 18  1  0
 18 25  1  0
 18 19  1  6
 20 24  1  0
 20 19  1  0
 21 20  2  0
 22 21  1  0
 22 23  1  0
 23 24  2  0
 25 26  2  0
 25 27  1  0
M  END
$$$$
