IMH.pdb
     RDKit          3D

 27 27  0  0  1  0  0  0  0  0999 V2000
   18.5125  -12.9298  -21.8113 C   0  0  0  0  0  0  0  0  0  0  0  0
   19.6149  -12.8304  -20.8124 C   0  0  0  0  0  0  0  0  0  0  0  0
   19.3423  -11.7550  -19.7522 C   0  0  2  0  0  0  0  0  0  0  0  0
   19.3331  -10.4540  -20.5312 C   0  0  0  0  0  0  0  0  0  0  0  0
   20.4674  -11.8147  -18.7837 C   0  0  2  0  0  0  0  0  0  0  0  0
   20.5505  -13.1617  -18.2031 N   0  0  0  0  0  0  0  0  0  0  0  0
   20.4895  -10.8505  -17.6941 C   0  0  0  0  0  0  0  0  0  0  0  0
   19.6226  -10.9564  -16.7406 O   0  0  0  0  0  0  0  0  0  0  0  0
   24.5524  -11.8836  -13.3820 C   0  0  0  0  0  0  0  0  0  0  0  0
   24.3260  -10.1733  -13.9957 S   0  0  0  0  0  0  0  0  0  0  0  0
   22.7999  -10.1813  -14.9985 C   0  0  0  0  0  0  0  0  0  0  0  0
   22.5395   -8.8437  -15.6005 C   0  0  0  0  0  0  0  0  0  0  0  0
   21.2716   -8.8122  -16.3889 C   0  0  2  0  0  0  0  0  0  0  0  0
   21.3743   -9.7571  -17.5220 N   0  0  0  0  0  0  0  0  0  0  0  0
   20.8772   -7.4749  -16.9044 C   0  0  0  0  0  0  0  0  0  0  0  0
   20.9654   -7.1787  -18.1225 O   0  0  0  0  0  0  0  0  0  0  0  0
   20.3813   -6.4764  -16.0208 N   0  0  0  0  0  0  0  0  0  0  0  0
   19.9324   -5.1506  -16.4979 C   0  0  1  0  0  0  0  0  0  0  0  0
   18.8657   -5.3547  -17.5227 C   0  0  0  0  0  0  0  0  0  0  0  0
   18.3081   -4.1185  -18.0711 C   0  0  0  0  0  0  0  0  0  0  0  0
   18.8969   -2.9222  -18.3446 C   0  0  0  0  0  0  0  0  0  0  0  0
   17.9538   -2.1241  -18.9196 N   0  0  0  0  0  0  0  0  0  0  0  0
   16.8124   -2.7908  -19.0078 C   0  0  0  0  0  0  0  0  0  0  0  0
   17.0213   -3.9936  -18.4979 N   0  0  0  0  0  0  0  0  0  0  0  0
   19.4120   -4.4249  -15.2793 C   0  0  0  0  0  0  0  0  0  0  0  0
   18.8003   -5.0906  -14.4189 O   0  0  0  0  0  0  0  0  0  0  0  0
   19.5739   -3.0919  -15.0786 O   0  0  0  0  0  0  0  0  0  0  0  0
  2  1  1  0
  3  2  1  0
  3  4  1  6
  5  3  1  0
  5  7  1  0
  5  6  1  1
  7  8  2  0
  9 10  1  0
 10 11  1  0
 11 12  1  0
 13 12  1  6
 13 15  1  0
 14 13  1  0
 14  7  1  0
 15 17  1  0
 15 16  2  0
 17 18  1  0
 18 25  1  0
 18 19  1  6
 20 24  1  0
 20 19  1  0
 21 20  2  0
 22 21  1  0
 22 23  1  0
 23 24  2  0
 25 26  2  0
 25 27  1  0
M  END
$$$$
