IMH.pdb
     RDKit          3D

 27 27  0  0  1  0  0  0  0  0999 V2000
   22.4024  -22.9853  -15.6063 C   0  0  0  0  0  0  0  0  0  0  0  0
   22.2867  -21.8195  -14.6843 C   0  0  0  0  0  0  0  0  0  0  0  0
   21.6202  -22.1953  -13.3541 C   0  0  2  0  0  0  0  0  0  0  0  0
   20.1992  -22.5613  -13.7369 C   0  0  0  0  0  0  0  0  0  0  0  0
   21.6697  -20.9849  -12.4941 C   0  0  2  0  0  0  0  0  0  0  0  0
   20.9374  -19.8874  -13.1406 N   0  0  0  0  0  0  0  0  0  0  0  0
   22.9733  -20.4816  -12.0885 C   0  0  0  0  0  0  0  0  0  0  0  0
   23.4767  -19.4638  -12.7070 O   0  0  0  0  0  0  0  0  0  0  0  0
   27.2225  -20.5149   -6.1412 C   0  0  0  0  0  0  0  0  0  0  0  0
   26.7700  -19.1601   -7.2869 S   0  0  0  0  0  0  0  0  0  0  0  0
   26.7471  -19.8855   -8.9626 C   0  0  0  0  0  0  0  0  0  0  0  0
   25.3946  -20.4038   -9.3109 C   0  0  0  0  0  0  0  0  0  0  0  0
   25.1568  -20.4269  -10.7850 C   0  0  2  0  0  0  0  0  0  0  0  0
   23.8101  -20.9746  -11.0567 N   0  0  0  0  0  0  0  0  0  0  0  0
   26.1597  -21.1849  -11.5783 C   0  0  0  0  0  0  0  0  0  0  0  0
   26.3636  -22.4114  -11.3957 O   0  0  0  0  0  0  0  0  0  0  0  0
   26.9296  -20.5343  -12.5822 N   0  0  0  0  0  0  0  0  0  0  0  0
   27.1961  -21.1525  -13.8989 C   0  0  1  0  0  0  0  0  0  0  0  0
   25.8954  -21.5944  -14.4842 C   0  0  0  0  0  0  0  0  0  0  0  0
   26.0066  -22.2289  -15.7975 C   0  0  0  0  0  0  0  0  0  0  0  0
   27.0775  -22.7818  -16.4300 C   0  0  0  0  0  0  0  0  0  0  0  0
   26.6314  -23.3088  -17.6049 N   0  0  0  0  0  0  0  0  0  0  0  0
   25.3278  -23.0985  -17.7108 C   0  0  0  0  0  0  0  0  0  0  0  0
   24.9467  -22.4483  -16.6235 N   0  0  0  0  0  0  0  0  0  0  0  0
   27.8555  -20.0808  -14.7351 C   0  0  0  0  0  0  0  0  0  0  0  0
   27.3436  -18.9427  -14.7371 O   0  0  0  0  0  0  0  0  0  0  0  0
   28.9687  -20.2964  -15.4819 O   0  0  0  0  0  0  0  0  0  0  0  0
  2  1  1  0
  3  2  1  0
  3  4  1  6
  5  3  1  0
  5  7  1  0
  5  6  1  6
  7  8  2  0
  9 10  1  0
 10 11  1  0
 11 12  1  0
 13 12  1  1
 13 15  1  0
 14 13  1  0
 14  7  1  0
 15 17  1  0
 15 16  2  0
 17 18  1  0
 18 25  1  0
 18 19  1  6
 20 24  1  0
 20 19  1  0
 21 20  2  0
 22 21  1  0
 22 23  1  0
 23 24  2  0
 25 26  2  0
 25 27  1  0
M  END
$$$$
