IMH.pdb
     RDKit          3D

 27 27  0  0  1  0  0  0  0  0999 V2000
   16.5589  -11.7419  -18.3438 C   0  0  0  0  0  0  0  0  0  0  0  0
   18.0114  -12.0592  -18.2326 C   0  0  0  0  0  0  0  0  0  0  0  0
   18.7083  -11.2185  -17.1544 C   0  0  2  0  0  0  0  0  0  0  0  0
   18.5831   -9.7916  -17.6522 C   0  0  0  0  0  0  0  0  0  0  0  0
   20.1234  -11.6689  -17.1093 C   0  0  2  0  0  0  0  0  0  0  0  0
   20.1814  -13.0805  -16.7058 N   0  0  0  0  0  0  0  0  0  0  0  0
   21.0571  -10.9226  -16.2795 C   0  0  0  0  0  0  0  0  0  0  0  0
   21.0474  -11.1041  -14.9994 O   0  0  0  0  0  0  0  0  0  0  0  0
   26.9576  -11.6294  -14.3066 C   0  0  0  0  0  0  0  0  0  0  0  0
   26.3738  -11.0546  -15.9442 S   0  0  0  0  0  0  0  0  0  0  0  0
   24.5734  -10.7919  -15.7887 C   0  0  0  0  0  0  0  0  0  0  0  0
   24.2251   -9.3472  -15.8926 C   0  0  0  0  0  0  0  0  0  0  0  0
   22.7578   -9.1050  -15.7563 C   0  0  2  0  0  0  0  0  0  0  0  0
   22.0263   -9.9781  -16.6998 N   0  0  0  0  0  0  0  0  0  0  0  0
   22.3248   -7.6976  -15.9599 C   0  0  0  0  0  0  0  0  0  0  0  0
   22.1991   -7.1992  -17.1067 O   0  0  0  0  0  0  0  0  0  0  0  0
   22.0358   -6.8614  -14.8459 N   0  0  0  0  0  0  0  0  0  0  0  0
   21.4683   -5.5047  -15.0019 C   0  0  1  0  0  0  0  0  0  0  0  0
   20.0774   -5.5101  -14.4589 C   0  0  0  0  0  0  0  0  0  0  0  0
   19.0671   -6.0194  -15.3860 C   0  0  0  0  0  0  0  0  0  0  0  0
   19.1921   -6.5515  -16.6326 C   0  0  0  0  0  0  0  0  0  0  0  0
   17.9512   -6.9448  -17.0357 N   0  0  0  0  0  0  0  0  0  0  0  0
   17.0750   -6.6732  -16.0800 C   0  0  0  0  0  0  0  0  0  0  0  0
   17.7432   -6.1157  -15.0835 N   0  0  0  0  0  0  0  0  0  0  0  0
   22.3750   -4.5828  -14.2205 C   0  0  0  0  0  0  0  0  0  0  0  0
   23.0271   -5.0681  -13.2735 O   0  0  0  0  0  0  0  0  0  0  0  0
   22.5107   -3.2601  -14.4953 O   0  0  0  0  0  0  0  0  0  0  0  0
  2  1  1  0
  3  2  1  0
  3  4  1  6
  5  3  1  0
  5  7  1  0
  5  6  1  1
  7  8  2  0
  9 10  1  0
 10 11  1  0
 11 12  1  0
 13 12  1  6
 13 15  1  0
 14 13  1  0
 14  7  1  0
 15 17  1  0
 15 16  2  0
 17 18  1  0
 18 25  1  0
 18 19  1  1
 20 24  1  0
 20 19  1  0
 21 20  2  0
 22 21  1  0
 22 23  1  0
 23 24  2  0
 25 26  2  0
 25 27  1  0
M  END
$$$$
