IMH.pdb
     RDKit          3D

 27 27  0  0  1  0  0  0  0  0999 V2000
   27.8363  -17.9699  -17.0754 C   0  0  0  0  0  0  0  0  0  0  0  0
   28.2824  -19.0226  -16.1185 C   0  0  0  0  0  0  0  0  0  0  0  0
   27.2022  -19.3604  -15.0822 C   0  0  2  0  0  0  0  0  0  0  0  0
   27.0491  -18.0881  -14.2716 C   0  0  0  0  0  0  0  0  0  0  0  0
   27.7316  -20.4810  -14.2627 C   0  0  2  0  0  0  0  0  0  0  0  0
   27.9017  -21.6731  -15.1044 N   0  0  0  0  0  0  0  0  0  0  0  0
   26.9934  -20.8705  -13.0708 C   0  0  0  0  0  0  0  0  0  0  0  0
   26.0020  -21.6928  -13.1836 O   0  0  0  0  0  0  0  0  0  0  0  0
   28.4121  -20.2065   -6.6793 C   0  0  0  0  0  0  0  0  0  0  0  0
   26.6275  -19.7975   -6.6480 S   0  0  0  0  0  0  0  0  0  0  0  0
   25.9198  -20.4505   -8.1996 C   0  0  0  0  0  0  0  0  0  0  0  0
   26.8348  -20.2200   -9.3524 C   0  0  0  0  0  0  0  0  0  0  0  0
   26.2548  -20.6974  -10.6430 C   0  0  2  0  0  0  0  0  0  0  0  0
   27.2219  -20.4551  -11.7354 N   0  0  0  0  0  0  0  0  0  0  0  0
   24.9449  -20.0986  -11.0107 C   0  0  0  0  0  0  0  0  0  0  0  0
   24.8264  -18.8802  -11.2950 O   0  0  0  0  0  0  0  0  0  0  0  0
   23.7696  -20.8990  -11.0520 N   0  0  0  0  0  0  0  0  0  0  0  0
   22.5830  -20.5208  -11.8493 C   0  0  1  0  0  0  0  0  0  0  0  0
   22.9743  -20.4861  -13.2898 C   0  0  0  0  0  0  0  0  0  0  0  0
   21.8917  -20.1205  -14.2030 C   0  0  0  0  0  0  0  0  0  0  0  0
   20.5986  -19.7748  -13.9558 C   0  0  0  0  0  0  0  0  0  0  0  0
   20.0271  -19.4486  -15.1491 N   0  0  0  0  0  0  0  0  0  0  0  0
   20.9249  -19.5816  -16.1141 C   0  0  0  0  0  0  0  0  0  0  0  0
   22.0504  -19.9860  -15.5485 N   0  0  0  0  0  0  0  0  0  0  0  0
   21.5421  -21.5804  -11.5732 C   0  0  0  0  0  0  0  0  0  0  0  0
   21.9022  -22.7751  -11.5994 O   0  0  0  0  0  0  0  0  0  0  0  0
   20.2420  -21.2971  -11.3031 O   0  0  0  0  0  0  0  0  0  0  0  0
  2  1  1  0
  3  2  1  0
  3  4  1  1
  5  3  1  0
  5  7  1  0
  5  6  1  6
  7  8  2  0
  9 10  1  0
 10 11  1  0
 11 12  1  0
 13 12  1  1
 13 15  1  0
 14 13  1  0
 14  7  1  0
 15 17  1  0
 15 16  2  0
 17 18  1  0
 18 25  1  0
 18 19  1  6
 20 24  1  0
 20 19  1  0
 21 20  2  0
 22 21  1  0
 22 23  1  0
 23 24  2  0
 25 26  2  0
 25 27  1  0
M  END
$$$$
