IMH.pdb
     RDKit          3D

 27 27  0  0  1  0  0  0  0  0999 V2000
   18.3079  -14.2856  -21.2660 C   0  0  0  0  0  0  0  0  0  0  0  0
   19.5910  -14.5406  -20.5510 C   0  0  0  0  0  0  0  0  0  0  0  0
   19.9083  -13.4485  -19.5206 C   0  0  2  0  0  0  0  0  0  0  0  0
   20.1089  -12.1959  -20.3514 C   0  0  0  0  0  0  0  0  0  0  0  0
   21.1566  -13.8626  -18.8294 C   0  0  2  0  0  0  0  0  0  0  0  0
   20.9403  -15.1418  -18.1400 N   0  0  0  0  0  0  0  0  0  0  0  0
   21.7596  -12.9356  -17.8838 C   0  0  0  0  0  0  0  0  0  0  0  0
   21.2014  -12.7584  -16.7310 O   0  0  0  0  0  0  0  0  0  0  0  0
   27.4265  -12.1700  -15.0035 C   0  0  0  0  0  0  0  0  0  0  0  0
   27.2164  -10.4913  -15.7043 S   0  0  0  0  0  0  0  0  0  0  0  0
   25.4239  -10.2601  -15.9650 C   0  0  0  0  0  0  0  0  0  0  0  0
   24.8788  -11.2715  -16.9133 C   0  0  0  0  0  0  0  0  0  0  0  0
   23.3964  -11.1703  -17.0622 C   0  0  2  0  0  0  0  0  0  0  0  0
   22.9340  -12.1618  -18.0575 N   0  0  0  0  0  0  0  0  0  0  0  0
   22.8862   -9.8264  -17.4406 C   0  0  0  0  0  0  0  0  0  0  0  0
   23.1088   -9.3240  -18.5709 O   0  0  0  0  0  0  0  0  0  0  0  0
   22.1199   -9.0581  -16.5208 N   0  0  0  0  0  0  0  0  0  0  0  0
   21.6715   -7.6813  -16.8214 C   0  0  1  0  0  0  0  0  0  0  0  0
   20.2806   -7.7457  -17.3606 C   0  0  0  0  0  0  0  0  0  0  0  0
   19.6799   -6.4425  -17.6443 C   0  0  0  0  0  0  0  0  0  0  0  0
   20.2241   -5.1949  -17.6494 C   0  0  0  0  0  0  0  0  0  0  0  0
   19.2554   -4.3278  -18.0578 N   0  0  0  0  0  0  0  0  0  0  0  0
   18.1414   -5.0014  -18.3031 C   0  0  0  0  0  0  0  0  0  0  0  0
   18.3927   -6.2765  -18.0556 N   0  0  0  0  0  0  0  0  0  0  0  0
   21.7346   -6.9288  -15.5129 C   0  0  0  0  0  0  0  0  0  0  0  0
   22.0061   -7.5739  -14.4796 O   0  0  0  0  0  0  0  0  0  0  0  0
   21.5084   -5.5942  -15.4077 O   0  0  0  0  0  0  0  0  0  0  0  0
  2  1  1  0
  3  2  1  0
  3  4  1  6
  5  3  1  0
  5  7  1  0
  5  6  1  1
  7  8  2  0
  9 10  1  0
 10 11  1  0
 11 12  1  0
 13 12  1  6
 13 15  1  0
 14 13  1  0
 14  7  1  0
 15 17  1  0
 15 16  2  0
 17 18  1  0
 18 25  1  0
 18 19  1  1
 20 24  1  0
 20 19  1  0
 21 20  2  0
 22 21  1  0
 22 23  1  0
 23 24  2  0
 25 26  2  0
 25 27  1  0
M  END
$$$$
