LVK.pdb
     RDKit          3D

 25 24  0  0  1  0  0  0  0  0999 V2000
   22.5065  -21.7601  -11.3558 C   0  0  0  0  0  0  0  0  0  0  0  0
   22.9650  -20.4786  -10.6791 C   0  0  1  0  0  0  0  0  0  0  0  0
   21.8568  -19.8175   -9.9132 C   0  0  0  0  0  0  0  0  0  0  0  0
   24.2048  -20.6850   -9.8663 C   0  0  0  0  0  0  0  0  0  0  0  0
   25.3623  -21.1978  -10.6959 C   0  0  2  0  0  0  0  0  0  0  0  0
   26.5350  -21.4452   -9.8872 N   0  0  0  0  0  0  0  0  0  0  0  0
   25.7262  -20.2453  -11.7692 C   0  0  0  0  0  0  0  0  0  0  0  0
   25.9667  -19.0152  -11.5189 O   0  0  0  0  0  0  0  0  0  0  0  0
   27.6249  -21.3901  -15.2194 C   0  0  0  0  0  0  0  0  0  0  0  0
   27.5292  -20.0002  -14.6850 C   0  0  2  0  0  0  0  0  0  0  0  0
   28.4748  -19.8029  -13.4968 C   0  0  0  0  0  0  0  0  0  0  0  0
   26.1382  -19.6588  -14.1694 C   0  0  2  0  0  0  0  0  0  0  0  0
   25.8319  -20.6297  -13.1363 N   0  0  0  0  0  0  0  0  0  0  0  0
   25.1358  -19.6824  -15.2571 C   0  0  0  0  0  0  0  0  0  0  0  0
   24.5524  -20.7656  -15.5098 O   0  0  0  0  0  0  0  0  0  0  0  0
   24.8538  -18.5014  -15.9851 N   0  0  0  0  0  0  0  0  0  0  0  0
   23.7850  -18.4581  -16.9976 C   0  0  1  0  0  0  0  0  0  0  0  0
   22.6435  -17.6357  -16.5568 C   0  0  0  0  0  0  0  0  0  0  0  0
   21.2765  -18.0532  -16.9143 C   0  0  0  0  0  0  0  0  0  0  0  0
   20.5439  -18.8886  -15.9004 C   0  0  0  0  0  0  0  0  0  0  0  0
   19.1886  -19.3353  -16.4107 C   0  0  0  0  0  0  0  0  0  0  0  0
   18.5471  -20.1295  -15.3891 N   0  0  0  0  0  0  0  0  0  0  0  0
   24.3911  -18.2199  -18.2903 C   0  0  0  0  0  0  0  0  0  0  0  0
   23.7308  -18.6280  -19.4389 O   0  0  0  0  0  0  0  0  0  0  0  0
   25.5044  -17.6588  -18.4873 O   0  0  0  0  0  0  0  0  0  0  0  0
  2  1  1  1
  2  3  1  0
  4  2  1  0
  5  6  1  1
  5  4  1  0
  7  5  1  0
  8  7  2  0
 10  9  1  1
 10 11  1  0
 12 13  1  1
 12 10  1  0
 13  7  1  0
 14 12  1  0
 15 14  2  0
 16 14  1  0
 17 18  1  1
 17 16  1  0
 19 18  1  0
 20 21  1  0
 20 19  1  0
 22 21  1  0
 23 24  1  0
 23 17  1  0
 25 23  2  0
M  END
$$$$
