LVK.pdb
     RDKit          3D

 25 24  0  0  1  0  0  0  0  0999 V2000
   28.6483  -19.2240   -7.1808 C   0  0  0  0  0  0  0  0  0  0  0  0
   27.4481  -20.0306   -7.6489 C   0  0  1  0  0  0  0  0  0  0  0  0
   26.2945  -19.9312   -6.6944 C   0  0  0  0  0  0  0  0  0  0  0  0
   27.0748  -19.7130   -9.0632 C   0  0  0  0  0  0  0  0  0  0  0  0
   26.7150  -20.9495   -9.8587 C   0  0  2  0  0  0  0  0  0  0  0  0
   27.8373  -21.8519   -9.9861 N   0  0  0  0  0  0  0  0  0  0  0  0
   26.2367  -20.6028  -11.2162 C   0  0  0  0  0  0  0  0  0  0  0  0
   26.9531  -19.9183  -12.0236 O   0  0  0  0  0  0  0  0  0  0  0  0
   23.6266  -23.0585  -13.0707 C   0  0  0  0  0  0  0  0  0  0  0  0
   24.4900  -22.0730  -13.7845 C   0  0  2  0  0  0  0  0  0  0  0  0
   25.9339  -22.5745  -13.8776 C   0  0  0  0  0  0  0  0  0  0  0  0
   24.5631  -20.7276  -13.0758 C   0  0  2  0  0  0  0  0  0  0  0  0
   24.9619  -21.0031  -11.7088 N   0  0  0  0  0  0  0  0  0  0  0  0
   23.2694  -20.0126  -13.1350 C   0  0  0  0  0  0  0  0  0  0  0  0
   22.4891  -20.1054  -12.1551 O   0  0  0  0  0  0  0  0  0  0  0  0
   22.9360  -19.2464  -14.2778 N   0  0  0  0  0  0  0  0  0  0  0  0
   21.6163  -18.6076  -14.4180 C   0  0  1  0  0  0  0  0  0  0  0  0
   21.6332  -17.5254  -15.4191 C   0  0  0  0  0  0  0  0  0  0  0  0
   21.1376  -17.7973  -16.7797 C   0  0  0  0  0  0  0  0  0  0  0  0
   21.4668  -16.7726  -17.8305 C   0  0  0  0  0  0  0  0  0  0  0  0
   20.8285  -17.1064  -19.1638 C   0  0  0  0  0  0  0  0  0  0  0  0
   21.1693  -16.0725  -20.1130 N   0  0  0  0  0  0  0  0  0  0  0  0
   20.6124  -19.6476  -14.4945 C   0  0  0  0  0  0  0  0  0  0  0  0
   20.9492  -20.8828  -15.0260 O   0  0  0  0  0  0  0  0  0  0  0  0
   19.4137  -19.5407  -14.1143 O   0  0  0  0  0  0  0  0  0  0  0  0
  2  1  1  1
  2  3  1  0
  4  2  1  0
  5  6  1  6
  5  4  1  0
  7  5  1  0
  8  7  2  0
 10  9  1  1
 10 11  1  0
 12 13  1  1
 12 10  1  0
 13  7  1  0
 14 12  1  0
 15 14  2  0
 16 14  1  0
 17 18  1  6
 17 16  1  0
 19 18  1  0
 20 21  1  0
 20 19  1  0
 22 21  1  0
 23 24  1  0
 23 17  1  0
 25 23  2  0
M  END
$$$$
