LVK.pdb
     RDKit          3D

 25 24  0  0  1  0  0  0  0  0999 V2000
   28.0492  -18.7907  -15.6517 C   0  0  0  0  0  0  0  0  0  0  0  0
   27.1173  -19.9874  -15.5519 C   0  0  1  0  0  0  0  0  0  0  0  0
   27.8498  -21.2434  -15.1808 C   0  0  0  0  0  0  0  0  0  0  0  0
   25.9375  -19.7091  -14.6738 C   0  0  0  0  0  0  0  0  0  0  0  0
   25.0439  -20.9190  -14.5041 C   0  0  2  0  0  0  0  0  0  0  0  0
   24.6647  -21.4897  -15.7771 N   0  0  0  0  0  0  0  0  0  0  0  0
   23.8114  -20.5840  -13.7555 C   0  0  0  0  0  0  0  0  0  0  0  0
   23.8558  -19.9873  -12.6260 O   0  0  0  0  0  0  0  0  0  0  0  0
   20.0475  -20.3342  -15.6327 C   0  0  0  0  0  0  0  0  0  0  0  0
   20.4830  -19.6539  -14.3781 C   0  0  2  0  0  0  0  0  0  0  0  0
   21.3600  -18.4378  -14.6893 C   0  0  0  0  0  0  0  0  0  0  0  0
   21.3220  -20.5512  -13.4790 C   0  0  2  0  0  0  0  0  0  0  0  0
   22.5087  -20.8997  -14.2364 N   0  0  0  0  0  0  0  0  0  0  0  0
   20.5691  -21.7530  -13.0577 C   0  0  0  0  0  0  0  0  0  0  0  0
   20.5615  -22.7517  -13.8192 O   0  0  0  0  0  0  0  0  0  0  0  0
   19.8795  -21.7585  -11.8213 N   0  0  0  0  0  0  0  0  0  0  0  0
   19.2083  -22.9698  -11.3198 C   0  0  1  0  0  0  0  0  0  0  0  0
   19.2613  -23.0584   -9.8490 C   0  0  0  0  0  0  0  0  0  0  0  0
   18.6481  -24.2169   -9.1763 C   0  0  0  0  0  0  0  0  0  0  0  0
   18.6406  -24.1923   -7.6723 C   0  0  0  0  0  0  0  0  0  0  0  0
   18.0125  -25.4428   -7.0907 C   0  0  0  0  0  0  0  0  0  0  0  0
   18.0383  -25.3475   -5.6497 N   0  0  0  0  0  0  0  0  0  0  0  0
   17.9418  -23.1068  -12.0071 C   0  0  0  0  0  0  0  0  0  0  0  0
   17.4913  -24.3690  -12.3618 O   0  0  0  0  0  0  0  0  0  0  0  0
   17.1760  -22.1576  -12.3319 O   0  0  0  0  0  0  0  0  0  0  0  0
  2  1  1  1
  2  3  1  0
  4  2  1  0
  5  6  1  6
  5  4  1  0
  7  5  1  0
  8  7  2  0
 10  9  1  6
 10 11  1  0
 12 13  1  6
 12 10  1  0
 13  7  1  0
 14 12  1  0
 15 14  2  0
 16 14  1  0
 17 18  1  1
 17 16  1  0
 19 18  1  0
 20 21  1  0
 20 19  1  0
 22 21  1  0
 23 24  1  0
 23 17  1  0
 25 23  2  0
M  END
$$$$
