LVK.pdb
     RDKit          3D

 25 24  0  0  1  0  0  0  0  0999 V2000
   26.2870  -23.2263  -18.4316 C   0  0  0  0  0  0  0  0  0  0  0  0
   26.4182  -23.8866  -17.0688 C   0  0  1  0  0  0  0  0  0  0  0  0
   27.8373  -23.8975  -16.5814 C   0  0  0  0  0  0  0  0  0  0  0  0
   25.4553  -23.3176  -16.0739 C   0  0  0  0  0  0  0  0  0  0  0  0
   25.5050  -24.0373  -14.7432 C   0  0  2  0  0  0  0  0  0  0  0  0
   25.0311  -25.3990  -14.8507 N   0  0  0  0  0  0  0  0  0  0  0  0
   24.6970  -23.3400  -13.7173 C   0  0  0  0  0  0  0  0  0  0  0  0
   23.4333  -23.5112  -13.6306 O   0  0  0  0  0  0  0  0  0  0  0  0
   24.6299  -20.2796   -9.7882 C   0  0  0  0  0  0  0  0  0  0  0  0
   25.3575  -21.0682  -10.8251 C   0  0  2  0  0  0  0  0  0  0  0  0
   26.3436  -20.1849  -11.5946 C   0  0  0  0  0  0  0  0  0  0  0  0
   24.4296  -21.6652  -11.8739 C   0  0  2  0  0  0  0  0  0  0  0  0
   25.2652  -22.4424  -12.7689 N   0  0  0  0  0  0  0  0  0  0  0  0
   23.6820  -20.6139  -12.5980 C   0  0  0  0  0  0  0  0  0  0  0  0
   24.3293  -19.7822  -13.2812 O   0  0  0  0  0  0  0  0  0  0  0  0
   22.2699  -20.5624  -12.5109 N   0  0  0  0  0  0  0  0  0  0  0  0
   21.4874  -19.5732  -13.2716 C   0  0  1  0  0  0  0  0  0  0  0  0
   21.7582  -19.6536  -14.7186 C   0  0  0  0  0  0  0  0  0  0  0  0
   21.0258  -18.7645  -15.6373 C   0  0  0  0  0  0  0  0  0  0  0  0
   21.2650  -18.9754  -17.1073 C   0  0  0  0  0  0  0  0  0  0  0  0
   20.5401  -17.9456  -17.9502 C   0  0  0  0  0  0  0  0  0  0  0  0
   20.8305  -18.1982  -19.3424 N   0  0  0  0  0  0  0  0  0  0  0  0
   20.1231  -19.6025  -12.7887 C   0  0  0  0  0  0  0  0  0  0  0  0
   19.7528  -20.5510  -11.8480 O   0  0  0  0  0  0  0  0  0  0  0  0
   19.1985  -18.8239  -13.1521 O   0  0  0  0  0  0  0  0  0  0  0  0
  2  1  1  6
  2  3  1  0
  4  2  1  0
  5  6  1  6
  5  4  1  0
  7  5  1  0
  8  7  2  0
 10  9  1  1
 10 11  1  0
 12 13  1  6
 12 10  1  0
 13  7  1  0
 14 12  1  0
 15 14  2  0
 16 14  1  0
 17 18  1  6
 17 16  1  0
 19 18  1  0
 20 21  1  0
 20 19  1  0
 22 21  1  0
 23 24  1  0
 23 17  1  0
 25 23  2  0
M  END
$$$$
