LVK.pdb
     RDKit          3D

 25 24  0  0  1  0  0  0  0  0999 V2000
   17.3322  -14.3883  -19.0728 C   0  0  0  0  0  0  0  0  0  0  0  0
   18.6835  -13.7611  -18.7715 C   0  0  1  0  0  0  0  0  0  0  0  0
   19.3093  -13.1549  -19.9932 C   0  0  0  0  0  0  0  0  0  0  0  0
   18.6190  -12.8187  -17.6103 C   0  0  0  0  0  0  0  0  0  0  0  0
   19.9624  -12.1971  -17.2938 C   0  0  2  0  0  0  0  0  0  0  0  0
   20.9341  -13.1912  -16.8964 N   0  0  0  0  0  0  0  0  0  0  0  0
   19.8548  -11.1899  -16.2142 C   0  0  0  0  0  0  0  0  0  0  0  0
   18.7718  -11.0288  -15.5548 O   0  0  0  0  0  0  0  0  0  0  0  0
   23.1444   -8.5745  -15.2217 C   0  0  0  0  0  0  0  0  0  0  0  0
   22.1331   -9.0531  -14.2345 C   0  0  2  0  0  0  0  0  0  0  0  0
   22.5529  -10.3937  -13.6249 C   0  0  0  0  0  0  0  0  0  0  0  0
   20.7645   -9.2910  -14.8573 C   0  0  2  0  0  0  0  0  0  0  0  0
   20.9368  -10.3423  -15.8414 N   0  0  0  0  0  0  0  0  0  0  0  0
   20.2232   -8.0557  -15.4652 C   0  0  0  0  0  0  0  0  0  0  0  0
   20.6456   -7.7108  -16.5967 O   0  0  0  0  0  0  0  0  0  0  0  0
   19.2523   -7.2929  -14.7725 N   0  0  0  0  0  0  0  0  0  0  0  0
   18.6774   -6.0679  -15.3542 C   0  0  1  0  0  0  0  0  0  0  0  0
   17.2043   -6.1155  -15.3897 C   0  0  0  0  0  0  0  0  0  0  0  0
   16.4590   -4.9433  -15.8811 C   0  0  0  0  0  0  0  0  0  0  0  0
   14.9586   -5.0477  -15.8649 C   0  0  0  0  0  0  0  0  0  0  0  0
   14.3034   -3.8671  -16.5530 C   0  0  0  0  0  0  0  0  0  0  0  0
   12.8701   -3.9932  -16.4260 N   0  0  0  0  0  0  0  0  0  0  0  0
   19.3500   -4.9270  -14.7703 C   0  0  0  0  0  0  0  0  0  0  0  0
   19.3461   -3.7150  -15.4432 O   0  0  0  0  0  0  0  0  0  0  0  0
   19.9663   -4.9223  -13.6688 O   0  0  0  0  0  0  0  0  0  0  0  0
  2  1  1  6
  2  3  1  0
  4  2  1  0
  5  6  1  1
  5  4  1  0
  7  5  1  0
  8  7  2  0
 10  9  1  6
 10 11  1  0
 12 13  1  6
 12 10  1  0
 13  7  1  0
 14 12  1  0
 15 14  2  0
 16 14  1  0
 17 18  1  1
 17 16  1  0
 19 18  1  0
 20 21  1  0
 20 19  1  0
 22 21  1  0
 23 24  1  0
 23 17  1  0
 25 23  2  0
M  END
$$$$
