LVK.pdb
     RDKit          3D

 25 24  0  0  1  0  0  0  0  0999 V2000
   20.4723  -14.4707  -19.0173 C   0  0  0  0  0  0  0  0  0  0  0  0
   20.0998  -14.0850  -17.5950 C   0  0  1  0  0  0  0  0  0  0  0  0
   21.3075  -13.7803  -16.7583 C   0  0  0  0  0  0  0  0  0  0  0  0
   19.0666  -13.0026  -17.5589 C   0  0  0  0  0  0  0  0  0  0  0  0
   18.6420  -12.6544  -16.1483 C   0  0  2  0  0  0  0  0  0  0  0  0
   17.9143  -13.7363  -15.5237 N   0  0  0  0  0  0  0  0  0  0  0  0
   17.7936  -11.4415  -16.1194 C   0  0  0  0  0  0  0  0  0  0  0  0
   16.7073  -11.3686  -16.7890 O   0  0  0  0  0  0  0  0  0  0  0  0
   16.0511   -7.6533  -13.7178 C   0  0  0  0  0  0  0  0  0  0  0  0
   16.7647   -8.9464  -13.9308 C   0  0  2  0  0  0  0  0  0  0  0  0
   17.9994   -9.0465  -13.0307 C   0  0  0  0  0  0  0  0  0  0  0  0
   17.2752   -9.1130  -15.3553 C   0  0  2  0  0  0  0  0  0  0  0  0
   18.1256  -10.2878  -15.3534 N   0  0  0  0  0  0  0  0  0  0  0  0
   18.0041   -7.9103  -15.8142 C   0  0  0  0  0  0  0  0  0  0  0  0
   19.1428   -7.6821  -15.3360 O   0  0  0  0  0  0  0  0  0  0  0  0
   17.4157   -7.0484  -16.7709 N   0  0  0  0  0  0  0  0  0  0  0  0
   18.1125   -5.8436  -17.2530 C   0  0  1  0  0  0  0  0  0  0  0  0
   17.5745   -5.3774  -18.5441 C   0  0  0  0  0  0  0  0  0  0  0  0
   18.1404   -4.1659  -19.1630 C   0  0  0  0  0  0  0  0  0  0  0  0
   17.5608   -3.7575  -20.4896 C   0  0  0  0  0  0  0  0  0  0  0  0
   18.2761   -2.5549  -21.0716 C   0  0  0  0  0  0  0  0  0  0  0  0
   17.5539   -2.1059  -22.2390 N   0  0  0  0  0  0  0  0  0  0  0  0
   18.2414   -4.9186  -16.1471 C   0  0  0  0  0  0  0  0  0  0  0  0
   17.2042   -4.7965  -15.2355 O   0  0  0  0  0  0  0  0  0  0  0  0
   19.2397   -4.1805  -15.9195 O   0  0  0  0  0  0  0  0  0  0  0  0
  2  1  1  6
  2  3  1  0
  4  2  1  0
  5  6  1  6
  5  4  1  0
  7  5  1  0
  8  7  2  0
 10  9  1  6
 10 11  1  0
 12 13  1  1
 12 10  1  0
 13  7  1  0
 14 12  1  0
 15 14  2  0
 16 14  1  0
 17 18  1  6
 17 16  1  0
 19 18  1  0
 20 21  1  0
 20 19  1  0
 22 21  1  0
 23 24  1  0
 23 17  1  0
 25 23  2  0
M  END
$$$$
