LVK.pdb
     RDKit          3D

 25 24  0  0  1  0  0  0  0  0999 V2000
   21.0318  -17.8782  -14.6557 C   0  0  0  0  0  0  0  0  0  0  0  0
   19.7709  -17.0949  -14.9826 C   0  0  1  0  0  0  0  0  0  0  0  0
   18.9156  -16.8709  -13.7702 C   0  0  0  0  0  0  0  0  0  0  0  0
   20.0707  -15.8366  -15.7358 C   0  0  0  0  0  0  0  0  0  0  0  0
   18.8177  -15.0786  -16.1189 C   0  0  2  0  0  0  0  0  0  0  0  0
   18.0294  -15.8008  -17.0922 N   0  0  0  0  0  0  0  0  0  0  0  0
   19.1377  -13.7437  -16.6731 C   0  0  0  0  0  0  0  0  0  0  0  0
   19.7199  -13.6103  -17.8032 O   0  0  0  0  0  0  0  0  0  0  0  0
   17.9508   -9.0089  -16.8717 C   0  0  0  0  0  0  0  0  0  0  0  0
   17.7994  -10.4250  -16.4264 C   0  0  2  0  0  0  0  0  0  0  0  0
   17.4618  -10.4980  -14.9345 C   0  0  0  0  0  0  0  0  0  0  0  0
   19.0725  -11.2406  -16.6040 C   0  0  2  0  0  0  0  0  0  0  0  0
   18.8227  -12.5324  -15.9938 N   0  0  0  0  0  0  0  0  0  0  0  0
   20.2390  -10.5643  -15.9956 C   0  0  0  0  0  0  0  0  0  0  0  0
   20.4384  -10.7075  -14.7638 O   0  0  0  0  0  0  0  0  0  0  0  0
   21.0996   -9.7780  -16.7991 N   0  0  0  0  0  0  0  0  0  0  0  0
   22.3075   -9.1453  -16.2423 C   0  0  1  0  0  0  0  0  0  0  0  0
   23.5210   -9.5274  -16.9873 C   0  0  0  0  0  0  0  0  0  0  0  0
   24.8255   -8.9932  -16.5586 C   0  0  0  0  0  0  0  0  0  0  0  0
   26.0319   -9.4886  -17.3080 C   0  0  0  0  0  0  0  0  0  0  0  0
   27.2971   -8.7757  -16.8749 C   0  0  0  0  0  0  0  0  0  0  0  0
   28.4048   -9.2853  -17.6492 N   0  0  0  0  0  0  0  0  0  0  0  0
   22.0188   -7.7480  -15.9986 C   0  0  0  0  0  0  0  0  0  0  0  0
   22.3281   -7.1925  -14.7667 O   0  0  0  0  0  0  0  0  0  0  0  0
   21.4914   -6.9521  -16.8240 O   0  0  0  0  0  0  0  0  0  0  0  0
  2  1  1  1
  2  3  1  0
  4  2  1  0
  5  6  1  6
  5  4  1  0
  7  5  1  0
  8  7  2  0
 10  9  1  1
 10 11  1  0
 12 13  1  1
 12 10  1  0
 13  7  1  0
 14 12  1  0
 15 14  2  0
 16 14  1  0
 17 18  1  6
 17 16  1  0
 19 18  1  0
 20 21  1  0
 20 19  1  0
 22 21  1  0
 23 24  1  0
 23 17  1  0
 25 23  2  0
M  END
$$$$
