LTP.pdb
     RDKit          3D

 23 23  0  0  1  0  0  0  0  0999 V2000
    5.6999  -11.9075   25.9861 C   0  0  0  0  0  0  0  0  0  0  0  0
    6.4936  -12.7408   26.9660 C   0  0  2  0  0  0  0  0  0  0  0  0
    7.3256  -11.8248   27.8363 C   0  0  0  0  0  0  0  0  0  0  0  0
    7.3418  -13.7030   26.1930 C   0  0  0  0  0  0  0  0  0  0  0  0
    6.4344  -14.6087   25.3937 C   0  0  2  0  0  0  0  0  0  0  0  0
    5.4507  -15.2497   26.2163 N   0  0  0  0  0  0  0  0  0  0  0  0
    7.2591  -15.6138   24.6370 C   0  0  0  0  0  0  0  0  0  0  0  0
    7.4180  -16.7536   25.1349 O   0  0  0  0  0  0  0  0  0  0  0  0
    7.1158  -15.6058   20.8281 C   0  0  0  0  0  0  0  0  0  0  0  0
    8.5713  -15.8000   21.1934 C   0  0  1  0  0  0  0  0  0  0  0  0
    9.1728  -14.5230   21.1086 O   0  0  0  0  0  0  0  0  0  0  0  0
    8.6778  -16.2968   22.6505 C   0  0  2  0  0  0  0  0  0  0  0  0
    7.8554  -15.3318   23.4039 N   0  0  0  0  0  0  0  0  0  0  0  0
   10.0876  -16.2354   23.1067 C   0  0  0  0  0  0  0  0  0  0  0  0
   10.5836  -15.0536   23.1648 O   0  0  0  0  0  0  0  0  0  0  0  0
   10.8721  -17.3661   23.4646 N   0  0  0  0  0  0  0  0  0  0  0  0
   10.3837  -18.6984   23.5935 C   0  0  0  0  0  0  0  0  0  0  0  0
   11.6054  -19.5088   23.1161 C   0  0  0  0  0  0  0  0  0  0  0  0
   12.7233  -18.7446   23.8502 C   0  0  0  0  0  0  0  0  0  0  0  0
   12.2561  -17.3066   23.8027 C   0  0  1  0  0  0  0  0  0  0  0  0
   13.0551  -16.5348   22.8111 C   0  0  0  0  0  0  0  0  0  0  0  0
   12.5558  -16.2471   21.7204 O   0  0  0  0  0  0  0  0  0  0  0  0
   14.3330  -16.1572   23.1278 O   0  0  0  0  0  0  0  0  0  0  0  0
  2  3  1  6
  2  1  1  0
  4  2  1  0
  5  7  1  0
  5  4  1  0
  5  6  1  1
  7 13  1  0
  8  7  2  0
 10  9  1  1
 10 12  1  0
 11 10  1  0
 12 13  1  1
 12 14  1  0
 14 16  1  0
 15 14  2  0
 16 20  1  0
 16 17  1  0
 17 18  1  0
 19 18  1  0
 20 19  1  0
 20 21  1  6
 21 23  1  0
 22 21  2  0
M  END
$$$$
