LTP.pdb
     RDKit          3D

 23 23  0  0  1  0  0  0  0  0999 V2000
    9.8498  -13.2198   20.0809 C   0  0  0  0  0  0  0  0  0  0  0  0
    8.9363  -13.6297   18.9486 C   0  0  2  0  0  0  0  0  0  0  0  0
    8.4057  -12.3887   18.2651 C   0  0  0  0  0  0  0  0  0  0  0  0
    7.8349  -14.4754   19.5095 C   0  0  0  0  0  0  0  0  0  0  0  0
    8.4391  -15.4839   20.4584 C   0  0  2  0  0  0  0  0  0  0  0  0
    8.5786  -16.7767   19.8549 N   0  0  0  0  0  0  0  0  0  0  0  0
    7.6196  -15.5498   21.7182 C   0  0  0  0  0  0  0  0  0  0  0  0
    6.4716  -16.0507   21.6596 O   0  0  0  0  0  0  0  0  0  0  0  0
    6.4438  -17.3573   23.2537 C   0  0  0  0  0  0  0  0  0  0  0  0
    7.2556  -16.7703   24.3877 C   0  0  1  0  0  0  0  0  0  0  0  0
    8.5545  -17.3162   24.2665 O   0  0  0  0  0  0  0  0  0  0  0  0
    7.3492  -15.2391   24.2193 C   0  0  2  0  0  0  0  0  0  0  0  0
    8.0827  -15.0769   22.9501 N   0  0  0  0  0  0  0  0  0  0  0  0
    8.1245  -14.6512   25.3385 C   0  0  0  0  0  0  0  0  0  0  0  0
    9.2980  -15.1445   25.4981 O   0  0  0  0  0  0  0  0  0  0  0  0
    7.6521  -13.6198   26.1959 N   0  0  0  0  0  0  0  0  0  0  0  0
    6.4585  -12.8676   25.9974 C   0  0  0  0  0  0  0  0  0  0  0  0
    6.0120  -12.6311   27.4541 C   0  0  0  0  0  0  0  0  0  0  0  0
    7.3697  -12.2643   28.0824 C   0  0  0  0  0  0  0  0  0  0  0  0
    8.3483  -13.1562   27.3508 C   0  0  1  0  0  0  0  0  0  0  0  0
    8.7960  -14.2682   28.2343 C   0  0  0  0  0  0  0  0  0  0  0  0
    8.2870  -15.3850   28.1106 O   0  0  0  0  0  0  0  0  0  0  0  0
    9.7670  -14.0311   29.1707 O   0  0  0  0  0  0  0  0  0  0  0  0
  2  3  1  1
  2  1  1  0
  4  2  1  0
  5  7  1  0
  5  4  1  0
  5  6  1  6
  7 13  1  0
  8  7  2  0
 10  9  1  6
 10 12  1  0
 11 10  1  0
 12 13  1  6
 12 14  1  0
 14 16  1  0
 15 14  2  0
 16 20  1  0
 16 17  1  0
 17 18  1  0
 19 18  1  0
 20 19  1  0
 20 21  1  1
 21 23  1  0
 22 21  2  0
M  END
$$$$
