LTP.pdb
     RDKit          3D

 23 23  0  0  1  0  0  0  0  0999 V2000
    6.7043  -20.6621   27.2136 C   0  0  0  0  0  0  0  0  0  0  0  0
    8.0071  -19.9417   26.9520 C   0  0  2  0  0  0  0  0  0  0  0  0
    8.9808  -20.2571   28.0661 C   0  0  0  0  0  0  0  0  0  0  0  0
    7.7261  -18.4740   26.8514 C   0  0  0  0  0  0  0  0  0  0  0  0
    6.8452  -18.2348   25.6476 C   0  0  2  0  0  0  0  0  0  0  0  0
    7.0121  -19.2474   24.6467 N   0  0  0  0  0  0  0  0  0  0  0  0
    7.1080  -16.8620   25.0913 C   0  0  0  0  0  0  0  0  0  0  0  0
    7.0708  -15.8825   25.8733 O   0  0  0  0  0  0  0  0  0  0  0  0
    8.7126  -14.5198   25.3315 C   0  0  0  0  0  0  0  0  0  0  0  0
    9.0146  -14.9119   23.9016 C   0  0  1  0  0  0  0  0  0  0  0  0
    9.8463  -16.0534   23.9731 O   0  0  0  0  0  0  0  0  0  0  0  0
    7.7055  -15.3029   23.1841 C   0  0  2  0  0  0  0  0  0  0  0  0
    7.3914  -16.6318   23.7414 N   0  0  0  0  0  0  0  0  0  0  0  0
    7.9367  -15.4012   21.7225 C   0  0  0  0  0  0  0  0  0  0  0  0
    8.3584  -16.5440   21.3199 O   0  0  0  0  0  0  0  0  0  0  0  0
    7.7225  -14.3435   20.7966 N   0  0  0  0  0  0  0  0  0  0  0  0
    7.1975  -13.0595   21.1218 C   0  0  0  0  0  0  0  0  0  0  0  0
    7.9629  -12.1658   20.1255 C   0  0  0  0  0  0  0  0  0  0  0  0
    7.8489  -13.0363   18.8598 C   0  0  0  0  0  0  0  0  0  0  0  0
    7.9529  -14.4480   19.3932 C   0  0  1  0  0  0  0  0  0  0  0  0
    9.2878  -15.0254   19.0736 C   0  0  0  0  0  0  0  0  0  0  0  0
   10.1678  -15.0362   19.9379 O   0  0  0  0  0  0  0  0  0  0  0  0
    9.5157  -15.5354   17.8231 O   0  0  0  0  0  0  0  0  0  0  0  0
  2  3  1  1
  2  1  1  0
  4  2  1  0
  5  7  1  0
  5  4  1  0
  5  6  1  6
  7 13  1  0
  8  7  2  0
 10  9  1  1
 10 12  1  0
 11 10  1  0
 12 13  1  1
 12 14  1  0
 14 16  1  0
 15 14  2  0
 16 20  1  0
 16 17  1  0
 17 18  1  0
 19 18  1  0
 20 19  1  0
 20 21  1  1
 21 23  1  0
 22 21  2  0
M  END
$$$$
