LTP.pdb
     RDKit          3D

 23 23  0  0  1  0  0  0  0  0999 V2000
   10.7613  -15.2948   28.0934 C   0  0  0  0  0  0  0  0  0  0  0  0
    9.4784  -14.7822   27.4802 C   0  0  2  0  0  0  0  0  0  0  0  0
    9.1282  -13.4492   28.1043 C   0  0  0  0  0  0  0  0  0  0  0  0
    8.4056  -15.8038   27.7007 C   0  0  0  0  0  0  0  0  0  0  0  0
    8.2187  -16.5878   26.4228 C   0  0  2  0  0  0  0  0  0  0  0  0
    9.4379  -17.1990   25.9812 N   0  0  0  0  0  0  0  0  0  0  0  0
    7.6335  -15.6965   25.3616 C   0  0  0  0  0  0  0  0  0  0  0  0
    6.5004  -15.1967   25.5582 O   0  0  0  0  0  0  0  0  0  0  0  0
    7.7175  -12.5487   24.6381 C   0  0  0  0  0  0  0  0  0  0  0  0
    8.3791  -13.1540   23.4193 C   0  0  1  0  0  0  0  0  0  0  0  0
    9.7363  -13.3509   23.7645 O   0  0  0  0  0  0  0  0  0  0  0  0
    7.7460  -14.5281   23.1149 C   0  0  2  0  0  0  0  0  0  0  0  0
    8.2982  -15.4019   24.1670 N   0  0  0  0  0  0  0  0  0  0  0  0
    8.1767  -15.0010   21.7770 C   0  0  0  0  0  0  0  0  0  0  0  0
    8.9610  -16.0163   21.7916 O   0  0  0  0  0  0  0  0  0  0  0  0
    7.7802  -14.4127   20.5447 N   0  0  0  0  0  0  0  0  0  0  0  0
    6.8219  -13.3679   20.4028 C   0  0  0  0  0  0  0  0  0  0  0  0
    7.4032  -12.5941   19.2025 C   0  0  0  0  0  0  0  0  0  0  0  0
    7.7806  -13.7781   18.2923 C   0  0  0  0  0  0  0  0  0  0  0  0
    8.2516  -14.8348   19.2668 C   0  0  1  0  0  0  0  0  0  0  0  0
    9.7345  -14.9615   19.2167 C   0  0  0  0  0  0  0  0  0  0  0  0
   10.4206  -14.4131   20.0828 O   0  0  0  0  0  0  0  0  0  0  0  0
   10.3118  -15.6859   18.2079 O   0  0  0  0  0  0  0  0  0  0  0  0
  2  3  1  1
  2  1  1  0
  4  2  1  0
  5  7  1  0
  5  4  1  0
  5  6  1  6
  7 13  1  0
  8  7  2  0
 10  9  1  1
 10 12  1  0
 11 10  1  0
 12 13  1  1
 12 14  1  0
 14 16  1  0
 15 14  2  0
 16 20  1  0
 16 17  1  0
 17 18  1  0
 19 18  1  0
 20 19  1  0
 20 21  1  1
 21 23  1  0
 22 21  2  0
M  END
$$$$
