LTP.pdb
     RDKit          3D

 23 23  0  0  1  0  0  0  0  0999 V2000
   10.0350  -13.5409   19.7915 C   0  0  0  0  0  0  0  0  0  0  0  0
    8.8924  -13.8529   18.8524 C   0  0  2  0  0  0  0  0  0  0  0  0
    8.5036  -12.5942   18.1086 C   0  0  0  0  0  0  0  0  0  0  0  0
    7.7547  -14.4038   19.6556 C   0  0  0  0  0  0  0  0  0  0  0  0
    8.2566  -15.5852   20.4524 C   0  0  2  0  0  0  0  0  0  0  0  0
    8.1757  -16.8097   19.7114 N   0  0  0  0  0  0  0  0  0  0  0  0
    7.5046  -15.6772   21.7520 C   0  0  0  0  0  0  0  0  0  0  0  0
    6.3535  -16.1744   21.7432 O   0  0  0  0  0  0  0  0  0  0  0  0
    6.3669  -17.4794   23.3364 C   0  0  0  0  0  0  0  0  0  0  0  0
    7.2262  -16.9045   24.4413 C   0  0  1  0  0  0  0  0  0  0  0  0
    8.5096  -17.4762   24.2805 O   0  0  0  0  0  0  0  0  0  0  0  0
    7.3443  -15.3761   24.2637 C   0  0  2  0  0  0  0  0  0  0  0  0
    8.0335  -15.2326   22.9678 N   0  0  0  0  0  0  0  0  0  0  0  0
    8.1718  -14.8005   25.3514 C   0  0  0  0  0  0  0  0  0  0  0  0
    9.3078  -15.3716   25.5234 O   0  0  0  0  0  0  0  0  0  0  0  0
    7.7850  -13.7023   26.1677 N   0  0  0  0  0  0  0  0  0  0  0  0
    6.6657  -12.8538   25.9284 C   0  0  0  0  0  0  0  0  0  0  0  0
    6.2271  -12.5286   27.3703 C   0  0  0  0  0  0  0  0  0  0  0  0
    7.6057  -12.2632   28.0042 C   0  0  0  0  0  0  0  0  0  0  0  0
    8.5079  -13.2634   27.3158 C   0  0  1  0  0  0  0  0  0  0  0  0
    8.8449  -14.3799   28.2417 C   0  0  0  0  0  0  0  0  0  0  0  0
    8.2406  -15.4511   28.1469 O   0  0  0  0  0  0  0  0  0  0  0  0
    9.8218  -14.1977   29.1842 O   0  0  0  0  0  0  0  0  0  0  0  0
  2  3  1  1
  2  1  1  0
  4  2  1  0
  5  7  1  0
  5  4  1  0
  5  6  1  6
  7 13  1  0
  8  7  2  0
 10  9  1  6
 10 12  1  0
 11 10  1  0
 12 13  1  6
 12 14  1  0
 14 16  1  0
 15 14  2  0
 16 20  1  0
 16 17  1  0
 17 18  1  0
 19 18  1  0
 20 19  1  0
 20 21  1  1
 21 23  1  0
 22 21  2  0
M  END
$$$$
