LTP.pdb
     RDKit          3D

 23 23  0  0  1  0  0  0  0  0999 V2000
   12.3401  -20.0868   22.3433 C   0  0  0  0  0  0  0  0  0  0  0  0
   12.2753  -19.0269   23.4190 C   0  0  2  0  0  0  0  0  0  0  0  0
   12.5552  -19.6651   24.7619 C   0  0  0  0  0  0  0  0  0  0  0  0
   10.9223  -18.3864   23.3735 C   0  0  0  0  0  0  0  0  0  0  0  0
   10.8755  -17.4454   22.1925 C   0  0  2  0  0  0  0  0  0  0  0  0
   12.1565  -17.3022   21.5653 N   0  0  0  0  0  0  0  0  0  0  0  0
   10.3223  -16.1151   22.6251 C   0  0  0  0  0  0  0  0  0  0  0  0
   11.1263  -15.2145   22.9640 O   0  0  0  0  0  0  0  0  0  0  0  0
    7.5198  -13.8357   20.9256 C   0  0  0  0  0  0  0  0  0  0  0  0
    7.1241  -14.3809   22.2806 C   0  0  1  0  0  0  0  0  0  0  0  0
    6.5491  -15.6506   22.0420 O   0  0  0  0  0  0  0  0  0  0  0  0
    8.3841  -14.5687   23.1515 C   0  0  2  0  0  0  0  0  0  0  0  0
    8.9517  -15.8402   22.6655 N   0  0  0  0  0  0  0  0  0  0  0  0
    8.0016  -14.6901   24.5792 C   0  0  0  0  0  0  0  0  0  0  0  0
    7.8665  -15.8946   24.9997 O   0  0  0  0  0  0  0  0  0  0  0  0
    7.7905  -13.5911   25.4565 N   0  0  0  0  0  0  0  0  0  0  0  0
    8.1217  -12.2352   25.1706 C   0  0  0  0  0  0  0  0  0  0  0  0
    6.9909  -11.4921   25.9098 C   0  0  0  0  0  0  0  0  0  0  0  0
    6.9732  -12.2943   27.2247 C   0  0  0  0  0  0  0  0  0  0  0  0
    7.2664  -13.7093   26.7774 C   0  0  1  0  0  0  0  0  0  0  0  0
    6.0291  -14.5362   26.8306 C   0  0  0  0  0  0  0  0  0  0  0  0
    5.4114  -14.7730   25.7894 O   0  0  0  0  0  0  0  0  0  0  0  0
    5.5975  -15.0203   28.0369 O   0  0  0  0  0  0  0  0  0  0  0  0
  2  3  1  1
  2  1  1  0
  4  2  1  0
  5  7  1  0
  5  4  1  0
  5  6  1  1
  7 13  1  0
  8  7  2  0
 10  9  1  6
 10 12  1  0
 11 10  1  0
 12 13  1  6
 12 14  1  0
 14 16  1  0
 15 14  2  0
 16 20  1  0
 16 17  1  0
 17 18  1  0
 19 18  1  0
 20 19  1  0
 20 21  1  6
 21 23  1  0
 22 21  2  0
M  END
$$$$
