ECW.pdb
     RDKit          3D

 30 31  0  0  1  0  0  0  0  0999 V2000
   10.7795  -17.5386   19.1014 N   0  0  0  0  0  0  0  0  0  0  0  0
    9.8933  -16.8955   20.0499 C   0  0  1  0  0  0  0  0  0  0  0  0
    8.4774  -17.1989   19.6179 C   0  0  0  0  0  0  0  0  0  0  0  0
    8.3605  -16.9461   18.1311 C   0  0  0  0  0  0  0  0  0  0  0  0
    7.0209  -17.2199   17.6114 C   0  0  0  0  0  0  0  0  0  0  0  0
    6.7474  -17.0178   16.4023 O   0  0  0  0  0  0  0  0  0  0  0  0
   10.2033  -17.3673   21.3953 C   0  0  0  0  0  0  0  0  0  0  0  0
    9.5193  -18.2903   21.9069 O   0  0  0  0  0  0  0  0  0  0  0  0
    6.0212  -17.7099   18.4463 O   0  0  0  0  0  0  0  0  0  0  0  0
   11.2850  -16.7777   22.1275 N   0  0  0  0  0  0  0  0  0  0  0  0
   11.6480  -17.2100   23.4383 C   0  0  1  0  0  0  0  0  0  0  0  0
   13.1366  -17.0459   23.6803 C   0  0  0  0  0  0  0  0  0  0  0  0
   13.5883  -17.7117   25.3217 S   0  0  0  0  0  0  0  0  0  0  0  0
   10.8804  -16.4844   24.5119 C   0  0  0  0  0  0  0  0  0  0  0  0
   10.8080  -15.2376   24.4383 O   0  0  0  0  0  0  0  0  0  0  0  0
   10.2831  -17.2235   25.5416 N   0  0  0  0  0  0  0  0  0  0  0  0
    9.6792  -16.6463   26.7207 C   0  0  1  0  0  0  0  0  0  0  0  0
    8.1800  -16.6929   26.6561 C   0  0  0  0  0  0  0  0  0  0  0  0
    7.6001  -15.6015   25.8688 C   0  0  0  0  0  0  0  0  0  0  0  0
    7.0684  -15.6852   24.6054 C   0  0  0  0  0  0  0  0  0  0  0  0
    6.6415  -14.4874   24.2162 N   0  0  0  0  0  0  0  0  0  0  0  0
    6.8919  -13.6213   25.2197 C   0  0  0  0  0  0  0  0  0  0  0  0
    6.6582  -12.2569   25.3585 C   0  0  0  0  0  0  0  0  0  0  0  0
    7.0178  -11.5947   26.5130 C   0  0  0  0  0  0  0  0  0  0  0  0
    7.6213  -12.3001   27.5512 C   0  0  0  0  0  0  0  0  0  0  0  0
    7.8599  -13.6330   27.4397 C   0  0  0  0  0  0  0  0  0  0  0  0
    7.4945  -14.2831   26.2778 C   0  0  0  0  0  0  0  0  0  0  0  0
   10.2192  -17.3352   27.9191 C   0  0  0  0  0  0  0  0  0  0  0  0
    9.8726  -16.9631   29.0568 O   0  0  0  0  0  0  0  0  0  0  0  0
   11.1126  -18.3985   27.8300 O   0  0  0  0  0  0  0  0  0  0  0  0
  2  1  1  6
  2  7  1  0
  3  2  1  0
  3  4  1  0
  4  5  1  0
  5  6  2  0
  5  9  1  0
  7  8  2  0
 10 11  1  0
 10  7  1  0
 11 14  1  0
 12 13  1  0
 11 12  1  1
 14 15  2  0
 16 17  1  0
 16 14  1  0
 17 28  1  0
 17 18  1  6
 19 27  1  0
 19 18  1  0
 20 19  2  0
 21 20  1  0
 21 22  1  0
 22 27  2  0
 23 22  1  0
 23 24  2  0
 24 25  1  0
 25 26  2  0
 27 26  1  0
 28 29  2  0
 28 30  1  0
M  END
$$$$
