ECW.pdb
     RDKit          3D

 30 31  0  0  1  0  0  0  0  0999 V2000
   10.1364  -17.8419   17.4774 N   0  0  0  0  0  0  0  0  0  0  0  0
   10.7000  -18.1886   18.7661 C   0  0  1  0  0  0  0  0  0  0  0  0
   12.1425  -17.7383   18.7607 C   0  0  0  0  0  0  0  0  0  0  0  0
   12.8844  -18.5040   17.6876 C   0  0  0  0  0  0  0  0  0  0  0  0
   14.2548  -18.0301   17.4953 C   0  0  0  0  0  0  0  0  0  0  0  0
   14.5180  -17.1606   16.6280 O   0  0  0  0  0  0  0  0  0  0  0  0
    9.9036  -17.5724   19.8218 C   0  0  0  0  0  0  0  0  0  0  0  0
    9.6910  -16.3330   19.8016 O   0  0  0  0  0  0  0  0  0  0  0  0
   15.2959  -18.5333   18.2696 O   0  0  0  0  0  0  0  0  0  0  0  0
    9.3671  -18.3810   20.8764 N   0  0  0  0  0  0  0  0  0  0  0  0
    8.6031  -17.8320   21.9495 C   0  0  1  0  0  0  0  0  0  0  0  0
    7.3531  -18.6508   22.2114 C   0  0  0  0  0  0  0  0  0  0  0  0
    6.5809  -18.1405   23.7878 S   0  0  0  0  0  0  0  0  0  0  0  0
    9.4039  -17.7155   23.2197 C   0  0  0  0  0  0  0  0  0  0  0  0
   10.1260  -18.6833   23.5469 O   0  0  0  0  0  0  0  0  0  0  0  0
    9.3116  -16.5417   23.9793 N   0  0  0  0  0  0  0  0  0  0  0  0
   10.0677  -16.2832   25.1833 C   0  0  1  0  0  0  0  0  0  0  0  0
    9.7889  -14.9133   25.7306 C   0  0  0  0  0  0  0  0  0  0  0  0
    8.3665  -14.6695   25.9844 C   0  0  0  0  0  0  0  0  0  0  0  0
    7.3814  -15.6128   26.1441 C   0  0  0  0  0  0  0  0  0  0  0  0
    6.2135  -15.0132   26.3555 N   0  0  0  0  0  0  0  0  0  0  0  0
    6.4310  -13.6820   26.3348 C   0  0  0  0  0  0  0  0  0  0  0  0
    5.5815  -12.5923   26.4977 C   0  0  0  0  0  0  0  0  0  0  0  0
    6.0677  -11.3041   26.4298 C   0  0  0  0  0  0  0  0  0  0  0  0
    7.4242  -11.0920   26.1958 C   0  0  0  0  0  0  0  0  0  0  0  0
    8.2739  -12.1398   26.0336 C   0  0  0  0  0  0  0  0  0  0  0  0
    7.7730  -13.4244   26.1041 C   0  0  0  0  0  0  0  0  0  0  0  0
    9.7819  -17.3580   26.1660 C   0  0  0  0  0  0  0  0  0  0  0  0
    8.8261  -18.1344   25.9750 O   0  0  0  0  0  0  0  0  0  0  0  0
   10.5468  -17.5429   27.3137 O   0  0  0  0  0  0  0  0  0  0  0  0
  2  1  1  6
  2  7  1  0
  3  2  1  0
  3  4  1  0
  4  5  1  0
  5  6  2  0
  5  9  1  0
  7  8  2  0
 10 11  1  0
 10  7  1  0
 11 14  1  0
 12 13  1  0
 11 12  1  1
 14 15  2  0
 16 17  1  0
 16 14  1  0
 17 28  1  0
 17 18  1  1
 19 27  1  0
 19 18  1  0
 20 19  2  0
 21 20  1  0
 21 22  1  0
 22 27  2  0
 23 22  1  0
 23 24  2  0
 24 25  1  0
 25 26  2  0
 27 26  1  0
 28 29  2  0
 28 30  1  0
M  END
$$$$
