ECW.pdb
     RDKit          3D

 30 31  0  0  1  0  0  0  0  0999 V2000
    8.5740  -18.8398   19.7067 N   0  0  0  0  0  0  0  0  0  0  0  0
    9.9882  -18.5972   19.9061 C   0  0  1  0  0  0  0  0  0  0  0  0
   10.6762  -18.8408   18.5830 C   0  0  0  0  0  0  0  0  0  0  0  0
    9.8430  -19.8119   17.7760 C   0  0  0  0  0  0  0  0  0  0  0  0
   10.3570  -20.0131   16.4214 C   0  0  0  0  0  0  0  0  0  0  0  0
    9.7669  -19.5164   15.4302 O   0  0  0  0  0  0  0  0  0  0  0  0
   10.1774  -17.2442   20.4182 C   0  0  0  0  0  0  0  0  0  0  0  0
   11.3304  -16.7430   20.4481 O   0  0  0  0  0  0  0  0  0  0  0  0
   11.5109  -20.7596   16.2028 O   0  0  0  0  0  0  0  0  0  0  0  0
    9.0497  -16.4925   20.8842 N   0  0  0  0  0  0  0  0  0  0  0  0
    9.1726  -15.1668   21.3984 C   0  0  1  0  0  0  0  0  0  0  0  0
    7.8399  -14.4422   21.3780 C   0  0  0  0  0  0  0  0  0  0  0  0
    6.5581  -15.4514   22.2027 S   0  0  0  0  0  0  0  0  0  0  0  0
    9.7358  -15.1458   22.7950 C   0  0  0  0  0  0  0  0  0  0  0  0
   10.3908  -14.1396   23.1467 O   0  0  0  0  0  0  0  0  0  0  0  0
    9.5085  -16.2410   23.6390 N   0  0  0  0  0  0  0  0  0  0  0  0
   10.0721  -16.3872   24.9614 C   0  0  1  0  0  0  0  0  0  0  0  0
    9.7629  -15.2029   25.8307 C   0  0  0  0  0  0  0  0  0  0  0  0
    8.3269  -14.9495   25.9749 C   0  0  0  0  0  0  0  0  0  0  0  0
    7.3135  -15.8740   25.9106 C   0  0  0  0  0  0  0  0  0  0  0  0
    6.1416  -15.2706   26.0853 N   0  0  0  0  0  0  0  0  0  0  0  0
    6.3845  -13.9557   26.2636 C   0  0  0  0  0  0  0  0  0  0  0  0
    5.5432  -12.8703   26.4867 C   0  0  0  0  0  0  0  0  0  0  0  0
    6.0574  -11.6003   26.6389 C   0  0  0  0  0  0  0  0  0  0  0  0
    7.4343  -11.4025   26.5686 C   0  0  0  0  0  0  0  0  0  0  0  0
    8.2765  -12.4464   26.3518 C   0  0  0  0  0  0  0  0  0  0  0  0
    7.7474  -13.7127   26.2011 C   0  0  0  0  0  0  0  0  0  0  0  0
    9.5917  -17.6638   25.5463 C   0  0  0  0  0  0  0  0  0  0  0  0
    8.6789  -18.2987   24.9836 O   0  0  0  0  0  0  0  0  0  0  0  0
   10.1235  -18.1955   26.7172 O   0  0  0  0  0  0  0  0  0  0  0  0
  2  1  1  6
  2  7  1  0
  3  2  1  0
  3  4  1  0
  4  5  1  0
  5  6  2  0
  5  9  1  0
  7  8  2  0
 10 11  1  0
 10  7  1  0
 11 14  1  0
 12 13  1  0
 11 12  1  1
 14 15  2  0
 16 17  1  0
 16 14  1  0
 17 28  1  0
 17 18  1  1
 19 27  1  0
 19 18  1  0
 20 19  2  0
 21 20  1  0
 21 22  1  0
 22 27  2  0
 23 22  1  0
 23 24  2  0
 24 25  1  0
 25 26  2  0
 27 26  1  0
 28 29  2  0
 28 30  1  0
M  END
$$$$
