ECW.pdb
     RDKit          3D

 30 31  0  0  1  0  0  0  0  0999 V2000
    9.2519  -19.3640   20.1459 N   0  0  0  0  0  0  0  0  0  0  0  0
    9.8019  -18.4388   19.1763 C   0  0  1  0  0  0  0  0  0  0  0  0
    9.2930  -18.8584   17.8168 C   0  0  0  0  0  0  0  0  0  0  0  0
   10.3694  -19.6654   17.1252 C   0  0  0  0  0  0  0  0  0  0  0  0
   10.5077  -19.3320   15.7077 C   0  0  0  0  0  0  0  0  0  0  0  0
   11.3353  -19.9381   14.9830 O   0  0  0  0  0  0  0  0  0  0  0  0
    9.4255  -17.0775   19.5421 C   0  0  0  0  0  0  0  0  0  0  0  0
    9.0782  -16.2637   18.6484 O   0  0  0  0  0  0  0  0  0  0  0  0
    9.7248  -18.3355   15.1324 O   0  0  0  0  0  0  0  0  0  0  0  0
    9.4529  -16.6736   20.9169 N   0  0  0  0  0  0  0  0  0  0  0  0
    8.9802  -15.3986   21.3501 C   0  0  1  0  0  0  0  0  0  0  0  0
    7.5586  -15.1500   20.8827 C   0  0  0  0  0  0  0  0  0  0  0  0
    6.6010  -14.3046   22.1904 S   0  0  0  0  0  0  0  0  0  0  0  0
    9.0532  -15.2406   22.8461 C   0  0  0  0  0  0  0  0  0  0  0  0
    8.9128  -14.0915   23.3206 O   0  0  0  0  0  0  0  0  0  0  0  0
    9.2733  -16.3727   23.6419 N   0  0  0  0  0  0  0  0  0  0  0  0
   10.1578  -16.4121   24.7839 C   0  0  1  0  0  0  0  0  0  0  0  0
    9.8499  -15.3162   25.7627 C   0  0  0  0  0  0  0  0  0  0  0  0
    8.4166  -15.0402   25.8911 C   0  0  0  0  0  0  0  0  0  0  0  0
    7.3822  -15.9116   25.6535 C   0  0  0  0  0  0  0  0  0  0  0  0
    6.2207  -15.3027   25.8737 N   0  0  0  0  0  0  0  0  0  0  0  0
    6.4914  -14.0372   26.2543 C   0  0  0  0  0  0  0  0  0  0  0  0
    5.6713  -12.9699   26.6061 C   0  0  0  0  0  0  0  0  0  0  0  0
    6.2129  -11.7537   26.9641 C   0  0  0  0  0  0  0  0  0  0  0  0
    7.5963  -11.5926   26.9736 C   0  0  0  0  0  0  0  0  0  0  0  0
    8.4182  -12.6199   26.6343 C   0  0  0  0  0  0  0  0  0  0  0  0
    7.8619  -13.8321   26.2779 C   0  0  0  0  0  0  0  0  0  0  0  0
   10.0842  -17.7612   25.3979 C   0  0  0  0  0  0  0  0  0  0  0  0
    9.2479  -18.5866   24.9825 O   0  0  0  0  0  0  0  0  0  0  0  0
   10.9220  -18.1555   26.4367 O   0  0  0  0  0  0  0  0  0  0  0  0
  2  1  1  1
  2  7  1  0
  3  2  1  0
  3  4  1  0
  4  5  1  0
  5  6  2  0
  5  9  1  0
  7  8  2  0
 10 11  1  0
 10  7  1  0
 11 14  1  0
 12 13  1  0
 11 12  1  1
 14 15  2  0
 16 17  1  0
 16 14  1  0
 17 28  1  0
 17 18  1  1
 19 27  1  0
 19 18  1  0
 20 19  2  0
 21 20  1  0
 21 22  1  0
 22 27  2  0
 23 22  1  0
 23 24  2  0
 24 25  1  0
 25 26  2  0
 27 26  1  0
 28 29  2  0
 28 30  1  0
M  END
$$$$
