ECW.pdb
     RDKit          3D

 30 31  0  0  1  0  0  0  0  0999 V2000
   10.0549  -17.2835   17.8859 N   0  0  0  0  0  0  0  0  0  0  0  0
   10.8217  -17.4287   19.1064 C   0  0  1  0  0  0  0  0  0  0  0  0
   12.0796  -16.6067   18.9464 C   0  0  0  0  0  0  0  0  0  0  0  0
   13.0419  -17.3627   18.0572 C   0  0  0  0  0  0  0  0  0  0  0  0
   13.9910  -18.1805   18.8123 C   0  0  0  0  0  0  0  0  0  0  0  0
   14.4647  -19.2343   18.3197 O   0  0  0  0  0  0  0  0  0  0  0  0
   10.0019  -17.0202   20.2419 C   0  0  0  0  0  0  0  0  0  0  0  0
    9.5637  -15.8431   20.3050 O   0  0  0  0  0  0  0  0  0  0  0  0
   14.3886  -17.8078   20.0927 O   0  0  0  0  0  0  0  0  0  0  0  0
    9.6993  -17.9611   21.2798 N   0  0  0  0  0  0  0  0  0  0  0  0
    8.8965  -17.6226   22.4101 C   0  0  1  0  0  0  0  0  0  0  0  0
    7.8004  -18.6472   22.6342 C   0  0  0  0  0  0  0  0  0  0  0  0
    6.8592  -18.2462   24.1491 S   0  0  0  0  0  0  0  0  0  0  0  0
    9.7129  -17.4756   23.6671 C   0  0  0  0  0  0  0  0  0  0  0  0
   10.6399  -18.2929   23.8616 O   0  0  0  0  0  0  0  0  0  0  0  0
    9.4077  -16.4415   24.5620 N   0  0  0  0  0  0  0  0  0  0  0  0
   10.1583  -16.1474   25.7612 C   0  0  1  0  0  0  0  0  0  0  0  0
    9.7464  -14.8368   26.3666 C   0  0  0  0  0  0  0  0  0  0  0  0
    8.2972  -14.6210   26.3495 C   0  0  0  0  0  0  0  0  0  0  0  0
    7.3176  -15.5744   26.4810 C   0  0  0  0  0  0  0  0  0  0  0  0
    6.1195  -15.0016   26.4129 N   0  0  0  0  0  0  0  0  0  0  0  0
    6.3116  -13.6779   26.2375 C   0  0  0  0  0  0  0  0  0  0  0  0
    5.4262  -12.6133   26.1033 C   0  0  0  0  0  0  0  0  0  0  0  0
    5.8920  -11.3272   25.9315 C   0  0  0  0  0  0  0  0  0  0  0  0
    7.2642  -11.0920   25.8920 C   0  0  0  0  0  0  0  0  0  0  0  0
    8.1490  -12.1150   26.0209 C   0  0  0  0  0  0  0  0  0  0  0  0
    7.6682  -13.3977   26.1924 C   0  0  0  0  0  0  0  0  0  0  0  0
   10.0118  -17.2823   26.7061 C   0  0  0  0  0  0  0  0  0  0  0  0
   10.6841  -17.3063   27.7551 O   0  0  0  0  0  0  0  0  0  0  0  0
    9.1413  -18.3422   26.4707 O   0  0  0  0  0  0  0  0  0  0  0  0
  2  1  1  6
  2  7  1  0
  3  2  1  0
  3  4  1  0
  4  5  1  0
  5  6  2  0
  5  9  1  0
  7  8  2  0
 10 11  1  0
 10  7  1  0
 11 14  1  0
 12 13  1  0
 11 12  1  1
 14 15  2  0
 16 17  1  0
 16 14  1  0
 17 28  1  0
 17 18  1  1
 19 27  1  0
 19 18  1  0
 20 19  2  0
 21 20  1  0
 21 22  1  0
 22 27  2  0
 23 22  1  0
 23 24  2  0
 24 25  1  0
 25 26  2  0
 27 26  1  0
 28 29  2  0
 28 30  1  0
M  END
$$$$
