ECW.pdb
     RDKit          3D

 30 31  0  0  1  0  0  0  0  0999 V2000
    9.8078  -14.3566   18.1941 N   0  0  0  0  0  0  0  0  0  0  0  0
    8.8609  -13.5654   18.9530 C   0  0  1  0  0  0  0  0  0  0  0  0
    7.8529  -13.0106   17.9735 C   0  0  0  0  0  0  0  0  0  0  0  0
    7.5207  -14.0842   16.9609 C   0  0  0  0  0  0  0  0  0  0  0  0
    8.6350  -14.3819   16.0615 C   0  0  0  0  0  0  0  0  0  0  0  0
    9.4439  -15.3060   16.3250 O   0  0  0  0  0  0  0  0  0  0  0  0
    8.2633  -14.3960   19.9930 C   0  0  0  0  0  0  0  0  0  0  0  0
    7.4512  -13.8886   20.8082 O   0  0  0  0  0  0  0  0  0  0  0  0
    8.8224  -13.6470   14.8947 O   0  0  0  0  0  0  0  0  0  0  0  0
    8.6036  -15.7853   20.0811 N   0  0  0  0  0  0  0  0  0  0  0  0
    8.2518  -16.5902   21.2060 C   0  0  1  0  0  0  0  0  0  0  0  0
    8.0191  -18.0332   20.8000 C   0  0  0  0  0  0  0  0  0  0  0  0
    7.6547  -19.0540   22.2719 S   0  0  0  0  0  0  0  0  0  0  0  0
    9.2906  -16.5349   22.2951 C   0  0  0  0  0  0  0  0  0  0  0  0
   10.4860  -16.3877   21.9565 O   0  0  0  0  0  0  0  0  0  0  0  0
    8.8850  -16.6492   23.6314 N   0  0  0  0  0  0  0  0  0  0  0  0
    9.7480  -16.4364   24.7707 C   0  0  1  0  0  0  0  0  0  0  0  0
    9.6178  -15.0425   25.3131 C   0  0  0  0  0  0  0  0  0  0  0  0
    8.2713  -14.7348   25.8021 C   0  0  0  0  0  0  0  0  0  0  0  0
    7.2239  -15.6110   25.9471 C   0  0  0  0  0  0  0  0  0  0  0  0
    6.1592  -14.9667   26.4156 N   0  0  0  0  0  0  0  0  0  0  0  0
    6.5061  -13.6732   26.5774 C   0  0  0  0  0  0  0  0  0  0  0  0
    5.7992  -12.5643   27.0316 C   0  0  0  0  0  0  0  0  0  0  0  0
    6.4009  -11.3260   27.1024 C   0  0  0  0  0  0  0  0  0  0  0  0
    7.7312  -11.1844   26.7150 C   0  0  0  0  0  0  0  0  0  0  0  0
    8.4427  -12.2521   26.2682 C   0  0  0  0  0  0  0  0  0  0  0  0
    7.8271  -13.4862   26.2026 C   0  0  0  0  0  0  0  0  0  0  0  0
    9.4559  -17.4739   25.7908 C   0  0  0  0  0  0  0  0  0  0  0  0
    8.4136  -18.1516   25.7049 O   0  0  0  0  0  0  0  0  0  0  0  0
   10.3086  -17.7304   26.8603 O   0  0  0  0  0  0  0  0  0  0  0  0
  2  1  1  6
  2  7  1  0
  3  2  1  0
  3  4  1  0
  4  5  1  0
  5  6  2  0
  5  9  1  0
  7  8  2  0
 10 11  1  0
 10  7  1  0
 11 14  1  0
 12 13  1  0
 11 12  1  6
 14 15  2  0
 16 17  1  0
 16 14  1  0
 17 28  1  0
 17 18  1  1
 19 27  1  0
 19 18  1  0
 20 19  2  0
 21 20  1  0
 21 22  1  0
 22 27  2  0
 23 22  1  0
 23 24  2  0
 24 25  1  0
 25 26  2  0
 27 26  1  0
 28 29  2  0
 28 30  1  0
M  END
$$$$
