ECW.pdb
     RDKit          3D

 30 31  0  0  1  0  0  0  0  0999 V2000
   11.4795  -18.6304   18.8258 N   0  0  0  0  0  0  0  0  0  0  0  0
   11.5085  -17.1872   18.9481 C   0  0  1  0  0  0  0  0  0  0  0  0
   11.0438  -16.6157   17.6287 C   0  0  0  0  0  0  0  0  0  0  0  0
   11.9054  -17.1863   16.5239 C   0  0  0  0  0  0  0  0  0  0  0  0
   11.4645  -16.7776   15.1905 C   0  0  0  0  0  0  0  0  0  0  0  0
   10.3633  -16.1958   15.0283 O   0  0  0  0  0  0  0  0  0  0  0  0
   10.6808  -16.7829   20.0795 C   0  0  0  0  0  0  0  0  0  0  0  0
   10.6706  -15.5806   20.4482 O   0  0  0  0  0  0  0  0  0  0  0  0
   12.2564  -17.0253   14.0732 O   0  0  0  0  0  0  0  0  0  0  0  0
    9.8833  -17.7564   20.7652 N   0  0  0  0  0  0  0  0  0  0  0  0
    9.0787  -17.4274   21.8971 C   0  0  1  0  0  0  0  0  0  0  0  0
    7.9678  -18.4410   22.0968 C   0  0  0  0  0  0  0  0  0  0  0  0
    8.5753  -19.8616   23.0738 S   0  0  0  0  0  0  0  0  0  0  0  0
    9.8899  -17.3139   23.1609 C   0  0  0  0  0  0  0  0  0  0  0  0
   10.9827  -17.9209   23.2112 O   0  0  0  0  0  0  0  0  0  0  0  0
    9.3966  -16.5422   24.2214 N   0  0  0  0  0  0  0  0  0  0  0  0
   10.0737  -16.3572   25.4844 C   0  0  1  0  0  0  0  0  0  0  0  0
    9.6600  -15.0788   26.1542 C   0  0  0  0  0  0  0  0  0  0  0  0
    8.2159  -14.8368   26.0982 C   0  0  0  0  0  0  0  0  0  0  0  0
    7.2205  -15.7815   26.0458 C   0  0  0  0  0  0  0  0  0  0  0  0
    6.0337  -15.1833   26.0021 N   0  0  0  0  0  0  0  0  0  0  0  0
    6.2490  -13.8518   26.0258 C   0  0  0  0  0  0  0  0  0  0  0  0
    5.3831  -12.7632   26.0017 C   0  0  0  0  0  0  0  0  0  0  0  0
    5.8710  -11.4743   26.0368 C   0  0  0  0  0  0  0  0  0  0  0  0
    7.2459  -11.2605   26.0972 C   0  0  0  0  0  0  0  0  0  0  0  0
    8.1119  -12.3072   26.1219 C   0  0  0  0  0  0  0  0  0  0  0  0
    7.6090  -13.5925   26.0862 C   0  0  0  0  0  0  0  0  0  0  0  0
    9.8321  -17.5495   26.3344 C   0  0  0  0  0  0  0  0  0  0  0  0
    8.8981  -18.3275   26.0598 O   0  0  0  0  0  0  0  0  0  0  0  0
   10.6154  -17.8451   27.4461 O   0  0  0  0  0  0  0  0  0  0  0  0
  2  1  1  6
  2  7  1  0
  3  2  1  0
  3  4  1  0
  4  5  1  0
  5  6  2  0
  5  9  1  0
  7  8  2  0
 10 11  1  0
 10  7  1  0
 11 14  1  0
 12 13  1  0
 11 12  1  1
 14 15  2  0
 16 17  1  0
 16 14  1  0
 17 28  1  0
 17 18  1  1
 19 27  1  0
 19 18  1  0
 20 19  2  0
 21 20  1  0
 21 22  1  0
 22 27  2  0
 23 22  1  0
 23 24  2  0
 24 25  1  0
 25 26  2  0
 27 26  1  0
 28 29  2  0
 28 30  1  0
M  END
$$$$
