ECW.pdb
     RDKit          3D

 30 31  0  0  1  0  0  0  0  0999 V2000
   12.0547  -18.8663   19.2327 N   0  0  0  0  0  0  0  0  0  0  0  0
   11.6265  -17.5695   19.7161 C   0  0  1  0  0  0  0  0  0  0  0  0
   11.2250  -16.7515   18.5106 C   0  0  0  0  0  0  0  0  0  0  0  0
   10.4980  -17.6512   17.5357 C   0  0  0  0  0  0  0  0  0  0  0  0
   10.1223  -16.9647   16.3000 C   0  0  0  0  0  0  0  0  0  0  0  0
    8.9887  -16.4381   16.1769 O   0  0  0  0  0  0  0  0  0  0  0  0
   10.5478  -17.7474   20.6821 C   0  0  0  0  0  0  0  0  0  0  0  0
    9.4469  -18.2267   20.3082 O   0  0  0  0  0  0  0  0  0  0  0  0
   11.0135  -16.8810   15.2344 O   0  0  0  0  0  0  0  0  0  0  0  0
   10.7470  -17.3760   22.0519 N   0  0  0  0  0  0  0  0  0  0  0  0
    9.8513  -17.7708   23.0905 C   0  0  1  0  0  0  0  0  0  0  0  0
    9.7052  -19.2796   23.1482 C   0  0  0  0  0  0  0  0  0  0  0  0
   11.3167  -20.0577   23.5216 S   0  0  0  0  0  0  0  0  0  0  0  0
   10.2778  -17.2543   24.4394 C   0  0  0  0  0  0  0  0  0  0  0  0
   11.4803  -16.9457   24.5943 O   0  0  0  0  0  0  0  0  0  0  0  0
    9.3236  -17.1400   25.4592 N   0  0  0  0  0  0  0  0  0  0  0  0
    9.5733  -16.5447   26.7520 C   0  0  1  0  0  0  0  0  0  0  0  0
    8.3005  -16.1053   27.4160 C   0  0  0  0  0  0  0  0  0  0  0  0
    7.4461  -15.2904   26.5482 C   0  0  0  0  0  0  0  0  0  0  0  0
    6.3830  -15.7218   25.7935 C   0  0  0  0  0  0  0  0  0  0  0  0
    5.8526  -14.6958   25.1345 N   0  0  0  0  0  0  0  0  0  0  0  0
    6.5644  -13.5956   25.4553 C   0  0  0  0  0  0  0  0  0  0  0  0
    6.4559  -12.2643   25.0661 C   0  0  0  0  0  0  0  0  0  0  0  0
    7.3298  -11.3152   25.5517 C   0  0  0  0  0  0  0  0  0  0  0  0
    8.3319  -11.6939   26.4417 C   0  0  0  0  0  0  0  0  0  0  0  0
    8.4583  -12.9877   26.8369 C   0  0  0  0  0  0  0  0  0  0  0  0
    7.5760  -13.9275   26.3424 C   0  0  0  0  0  0  0  0  0  0  0  0
   10.3445  -17.5060   27.5788 C   0  0  0  0  0  0  0  0  0  0  0  0
   10.4142  -18.7021   27.2358 O   0  0  0  0  0  0  0  0  0  0  0  0
   11.0063  -17.1266   28.7427 O   0  0  0  0  0  0  0  0  0  0  0  0
  2  1  1  6
  2  7  1  0
  3  2  1  0
  3  4  1  0
  4  5  1  0
  5  6  2  0
  5  9  1  0
  7  8  2  0
 10 11  1  0
 10  7  1  0
 11 14  1  0
 12 13  1  0
 11 12  1  1
 14 15  2  0
 16 17  1  0
 16 14  1  0
 17 28  1  0
 17 18  1  1
 19 27  1  0
 19 18  1  0
 20 19  2  0
 21 20  1  0
 21 22  1  0
 22 27  2  0
 23 22  1  0
 23 24  2  0
 24 25  1  0
 25 26  2  0
 27 26  1  0
 28 29  2  0
 28 30  1  0
M  END
$$$$
