CNL.pdb
     RDKit          3D

 23 22  0  0  1  0  0  0  0  0999 V2000
    7.6328  -14.5096   18.1818 N   0  0  0  0  0  0  0  0  0  0  0  0
    8.4025  -14.1864   19.3539 C   0  0  1  0  0  0  0  0  0  0  0  0
    7.8525  -12.8524   19.8766 C   0  0  0  0  0  0  0  0  0  0  0  0
    8.4848  -11.5681   18.7637 S   0  0  0  0  0  0  0  0  0  0  0  0
    8.1645  -15.1747   20.4329 C   0  0  0  0  0  0  0  0  0  0  0  0
    7.0691  -15.7985   20.5113 O   0  0  0  0  0  0  0  0  0  0  0  0
   11.0778  -19.1524   23.7709 N   0  0  0  0  0  0  0  0  0  0  0  0
    9.8989  -18.5747   23.2435 C   0  0  0  0  0  0  0  0  0  0  0  0
    8.7843  -18.9799   23.7204 O   0  0  0  0  0  0  0  0  0  0  0  0
    9.9276  -17.5498   22.1888 C   0  0  0  0  0  0  0  0  0  0  0  0
    9.0711  -16.3755   22.4714 C   0  0  2  0  0  0  0  0  0  0  0  0
    9.1980  -15.4007   21.3732 N   0  0  0  0  0  0  0  0  0  0  0  0
    9.3403  -15.7433   23.7534 C   0  0  0  0  0  0  0  0  0  0  0  0
   10.4996  -15.2442   23.9711 O   0  0  0  0  0  0  0  0  0  0  0  0
    6.0314  -12.3364   26.0847 C   0  0  0  0  0  0  0  0  0  0  0  0
    7.2999  -13.0270   25.7180 C   0  0  1  0  0  0  0  0  0  0  0  0
    8.4621  -12.0747   25.9427 C   0  0  0  0  0  0  0  0  0  0  0  0
    7.5816  -14.2540   26.5320 C   0  0  0  0  0  0  0  0  0  0  0  0
    8.8026  -15.0235   26.0939 C   0  0  2  0  0  0  0  0  0  0  0  0
    8.4279  -15.6236   24.7971 N   0  0  0  0  0  0  0  0  0  0  0  0
    9.1878  -16.1130   26.9881 C   0  0  0  0  0  0  0  0  0  0  0  0
    9.6322  -15.9179   28.1326 O   0  0  0  0  0  0  0  0  0  0  0  0
    9.0710  -17.4541   26.5875 O   0  0  0  0  0  0  0  0  0  0  0  0
  2  1  1  6
  2  3  1  0
  2  5  1  0
  4  3  1  0
  5  6  2  0
  7  8  1  0
  8  9  2  0
  8 10  1  0
 11 10  1  6
 11 13  1  0
 12  5  1  0
 12 11  1  0
 13 20  1  0
 13 14  2  0
 16 17  1  1
 16 15  1  0
 18 16  1  0
 19 18  1  1
 19 21  1  0
 20 19  1  0
 21 23  1  0
 22 21  2  0
M  END
$$$$
