CNL.pdb
     RDKit          3D

 23 22  0  0  1  0  0  0  0  0999 V2000
    7.5139  -15.0761   17.8011 N   0  0  0  0  0  0  0  0  0  0  0  0
    8.3079  -14.5167   18.8629 C   0  0  1  0  0  0  0  0  0  0  0  0
    7.7471  -13.1127   19.1270 C   0  0  0  0  0  0  0  0  0  0  0  0
    8.6233  -11.9928   18.0018 S   0  0  0  0  0  0  0  0  0  0  0  0
    8.1166  -15.2741   20.1228 C   0  0  0  0  0  0  0  0  0  0  0  0
    6.9703  -15.6722   20.4729 O   0  0  0  0  0  0  0  0  0  0  0  0
    9.5237  -19.3569   23.6009 N   0  0  0  0  0  0  0  0  0  0  0  0
   10.2836  -18.1862   23.3688 C   0  0  0  0  0  0  0  0  0  0  0  0
   11.0764  -17.8090   24.2977 O   0  0  0  0  0  0  0  0  0  0  0  0
   10.1823  -17.4162   22.1196 C   0  0  0  0  0  0  0  0  0  0  0  0
    9.1807  -16.3267   22.1671 C   0  0  2  0  0  0  0  0  0  0  0  0
    9.2534  -15.5395   20.9232 N   0  0  0  0  0  0  0  0  0  0  0  0
    9.3034  -15.4622   23.3303 C   0  0  0  0  0  0  0  0  0  0  0  0
   10.3122  -14.6781   23.4205 O   0  0  0  0  0  0  0  0  0  0  0  0
    8.1265  -11.7919   26.9436 C   0  0  0  0  0  0  0  0  0  0  0  0
    7.2716  -13.0082   27.0443 C   0  0  1  0  0  0  0  0  0  0  0  0
    5.8278  -12.5804   27.2451 C   0  0  0  0  0  0  0  0  0  0  0  0
    7.3006  -13.8747   25.8213 C   0  0  0  0  0  0  0  0  0  0  0  0
    8.6297  -14.5388   25.5616 C   0  0  2  0  0  0  0  0  0  0  0  0
    8.3989  -15.4031   24.3860 N   0  0  0  0  0  0  0  0  0  0  0  0
    9.1057  -15.3917   26.6483 C   0  0  0  0  0  0  0  0  0  0  0  0
    9.8731  -14.9830   27.5368 O   0  0  0  0  0  0  0  0  0  0  0  0
    8.7101  -16.7364   26.7396 O   0  0  0  0  0  0  0  0  0  0  0  0
  2  1  1  6
  2  3  1  0
  2  5  1  0
  4  3  1  0
  5  6  2  0
  7  8  1  0
  8  9  2  0
  8 10  1  0
 11 10  1  6
 11 13  1  0
 12  5  1  0
 12 11  1  0
 13 20  1  0
 13 14  2  0
 16 17  1  6
 16 15  1  0
 18 16  1  0
 19 18  1  1
 19 21  1  0
 20 19  1  0
 21 23  1  0
 22 21  2  0
M  END
$$$$
