CNL.pdb
     RDKit          3D

 23 22  0  0  1  0  0  0  0  0999 V2000
    7.9039  -14.8618   18.2851 N   0  0  0  0  0  0  0  0  0  0  0  0
    8.4527  -14.3219   19.5008 C   0  0  1  0  0  0  0  0  0  0  0  0
    7.9271  -12.8841   19.6099 C   0  0  0  0  0  0  0  0  0  0  0  0
    8.8627  -11.9054   18.4038 S   0  0  0  0  0  0  0  0  0  0  0  0
    7.9233  -15.0390   20.6852 C   0  0  0  0  0  0  0  0  0  0  0  0
    6.6807  -15.1063   20.9011 O   0  0  0  0  0  0  0  0  0  0  0  0
    6.8108  -18.9902   21.7896 N   0  0  0  0  0  0  0  0  0  0  0  0
    8.1544  -18.5822   21.6164 C   0  0  0  0  0  0  0  0  0  0  0  0
    8.7311  -18.9141   20.5250 O   0  0  0  0  0  0  0  0  0  0  0  0
    8.8804  -17.8089   22.6355 C   0  0  0  0  0  0  0  0  0  0  0  0
    8.4253  -16.4053   22.7590 C   0  0  2  0  0  0  0  0  0  0  0  0
    8.8478  -15.6465   21.5682 N   0  0  0  0  0  0  0  0  0  0  0  0
    8.8729  -15.7444   23.9750 C   0  0  0  0  0  0  0  0  0  0  0  0
   10.0932  -15.3660   24.0658 O   0  0  0  0  0  0  0  0  0  0  0  0
    5.6541  -12.4485   26.8733 C   0  0  0  0  0  0  0  0  0  0  0  0
    6.8568  -13.0452   26.2268 C   0  0  1  0  0  0  0  0  0  0  0  0
    7.9455  -11.9891   26.1418 C   0  0  0  0  0  0  0  0  0  0  0  0
    7.4372  -14.2063   26.9767 C   0  0  0  0  0  0  0  0  0  0  0  0
    8.6236  -14.8501   26.3038 C   0  0  2  0  0  0  0  0  0  0  0  0
    8.0748  -15.4738   25.0822 N   0  0  0  0  0  0  0  0  0  0  0  0
    9.2677  -15.9038   27.0847 C   0  0  0  0  0  0  0  0  0  0  0  0
    9.0322  -17.1114   26.9072 O   0  0  0  0  0  0  0  0  0  0  0  0
   10.1991  -15.5938   28.0894 O   0  0  0  0  0  0  0  0  0  0  0  0
  2  1  1  6
  2  3  1  0
  2  5  1  0
  4  3  1  0
  5  6  2  0
  7  8  1  0
  8  9  2  0
  8 10  1  0
 11 10  1  6
 11 13  1  0
 12  5  1  0
 12 11  1  0
 13 20  1  0
 13 14  2  0
 16 17  1  1
 16 15  1  0
 18 16  1  0
 19 18  1  1
 19 21  1  0
 20 19  1  0
 21 23  1  0
 22 21  2  0
M  END
$$$$
