CNL.pdb
     RDKit          3D

 23 22  0  0  1  0  0  0  0  0999 V2000
    7.5611  -15.0403   17.9289 N   0  0  0  0  0  0  0  0  0  0  0  0
    8.3582  -14.5300   19.0129 C   0  0  1  0  0  0  0  0  0  0  0  0
    7.7648  -13.1626   19.3780 C   0  0  0  0  0  0  0  0  0  0  0  0
    8.4693  -11.9709   18.2069 S   0  0  0  0  0  0  0  0  0  0  0  0
    8.2093  -15.3736   20.2227 C   0  0  0  0  0  0  0  0  0  0  0  0
    7.0664  -15.7033   20.6471 O   0  0  0  0  0  0  0  0  0  0  0  0
    9.8198  -19.5395   23.6513 N   0  0  0  0  0  0  0  0  0  0  0  0
   10.4973  -18.3162   23.4364 C   0  0  0  0  0  0  0  0  0  0  0  0
   11.2118  -17.8661   24.3960 O   0  0  0  0  0  0  0  0  0  0  0  0
   10.3985  -17.5728   22.1710 C   0  0  0  0  0  0  0  0  0  0  0  0
    9.3458  -16.5315   22.1688 C   0  0  2  0  0  0  0  0  0  0  0  0
    9.3826  -15.8001   20.8897 N   0  0  0  0  0  0  0  0  0  0  0  0
    9.4254  -15.6091   23.2906 C   0  0  0  0  0  0  0  0  0  0  0  0
   10.4085  -14.7908   23.3563 O   0  0  0  0  0  0  0  0  0  0  0  0
    8.0075  -11.7230   26.5624 C   0  0  0  0  0  0  0  0  0  0  0  0
    7.1624  -12.9432   26.6933 C   0  0  1  0  0  0  0  0  0  0  0  0
    5.7027  -12.5271   26.7567 C   0  0  0  0  0  0  0  0  0  0  0  0
    7.2911  -13.8981   25.5447 C   0  0  0  0  0  0  0  0  0  0  0  0
    8.6484  -14.5445   25.4232 C   0  0  2  0  0  0  0  0  0  0  0  0
    8.5041  -15.5277   24.3302 N   0  0  0  0  0  0  0  0  0  0  0  0
    9.0847  -15.2706   26.6138 C   0  0  0  0  0  0  0  0  0  0  0  0
    9.7911  -14.7527   27.4958 O   0  0  0  0  0  0  0  0  0  0  0  0
    8.7185  -16.6111   26.8189 O   0  0  0  0  0  0  0  0  0  0  0  0
  2  1  1  6
  2  3  1  0
  2  5  1  0
  4  3  1  0
  5  6  2  0
  7  8  1  0
  8  9  2  0
  8 10  1  0
 11 10  1  6
 11 13  1  0
 12  5  1  0
 12 11  1  0
 13 20  1  0
 13 14  2  0
 16 17  1  6
 16 15  1  0
 18 16  1  0
 19 18  1  1
 19 21  1  0
 20 19  1  0
 21 23  1  0
 22 21  2  0
M  END
$$$$
