CNL.pdb
     RDKit          3D

 23 22  0  0  1  0  0  0  0  0999 V2000
    8.0414  -15.2088   17.6145 N   0  0  0  0  0  0  0  0  0  0  0  0
    8.5345  -14.5651   18.8033 C   0  0  1  0  0  0  0  0  0  0  0  0
    7.9950  -13.1287   18.7713 C   0  0  0  0  0  0  0  0  0  0  0  0
    8.6950  -12.2879   20.2173 S   0  0  0  0  0  0  0  0  0  0  0  0
    7.9602  -15.1878   20.0199 C   0  0  0  0  0  0  0  0  0  0  0  0
    6.7158  -15.3751   20.1271 O   0  0  0  0  0  0  0  0  0  0  0  0
    7.3029  -19.0784   21.0206 N   0  0  0  0  0  0  0  0  0  0  0  0
    8.5631  -18.4446   21.1302 C   0  0  0  0  0  0  0  0  0  0  0  0
    9.3841  -18.6029   20.1633 O   0  0  0  0  0  0  0  0  0  0  0  0
    8.9379  -17.6334   22.2985 C   0  0  0  0  0  0  0  0  0  0  0  0
    8.3854  -16.2598   22.2759 C   0  0  2  0  0  0  0  0  0  0  0  0
    8.8439  -15.5670   21.0584 N   0  0  0  0  0  0  0  0  0  0  0  0
    8.6992  -15.4776   23.4613 C   0  0  0  0  0  0  0  0  0  0  0  0
    9.8849  -15.0156   23.6073 O   0  0  0  0  0  0  0  0  0  0  0  0
    7.5388  -11.6381   25.3999 C   0  0  0  0  0  0  0  0  0  0  0  0
    7.0600  -12.4329   26.5658 C   0  0  1  0  0  0  0  0  0  0  0  0
    5.6576  -11.9767   26.9306 C   0  0  0  0  0  0  0  0  0  0  0  0
    6.9819  -13.9073   26.3057 C   0  0  0  0  0  0  0  0  0  0  0  0
    8.2400  -14.5033   25.7251 C   0  0  2  0  0  0  0  0  0  0  0  0
    7.8044  -15.1723   24.4822 N   0  0  0  0  0  0  0  0  0  0  0  0
    8.8795  -15.5119   26.5670 C   0  0  0  0  0  0  0  0  0  0  0  0
    8.5498  -16.7104   26.5483 O   0  0  0  0  0  0  0  0  0  0  0  0
    9.9147  -15.1663   27.4513 O   0  0  0  0  0  0  0  0  0  0  0  0
  2  1  1  6
  2  3  1  0
  2  5  1  0
  4  3  1  0
  5  6  2  0
  7  8  1  0
  8  9  2  0
  8 10  1  0
 11 10  1  1
 11 13  1  0
 12  5  1  0
 12 11  1  0
 13 20  1  0
 13 14  2  0
 16 17  1  6
 16 15  1  0
 18 16  1  0
 19 18  1  1
 19 21  1  0
 20 19  1  0
 21 23  1  0
 22 21  2  0
M  END
$$$$
