CNL.pdb
     RDKit          3D

 23 22  0  0  1  0  0  0  0  0999 V2000
    7.8292  -14.9211   17.4182 N   0  0  0  0  0  0  0  0  0  0  0  0
    8.4265  -14.4200   18.6277 C   0  0  1  0  0  0  0  0  0  0  0  0
    7.7730  -13.0582   18.8992 C   0  0  0  0  0  0  0  0  0  0  0  0
    8.7659  -11.8289   18.0100 S   0  0  0  0  0  0  0  0  0  0  0  0
    8.0763  -15.2767   19.7858 C   0  0  0  0  0  0  0  0  0  0  0  0
    6.9188  -15.7681   19.9027 O   0  0  0  0  0  0  0  0  0  0  0  0
    8.5508  -19.4445   23.1514 N   0  0  0  0  0  0  0  0  0  0  0  0
    9.5723  -18.4738   23.0247 C   0  0  0  0  0  0  0  0  0  0  0  0
   10.4167  -18.3842   23.9802 O   0  0  0  0  0  0  0  0  0  0  0  0
    9.6790  -17.5910   21.8530 C   0  0  0  0  0  0  0  0  0  0  0  0
    8.8340  -16.3781   21.9381 C   0  0  2  0  0  0  0  0  0  0  0  0
    9.0742  -15.5295   20.7571 N   0  0  0  0  0  0  0  0  0  0  0  0
    9.0160  -15.6164   23.1638 C   0  0  0  0  0  0  0  0  0  0  0  0
   10.1658  -15.1137   23.4203 O   0  0  0  0  0  0  0  0  0  0  0  0
    8.1979  -12.0083   26.8931 C   0  0  0  0  0  0  0  0  0  0  0  0
    7.1825  -13.0960   26.9720 C   0  0  1  0  0  0  0  0  0  0  0  0
    5.8142  -12.4770   27.2013 C   0  0  0  0  0  0  0  0  0  0  0  0
    7.0802  -13.9238   25.7263 C   0  0  0  0  0  0  0  0  0  0  0  0
    8.3272  -14.7052   25.3954 C   0  0  2  0  0  0  0  0  0  0  0  0
    8.0274  -15.3728   24.1122 N   0  0  0  0  0  0  0  0  0  0  0  0
    8.6678  -15.7452   26.3636 C   0  0  0  0  0  0  0  0  0  0  0  0
    8.0150  -16.7970   26.4778 O   0  0  0  0  0  0  0  0  0  0  0  0
    9.7683  -15.6007   27.2244 O   0  0  0  0  0  0  0  0  0  0  0  0
  2  1  1  6
  2  3  1  0
  2  5  1  0
  4  3  1  0
  5  6  2  0
  7  8  1  0
  8  9  2  0
  8 10  1  0
 11 10  1  1
 11 13  1  0
 12  5  1  0
 12 11  1  0
 13 20  1  0
 13 14  2  0
 16 17  1  6
 16 15  1  0
 18 16  1  0
 19 18  1  1
 19 21  1  0
 20 19  1  0
 21 23  1  0
 22 21  2  0
M  END
$$$$
