CNL.pdb
     RDKit          3D

 23 22  0  0  1  0  0  0  0  0999 V2000
    7.4764  -15.4312   18.1253 N   0  0  0  0  0  0  0  0  0  0  0  0
    8.2357  -14.7783   19.1587 C   0  0  1  0  0  0  0  0  0  0  0  0
    7.5889  -13.4018   19.3647 C   0  0  0  0  0  0  0  0  0  0  0  0
    8.9467  -12.2008   19.4081 S   0  0  0  0  0  0  0  0  0  0  0  0
    8.0940  -15.4911   20.4507 C   0  0  0  0  0  0  0  0  0  0  0  0
    6.9576  -15.8365   20.8800 O   0  0  0  0  0  0  0  0  0  0  0  0
   10.6515  -19.4776   21.0227 N   0  0  0  0  0  0  0  0  0  0  0  0
    9.9523  -18.8098   22.0556 C   0  0  0  0  0  0  0  0  0  0  0  0
    8.9544  -19.4171   22.5746 O   0  0  0  0  0  0  0  0  0  0  0  0
   10.3367  -17.4715   22.5295 C   0  0  0  0  0  0  0  0  0  0  0  0
    9.2367  -16.4812   22.4838 C   0  0  2  0  0  0  0  0  0  0  0  0
    9.2669  -15.7746   21.1907 N   0  0  0  0  0  0  0  0  0  0  0  0
    9.2489  -15.5340   23.5875 C   0  0  0  0  0  0  0  0  0  0  0  0
   10.2572  -14.7572   23.7312 O   0  0  0  0  0  0  0  0  0  0  0  0
    7.4108  -11.5612   25.8025 C   0  0  0  0  0  0  0  0  0  0  0  0
    6.9050  -12.6746   26.6538 C   0  0  1  0  0  0  0  0  0  0  0  0
    5.4419  -12.4229   26.9762 C   0  0  0  0  0  0  0  0  0  0  0  0
    6.9790  -14.0218   26.0002 C   0  0  0  0  0  0  0  0  0  0  0  0
    8.3805  -14.4874   25.6936 C   0  0  2  0  0  0  0  0  0  0  0  0
    8.2359  -15.3856   24.5298 N   0  0  0  0  0  0  0  0  0  0  0  0
    9.0146  -15.2531   26.7645 C   0  0  0  0  0  0  0  0  0  0  0  0
    8.8267  -16.4719   26.9213 O   0  0  0  0  0  0  0  0  0  0  0  0
    9.8808  -14.6352   27.6813 O   0  0  0  0  0  0  0  0  0  0  0  0
  2  1  1  6
  2  3  1  0
  2  5  1  0
  4  3  1  0
  5  6  2  0
  7  8  1  0
  8  9  2  0
  8 10  1  0
 11 10  1  1
 11 13  1  0
 12  5  1  0
 12 11  1  0
 13 20  1  0
 13 14  2  0
 16 17  1  6
 16 15  1  0
 18 16  1  0
 19 18  1  1
 19 21  1  0
 20 19  1  0
 21 23  1  0
 22 21  2  0
M  END
$$$$
