CNL.pdb
     RDKit          3D

 23 22  0  0  1  0  0  0  0  0999 V2000
    7.3476  -14.8863   18.2663 N   0  0  0  0  0  0  0  0  0  0  0  0
    8.1440  -14.3684   19.3471 C   0  0  1  0  0  0  0  0  0  0  0  0
    7.5766  -12.9805   19.6743 C   0  0  0  0  0  0  0  0  0  0  0  0
    9.0040  -11.9018   19.9694 S   0  0  0  0  0  0  0  0  0  0  0  0
    7.9639  -15.1805   20.5742 C   0  0  0  0  0  0  0  0  0  0  0  0
    6.8212  -15.5966   20.9149 O   0  0  0  0  0  0  0  0  0  0  0  0
    9.0674  -19.2732   23.9111 N   0  0  0  0  0  0  0  0  0  0  0  0
   10.0640  -18.3149   23.6105 C   0  0  0  0  0  0  0  0  0  0  0  0
   11.0488  -18.2208   24.4200 O   0  0  0  0  0  0  0  0  0  0  0  0
    9.9922  -17.4497   22.4232 C   0  0  0  0  0  0  0  0  0  0  0  0
    9.0458  -16.3194   22.5621 C   0  0  2  0  0  0  0  0  0  0  0  0
    9.1072  -15.4774   21.3540 N   0  0  0  0  0  0  0  0  0  0  0  0
    9.2544  -15.5183   23.7580 C   0  0  0  0  0  0  0  0  0  0  0  0
   10.3647  -14.8972   23.9064 O   0  0  0  0  0  0  0  0  0  0  0  0
    5.9763  -11.9743   25.9673 C   0  0  0  0  0  0  0  0  0  0  0  0
    7.2123  -12.7214   25.6006 C   0  0  1  0  0  0  0  0  0  0  0  0
    8.4093  -11.7983   25.7524 C   0  0  0  0  0  0  0  0  0  0  0  0
    7.4770  -13.9192   26.4624 C   0  0  0  0  0  0  0  0  0  0  0  0
    8.6968  -14.7127   26.0657 C   0  0  2  0  0  0  0  0  0  0  0  0
    8.3318  -15.3560   24.7869 N   0  0  0  0  0  0  0  0  0  0  0  0
    9.0638  -15.7723   27.0025 C   0  0  0  0  0  0  0  0  0  0  0  0
    9.4726  -15.5403   28.1532 O   0  0  0  0  0  0  0  0  0  0  0  0
    8.9691  -17.1256   26.6381 O   0  0  0  0  0  0  0  0  0  0  0  0
  2  1  1  6
  2  3  1  0
  2  5  1  0
  4  3  1  0
  5  6  2  0
  7  8  1  0
  8  9  2  0
  8 10  1  0
 11 10  1  6
 11 13  1  0
 12  5  1  0
 12 11  1  0
 13 20  1  0
 13 14  2  0
 16 17  1  1
 16 15  1  0
 18 16  1  0
 19 18  1  1
 19 21  1  0
 20 19  1  0
 21 23  1  0
 22 21  2  0
M  END
$$$$
