CNL.pdb
     RDKit          3D

 23 22  0  0  1  0  0  0  0  0999 V2000
    8.1216  -14.7002   17.8073 N   0  0  0  0  0  0  0  0  0  0  0  0
    8.5837  -14.3022   19.1106 C   0  0  1  0  0  0  0  0  0  0  0  0
    7.9294  -12.9454   19.4044 C   0  0  0  0  0  0  0  0  0  0  0  0
    8.8259  -11.7206   18.4124 S   0  0  0  0  0  0  0  0  0  0  0  0
    8.0849  -15.2284   20.1551 C   0  0  0  0  0  0  0  0  0  0  0  0
    7.2952  -16.1700   19.8639 O   0  0  0  0  0  0  0  0  0  0  0  0
    9.9175  -19.2705   23.4044 N   0  0  0  0  0  0  0  0  0  0  0  0
    8.8414  -18.4243   23.0470 C   0  0  0  0  0  0  0  0  0  0  0  0
    7.7071  -18.6596   23.5872 O   0  0  0  0  0  0  0  0  0  0  0  0
    8.9951  -17.3142   22.0943 C   0  0  0  0  0  0  0  0  0  0  0  0
    8.3555  -16.0537   22.5353 C   0  0  2  0  0  0  0  0  0  0  0  0
    8.5176  -15.0293   21.4880 N   0  0  0  0  0  0  0  0  0  0  0  0
    8.8410  -15.5616   23.8150 C   0  0  0  0  0  0  0  0  0  0  0  0
   10.1024  -15.4305   23.9945 O   0  0  0  0  0  0  0  0  0  0  0  0
    5.5308  -12.4039   26.7502 C   0  0  0  0  0  0  0  0  0  0  0  0
    6.7416  -12.9505   26.0753 C   0  0  1  0  0  0  0  0  0  0  0  0
    7.7447  -11.8269   25.8771 C   0  0  0  0  0  0  0  0  0  0  0  0
    7.4409  -14.0227   26.8557 C   0  0  0  0  0  0  0  0  0  0  0  0
    8.6103  -14.6504   26.1392 C   0  0  2  0  0  0  0  0  0  0  0  0
    8.0392  -15.2063   24.8953 N   0  0  0  0  0  0  0  0  0  0  0  0
    9.2466  -15.7499   26.8611 C   0  0  0  0  0  0  0  0  0  0  0  0
    9.8810  -15.5827   27.9170 O   0  0  0  0  0  0  0  0  0  0  0  0
    9.1683  -17.0693   26.3858 O   0  0  0  0  0  0  0  0  0  0  0  0
  2  1  1  6
  2  3  1  0
  2  5  1  0
  4  3  1  0
  5  6  2  0
  7  8  1  0
  8  9  2  0
  8 10  1  0
 11 10  1  6
 11 13  1  0
 12  5  1  0
 12 11  1  0
 13 20  1  0
 13 14  2  0
 16 17  1  1
 16 15  1  0
 18 16  1  0
 19 18  1  1
 19 21  1  0
 20 19  1  0
 21 23  1  0
 22 21  2  0
M  END
$$$$
