PTS.pdb
     RDKit          3D

 21 21  0  0  1  0  0  0  0  0999 V2000
    9.0606  -14.3349   18.0335 N   0  0  0  0  0  0  0  0  0  0  0  0
    8.0845  -14.0511   17.0155 C   0  0  0  0  0  0  0  0  0  0  0  0
    7.4941  -12.6980   17.3437 C   0  0  0  0  0  0  0  0  0  0  0  0
    7.5648  -12.6826   18.8552 C   0  0  0  0  0  0  0  0  0  0  0  0
    8.7557  -13.5522   19.1849 C   0  0  1  0  0  0  0  0  0  0  0  0
    8.5268  -14.3801   20.3999 C   0  0  0  0  0  0  0  0  0  0  0  0
    8.0251  -13.9327   21.4489 O   0  0  0  0  0  0  0  0  0  0  0  0
    7.3403  -18.1893   20.2867 C   0  0  0  0  0  0  0  0  0  0  0  0
    8.5794  -18.0793   21.1410 C   0  0  1  0  0  0  0  0  0  0  0  0
    9.6750  -18.5872   20.4529 O   0  0  0  0  0  0  0  0  0  0  0  0
    8.7606  -16.6274   21.5108 C   0  0  2  0  0  0  0  0  0  0  0  0
    8.8897  -15.7500   20.3877 N   0  0  0  0  0  0  0  0  0  0  0  0
    9.8321  -16.4339   22.5205 C   0  0  0  0  0  0  0  0  0  0  0  0
   10.9545  -15.9750   22.1858 O   0  0  0  0  0  0  0  0  0  0  0  0
    9.1825  -16.2065   26.5707 O   0  0  0  0  0  0  0  0  0  0  0  0
   10.3752  -15.7499   26.0153 C   0  0  0  0  0  0  0  0  0  0  0  0
   10.7681  -16.5879   24.8169 C   0  0  2  0  0  0  0  0  0  0  0  0
    9.6636  -16.7459   23.8931 N   0  0  0  0  0  0  0  0  0  0  0  0
   11.3401  -17.8942   25.2313 C   0  0  0  0  0  0  0  0  0  0  0  0
   12.4718  -17.8747   26.0330 O   0  0  0  0  0  0  0  0  0  0  0  0
   10.7972  -18.9444   24.8543 O   0  0  0  0  0  0  0  0  0  0  0  0
  1  5  1  0
  2  1  1  0
  3  2  1  0
  3  4  1  0
  4  5  1  0
  5  6  1  1
  6  7  2  0
  9  8  1  6
  9 10  1  0
  9 11  1  0
 11 13  1  0
 12  6  1  0
 11 12  1  6
 13 14  2  0
 13 18  1  0
 17 16  1  1
 16 15  1  0
 17 19  1  0
 18 17  1  0
 19 21  2  0
 19 20  1  0
M  END
$$$$
