PTS.pdb
     RDKit          3D

 21 21  0  0  1  0  0  0  0  0999 V2000
    9.6357  -16.4640   15.3402 N   0  0  0  0  0  0  0  0  0  0  0  0
    9.1556  -15.9491   14.0857 C   0  0  0  0  0  0  0  0  0  0  0  0
   10.3631  -15.4311   13.3370 C   0  0  0  0  0  0  0  0  0  0  0  0
   11.2555  -14.9628   14.4658 C   0  0  0  0  0  0  0  0  0  0  0  0
   10.8929  -15.8577   15.6279 C   0  0  1  0  0  0  0  0  0  0  0  0
   10.8960  -15.1247   16.9228 C   0  0  0  0  0  0  0  0  0  0  0  0
   11.8583  -14.4405   17.3203 O   0  0  0  0  0  0  0  0  0  0  0  0
    8.4029  -13.0488   20.5169 C   0  0  0  0  0  0  0  0  0  0  0  0
    8.2960  -13.9042   19.2783 C   0  0  1  0  0  0  0  0  0  0  0  0
    7.8642  -13.1324   18.2061 O   0  0  0  0  0  0  0  0  0  0  0  0
    9.6476  -14.5264   19.0259 C   0  0  2  0  0  0  0  0  0  0  0  0
    9.7576  -15.1929   17.7643 N   0  0  0  0  0  0  0  0  0  0  0  0
   10.1015  -15.3658   20.1636 C   0  0  0  0  0  0  0  0  0  0  0  0
    9.7096  -16.5554   20.2804 O   0  0  0  0  0  0  0  0  0  0  0  0
   13.7201  -15.3244   21.9256 O   0  0  0  0  0  0  0  0  0  0  0  0
   12.6956  -15.3131   22.8688 C   0  0  0  0  0  0  0  0  0  0  0  0
   11.3885  -15.7638   22.2513 C   0  0  2  0  0  0  0  0  0  0  0  0
   10.9841  -14.8925   21.1670 N   0  0  0  0  0  0  0  0  0  0  0  0
   10.3244  -15.9088   23.2770 C   0  0  0  0  0  0  0  0  0  0  0  0
   10.5012  -16.8777   24.2536 O   0  0  0  0  0  0  0  0  0  0  0  0
    9.3276  -15.1713   23.2295 O   0  0  0  0  0  0  0  0  0  0  0  0
  1  5  1  0
  2  1  1  0
  3  2  1  0
  3  4  1  0
  4  5  1  0
  5  6  1  1
  6  7  2  0
  9  8  1  1
  9 10  1  0
  9 11  1  0
 11 13  1  0
 12  6  1  0
 11 12  1  6
 13 14  2  0
 13 18  1  0
 17 16  1  1
 16 15  1  0
 17 19  1  0
 18 17  1  0
 19 21  2  0
 19 20  1  0
M  END
$$$$
