PTS.pdb
     RDKit          3D

 21 21  0  0  1  0  0  0  0  0999 V2000
    7.4370  -15.2044   18.9214 N   0  0  0  0  0  0  0  0  0  0  0  0
    6.5398  -14.2339   18.3536 C   0  0  0  0  0  0  0  0  0  0  0  0
    7.3802  -13.3119   17.4989 C   0  0  0  0  0  0  0  0  0  0  0  0
    8.6989  -13.3104   18.2412 C   0  0  0  0  0  0  0  0  0  0  0  0
    8.7560  -14.6645   18.9091 C   0  0  1  0  0  0  0  0  0  0  0  0
    9.3629  -14.5958   20.2659 C   0  0  0  0  0  0  0  0  0  0  0  0
   10.5020  -14.1407   20.4844 O   0  0  0  0  0  0  0  0  0  0  0  0
    7.6689  -13.1782   23.3941 C   0  0  0  0  0  0  0  0  0  0  0  0
    8.0749  -14.5898   23.7399 C   0  0  1  0  0  0  0  0  0  0  0  0
    6.9563  -15.4148   23.7500 O   0  0  0  0  0  0  0  0  0  0  0  0
    9.1047  -15.0369   22.7313 C   0  0  2  0  0  0  0  0  0  0  0  0
    8.6274  -15.0657   21.3825 N   0  0  0  0  0  0  0  0  0  0  0  0
    9.7746  -16.2994   23.1335 C   0  0  0  0  0  0  0  0  0  0  0  0
    9.2797  -17.4147   22.8276 O   0  0  0  0  0  0  0  0  0  0  0  0
   13.5319  -16.4243   25.0306 O   0  0  0  0  0  0  0  0  0  0  0  0
   13.1400  -17.4540   24.1789 C   0  0  0  0  0  0  0  0  0  0  0  0
   11.6323  -17.5928   24.1582 C   0  0  2  0  0  0  0  0  0  0  0  0
   10.9856  -16.3290   23.8702 N   0  0  0  0  0  0  0  0  0  0  0  0
   11.1257  -18.2057   25.4124 C   0  0  0  0  0  0  0  0  0  0  0  0
   11.5896  -19.4704   25.7424 O   0  0  0  0  0  0  0  0  0  0  0  0
   10.3174  -17.5780   26.1142 O   0  0  0  0  0  0  0  0  0  0  0  0
  1  5  1  0
  2  1  1  0
  3  2  1  0
  3  4  1  0
  4  5  1  0
  5  6  1  1
  6  7  2  0
  9  8  1  6
  9 10  1  0
  9 11  1  0
 11 13  1  0
 12  6  1  0
 11 12  1  6
 13 14  2  0
 13 18  1  0
 17 16  1  1
 16 15  1  0
 17 19  1  0
 18 17  1  0
 19 21  2  0
 19 20  1  0
M  END
$$$$
