PTS.pdb
     RDKit          3D

 21 21  0  0  1  0  0  0  0  0999 V2000
    8.1379  -14.0154   17.8675 N   0  0  0  0  0  0  0  0  0  0  0  0
    6.9382  -13.6193   18.5552 C   0  0  0  0  0  0  0  0  0  0  0  0
    7.2956  -12.4133   19.3947 C   0  0  0  0  0  0  0  0  0  0  0  0
    8.7410  -12.6919   19.7455 C   0  0  0  0  0  0  0  0  0  0  0  0
    9.2601  -13.5054   18.5828 C   0  0  1  0  0  0  0  0  0  0  0  0
   10.1985  -14.5741   19.0203 C   0  0  0  0  0  0  0  0  0  0  0  0
    9.8271  -15.7106   19.3702 O   0  0  0  0  0  0  0  0  0  0  0  0
   14.8550  -16.1489   19.1705 C   0  0  0  0  0  0  0  0  0  0  0  0
   13.8837  -15.1239   18.6385 C   0  0  1  0  0  0  0  0  0  0  0  0
   13.7163  -15.2964   17.2696 O   0  0  0  0  0  0  0  0  0  0  0  0
   12.5871  -15.2764   19.3957 C   0  0  2  0  0  0  0  0  0  0  0  0
   11.5906  -14.3096   19.0488 N   0  0  0  0  0  0  0  0  0  0  0  0
   12.8011  -15.3844   20.8610 C   0  0  0  0  0  0  0  0  0  0  0  0
   13.2627  -14.4145   21.5158 O   0  0  0  0  0  0  0  0  0  0  0  0
   11.5737  -18.6983   23.1194 O   0  0  0  0  0  0  0  0  0  0  0  0
   11.6466  -17.4421   23.7162 C   0  0  0  0  0  0  0  0  0  0  0  0
   12.6899  -16.5811   23.0357 C   0  0  2  0  0  0  0  0  0  0  0  0
   12.5061  -16.5584   21.5990 N   0  0  0  0  0  0  0  0  0  0  0  0
   14.0654  -16.9919   23.4158 C   0  0  0  0  0  0  0  0  0  0  0  0
   14.4224  -16.8829   24.7516 O   0  0  0  0  0  0  0  0  0  0  0  0
   14.8392  -17.4128   22.5417 O   0  0  0  0  0  0  0  0  0  0  0  0
  1  5  1  0
  2  1  1  0
  3  2  1  0
  3  4  1  0
  4  5  1  0
  5  6  1  1
  6  7  2  0
  9  8  1  1
  9 10  1  0
  9 11  1  0
 11 13  1  0
 12  6  1  0
 11 12  1  1
 13 14  2  0
 13 18  1  0
 17 16  1  1
 16 15  1  0
 17 19  1  0
 18 17  1  0
 19 21  2  0
 19 20  1  0
M  END
$$$$
