PTS.pdb
     RDKit          3D

 21 21  0  0  1  0  0  0  0  0999 V2000
    8.6183  -17.8104   15.3699 N   0  0  0  0  0  0  0  0  0  0  0  0
    8.7167  -19.2383   15.2256 C   0  0  0  0  0  0  0  0  0  0  0  0
    7.5063  -19.8297   15.9127 C   0  0  0  0  0  0  0  0  0  0  0  0
    7.2614  -18.8365   17.0278 C   0  0  0  0  0  0  0  0  0  0  0  0
    7.7737  -17.5241   16.4817 C   0  0  1  0  0  0  0  0  0  0  0  0
    8.4518  -16.7085   17.5253 C   0  0  0  0  0  0  0  0  0  0  0  0
    9.6610  -16.8206   17.8036 O   0  0  0  0  0  0  0  0  0  0  0  0
    8.2387  -12.7984   20.5050 C   0  0  0  0  0  0  0  0  0  0  0  0
    7.5231  -13.5929   19.4401 C   0  0  1  0  0  0  0  0  0  0  0  0
    7.4698  -12.8612   18.2596 O   0  0  0  0  0  0  0  0  0  0  0  0
    8.2543  -14.9019   19.2677 C   0  0  2  0  0  0  0  0  0  0  0  0
    7.7052  -15.7486   18.2531 N   0  0  0  0  0  0  0  0  0  0  0  0
    8.4586  -15.6060   20.5589 C   0  0  0  0  0  0  0  0  0  0  0  0
    7.5310  -16.2797   21.0767 O   0  0  0  0  0  0  0  0  0  0  0  0
   12.2225  -16.5237   22.1554 O   0  0  0  0  0  0  0  0  0  0  0  0
   11.0647  -17.2685   22.3656 C   0  0  0  0  0  0  0  0  0  0  0  0
    9.8536  -16.3655   22.4696 C   0  0  2  0  0  0  0  0  0  0  0  0
    9.6821  -15.5658   21.2740 N   0  0  0  0  0  0  0  0  0  0  0  0
    9.9019  -15.5308   23.6969 C   0  0  0  0  0  0  0  0  0  0  0  0
    9.9595  -16.1864   24.9178 O   0  0  0  0  0  0  0  0  0  0  0  0
    9.8896  -14.2943   23.5938 O   0  0  0  0  0  0  0  0  0  0  0  0
  1  5  1  0
  2  1  1  0
  3  2  1  0
  3  4  1  0
  4  5  1  0
  5  6  1  1
  6  7  2  0
  9  8  1  1
  9 10  1  0
  9 11  1  0
 11 13  1  0
 12  6  1  0
 11 12  1  6
 13 14  2  0
 13 18  1  0
 17 16  1  6
 16 15  1  0
 17 19  1  0
 18 17  1  0
 19 21  2  0
 19 20  1  0
M  END
$$$$
