PTS.pdb
     RDKit          3D

 21 21  0  0  1  0  0  0  0  0999 V2000
    8.3277  -15.2600   18.3215 N   0  0  0  0  0  0  0  0  0  0  0  0
    7.3169  -14.5282   17.6059 C   0  0  0  0  0  0  0  0  0  0  0  0
    7.9850  -13.2883   17.0550 C   0  0  0  0  0  0  0  0  0  0  0  0
    9.0328  -13.0017   18.1085 C   0  0  0  0  0  0  0  0  0  0  0  0
    9.3711  -14.3583   18.6813 C   0  0  1  0  0  0  0  0  0  0  0  0
    9.6052  -14.3048   20.1498 C   0  0  0  0  0  0  0  0  0  0  0  0
   10.4093  -13.5193   20.6870 O   0  0  0  0  0  0  0  0  0  0  0  0
    6.9595  -13.8174   22.7348 C   0  0  0  0  0  0  0  0  0  0  0  0
    7.6329  -15.1104   23.1245 C   0  0  1  0  0  0  0  0  0  0  0  0
    6.8217  -16.1871   22.7859 O   0  0  0  0  0  0  0  0  0  0  0  0
    8.9718  -15.1640   22.4301 C   0  0  2  0  0  0  0  0  0  0  0  0
    8.8888  -15.1822   21.0016 N   0  0  0  0  0  0  0  0  0  0  0  0
    9.8433  -16.2374   22.9714 C   0  0  0  0  0  0  0  0  0  0  0  0
   10.0525  -17.2882   22.3122 O   0  0  0  0  0  0  0  0  0  0  0  0
   13.0096  -17.9421   26.2018 O   0  0  0  0  0  0  0  0  0  0  0  0
   12.2971  -16.8449   25.7243 C   0  0  0  0  0  0  0  0  0  0  0  0
   11.2139  -17.2826   24.7609 C   0  0  2  0  0  0  0  0  0  0  0  0
   10.4805  -16.1496   24.2348 N   0  0  0  0  0  0  0  0  0  0  0  0
   10.3152  -18.2921   25.3760 C   0  0  0  0  0  0  0  0  0  0  0  0
   10.8150  -19.5735   25.5542 O   0  0  0  0  0  0  0  0  0  0  0  0
    9.1649  -17.9635   25.7059 O   0  0  0  0  0  0  0  0  0  0  0  0
  1  5  1  0
  2  1  1  0
  3  2  1  0
  3  4  1  0
  4  5  1  0
  5  6  1  1
  6  7  2  0
  9  8  1  6
  9 10  1  0
  9 11  1  0
 11 13  1  0
 12  6  1  0
 11 12  1  6
 13 14  2  0
 13 18  1  0
 17 16  1  1
 16 15  1  0
 17 19  1  0
 18 17  1  0
 19 21  2  0
 19 20  1  0
M  END
$$$$
