PTS.pdb
     RDKit          3D

 21 21  0  0  1  0  0  0  0  0999 V2000
    8.1984  -14.2798   18.3150 N   0  0  0  0  0  0  0  0  0  0  0  0
    7.2221  -13.2501   18.0785 C   0  0  0  0  0  0  0  0  0  0  0  0
    7.5906  -12.0873   18.9725 C   0  0  0  0  0  0  0  0  0  0  0  0
    8.2034  -12.7895   20.1647 C   0  0  0  0  0  0  0  0  0  0  0  0
    8.7898  -14.0591   19.5928 C   0  0  1  0  0  0  0  0  0  0  0  0
    8.6241  -15.2175   20.5119 C   0  0  0  0  0  0  0  0  0  0  0  0
    7.5143  -15.6834   20.8335 O   0  0  0  0  0  0  0  0  0  0  0  0
   10.4622  -19.2119   22.5493 C   0  0  0  0  0  0  0  0  0  0  0  0
   10.6364  -18.1003   21.5438 C   0  0  1  0  0  0  0  0  0  0  0  0
   10.3502  -18.5682   20.2667 O   0  0  0  0  0  0  0  0  0  0  0  0
    9.7333  -16.9613   21.9500 C   0  0  2  0  0  0  0  0  0  0  0  0
    9.7725  -15.8394   21.0625 N   0  0  0  0  0  0  0  0  0  0  0  0
    9.9167  -16.5783   23.3728 C   0  0  0  0  0  0  0  0  0  0  0  0
   10.8497  -15.8071   23.7151 O   0  0  0  0  0  0  0  0  0  0  0  0
    7.1204  -17.4407   26.3553 O   0  0  0  0  0  0  0  0  0  0  0  0
    7.9859  -16.3590   26.4975 C   0  0  0  0  0  0  0  0  0  0  0  0
    9.2932  -16.6155   25.7777 C   0  0  2  0  0  0  0  0  0  0  0  0
    9.0730  -17.0454   24.4120 N   0  0  0  0  0  0  0  0  0  0  0  0
   10.1505  -17.5661   26.5304 C   0  0  0  0  0  0  0  0  0  0  0  0
   10.6270  -17.1600   27.7681 O   0  0  0  0  0  0  0  0  0  0  0  0
   10.4094  -18.6751   26.0375 O   0  0  0  0  0  0  0  0  0  0  0  0
  1  5  1  0
  2  1  1  0
  3  2  1  0
  3  4  1  0
  4  5  1  0
  5  6  1  1
  6  7  2  0
  9  8  1  1
  9 10  1  0
  9 11  1  0
 11 13  1  0
 12  6  1  0
 11 12  1  6
 13 14  2  0
 13 18  1  0
 17 16  1  1
 16 15  1  0
 17 19  1  0
 18 17  1  0
 19 21  2  0
 19 20  1  0
M  END
$$$$
