KLT.pdb
     RDKit          3D

 25 24  0  0  1  0  0  0  0  0999 V2000
   25.2082  -22.2435  -18.3170 N   0  0  0  0  0  0  0  0  0  0  0  0
   25.4735  -23.4196  -17.5060 C   0  0  1  0  0  0  0  0  0  0  0  0
   26.5491  -24.2941  -18.0462 C   0  0  0  0  0  0  0  0  0  0  0  0
   26.5343  -24.3767  -19.5508 C   0  0  0  0  0  0  0  0  0  0  0  0
   25.3749  -25.1784  -20.0779 C   0  0  0  0  0  0  0  0  0  0  0  0
   25.8141  -26.5754  -20.4477 C   0  0  0  0  0  0  0  0  0  0  0  0
   26.2762  -27.2985  -19.2655 N   0  0  0  0  0  0  0  0  0  0  0  0
   25.6600  -22.9814  -16.1102 C   0  0  0  0  0  0  0  0  0  0  0  0
   25.9372  -23.7593  -15.1649 O   0  0  0  0  0  0  0  0  0  0  0  0
   28.1734  -18.1646  -14.7249 C   0  0  0  0  0  0  0  0  0  0  0  0
   27.8022  -19.6592  -14.8661 C   0  0  1  0  0  0  0  0  0  0  0  0
   28.8271  -20.4011  -14.0785 C   0  0  0  0  0  0  0  0  0  0  0  0
   26.4018  -19.7727  -14.3928 C   0  0  0  0  0  0  0  0  0  0  0  0
   25.7365  -21.0936  -14.4297 C   0  0  2  0  0  0  0  0  0  0  0  0
   25.5263  -21.5764  -15.7597 N   0  0  0  0  0  0  0  0  0  0  0  0
   24.5557  -21.2099  -13.5371 C   0  0  0  0  0  0  0  0  0  0  0  0
   23.4245  -21.1175  -14.0321 O   0  0  0  0  0  0  0  0  0  0  0  0
   24.7051  -20.0987   -9.3597 C   0  0  0  0  0  0  0  0  0  0  0  0
   23.9247  -21.3241   -9.7813 C   0  0  1  0  0  0  0  0  0  0  0  0
   22.7747  -21.4683   -8.9551 O   0  0  0  0  0  0  0  0  0  0  0  0
   23.5927  -21.3978  -11.2138 C   0  0  2  0  0  0  0  0  0  0  0  0
   24.6749  -21.4172  -12.1509 N   0  0  0  0  0  0  0  0  0  0  0  0
   22.6701  -20.2249  -11.5014 C   0  0  0  0  0  0  0  0  0  0  0  0
   23.0452  -19.3118  -12.2330 O   0  0  0  0  0  0  0  0  0  0  0  0
   21.4355  -20.2373  -10.9193 O   0  0  0  0  0  0  0  0  0  0  0  0
  2  1  1  6
  2  8  1  0
  3  2  1  0
  4  5  1  0
  4  3  1  0
  6  7  1  0
  6  5  1  0
  8  9  2  0
 11 10  1  1
 11 13  1  0
 12 11  1  0
 14 13  1  6
 15  8  1  0
 15 14  1  0
 16 17  2  0
 16 14  1  0
 19 18  1  6
 19 21  1  0
 20 19  1  0
 21 22  1  6
 22 16  1  0
 23 25  1  0
 23 21  1  0
 24 23  2  0
M  END
$$$$
