KLT.pdb
     RDKit          3D

 25 24  0  0  1  0  0  0  0  0999 V2000
   20.9419  -27.0895  -11.0081 N   0  0  0  0  0  0  0  0  0  0  0  0
   19.7775  -27.9098  -11.2956 C   0  0  1  0  0  0  0  0  0  0  0  0
   20.0091  -29.3686  -11.1175 C   0  0  0  0  0  0  0  0  0  0  0  0
   21.1752  -29.8777  -11.9248 C   0  0  0  0  0  0  0  0  0  0  0  0
   21.4411  -31.3422  -11.7026 C   0  0  0  0  0  0  0  0  0  0  0  0
   20.3651  -32.1853  -12.3451 C   0  0  0  0  0  0  0  0  0  0  0  0
   20.6994  -33.6042  -12.2506 N   0  0  0  0  0  0  0  0  0  0  0  0
   18.6323  -27.3582  -10.5477 C   0  0  0  0  0  0  0  0  0  0  0  0
   17.4517  -27.7642  -10.6784 O   0  0  0  0  0  0  0  0  0  0  0  0
   16.0057  -26.1929   -6.2634 C   0  0  0  0  0  0  0  0  0  0  0  0
   17.1153  -25.1252   -6.4062 C   0  0  1  0  0  0  0  0  0  0  0  0
   17.6001  -24.8658   -5.0211 C   0  0  0  0  0  0  0  0  0  0  0  0
   18.1042  -25.6964   -7.3517 C   0  0  0  0  0  0  0  0  0  0  0  0
   17.7686  -25.7574   -8.7913 C   0  0  2  0  0  0  0  0  0  0  0  0
   18.8324  -26.2812   -9.5913 N   0  0  0  0  0  0  0  0  0  0  0  0
   17.1440  -24.5216   -9.3275 C   0  0  0  0  0  0  0  0  0  0  0  0
   17.8114  -23.4789   -9.3487 O   0  0  0  0  0  0  0  0  0  0  0  0
   16.0203  -23.4214  -12.7822 C   0  0  0  0  0  0  0  0  0  0  0  0
   14.8417  -23.4327  -11.8339 C   0  0  1  0  0  0  0  0  0  0  0  0
   14.0000  -24.5423  -12.1279 O   0  0  0  0  0  0  0  0  0  0  0  0
   15.1828  -23.3573  -10.4037 C   0  0  2  0  0  0  0  0  0  0  0  0
   15.8224  -24.4913   -9.8082 N   0  0  0  0  0  0  0  0  0  0  0  0
   13.8904  -23.0384   -9.6705 C   0  0  0  0  0  0  0  0  0  0  0  0
   13.4365  -23.8320   -8.8497 O   0  0  0  0  0  0  0  0  0  0  0  0
   13.2753  -21.8557   -9.9640 O   0  0  0  0  0  0  0  0  0  0  0  0
  2  1  1  1
  2  8  1  0
  3  2  1  0
  4  5  1  0
  4  3  1  0
  6  7  1  0
  6  5  1  0
  8  9  2  0
 11 10  1  1
 11 13  1  0
 12 11  1  0
 14 13  1  1
 15  8  1  0
 15 14  1  0
 16 17  2  0
 16 14  1  0
 19 18  1  6
 19 21  1  0
 20 19  1  0
 21 22  1  1
 22 16  1  0
 23 25  1  0
 23 21  1  0
 24 23  2  0
M  END
$$$$
