KLT.pdb
     RDKit          3D

 25 24  0  0  1  0  0  0  0  0999 V2000
   30.7741  -20.4987  -10.4118 N   0  0  0  0  0  0  0  0  0  0  0  0
   30.4267  -21.8369   -9.9648 C   0  0  1  0  0  0  0  0  0  0  0  0
   31.5968  -22.6557   -9.5475 C   0  0  0  0  0  0  0  0  0  0  0  0
   32.7454  -22.5707  -10.5192 C   0  0  0  0  0  0  0  0  0  0  0  0
   33.2510  -23.9238  -10.9418 C   0  0  0  0  0  0  0  0  0  0  0  0
   34.5011  -23.7907  -11.7790 C   0  0  0  0  0  0  0  0  0  0  0  0
   34.9731  -25.1044  -12.2096 N   0  0  0  0  0  0  0  0  0  0  0  0
   29.3504  -21.7206   -8.9632 C   0  0  0  0  0  0  0  0  0  0  0  0
   28.7054  -22.6993   -8.5140 O   0  0  0  0  0  0  0  0  0  0  0  0
   29.6614  -20.5931   -5.2974 C   0  0  0  0  0  0  0  0  0  0  0  0
   28.3037  -19.8642   -5.1675 C   0  0  1  0  0  0  0  0  0  0  0  0
   28.4813  -18.8840   -4.0591 C   0  0  0  0  0  0  0  0  0  0  0  0
   28.0221  -19.2959   -6.5076 C   0  0  0  0  0  0  0  0  0  0  0  0
   27.8036  -20.2155   -7.6457 C   0  0  2  0  0  0  0  0  0  0  0  0
   28.9796  -20.4177   -8.4345 N   0  0  0  0  0  0  0  0  0  0  0  0
   26.5742  -19.9375   -8.4306 C   0  0  0  0  0  0  0  0  0  0  0  0
   25.7840  -19.0800   -8.0143 O   0  0  0  0  0  0  0  0  0  0  0  0
   26.3235  -19.9043  -12.6909 C   0  0  0  0  0  0  0  0  0  0  0  0
   25.2897  -20.6851  -11.9099 C   0  0  1  0  0  0  0  0  0  0  0  0
   25.5040  -22.0804  -12.0921 O   0  0  0  0  0  0  0  0  0  0  0  0
   25.1677  -20.3224  -10.4883 C   0  0  2  0  0  0  0  0  0  0  0  0
   26.2730  -20.6143   -9.6264 N   0  0  0  0  0  0  0  0  0  0  0  0
   23.9094  -21.0048   -9.9777 C   0  0  0  0  0  0  0  0  0  0  0  0
   23.9687  -21.7624   -9.0122 O   0  0  0  0  0  0  0  0  0  0  0  0
   22.7404  -20.7402  -10.6309 O   0  0  0  0  0  0  0  0  0  0  0  0
  2  1  1  1
  2  8  1  0
  3  2  1  0
  4  5  1  0
  4  3  1  0
  6  7  1  0
  6  5  1  0
  8  9  2  0
 11 10  1  6
 11 13  1  0
 12 11  1  0
 14 13  1  1
 15  8  1  0
 15 14  1  0
 16 17  2  0
 16 14  1  0
 19 18  1  1
 19 21  1  0
 20 19  1  0
 21 22  1  1
 22 16  1  0
 23 25  1  0
 23 21  1  0
 24 23  2  0
M  END
$$$$
