KLT.pdb
     RDKit          3D

 25 24  0  0  1  0  0  0  0  0999 V2000
   26.1918  -23.5241  -15.4562 N   0  0  0  0  0  0  0  0  0  0  0  0
   26.0052  -22.1213  -15.1269 C   0  0  1  0  0  0  0  0  0  0  0  0
   25.7102  -21.2599  -16.3036 C   0  0  0  0  0  0  0  0  0  0  0  0
   26.7027  -21.4406  -17.4231 C   0  0  0  0  0  0  0  0  0  0  0  0
   28.0183  -20.7633  -17.1489 C   0  0  0  0  0  0  0  0  0  0  0  0
   28.9470  -20.8986  -18.3323 C   0  0  0  0  0  0  0  0  0  0  0  0
   30.2743  -20.3833  -18.0052 N   0  0  0  0  0  0  0  0  0  0  0  0
   25.0303  -22.0352  -14.0236 C   0  0  0  0  0  0  0  0  0  0  0  0
   24.0327  -22.7889  -13.9123 O   0  0  0  0  0  0  0  0  0  0  0  0
   26.0742  -19.7300   -8.8427 C   0  0  0  0  0  0  0  0  0  0  0  0
   25.6771  -20.7659   -9.9201 C   0  0  1  0  0  0  0  0  0  0  0  0
   25.1613  -21.9451   -9.1690 C   0  0  0  0  0  0  0  0  0  0  0  0
   24.7078  -20.0755  -10.8044 C   0  0  0  0  0  0  0  0  0  0  0  0
   24.1873  -20.7869  -11.9926 C   0  0  2  0  0  0  0  0  0  0  0  0
   25.1924  -21.0361  -12.9794 N   0  0  0  0  0  0  0  0  0  0  0  0
   22.9181  -20.2346  -12.5300 C   0  0  0  0  0  0  0  0  0  0  0  0
   22.9418  -19.1354  -13.0995 O   0  0  0  0  0  0  0  0  0  0  0  0
   21.3620  -20.1533  -15.4118 C   0  0  0  0  0  0  0  0  0  0  0  0
   20.3676  -20.8612  -14.5182 C   0  0  1  0  0  0  0  0  0  0  0  0
   20.4077  -22.2614  -14.7705 O   0  0  0  0  0  0  0  0  0  0  0  0
   20.4781  -20.5516  -13.0831 C   0  0  2  0  0  0  0  0  0  0  0  0
   21.6908  -20.9118  -12.4128 N   0  0  0  0  0  0  0  0  0  0  0  0
   19.2885  -21.2142  -12.4083 C   0  0  0  0  0  0  0  0  0  0  0  0
   19.4682  -22.0899  -11.5653 O   0  0  0  0  0  0  0  0  0  0  0  0
   18.0423  -20.7977  -12.7780 O   0  0  0  0  0  0  0  0  0  0  0  0
  2  1  1  6
  2  8  1  0
  3  2  1  0
  4  5  1  0
  4  3  1  0
  6  7  1  0
  6  5  1  0
  8  9  2  0
 11 10  1  1
 11 13  1  0
 12 11  1  0
 14 13  1  1
 15  8  1  0
 15 14  1  0
 16 17  2  0
 16 14  1  0
 19 18  1  6
 19 21  1  0
 20 19  1  0
 21 22  1  1
 22 16  1  0
 23 25  1  0
 23 21  1  0
 24 23  2  0
M  END
$$$$
