KLT.pdb
     RDKit          3D

 25 24  0  0  1  0  0  0  0  0999 V2000
   20.0070  -20.4418  -12.9660 N   0  0  0  0  0  0  0  0  0  0  0  0
   20.9513  -21.2749  -13.6909 C   0  0  1  0  0  0  0  0  0  0  0  0
   20.3415  -22.0452  -14.8081 C   0  0  0  0  0  0  0  0  0  0  0  0
   20.3531  -23.5327  -14.5667 C   0  0  0  0  0  0  0  0  0  0  0  0
   19.4360  -23.9474  -13.4477 C   0  0  0  0  0  0  0  0  0  0  0  0
   18.4322  -24.9682  -13.9288 C   0  0  0  0  0  0  0  0  0  0  0  0
   17.5319  -25.3537  -12.8448 N   0  0  0  0  0  0  0  0  0  0  0  0
   22.1096  -20.4401  -14.0604 C   0  0  0  0  0  0  0  0  0  0  0  0
   22.0191  -19.2436  -14.4290 O   0  0  0  0  0  0  0  0  0  0  0  0
   27.0539  -18.5009  -13.7658 C   0  0  0  0  0  0  0  0  0  0  0  0
   27.1153  -19.9926  -14.1692 C   0  0  1  0  0  0  0  0  0  0  0  0
   28.3463  -20.5301  -13.5237 C   0  0  0  0  0  0  0  0  0  0  0  0
   25.8299  -20.5829  -13.7250 C   0  0  0  0  0  0  0  0  0  0  0  0
   24.5971  -20.2697  -14.4806 C   0  0  2  0  0  0  0  0  0  0  0  0
   23.4547  -20.9902  -14.0096 N   0  0  0  0  0  0  0  0  0  0  0  0
   24.7650  -20.2750  -15.9559 C   0  0  0  0  0  0  0  0  0  0  0  0
   24.8084  -21.3629  -16.5457 O   0  0  0  0  0  0  0  0  0  0  0  0
   22.6433  -19.2164  -19.0535 C   0  0  0  0  0  0  0  0  0  0  0  0
   23.8863  -18.3737  -18.8711 C   0  0  1  0  0  0  0  0  0  0  0  0
   23.5334  -17.1127  -18.3130 O   0  0  0  0  0  0  0  0  0  0  0  0
   24.9835  -19.0207  -18.1329 C   0  0  2  0  0  0  0  0  0  0  0  0
   24.8799  -19.0910  -16.7067 N   0  0  0  0  0  0  0  0  0  0  0  0
   26.2567  -18.2929  -18.5315 C   0  0  0  0  0  0  0  0  0  0  0  0
   26.6745  -18.3700  -19.6844 O   0  0  0  0  0  0  0  0  0  0  0  0
   26.8962  -17.5686  -17.5673 O   0  0  0  0  0  0  0  0  0  0  0  0
  2  1  1  6
  2  8  1  0
  3  2  1  0
  4  5  1  0
  4  3  1  0
  6  7  1  0
  6  5  1  0
  8  9  2  0
 11 10  1  1
 11 13  1  0
 12 11  1  0
 14 13  1  1
 15  8  1  0
 15 14  1  0
 16 17  2  0
 16 14  1  0
 19 18  1  1
 19 21  1  0
 20 19  1  0
 21 22  1  1
 22 16  1  0
 23 25  1  0
 23 21  1  0
 24 23  2  0
M  END
$$$$
