KLT.pdb
     RDKit          3D

 25 24  0  0  1  0  0  0  0  0999 V2000
   27.3588  -21.5055  -15.2515 N   0  0  0  0  0  0  0  0  0  0  0  0
   26.9191  -20.4388  -14.3682 C   0  0  1  0  0  0  0  0  0  0  0  0
   25.7910  -19.6342  -14.9099 C   0  0  0  0  0  0  0  0  0  0  0  0
   25.1679  -20.2525  -16.1348 C   0  0  0  0  0  0  0  0  0  0  0  0
   24.0003  -19.4593  -16.6567 C   0  0  0  0  0  0  0  0  0  0  0  0
   24.4061  -18.6350  -17.8555 C   0  0  0  0  0  0  0  0  0  0  0  0
   23.2723  -17.8602  -18.3537 N   0  0  0  0  0  0  0  0  0  0  0  0
   26.6952  -21.0153  -13.0293 C   0  0  0  0  0  0  0  0  0  0  0  0
   26.4771  -22.2338  -12.8209 O   0  0  0  0  0  0  0  0  0  0  0  0
   27.9055  -20.9694   -7.6144 C   0  0  0  0  0  0  0  0  0  0  0  0
   26.6682  -20.1519   -8.0528 C   0  0  1  0  0  0  0  0  0  0  0  0
   26.5644  -19.0307   -7.0766 C   0  0  0  0  0  0  0  0  0  0  0  0
   26.9159  -19.7726   -9.4644 C   0  0  0  0  0  0  0  0  0  0  0  0
   26.4143  -20.6527  -10.5427 C   0  0  2  0  0  0  0  0  0  0  0  0
   26.7202  -20.1629  -11.8514 N   0  0  0  0  0  0  0  0  0  0  0  0
   25.0100  -21.1008  -10.3641 C   0  0  0  0  0  0  0  0  0  0  0  0
   24.7202  -21.7626   -9.3585 O   0  0  0  0  0  0  0  0  0  0  0  0
   21.7414  -19.6452   -9.2948 C   0  0  0  0  0  0  0  0  0  0  0  0
   21.6949  -20.0398  -10.7545 C   0  0  1  0  0  0  0  0  0  0  0  0
   21.8535  -18.8837  -11.5694 O   0  0  0  0  0  0  0  0  0  0  0  0
   22.6116  -21.1241  -11.1437 C   0  0  2  0  0  0  0  0  0  0  0  0
   23.9989  -20.8046  -11.2960 N   0  0  0  0  0  0  0  0  0  0  0  0
   22.0624  -21.7078  -12.4349 C   0  0  0  0  0  0  0  0  0  0  0  0
   22.7491  -21.7024  -13.4537 O   0  0  0  0  0  0  0  0  0  0  0  0
   20.7992  -22.2242  -12.4053 O   0  0  0  0  0  0  0  0  0  0  0  0
  2  1  1  6
  2  8  1  0
  3  2  1  0
  4  5  1  0
  4  3  1  0
  6  7  1  0
  6  5  1  0
  8  9  2  0
 11 10  1  1
 11 13  1  0
 12 11  1  0
 14 13  1  1
 15  8  1  0
 15 14  1  0
 16 17  2  0
 16 14  1  0
 19 18  1  1
 19 21  1  0
 20 19  1  0
 21 22  1  6
 22 16  1  0
 23 25  1  0
 23 21  1  0
 24 23  2  0
M  END
$$$$
