KLT.pdb
     RDKit          3D

 25 24  0  0  1  0  0  0  0  0999 V2000
   19.1830  -10.3668  -17.8935 N   0  0  0  0  0  0  0  0  0  0  0  0
   18.4001  -10.1732  -16.6848 C   0  0  1  0  0  0  0  0  0  0  0  0
   17.7776  -11.4200  -16.1637 C   0  0  0  0  0  0  0  0  0  0  0  0
   16.7538  -11.9994  -17.1055 C   0  0  0  0  0  0  0  0  0  0  0  0
   16.0502  -13.2000  -16.5325 C   0  0  0  0  0  0  0  0  0  0  0  0
   15.0232  -13.7326  -17.5035 C   0  0  0  0  0  0  0  0  0  0  0  0
   14.3995  -14.9447  -16.9780 N   0  0  0  0  0  0  0  0  0  0  0  0
   19.2283   -9.4308  -15.7163 C   0  0  0  0  0  0  0  0  0  0  0  0
   18.8417   -9.1137  -14.5650 O   0  0  0  0  0  0  0  0  0  0  0  0
   24.6330  -10.2528  -14.9317 C   0  0  0  0  0  0  0  0  0  0  0  0
   23.1233  -10.0470  -14.6670 C   0  0  1  0  0  0  0  0  0  0  0  0
   22.9409  -10.2671  -13.2044 C   0  0  0  0  0  0  0  0  0  0  0  0
   22.8078   -8.6889  -15.1709 C   0  0  0  0  0  0  0  0  0  0  0  0
   21.3977   -8.2415  -15.1939 C   0  0  2  0  0  0  0  0  0  0  0  0
   20.5783   -9.0213  -16.0693 N   0  0  0  0  0  0  0  0  0  0  0  0
   21.2231   -6.7733  -15.3298 C   0  0  0  0  0  0  0  0  0  0  0  0
   21.8740   -6.0256  -14.5879 O   0  0  0  0  0  0  0  0  0  0  0  0
   21.7419   -4.1961  -18.2783 C   0  0  0  0  0  0  0  0  0  0  0  0
   20.3103   -4.2361  -17.7909 C   0  0  1  0  0  0  0  0  0  0  0  0
   19.4905   -4.8764  -18.7624 O   0  0  0  0  0  0  0  0  0  0  0  0
   20.1186   -4.7986  -16.4440 C   0  0  2  0  0  0  0  0  0  0  0  0
   20.3436   -6.2014  -16.2669 N   0  0  0  0  0  0  0  0  0  0  0  0
   18.7032   -4.4369  -16.0252 C   0  0  0  0  0  0  0  0  0  0  0  0
   17.8742   -5.3223  -15.8293 O   0  0  0  0  0  0  0  0  0  0  0  0
   18.4079   -3.1119  -15.8826 O   0  0  0  0  0  0  0  0  0  0  0  0
  2  1  1  6
  2  8  1  0
  3  2  1  0
  4  5  1  0
  4  3  1  0
  6  7  1  0
  6  5  1  0
  8  9  2  0
 11 10  1  1
 11 13  1  0
 12 11  1  0
 14 13  1  6
 15  8  1  0
 15 14  1  0
 16 17  2  0
 16 14  1  0
 19 18  1  6
 19 21  1  0
 20 19  1  0
 21 22  1  6
 22 16  1  0
 23 25  1  0
 23 21  1  0
 24 23  2  0
M  END
$$$$
