VEV.pdb
     RDKit          3D

 24 23  0  0  1  0  0  0  0  0999 V2000
    8.5505  -13.2673   18.0784 C   0  0  0  0  0  0  0  0  0  0  0  0
    7.7375  -13.5924   19.3096 C   0  0  1  0  0  0  0  0  0  0  0  0
    6.5526  -14.4647   18.9573 C   0  0  0  0  0  0  0  0  0  0  0  0
    8.6296  -14.2794   20.3220 C   0  0  2  0  0  0  0  0  0  0  0  0
    9.1883  -15.4454   19.7027 N   0  0  0  0  0  0  0  0  0  0  0  0
    7.8975  -14.5924   21.5710 C   0  0  0  0  0  0  0  0  0  0  0  0
    7.3078  -13.6801   22.1928 O   0  0  0  0  0  0  0  0  0  0  0  0
    7.8321  -15.9046   22.1063 N   0  0  0  0  0  0  0  0  0  0  0  0
    7.2221  -16.1988   23.4009 C   0  0  1  0  0  0  0  0  0  0  0  0
    7.2950  -17.6707   23.5924 C   0  0  0  0  0  0  0  0  0  0  0  0
    6.7827  -18.1988   24.8861 C   0  0  0  0  0  0  0  0  0  0  0  0
    6.7973  -19.6637   25.0169 C   0  0  0  0  0  0  0  0  0  0  0  0
    5.9423  -20.3763   24.4393 O   0  0  0  0  0  0  0  0  0  0  0  0
    7.8506  -15.4117   24.4848 C   0  0  0  0  0  0  0  0  0  0  0  0
    9.1033  -15.4702   24.5883 O   0  0  0  0  0  0  0  0  0  0  0  0
    7.7462  -20.3323   25.7774 O   0  0  0  0  0  0  0  0  0  0  0  0
    6.4454  -11.7963   25.6206 C   0  0  0  0  0  0  0  0  0  0  0  0
    7.0596  -12.5576   26.7519 C   0  0  2  0  0  0  0  0  0  0  0  0
    7.8812  -11.6320   27.6238 C   0  0  0  0  0  0  0  0  0  0  0  0
    7.8653  -13.7472   26.2987 C   0  0  2  0  0  0  0  0  0  0  0  0
    7.1462  -14.6080   25.4010 N   0  0  0  0  0  0  0  0  0  0  0  0
    8.3515  -14.5013   27.4717 C   0  0  0  0  0  0  0  0  0  0  0  0
    7.8563  -15.5898   27.8503 O   0  0  0  0  0  0  0  0  0  0  0  0
    9.4115  -13.9828   28.1966 O   0  0  0  0  0  0  0  0  0  0  0  0
  2  1  1  6
  2  4  1  0
  3  2  1  0
  4  5  1  6
  6  8  1  0
  6  4  1  0
  7  6  2  0
  9  8  1  0
 10 11  1  0
  9 10  1  1
 12 16  1  0
 12 11  1  0
 13 12  2  0
 14 21  1  0
 14  9  1  0
 15 14  2  0
 18 17  1  6
 18 20  1  0
 19 18  1  0
 20 21  1  6
 20 22  1  0
 22 24  1  0
 23 22  2  0
M  END
$$$$
