VEV.pdb
     RDKit          3D

 24 23  0  0  1  0  0  0  0  0999 V2000
    7.9002  -12.7077   18.5791 C   0  0  0  0  0  0  0  0  0  0  0  0
    8.0467  -13.3312   19.9474 C   0  0  1  0  0  0  0  0  0  0  0  0
    6.7935  -13.1252   20.7697 C   0  0  0  0  0  0  0  0  0  0  0  0
    8.3487  -14.8063   19.7870 C   0  0  2  0  0  0  0  0  0  0  0  0
    7.3152  -15.3861   18.9803 N   0  0  0  0  0  0  0  0  0  0  0  0
    8.4939  -15.4794   21.0984 C   0  0  0  0  0  0  0  0  0  0  0  0
    7.5111  -16.0582   21.6138 O   0  0  0  0  0  0  0  0  0  0  0  0
    9.7199  -15.4991   21.8120 N   0  0  0  0  0  0  0  0  0  0  0  0
    9.8683  -16.1595   23.1068 C   0  0  1  0  0  0  0  0  0  0  0  0
   11.1829  -16.8524   23.0944 C   0  0  0  0  0  0  0  0  0  0  0  0
   11.3124  -18.0156   22.1752 C   0  0  0  0  0  0  0  0  0  0  0  0
   11.9098  -19.2218   22.7682 C   0  0  0  0  0  0  0  0  0  0  0  0
   11.3145  -20.3249   22.7362 O   0  0  0  0  0  0  0  0  0  0  0  0
    9.6939  -15.2040   24.2231 C   0  0  0  0  0  0  0  0  0  0  0  0
    9.7414  -13.9777   23.9453 O   0  0  0  0  0  0  0  0  0  0  0  0
   13.1508  -19.2078   23.3891 O   0  0  0  0  0  0  0  0  0  0  0  0
    7.9236  -13.1647   24.8289 C   0  0  0  0  0  0  0  0  0  0  0  0
    7.8445  -13.8389   26.1616 C   0  0  2  0  0  0  0  0  0  0  0  0
    7.4527  -12.8428   27.2323 C   0  0  0  0  0  0  0  0  0  0  0  0
    9.1057  -14.5761   26.5297 C   0  0  2  0  0  0  0  0  0  0  0  0
    9.4801  -15.5723   25.5648 N   0  0  0  0  0  0  0  0  0  0  0  0
    8.9646  -15.1738   27.8728 C   0  0  0  0  0  0  0  0  0  0  0  0
    8.4768  -16.3110   28.0781 O   0  0  0  0  0  0  0  0  0  0  0  0
    9.3927  -14.4431   28.9686 O   0  0  0  0  0  0  0  0  0  0  0  0
  2  1  1  6
  2  4  1  0
  3  2  1  0
  4  5  1  1
  6  8  1  0
  6  4  1  0
  7  6  2  0
  9  8  1  0
 10 11  1  0
  9 10  1  6
 12 16  1  0
 12 11  1  0
 13 12  2  0
 14 21  1  0
 14  9  1  0
 15 14  2  0
 18 17  1  6
 18 20  1  0
 19 18  1  0
 20 21  1  6
 20 22  1  0
 22 24  1  0
 23 22  2  0
M  END
$$$$
