VEV.pdb
     RDKit          3D

 24 23  0  0  1  0  0  0  0  0999 V2000
    8.3688  -12.8019   18.3290 C   0  0  0  0  0  0  0  0  0  0  0  0
    8.3379  -13.3587   19.7332 C   0  0  1  0  0  0  0  0  0  0  0  0
    7.1759  -12.7855   20.5141 C   0  0  0  0  0  0  0  0  0  0  0  0
    8.2465  -14.8685   19.6626 C   0  0  2  0  0  0  0  0  0  0  0  0
    7.1276  -15.2074   18.8328 N   0  0  0  0  0  0  0  0  0  0  0  0
    8.1601  -15.4737   21.0117 C   0  0  0  0  0  0  0  0  0  0  0  0
    7.0466  -15.5945   21.5703 O   0  0  0  0  0  0  0  0  0  0  0  0
    9.3040  -15.9322   21.7147 N   0  0  0  0  0  0  0  0  0  0  0  0
    9.2234  -16.5416   23.0402 C   0  0  1  0  0  0  0  0  0  0  0  0
   10.2992  -17.5639   23.1159 C   0  0  0  0  0  0  0  0  0  0  0  0
   10.5108  -18.2094   24.4400 C   0  0  0  0  0  0  0  0  0  0  0  0
   11.6270  -19.1651   24.5022 C   0  0  0  0  0  0  0  0  0  0  0  0
   12.3681  -19.3643   23.5106 O   0  0  0  0  0  0  0  0  0  0  0  0
    9.2786  -15.5190   24.1083 C   0  0  0  0  0  0  0  0  0  0  0  0
   10.1682  -14.6342   24.0143 O   0  0  0  0  0  0  0  0  0  0  0  0
   11.9199  -19.8917   25.6476 O   0  0  0  0  0  0  0  0  0  0  0  0
    6.8826  -12.9365   25.1439 C   0  0  0  0  0  0  0  0  0  0  0  0
    7.3414  -13.6032   26.4016 C   0  0  2  0  0  0  0  0  0  0  0  0
    7.5378  -12.5781   27.4984 C   0  0  0  0  0  0  0  0  0  0  0  0
    8.5738  -14.4482   26.2100 C   0  0  2  0  0  0  0  0  0  0  0  0
    8.4090  -15.4703   25.2141 N   0  0  0  0  0  0  0  0  0  0  0  0
    8.9862  -15.0353   27.5009 C   0  0  0  0  0  0  0  0  0  0  0  0
    8.8312  -16.2450   27.7937 O   0  0  0  0  0  0  0  0  0  0  0  0
    9.5768  -14.2095   28.4429 O   0  0  0  0  0  0  0  0  0  0  0  0
  2  1  1  6
  2  4  1  0
  3  2  1  0
  4  5  1  6
  6  8  1  0
  6  4  1  0
  7  6  2  0
  9  8  1  0
 10 11  1  0
  9 10  1  1
 12 16  1  0
 12 11  1  0
 13 12  2  0
 14 21  1  0
 14  9  1  0
 15 14  2  0
 18 17  1  6
 18 20  1  0
 19 18  1  0
 20 21  1  6
 20 22  1  0
 22 24  1  0
 23 22  2  0
M  END
$$$$
