VEV.pdb
     RDKit          3D

 24 23  0  0  1  0  0  0  0  0999 V2000
    6.6437  -13.0299   19.8209 C   0  0  0  0  0  0  0  0  0  0  0  0
    8.0411  -13.2872   19.3076 C   0  0  1  0  0  0  0  0  0  0  0  0
    9.0643  -12.5396   20.1340 C   0  0  0  0  0  0  0  0  0  0  0  0
    8.3102  -14.7770   19.3369 C   0  0  2  0  0  0  0  0  0  0  0  0
    7.3967  -15.4113   18.4321 N   0  0  0  0  0  0  0  0  0  0  0  0
    8.2213  -15.3208   20.7117 C   0  0  0  0  0  0  0  0  0  0  0  0
    7.1013  -15.4800   21.2475 O   0  0  0  0  0  0  0  0  0  0  0  0
    9.3695  -15.6769   21.4650 N   0  0  0  0  0  0  0  0  0  0  0  0
    9.2874  -16.2217   22.8182 C   0  0  1  0  0  0  0  0  0  0  0  0
   10.4500  -17.1306   22.9933 C   0  0  0  0  0  0  0  0  0  0  0  0
   10.5746  -17.8032   24.3150 C   0  0  0  0  0  0  0  0  0  0  0  0
   11.7638  -18.6531   24.4780 C   0  0  0  0  0  0  0  0  0  0  0  0
   11.8579  -19.4637   25.4301 O   0  0  0  0  0  0  0  0  0  0  0  0
    9.1986  -15.1446   23.8289 C   0  0  0  0  0  0  0  0  0  0  0  0
    9.5400  -13.9878   23.4706 O   0  0  0  0  0  0  0  0  0  0  0  0
   12.8361  -18.6070   23.5983 O   0  0  0  0  0  0  0  0  0  0  0  0
    7.2506  -12.8813   24.3319 C   0  0  0  0  0  0  0  0  0  0  0  0
    7.3080  -13.4284   25.7227 C   0  0  2  0  0  0  0  0  0  0  0  0
    7.0829  -12.3227   26.7322 C   0  0  0  0  0  0  0  0  0  0  0  0
    8.5774  -14.1870   26.0102 C   0  0  2  0  0  0  0  0  0  0  0  0
    8.7611  -15.3262   25.1545 N   0  0  0  0  0  0  0  0  0  0  0  0
    8.6126  -14.5875   27.4313 C   0  0  0  0  0  0  0  0  0  0  0  0
    8.4538  -15.7684   27.8232 O   0  0  0  0  0  0  0  0  0  0  0  0
    8.8326  -13.6098   28.3872 O   0  0  0  0  0  0  0  0  0  0  0  0
  2  1  1  1
  2  4  1  0
  3  2  1  0
  4  5  1  6
  6  8  1  0
  6  4  1  0
  7  6  2  0
  9  8  1  0
 10 11  1  0
  9 10  1  1
 12 16  1  0
 12 11  1  0
 13 12  2  0
 14 21  1  0
 14  9  1  0
 15 14  2  0
 18 17  1  6
 18 20  1  0
 19 18  1  0
 20 21  1  6
 20 22  1  0
 22 24  1  0
 23 22  2  0
M  END
$$$$
