VEV.pdb
     RDKit          3D

 24 23  0  0  1  0  0  0  0  0999 V2000
    8.2664  -12.6377   18.5033 C   0  0  0  0  0  0  0  0  0  0  0  0
    8.2833  -13.2934   19.8642 C   0  0  1  0  0  0  0  0  0  0  0  0
    7.0794  -12.8740   20.6789 C   0  0  0  0  0  0  0  0  0  0  0  0
    8.3157  -14.7968   19.6865 C   0  0  2  0  0  0  0  0  0  0  0  0
    7.2403  -15.1639   18.8124 N   0  0  0  0  0  0  0  0  0  0  0  0
    8.2588  -15.5016   20.9880 C   0  0  0  0  0  0  0  0  0  0  0  0
    7.1505  -15.8052   21.4842 O   0  0  0  0  0  0  0  0  0  0  0  0
    9.4256  -15.8559   21.7131 N   0  0  0  0  0  0  0  0  0  0  0  0
    9.3747  -16.4759   23.0351 C   0  0  1  0  0  0  0  0  0  0  0  0
   10.4944  -17.4508   23.1025 C   0  0  0  0  0  0  0  0  0  0  0  0
   10.6533  -18.1929   24.3827 C   0  0  0  0  0  0  0  0  0  0  0  0
   11.8152  -19.0923   24.4476 C   0  0  0  0  0  0  0  0  0  0  0  0
   11.8908  -19.9949   25.3147 O   0  0  0  0  0  0  0  0  0  0  0  0
    9.3877  -15.4582   24.1092 C   0  0  0  0  0  0  0  0  0  0  0  0
   10.2946  -14.5870   24.0674 O   0  0  0  0  0  0  0  0  0  0  0  0
   12.8807  -18.9945   23.5639 O   0  0  0  0  0  0  0  0  0  0  0  0
    6.6802  -13.0637   24.9112 C   0  0  0  0  0  0  0  0  0  0  0  0
    7.1913  -13.5785   26.2191 C   0  0  2  0  0  0  0  0  0  0  0  0
    7.2727  -12.4549   27.2306 C   0  0  0  0  0  0  0  0  0  0  0  0
    8.5043  -14.3072   26.0980 C   0  0  2  0  0  0  0  0  0  0  0  0
    8.4604  -15.4000   25.1666 N   0  0  0  0  0  0  0  0  0  0  0  0
    8.9469  -14.7698   27.4289 C   0  0  0  0  0  0  0  0  0  0  0  0
    8.9229  -15.9711   27.7889 O   0  0  0  0  0  0  0  0  0  0  0  0
    9.4147  -13.8301   28.3323 O   0  0  0  0  0  0  0  0  0  0  0  0
  2  1  1  6
  2  4  1  0
  3  2  1  0
  4  5  1  6
  6  8  1  0
  6  4  1  0
  7  6  2  0
  9  8  1  0
 10 11  1  0
  9 10  1  1
 12 16  1  0
 12 11  1  0
 13 12  2  0
 14 21  1  0
 14  9  1  0
 15 14  2  0
 18 17  1  6
 18 20  1  0
 19 18  1  0
 20 21  1  6
 20 22  1  0
 22 24  1  0
 23 22  2  0
M  END
$$$$
