VEV.pdb
     RDKit          3D

 24 23  0  0  1  0  0  0  0  0999 V2000
    8.1969  -12.6327   20.7592 C   0  0  0  0  0  0  0  0  0  0  0  0
    7.6108  -13.3873   19.5889 C   0  0  1  0  0  0  0  0  0  0  0  0
    7.8452  -12.6397   18.2947 C   0  0  0  0  0  0  0  0  0  0  0  0
    8.2301  -14.7679   19.5328 C   0  0  2  0  0  0  0  0  0  0  0  0
    7.6079  -15.4906   18.4623 N   0  0  0  0  0  0  0  0  0  0  0  0
    8.1207  -15.4685   20.8332 C   0  0  0  0  0  0  0  0  0  0  0  0
    7.0108  -15.9027   21.2155 O   0  0  0  0  0  0  0  0  0  0  0  0
    9.2380  -15.6745   21.6829 N   0  0  0  0  0  0  0  0  0  0  0  0
    9.1212  -16.2842   23.0055 C   0  0  1  0  0  0  0  0  0  0  0  0
   10.1754  -17.3275   23.0990 C   0  0  0  0  0  0  0  0  0  0  0  0
   10.3137  -18.0169   24.4106 C   0  0  0  0  0  0  0  0  0  0  0  0
   11.3677  -19.0408   24.4744 C   0  0  0  0  0  0  0  0  0  0  0  0
   12.0708  -19.3131   23.4725 O   0  0  0  0  0  0  0  0  0  0  0  0
    9.1766  -15.2646   24.0764 C   0  0  0  0  0  0  0  0  0  0  0  0
   10.1354  -14.4503   24.0485 O   0  0  0  0  0  0  0  0  0  0  0  0
   11.6406  -19.7548   25.6326 O   0  0  0  0  0  0  0  0  0  0  0  0
    6.4123  -12.8481   25.0112 C   0  0  0  0  0  0  0  0  0  0  0  0
    7.0345  -13.3441   26.2775 C   0  0  2  0  0  0  0  0  0  0  0  0
    7.1894  -12.2087   27.2670 C   0  0  0  0  0  0  0  0  0  0  0  0
    8.3394  -14.0635   26.0556 C   0  0  2  0  0  0  0  0  0  0  0  0
    8.2356  -15.1457   25.1165 N   0  0  0  0  0  0  0  0  0  0  0  0
    8.8771  -14.5389   27.3464 C   0  0  0  0  0  0  0  0  0  0  0  0
    8.7461  -15.7154   27.7611 O   0  0  0  0  0  0  0  0  0  0  0  0
    9.5640  -13.6409   28.1462 O   0  0  0  0  0  0  0  0  0  0  0  0
  2  1  1  1
  2  4  1  0
  3  2  1  0
  4  5  1  6
  6  8  1  0
  6  4  1  0
  7  6  2  0
  9  8  1  0
 10 11  1  0
  9 10  1  1
 12 16  1  0
 12 11  1  0
 13 12  2  0
 14 21  1  0
 14  9  1  0
 15 14  2  0
 18 17  1  6
 18 20  1  0
 19 18  1  0
 20 21  1  6
 20 22  1  0
 22 24  1  0
 23 22  2  0
M  END
$$$$
