VEV.pdb
     RDKit          3D

 24 23  0  0  1  0  0  0  0  0999 V2000
    6.8323  -13.0279   19.7051 C   0  0  0  0  0  0  0  0  0  0  0  0
    7.9472  -13.7890   19.0268 C   0  0  1  0  0  0  0  0  0  0  0  0
    8.2858  -13.1692   17.6888 C   0  0  0  0  0  0  0  0  0  0  0  0
    9.1584  -13.8029   19.9355 C   0  0  2  0  0  0  0  0  0  0  0  0
   10.2211  -14.4772   19.2489 N   0  0  0  0  0  0  0  0  0  0  0  0
    8.8487  -14.4149   21.2483 C   0  0  0  0  0  0  0  0  0  0  0  0
    7.8640  -14.0113   21.9071 O   0  0  0  0  0  0  0  0  0  0  0  0
    9.6321  -15.4584   21.8052 N   0  0  0  0  0  0  0  0  0  0  0  0
    9.2651  -16.1472   23.0403 C   0  0  1  0  0  0  0  0  0  0  0  0
   10.1885  -17.3023   23.1859 C   0  0  0  0  0  0  0  0  0  0  0  0
   10.0426  -18.1181   24.4221 C   0  0  0  0  0  0  0  0  0  0  0  0
   11.0422  -19.1833   24.5937 C   0  0  0  0  0  0  0  0  0  0  0  0
   10.7674  -20.3798   24.3386 O   0  0  0  0  0  0  0  0  0  0  0  0
    9.2615  -15.2209   24.1941 C   0  0  0  0  0  0  0  0  0  0  0  0
   10.3283  -14.5999   24.4385 O   0  0  0  0  0  0  0  0  0  0  0  0
   12.3304  -18.9279   25.0422 O   0  0  0  0  0  0  0  0  0  0  0  0
    6.5918  -12.4987   24.9028 C   0  0  0  0  0  0  0  0  0  0  0  0
    6.9813  -13.1644   26.1842 C   0  0  2  0  0  0  0  0  0  0  0  0
    7.1007  -12.1407   27.2933 C   0  0  0  0  0  0  0  0  0  0  0  0
    8.2317  -13.9960   26.0650 C   0  0  2  0  0  0  0  0  0  0  0  0
    8.1531  -14.9897   25.0304 N   0  0  0  0  0  0  0  0  0  0  0  0
    8.5476  -14.6181   27.3666 C   0  0  0  0  0  0  0  0  0  0  0  0
    8.1940  -15.7787   27.6847 O   0  0  0  0  0  0  0  0  0  0  0  0
    9.2736  -13.8842   28.2900 O   0  0  0  0  0  0  0  0  0  0  0  0
  2  1  1  1
  2  4  1  0
  3  2  1  0
  4  5  1  6
  6  8  1  0
  6  4  1  0
  7  6  2  0
  9  8  1  0
 10 11  1  0
  9 10  1  1
 12 16  1  0
 12 11  1  0
 13 12  2  0
 14 21  1  0
 14  9  1  0
 15 14  2  0
 18 17  1  6
 18 20  1  0
 19 18  1  0
 20 21  1  6
 20 22  1  0
 22 24  1  0
 23 22  2  0
M  END
$$$$
