VEV.pdb
     RDKit          3D

 24 23  0  0  1  0  0  0  0  0999 V2000
    8.4463  -12.8420   18.4010 C   0  0  0  0  0  0  0  0  0  0  0  0
    8.3670  -13.4024   19.8018 C   0  0  1  0  0  0  0  0  0  0  0  0
    7.1737  -12.8376   20.5407 C   0  0  0  0  0  0  0  0  0  0  0  0
    8.2869  -14.9125   19.7245 C   0  0  2  0  0  0  0  0  0  0  0  0
    7.2235  -15.2555   18.8263 N   0  0  0  0  0  0  0  0  0  0  0  0
    8.1191  -15.5194   21.0652 C   0  0  0  0  0  0  0  0  0  0  0  0
    6.9700  -15.7177   21.5200 O   0  0  0  0  0  0  0  0  0  0  0  0
    9.2226  -15.8942   21.8743 N   0  0  0  0  0  0  0  0  0  0  0  0
    9.0668  -16.3944   23.2382 C   0  0  1  0  0  0  0  0  0  0  0  0
   10.0961  -17.4478   23.4363 C   0  0  0  0  0  0  0  0  0  0  0  0
   10.1834  -18.0443   24.7969 C   0  0  0  0  0  0  0  0  0  0  0  0
   11.2807  -19.0038   24.9933 C   0  0  0  0  0  0  0  0  0  0  0  0
   11.2754  -20.1222   24.4263 O   0  0  0  0  0  0  0  0  0  0  0  0
    9.1232  -15.2942   24.2261 C   0  0  0  0  0  0  0  0  0  0  0  0
   10.0978  -14.5018   24.1519 O   0  0  0  0  0  0  0  0  0  0  0  0
   12.3707  -18.7293   25.8070 O   0  0  0  0  0  0  0  0  0  0  0  0
    6.4079  -12.7069   25.0194 C   0  0  0  0  0  0  0  0  0  0  0  0
    7.0021  -13.1944   26.3024 C   0  0  2  0  0  0  0  0  0  0  0  0
    7.1670  -12.0461   27.2752 C   0  0  0  0  0  0  0  0  0  0  0  0
    8.2946  -13.9443   26.1108 C   0  0  2  0  0  0  0  0  0  0  0  0
    8.1668  -15.0765   25.2358 N   0  0  0  0  0  0  0  0  0  0  0  0
    8.8373  -14.3535   27.4220 C   0  0  0  0  0  0  0  0  0  0  0  0
    9.1968  -13.5415   28.3078 O   0  0  0  0  0  0  0  0  0  0  0  0
    8.9579  -15.7063   27.6933 O   0  0  0  0  0  0  0  0  0  0  0  0
  2  1  1  6
  2  4  1  0
  3  2  1  0
  4  5  1  6
  6  8  1  0
  6  4  1  0
  7  6  2  0
  9  8  1  0
 10 11  1  0
  9 10  1  1
 12 16  1  0
 12 11  1  0
 13 12  2  0
 14 21  1  0
 14  9  1  0
 15 14  2  0
 18 17  1  6
 18 20  1  0
 19 18  1  0
 20 21  1  6
 20 22  1  0
 22 24  1  0
 23 22  2  0
M  END
$$$$
