VEV.pdb
     RDKit          3D

 24 23  0  0  1  0  0  0  0  0999 V2000
    8.4870  -12.5938   18.3360 C   0  0  0  0  0  0  0  0  0  0  0  0
    8.3665  -13.2048   19.7125 C   0  0  1  0  0  0  0  0  0  0  0  0
    7.0616  -12.8060   20.3661 C   0  0  0  0  0  0  0  0  0  0  0  0
    8.4711  -14.7107   19.5941 C   0  0  2  0  0  0  0  0  0  0  0  0
    7.5193  -15.1463   18.6144 N   0  0  0  0  0  0  0  0  0  0  0  0
    8.2856  -15.3754   20.9046 C   0  0  0  0  0  0  0  0  0  0  0  0
    7.1340  -15.6708   21.2959 O   0  0  0  0  0  0  0  0  0  0  0  0
    9.3744  -15.6994   21.7544 N   0  0  0  0  0  0  0  0  0  0  0  0
    9.1944  -16.3159   23.0668 C   0  0  1  0  0  0  0  0  0  0  0  0
   10.2448  -17.3578   23.2065 C   0  0  0  0  0  0  0  0  0  0  0  0
   10.3376  -18.0350   24.5285 C   0  0  0  0  0  0  0  0  0  0  0  0
   11.3774  -19.0699   24.6330 C   0  0  0  0  0  0  0  0  0  0  0  0
   12.4825  -18.8286   25.1742 O   0  0  0  0  0  0  0  0  0  0  0  0
    9.1955  -15.3016   24.1441 C   0  0  0  0  0  0  0  0  0  0  0  0
   10.1231  -14.4514   24.1348 O   0  0  0  0  0  0  0  0  0  0  0  0
   11.1970  -20.3562   24.1446 O   0  0  0  0  0  0  0  0  0  0  0  0
    6.5785  -12.7533   25.1157 C   0  0  0  0  0  0  0  0  0  0  0  0
    7.0533  -13.4303   26.3619 C   0  0  2  0  0  0  0  0  0  0  0  0
    7.1705  -12.4296   27.4919 C   0  0  0  0  0  0  0  0  0  0  0  0
    8.3360  -14.1966   26.1692 C   0  0  2  0  0  0  0  0  0  0  0  0
    8.2357  -15.2247   25.1708 N   0  0  0  0  0  0  0  0  0  0  0  0
    8.7834  -14.7600   27.4590 C   0  0  0  0  0  0  0  0  0  0  0  0
    8.6950  -15.9762   27.7526 O   0  0  0  0  0  0  0  0  0  0  0  0
    9.3312  -13.9030   28.3990 O   0  0  0  0  0  0  0  0  0  0  0  0
  2  1  1  6
  2  4  1  0
  3  2  1  0
  4  5  1  6
  6  8  1  0
  6  4  1  0
  7  6  2  0
  9  8  1  0
 10 11  1  0
  9 10  1  1
 12 16  1  0
 12 11  1  0
 13 12  2  0
 14 21  1  0
 14  9  1  0
 15 14  2  0
 18 17  1  6
 18 20  1  0
 19 18  1  0
 20 21  1  6
 20 22  1  0
 22 24  1  0
 23 22  2  0
M  END
$$$$
