FCH.pdb
     RDKit          3D

 28 29  0  0  1  0  0  0  0  0999 V2000
   16.6484  -22.8175    4.0009 N   0  0  0  0  0  0  0  0  0  0  0  0
   17.8981  -23.0106    3.2090 C   0  0  1  0  0  0  0  0  0  0  0  0
   17.7905  -22.0403    2.1012 C   0  0  0  0  0  0  0  0  0  0  0  0
   16.6885  -22.1644    1.1678 C   0  0  0  0  0  0  0  0  0  0  0  0
   16.6549  -23.1974    0.2594 C   0  0  0  0  0  0  0  0  0  0  0  0
   15.6338  -23.3641   -0.6583 C   0  0  0  0  0  0  0  0  0  0  0  0
   14.6101  -22.4445   -0.6490 C   0  0  0  0  0  0  0  0  0  0  0  0
   14.6179  -21.4039    0.2467 C   0  0  0  0  0  0  0  0  0  0  0  0
   15.6491  -21.2726    1.1416 C   0  0  0  0  0  0  0  0  0  0  0  0
   18.9908  -22.8765    4.1538 C   0  0  0  0  0  0  0  0  0  0  0  0
   20.1580  -22.4766    3.8062 O   0  0  0  0  0  0  0  0  0  0  0  0
   18.8301  -23.1777    5.5309 N   0  0  0  0  0  0  0  0  0  0  0  0
   19.3643  -22.3212    6.5757 C   0  0  1  0  0  0  0  0  0  0  0  0
   18.9220  -20.8751    6.3227 C   0  0  0  0  0  0  0  0  0  0  0  0
   20.2721  -19.7224    6.7007 S   0  0  0  0  0  0  0  0  0  0  0  0
   18.9482  -22.7708    7.9169 C   0  0  0  0  0  0  0  0  0  0  0  0
   18.0889  -23.6263    8.1801 O   0  0  0  0  0  0  0  0  0  0  0  0
   19.5954  -22.1657    9.0632 N   0  0  0  0  0  0  0  0  0  0  0  0
   19.8487  -22.9288   10.2733 C   0  0  1  0  0  0  0  0  0  0  0  0
   20.8589  -23.9994    9.9057 C   0  0  0  0  0  0  0  0  0  0  0  0
   21.2385  -24.8076   11.0857 C   0  0  0  0  0  0  0  0  0  0  0  0
   21.0015  -24.4732   12.3950 C   0  0  0  0  0  0  0  0  0  0  0  0
   21.4965  -25.4630   13.1647 N   0  0  0  0  0  0  0  0  0  0  0  0
   22.0347  -26.4036   12.3730 C   0  0  0  0  0  0  0  0  0  0  0  0
   21.8720  -25.9925   11.0890 N   0  0  0  0  0  0  0  0  0  0  0  0
   20.5180  -22.0333   11.2566 C   0  0  0  0  0  0  0  0  0  0  0  0
   21.3090  -21.0152   10.7728 O   0  0  0  0  0  0  0  0  0  0  0  0
   20.3714  -22.1940   12.4954 O   0  0  0  0  0  0  0  0  0  0  0  0
  2  1  1  1
  2 10  1  0
  3  2  1  0
  4  3  1  0
  4  9  1  0
  5  4  2  0
  6  5  1  0
  6  7  2  0
  7  8  1  0
  8  9  2  0
 10 11  2  0
 12 13  1  0
 12 10  1  0
 13 16  1  0
 14 15  1  0
 13 14  1  6
 16 17  2  0
 18 16  1  0
 18 19  1  0
 19 26  1  0
 19 20  1  6
 21 25  1  0
 21 20  1  0
 22 21  2  0
 23 22  1  0
 23 24  1  0
 24 25  2  0
 26 28  2  0
 26 27  1  0
M  END
$$$$
