FCH.pdb
     RDKit          3D

 28 29  0  0  1  0  0  0  0  0999 V2000
   31.9676   -8.8376  -17.6917 N   0  0  0  0  0  0  0  0  0  0  0  0
   30.7050   -9.3132  -18.3287 C   0  0  1  0  0  0  0  0  0  0  0  0
   30.6588  -10.7585  -18.0301 C   0  0  0  0  0  0  0  0  0  0  0  0
   31.5871  -11.6422  -18.7073 C   0  0  0  0  0  0  0  0  0  0  0  0
   32.6478  -12.1953  -18.0275 C   0  0  0  0  0  0  0  0  0  0  0  0
   33.5683  -13.0397  -18.6208 C   0  0  0  0  0  0  0  0  0  0  0  0
   33.4008  -13.3307  -19.9554 C   0  0  0  0  0  0  0  0  0  0  0  0
   32.3511  -12.7929  -20.6582 C   0  0  0  0  0  0  0  0  0  0  0  0
   31.4588  -11.9590  -20.0337 C   0  0  0  0  0  0  0  0  0  0  0  0
   29.6537   -8.4573  -17.8122 C   0  0  0  0  0  0  0  0  0  0  0  0
   29.7852   -7.7778  -16.7332 O   0  0  0  0  0  0  0  0  0  0  0  0
   28.4089   -8.3165  -18.4783 N   0  0  0  0  0  0  0  0  0  0  0  0
   27.3679   -7.4290  -17.9890 C   0  0  1  0  0  0  0  0  0  0  0  0
   27.9005   -5.9916  -17.9549 C   0  0  0  0  0  0  0  0  0  0  0  0
   28.6965   -5.5714  -19.5311 S   0  0  0  0  0  0  0  0  0  0  0  0
   26.1453   -7.5169  -18.8084 C   0  0  0  0  0  0  0  0  0  0  0  0
   26.0567   -7.9555  -19.9656 O   0  0  0  0  0  0  0  0  0  0  0  0
   24.9052   -7.0486  -18.2237 N   0  0  0  0  0  0  0  0  0  0  0  0
   23.6466   -7.1599  -18.9410 C   0  0  1  0  0  0  0  0  0  0  0  0
   23.3484   -8.6425  -19.0630 C   0  0  0  0  0  0  0  0  0  0  0  0
   22.0733   -8.8771  -19.7763 C   0  0  0  0  0  0  0  0  0  0  0  0
   21.2254   -7.9039  -20.2415 C   0  0  0  0  0  0  0  0  0  0  0  0
   20.1806   -8.5204  -20.8293 N   0  0  0  0  0  0  0  0  0  0  0  0
   20.3532   -9.8485  -20.7437 C   0  0  0  0  0  0  0  0  0  0  0  0
   21.5250  -10.0625  -20.0917 N   0  0  0  0  0  0  0  0  0  0  0  0
   22.5724   -6.5797  -18.0886 C   0  0  0  0  0  0  0  0  0  0  0  0
   21.4626   -6.0546  -18.7120 O   0  0  0  0  0  0  0  0  0  0  0  0
   22.6669   -6.5651  -16.8345 O   0  0  0  0  0  0  0  0  0  0  0  0
  2  1  1  1
  2 10  1  0
  3  2  1  0
  4  3  1  0
  4  9  1  0
  5  4  2  0
  6  5  1  0
  6  7  2  0
  7  8  1  0
  8  9  2  0
 10 11  2  0
 12 13  1  0
 12 10  1  0
 13 16  1  0
 14 15  1  0
 13 14  1  6
 16 17  2  0
 18 16  1  0
 18 19  1  0
 19 26  1  0
 19 20  1  1
 21 25  1  0
 21 20  1  0
 22 21  2  0
 23 22  1  0
 23 24  1  0
 24 25  2  0
 26 28  2  0
 26 27  1  0
M  END
$$$$
