FCH.pdb
     RDKit          3D

 28 29  0  0  1  0  0  0  0  0999 V2000
   27.9947  -19.6848  -15.6535 N   0  0  0  0  0  0  0  0  0  0  0  0
   27.4955  -19.1343  -14.3597 C   0  0  1  0  0  0  0  0  0  0  0  0
   26.6179  -18.0117  -14.7466 C   0  0  0  0  0  0  0  0  0  0  0  0
   27.1971  -16.8788  -15.4411 C   0  0  0  0  0  0  0  0  0  0  0  0
   27.2958  -16.8762  -16.8135 C   0  0  0  0  0  0  0  0  0  0  0  0
   27.8434  -15.8279  -17.5301 C   0  0  0  0  0  0  0  0  0  0  0  0
   28.3070  -14.7430  -16.8215 C   0  0  0  0  0  0  0  0  0  0  0  0
   28.2210  -14.7188  -15.4514 C   0  0  0  0  0  0  0  0  0  0  0  0
   27.6709  -15.7788  -14.7765 C   0  0  0  0  0  0  0  0  0  0  0  0
   26.9206  -20.2589  -13.6459 C   0  0  0  0  0  0  0  0  0  0  0  0
   27.4615  -21.4210  -13.6394 O   0  0  0  0  0  0  0  0  0  0  0  0
   25.7182  -20.1374  -12.9027 N   0  0  0  0  0  0  0  0  0  0  0  0
   25.2554  -21.1837  -12.0073 C   0  0  1  0  0  0  0  0  0  0  0  0
   26.2439  -21.3312  -10.8446 C   0  0  0  0  0  0  0  0  0  0  0  0
   26.0257  -19.9820   -9.6503 S   0  0  0  0  0  0  0  0  0  0  0  0
   23.8943  -20.9138  -11.5088 C   0  0  0  0  0  0  0  0  0  0  0  0
   23.5578  -20.0232  -10.7131 O   0  0  0  0  0  0  0  0  0  0  0  0
   22.8205  -21.7632  -11.9825 N   0  0  0  0  0  0  0  0  0  0  0  0
   21.6643  -21.2047  -12.6624 C   0  0  1  0  0  0  0  0  0  0  0  0
   22.1671  -20.6417  -13.9785 C   0  0  0  0  0  0  0  0  0  0  0  0
   21.0875  -19.9442  -14.7118 C   0  0  0  0  0  0  0  0  0  0  0  0
   19.7811  -19.8406  -14.3056 C   0  0  0  0  0  0  0  0  0  0  0  0
   19.1177  -19.1337  -15.2423 N   0  0  0  0  0  0  0  0  0  0  0  0
   19.9726  -18.7942  -16.2194 C   0  0  0  0  0  0  0  0  0  0  0  0
   21.1886  -19.2982  -15.8855 N   0  0  0  0  0  0  0  0  0  0  0  0
   20.7408  -22.3217  -13.0037 C   0  0  0  0  0  0  0  0  0  0  0  0
   19.3859  -22.0828  -12.9479 O   0  0  0  0  0  0  0  0  0  0  0  0
   21.1762  -23.4543  -13.3347 O   0  0  0  0  0  0  0  0  0  0  0  0
  2  1  1  6
  2 10  1  0
  3  2  1  0
  4  3  1  0
  4  9  1  0
  5  4  2  0
  6  5  1  0
  6  7  2  0
  7  8  1  0
  8  9  2  0
 10 11  2  0
 12 13  1  0
 12 10  1  0
 13 16  1  0
 14 15  1  0
 13 14  1  1
 16 17  2  0
 18 16  1  0
 18 19  1  0
 19 26  1  0
 19 20  1  6
 21 25  1  0
 21 20  1  0
 22 21  2  0
 23 22  1  0
 23 24  1  0
 24 25  2  0
 26 28  2  0
 26 27  1  0
M  END
$$$$
