FCH.pdb
     RDKit          3D

 28 29  0  0  1  0  0  0  0  0999 V2000
   19.5640  -13.3000  -16.6419 N   0  0  0  0  0  0  0  0  0  0  0  0
   20.1411  -12.0356  -17.1842 C   0  0  1  0  0  0  0  0  0  0  0  0
   19.2212  -11.6421  -18.2701 C   0  0  0  0  0  0  0  0  0  0  0  0
   19.1071  -12.4984  -19.4341 C   0  0  0  0  0  0  0  0  0  0  0  0
   20.1519  -12.6140  -20.3220 C   0  0  0  0  0  0  0  0  0  0  0  0
   20.0994  -13.4099  -21.4516 C   0  0  0  0  0  0  0  0  0  0  0  0
   18.9397  -14.1134  -21.6841 C   0  0  0  0  0  0  0  0  0  0  0  0
   17.8814  -14.0170  -20.8146 C   0  0  0  0  0  0  0  0  0  0  0  0
   17.9723  -13.2163  -19.7045 C   0  0  0  0  0  0  0  0  0  0  0  0
   20.2987  -11.1512  -16.0450 C   0  0  0  0  0  0  0  0  0  0  0  0
   19.7732  -11.3983  -14.9022 O   0  0  0  0  0  0  0  0  0  0  0  0
   21.0539   -9.9529  -16.1270 N   0  0  0  0  0  0  0  0  0  0  0  0
   21.2411   -9.0788  -14.9819 C   0  0  1  0  0  0  0  0  0  0  0  0
   22.0234   -9.8258  -13.8952 C   0  0  0  0  0  0  0  0  0  0  0  0
   23.6362  -10.3646  -14.5302 S   0  0  0  0  0  0  0  0  0  0  0  0
   21.9256   -7.8275  -15.3557 C   0  0  0  0  0  0  0  0  0  0  0  0
   22.8363   -7.6993  -16.1886 O   0  0  0  0  0  0  0  0  0  0  0  0
   21.5094   -6.6067  -14.6958 N   0  0  0  0  0  0  0  0  0  0  0  0
   22.1102   -5.3275  -15.0326 C   0  0  1  0  0  0  0  0  0  0  0  0
   20.9928   -4.4535  -15.5705 C   0  0  0  0  0  0  0  0  0  0  0  0
   20.5608   -4.8999  -16.9136 C   0  0  0  0  0  0  0  0  0  0  0  0
   21.3875   -5.1400  -17.9819 C   0  0  0  0  0  0  0  0  0  0  0  0
   20.6149   -5.5272  -19.0164 N   0  0  0  0  0  0  0  0  0  0  0  0
   19.3317   -5.5352  -18.6235 C   0  0  0  0  0  0  0  0  0  0  0  0
   19.3049   -5.1465  -17.3227 N   0  0  0  0  0  0  0  0  0  0  0  0
   22.5803   -4.6881  -13.7728 C   0  0  0  0  0  0  0  0  0  0  0  0
   22.3176   -5.3294  -12.5830 O   0  0  0  0  0  0  0  0  0  0  0  0
   23.2002   -3.5938  -13.7848 O   0  0  0  0  0  0  0  0  0  0  0  0
  2  1  1  1
  2 10  1  0
  3  2  1  0
  4  3  1  0
  4  9  1  0
  5  4  2  0
  6  5  1  0
  6  7  2  0
  7  8  1  0
  8  9  2  0
 10 11  2  0
 12 13  1  0
 12 10  1  0
 13 16  1  0
 14 15  1  0
 13 14  1  1
 16 17  2  0
 18 16  1  0
 18 19  1  0
 19 26  1  0
 19 20  1  1
 21 25  1  0
 21 20  1  0
 22 21  2  0
 23 22  1  0
 23 24  1  0
 24 25  2  0
 26 28  2  0
 26 27  1  0
M  END
$$$$
