FCH.pdb
     RDKit          3D

 28 29  0  0  1  0  0  0  0  0999 V2000
   23.1325  -15.6293  -16.6025 N   0  0  0  0  0  0  0  0  0  0  0  0
   23.9087  -16.4788  -17.5522 C   0  0  1  0  0  0  0  0  0  0  0  0
   24.4532  -15.5282  -18.5423 C   0  0  0  0  0  0  0  0  0  0  0  0
   23.5474  -14.9131  -19.4923 C   0  0  0  0  0  0  0  0  0  0  0  0
   23.3770  -13.5479  -19.5125 C   0  0  0  0  0  0  0  0  0  0  0  0
   22.5237  -12.9054  -20.3908 C   0  0  0  0  0  0  0  0  0  0  0  0
   21.8188  -13.6833  -21.2807 C   0  0  0  0  0  0  0  0  0  0  0  0
   21.9695  -15.0480  -21.2829 C   0  0  0  0  0  0  0  0  0  0  0  0
   22.8261  -15.6482  -20.3954 C   0  0  0  0  0  0  0  0  0  0  0  0
   24.8314  -17.2447  -16.7358 C   0  0  0  0  0  0  0  0  0  0  0  0
   25.1781  -16.8774  -15.5576 O   0  0  0  0  0  0  0  0  0  0  0  0
   25.4060  -18.4581  -17.1944 N   0  0  0  0  0  0  0  0  0  0  0  0
   26.3302  -19.2300  -16.3815 C   0  0  1  0  0  0  0  0  0  0  0  0
   25.6480  -19.6147  -15.0634 C   0  0  0  0  0  0  0  0  0  0  0  0
   24.0588  -20.4304  -15.3850 S   0  0  0  0  0  0  0  0  0  0  0  0
   26.8136  -20.4281  -17.0921 C   0  0  0  0  0  0  0  0  0  0  0  0
   26.1451  -21.1830  -17.8151 O   0  0  0  0  0  0  0  0  0  0  0  0
   28.2110  -20.7817  -16.9470 N   0  0  0  0  0  0  0  0  0  0  0  0
   28.7586  -21.9628  -17.5919 C   0  0  1  0  0  0  0  0  0  0  0  0
   30.2648  -21.7822  -17.6172 C   0  0  0  0  0  0  0  0  0  0  0  0
   30.9345  -22.9425  -18.2457 C   0  0  0  0  0  0  0  0  0  0  0  0
   31.1085  -23.1333  -19.5932 C   0  0  0  0  0  0  0  0  0  0  0  0
   31.7592  -24.3022  -19.7588 N   0  0  0  0  0  0  0  0  0  0  0  0
   31.9952  -24.8446  -18.5542 C   0  0  0  0  0  0  0  0  0  0  0  0
   31.4830  -23.9993  -17.6231 N   0  0  0  0  0  0  0  0  0  0  0  0
   28.4866  -23.1380  -16.7191 C   0  0  0  0  0  0  0  0  0  0  0  0
   27.9171  -22.9118  -15.4860 O   0  0  0  0  0  0  0  0  0  0  0  0
   28.7654  -24.3074  -17.0885 O   0  0  0  0  0  0  0  0  0  0  0  0
  2  1  1  1
  2 10  1  0
  3  2  1  0
  4  3  1  0
  4  9  1  0
  5  4  2  0
  6  5  1  0
  6  7  2  0
  7  8  1  0
  8  9  2  0
 10 11  2  0
 12 13  1  0
 12 10  1  0
 13 16  1  0
 14 15  1  0
 13 14  1  1
 16 17  2  0
 18 16  1  0
 18 19  1  0
 19 26  1  0
 19 20  1  1
 21 25  1  0
 21 20  1  0
 22 21  2  0
 23 22  1  0
 23 24  1  0
 24 25  2  0
 26 28  2  0
 26 27  1  0
M  END
$$$$
