FCH.pdb
     RDKit          3D

 28 29  0  0  1  0  0  0  0  0999 V2000
   24.2253  -11.7079  -21.9121 N   0  0  0  0  0  0  0  0  0  0  0  0
   23.3281  -11.6115  -20.7239 C   0  0  1  0  0  0  0  0  0  0  0  0
   23.8841  -12.5802  -19.7581 C   0  0  0  0  0  0  0  0  0  0  0  0
   23.7987  -13.9954  -20.0598 C   0  0  0  0  0  0  0  0  0  0  0  0
   22.6026  -14.6649  -19.9397 C   0  0  0  0  0  0  0  0  0  0  0  0
   22.4612  -16.0141  -20.2077 C   0  0  0  0  0  0  0  0  0  0  0  0
   23.5799  -16.7056  -20.6130 C   0  0  0  0  0  0  0  0  0  0  0  0
   24.7864  -16.0628  -20.7416 C   0  0  0  0  0  0  0  0  0  0  0  0
   24.8861  -14.7227  -20.4661 C   0  0  0  0  0  0  0  0  0  0  0  0
   23.2944  -10.2061  -20.3656 C   0  0  0  0  0  0  0  0  0  0  0  0
   24.0557   -9.3351  -20.9179 O   0  0  0  0  0  0  0  0  0  0  0  0
   22.4064   -9.7070  -19.3781 N   0  0  0  0  0  0  0  0  0  0  0  0
   22.3262   -8.2925  -19.0564 C   0  0  1  0  0  0  0  0  0  0  0  0
   22.0616   -7.4943  -20.3384 C   0  0  0  0  0  0  0  0  0  0  0  0
   20.6754   -8.2161  -21.2615 S   0  0  0  0  0  0  0  0  0  0  0  0
   21.2890   -8.0203  -18.0444 C   0  0  0  0  0  0  0  0  0  0  0  0
   20.1020   -8.3793  -18.0823 O   0  0  0  0  0  0  0  0  0  0  0  0
   21.6709   -7.2557  -16.8745 N   0  0  0  0  0  0  0  0  0  0  0  0
   20.7068   -6.9417  -15.8339 C   0  0  1  0  0  0  0  0  0  0  0  0
   21.4379   -7.0798  -14.5116 C   0  0  0  0  0  0  0  0  0  0  0  0
   21.7031   -8.4997  -14.1902 C   0  0  0  0  0  0  0  0  0  0  0  0
   21.3600   -9.5749  -14.9705 C   0  0  0  0  0  0  0  0  0  0  0  0
   21.7725  -10.6890  -14.3336 N   0  0  0  0  0  0  0  0  0  0  0  0
   22.3623  -10.3391  -13.1800 C   0  0  0  0  0  0  0  0  0  0  0  0
   22.3161   -8.9844  -13.0973 N   0  0  0  0  0  0  0  0  0  0  0  0
   20.3324   -5.5066  -15.9641 C   0  0  0  0  0  0  0  0  0  0  0  0
   19.3936   -4.9998  -15.0936 O   0  0  0  0  0  0  0  0  0  0  0  0
   20.8532   -4.7703  -16.8408 O   0  0  0  0  0  0  0  0  0  0  0  0
  2  1  1  6
  2 10  1  0
  3  2  1  0
  4  3  1  0
  4  9  1  0
  5  4  2  0
  6  5  1  0
  6  7  2  0
  7  8  1  0
  8  9  2  0
 10 11  2  0
 12 13  1  0
 12 10  1  0
 13 16  1  0
 14 15  1  0
 13 14  1  6
 16 17  2  0
 18 16  1  0
 18 19  1  0
 19 26  1  0
 19 20  1  1
 21 25  1  0
 21 20  1  0
 22 21  2  0
 23 22  1  0
 23 24  1  0
 24 25  2  0
 26 28  2  0
 26 27  1  0
M  END
$$$$
