FNT.pdb
     RDKit          3D

 27 27  0  0  1  0  0  0  0  0999 V2000
   27.6184  -21.2236   -8.4010 N   0  0  0  0  0  0  0  0  0  0  0  0
   26.5081  -20.3184   -8.2321 C   0  0  1  0  0  0  0  0  0  0  0  0
   26.8705  -19.0858   -7.4708 C   0  0  0  0  0  0  0  0  0  0  0  0
   27.6972  -19.4714   -6.3037 C   0  0  0  0  0  0  0  0  0  0  0  0
   29.0487  -19.2233   -6.2475 C   0  0  0  0  0  0  0  0  0  0  0  0
   29.7818  -19.5978   -5.1440 C   0  0  0  0  0  0  0  0  0  0  0  0
   29.1943  -20.2218   -4.0813 C   0  0  0  0  0  0  0  0  0  0  0  0
   27.8388  -20.4753   -4.1275 C   0  0  0  0  0  0  0  0  0  0  0  0
   27.1012  -20.0983   -5.2379 C   0  0  0  0  0  0  0  0  0  0  0  0
   25.8587  -20.0777   -9.5239 C   0  0  0  0  0  0  0  0  0  0  0  0
   24.6855  -19.5757   -9.5786 O   0  0  0  0  0  0  0  0  0  0  0  0
   27.8264  -21.9729  -12.0156 N   0  0  0  0  0  0  0  0  0  0  0  0
   27.9914  -20.9272  -12.9547 C   0  0  0  0  0  0  0  0  0  0  0  0
   28.9685  -21.0164  -13.7529 O   0  0  0  0  0  0  0  0  0  0  0  0
   27.0864  -19.7856  -13.0183 C   0  0  0  0  0  0  0  0  0  0  0  0
   25.9307  -19.8965  -12.0365 C   0  0  2  0  0  0  0  0  0  0  0  0
   26.4667  -20.3758  -10.7786 N   0  0  0  0  0  0  0  0  0  0  0  0
   24.8421  -20.7521  -12.5423 C   0  0  0  0  0  0  0  0  0  0  0  0
   25.0047  -22.0148  -12.6215 O   0  0  0  0  0  0  0  0  0  0  0  0
   21.7205  -21.6710  -11.2246 C   0  0  0  0  0  0  0  0  0  0  0  0
   21.3590  -20.9751  -12.5352 C   0  0  1  0  0  0  0  0  0  0  0  0
   21.2810  -19.6017  -12.2121 O   0  0  0  0  0  0  0  0  0  0  0  0
   22.5209  -21.0963  -13.5004 C   0  0  2  0  0  0  0  0  0  0  0  0
   23.5836  -20.2626  -12.9623 N   0  0  0  0  0  0  0  0  0  0  0  0
   22.0656  -20.5912  -14.8254 C   0  0  0  0  0  0  0  0  0  0  0  0
   22.5691  -19.5273  -15.2691 O   0  0  0  0  0  0  0  0  0  0  0  0
   21.1113  -21.2798  -15.5470 O   0  0  0  0  0  0  0  0  0  0  0  0
  2  1  1  6
  3  2  1  0
  4  5  2  0
  4  3  1  0
  6  5  1  0
  7  6  2  0
  8  7  1  0
  8  9  2  0
  9  4  1  0
 10  2  1  0
 11 10  2  0
 13 12  1  0
 14 13  2  0
 15 13  1  0
 16 15  1  6
 16 17  1  0
 17 10  1  0
 18 19  2  0
 18 16  1  0
 21 20  1  1
 21 23  1  0
 22 21  1  0
 23 24  1  1
 24 18  1  0
 25 23  1  0
 26 25  2  0
 27 25  1  0
M  END
$$$$
