FNT.pdb
     RDKit          3D

 27 27  0  0  1  0  0  0  0  0999 V2000
   31.6821  -35.1527   -7.1638 N   0  0  0  0  0  0  0  0  0  0  0  0
   32.2433  -34.3731   -6.0877 C   0  0  1  0  0  0  0  0  0  0  0  0
   31.4557  -33.1403   -5.7877 C   0  0  0  0  0  0  0  0  0  0  0  0
   31.4839  -32.2551   -6.9750 C   0  0  0  0  0  0  0  0  0  0  0  0
   32.6512  -31.7102   -7.4567 C   0  0  0  0  0  0  0  0  0  0  0  0
   32.6346  -30.8916   -8.5636 C   0  0  0  0  0  0  0  0  0  0  0  0
   31.4689  -30.5983   -9.2108 C   0  0  0  0  0  0  0  0  0  0  0  0
   30.2922  -31.1400   -8.7357 C   0  0  0  0  0  0  0  0  0  0  0  0
   30.3089  -31.9637   -7.6220 C   0  0  0  0  0  0  0  0  0  0  0  0
   32.5064  -35.2344   -4.9312 C   0  0  0  0  0  0  0  0  0  0  0  0
   31.7852  -36.2653   -4.7105 O   0  0  0  0  0  0  0  0  0  0  0  0
   36.0863  -35.8755    0.0178 N   0  0  0  0  0  0  0  0  0  0  0  0
   35.5086  -36.3968   -1.1643 C   0  0  0  0  0  0  0  0  0  0  0  0
   35.3043  -37.6443   -1.2060 O   0  0  0  0  0  0  0  0  0  0  0  0
   35.1558  -35.5512   -2.2987 C   0  0  0  0  0  0  0  0  0  0  0  0
   33.7562  -35.8277   -2.8249 C   0  0  2  0  0  0  0  0  0  0  0  0
   33.5535  -34.9955   -3.9936 N   0  0  0  0  0  0  0  0  0  0  0  0
   32.7174  -35.6154   -1.8007 C   0  0  0  0  0  0  0  0  0  0  0  0
   32.3498  -34.4322   -1.4977 O   0  0  0  0  0  0  0  0  0  0  0  0
   31.4181  -38.7579    0.8039 C   0  0  0  0  0  0  0  0  0  0  0  0
   30.4155  -37.8023    0.1603 C   0  0  1  0  0  0  0  0  0  0  0  0
   29.4336  -37.5784    1.1514 O   0  0  0  0  0  0  0  0  0  0  0  0
   31.0794  -36.4580   -0.0597 C   0  0  2  0  0  0  0  0  0  0  0  0
   32.0724  -36.6621   -1.1020 N   0  0  0  0  0  0  0  0  0  0  0  0
   31.7250  -36.0550    1.2205 C   0  0  0  0  0  0  0  0  0  0  0  0
   31.0044  -35.5735    2.1322 O   0  0  0  0  0  0  0  0  0  0  0  0
   33.0854  -36.2088    1.3975 O   0  0  0  0  0  0  0  0  0  0  0  0
  2  1  1  6
  3  2  1  0
  4  5  2  0
  4  3  1  0
  6  5  1  0
  7  6  2  0
  8  7  1  0
  8  9  2  0
  9  4  1  0
 10  2  1  0
 11 10  2  0
 13 12  1  0
 14 13  2  0
 15 13  1  0
 16 15  1  1
 16 17  1  0
 17 10  1  0
 18 19  2  0
 18 16  1  0
 21 20  1  1
 21 23  1  0
 22 21  1  0
 23 24  1  6
 24 18  1  0
 25 23  1  0
 26 25  2  0
 27 25  1  0
M  END
$$$$
