FNT.pdb
     RDKit          3D

 27 27  0  0  1  0  0  0  0  0999 V2000
   27.9054  -20.9071  -14.0149 N   0  0  0  0  0  0  0  0  0  0  0  0
   26.8991  -20.7622  -12.9917 C   0  0  1  0  0  0  0  0  0  0  0  0
   27.3680  -19.9625  -11.8209 C   0  0  0  0  0  0  0  0  0  0  0  0
   28.5744  -20.6084  -11.2539 C   0  0  0  0  0  0  0  0  0  0  0  0
   29.7975  -20.5574  -11.8807 C   0  0  0  0  0  0  0  0  0  0  0  0
   30.8951  -21.1714  -11.3203 C   0  0  0  0  0  0  0  0  0  0  0  0
   30.8032  -21.8440  -10.1359 C   0  0  0  0  0  0  0  0  0  0  0  0
   29.5806  -21.9012   -9.4988 C   0  0  0  0  0  0  0  0  0  0  0  0
   28.4763  -21.2832  -10.0626 C   0  0  0  0  0  0  0  0  0  0  0  0
   25.6417  -20.3034  -13.5889 C   0  0  0  0  0  0  0  0  0  0  0  0
   25.6350  -19.3493  -14.4382 O   0  0  0  0  0  0  0  0  0  0  0  0
   21.6922  -18.7995  -16.0866 N   0  0  0  0  0  0  0  0  0  0  0  0
   22.1726  -20.1275  -16.1792 C   0  0  0  0  0  0  0  0  0  0  0  0
   21.5573  -20.9114  -16.9580 O   0  0  0  0  0  0  0  0  0  0  0  0
   23.3258  -20.5947  -15.4189 C   0  0  0  0  0  0  0  0  0  0  0  0
   23.1463  -20.4296  -13.9181 C   0  0  2  0  0  0  0  0  0  0  0  0
   24.3701  -20.8681  -13.2779 N   0  0  0  0  0  0  0  0  0  0  0  0
   21.9624  -21.1462  -13.4103 C   0  0  0  0  0  0  0  0  0  0  0  0
   21.8661  -22.4093  -13.5592 O   0  0  0  0  0  0  0  0  0  0  0  0
   20.7241  -21.1344   -9.9900 C   0  0  0  0  0  0  0  0  0  0  0  0
   19.5059  -20.7462  -10.8254 C   0  0  1  0  0  0  0  0  0  0  0  0
   19.5381  -19.3349  -10.8876 O   0  0  0  0  0  0  0  0  0  0  0  0
   19.7094  -21.2170  -12.2513 C   0  0  2  0  0  0  0  0  0  0  0  0
   20.8842  -20.5173  -12.7453 N   0  0  0  0  0  0  0  0  0  0  0  0
   18.4975  -20.8413  -13.0312 C   0  0  0  0  0  0  0  0  0  0  0  0
   18.6041  -19.9578  -13.9203 O   0  0  0  0  0  0  0  0  0  0  0  0
   17.2857  -21.4527  -12.7798 O   0  0  0  0  0  0  0  0  0  0  0  0
  2  1  1  6
  3  2  1  0
  4  5  2  0
  4  3  1  0
  6  5  1  0
  7  6  2  0
  8  7  1  0
  8  9  2  0
  9  4  1  0
 10  2  1  0
 11 10  2  0
 13 12  1  0
 14 13  2  0
 15 13  1  0
 16 15  1  6
 16 17  1  0
 17 10  1  0
 18 19  2  0
 18 16  1  0
 21 20  1  1
 21 23  1  0
 22 21  1  0
 23 24  1  6
 24 18  1  0
 25 23  1  0
 26 25  2  0
 27 25  1  0
M  END
$$$$
