PHH.pdb
     RDKit          3D

 28 30  0  0  1  0  0  0  0  0999 V2000
    8.9156  -19.0303   20.5995 N   0  0  0  0  0  0  0  0  0  0  0  0
    8.7283  -20.2459   19.8126 C   0  0  0  0  0  0  0  0  0  0  0  0
    9.1657  -19.9333   18.4171 C   0  0  0  0  0  0  0  0  0  0  0  0
    9.6613  -18.4862   18.4962 C   0  0  0  0  0  0  0  0  0  0  0  0
   10.0461  -18.4166   19.9720 C   0  0  1  0  0  0  0  0  0  0  0  0
   10.2591  -17.0141   20.4120 C   0  0  0  0  0  0  0  0  0  0  0  0
   11.3570  -16.4614   20.2576 O   0  0  0  0  0  0  0  0  0  0  0  0
    9.1704  -16.3248   21.0140 N   0  0  0  0  0  0  0  0  0  0  0  0
    9.3233  -15.0211   21.6282 C   0  0  1  0  0  0  0  0  0  0  0  0
    8.1990  -14.1294   21.1894 C   0  0  0  0  0  0  0  0  0  0  0  0
    8.1713  -13.8813   19.7407 C   0  0  0  0  0  0  0  0  0  0  0  0
    9.1622  -14.3334   18.8831 C   0  0  0  0  0  0  0  0  0  0  0  0
    8.8555  -13.9508   17.6312 N   0  0  0  0  0  0  0  0  0  0  0  0
    7.6958  -13.2691   17.6806 C   0  0  0  0  0  0  0  0  0  0  0  0
    7.3009  -13.2383   18.9562 N   0  0  0  0  0  0  0  0  0  0  0  0
    9.3981  -15.1399   23.1041 C   0  0  0  0  0  0  0  0  0  0  0  0
    9.4698  -14.0857   23.7799 O   0  0  0  0  0  0  0  0  0  0  0  0
    9.3905  -16.3960   23.7572 N   0  0  0  0  0  0  0  0  0  0  0  0
    9.4338  -16.3681   25.2373 C   0  0  1  0  0  0  0  0  0  0  0  0
    8.0269  -16.4010   25.7700 C   0  0  0  0  0  0  0  0  0  0  0  0
    7.4766  -15.0410   25.8855 C   0  0  0  0  0  0  0  0  0  0  0  0
    8.2182  -13.8934   26.1615 C   0  0  0  0  0  0  0  0  0  0  0  0
    7.3969  -12.8343   26.1933 N   0  0  0  0  0  0  0  0  0  0  0  0
    6.1568  -13.2822   25.9449 C   0  0  0  0  0  0  0  0  0  0  0  0
    6.2144  -14.6087   25.7613 N   0  0  0  0  0  0  0  0  0  0  0  0
   10.1181  -17.6168   25.6165 C   0  0  0  0  0  0  0  0  0  0  0  0
   10.3457  -17.8973   26.9592 O   0  0  0  0  0  0  0  0  0  0  0  0
   10.5099  -18.4486   24.7761 O   0  0  0  0  0  0  0  0  0  0  0  0
  1  5  1  0
  2  3  1  0
  2  1  1  0
  3  4  1  0
  4  5  1  0
  5  6  1  1
  6  7  2  0
  8  9  1  0
  8  6  1  0
  9 16  1  0
  9 10  1  1
 11 10  1  0
 11 15  1  0
 12 13  1  0
 12 11  2  0
 13 14  1  0
 14 15  2  0
 16 18  1  0
 16 17  2  0
 18 19  1  0
 19 26  1  0
 19 20  1  1
 21 20  1  0
 21 22  2  0
 23 22  1  0
 24 25  2  0
 24 23  1  0
 25 21  1  0
 26 28  2  0
 26 27  1  0
M  END
$$$$
