PHH.pdb
     RDKit          3D

 28 30  0  0  1  0  0  0  0  0999 V2000
    9.1021  -13.9678   18.4001 N   0  0  0  0  0  0  0  0  0  0  0  0
    8.4332  -12.8521   17.7371 C   0  0  0  0  0  0  0  0  0  0  0  0
    7.0342  -12.8078   18.2636 C   0  0  0  0  0  0  0  0  0  0  0  0
    6.9901  -13.9326   19.3023 C   0  0  0  0  0  0  0  0  0  0  0  0
    8.4671  -14.0024   19.6823 C   0  0  1  0  0  0  0  0  0  0  0  0
    8.7737  -15.2398   20.4445 C   0  0  0  0  0  0  0  0  0  0  0  0
    8.1083  -15.5508   21.4420 O   0  0  0  0  0  0  0  0  0  0  0  0
    9.8499  -16.0558   19.9986 N   0  0  0  0  0  0  0  0  0  0  0  0
   10.2375  -17.2710   20.6866 C   0  0  1  0  0  0  0  0  0  0  0  0
   10.8860  -18.2094   19.7116 C   0  0  0  0  0  0  0  0  0  0  0  0
   10.0197  -18.5830   18.5843 C   0  0  0  0  0  0  0  0  0  0  0  0
    9.0917  -19.6102   18.6595 C   0  0  0  0  0  0  0  0  0  0  0  0
    8.4597  -19.7068   17.4767 N   0  0  0  0  0  0  0  0  0  0  0  0
    8.9676  -18.7655   16.6595 C   0  0  0  0  0  0  0  0  0  0  0  0
    9.9032  -18.1010   17.3430 N   0  0  0  0  0  0  0  0  0  0  0  0
   11.1195  -16.9655   21.8383 C   0  0  0  0  0  0  0  0  0  0  0  0
   12.2556  -16.4882   21.6037 O   0  0  0  0  0  0  0  0  0  0  0  0
   10.7151  -17.1966   23.1753 N   0  0  0  0  0  0  0  0  0  0  0  0
   11.6763  -16.8021   24.2308 C   0  0  1  0  0  0  0  0  0  0  0  0
   11.0171  -15.8081   25.1482 C   0  0  0  0  0  0  0  0  0  0  0  0
    9.5963  -16.1367   25.3458 C   0  0  0  0  0  0  0  0  0  0  0  0
    9.0721  -16.8125   26.4465 C   0  0  0  0  0  0  0  0  0  0  0  0
    7.7459  -16.9387   26.2962 N   0  0  0  0  0  0  0  0  0  0  0  0
    7.4186  -16.3608   25.1304 C   0  0  0  0  0  0  0  0  0  0  0  0
    8.5365  -15.8819   24.5666 N   0  0  0  0  0  0  0  0  0  0  0  0
   11.9406  -18.0428   24.9806 C   0  0  0  0  0  0  0  0  0  0  0  0
   12.9388  -18.0635   25.9482 O   0  0  0  0  0  0  0  0  0  0  0  0
   11.3008  -19.0936   24.7852 O   0  0  0  0  0  0  0  0  0  0  0  0
  1  5  1  0
  2  3  1  0
  2  1  1  0
  3  4  1  0
  4  5  1  0
  5  6  1  6
  6  7  2  0
  8  9  1  0
  8  6  1  0
  9 16  1  0
  9 10  1  6
 11 10  1  0
 11 15  1  0
 12 13  1  0
 12 11  2  0
 13 14  1  0
 14 15  2  0
 16 18  1  0
 16 17  2  0
 18 19  1  0
 19 26  1  0
 19 20  1  1
 21 20  1  0
 21 22  2  0
 23 22  1  0
 24 25  2  0
 24 23  1  0
 25 21  1  0
 26 28  2  0
 26 27  1  0
M  END
$$$$
