PHH.pdb
     RDKit          3D

 28 30  0  0  1  0  0  0  0  0999 V2000
    9.3398  -14.2531   18.9376 N   0  0  0  0  0  0  0  0  0  0  0  0
    9.0408  -13.2367   17.9329 C   0  0  0  0  0  0  0  0  0  0  0  0
    7.6224  -12.8149   18.1484 C   0  0  0  0  0  0  0  0  0  0  0  0
    7.1751  -13.6198   19.3725 C   0  0  0  0  0  0  0  0  0  0  0  0
    8.5255  -13.8544   20.0450 C   0  0  1  0  0  0  0  0  0  0  0  0
    8.4335  -14.8975   21.0983 C   0  0  0  0  0  0  0  0  0  0  0  0
    7.6104  -14.7979   22.0186 O   0  0  0  0  0  0  0  0  0  0  0  0
    9.3146  -16.0114   21.0213 N   0  0  0  0  0  0  0  0  0  0  0  0
    9.2279  -17.1326   21.9355 C   0  0  1  0  0  0  0  0  0  0  0  0
   10.0436  -18.2735   21.4023 C   0  0  0  0  0  0  0  0  0  0  0  0
    9.5045  -18.8600   20.1668 C   0  0  0  0  0  0  0  0  0  0  0  0
    8.2316  -19.4034   20.0876 C   0  0  0  0  0  0  0  0  0  0  0  0
    8.0334  -19.8551   18.8367 N   0  0  0  0  0  0  0  0  0  0  0  0
    9.1507  -19.6090   18.1275 C   0  0  0  0  0  0  0  0  0  0  0  0
   10.0224  -19.0109   18.9439 N   0  0  0  0  0  0  0  0  0  0  0  0
    9.6504  -16.7337   23.2994 C   0  0  0  0  0  0  0  0  0  0  0  0
   10.7123  -16.0772   23.4218 O   0  0  0  0  0  0  0  0  0  0  0  0
    8.8948  -17.0714   24.4481 N   0  0  0  0  0  0  0  0  0  0  0  0
    9.4327  -16.6097   25.7484 C   0  0  1  0  0  0  0  0  0  0  0  0
    8.2891  -16.1869   26.6302 C   0  0  0  0  0  0  0  0  0  0  0  0
    7.7664  -14.8739   26.2199 C   0  0  0  0  0  0  0  0  0  0  0  0
    8.3519  -14.0346   25.2734 C   0  0  0  0  0  0  0  0  0  0  0  0
    7.6105  -12.9245   25.1493 N   0  0  0  0  0  0  0  0  0  0  0  0
    6.5727  -13.0403   25.9918 C   0  0  0  0  0  0  0  0  0  0  0  0
    6.6748  -14.2144   26.6306 N   0  0  0  0  0  0  0  0  0  0  0  0
   10.0733  -17.8006   26.3339 C   0  0  0  0  0  0  0  0  0  0  0  0
   10.1232  -18.9841   25.6058 O   0  0  0  0  0  0  0  0  0  0  0  0
   10.5816  -17.7978   27.4711 O   0  0  0  0  0  0  0  0  0  0  0  0
  1  5  1  0
  2  3  1  0
  2  1  1  0
  3  4  1  0
  4  5  1  0
  5  6  1  1
  6  7  2  0
  8  9  1  0
  8  6  1  0
  9 16  1  0
  9 10  1  6
 11 10  1  0
 11 15  1  0
 12 13  1  0
 12 11  2  0
 13 14  1  0
 14 15  2  0
 16 18  1  0
 16 17  2  0
 18 19  1  0
 19 26  1  0
 19 20  1  1
 21 20  1  0
 21 22  2  0
 23 22  1  0
 24 25  2  0
 24 23  1  0
 25 21  1  0
 26 28  2  0
 26 27  1  0
M  END
$$$$
