PHH.pdb
     RDKit          3D

 28 30  0  0  1  0  0  0  0  0999 V2000
    9.3299  -14.1968   19.8588 N   0  0  0  0  0  0  0  0  0  0  0  0
    9.0986  -13.2565   18.7661 C   0  0  0  0  0  0  0  0  0  0  0  0
    7.6385  -12.9332   18.7711 C   0  0  0  0  0  0  0  0  0  0  0  0
    7.0882  -13.7087   19.9719 C   0  0  0  0  0  0  0  0  0  0  0  0
    8.3497  -13.8071   20.8262 C   0  0  1  0  0  0  0  0  0  0  0  0
    8.1898  -14.8014   21.9180 C   0  0  0  0  0  0  0  0  0  0  0  0
    7.2105  -14.7588   22.6754 O   0  0  0  0  0  0  0  0  0  0  0  0
    9.1897  -15.8014   22.0695 N   0  0  0  0  0  0  0  0  0  0  0  0
    9.1035  -16.8365   23.0801 C   0  0  1  0  0  0  0  0  0  0  0  0
    9.9417  -18.0094   22.6637 C   0  0  0  0  0  0  0  0  0  0  0  0
    9.4923  -18.6450   21.4168 C   0  0  0  0  0  0  0  0  0  0  0  0
    8.2695  -19.2878   21.3008 C   0  0  0  0  0  0  0  0  0  0  0  0
    8.1497  -19.7624   20.0484 N   0  0  0  0  0  0  0  0  0  0  0  0
    9.2674  -19.4337   19.3741 C   0  0  0  0  0  0  0  0  0  0  0  0
   10.0614  -18.7630   20.2131 N   0  0  0  0  0  0  0  0  0  0  0  0
    9.5003  -16.3101   24.4080 C   0  0  0  0  0  0  0  0  0  0  0  0
   10.5293  -15.5963   24.4784 O   0  0  0  0  0  0  0  0  0  0  0  0
    8.7562  -16.5905   25.5794 N   0  0  0  0  0  0  0  0  0  0  0  0
    9.2054  -15.9188   26.8206 C   0  0  1  0  0  0  0  0  0  0  0  0
    8.0131  -15.3113   27.5088 C   0  0  0  0  0  0  0  0  0  0  0  0
    7.4297  -14.2325   26.6955 C   0  0  0  0  0  0  0  0  0  0  0  0
    7.7362  -12.8779   26.8162 C   0  0  0  0  0  0  0  0  0  0  0  0
    7.0219  -12.1824   25.9201 N   0  0  0  0  0  0  0  0  0  0  0  0
    6.2727  -13.0610   25.2368 C   0  0  0  0  0  0  0  0  0  0  0  0
    6.5243  -14.2898   25.7095 N   0  0  0  0  0  0  0  0  0  0  0  0
    9.7418  -17.0034   27.6614 C   0  0  0  0  0  0  0  0  0  0  0  0
   10.2398  -16.7123   28.9265 O   0  0  0  0  0  0  0  0  0  0  0  0
    9.7711  -18.1908   27.2861 O   0  0  0  0  0  0  0  0  0  0  0  0
  1  5  1  0
  2  3  1  0
  2  1  1  0
  3  4  1  0
  4  5  1  0
  5  6  1  1
  6  7  2  0
  8  9  1  0
  8  6  1  0
  9 16  1  0
  9 10  1  6
 11 10  1  0
 11 15  1  0
 12 13  1  0
 12 11  2  0
 13 14  1  0
 14 15  2  0
 16 18  1  0
 16 17  2  0
 18 19  1  0
 19 26  1  0
 19 20  1  1
 21 20  1  0
 21 22  2  0
 23 22  1  0
 24 25  2  0
 24 23  1  0
 25 21  1  0
 26 28  2  0
 26 27  1  0
M  END
$$$$
