PHH.pdb
     RDKit          3D

 28 30  0  0  1  0  0  0  0  0999 V2000
    9.6115  -12.8074   18.5353 N   0  0  0  0  0  0  0  0  0  0  0  0
    8.3115  -12.1871   18.2964 C   0  0  0  0  0  0  0  0  0  0  0  0
    7.2845  -13.2675   18.4161 C   0  0  0  0  0  0  0  0  0  0  0  0
    8.0937  -14.5119   18.7940 C   0  0  0  0  0  0  0  0  0  0  0  0
    9.2991  -13.8536   19.4606 C   0  0  1  0  0  0  0  0  0  0  0  0
   10.4147  -14.8178   19.6391 C   0  0  0  0  0  0  0  0  0  0  0  0
   10.2233  -15.9150   20.1813 O   0  0  0  0  0  0  0  0  0  0  0  0
   11.7058  -14.4475   19.1713 N   0  0  0  0  0  0  0  0  0  0  0  0
   12.8533  -15.3249   19.2880 C   0  0  1  0  0  0  0  0  0  0  0  0
   13.9442  -14.8410   18.3784 C   0  0  0  0  0  0  0  0  0  0  0  0
   13.8556  -15.3751   17.0117 C   0  0  0  0  0  0  0  0  0  0  0  0
   13.3070  -16.6156   16.7251 C   0  0  0  0  0  0  0  0  0  0  0  0
   13.3697  -16.8177   15.3973 N   0  0  0  0  0  0  0  0  0  0  0  0
   13.9443  -15.7345   14.8419 C   0  0  0  0  0  0  0  0  0  0  0  0
   14.2288  -14.8794   15.8278 N   0  0  0  0  0  0  0  0  0  0  0  0
   13.3027  -15.4193   20.6976 C   0  0  0  0  0  0  0  0  0  0  0  0
   13.6354  -14.3620   21.2849 O   0  0  0  0  0  0  0  0  0  0  0  0
   13.3639  -16.6557   21.3847 N   0  0  0  0  0  0  0  0  0  0  0  0
   13.6298  -16.5870   22.8400 C   0  0  1  0  0  0  0  0  0  0  0  0
   12.7774  -17.6083   23.5433 C   0  0  0  0  0  0  0  0  0  0  0  0
   11.3511  -17.2588   23.4472 C   0  0  0  0  0  0  0  0  0  0  0  0
   10.7915  -16.0451   23.8433 C   0  0  0  0  0  0  0  0  0  0  0  0
    9.4711  -16.0721   23.6131 N   0  0  0  0  0  0  0  0  0  0  0  0
    9.1819  -17.2699   23.0824 C   0  0  0  0  0  0  0  0  0  0  0  0
   10.3173  -17.9759   22.9866 N   0  0  0  0  0  0  0  0  0  0  0  0
   15.0464  -16.9673   22.9812 C   0  0  0  0  0  0  0  0  0  0  0  0
   15.6489  -16.9272   24.2337 O   0  0  0  0  0  0  0  0  0  0  0  0
   15.7430  -17.3295   22.0142 O   0  0  0  0  0  0  0  0  0  0  0  0
  1  5  1  0
  2  3  1  0
  2  1  1  0
  3  4  1  0
  4  5  1  0
  5  6  1  6
  6  7  2  0
  8  9  1  0
  8  6  1  0
  9 16  1  0
  9 10  1  6
 11 10  1  0
 11 15  1  0
 12 13  1  0
 12 11  2  0
 13 14  1  0
 14 15  2  0
 16 18  1  0
 16 17  2  0
 18 19  1  0
 19 26  1  0
 19 20  1  1
 21 20  1  0
 21 22  2  0
 23 22  1  0
 24 25  2  0
 24 23  1  0
 25 21  1  0
 26 28  2  0
 26 27  1  0
M  END
$$$$
