PHH.pdb
     RDKit          3D

 28 30  0  0  1  0  0  0  0  0999 V2000
    9.4044  -14.3904   19.0689 N   0  0  0  0  0  0  0  0  0  0  0  0
    9.2751  -13.4290   17.9777 C   0  0  0  0  0  0  0  0  0  0  0  0
    7.8687  -12.9217   18.0083 C   0  0  0  0  0  0  0  0  0  0  0  0
    7.2460  -13.6196   19.2212 C   0  0  0  0  0  0  0  0  0  0  0  0
    8.5001  -13.8779   20.0528 C   0  0  1  0  0  0  0  0  0  0  0  0
    8.2346  -14.8428   21.1503 C   0  0  0  0  0  0  0  0  0  0  0  0
    7.2729  -14.6839   21.9148 O   0  0  0  0  0  0  0  0  0  0  0  0
    9.1128  -15.9515   21.2990 N   0  0  0  0  0  0  0  0  0  0  0  0
    8.8893  -16.9904   22.2844 C   0  0  1  0  0  0  0  0  0  0  0  0
    9.6730  -18.2126   21.9054 C   0  0  0  0  0  0  0  0  0  0  0  0
    9.1060  -18.9498   20.7670 C   0  0  0  0  0  0  0  0  0  0  0  0
    7.7716  -18.8572   20.4030 C   0  0  0  0  0  0  0  0  0  0  0  0
    7.5619  -19.6428   19.3321 N   0  0  0  0  0  0  0  0  0  0  0  0
    8.7320  -20.2273   19.0140 C   0  0  0  0  0  0  0  0  0  0  0  0
    9.6471  -19.7984   19.8874 N   0  0  0  0  0  0  0  0  0  0  0  0
    9.2299  -16.5083   23.6443 C   0  0  0  0  0  0  0  0  0  0  0  0
   10.2523  -15.7944   23.7804 O   0  0  0  0  0  0  0  0  0  0  0  0
    8.4402  -16.8302   24.7744 N   0  0  0  0  0  0  0  0  0  0  0  0
    8.8999  -16.2887   26.0740 C   0  0  1  0  0  0  0  0  0  0  0  0
    7.7111  -15.7731   26.8390 C   0  0  0  0  0  0  0  0  0  0  0  0
    7.2944  -14.4542   26.3366 C   0  0  0  0  0  0  0  0  0  0  0  0
    7.9602  -13.7189   25.3572 C   0  0  0  0  0  0  0  0  0  0  0  0
    7.3043  -12.5687   25.1468 N   0  0  0  0  0  0  0  0  0  0  0  0
    6.2425  -12.5580   25.9668 C   0  0  0  0  0  0  0  0  0  0  0  0
    6.2447  -13.6945   26.6776 N   0  0  0  0  0  0  0  0  0  0  0  0
    9.4608  -17.4498   26.7872 C   0  0  0  0  0  0  0  0  0  0  0  0
   10.1372  -17.2602   27.9871 O   0  0  0  0  0  0  0  0  0  0  0  0
    9.3560  -18.6147   26.3586 O   0  0  0  0  0  0  0  0  0  0  0  0
  1  5  1  0
  2  3  1  0
  2  1  1  0
  3  4  1  0
  4  5  1  0
  5  6  1  1
  6  7  2  0
  8  9  1  0
  8  6  1  0
  9 16  1  0
  9 10  1  6
 11 10  1  0
 11 15  1  0
 12 13  1  0
 12 11  2  0
 13 14  1  0
 14 15  2  0
 16 18  1  0
 16 17  2  0
 18 19  1  0
 19 26  1  0
 19 20  1  1
 21 20  1  0
 21 22  2  0
 23 22  1  0
 24 25  2  0
 24 23  1  0
 25 21  1  0
 26 28  2  0
 26 27  1  0
M  END
$$$$
