PHH.pdb
     RDKit          3D

 28 30  0  0  1  0  0  0  0  0999 V2000
    9.3279  -12.8144   19.1335 N   0  0  0  0  0  0  0  0  0  0  0  0
    8.1001  -12.1207   18.7552 C   0  0  0  0  0  0  0  0  0  0  0  0
    7.5460  -12.8342   17.5635 C   0  0  0  0  0  0  0  0  0  0  0  0
    8.5137  -14.0008   17.3431 C   0  0  0  0  0  0  0  0  0  0  0  0
    9.0553  -14.1690   18.7606 C   0  0  1  0  0  0  0  0  0  0  0  0
   10.2671  -15.0277   18.7804 C   0  0  0  0  0  0  0  0  0  0  0  0
   10.1829  -16.2473   18.5806 O   0  0  0  0  0  0  0  0  0  0  0  0
   11.5240  -14.4124   19.0346 N   0  0  0  0  0  0  0  0  0  0  0  0
   12.7710  -15.1493   18.9876 C   0  0  1  0  0  0  0  0  0  0  0  0
   13.7684  -14.3874   18.1651 C   0  0  0  0  0  0  0  0  0  0  0  0
   14.0184  -14.9774   16.8421 C   0  0  0  0  0  0  0  0  0  0  0  0
   13.5753  -16.2426   16.4890 C   0  0  0  0  0  0  0  0  0  0  0  0
   13.9573  -16.4953   15.2248 N   0  0  0  0  0  0  0  0  0  0  0  0
   14.6299  -15.4198   14.7744 C   0  0  0  0  0  0  0  0  0  0  0  0
   14.6558  -14.5190   15.7603 N   0  0  0  0  0  0  0  0  0  0  0  0
   13.2708  -15.4263   20.3555 C   0  0  0  0  0  0  0  0  0  0  0  0
   13.6175  -14.4534   21.0674 O   0  0  0  0  0  0  0  0  0  0  0  0
   13.3640  -16.7426   20.8683 N   0  0  0  0  0  0  0  0  0  0  0  0
   13.9444  -16.8810   22.2238 C   0  0  1  0  0  0  0  0  0  0  0  0
   13.1415  -17.8888   23.0009 C   0  0  0  0  0  0  0  0  0  0  0  0
   11.8381  -17.3310   23.3955 C   0  0  0  0  0  0  0  0  0  0  0  0
   11.4383  -16.0089   23.2075 C   0  0  0  0  0  0  0  0  0  0  0  0
   10.1952  -15.8518   23.6845 N   0  0  0  0  0  0  0  0  0  0  0  0
    9.7994  -17.0389   24.1684 C   0  0  0  0  0  0  0  0  0  0  0  0
   10.7927  -17.9213   23.9905 N   0  0  0  0  0  0  0  0  0  0  0  0
   15.2981  -17.4183   21.9995 C   0  0  0  0  0  0  0  0  0  0  0  0
   16.1657  -17.5706   23.0753 O   0  0  0  0  0  0  0  0  0  0  0  0
   15.7100  -17.7486   20.8713 O   0  0  0  0  0  0  0  0  0  0  0  0
  1  5  1  0
  2  3  1  0
  2  1  1  0
  3  4  1  0
  4  5  1  0
  5  6  1  6
  6  7  2  0
  8  9  1  0
  8  6  1  0
  9 16  1  0
  9 10  1  6
 11 10  1  0
 11 15  1  0
 12 13  1  0
 12 11  2  0
 13 14  1  0
 14 15  2  0
 16 18  1  0
 16 17  2  0
 18 19  1  0
 19 26  1  0
 19 20  1  1
 21 20  1  0
 21 22  2  0
 23 22  1  0
 24 25  2  0
 24 23  1  0
 25 21  1  0
 26 28  2  0
 26 27  1  0
M  END
$$$$
