PHH.pdb
     RDKit          3D

 28 30  0  0  1  0  0  0  0  0999 V2000
    9.3983  -14.1670   19.4539 N   0  0  0  0  0  0  0  0  0  0  0  0
    9.1899  -13.2107   18.3704 C   0  0  0  0  0  0  0  0  0  0  0  0
    7.7471  -12.8191   18.4063 C   0  0  0  0  0  0  0  0  0  0  0  0
    7.1849  -13.5745   19.6144 C   0  0  0  0  0  0  0  0  0  0  0  0
    8.4571  -13.7369   20.4426 C   0  0  1  0  0  0  0  0  0  0  0  0
    8.2723  -14.7285   21.5328 C   0  0  0  0  0  0  0  0  0  0  0  0
    7.2751  -14.6851   22.2665 O   0  0  0  0  0  0  0  0  0  0  0  0
    9.2694  -15.7270   21.7108 N   0  0  0  0  0  0  0  0  0  0  0  0
    9.1039  -16.8314   22.6345 C   0  0  1  0  0  0  0  0  0  0  0  0
    9.8772  -18.0169   22.1362 C   0  0  0  0  0  0  0  0  0  0  0  0
    9.2569  -18.6862   20.9837 C   0  0  0  0  0  0  0  0  0  0  0  0
    9.6049  -18.3991   19.6729 C   0  0  0  0  0  0  0  0  0  0  0  0
    8.8680  -19.1694   18.8533 N   0  0  0  0  0  0  0  0  0  0  0  0
    8.0651  -19.9337   19.6168 C   0  0  0  0  0  0  0  0  0  0  0  0
    8.3135  -19.6288   20.8934 N   0  0  0  0  0  0  0  0  0  0  0  0
    9.5089  -16.4367   24.0049 C   0  0  0  0  0  0  0  0  0  0  0  0
   10.6056  -15.8457   24.1510 O   0  0  0  0  0  0  0  0  0  0  0  0
    8.6988  -16.7073   25.1341 N   0  0  0  0  0  0  0  0  0  0  0  0
    9.1952  -16.2041   26.4356 C   0  0  1  0  0  0  0  0  0  0  0  0
    8.0264  -15.7324   27.2574 C   0  0  0  0  0  0  0  0  0  0  0  0
    7.4671  -14.4864   26.7095 C   0  0  0  0  0  0  0  0  0  0  0  0
    8.1433  -13.6007   25.8720 C   0  0  0  0  0  0  0  0  0  0  0  0
    7.3338  -12.5763   25.5674 N   0  0  0  0  0  0  0  0  0  0  0  0
    6.1649  -12.7913   26.1899 C   0  0  0  0  0  0  0  0  0  0  0  0
    6.2543  -13.9409   26.8735 N   0  0  0  0  0  0  0  0  0  0  0  0
    9.7955  -17.3807   27.0888 C   0  0  0  0  0  0  0  0  0  0  0  0
    9.8240  -18.5998   26.4207 O   0  0  0  0  0  0  0  0  0  0  0  0
   10.2877  -17.3346   28.2321 O   0  0  0  0  0  0  0  0  0  0  0  0
  1  5  1  0
  2  3  1  0
  2  1  1  0
  3  4  1  0
  4  5  1  0
  5  6  1  1
  6  7  2  0
  8  9  1  0
  8  6  1  0
  9 16  1  0
  9 10  1  6
 11 10  1  0
 11 15  1  0
 12 13  1  0
 12 11  2  0
 13 14  1  0
 14 15  2  0
 16 18  1  0
 16 17  2  0
 18 19  1  0
 19 26  1  0
 19 20  1  1
 21 20  1  0
 21 22  2  0
 23 22  1  0
 24 25  2  0
 24 23  1  0
 25 21  1  0
 26 28  2  0
 26 27  1  0
M  END
$$$$
