WDD.pdb
     RDKit          3D

 31 32  0  0  1  0  0  0  0  0999 V2000
   24.8799  -19.9129  -16.7065 N   0  0  0  0  0  0  0  0  0  0  0  0
   24.0149  -19.2203  -15.7356 C   0  0  1  0  0  0  0  0  0  0  0  0
   22.9666  -18.4108  -16.5011 C   0  0  0  0  0  0  0  0  0  0  0  0
   23.7105  -17.4582  -17.3713 C   0  0  0  0  0  0  0  0  0  0  0  0
   24.9179  -16.8450  -17.0699 C   0  0  0  0  0  0  0  0  0  0  0  0
   25.2322  -16.0672  -18.0923 N   0  0  0  0  0  0  0  0  0  0  0  0
   24.2774  -16.1482  -19.0501 C   0  0  0  0  0  0  0  0  0  0  0  0
   24.0969  -15.5664  -20.2956 C   0  0  0  0  0  0  0  0  0  0  0  0
   22.9809  -15.8854  -21.0197 C   0  0  0  0  0  0  0  0  0  0  0  0
   22.0134  -16.7652  -20.5705 C   0  0  0  0  0  0  0  0  0  0  0  0
   22.1819  -17.3438  -19.3441 C   0  0  0  0  0  0  0  0  0  0  0  0
   23.3120  -17.0281  -18.5983 C   0  0  0  0  0  0  0  0  0  0  0  0
   23.2509  -20.2336  -14.9714 C   0  0  0  0  0  0  0  0  0  0  0  0
   22.7673  -21.2055  -15.5830 O   0  0  0  0  0  0  0  0  0  0  0  0
   23.0840  -20.0884  -13.5821 N   0  0  0  0  0  0  0  0  0  0  0  0
   22.3802  -21.0785  -12.7598 C   0  0  1  0  0  0  0  0  0  0  0  0
   22.8867  -20.8029  -11.3356 C   0  0  0  0  0  0  0  0  0  0  0  0
   24.2423  -21.2743  -11.0793 C   0  0  0  0  0  0  0  0  0  0  0  0
   24.8345  -21.9836  -11.9709 O   0  0  0  0  0  0  0  0  0  0  0  0
   20.9319  -20.8208  -12.7687 C   0  0  0  0  0  0  0  0  0  0  0  0
   20.5203  -19.6133  -12.6203 O   0  0  0  0  0  0  0  0  0  0  0  0
   24.9726  -21.0253   -9.9389 O   0  0  0  0  0  0  0  0  0  0  0  0
   19.9239  -21.8034  -12.9350 N   0  0  0  0  0  0  0  0  0  0  0  0
   18.5028  -21.4214  -12.9934 C   0  0  1  0  0  0  0  0  0  0  0  0
   17.9649  -21.8135  -14.3738 C   0  0  0  0  0  0  0  0  0  0  0  0
   16.5334  -21.5761  -14.5352 C   0  0  0  0  0  0  0  0  0  0  0  0
   15.8652  -20.9597  -13.6877 O   0  0  0  0  0  0  0  0  0  0  0  0
   17.8134  -22.1187  -11.9035 C   0  0  0  0  0  0  0  0  0  0  0  0
   18.1439  -23.2422  -11.5102 O   0  0  0  0  0  0  0  0  0  0  0  0
   15.8470  -22.0341  -15.6576 O   0  0  0  0  0  0  0  0  0  0  0  0
   16.7322  -21.5182  -11.2570 O   0  0  0  0  0  0  0  0  0  0  0  0
  2  1  1  6
  2 13  1  0
  2  3  1  0
  3  4  1  0
  4  5  2  0
  5  6  1  0
  7  6  1  0
  8  7  2  0
  9  8  1  0
 10 11  1  0
 10  9  2  0
 11 12  2  0
 12  4  1  0
 12  7  1  0
 13 15  1  0
 14 13  2  0
 15 16  1  0
 16 17  1  1
 17 18  1  0
 18 19  2  0
 18 22  1  0
 20 16  1  0
 21 20  2  0
 23 20  1  0
 24 23  1  0
 24 25  1  6
 26 25  1  0
 26 27  2  0
 28 24  1  0
 28 31  1  0
 29 28  2  0
 30 26  1  0
M  END
$$$$
