WDD.pdb
     RDKit          3D

 31 32  0  0  1  0  0  0  0  0999 V2000
   26.4912  -22.3605  -12.9488 N   0  0  0  0  0  0  0  0  0  0  0  0
   25.5868  -21.4829  -12.1855 C   0  0  1  0  0  0  0  0  0  0  0  0
   26.2378  -20.1052  -12.0494 C   0  0  0  0  0  0  0  0  0  0  0  0
   27.3688  -20.2570  -11.0924 C   0  0  0  0  0  0  0  0  0  0  0  0
   28.6881  -20.5331  -11.4204 C   0  0  0  0  0  0  0  0  0  0  0  0
   29.3706  -20.6016  -10.2897 N   0  0  0  0  0  0  0  0  0  0  0  0
   28.5487  -20.3811   -9.2354 C   0  0  0  0  0  0  0  0  0  0  0  0
   28.7209  -20.3357   -7.8604 C   0  0  0  0  0  0  0  0  0  0  0  0
   27.6375  -20.0774   -7.0658 C   0  0  0  0  0  0  0  0  0  0  0  0
   26.3674  -19.8578   -7.5662 C   0  0  0  0  0  0  0  0  0  0  0  0
   26.1872  -19.9006   -8.9201 C   0  0  0  0  0  0  0  0  0  0  0  0
   27.2802  -20.1620   -9.7386 C   0  0  0  0  0  0  0  0  0  0  0  0
   24.3561  -21.2616  -12.9798 C   0  0  0  0  0  0  0  0  0  0  0  0
   24.4494  -21.1851  -14.2199 O   0  0  0  0  0  0  0  0  0  0  0  0
   23.1128  -21.1431  -12.3321 N   0  0  0  0  0  0  0  0  0  0  0  0
   21.8436  -21.0521  -13.0620 C   0  0  1  0  0  0  0  0  0  0  0  0
   20.7877  -21.4448  -12.0171 C   0  0  0  0  0  0  0  0  0  0  0  0
   20.3331  -22.8267  -12.1138 C   0  0  0  0  0  0  0  0  0  0  0  0
   19.6943  -23.3431  -11.1270 O   0  0  0  0  0  0  0  0  0  0  0  0
   21.5744  -19.6610  -13.4574 C   0  0  0  0  0  0  0  0  0  0  0  0
   21.7254  -18.7321  -12.5834 O   0  0  0  0  0  0  0  0  0  0  0  0
   20.5278  -23.6581  -13.1939 O   0  0  0  0  0  0  0  0  0  0  0  0
   21.1590  -19.2390  -14.7452 N   0  0  0  0  0  0  0  0  0  0  0  0
   20.9727  -17.8092  -15.0450 C   0  0  1  0  0  0  0  0  0  0  0  0
   21.3062  -17.5898  -16.5246 C   0  0  0  0  0  0  0  0  0  0  0  0
   21.0634  -16.2257  -16.9852 C   0  0  0  0  0  0  0  0  0  0  0  0
   21.4348  -15.2325  -16.3369 O   0  0  0  0  0  0  0  0  0  0  0  0
   19.5827  -17.4690  -14.7264 C   0  0  0  0  0  0  0  0  0  0  0  0
   18.6413  -18.2463  -14.9148 O   0  0  0  0  0  0  0  0  0  0  0  0
   20.3987  -15.9753  -18.1835 O   0  0  0  0  0  0  0  0  0  0  0  0
   19.2704  -16.2216  -14.1841 O   0  0  0  0  0  0  0  0  0  0  0  0
  2  1  1  6
  2 13  1  0
  2  3  1  0
  3  4  1  0
  4  5  2  0
  5  6  1  0
  7  6  1  0
  8  7  2  0
  9  8  1  0
 10 11  1  0
 10  9  2  0
 11 12  2  0
 12  4  1  0
 12  7  1  0
 13 15  1  0
 14 13  2  0
 15 16  1  0
 16 17  1  1
 17 18  1  0
 18 19  2  0
 18 22  1  0
 20 16  1  0
 21 20  2  0
 23 20  1  0
 24 23  1  0
 24 25  1  6
 26 25  1  0
 26 27  2  0
 28 24  1  0
 28 31  1  0
 29 28  2  0
 30 26  1  0
M  END
$$$$
