WDD.pdb
     RDKit          3D

 31 32  0  0  1  0  0  0  0  0999 V2000
   28.5535  -21.4948  -10.3257 N   0  0  0  0  0  0  0  0  0  0  0  0
   27.1340  -21.3056   -9.9790 C   0  0  1  0  0  0  0  0  0  0  0  0
   26.9947  -20.0194   -9.1625 C   0  0  0  0  0  0  0  0  0  0  0  0
   28.0989  -20.0230   -8.1632 C   0  0  0  0  0  0  0  0  0  0  0  0
   29.4348  -19.7486   -8.4174 C   0  0  0  0  0  0  0  0  0  0  0  0
   30.0880  -19.8709   -7.2740 N   0  0  0  0  0  0  0  0  0  0  0  0
   29.2311  -20.2145   -6.2824 C   0  0  0  0  0  0  0  0  0  0  0  0
   29.3641  -20.4664   -4.9254 C   0  0  0  0  0  0  0  0  0  0  0  0
   28.2513  -20.7969   -4.2014 C   0  0  0  0  0  0  0  0  0  0  0  0
   26.9889  -20.8947   -4.7568 C   0  0  0  0  0  0  0  0  0  0  0  0
   26.8472  -20.6486   -6.0934 C   0  0  0  0  0  0  0  0  0  0  0  0
   27.9704  -20.3116   -6.8404 C   0  0  0  0  0  0  0  0  0  0  0  0
   26.3677  -21.0680  -11.2242 C   0  0  0  0  0  0  0  0  0  0  0  0
   26.8565  -20.3234  -12.0954 O   0  0  0  0  0  0  0  0  0  0  0  0
   25.1137  -21.6795  -11.4059 N   0  0  0  0  0  0  0  0  0  0  0  0
   24.3435  -21.5562  -12.6482 C   0  0  1  0  0  0  0  0  0  0  0  0
   23.9003  -22.9956  -12.9524 C   0  0  0  0  0  0  0  0  0  0  0  0
   24.8196  -23.7387  -13.8058 C   0  0  0  0  0  0  0  0  0  0  0  0
   25.3788  -23.1365  -14.7924 O   0  0  0  0  0  0  0  0  0  0  0  0
   23.1270  -20.7599  -12.4242 C   0  0  0  0  0  0  0  0  0  0  0  0
   22.5468  -20.8302  -11.2806 O   0  0  0  0  0  0  0  0  0  0  0  0
   25.1574  -25.0647  -13.6524 O   0  0  0  0  0  0  0  0  0  0  0  0
   22.5237  -19.8973  -13.3735 N   0  0  0  0  0  0  0  0  0  0  0  0
   21.3286  -19.1113  -13.0235 C   0  0  1  0  0  0  0  0  0  0  0  0
   21.1015  -18.0783  -14.1326 C   0  0  0  0  0  0  0  0  0  0  0  0
   19.8670  -17.3139  -13.9792 C   0  0  0  0  0  0  0  0  0  0  0  0
   19.1581  -17.3991  -12.9619 O   0  0  0  0  0  0  0  0  0  0  0  0
   20.2081  -20.0475  -12.8904 C   0  0  0  0  0  0  0  0  0  0  0  0
   19.3225  -19.9177  -12.0391 O   0  0  0  0  0  0  0  0  0  0  0  0
   19.4256  -16.4466  -14.9759 O   0  0  0  0  0  0  0  0  0  0  0  0
   20.1032  -21.1451  -13.7459 O   0  0  0  0  0  0  0  0  0  0  0  0
  2  1  1  6
  2 13  1  0
  2  3  1  0
  3  4  1  0
  4  5  2  0
  5  6  1  0
  7  6  1  0
  8  7  2  0
  9  8  1  0
 10 11  1  0
 10  9  2  0
 11 12  2  0
 12  4  1  0
 12  7  1  0
 13 15  1  0
 14 13  2  0
 15 16  1  0
 16 17  1  1
 17 18  1  0
 18 19  2  0
 18 22  1  0
 20 16  1  0
 21 20  2  0
 23 20  1  0
 24 23  1  0
 24 25  1  6
 26 25  1  0
 26 27  2  0
 28 24  1  0
 28 31  1  0
 29 28  2  0
 30 26  1  0
M  END
$$$$
