WDD.pdb
     RDKit          3D

 31 32  0  0  1  0  0  0  0  0999 V2000
   27.9754  -20.1548  -11.8455 N   0  0  0  0  0  0  0  0  0  0  0  0
   27.0382  -21.2307  -12.2126 C   0  0  1  0  0  0  0  0  0  0  0  0
   26.7371  -22.0664  -10.9672 C   0  0  0  0  0  0  0  0  0  0  0  0
   26.6381  -21.1155   -9.8252 C   0  0  0  0  0  0  0  0  0  0  0  0
   25.5067  -20.4096   -9.4427 C   0  0  0  0  0  0  0  0  0  0  0  0
   25.8373  -19.6690   -8.3981 N   0  0  0  0  0  0  0  0  0  0  0  0
   27.1405  -19.8635   -8.0828 C   0  0  0  0  0  0  0  0  0  0  0  0
   27.9913  -19.3624   -7.1094 C   0  0  0  0  0  0  0  0  0  0  0  0
   29.2899  -19.7920   -7.0805 C   0  0  0  0  0  0  0  0  0  0  0  0
   29.8042  -20.7076   -7.9799 C   0  0  0  0  0  0  0  0  0  0  0  0
   28.9739  -21.2073   -8.9433 C   0  0  0  0  0  0  0  0  0  0  0  0
   27.6518  -20.7789   -8.9834 C   0  0  0  0  0  0  0  0  0  0  0  0
   25.7449  -20.6226  -12.6025 C   0  0  0  0  0  0  0  0  0  0  0  0
   25.3543  -19.6062  -11.9968 O   0  0  0  0  0  0  0  0  0  0  0  0
   24.9839  -21.1925  -13.6396 N   0  0  0  0  0  0  0  0  0  0  0  0
   23.7404  -20.5914  -14.1336 C   0  0  1  0  0  0  0  0  0  0  0  0
   23.9032  -20.6090  -15.6614 C   0  0  0  0  0  0  0  0  0  0  0  0
   24.6680  -19.4888  -16.1961 C   0  0  0  0  0  0  0  0  0  0  0  0
   25.5842  -19.7184  -17.0659 O   0  0  0  0  0  0  0  0  0  0  0  0
   22.5884  -21.4450  -13.8046 C   0  0  0  0  0  0  0  0  0  0  0  0
   22.7631  -22.7155  -13.7356 O   0  0  0  0  0  0  0  0  0  0  0  0
   24.4984  -18.1673  -15.8487 O   0  0  0  0  0  0  0  0  0  0  0  0
   21.2730  -20.9850  -13.5450 N   0  0  0  0  0  0  0  0  0  0  0  0
   20.1819  -21.9371  -13.2772 C   0  0  1  0  0  0  0  0  0  0  0  0
   19.2624  -21.3163  -12.2200 C   0  0  0  0  0  0  0  0  0  0  0  0
   18.0633  -22.1040  -11.9491 C   0  0  0  0  0  0  0  0  0  0  0  0
   17.8623  -23.2080  -12.4834 O   0  0  0  0  0  0  0  0  0  0  0  0
   19.4910  -22.1847  -14.5464 C   0  0  0  0  0  0  0  0  0  0  0  0
   19.0167  -23.2845  -14.8491 O   0  0  0  0  0  0  0  0  0  0  0  0
   17.0826  -21.6484  -11.0710 O   0  0  0  0  0  0  0  0  0  0  0  0
   19.3421  -21.1568  -15.4785 O   0  0  0  0  0  0  0  0  0  0  0  0
  2  1  1  1
  2 13  1  0
  2  3  1  0
  3  4  1  0
  4  5  2  0
  5  6  1  0
  7  6  1  0
  8  7  2  0
  9  8  1  0
 10 11  1  0
 10  9  2  0
 11 12  2  0
 12  4  1  0
 12  7  1  0
 13 15  1  0
 14 13  2  0
 15 16  1  0
 16 17  1  6
 17 18  1  0
 18 19  2  0
 18 22  1  0
 20 16  1  0
 21 20  2  0
 23 20  1  0
 24 23  1  0
 24 25  1  1
 26 25  1  0
 26 27  2  0
 28 24  1  0
 28 31  1  0
 29 28  2  0
 30 26  1  0
M  END
$$$$
