WDD.pdb
     RDKit          3D

 31 32  0  0  1  0  0  0  0  0999 V2000
   15.3857  -15.7448    5.4714 N   0  0  0  0  0  0  0  0  0  0  0  0
   16.6064  -15.7591    6.2963 C   0  0  1  0  0  0  0  0  0  0  0  0
   16.6433  -14.4846    7.1416 C   0  0  0  0  0  0  0  0  0  0  0  0
   17.7145  -13.6213    6.5710 C   0  0  0  0  0  0  0  0  0  0  0  0
   18.6185  -12.8538    7.2909 C   0  0  0  0  0  0  0  0  0  0  0  0
   19.3897  -12.2284    6.4174 N   0  0  0  0  0  0  0  0  0  0  0  0
   19.0251  -12.5573    5.1547 C   0  0  0  0  0  0  0  0  0  0  0  0
   19.4744  -12.2085    3.8901 C   0  0  0  0  0  0  0  0  0  0  0  0
   18.8556  -12.7480    2.7957 C   0  0  0  0  0  0  0  0  0  0  0  0
   17.7950  -13.6306    2.8847 C   0  0  0  0  0  0  0  0  0  0  0  0
   17.3445  -13.9806    4.1264 C   0  0  0  0  0  0  0  0  0  0  0  0
   17.9650  -13.4394    5.2467 C   0  0  0  0  0  0  0  0  0  0  0  0
   16.5119  -16.8742    7.2668 C   0  0  0  0  0  0  0  0  0  0  0  0
   15.6050  -16.8495    8.1208 O   0  0  0  0  0  0  0  0  0  0  0  0
   17.4349  -17.9346    7.2120 N   0  0  0  0  0  0  0  0  0  0  0  0
   17.3754  -19.0858    8.1190 C   0  0  1  0  0  0  0  0  0  0  0  0
   17.2858  -20.2952    7.1754 C   0  0  0  0  0  0  0  0  0  0  0  0
   17.0915  -21.5715    7.8529 C   0  0  0  0  0  0  0  0  0  0  0  0
   15.9204  -21.8781    8.2806 O   0  0  0  0  0  0  0  0  0  0  0  0
   18.6302  -19.2114    8.8765 C   0  0  0  0  0  0  0  0  0  0  0  0
   19.7180  -18.7882    8.3406 O   0  0  0  0  0  0  0  0  0  0  0  0
   18.0720  -22.5097    8.0860 O   0  0  0  0  0  0  0  0  0  0  0  0
   18.7534  -19.7641   10.1759 N   0  0  0  0  0  0  0  0  0  0  0  0
   20.0637  -19.8300   10.8446 C   0  0  1  0  0  0  0  0  0  0  0  0
   20.0128  -18.9162   12.0739 C   0  0  0  0  0  0  0  0  0  0  0  0
   21.1882  -19.0224   12.9335 C   0  0  0  0  0  0  0  0  0  0  0  0
   22.3389  -19.1134   12.4727 O   0  0  0  0  0  0  0  0  0  0  0  0
   20.3093  -21.2318   11.1970 C   0  0  0  0  0  0  0  0  0  0  0  0
   21.3333  -21.6089   11.7759 O   0  0  0  0  0  0  0  0  0  0  0  0
   21.0703  -19.0258   14.3215 O   0  0  0  0  0  0  0  0  0  0  0  0
   19.3671  -22.2118   10.8817 O   0  0  0  0  0  0  0  0  0  0  0  0
  2  1  1  6
  2 13  1  0
  2  3  1  0
  3  4  1  0
  4  5  2  0
  5  6  1  0
  7  6  1  0
  8  7  2  0
  9  8  1  0
 10 11  1  0
 10  9  2  0
 11 12  2  0
 12  4  1  0
 12  7  1  0
 13 15  1  0
 14 13  2  0
 15 16  1  0
 16 17  1  6
 17 18  1  0
 18 19  2  0
 18 22  1  0
 20 16  1  0
 21 20  2  0
 23 20  1  0
 24 23  1  0
 24 25  1  1
 26 25  1  0
 26 27  2  0
 28 24  1  0
 28 31  1  0
 29 28  2  0
 30 26  1  0
M  END
$$$$
