WDD.pdb
     RDKit          3D

 31 32  0  0  1  0  0  0  0  0999 V2000
   28.8951  -20.8657   -9.7440 N   0  0  0  0  0  0  0  0  0  0  0  0
   27.6843  -21.6912   -9.8963 C   0  0  1  0  0  0  0  0  0  0  0  0
   27.0745  -21.9292   -8.5136 C   0  0  0  0  0  0  0  0  0  0  0  0
   27.4202  -20.7433   -7.6816 C   0  0  0  0  0  0  0  0  0  0  0  0
   27.0106  -19.4371   -7.9067 C   0  0  0  0  0  0  0  0  0  0  0  0
   27.5413  -18.6869   -6.9557 N   0  0  0  0  0  0  0  0  0  0  0  0
   28.2818  -19.4518   -6.1177 C   0  0  0  0  0  0  0  0  0  0  0  0
   29.0376  -19.2002   -4.9828 C   0  0  0  0  0  0  0  0  0  0  0  0
   29.6726  -20.2432   -4.3658 C   0  0  0  0  0  0  0  0  0  0  0  0
   29.6005  -21.5476   -4.8188 C   0  0  0  0  0  0  0  0  0  0  0  0
   28.8583  -21.8060   -5.9366 C   0  0  0  0  0  0  0  0  0  0  0  0
   28.2079  -20.7548   -6.5730 C   0  0  0  0  0  0  0  0  0  0  0  0
   26.6704  -20.9148  -10.6469 C   0  0  0  0  0  0  0  0  0  0  0  0
   26.6945  -19.6711  -10.5748 O   0  0  0  0  0  0  0  0  0  0  0  0
   25.7056  -21.5828  -11.4229 N   0  0  0  0  0  0  0  0  0  0  0  0
   25.0165  -20.9476  -12.5513 C   0  0  1  0  0  0  0  0  0  0  0  0
   25.5602  -21.6905  -13.7816 C   0  0  0  0  0  0  0  0  0  0  0  0
   26.6517  -21.0046  -14.4626 C   0  0  0  0  0  0  0  0  0  0  0  0
   26.5300  -19.7554  -14.7337 O   0  0  0  0  0  0  0  0  0  0  0  0
   23.5700  -21.2072  -12.4850 C   0  0  0  0  0  0  0  0  0  0  0  0
   23.1680  -22.4171  -12.3300 O   0  0  0  0  0  0  0  0  0  0  0  0
   27.8375  -21.5835  -14.8558 O   0  0  0  0  0  0  0  0  0  0  0  0
   22.5541  -20.2227  -12.5729 N   0  0  0  0  0  0  0  0  0  0  0  0
   21.1322  -20.6011  -12.5128 C   0  0  1  0  0  0  0  0  0  0  0  0
   20.3026  -19.3134  -12.4651 C   0  0  0  0  0  0  0  0  0  0  0  0
   18.8628  -19.5449  -12.3932 C   0  0  0  0  0  0  0  0  0  0  0  0
   18.3786  -20.6879  -12.3328 O   0  0  0  0  0  0  0  0  0  0  0  0
   20.8410  -21.4128  -13.6984 C   0  0  0  0  0  0  0  0  0  0  0  0
   21.3211  -21.1725  -14.8109 O   0  0  0  0  0  0  0  0  0  0  0  0
   17.9598  -18.4841  -12.3886 O   0  0  0  0  0  0  0  0  0  0  0  0
   19.9892  -22.5143  -13.6049 O   0  0  0  0  0  0  0  0  0  0  0  0
  2  1  1  1
  2 13  1  0
  2  3  1  0
  3  4  1  0
  4  5  2  0
  5  6  1  0
  7  6  1  0
  8  7  2  0
  9  8  1  0
 10 11  1  0
 10  9  2  0
 11 12  2  0
 12  4  1  0
 12  7  1  0
 13 15  1  0
 14 13  2  0
 15 16  1  0
 16 17  1  6
 17 18  1  0
 18 19  2  0
 18 22  1  0
 20 16  1  0
 21 20  2  0
 23 20  1  0
 24 23  1  0
 24 25  1  6
 26 25  1  0
 26 27  2  0
 28 24  1  0
 28 31  1  0
 29 28  2  0
 30 26  1  0
M  END
$$$$
