WDD.pdb
     RDKit          3D

 31 32  0  0  1  0  0  0  0  0999 V2000
   24.7697  -20.3255   -8.6101 N   0  0  0  0  0  0  0  0  0  0  0  0
   26.0217  -20.1498   -9.3665 C   0  0  1  0  0  0  0  0  0  0  0  0
   27.1749  -20.7384   -8.5517 C   0  0  0  0  0  0  0  0  0  0  0  0
   27.2832  -19.9237   -7.3097 C   0  0  0  0  0  0  0  0  0  0  0  0
   26.4595  -18.8676   -6.9483 C   0  0  0  0  0  0  0  0  0  0  0  0
   26.8956  -18.4050   -5.7887 N   0  0  0  0  0  0  0  0  0  0  0  0
   27.9723  -19.1176   -5.3781 C   0  0  0  0  0  0  0  0  0  0  0  0
   28.8048  -19.0713   -4.2702 C   0  0  0  0  0  0  0  0  0  0  0  0
   29.8285  -19.9736   -4.1734 C   0  0  0  0  0  0  0  0  0  0  0  0
   30.0801  -20.9382   -5.1316 C   0  0  0  0  0  0  0  0  0  0  0  0
   29.2656  -20.9920   -6.2274 C   0  0  0  0  0  0  0  0  0  0  0  0
   28.2214  -20.0806   -6.3377 C   0  0  0  0  0  0  0  0  0  0  0  0
   25.9514  -20.9678  -10.5996 C   0  0  0  0  0  0  0  0  0  0  0  0
   26.2347  -22.1792  -10.5315 O   0  0  0  0  0  0  0  0  0  0  0  0
   25.5691  -20.3744  -11.8165 N   0  0  0  0  0  0  0  0  0  0  0  0
   25.3458  -21.1497  -13.0416 C   0  0  1  0  0  0  0  0  0  0  0  0
   24.0230  -20.5958  -13.5932 C   0  0  0  0  0  0  0  0  0  0  0  0
   22.8428  -20.9972  -12.8371 C   0  0  0  0  0  0  0  0  0  0  0  0
   22.1957  -20.1086  -12.1737 O   0  0  0  0  0  0  0  0  0  0  0  0
   26.3919  -20.8589  -14.0341 C   0  0  0  0  0  0  0  0  0  0  0  0
   26.8209  -19.6531  -14.1414 O   0  0  0  0  0  0  0  0  0  0  0  0
   22.3385  -22.2763  -12.7628 O   0  0  0  0  0  0  0  0  0  0  0  0
   26.9889  -21.8088  -14.9004 N   0  0  0  0  0  0  0  0  0  0  0  0
   28.0766  -21.4165  -15.8125 C   0  0  1  0  0  0  0  0  0  0  0  0
   29.0053  -22.6231  -15.9861 C   0  0  0  0  0  0  0  0  0  0  0  0
   30.0311  -22.4323  -17.0074 C   0  0  0  0  0  0  0  0  0  0  0  0
   30.1305  -21.3770  -17.6563 O   0  0  0  0  0  0  0  0  0  0  0  0
   27.4628  -20.9943  -17.0752 C   0  0  0  0  0  0  0  0  0  0  0  0
   27.9235  -20.0864  -17.7749 O   0  0  0  0  0  0  0  0  0  0  0  0
   30.9528  -23.4345  -17.3018 O   0  0  0  0  0  0  0  0  0  0  0  0
   26.3069  -21.6229  -17.5403 O   0  0  0  0  0  0  0  0  0  0  0  0
  2  1  1  1
  2 13  1  0
  2  3  1  0
  3  4  1  0
  4  5  2  0
  5  6  1  0
  7  6  1  0
  8  7  2  0
  9  8  1  0
 10 11  1  0
 10  9  2  0
 11 12  2  0
 12  4  1  0
 12  7  1  0
 13 15  1  0
 14 13  2  0
 15 16  1  0
 16 17  1  6
 17 18  1  0
 18 19  2  0
 18 22  1  0
 20 16  1  0
 21 20  2  0
 23 20  1  0
 24 23  1  0
 24 25  1  6
 26 25  1  0
 26 27  2  0
 28 24  1  0
 28 31  1  0
 29 28  2  0
 30 26  1  0
M  END
$$$$
