LFH.pdb
     RDKit          3D

 30 31  0  0  1  0  0  0  0  0999 V2000
    7.9188  -12.6975   17.7085 C   0  0  0  0  0  0  0  0  0  0  0  0
    8.0535  -14.0758   18.2784 C   0  0  1  0  0  0  0  0  0  0  0  0
    8.3032  -15.0400   17.1387 C   0  0  0  0  0  0  0  0  0  0  0  0
    9.1560  -14.1236   19.3040 C   0  0  0  0  0  0  0  0  0  0  0  0
    9.1488  -15.3772   20.1136 C   0  0  2  0  0  0  0  0  0  0  0  0
    7.9156  -16.0932   19.8531 N   0  0  0  0  0  0  0  0  0  0  0  0
    9.2291  -14.9987   21.5636 C   0  0  0  0  0  0  0  0  0  0  0  0
   10.2694  -14.4263   22.0209 O   0  0  0  0  0  0  0  0  0  0  0  0
    8.1500  -15.2715   22.4486 N   0  0  0  0  0  0  0  0  0  0  0  0
    8.2329  -14.8368   23.8034 C   0  0  1  0  0  0  0  0  0  0  0  0
    7.0375  -14.0651   24.2718 C   0  0  0  0  0  0  0  0  0  0  0  0
    7.2009  -13.4313   25.5731 C   0  0  0  0  0  0  0  0  0  0  0  0
    6.4177  -13.7650   26.6496 C   0  0  0  0  0  0  0  0  0  0  0  0
    6.5755  -13.1591   27.8912 C   0  0  0  0  0  0  0  0  0  0  0  0
    7.5344  -12.2012   28.0603 C   0  0  0  0  0  0  0  0  0  0  0  0
    8.3420  -11.8412   26.9937 C   0  0  0  0  0  0  0  0  0  0  0  0
    8.1628  -12.4648   25.7586 C   0  0  0  0  0  0  0  0  0  0  0  0
    8.4342  -16.0105   24.7279 C   0  0  0  0  0  0  0  0  0  0  0  0
    7.4979  -16.8004   24.9911 O   0  0  0  0  0  0  0  0  0  0  0  0
    9.7004  -16.2555   25.3313 N   0  0  0  0  0  0  0  0  0  0  0  0
    9.9380  -17.4062   26.2035 C   0  0  1  0  0  0  0  0  0  0  0  0
   11.1507  -18.1643   25.8029 C   0  0  0  0  0  0  0  0  0  0  0  0
   11.1535  -18.4100   24.3466 C   0  0  0  0  0  0  0  0  0  0  0  0
   10.2415  -18.0652   23.3691 C   0  0  0  0  0  0  0  0  0  0  0  0
   10.6816  -18.5339   22.1922 N   0  0  0  0  0  0  0  0  0  0  0  0
   11.8431  -19.1682   22.3743 C   0  0  0  0  0  0  0  0  0  0  0  0
   12.1212  -19.0873   23.6870 N   0  0  0  0  0  0  0  0  0  0  0  0
    9.9360  -16.9977   27.6226 C   0  0  0  0  0  0  0  0  0  0  0  0
    9.8600  -15.6462   27.9292 O   0  0  0  0  0  0  0  0  0  0  0  0
    9.9991  -17.8064   28.5689 O   0  0  0  0  0  0  0  0  0  0  0  0
  2  3  1  6
  2  1  1  0
  4  2  1  0
  5  4  1  0
  5  6  1  1
  7  5  1  0
  7  8  2  0
  9  7  1  0
 10  9  1  0
 10 11  1  1
 12 11  1  0
 12 17  1  0
 13 12  2  0
 14 13  1  0
 14 15  2  0
 15 16  1  0
 16 17  2  0
 18 10  1  0
 19 18  2  0
 20 18  1  0
 21 20  1  0
 21 22  1  6
 22 23  1  0
 23 27  1  0
 24 23  2  0
 24 25  1  0
 25 26  1  0
 27 26  2  0
 28 21  1  0
 28 29  1  0
 30 28  2  0
M  END
$$$$
