LFH.pdb
     RDKit          3D

 30 31  0  0  1  0  0  0  0  0999 V2000
    9.0303  -19.6947   18.0941 C   0  0  0  0  0  0  0  0  0  0  0  0
    8.0145  -19.2545   19.1026 C   0  0  1  0  0  0  0  0  0  0  0  0
    7.3129  -20.4834   19.6396 C   0  0  0  0  0  0  0  0  0  0  0  0
    8.6654  -18.4561   20.2019 C   0  0  0  0  0  0  0  0  0  0  0  0
    8.7705  -17.0014   19.8856 C   0  0  2  0  0  0  0  0  0  0  0  0
    9.9181  -16.7932   19.0248 N   0  0  0  0  0  0  0  0  0  0  0  0
    8.9500  -16.2537   21.1744 C   0  0  0  0  0  0  0  0  0  0  0  0
   10.0923  -16.2010   21.7323 O   0  0  0  0  0  0  0  0  0  0  0  0
    7.8525  -15.5939   21.7928 N   0  0  0  0  0  0  0  0  0  0  0  0
    8.0643  -14.8767   23.0060 C   0  0  1  0  0  0  0  0  0  0  0  0
    6.9091  -14.0160   23.4168 C   0  0  0  0  0  0  0  0  0  0  0  0
    7.0695  -13.3696   24.7122 C   0  0  0  0  0  0  0  0  0  0  0  0
    6.3031  -13.7130   25.7977 C   0  0  0  0  0  0  0  0  0  0  0  0
    6.4579  -13.0950   27.0338 C   0  0  0  0  0  0  0  0  0  0  0  0
    7.3967  -12.1149   27.1880 C   0  0  0  0  0  0  0  0  0  0  0  0
    8.1869  -11.7446   26.1119 C   0  0  0  0  0  0  0  0  0  0  0  0
    8.0112  -12.3807   24.8827 C   0  0  0  0  0  0  0  0  0  0  0  0
    8.3785  -15.8234   24.1364 C   0  0  0  0  0  0  0  0  0  0  0  0
    7.5874  -16.7408   24.4566 O   0  0  0  0  0  0  0  0  0  0  0  0
    9.5890  -15.7009   24.8760 N   0  0  0  0  0  0  0  0  0  0  0  0
   10.1397  -16.8085   25.6577 C   0  0  1  0  0  0  0  0  0  0  0  0
   11.4725  -17.2316   25.1569 C   0  0  0  0  0  0  0  0  0  0  0  0
   12.0126  -18.3321   25.9803 C   0  0  0  0  0  0  0  0  0  0  0  0
   11.5786  -18.8627   27.1787 C   0  0  0  0  0  0  0  0  0  0  0  0
   12.4201  -19.8423   27.5401 N   0  0  0  0  0  0  0  0  0  0  0  0
   13.3808  -19.9631   26.6196 C   0  0  0  0  0  0  0  0  0  0  0  0
   13.1241  -19.0409   25.6759 N   0  0  0  0  0  0  0  0  0  0  0  0
   10.1213  -16.4924   27.1000 C   0  0  0  0  0  0  0  0  0  0  0  0
    9.8828  -15.1832   27.4946 O   0  0  0  0  0  0  0  0  0  0  0  0
   10.3096  -17.3435   27.9909 O   0  0  0  0  0  0  0  0  0  0  0  0
  2  3  1  1
  2  1  1  0
  4  2  1  0
  5  4  1  0
  5  6  1  6
  7  5  1  0
  7  8  2  0
  9  7  1  0
 10  9  1  0
 10 11  1  1
 12 11  1  0
 12 17  1  0
 13 12  2  0
 14 13  1  0
 14 15  2  0
 15 16  1  0
 16 17  2  0
 18 10  1  0
 19 18  2  0
 20 18  1  0
 21 20  1  0
 21 22  1  6
 22 23  1  0
 23 27  1  0
 24 23  2  0
 24 25  1  0
 25 26  1  0
 27 26  2  0
 28 21  1  0
 28 29  1  0
 30 28  2  0
M  END
$$$$
