LFH.pdb
     RDKit          3D

 30 31  0  0  1  0  0  0  0  0999 V2000
    7.2341  -12.6361   17.7733 C   0  0  0  0  0  0  0  0  0  0  0  0
    7.5159  -13.9902   18.3477 C   0  0  1  0  0  0  0  0  0  0  0  0
    8.2317  -14.8131   17.2983 C   0  0  0  0  0  0  0  0  0  0  0  0
    8.3224  -13.8747   19.6150 C   0  0  0  0  0  0  0  0  0  0  0  0
    8.5380  -15.1864   20.2934 C   0  0  2  0  0  0  0  0  0  0  0  0
    7.3549  -16.0043   20.1136 N   0  0  0  0  0  0  0  0  0  0  0  0
    8.7684  -14.9262   21.7534 C   0  0  0  0  0  0  0  0  0  0  0  0
    9.7603  -14.2250   22.1317 O   0  0  0  0  0  0  0  0  0  0  0  0
    7.8870  -15.4560   22.7356 N   0  0  0  0  0  0  0  0  0  0  0  0
    8.0644  -15.0892   24.1013 C   0  0  1  0  0  0  0  0  0  0  0  0
    6.7839  -14.8501   24.8411 C   0  0  0  0  0  0  0  0  0  0  0  0
    6.9290  -14.0651   26.0595 C   0  0  0  0  0  0  0  0  0  0  0  0
    7.4520  -14.5975   27.2113 C   0  0  0  0  0  0  0  0  0  0  0  0
    7.5901  -13.8464   28.3734 C   0  0  0  0  0  0  0  0  0  0  0  0
    7.1979  -12.5381   28.3847 C   0  0  0  0  0  0  0  0  0  0  0  0
    6.6659  -11.9700   27.2386 C   0  0  0  0  0  0  0  0  0  0  0  0
    6.5384  -12.7458   26.0860 C   0  0  0  0  0  0  0  0  0  0  0  0
    8.8503  -16.1438   24.8383 C   0  0  0  0  0  0  0  0  0  0  0  0
    8.4379  -17.3240   24.9215 O   0  0  0  0  0  0  0  0  0  0  0  0
   10.0893  -15.8266   25.4639 N   0  0  0  0  0  0  0  0  0  0  0  0
   10.8781  -16.8281   26.1823 C   0  0  1  0  0  0  0  0  0  0  0  0
   12.3331  -16.6758   25.9262 C   0  0  0  0  0  0  0  0  0  0  0  0
   12.6272  -16.8296   24.4871 C   0  0  0  0  0  0  0  0  0  0  0  0
   11.8287  -17.2434   23.4396 C   0  0  0  0  0  0  0  0  0  0  0  0
   12.5623  -17.2367   22.3170 N   0  0  0  0  0  0  0  0  0  0  0  0
   13.8040  -16.8343   22.6014 C   0  0  0  0  0  0  0  0  0  0  0  0
   13.8332  -16.5893   23.9229 N   0  0  0  0  0  0  0  0  0  0  0  0
   10.5268  -16.8421   27.6165 C   0  0  0  0  0  0  0  0  0  0  0  0
    9.5739  -15.9457   28.0803 O   0  0  0  0  0  0  0  0  0  0  0  0
   11.0428  -17.6212   28.4412 O   0  0  0  0  0  0  0  0  0  0  0  0
  2  3  1  6
  2  1  1  0
  4  2  1  0
  5  4  1  0
  5  6  1  1
  7  5  1  0
  7  8  2  0
  9  7  1  0
 10  9  1  0
 10 11  1  1
 12 11  1  0
 12 17  1  0
 13 12  2  0
 14 13  1  0
 14 15  2  0
 15 16  1  0
 16 17  2  0
 18 10  1  0
 19 18  2  0
 20 18  1  0
 21 20  1  0
 21 22  1  1
 22 23  1  0
 23 27  1  0
 24 23  2  0
 24 25  1  0
 25 26  1  0
 27 26  2  0
 28 21  1  0
 28 29  1  0
 30 28  2  0
M  END
$$$$
