LFH.pdb
     RDKit          3D

 30 31  0  0  1  0  0  0  0  0999 V2000
    6.9859  -13.1791   19.7707 C   0  0  0  0  0  0  0  0  0  0  0  0
    7.7897  -13.8933   18.7282 C   0  0  1  0  0  0  0  0  0  0  0  0
    8.1174  -12.9114   17.6240 C   0  0  0  0  0  0  0  0  0  0  0  0
    9.0331  -14.4930   19.3315 C   0  0  0  0  0  0  0  0  0  0  0  0
    8.7557  -15.6971   20.1685 C   0  0  2  0  0  0  0  0  0  0  0  0
    7.3877  -16.1184   19.9403 N   0  0  0  0  0  0  0  0  0  0  0  0
    8.9462  -15.3204   21.6087 C   0  0  0  0  0  0  0  0  0  0  0  0
   10.0689  -14.8797   22.0138 O   0  0  0  0  0  0  0  0  0  0  0  0
    7.8810  -15.4485   22.5421 N   0  0  0  0  0  0  0  0  0  0  0  0
    8.0952  -15.0713   23.8997 C   0  0  1  0  0  0  0  0  0  0  0  0
    6.8554  -14.6262   24.6131 C   0  0  0  0  0  0  0  0  0  0  0  0
    7.1006  -13.8864   25.8437 C   0  0  0  0  0  0  0  0  0  0  0  0
    7.1594  -12.5155   25.8702 C   0  0  0  0  0  0  0  0  0  0  0  0
    7.3932  -11.8110   27.0462 C   0  0  0  0  0  0  0  0  0  0  0  0
    7.5716  -12.4895   28.2181 C   0  0  0  0  0  0  0  0  0  0  0  0
    7.5182  -13.8739   28.2257 C   0  0  0  0  0  0  0  0  0  0  0  0
    7.2822  -14.5563   27.0320 C   0  0  0  0  0  0  0  0  0  0  0  0
    8.7102  -16.2070   24.6772 C   0  0  0  0  0  0  0  0  0  0  0  0
    8.2124  -17.3566   24.6548 O   0  0  0  0  0  0  0  0  0  0  0  0
    9.8800  -16.0042   25.4633 N   0  0  0  0  0  0  0  0  0  0  0  0
   10.6080  -17.1151   26.0776 C   0  0  1  0  0  0  0  0  0  0  0  0
   12.0021  -17.2097   25.5744 C   0  0  0  0  0  0  0  0  0  0  0  0
   12.7180  -18.3223   26.2308 C   0  0  0  0  0  0  0  0  0  0  0  0
   12.2453  -19.4611   26.8518 C   0  0  0  0  0  0  0  0  0  0  0  0
   13.2925  -20.1593   27.3146 N   0  0  0  0  0  0  0  0  0  0  0  0
   14.4229  -19.5132   27.0154 C   0  0  0  0  0  0  0  0  0  0  0  0
   14.0629  -18.3980   26.3567 N   0  0  0  0  0  0  0  0  0  0  0  0
   10.5118  -17.0546   27.5499 C   0  0  0  0  0  0  0  0  0  0  0  0
   10.3305  -15.8201   28.1579 O   0  0  0  0  0  0  0  0  0  0  0  0
   10.5850  -18.0595   28.2836 O   0  0  0  0  0  0  0  0  0  0  0  0
  2  3  1  6
  2  1  1  0
  4  2  1  0
  5  4  1  0
  5  6  1  1
  7  5  1  0
  7  8  2  0
  9  7  1  0
 10  9  1  0
 10 11  1  1
 12 11  1  0
 12 17  1  0
 13 12  2  0
 14 13  1  0
 14 15  2  0
 15 16  1  0
 16 17  2  0
 18 10  1  0
 19 18  2  0
 20 18  1  0
 21 20  1  0
 21 22  1  1
 22 23  1  0
 23 27  1  0
 24 23  2  0
 24 25  1  0
 25 26  1  0
 27 26  2  0
 28 21  1  0
 28 29  1  0
 30 28  2  0
M  END
$$$$
