LFH.pdb
     RDKit          3D

 30 31  0  0  1  0  0  0  0  0999 V2000
    7.7840  -12.3351   18.3772 C   0  0  0  0  0  0  0  0  0  0  0  0
    7.8370  -13.7708   18.7998 C   0  0  1  0  0  0  0  0  0  0  0  0
    7.8068  -14.6345   17.5572 C   0  0  0  0  0  0  0  0  0  0  0  0
    9.0618  -14.0357   19.6362 C   0  0  0  0  0  0  0  0  0  0  0  0
    9.0596  -15.3889   20.2655 C   0  0  2  0  0  0  0  0  0  0  0  0
    7.8026  -16.0430   19.9602 N   0  0  0  0  0  0  0  0  0  0  0  0
    9.2041  -15.2157   21.7492 C   0  0  0  0  0  0  0  0  0  0  0  0
   10.2612  -14.7011   22.2355 O   0  0  0  0  0  0  0  0  0  0  0  0
    8.1677  -15.6215   22.6343 N   0  0  0  0  0  0  0  0  0  0  0  0
    8.3222  -15.4041   24.0343 C   0  0  1  0  0  0  0  0  0  0  0  0
    7.0466  -15.0708   24.7455 C   0  0  0  0  0  0  0  0  0  0  0  0
    7.1757  -14.0357   25.7621 C   0  0  0  0  0  0  0  0  0  0  0  0
    7.7920  -14.2696   26.9660 C   0  0  0  0  0  0  0  0  0  0  0  0
    7.9147  -13.2800   27.9352 C   0  0  0  0  0  0  0  0  0  0  0  0
    7.4117  -12.0326   27.6968 C   0  0  0  0  0  0  0  0  0  0  0  0
    6.7837  -11.7635   26.4916 C   0  0  0  0  0  0  0  0  0  0  0  0
    6.6741  -12.7743   25.5362 C   0  0  0  0  0  0  0  0  0  0  0  0
    8.9348  -16.6121   24.6964 C   0  0  0  0  0  0  0  0  0  0  0  0
    8.9257  -17.7346   24.1397 O   0  0  0  0  0  0  0  0  0  0  0  0
    9.5437  -16.5111   25.9795 N   0  0  0  0  0  0  0  0  0  0  0  0
   10.7535  -17.2565   26.3285 C   0  0  1  0  0  0  0  0  0  0  0  0
   11.9643  -16.6770   25.6929 C   0  0  0  0  0  0  0  0  0  0  0  0
   12.1602  -17.2359   24.3401 C   0  0  0  0  0  0  0  0  0  0  0  0
   11.4145  -18.1490   23.6216 C   0  0  0  0  0  0  0  0  0  0  0  0
   12.0159  -18.3546   22.4407 N   0  0  0  0  0  0  0  0  0  0  0  0
   13.1217  -17.6083   22.3709 C   0  0  0  0  0  0  0  0  0  0  0  0
   13.2004  -16.9321   23.5301 N   0  0  0  0  0  0  0  0  0  0  0  0
   10.8692  -17.4125   27.7923 C   0  0  0  0  0  0  0  0  0  0  0  0
   10.2807  -16.4618   28.6146 O   0  0  0  0  0  0  0  0  0  0  0  0
   11.4714  -18.3590   28.3355 O   0  0  0  0  0  0  0  0  0  0  0  0
  2  3  1  6
  2  1  1  0
  4  2  1  0
  5  4  1  0
  5  6  1  1
  7  5  1  0
  7  8  2  0
  9  7  1  0
 10  9  1  0
 10 11  1  1
 12 11  1  0
 12 17  1  0
 13 12  2  0
 14 13  1  0
 14 15  2  0
 15 16  1  0
 16 17  2  0
 18 10  1  0
 19 18  2  0
 20 18  1  0
 21 20  1  0
 21 22  1  1
 22 23  1  0
 23 27  1  0
 24 23  2  0
 24 25  1  0
 25 26  1  0
 27 26  2  0
 28 21  1  0
 28 29  1  0
 30 28  2  0
M  END
$$$$
