LFH.pdb
     RDKit          3D

 30 31  0  0  1  0  0  0  0  0999 V2000
    7.9700  -20.1893   19.0568 C   0  0  0  0  0  0  0  0  0  0  0  0
    8.4065  -18.7931   18.7359 C   0  0  1  0  0  0  0  0  0  0  0  0
    7.2650  -18.0858   18.0377 C   0  0  0  0  0  0  0  0  0  0  0  0
    8.8345  -18.0676   19.9850 C   0  0  0  0  0  0  0  0  0  0  0  0
    9.0767  -16.6119   19.7628 C   0  0  2  0  0  0  0  0  0  0  0  0
   10.3129  -16.4527   19.0226 N   0  0  0  0  0  0  0  0  0  0  0  0
    9.1884  -15.9458   21.1030 C   0  0  0  0  0  0  0  0  0  0  0  0
   10.3254  -15.8027   21.6558 O   0  0  0  0  0  0  0  0  0  0  0  0
    8.0317  -15.4651   21.7762 N   0  0  0  0  0  0  0  0  0  0  0  0
    8.1737  -14.8555   23.0566 C   0  0  1  0  0  0  0  0  0  0  0  0
    6.9648  -14.0952   23.5088 C   0  0  0  0  0  0  0  0  0  0  0  0
    7.0760  -13.5248   24.8445 C   0  0  0  0  0  0  0  0  0  0  0  0
    6.3666  -14.0203   25.9098 C   0  0  0  0  0  0  0  0  0  0  0  0
    6.4745  -13.4745   27.1843 C   0  0  0  0  0  0  0  0  0  0  0  0
    7.3072  -12.4133   27.3983 C   0  0  0  0  0  0  0  0  0  0  0  0
    8.0377  -11.8892   26.3441 C   0  0  0  0  0  0  0  0  0  0  0  0
    7.9110  -12.4555   25.0754 C   0  0  0  0  0  0  0  0  0  0  0  0
    8.5064  -15.8877   24.1038 C   0  0  0  0  0  0  0  0  0  0  0  0
    7.7164  -16.8229   24.3706 O   0  0  0  0  0  0  0  0  0  0  0  0
    9.7338  -15.8283   24.8231 N   0  0  0  0  0  0  0  0  0  0  0  0
   10.0642  -16.7846   25.8802 C   0  0  1  0  0  0  0  0  0  0  0  0
   11.3770  -17.4384   25.6457 C   0  0  0  0  0  0  0  0  0  0  0  0
   11.3094  -18.3367   24.4754 C   0  0  0  0  0  0  0  0  0  0  0  0
   10.3840  -19.3000   24.1264 C   0  0  0  0  0  0  0  0  0  0  0  0
   10.7731  -19.8664   22.9748 N   0  0  0  0  0  0  0  0  0  0  0  0
   11.9149  -19.3046   22.5683 C   0  0  0  0  0  0  0  0  0  0  0  0
   12.2325  -18.3762   23.4871 N   0  0  0  0  0  0  0  0  0  0  0  0
    9.9438  -16.1569   27.2114 C   0  0  0  0  0  0  0  0  0  0  0  0
    9.6323  -16.9569   28.3021 O   0  0  0  0  0  0  0  0  0  0  0  0
   10.1079  -14.9378   27.4119 O   0  0  0  0  0  0  0  0  0  0  0  0
  2  3  1  1
  2  1  1  0
  4  2  1  0
  5  4  1  0
  5  6  1  6
  7  5  1  0
  7  8  2  0
  9  7  1  0
 10  9  1  0
 10 11  1  1
 12 11  1  0
 12 17  1  0
 13 12  2  0
 14 13  1  0
 14 15  2  0
 15 16  1  0
 16 17  2  0
 18 10  1  0
 19 18  2  0
 20 18  1  0
 21 20  1  0
 21 22  1  6
 22 23  1  0
 23 27  1  0
 24 23  2  0
 24 25  1  0
 25 26  1  0
 27 26  2  0
 28 21  1  0
 28 29  1  0
 30 28  2  0
M  END
$$$$
