LFH.pdb
     RDKit          3D

 30 31  0  0  1  0  0  0  0  0999 V2000
    6.5449  -15.0667   18.4922 C   0  0  0  0  0  0  0  0  0  0  0  0
    7.9866  -14.6647   18.5454 C   0  0  1  0  0  0  0  0  0  0  0  0
    8.0944  -13.2195   18.1088 C   0  0  0  0  0  0  0  0  0  0  0  0
    8.5484  -14.8756   19.9273 C   0  0  0  0  0  0  0  0  0  0  0  0
    7.6088  -14.4629   21.0107 C   0  0  2  0  0  0  0  0  0  0  0  0
    7.0967  -13.1417   20.7055 N   0  0  0  0  0  0  0  0  0  0  0  0
    8.3688  -14.4355   22.3045 C   0  0  0  0  0  0  0  0  0  0  0  0
    9.3684  -13.6610   22.4454 O   0  0  0  0  0  0  0  0  0  0  0  0
    7.9880  -15.2703   23.3910 N   0  0  0  0  0  0  0  0  0  0  0  0
    8.7510  -15.2392   24.5943 C   0  0  1  0  0  0  0  0  0  0  0  0
    7.9268  -15.0977   25.8371 C   0  0  0  0  0  0  0  0  0  0  0  0
    7.4625  -13.7427   26.1016 C   0  0  0  0  0  0  0  0  0  0  0  0
    8.3325  -12.7041   26.3209 C   0  0  0  0  0  0  0  0  0  0  0  0
    7.8873  -11.4110   26.5729 C   0  0  0  0  0  0  0  0  0  0  0  0
    6.5469  -11.1508   26.6066 C   0  0  0  0  0  0  0  0  0  0  0  0
    5.6418  -12.1770   26.3894 C   0  0  0  0  0  0  0  0  0  0  0  0
    6.1151  -13.4653   26.1386 C   0  0  0  0  0  0  0  0  0  0  0  0
    9.5953  -16.4817   24.7218 C   0  0  0  0  0  0  0  0  0  0  0  0
    9.0928  -17.6245   24.6141 O   0  0  0  0  0  0  0  0  0  0  0  0
   10.9944  -16.3912   24.9698 N   0  0  0  0  0  0  0  0  0  0  0  0
   11.8499  -17.5758   25.0484 C   0  0  1  0  0  0  0  0  0  0  0  0
   13.2560  -17.2694   24.6814 C   0  0  0  0  0  0  0  0  0  0  0  0
   13.3142  -16.5691   23.3824 C   0  0  0  0  0  0  0  0  0  0  0  0
   12.4105  -16.5197   22.3398 C   0  0  0  0  0  0  0  0  0  0  0  0
   12.9301  -15.7635   21.3618 N   0  0  0  0  0  0  0  0  0  0  0  0
   14.1351  -15.3235   21.7346 C   0  0  0  0  0  0  0  0  0  0  0  0
   14.3593  -15.8187   22.9641 N   0  0  0  0  0  0  0  0  0  0  0  0
   11.7103  -18.2370   26.3613 C   0  0  0  0  0  0  0  0  0  0  0  0
   12.3245  -19.4658   26.5597 O   0  0  0  0  0  0  0  0  0  0  0  0
   11.0661  -17.7486   27.3099 O   0  0  0  0  0  0  0  0  0  0  0  0
  2  3  1  1
  2  1  1  0
  4  2  1  0
  5  4  1  0
  5  6  1  6
  7  5  1  0
  7  8  2  0
  9  7  1  0
 10  9  1  0
 10 11  1  1
 12 11  1  0
 12 17  1  0
 13 12  2  0
 14 13  1  0
 14 15  2  0
 15 16  1  0
 16 17  2  0
 18 10  1  0
 19 18  2  0
 20 18  1  0
 21 20  1  0
 21 22  1  1
 22 23  1  0
 23 27  1  0
 24 23  2  0
 24 25  1  0
 25 26  1  0
 27 26  2  0
 28 21  1  0
 28 29  1  0
 30 28  2  0
M  END
$$$$
