ITD.pdb
     RDKit          3D

 24 23  0  0  1  0  0  0  0  0999 V2000
    6.4470  -11.6102   27.5669 C   0  0  0  0  0  0  0  0  0  0  0  0
    5.9001  -12.6546   26.6510 C   0  0  0  0  0  0  0  0  0  0  0  0
    6.9922  -13.3948   25.8868 C   0  0  2  0  0  0  0  0  0  0  0  0
    7.7319  -12.4842   24.9555 C   0  0  0  0  0  0  0  0  0  0  0  0
    6.3024  -14.5259   25.1415 C   0  0  2  0  0  0  0  0  0  0  0  0
    5.4692  -15.2733   26.0618 N   0  0  0  0  0  0  0  0  0  0  0  0
    7.2641  -15.4086   24.4401 C   0  0  0  0  0  0  0  0  0  0  0  0
    7.8041  -16.3838   25.0193 O   0  0  0  0  0  0  0  0  0  0  0  0
    6.7707  -16.3539   20.5201 C   0  0  0  0  0  0  0  0  0  0  0  0
    8.1958  -16.0778   20.8640 C   0  0  1  0  0  0  0  0  0  0  0  0
    8.6875  -14.9005   20.2921 O   0  0  0  0  0  0  0  0  0  0  0  0
    8.4871  -16.0297   22.3256 C   0  0  2  0  0  0  0  0  0  0  0  0
    7.6113  -15.1809   23.0781 N   0  0  0  0  0  0  0  0  0  0  0  0
    9.9285  -15.7589   22.6258 C   0  0  0  0  0  0  0  0  0  0  0  0
   10.2341  -14.7289   23.2778 O   0  0  0  0  0  0  0  0  0  0  0  0
   10.9751  -16.6087   22.2103 N   0  0  0  0  0  0  0  0  0  0  0  0
   12.3109  -16.5835   22.7930 C   0  0  1  0  0  0  0  0  0  0  0  0
   12.1479  -16.9345   24.2708 C   0  0  0  0  0  0  0  0  0  0  0  0
   13.4465  -17.0309   24.9531 C   0  0  0  0  0  0  0  0  0  0  0  0
   14.3357  -16.1376   24.8307 O   0  0  0  0  0  0  0  0  0  0  0  0
   13.2086  -17.5569   22.1304 C   0  0  0  0  0  0  0  0  0  0  0  0
   14.5318  -17.2081   21.9177 O   0  0  0  0  0  0  0  0  0  0  0  0
   13.7581  -18.1137   25.7685 O   0  0  0  0  0  0  0  0  0  0  0  0
   12.8392  -18.6905   21.7459 O   0  0  0  0  0  0  0  0  0  0  0  0
  2  1  1  0
  3  2  1  0
  3  5  1  0
  3  4  1  6
  5  7  1  0
  5  6  1  1
  7  8  2  0
 10 12  1  0
 10 11  1  0
 10  9  1  1
 12 13  1  1
 13  7  1  0
 14 12  1  0
 14 15  2  0
 16 14  1  0
 17 16  1  0
 17 21  1  0
 17 18  1  1
 19 23  1  0
 19 18  1  0
 20 19  2  0
 21 22  1  0
 24 21  2  0
M  END
$$$$
