ITD.pdb
     RDKit          3D

 24 23  0  0  1  0  0  0  0  0999 V2000
    6.8145  -11.3814   27.5620 C   0  0  0  0  0  0  0  0  0  0  0  0
    6.1759  -12.3917   26.6674 C   0  0  0  0  0  0  0  0  0  0  0  0
    7.1837  -13.3694   26.0733 C   0  0  2  0  0  0  0  0  0  0  0  0
    8.2163  -12.6673   25.2461 C   0  0  0  0  0  0  0  0  0  0  0  0
    6.3816  -14.3645   25.2505 C   0  0  2  0  0  0  0  0  0  0  0  0
    5.3438  -14.9486   26.0760 N   0  0  0  0  0  0  0  0  0  0  0  0
    7.2367  -15.4065   24.6348 C   0  0  0  0  0  0  0  0  0  0  0  0
    7.4942  -16.4820   25.2307 O   0  0  0  0  0  0  0  0  0  0  0  0
    7.3441  -15.9865   20.5715 C   0  0  0  0  0  0  0  0  0  0  0  0
    8.6865  -16.0871   21.2143 C   0  0  1  0  0  0  0  0  0  0  0  0
    9.5500  -15.0447   20.8641 O   0  0  0  0  0  0  0  0  0  0  0  0
    8.6607  -16.1758   22.7026 C   0  0  2  0  0  0  0  0  0  0  0  0
    7.7990  -15.2241   23.3394 N   0  0  0  0  0  0  0  0  0  0  0  0
   10.0284  -16.1922   23.3111 C   0  0  0  0  0  0  0  0  0  0  0  0
   10.5356  -15.1115   23.7041 O   0  0  0  0  0  0  0  0  0  0  0  0
   10.7879  -17.3705   23.4684 N   0  0  0  0  0  0  0  0  0  0  0  0
   12.1377  -17.3900   24.0181 C   0  0  1  0  0  0  0  0  0  0  0  0
   12.4142  -18.8313   24.4422 C   0  0  0  0  0  0  0  0  0  0  0  0
   12.5688  -18.9490   25.8994 C   0  0  0  0  0  0  0  0  0  0  0  0
   13.6529  -18.6555   26.4841 O   0  0  0  0  0  0  0  0  0  0  0  0
   13.1358  -16.9491   23.0173 C   0  0  0  0  0  0  0  0  0  0  0  0
   12.8246  -17.0546   21.6720 O   0  0  0  0  0  0  0  0  0  0  0  0
   11.5249  -19.3905   26.7056 O   0  0  0  0  0  0  0  0  0  0  0  0
   14.2583  -16.4807   23.3174 O   0  0  0  0  0  0  0  0  0  0  0  0
  2  1  1  0
  3  2  1  0
  3  5  1  0
  3  4  1  6
  5  7  1  0
  5  6  1  1
  7  8  2  0
 10 12  1  0
 10 11  1  0
 10  9  1  1
 12 13  1  1
 13  7  1  0
 14 12  1  0
 14 15  2  0
 16 14  1  0
 17 16  1  0
 17 21  1  0
 17 18  1  6
 19 23  1  0
 19 18  1  0
 20 19  2  0
 21 22  1  0
 24 21  2  0
M  END
$$$$
