ITD.pdb
     RDKit          3D

 24 23  0  0  1  0  0  0  0  0999 V2000
    6.8311  -11.1309   27.5025 C   0  0  0  0  0  0  0  0  0  0  0  0
    6.1784  -12.1061   26.5796 C   0  0  0  0  0  0  0  0  0  0  0  0
    7.1403  -13.1815   26.0867 C   0  0  2  0  0  0  0  0  0  0  0  0
    8.2887  -12.5922   25.3268 C   0  0  0  0  0  0  0  0  0  0  0  0
    6.3199  -14.1285   25.2261 C   0  0  2  0  0  0  0  0  0  0  0  0
    5.1783  -14.6023   25.9825 N   0  0  0  0  0  0  0  0  0  0  0  0
    7.1269  -15.2539   24.6985 C   0  0  0  0  0  0  0  0  0  0  0  0
    7.2611  -16.3245   25.3416 O   0  0  0  0  0  0  0  0  0  0  0  0
    7.3605  -16.1063   20.7015 C   0  0  0  0  0  0  0  0  0  0  0  0
    8.6779  -16.1973   21.3956 C   0  0  1  0  0  0  0  0  0  0  0  0
    9.5763  -15.1954   21.0163 O   0  0  0  0  0  0  0  0  0  0  0  0
    8.6001  -16.1985   22.8847 C   0  0  2  0  0  0  0  0  0  0  0  0
    7.7814  -15.1603   23.4374 N   0  0  0  0  0  0  0  0  0  0  0  0
    9.9443  -16.2646   23.5402 C   0  0  0  0  0  0  0  0  0  0  0  0
   10.4743  -15.2037   23.9563 O   0  0  0  0  0  0  0  0  0  0  0  0
   10.6569  -17.4691   23.7177 N   0  0  0  0  0  0  0  0  0  0  0  0
   11.9943  -17.5350   24.2935 C   0  0  1  0  0  0  0  0  0  0  0  0
   12.1698  -18.9564   24.8251 C   0  0  0  0  0  0  0  0  0  0  0  0
   11.5603  -19.1192   26.1530 C   0  0  0  0  0  0  0  0  0  0  0  0
   11.4044  -20.2583   26.6836 O   0  0  0  0  0  0  0  0  0  0  0  0
   13.0337  -17.2331   23.2832 C   0  0  0  0  0  0  0  0  0  0  0  0
   14.3395  -17.0440   23.7039 O   0  0  0  0  0  0  0  0  0  0  0  0
   11.1254  -18.0228   26.8902 O   0  0  0  0  0  0  0  0  0  0  0  0
   12.8007  -17.1371   22.0560 O   0  0  0  0  0  0  0  0  0  0  0  0
  2  1  1  0
  3  2  1  0
  3  5  1  0
  3  4  1  6
  5  7  1  0
  5  6  1  1
  7  8  2  0
 10 12  1  0
 10 11  1  0
 10  9  1  6
 12 13  1  1
 13  7  1  0
 14 12  1  0
 14 15  2  0
 16 14  1  0
 17 16  1  0
 17 21  1  0
 17 18  1  6
 19 23  1  0
 19 18  1  0
 20 19  2  0
 21 22  1  0
 24 21  2  0
M  END
$$$$
