ITD.pdb
     RDKit          3D

 24 23  0  0  1  0  0  0  0  0999 V2000
    9.4153  -16.0900   14.4483 C   0  0  0  0  0  0  0  0  0  0  0  0
    8.5176  -15.4178   15.4338 C   0  0  0  0  0  0  0  0  0  0  0  0
    9.2278  -15.0827   16.7407 C   0  0  2  0  0  0  0  0  0  0  0  0
    9.8798  -16.2892   17.3429 C   0  0  0  0  0  0  0  0  0  0  0  0
    8.1732  -14.4914   17.6621 C   0  0  2  0  0  0  0  0  0  0  0  0
    7.5328  -13.3693   17.0059 N   0  0  0  0  0  0  0  0  0  0  0  0
    8.7285  -14.1050   18.9806 C   0  0  0  0  0  0  0  0  0  0  0  0
    9.4573  -13.0907   19.1150 O   0  0  0  0  0  0  0  0  0  0  0  0
    7.1392  -13.1502   22.2636 C   0  0  0  0  0  0  0  0  0  0  0  0
    8.0135  -14.3344   22.5057 C   0  0  1  0  0  0  0  0  0  0  0  0
    7.2999  -15.5171   22.7220 O   0  0  0  0  0  0  0  0  0  0  0  0
    9.0175  -14.5982   21.4353 C   0  0  2  0  0  0  0  0  0  0  0  0
    8.4536  -14.8739   20.1470 N   0  0  0  0  0  0  0  0  0  0  0  0
   10.0406  -15.6168   21.8316 C   0  0  0  0  0  0  0  0  0  0  0  0
    9.8290  -16.8283   21.5731 O   0  0  0  0  0  0  0  0  0  0  0  0
   11.2443  -15.2850   22.4882 N   0  0  0  0  0  0  0  0  0  0  0  0
   12.2157  -16.2753   22.9356 C   0  0  1  0  0  0  0  0  0  0  0  0
   13.4865  -15.5072   23.2945 C   0  0  0  0  0  0  0  0  0  0  0  0
   14.6868  -16.3435   23.1482 C   0  0  0  0  0  0  0  0  0  0  0  0
   14.7528  -17.2775   22.2958 O   0  0  0  0  0  0  0  0  0  0  0  0
   11.7205  -17.0261   24.1118 C   0  0  0  0  0  0  0  0  0  0  0  0
   12.1169  -18.3423   24.2796 O   0  0  0  0  0  0  0  0  0  0  0  0
   15.8100  -16.1446   23.9441 O   0  0  0  0  0  0  0  0  0  0  0  0
   10.9553  -16.5369   24.9746 O   0  0  0  0  0  0  0  0  0  0  0  0
  2  1  1  0
  3  2  1  0
  3  5  1  0
  3  4  1  1
  5  7  1  0
  5  6  1  6
  7  8  2  0
 10 12  1  0
 10 11  1  0
 10  9  1  6
 12 13  1  6
 13  7  1  0
 14 12  1  0
 14 15  2  0
 16 14  1  0
 17 16  1  0
 17 21  1  0
 17 18  1  1
 19 23  1  0
 19 18  1  0
 20 19  2  0
 21 22  1  0
 24 21  2  0
M  END
$$$$
