ITD.pdb
     RDKit          3D

 24 23  0  0  1  0  0  0  0  0999 V2000
    7.7553  -11.6059   20.3607 C   0  0  0  0  0  0  0  0  0  0  0  0
    7.8694  -12.9725   19.7707 C   0  0  0  0  0  0  0  0  0  0  0  0
    8.1942  -14.0364   20.8134 C   0  0  2  0  0  0  0  0  0  0  0  0
    9.4593  -13.7220   21.5510 C   0  0  0  0  0  0  0  0  0  0  0  0
    8.2899  -15.3556   20.0642 C   0  0  2  0  0  0  0  0  0  0  0  0
    7.0824  -15.5600   19.2897 N   0  0  0  0  0  0  0  0  0  0  0  0
    8.5559  -16.4996   20.9679 C   0  0  0  0  0  0  0  0  0  0  0  0
    7.6647  -16.9615   21.7231 O   0  0  0  0  0  0  0  0  0  0  0  0
    9.3176  -19.9715   20.1709 C   0  0  0  0  0  0  0  0  0  0  0  0
   10.4339  -19.5041   21.0432 C   0  0  1  0  0  0  0  0  0  0  0  0
   11.6330  -19.3049   20.3525 O   0  0  0  0  0  0  0  0  0  0  0  0
   10.1434  -18.2633   21.8174 C   0  0  2  0  0  0  0  0  0  0  0  0
    9.8375  -17.1184   21.0115 N   0  0  0  0  0  0  0  0  0  0  0  0
   11.1836  -17.9623   22.8512 C   0  0  0  0  0  0  0  0  0  0  0  0
   11.8269  -16.8853   22.7755 O   0  0  0  0  0  0  0  0  0  0  0  0
   11.4841  -18.8341   23.9188 N   0  0  0  0  0  0  0  0  0  0  0  0
   12.3873  -18.4887   25.0094 C   0  0  1  0  0  0  0  0  0  0  0  0
   12.2162  -19.5696   26.0752 C   0  0  0  0  0  0  0  0  0  0  0  0
   10.9324  -19.4400   26.7797 C   0  0  0  0  0  0  0  0  0  0  0  0
   10.1923  -18.4218   26.6420 O   0  0  0  0  0  0  0  0  0  0  0  0
   13.7943  -18.4381   24.5511 C   0  0  0  0  0  0  0  0  0  0  0  0
   14.7056  -17.6863   25.2736 O   0  0  0  0  0  0  0  0  0  0  0  0
   10.4707  -20.4359   27.6338 O   0  0  0  0  0  0  0  0  0  0  0  0
   14.2153  -19.0414   23.5371 O   0  0  0  0  0  0  0  0  0  0  0  0
  2  1  1  0
  3  2  1  0
  3  5  1  0
  3  4  1  6
  5  7  1  0
  5  6  1  1
  7  8  2  0
 10 12  1  0
 10 11  1  0
 10  9  1  6
 12 13  1  6
 13  7  1  0
 14 12  1  0
 14 15  2  0
 16 14  1  0
 17 16  1  0
 17 21  1  0
 17 18  1  1
 19 23  1  0
 19 18  1  0
 20 19  2  0
 21 22  1  0
 24 21  2  0
M  END
$$$$
