ITD.pdb
     RDKit          3D

 24 23  0  0  1  0  0  0  0  0999 V2000
    8.5027  -12.5993   27.5768 C   0  0  0  0  0  0  0  0  0  0  0  0
    7.7258  -13.7472   27.0223 C   0  0  0  0  0  0  0  0  0  0  0  0
    7.0447  -13.4106   25.7004 C   0  0  2  0  0  0  0  0  0  0  0  0
    6.0209  -12.3295   25.8636 C   0  0  0  0  0  0  0  0  0  0  0  0
    6.4252  -14.7038   25.1959 C   0  0  2  0  0  0  0  0  0  0  0  0
    5.5452  -15.2462   26.2114 N   0  0  0  0  0  0  0  0  0  0  0  0
    7.4463  -15.6929   24.7774 C   0  0  0  0  0  0  0  0  0  0  0  0
    7.7072  -16.7038   25.4760 O   0  0  0  0  0  0  0  0  0  0  0  0
    7.5860  -17.1777   21.1496 C   0  0  0  0  0  0  0  0  0  0  0  0
    8.9524  -16.7663   21.5846 C   0  0  1  0  0  0  0  0  0  0  0  0
    9.4398  -15.6479   20.9018 O   0  0  0  0  0  0  0  0  0  0  0  0
    9.0892  -16.5024   23.0458 C   0  0  2  0  0  0  0  0  0  0  0  0
    8.1708  -15.5310   23.5624 N   0  0  0  0  0  0  0  0  0  0  0  0
   10.4998  -16.2190   23.4591 C   0  0  0  0  0  0  0  0  0  0  0  0
   10.8542  -15.0279   23.6470 O   0  0  0  0  0  0  0  0  0  0  0  0
   11.4646  -17.2301   23.6510 N   0  0  0  0  0  0  0  0  0  0  0  0
   12.8723  -16.9590   23.9150 C   0  0  1  0  0  0  0  0  0  0  0  0
   13.4954  -18.2826   24.3549 C   0  0  0  0  0  0  0  0  0  0  0  0
   13.1740  -18.5961   25.7548 C   0  0  0  0  0  0  0  0  0  0  0  0
   13.0751  -17.6938   26.6378 O   0  0  0  0  0  0  0  0  0  0  0  0
   13.5595  -16.4441   22.7089 C   0  0  0  0  0  0  0  0  0  0  0  0
   14.6264  -15.5756   22.8674 O   0  0  0  0  0  0  0  0  0  0  0  0
   12.9627  -19.9053   26.1742 O   0  0  0  0  0  0  0  0  0  0  0  0
   13.2303  -16.7501   21.5395 O   0  0  0  0  0  0  0  0  0  0  0  0
  2  1  1  0
  3  2  1  0
  3  5  1  0
  3  4  1  1
  5  7  1  0
  5  6  1  1
  7  8  2  0
 10 12  1  0
 10 11  1  0
 10  9  1  1
 12 13  1  6
 13  7  1  0
 14 12  1  0
 14 15  2  0
 16 14  1  0
 17 16  1  0
 17 21  1  0
 17 18  1  6
 19 23  1  0
 19 18  1  0
 20 19  2  0
 21 22  1  0
 24 21  2  0
M  END
$$$$
