ITD.pdb
     RDKit          3D

 24 23  0  0  1  0  0  0  0  0999 V2000
    6.5361  -11.4252   27.6841 C   0  0  0  0  0  0  0  0  0  0  0  0
    5.9612  -12.5406   26.8752 C   0  0  0  0  0  0  0  0  0  0  0  0
    7.0329  -13.3798   26.1883 C   0  0  2  0  0  0  0  0  0  0  0  0
    7.8808  -12.5536   25.2709 C   0  0  0  0  0  0  0  0  0  0  0  0
    6.3002  -14.4821   25.4408 C   0  0  2  0  0  0  0  0  0  0  0  0
    5.4130  -15.1765   26.3521 N   0  0  0  0  0  0  0  0  0  0  0  0
    7.2284  -15.4198   24.7662 C   0  0  0  0  0  0  0  0  0  0  0  0
    7.6982  -16.4215   25.3612 O   0  0  0  0  0  0  0  0  0  0  0  0
    6.8773  -16.0079   20.7320 C   0  0  0  0  0  0  0  0  0  0  0  0
    8.2927  -16.0565   21.2007 C   0  0  1  0  0  0  0  0  0  0  0  0
    9.0703  -14.9934   20.7317 O   0  0  0  0  0  0  0  0  0  0  0  0
    8.4580  -16.1224   22.6812 C   0  0  2  0  0  0  0  0  0  0  0  0
    7.6221  -15.2170   23.4130 N   0  0  0  0  0  0  0  0  0  0  0  0
    9.8889  -16.0421   23.1139 C   0  0  0  0  0  0  0  0  0  0  0  0
   10.3675  -14.9264   23.4388 O   0  0  0  0  0  0  0  0  0  0  0  0
   10.7393  -17.1659   23.1767 N   0  0  0  0  0  0  0  0  0  0  0  0
   12.1470  -17.0895   23.5468 C   0  0  1  0  0  0  0  0  0  0  0  0
   12.5602  -18.4951   23.9798 C   0  0  0  0  0  0  0  0  0  0  0  0
   13.3986  -18.4676   25.1871 C   0  0  0  0  0  0  0  0  0  0  0  0
   13.8351  -17.3837   25.6752 O   0  0  0  0  0  0  0  0  0  0  0  0
   12.9814  -16.6366   22.4106 C   0  0  0  0  0  0  0  0  0  0  0  0
   12.4408  -16.6549   21.1358 O   0  0  0  0  0  0  0  0  0  0  0  0
   13.7517  -19.6376   25.8510 O   0  0  0  0  0  0  0  0  0  0  0  0
   14.1609  -16.2330   22.5341 O   0  0  0  0  0  0  0  0  0  0  0  0
  2  1  1  0
  3  2  1  0
  3  5  1  0
  3  4  1  6
  5  7  1  0
  5  6  1  1
  7  8  2  0
 10 12  1  0
 10 11  1  0
 10  9  1  1
 12 13  1  1
 13  7  1  0
 14 12  1  0
 14 15  2  0
 16 14  1  0
 17 16  1  0
 17 21  1  0
 17 18  1  6
 19 23  1  0
 19 18  1  0
 20 19  2  0
 21 22  1  0
 24 21  2  0
M  END
$$$$
