ITD.pdb
     RDKit          3D

 24 23  0  0  1  0  0  0  0  0999 V2000
    7.1441  -11.3489   27.7906 C   0  0  0  0  0  0  0  0  0  0  0  0
    6.4285  -12.4196   27.0354 C   0  0  0  0  0  0  0  0  0  0  0  0
    7.3815  -13.3592   26.3050 C   0  0  2  0  0  0  0  0  0  0  0  0
    8.2680  -12.6186   25.3515 C   0  0  0  0  0  0  0  0  0  0  0  0
    6.5120  -14.3809   25.5903 C   0  0  2  0  0  0  0  0  0  0  0  0
    5.6201  -15.0082   26.5447 N   0  0  0  0  0  0  0  0  0  0  0  0
    7.3130  -15.3865   24.8532 C   0  0  0  0  0  0  0  0  0  0  0  0
    7.6339  -16.4827   25.3762 O   0  0  0  0  0  0  0  0  0  0  0  0
    6.8087  -15.7351   20.8616 C   0  0  0  0  0  0  0  0  0  0  0  0
    8.2271  -15.9768   21.2555 C   0  0  1  0  0  0  0  0  0  0  0  0
    9.1114  -15.0087   20.7701 O   0  0  0  0  0  0  0  0  0  0  0  0
    8.4540  -16.1047   22.7237 C   0  0  2  0  0  0  0  0  0  0  0  0
    7.7488  -15.1440   23.5196 N   0  0  0  0  0  0  0  0  0  0  0  0
    9.9044  -16.1804   23.0867 C   0  0  0  0  0  0  0  0  0  0  0  0
   10.4472  -15.1937   23.6447 O   0  0  0  0  0  0  0  0  0  0  0  0
   10.7044  -17.3141   22.8323 N   0  0  0  0  0  0  0  0  0  0  0  0
   12.1300  -17.3757   23.1297 C   0  0  1  0  0  0  0  0  0  0  0  0
   12.7214  -16.0323   22.7061 C   0  0  0  0  0  0  0  0  0  0  0  0
   14.1660  -15.9665   22.9712 C   0  0  0  0  0  0  0  0  0  0  0  0
   14.9579  -16.8817   22.5988 O   0  0  0  0  0  0  0  0  0  0  0  0
   12.3723  -17.6114   24.5712 C   0  0  0  0  0  0  0  0  0  0  0  0
   11.3041  -17.5362   25.4492 O   0  0  0  0  0  0  0  0  0  0  0  0
   14.7305  -14.8897   23.6467 O   0  0  0  0  0  0  0  0  0  0  0  0
   13.4986  -17.8780   25.0504 O   0  0  0  0  0  0  0  0  0  0  0  0
  2  1  1  0
  3  2  1  0
  3  5  1  0
  3  4  1  6
  5  7  1  0
  5  6  1  1
  7  8  2  0
 10 12  1  0
 10 11  1  0
 10  9  1  1
 12 13  1  1
 13  7  1  0
 14 12  1  0
 14 15  2  0
 16 14  1  0
 17 16  1  0
 17 21  1  0
 17 18  1  1
 19 23  1  0
 19 18  1  0
 20 19  2  0
 21 22  1  0
 24 21  2  0
M  END
$$$$
