QSR.pdb
     RDKit          3D

 27 26  0  0  1  0  0  0  0  0999 V2000
    8.6690  -12.5839   17.6820 N   0  0  0  0  0  0  0  0  0  0  0  0
    7.9090  -13.7683   17.5990 C   0  0  0  0  0  0  0  0  0  0  0  0
    7.3894  -14.1088   16.5091 O   0  0  0  0  0  0  0  0  0  0  0  0
    7.7299  -14.5986   18.7930 C   0  0  0  0  0  0  0  0  0  0  0  0
    8.4356  -13.9919   20.0116 C   0  0  0  0  0  0  0  0  0  0  0  0
    8.2883  -15.0011   21.1377 C   0  0  2  0  0  0  0  0  0  0  0  0
    6.8870  -15.3777   21.1667 N   0  0  0  0  0  0  0  0  0  0  0  0
    8.6638  -14.4539   22.4413 C   0  0  0  0  0  0  0  0  0  0  0  0
    9.8856  -14.2028   22.7095 O   0  0  0  0  0  0  0  0  0  0  0  0
    5.9353  -13.5426   25.6538 O   0  0  0  0  0  0  0  0  0  0  0  0
    7.0704  -12.8243   25.3484 C   0  0  0  0  0  0  0  0  0  0  0  0
    8.1839  -13.7365   24.8174 C   0  0  2  0  0  0  0  0  0  0  0  0
    7.7547  -14.1570   23.4984 N   0  0  0  0  0  0  0  0  0  0  0  0
    8.2876  -14.8597   25.7737 C   0  0  0  0  0  0  0  0  0  0  0  0
    7.7348  -15.9700   25.5569 O   0  0  0  0  0  0  0  0  0  0  0  0
   10.1834  -22.0000   27.9879 N   0  0  0  0  0  0  0  0  0  0  0  0
   10.8160  -20.8732   28.5957 C   0  0  0  0  0  0  0  0  0  0  0  0
   10.7091  -20.7177   29.8756 N   0  0  0  0  0  0  0  0  0  0  0  0
   11.5479  -19.9469   27.7918 N   0  0  0  0  0  0  0  0  0  0  0  0
   10.8615  -18.9578   27.0155 C   0  0  0  0  0  0  0  0  0  0  0  0
   11.3198  -17.5981   27.4841 C   0  0  0  0  0  0  0  0  0  0  0  0
   10.6361  -16.4781   26.7731 C   0  0  0  0  0  0  0  0  0  0  0  0
    9.6848  -15.7382   27.6769 C   0  0  2  0  0  0  0  0  0  0  0  0
    9.0439  -14.6289   26.9564 N   0  0  0  0  0  0  0  0  0  0  0  0
   10.2997  -15.2557   28.9321 C   0  0  0  0  0  0  0  0  0  0  0  0
   10.3731  -16.0205   30.0813 O   0  0  0  0  0  0  0  0  0  0  0  0
   10.7841  -14.0960   28.9752 O   0  0  0  0  0  0  0  0  0  0  0  0
  1  2  1  0
  2  4  1  0
  2  3  2  0
  4  5  1  0
  5  6  1  0
  6  7  1  1
  6  8  1  0
  8 13  1  0
  8  9  2  0
 11 10  1  0
 12 11  1  1
 13 12  1  0
 14 12  1  0
 14 15  2  0
 17 19  1  0
 17 16  1  0
 18 17  2  0
 20 19  1  0
 20 21  1  0
 21 22  1  0
 23 22  1  6
 23 24  1  0
 24 14  1  0
 25 23  1  0
 26 25  1  0
 27 25  2  0
M  END
$$$$
