QSR.pdb
     RDKit          3D

 27 26  0  0  1  0  0  0  0  0999 V2000
   10.3533  -17.7192   12.8395 N   0  0  0  0  0  0  0  0  0  0  0  0
    9.0887  -17.3028   12.3760 C   0  0  0  0  0  0  0  0  0  0  0  0
    8.4218  -18.0427   11.6135 O   0  0  0  0  0  0  0  0  0  0  0  0
    8.5587  -16.0010   12.7902 C   0  0  0  0  0  0  0  0  0  0  0  0
    8.1629  -15.9999   14.2716 C   0  0  0  0  0  0  0  0  0  0  0  0
    7.5963  -14.6204   14.5619 C   0  0  2  0  0  0  0  0  0  0  0  0
    7.7483  -13.8520   13.3402 N   0  0  0  0  0  0  0  0  0  0  0  0
    8.2987  -13.9367   15.6477 C   0  0  0  0  0  0  0  0  0  0  0  0
    9.5409  -13.6645   15.5439 O   0  0  0  0  0  0  0  0  0  0  0  0
    6.7395  -14.2784   19.4654 O   0  0  0  0  0  0  0  0  0  0  0  0
    7.4257  -13.1128   19.2037 C   0  0  0  0  0  0  0  0  0  0  0  0
    8.4639  -13.3123   18.0918 C   0  0  2  0  0  0  0  0  0  0  0  0
    7.7044  -13.5217   16.8753 N   0  0  0  0  0  0  0  0  0  0  0  0
    9.2630  -14.4940   18.4815 C   0  0  0  0  0  0  0  0  0  0  0  0
    9.5549  -15.3999   17.6571 O   0  0  0  0  0  0  0  0  0  0  0  0
   16.4819  -14.3217   19.9224 N   0  0  0  0  0  0  0  0  0  0  0  0
   16.0941  -14.1408   18.5600 C   0  0  0  0  0  0  0  0  0  0  0  0
   16.8224  -13.3855   17.8031 N   0  0  0  0  0  0  0  0  0  0  0  0
   14.9232  -14.7880   18.0599 N   0  0  0  0  0  0  0  0  0  0  0  0
   14.1463  -15.6416   18.9082 C   0  0  0  0  0  0  0  0  0  0  0  0
   13.4589  -14.7756   19.9358 C   0  0  0  0  0  0  0  0  0  0  0  0
   12.1027  -14.3270   19.5035 C   0  0  0  0  0  0  0  0  0  0  0  0
   11.0100  -15.1031   20.1911 C   0  0  2  0  0  0  0  0  0  0  0  0
    9.6900  -14.5624   19.8369 N   0  0  0  0  0  0  0  0  0  0  0  0
   11.1614  -15.1827   21.6599 C   0  0  0  0  0  0  0  0  0  0  0  0
   11.8881  -16.1738   22.2929 O   0  0  0  0  0  0  0  0  0  0  0  0
   10.6089  -14.3160   22.3844 O   0  0  0  0  0  0  0  0  0  0  0  0
  1  2  1  0
  2  4  1  0
  2  3  2  0
  4  5  1  0
  5  6  1  0
  6  7  1  6
  6  8  1  0
  8 13  1  0
  8  9  2  0
 11 10  1  0
 12 11  1  1
 13 12  1  0
 14 12  1  0
 14 15  2  0
 17 19  1  0
 17 16  1  0
 18 17  2  0
 20 19  1  0
 20 21  1  0
 21 22  1  0
 23 22  1  1
 23 24  1  0
 24 14  1  0
 25 23  1  0
 26 25  1  0
 27 25  2  0
M  END
$$$$
