QSR.pdb
     RDKit          3D

 27 26  0  0  1  0  0  0  0  0999 V2000
   11.4387  -16.8774   16.0486 N   0  0  0  0  0  0  0  0  0  0  0  0
   10.3153  -17.6905   16.3017 C   0  0  0  0  0  0  0  0  0  0  0  0
   10.4245  -18.9401   16.2833 O   0  0  0  0  0  0  0  0  0  0  0  0
    9.0199  -17.0672   16.5863 C   0  0  0  0  0  0  0  0  0  0  0  0
    9.1327  -15.5394   16.6520 C   0  0  0  0  0  0  0  0  0  0  0  0
    8.0364  -15.0697   17.5931 C   0  0  2  0  0  0  0  0  0  0  0  0
    7.3473  -13.9907   16.9096 N   0  0  0  0  0  0  0  0  0  0  0  0
    8.5574  -14.5737   18.8668 C   0  0  0  0  0  0  0  0  0  0  0  0
    9.7144  -14.0395   18.9281 O   0  0  0  0  0  0  0  0  0  0  0  0
    6.4783  -14.9600   22.4973 O   0  0  0  0  0  0  0  0  0  0  0  0
    7.2394  -13.8350   22.2671 C   0  0  0  0  0  0  0  0  0  0  0  0
    8.4337  -14.1444   21.3550 C   0  0  2  0  0  0  0  0  0  0  0  0
    7.8666  -14.6296   20.1126 N   0  0  0  0  0  0  0  0  0  0  0  0
    9.2359  -15.1678   22.0594 C   0  0  0  0  0  0  0  0  0  0  0  0
    9.1953  -16.3834   21.7341 O   0  0  0  0  0  0  0  0  0  0  0  0
    9.2576  -16.1987   29.2558 N   0  0  0  0  0  0  0  0  0  0  0  0
   10.5297  -15.5499   29.2466 C   0  0  0  0  0  0  0  0  0  0  0  0
   10.7264  -14.5593   30.0551 N   0  0  0  0  0  0  0  0  0  0  0  0
   11.5526  -15.9987   28.3564 N   0  0  0  0  0  0  0  0  0  0  0  0
   11.2124  -16.6744   27.1401 C   0  0  0  0  0  0  0  0  0  0  0  0
   10.2975  -15.7729   26.3472 C   0  0  0  0  0  0  0  0  0  0  0  0
    9.9947  -16.3050   24.9861 C   0  0  0  0  0  0  0  0  0  0  0  0
   10.8515  -15.6596   23.9286 C   0  0  2  0  0  0  0  0  0  0  0  0
   10.0602  -14.7153   23.1270 N   0  0  0  0  0  0  0  0  0  0  0  0
   11.5540  -16.6222   23.0531 C   0  0  0  0  0  0  0  0  0  0  0  0
   10.9058  -17.6289   22.3620 O   0  0  0  0  0  0  0  0  0  0  0  0
   12.8014  -16.5367   22.9189 O   0  0  0  0  0  0  0  0  0  0  0  0
  1  2  1  0
  2  4  1  0
  2  3  2  0
  4  5  1  0
  5  6  1  0
  6  7  1  6
  6  8  1  0
  8 13  1  0
  8  9  2  0
 11 10  1  0
 12 11  1  1
 13 12  1  0
 14 12  1  0
 14 15  2  0
 17 19  1  0
 17 16  1  0
 18 17  2  0
 20 19  1  0
 20 21  1  0
 21 22  1  0
 23 22  1  1
 23 24  1  0
 24 14  1  0
 25 23  1  0
 26 25  1  0
 27 25  2  0
M  END
$$$$
