QSR.pdb
     RDKit          3D

 27 26  0  0  1  0  0  0  0  0999 V2000
    4.8571  -19.1218   17.1926 N   0  0  0  0  0  0  0  0  0  0  0  0
    5.6131  -19.1717   16.0038 C   0  0  0  0  0  0  0  0  0  0  0  0
    5.2251  -19.8734   15.0390 O   0  0  0  0  0  0  0  0  0  0  0  0
    6.8543  -18.3994   15.9024 C   0  0  0  0  0  0  0  0  0  0  0  0
    7.1472  -17.6321   17.1972 C   0  0  0  0  0  0  0  0  0  0  0  0
    8.2043  -16.5972   16.8512 C   0  0  2  0  0  0  0  0  0  0  0  0
    9.2330  -17.2988   16.1057 N   0  0  0  0  0  0  0  0  0  0  0  0
    8.8056  -15.9842   18.0355 C   0  0  0  0  0  0  0  0  0  0  0  0
    9.9297  -16.3960   18.4766 O   0  0  0  0  0  0  0  0  0  0  0  0
    6.4996  -13.8689   20.8159 O   0  0  0  0  0  0  0  0  0  0  0  0
    7.7720  -13.4038   20.5658 C   0  0  0  0  0  0  0  0  0  0  0  0
    8.7003  -14.5347   20.1039 C   0  0  2  0  0  0  0  0  0  0  0  0
    8.2325  -14.9165   18.7864 N   0  0  0  0  0  0  0  0  0  0  0  0
    8.5582  -15.6176   21.1009 C   0  0  0  0  0  0  0  0  0  0  0  0
    7.8771  -16.6505   20.8673 O   0  0  0  0  0  0  0  0  0  0  0  0
   13.2398  -22.0396   22.8786 N   0  0  0  0  0  0  0  0  0  0  0  0
   13.8569  -20.8655   23.4077 C   0  0  0  0  0  0  0  0  0  0  0  0
   14.8535  -21.0017   24.2211 N   0  0  0  0  0  0  0  0  0  0  0  0
   13.3707  -19.5751   23.0355 N   0  0  0  0  0  0  0  0  0  0  0  0
   12.1389  -19.4422   22.3165 C   0  0  0  0  0  0  0  0  0  0  0  0
   11.2245  -18.5504   23.1209 C   0  0  0  0  0  0  0  0  0  0  0  0
   10.6558  -17.4274   22.3191 C   0  0  0  0  0  0  0  0  0  0  0  0
    9.6962  -16.5925   23.1259 C   0  0  2  0  0  0  0  0  0  0  0  0
    9.2289  -15.4396   22.3429 N   0  0  0  0  0  0  0  0  0  0  0  0
   10.2332  -16.1505   24.4308 C   0  0  0  0  0  0  0  0  0  0  0  0
   10.3438  -14.8208   24.7922 O   0  0  0  0  0  0  0  0  0  0  0  0
   10.6131  -17.0118   25.2647 O   0  0  0  0  0  0  0  0  0  0  0  0
  1  2  1  0
  2  4  1  0
  2  3  2  0
  4  5  1  0
  5  6  1  0
  6  7  1  1
  6  8  1  0
  8 13  1  0
  8  9  2  0
 11 10  1  0
 12 11  1  1
 13 12  1  0
 14 12  1  0
 14 15  2  0
 17 19  1  0
 17 16  1  0
 18 17  2  0
 20 19  1  0
 20 21  1  0
 21 22  1  0
 23 22  1  6
 23 24  1  0
 24 14  1  0
 25 23  1  0
 26 25  1  0
 27 25  2  0
M  END
$$$$
