QSR.pdb
     RDKit          3D

 27 26  0  0  1  0  0  0  0  0999 V2000
   11.3106  -16.6863   13.0463 N   0  0  0  0  0  0  0  0  0  0  0  0
    9.9711  -16.2909   12.8547 C   0  0  0  0  0  0  0  0  0  0  0  0
    9.4535  -16.3503   11.7135 O   0  0  0  0  0  0  0  0  0  0  0  0
    9.1878  -15.8104   13.9961 C   0  0  0  0  0  0  0  0  0  0  0  0
    9.9887  -15.8886   15.3013 C   0  0  0  0  0  0  0  0  0  0  0  0
    8.9957  -16.2551   16.3912 C   0  0  2  0  0  0  0  0  0  0  0  0
    7.6954  -15.8116   15.9237 N   0  0  0  0  0  0  0  0  0  0  0  0
    9.2918  -15.6064   17.6684 C   0  0  0  0  0  0  0  0  0  0  0  0
   10.4525  -15.7035   18.1892 O   0  0  0  0  0  0  0  0  0  0  0  0
    6.3377  -14.3203   20.5398 O   0  0  0  0  0  0  0  0  0  0  0  0
    7.4202  -13.5427   20.1914 C   0  0  0  0  0  0  0  0  0  0  0  0
    8.6235  -14.4062   19.7906 C   0  0  2  0  0  0  0  0  0  0  0  0
    8.3657  -14.8359   18.4306 N   0  0  0  0  0  0  0  0  0  0  0  0
    8.6625  -15.5299   20.7511 C   0  0  0  0  0  0  0  0  0  0  0  0
    8.0698  -16.6176   20.5255 O   0  0  0  0  0  0  0  0  0  0  0  0
   15.1148  -19.0955   21.4009 N   0  0  0  0  0  0  0  0  0  0  0  0
   14.3536  -20.2394   21.7901 C   0  0  0  0  0  0  0  0  0  0  0  0
   14.9446  -21.3890   21.8426 N   0  0  0  0  0  0  0  0  0  0  0  0
   12.9690  -20.0988   22.1114 N   0  0  0  0  0  0  0  0  0  0  0  0
   12.1518  -19.1559   21.4077 C   0  0  0  0  0  0  0  0  0  0  0  0
   12.2146  -17.8421   22.1481 C   0  0  0  0  0  0  0  0  0  0  0  0
   11.3169  -16.8028   21.5638 C   0  0  0  0  0  0  0  0  0  0  0  0
   10.2280  -16.3990   22.5231 C   0  0  2  0  0  0  0  0  0  0  0  0
    9.4037  -15.3263   21.9483 N   0  0  0  0  0  0  0  0  0  0  0  0
   10.7192  -16.0146   23.8638 C   0  0  0  0  0  0  0  0  0  0  0  0
   10.9881  -16.9317   24.8626 O   0  0  0  0  0  0  0  0  0  0  0  0
   10.9069  -14.7992   24.1264 O   0  0  0  0  0  0  0  0  0  0  0  0
  1  2  1  0
  2  4  1  0
  2  3  2  0
  4  5  1  0
  5  6  1  0
  6  7  1  6
  6  8  1  0
  8 13  1  0
  8  9  2  0
 11 10  1  0
 12 11  1  1
 13 12  1  0
 14 12  1  0
 14 15  2  0
 17 19  1  0
 17 16  1  0
 18 17  2  0
 20 19  1  0
 20 21  1  0
 21 22  1  0
 23 22  1  6
 23 24  1  0
 24 14  1  0
 25 23  1  0
 26 25  1  0
 27 25  2  0
M  END
$$$$
