KPP.pdb
     RDKit          3D

 24 25  0  0  1  0  0  0  0  0999 V2000
   26.7955  -23.3543  -17.7123 N   0  0  0  0  0  0  0  0  0  0  0  0
   26.8886  -22.0091  -17.1963 C   0  0  1  0  0  0  0  0  0  0  0  0
   25.9459  -21.0892  -17.8846 C   0  0  0  0  0  0  0  0  0  0  0  0
   24.6794  -21.6500  -18.3449 C   0  0  0  0  0  0  0  0  0  0  0  0
   23.3784  -21.2944  -17.7962 C   0  0  0  0  0  0  0  0  0  0  0  0
   22.1367  -21.9178  -18.2927 C   0  0  0  0  0  0  0  0  0  0  0  0
   21.0218  -21.3547  -17.4758 N   0  0  0  0  0  0  0  0  0  0  0  0
   26.6570  -21.9400  -15.7046 C   0  0  0  0  0  0  0  0  0  0  0  0
   26.0059  -22.9161  -15.2749 O   0  0  0  0  0  0  0  0  0  0  0  0
   27.1051  -20.9229  -14.8797 N   0  0  0  0  0  0  0  0  0  0  0  0
   28.4669  -20.3223  -14.8786 C   0  0  0  0  0  0  0  0  0  0  0  0
   28.0942  -18.8286  -14.8776 C   0  0  0  0  0  0  0  0  0  0  0  0
   26.6311  -18.7664  -14.4251 C   0  0  0  0  0  0  0  0  0  0  0  0
   26.5198  -20.1562  -13.8017 C   0  0  1  0  0  0  0  0  0  0  0  0
   25.2431  -20.5052  -13.2724 C   0  0  0  0  0  0  0  0  0  0  0  0
   24.2573  -20.8166  -13.9550 O   0  0  0  0  0  0  0  0  0  0  0  0
   25.0658  -20.5044  -11.8493 N   0  0  0  0  0  0  0  0  0  0  0  0
   26.0755  -20.3123  -10.8210 C   0  0  0  0  0  0  0  0  0  0  0  0
   25.5584  -21.1177   -9.6355 C   0  0  0  0  0  0  0  0  0  0  0  0
   24.0954  -20.7451   -9.7029 C   0  0  0  0  0  0  0  0  0  0  0  0
   23.7981  -20.7166  -11.1560 C   0  0  1  0  0  0  0  0  0  0  0  0
   22.7906  -19.7204  -11.5255 C   0  0  0  0  0  0  0  0  0  0  0  0
   21.4624  -19.9574  -11.2568 O   0  0  0  0  0  0  0  0  0  0  0  0
   23.1187  -18.6554  -12.0824 O   0  0  0  0  0  0  0  0  0  0  0  0
  2  1  1  6
  3  4  1  0
  3  2  1  0
  5  6  1  0
  5  4  1  0
  6  7  1  0
  8  2  1  0
  9  8  2  0
 10 11  1  0
 10  8  1  0
 12 11  1  0
 13 12  1  0
 13 14  1  0
 14 10  1  0
 14 15  1  6
 16 15  2  0
 17 18  1  0
 17 15  1  0
 19 18  1  0
 20 21  1  0
 20 19  1  0
 21 17  1  0
 22 23  1  0
 21 22  1  1
 24 22  2  0
M  END
$$$$
