KPP.pdb
     RDKit          3D

 24 25  0  0  1  0  0  0  0  0999 V2000
   24.7301  -22.6689  -13.0691 N   0  0  0  0  0  0  0  0  0  0  0  0
   25.4529  -21.5007  -12.6249 C   0  0  1  0  0  0  0  0  0  0  0  0
   24.5693  -20.3095  -12.5308 C   0  0  0  0  0  0  0  0  0  0  0  0
   23.7822  -19.9650  -13.7107 C   0  0  0  0  0  0  0  0  0  0  0  0
   24.2803  -19.1701  -14.8244 C   0  0  0  0  0  0  0  0  0  0  0  0
   23.3990  -18.7640  -15.9357 C   0  0  0  0  0  0  0  0  0  0  0  0
   24.2573  -18.0347  -16.9149 N   0  0  0  0  0  0  0  0  0  0  0  0
   26.1483  -21.7147  -11.3004 C   0  0  0  0  0  0  0  0  0  0  0  0
   25.3745  -22.1389  -10.4158 O   0  0  0  0  0  0  0  0  0  0  0  0
   27.4913  -21.4779  -11.0636 N   0  0  0  0  0  0  0  0  0  0  0  0
   28.6265  -21.8801  -11.9382 C   0  0  0  0  0  0  0  0  0  0  0  0
   29.4074  -20.5541  -11.9796 C   0  0  0  0  0  0  0  0  0  0  0  0
   28.8902  -19.7307  -10.7948 C   0  0  0  0  0  0  0  0  0  0  0  0
   28.2405  -20.8569   -9.9933 C   0  0  1  0  0  0  0  0  0  0  0  0
   27.5939  -20.4721   -8.7826 C   0  0  0  0  0  0  0  0  0  0  0  0
   26.4546  -19.9906   -8.7132 O   0  0  0  0  0  0  0  0  0  0  0  0
   28.2942  -20.6485   -7.5436 N   0  0  0  0  0  0  0  0  0  0  0  0
   29.5658  -21.3172   -7.3209 C   0  0  0  0  0  0  0  0  0  0  0  0
   29.4573  -21.8617   -5.9019 C   0  0  0  0  0  0  0  0  0  0  0  0
   28.8037  -20.6755   -5.2314 C   0  0  0  0  0  0  0  0  0  0  0  0
   27.8323  -20.1832   -6.2387 C   0  0  1  0  0  0  0  0  0  0  0  0
   27.6411  -18.7319   -6.2035 C   0  0  0  0  0  0  0  0  0  0  0  0
   26.7678  -18.1780   -5.2962 O   0  0  0  0  0  0  0  0  0  0  0  0
   28.2600  -17.9863   -6.9864 O   0  0  0  0  0  0  0  0  0  0  0  0
  2  1  1  1
  3  4  1  0
  3  2  1  0
  5  6  1  0
  5  4  1  0
  6  7  1  0
  8  2  1  0
  9  8  2  0
 10 11  1  0
 10  8  1  0
 12 11  1  0
 13 12  1  0
 13 14  1  0
 14 10  1  0
 14 15  1  1
 16 15  2  0
 17 18  1  0
 17 15  1  0
 19 18  1  0
 20 21  1  0
 20 19  1  0
 21 17  1  0
 22 23  1  0
 21 22  1  6
 24 22  2  0
M  END
$$$$
