KPP.pdb
     RDKit          3D

 24 25  0  0  1  0  0  0  0  0999 V2000
   23.6516  -19.6646  -18.5414 N   0  0  0  0  0  0  0  0  0  0  0  0
   24.4015  -18.8616  -17.6047 C   0  0  1  0  0  0  0  0  0  0  0  0
   23.6061  -17.7088  -17.1078 C   0  0  0  0  0  0  0  0  0  0  0  0
   22.1562  -17.8684  -17.0564 C   0  0  0  0  0  0  0  0  0  0  0  0
   21.4050  -18.1448  -15.8400 C   0  0  0  0  0  0  0  0  0  0  0  0
   20.0196  -17.6684  -15.6652 C   0  0  0  0  0  0  0  0  0  0  0  0
   19.1697  -18.4871  -16.5788 N   0  0  0  0  0  0  0  0  0  0  0  0
   24.9119  -19.6623  -16.4291 C   0  0  0  0  0  0  0  0  0  0  0  0
   24.1223  -20.5683  -16.0872 O   0  0  0  0  0  0  0  0  0  0  0  0
   26.1162  -19.4415  -15.7834 N   0  0  0  0  0  0  0  0  0  0  0  0
   27.4308  -19.1825  -16.4312 C   0  0  0  0  0  0  0  0  0  0  0  0
   27.8912  -17.9638  -15.6109 C   0  0  0  0  0  0  0  0  0  0  0  0
   27.0301  -17.9679  -14.3429 C   0  0  0  0  0  0  0  0  0  0  0  0
   26.5371  -19.4123  -14.3998 C   0  0  1  0  0  0  0  0  0  0  0  0
   25.6461  -19.8117  -13.3612 C   0  0  0  0  0  0  0  0  0  0  0  0
   24.4581  -19.4696  -13.2801 O   0  0  0  0  0  0  0  0  0  0  0  0
   26.1394  -20.6734  -12.3264 N   0  0  0  0  0  0  0  0  0  0  0  0
   27.4334  -21.3317  -12.2502 C   0  0  0  0  0  0  0  0  0  0  0  0
   27.1577  -22.6060  -11.4615 C   0  0  0  0  0  0  0  0  0  0  0  0
   26.2404  -22.0454  -10.3992 C   0  0  0  0  0  0  0  0  0  0  0  0
   25.3990  -21.0667  -11.1305 C   0  0  1  0  0  0  0  0  0  0  0  0
   25.0058  -19.9139  -10.3179 C   0  0  0  0  0  0  0  0  0  0  0  0
   23.8611  -19.9709   -9.5570 O   0  0  0  0  0  0  0  0  0  0  0  0
   25.6952  -18.8763  -10.3042 O   0  0  0  0  0  0  0  0  0  0  0  0
  2  1  1  6
  3  4  1  0
  3  2  1  0
  5  6  1  0
  5  4  1  0
  6  7  1  0
  8  2  1  0
  9  8  2  0
 10 11  1  0
 10  8  1  0
 12 11  1  0
 13 12  1  0
 13 14  1  0
 14 10  1  0
 14 15  1  1
 16 15  2  0
 17 18  1  0
 17 15  1  0
 19 18  1  0
 20 21  1  0
 20 19  1  0
 21 17  1  0
 22 23  1  0
 21 22  1  1
 24 22  2  0
M  END
$$$$
