KPP.pdb
     RDKit          3D

 24 25  0  0  1  0  0  0  0  0999 V2000
   28.3823  -24.2242  -16.9653 N   0  0  0  0  0  0  0  0  0  0  0  0
   27.5882  -23.0193  -16.9197 C   0  0  1  0  0  0  0  0  0  0  0  0
   26.3115  -23.1731  -17.6646 C   0  0  0  0  0  0  0  0  0  0  0  0
   25.4236  -24.2566  -17.2547 C   0  0  0  0  0  0  0  0  0  0  0  0
   24.1445  -24.5506  -17.8853 C   0  0  0  0  0  0  0  0  0  0  0  0
   23.2543  -25.6063  -17.3658 C   0  0  0  0  0  0  0  0  0  0  0  0
   22.0033  -25.5456  -18.1775 N   0  0  0  0  0  0  0  0  0  0  0  0
   27.2934  -22.5690  -15.5075 C   0  0  0  0  0  0  0  0  0  0  0  0
   26.8251  -23.4862  -14.7999 O   0  0  0  0  0  0  0  0  0  0  0  0
   27.5089  -21.2907  -15.0225 N   0  0  0  0  0  0  0  0  0  0  0  0
   28.7137  -20.4488  -15.2572 C   0  0  0  0  0  0  0  0  0  0  0  0
   28.0348  -19.1253  -15.6540 C   0  0  0  0  0  0  0  0  0  0  0  0
   26.5869  -19.2384  -15.1640 C   0  0  0  0  0  0  0  0  0  0  0  0
   26.7645  -20.3870  -14.1731 C   0  0  1  0  0  0  0  0  0  0  0  0
   25.5846  -20.8256  -13.5041 C   0  0  0  0  0  0  0  0  0  0  0  0
   24.6346  -21.4010  -14.0530 O   0  0  0  0  0  0  0  0  0  0  0  0
   25.4692  -20.5961  -12.0932 N   0  0  0  0  0  0  0  0  0  0  0  0
   26.4919  -20.1185  -11.1769 C   0  0  0  0  0  0  0  0  0  0  0  0
   26.1247  -20.7566   -9.8428 C   0  0  0  0  0  0  0  0  0  0  0  0
   24.6263  -20.5636   -9.8807 C   0  0  0  0  0  0  0  0  0  0  0  0
   24.2661  -20.8215  -11.2965 C   0  0  1  0  0  0  0  0  0  0  0  0
   23.1330  -20.0211  -11.7649 C   0  0  0  0  0  0  0  0  0  0  0  0
   21.8486  -20.4080  -11.4597 O   0  0  0  0  0  0  0  0  0  0  0  0
   23.3144  -18.9893  -12.4392 O   0  0  0  0  0  0  0  0  0  0  0  0
  2  1  1  1
  3  4  1  0
  3  2  1  0
  5  6  1  0
  5  4  1  0
  6  7  1  0
  8  2  1  0
  9  8  2  0
 10 11  1  0
 10  8  1  0
 12 11  1  0
 13 12  1  0
 13 14  1  0
 14 10  1  0
 14 15  1  6
 16 15  2  0
 17 18  1  0
 17 15  1  0
 19 18  1  0
 20 21  1  0
 20 19  1  0
 21 17  1  0
 22 23  1  0
 21 22  1  6
 24 22  2  0
M  END
$$$$
