KPP.pdb
     RDKit          3D

 24 25  0  0  1  0  0  0  0  0999 V2000
   27.0131  -25.9931  -16.4168 N   0  0  0  0  0  0  0  0  0  0  0  0
   25.9447  -25.0244  -16.3494 C   0  0  1  0  0  0  0  0  0  0  0  0
   24.6094  -25.6768  -16.3494 C   0  0  0  0  0  0  0  0  0  0  0  0
   24.3899  -26.7524  -17.3113 C   0  0  0  0  0  0  0  0  0  0  0  0
   24.3889  -28.1682  -16.9711 C   0  0  0  0  0  0  0  0  0  0  0  0
   23.9741  -29.1945  -17.9465 C   0  0  0  0  0  0  0  0  0  0  0  0
   24.1157  -30.5134  -17.2628 N   0  0  0  0  0  0  0  0  0  0  0  0
   26.0581  -24.1148  -15.1479 C   0  0  0  0  0  0  0  0  0  0  0  0
   26.0503  -24.7438  -14.0682 O   0  0  0  0  0  0  0  0  0  0  0  0
   26.1621  -22.7358  -15.2054 N   0  0  0  0  0  0  0  0  0  0  0  0
   27.0739  -21.9551  -16.0852 C   0  0  0  0  0  0  0  0  0  0  0  0
   26.0782  -20.9221  -16.6432 C   0  0  0  0  0  0  0  0  0  0  0  0
   24.8751  -20.9506  -15.6940 C   0  0  0  0  0  0  0  0  0  0  0  0
   25.5349  -21.6391  -14.5009 C   0  0  1  0  0  0  0  0  0  0  0  0
   24.6949  -21.8845  -13.3757 C   0  0  0  0  0  0  0  0  0  0  0  0
   23.7217  -22.6512  -13.3754 O   0  0  0  0  0  0  0  0  0  0  0  0
   24.9803  -21.2069  -12.1444 N   0  0  0  0  0  0  0  0  0  0  0  0
   26.2004  -20.5128  -11.7660 C   0  0  0  0  0  0  0  0  0  0  0  0
   26.2628  -20.6670  -10.2514 C   0  0  0  0  0  0  0  0  0  0  0  0
   24.8097  -20.4196   -9.9179 C   0  0  0  0  0  0  0  0  0  0  0  0
   24.0693  -21.1011  -11.0078 C   0  0  1  0  0  0  0  0  0  0  0  0
   22.8138  -20.4371  -11.3636 C   0  0  0  0  0  0  0  0  0  0  0  0
   21.6720  -20.6995  -10.6423 O   0  0  0  0  0  0  0  0  0  0  0  0
   22.7624  -19.6337  -12.3143 O   0  0  0  0  0  0  0  0  0  0  0  0
  2  1  1  1
  3  4  1  0
  3  2  1  0
  5  6  1  0
  5  4  1  0
  6  7  1  0
  8  2  1  0
  9  8  2  0
 10 11  1  0
 10  8  1  0
 12 11  1  0
 13 12  1  0
 13 14  1  0
 14 10  1  0
 14 15  1  1
 16 15  2  0
 17 18  1  0
 17 15  1  0
 19 18  1  0
 20 21  1  0
 20 19  1  0
 21 17  1  0
 22 23  1  0
 21 22  1  6
 24 22  2  0
M  END
$$$$
