KPP.pdb
     RDKit          3D

 24 25  0  0  1  0  0  0  0  0999 V2000
   25.1371  -22.1739  -11.8270 N   0  0  0  0  0  0  0  0  0  0  0  0
   26.1831  -21.2320  -11.5058 C   0  0  1  0  0  0  0  0  0  0  0  0
   25.7366  -19.8274  -11.6964 C   0  0  0  0  0  0  0  0  0  0  0  0
   25.1128  -19.4906  -12.9723 C   0  0  0  0  0  0  0  0  0  0  0  0
   23.8337  -20.0198  -13.4238 C   0  0  0  0  0  0  0  0  0  0  0  0
   23.1782  -19.5131  -14.6447 C   0  0  0  0  0  0  0  0  0  0  0  0
   21.8616  -20.2092  -14.7411 N   0  0  0  0  0  0  0  0  0  0  0  0
   26.7102  -21.4039  -10.0999 C   0  0  0  0  0  0  0  0  0  0  0  0
   25.7981  -21.4326   -9.2463 O   0  0  0  0  0  0  0  0  0  0  0  0
   28.0479  -21.5210   -9.7643 N   0  0  0  0  0  0  0  0  0  0  0  0
   29.0632  -22.3565  -10.4615 C   0  0  0  0  0  0  0  0  0  0  0  0
   30.1994  -21.3269  -10.5994 C   0  0  0  0  0  0  0  0  0  0  0  0
   29.8795  -20.2184   -9.5904 C   0  0  0  0  0  0  0  0  0  0  0  0
   28.8840  -20.9782   -8.7161 C   0  0  1  0  0  0  0  0  0  0  0  0
   28.3107  -20.2446   -7.6367 C   0  0  0  0  0  0  0  0  0  0  0  0
   27.4078  -19.4046   -7.7550 O   0  0  0  0  0  0  0  0  0  0  0  0
   28.7982  -20.4822   -6.3090 N   0  0  0  0  0  0  0  0  0  0  0  0
   29.7326  -21.5048   -5.8677 C   0  0  0  0  0  0  0  0  0  0  0  0
   29.3216  -21.7894   -4.4283 C   0  0  0  0  0  0  0  0  0  0  0  0
   29.0692  -20.3751   -3.9592 C   0  0  0  0  0  0  0  0  0  0  0  0
   28.4194  -19.7212   -5.1215 C   0  0  1  0  0  0  0  0  0  0  0  0
   28.7447  -18.2991   -5.2473 C   0  0  0  0  0  0  0  0  0  0  0  0
   28.0457  -17.3692   -4.5130 O   0  0  0  0  0  0  0  0  0  0  0  0
   29.6495  -17.9155   -6.0130 O   0  0  0  0  0  0  0  0  0  0  0  0
  2  1  1  1
  3  4  1  0
  3  2  1  0
  5  6  1  0
  5  4  1  0
  6  7  1  0
  8  2  1  0
  9  8  2  0
 10 11  1  0
 10  8  1  0
 12 11  1  0
 13 12  1  0
 13 14  1  0
 14 10  1  0
 14 15  1  1
 16 15  2  0
 17 18  1  0
 17 15  1  0
 19 18  1  0
 20 21  1  0
 20 19  1  0
 21 17  1  0
 22 23  1  0
 21 22  1  6
 24 22  2  0
M  END
$$$$
