EDE.pdb
     RDKit          3D

 27 26  0  0  1  0  0  0  0  0999 V2000
    8.5823  -20.0645   19.1301 N   0  0  0  0  0  0  0  0  0  0  0  0
    9.4865  -18.9560   19.2061 C   0  0  1  0  0  0  0  0  0  0  0  0
    8.9434  -17.7049   19.7881 C   0  0  0  0  0  0  0  0  0  0  0  0
    7.6349  -17.2309   19.2649 C   0  0  0  0  0  0  0  0  0  0  0  0
    7.1730  -15.9950   19.9096 C   0  0  0  0  0  0  0  0  0  0  0  0
    6.0862  -15.4762   19.6111 O   0  0  0  0  0  0  0  0  0  0  0  0
   10.7432  -19.3998   19.8966 C   0  0  0  0  0  0  0  0  0  0  0  0
   10.7333  -20.4721   20.5613 O   0  0  0  0  0  0  0  0  0  0  0  0
    7.9808  -15.3874   20.8867 O   0  0  0  0  0  0  0  0  0  0  0  0
   11.9682  -18.6583   19.8336 N   0  0  0  0  0  0  0  0  0  0  0  0
   13.1059  -19.1717   20.5806 C   0  0  1  0  0  0  0  0  0  0  0  0
   14.3695  -18.7488   19.7970 C   0  0  0  0  0  0  0  0  0  0  0  0
   15.5880  -19.3006   20.4846 C   0  0  0  0  0  0  0  0  0  0  0  0
   15.8170  -20.5546   20.5168 O   0  0  0  0  0  0  0  0  0  0  0  0
   13.1270  -18.7093   21.9680 C   0  0  0  0  0  0  0  0  0  0  0  0
   12.9450  -17.5019   22.2627 O   0  0  0  0  0  0  0  0  0  0  0  0
   16.5279  -18.4897   21.1223 O   0  0  0  0  0  0  0  0  0  0  0  0
   13.3543  -19.5935   23.0778 N   0  0  0  0  0  0  0  0  0  0  0  0
   13.2557  -19.1670   24.4776 C   0  0  1  0  0  0  0  0  0  0  0  0
   12.3557  -20.1793   25.1353 C   0  0  0  0  0  0  0  0  0  0  0  0
   12.1186  -19.9999   26.5876 C   0  0  0  0  0  0  0  0  0  0  0  0
   11.3295  -21.0641   27.2460 C   0  0  0  0  0  0  0  0  0  0  0  0
   11.6808  -22.2583   27.0954 O   0  0  0  0  0  0  0  0  0  0  0  0
   14.5967  -19.1081   25.0936 C   0  0  0  0  0  0  0  0  0  0  0  0
   14.8115  -18.3093   26.1981 O   0  0  0  0  0  0  0  0  0  0  0  0
   10.2061  -20.8106   28.0379 O   0  0  0  0  0  0  0  0  0  0  0  0
   15.5353  -19.7710   24.6250 O   0  0  0  0  0  0  0  0  0  0  0  0
  2  1  1  1
  2  7  1  0
  3  2  1  0
  4  3  1  0
  5  4  1  0
  5  6  2  0
  7 10  1  0
  7  8  2  0
  9  5  1  0
 10 11  1  0
 11 12  1  6
 13 12  1  0
 13 17  1  0
 14 13  2  0
 15 11  1  0
 15 16  2  0
 18 15  1  0
 19 18  1  0
 19 20  1  1
 20 21  1  0
 21 22  1  0
 22 23  2  0
 22 26  1  0
 24 19  1  0
 25 24  1  0
 27 24  2  0
M  END
$$$$
