EDE.pdb
     RDKit          3D

 27 26  0  0  1  0  0  0  0  0999 V2000
    6.4800  -19.3624   14.7041 N   0  0  0  0  0  0  0  0  0  0  0  0
    6.5659  -20.4864   15.5880 C   0  0  1  0  0  0  0  0  0  0  0  0
    7.8638  -21.2029   15.6143 C   0  0  0  0  0  0  0  0  0  0  0  0
    8.9834  -20.5426   16.3362 C   0  0  0  0  0  0  0  0  0  0  0  0
   10.2479  -21.2823   16.2333 C   0  0  0  0  0  0  0  0  0  0  0  0
   10.8809  -21.6262   17.2435 O   0  0  0  0  0  0  0  0  0  0  0  0
    6.1288  -20.0612   16.9596 C   0  0  0  0  0  0  0  0  0  0  0  0
    6.4151  -18.9008   17.3636 O   0  0  0  0  0  0  0  0  0  0  0  0
   10.7511  -21.6076   14.9615 O   0  0  0  0  0  0  0  0  0  0  0  0
    5.3908  -20.9175   17.8408 N   0  0  0  0  0  0  0  0  0  0  0  0
    5.0108  -20.3823   19.1389 C   0  0  1  0  0  0  0  0  0  0  0  0
    3.7641  -21.1766   19.5907 C   0  0  0  0  0  0  0  0  0  0  0  0
    2.6652  -20.9927   18.5804 C   0  0  0  0  0  0  0  0  0  0  0  0
    2.1515  -19.8457   18.3649 O   0  0  0  0  0  0  0  0  0  0  0  0
    6.0975  -20.4433   20.1160 C   0  0  0  0  0  0  0  0  0  0  0  0
    5.9298  -20.0921   21.3103 O   0  0  0  0  0  0  0  0  0  0  0  0
    2.1453  -22.0478   17.8293 O   0  0  0  0  0  0  0  0  0  0  0  0
    7.4171  -20.9039   19.7820 N   0  0  0  0  0  0  0  0  0  0  0  0
    8.5257  -20.9293   20.7420 C   0  0  1  0  0  0  0  0  0  0  0  0
    9.3473  -22.1330   20.3630 C   0  0  0  0  0  0  0  0  0  0  0  0
   10.5480  -22.3945   21.1923 C   0  0  0  0  0  0  0  0  0  0  0  0
   11.3788  -23.5452   20.7748 C   0  0  0  0  0  0  0  0  0  0  0  0
   12.6229  -23.4021   20.7135 O   0  0  0  0  0  0  0  0  0  0  0  0
    9.2930  -19.6691   20.6759 C   0  0  0  0  0  0  0  0  0  0  0  0
    9.8672  -19.1531   21.8197 O   0  0  0  0  0  0  0  0  0  0  0  0
   10.8500  -24.7966   20.4460 O   0  0  0  0  0  0  0  0  0  0  0  0
    9.4253  -19.0673   19.5988 O   0  0  0  0  0  0  0  0  0  0  0  0
  2  1  1  6
  2  7  1  0
  3  2  1  0
  4  3  1  0
  5  4  1  0
  5  6  2  0
  7 10  1  0
  7  8  2  0
  9  5  1  0
 10 11  1  0
 11 12  1  1
 13 12  1  0
 13 17  1  0
 14 13  2  0
 15 11  1  0
 15 16  2  0
 18 15  1  0
 19 18  1  0
 19 20  1  6
 20 21  1  0
 21 22  1  0
 22 23  2  0
 22 26  1  0
 24 19  1  0
 25 24  1  0
 27 24  2  0
M  END
$$$$
