EDE.pdb
     RDKit          3D

 27 26  0  0  1  0  0  0  0  0999 V2000
   16.0555  -12.9950   17.3304 N   0  0  0  0  0  0  0  0  0  0  0  0
   15.2873  -14.1626   17.0163 C   0  0  1  0  0  0  0  0  0  0  0  0
   16.0567  -15.3998   16.7405 C   0  0  0  0  0  0  0  0  0  0  0  0
   17.1396  -15.7474   17.6982 C   0  0  0  0  0  0  0  0  0  0  0  0
   17.9008  -16.9371   17.2962 C   0  0  0  0  0  0  0  0  0  0  0  0
   17.9859  -17.9311   18.0338 O   0  0  0  0  0  0  0  0  0  0  0  0
   14.2546  -14.3678   18.0862 C   0  0  0  0  0  0  0  0  0  0  0  0
   14.5005  -13.9775   19.2605 O   0  0  0  0  0  0  0  0  0  0  0  0
   18.5468  -16.9490   16.0476 O   0  0  0  0  0  0  0  0  0  0  0  0
   12.9876  -14.9889   17.8349 N   0  0  0  0  0  0  0  0  0  0  0  0
   12.0906  -15.1717   18.9654 C   0  0  1  0  0  0  0  0  0  0  0  0
   10.8024  -15.8135   18.4013 C   0  0  0  0  0  0  0  0  0  0  0  0
   10.1616  -14.8654   17.4254 C   0  0  0  0  0  0  0  0  0  0  0  0
   10.2297  -15.0662   16.1680 O   0  0  0  0  0  0  0  0  0  0  0  0
   12.6877  -15.9657   20.0387 C   0  0  0  0  0  0  0  0  0  0  0  0
   13.2050  -17.0889   19.8176 O   0  0  0  0  0  0  0  0  0  0  0  0
    9.4659  -13.7241   17.8266 O   0  0  0  0  0  0  0  0  0  0  0  0
   12.7242  -15.5217   21.4050 N   0  0  0  0  0  0  0  0  0  0  0  0
   13.2783  -16.3288   22.4970 C   0  0  1  0  0  0  0  0  0  0  0  0
   14.4755  -15.5586   22.9877 C   0  0  0  0  0  0  0  0  0  0  0  0
   15.6880  -15.6198   22.1369 C   0  0  0  0  0  0  0  0  0  0  0  0
   16.8745  -14.9054   22.6571 C   0  0  0  0  0  0  0  0  0  0  0  0
   17.9021  -15.5659   22.9399 O   0  0  0  0  0  0  0  0  0  0  0  0
   12.2628  -16.5386   23.5487 C   0  0  0  0  0  0  0  0  0  0  0  0
   11.0704  -15.8458   23.5011 O   0  0  0  0  0  0  0  0  0  0  0  0
   16.9165  -13.5216   22.8487 O   0  0  0  0  0  0  0  0  0  0  0  0
   12.4730  -17.3332   24.4785 O   0  0  0  0  0  0  0  0  0  0  0  0
  2  1  1  1
  2  7  1  0
  3  2  1  0
  4  3  1  0
  5  4  1  0
  5  6  2  0
  7 10  1  0
  7  8  2  0
  9  5  1  0
 10 11  1  0
 11 12  1  6
 13 12  1  0
 13 17  1  0
 14 13  2  0
 15 11  1  0
 15 16  2  0
 18 15  1  0
 19 18  1  0
 19 20  1  1
 20 21  1  0
 21 22  1  0
 22 23  2  0
 22 26  1  0
 24 19  1  0
 25 24  1  0
 27 24  2  0
M  END
$$$$
