EDE.pdb
     RDKit          3D

 27 26  0  0  1  0  0  0  0  0999 V2000
    8.0269  -16.0358   20.3474 N   0  0  0  0  0  0  0  0  0  0  0  0
    8.2131  -17.4121   20.6985 C   0  0  1  0  0  0  0  0  0  0  0  0
    8.0993  -18.3928   19.5921 C   0  0  0  0  0  0  0  0  0  0  0  0
    7.5194  -17.9023   18.3140 C   0  0  0  0  0  0  0  0  0  0  0  0
    7.3738  -18.9608   17.3066 C   0  0  0  0  0  0  0  0  0  0  0  0
    6.3555  -19.6677   17.2528 O   0  0  0  0  0  0  0  0  0  0  0  0
    9.5075  -17.5527   21.4455 C   0  0  0  0  0  0  0  0  0  0  0  0
    9.7419  -18.6219   22.0728 O   0  0  0  0  0  0  0  0  0  0  0  0
    8.4115  -19.1768   16.3831 O   0  0  0  0  0  0  0  0  0  0  0  0
   10.5024  -16.5214   21.4779 N   0  0  0  0  0  0  0  0  0  0  0  0
   11.6842  -16.7506   22.2945 C   0  0  1  0  0  0  0  0  0  0  0  0
   12.7086  -15.6642   21.8946 C   0  0  0  0  0  0  0  0  0  0  0  0
   14.0390  -15.9819   22.5200 C   0  0  0  0  0  0  0  0  0  0  0  0
   14.9735  -15.1154   22.5601 O   0  0  0  0  0  0  0  0  0  0  0  0
   11.3918  -16.7436   23.7275 C   0  0  0  0  0  0  0  0  0  0  0  0
   10.9994  -15.7047   24.3146 O   0  0  0  0  0  0  0  0  0  0  0  0
   14.3311  -17.2246   23.0841 O   0  0  0  0  0  0  0  0  0  0  0  0
   11.5308  -17.9109   24.5541 N   0  0  0  0  0  0  0  0  0  0  0  0
   11.3410  -17.8923   26.0083 C   0  0  1  0  0  0  0  0  0  0  0  0
   10.7052  -19.2165   26.3394 C   0  0  0  0  0  0  0  0  0  0  0  0
   10.5177  -19.5115   27.7801 C   0  0  0  0  0  0  0  0  0  0  0  0
    9.9662  -20.8475   28.0957 C   0  0  0  0  0  0  0  0  0  0  0  0
    9.1546  -21.3709   27.2961 O   0  0  0  0  0  0  0  0  0  0  0  0
   12.6336  -17.6910   26.6937 C   0  0  0  0  0  0  0  0  0  0  0  0
   13.8041  -18.0995   26.0877 O   0  0  0  0  0  0  0  0  0  0  0  0
   10.3057  -21.5682   29.2442 O   0  0  0  0  0  0  0  0  0  0  0  0
   12.6771  -17.1579   27.8134 O   0  0  0  0  0  0  0  0  0  0  0  0
  2  1  1  6
  2  7  1  0
  3  2  1  0
  4  3  1  0
  5  4  1  0
  5  6  2  0
  7 10  1  0
  7  8  2  0
  9  5  1  0
 10 11  1  0
 11 12  1  1
 13 12  1  0
 13 17  1  0
 14 13  2  0
 15 11  1  0
 15 16  2  0
 18 15  1  0
 19 18  1  0
 19 20  1  1
 20 21  1  0
 21 22  1  0
 22 23  2  0
 22 26  1  0
 24 19  1  0
 25 24  1  0
 27 24  2  0
M  END
$$$$
