EDE.pdb
     RDKit          3D

 27 26  0  0  1  0  0  0  0  0999 V2000
   10.6384  -17.3633   17.5666 N   0  0  0  0  0  0  0  0  0  0  0  0
    9.6223  -16.4568   18.0117 C   0  0  1  0  0  0  0  0  0  0  0  0
    8.3911  -16.3953   17.1877 C   0  0  0  0  0  0  0  0  0  0  0  0
    8.1223  -17.5500   16.2906 C   0  0  0  0  0  0  0  0  0  0  0  0
    6.9273  -17.3633   15.4577 C   0  0  0  0  0  0  0  0  0  0  0  0
    6.9579  -16.6734   14.4269 O   0  0  0  0  0  0  0  0  0  0  0  0
    9.3210  -16.7349   19.4556 C   0  0  0  0  0  0  0  0  0  0  0  0
    8.5641  -15.9480   20.0880 O   0  0  0  0  0  0  0  0  0  0  0  0
    5.7227  -17.9807   15.8375 O   0  0  0  0  0  0  0  0  0  0  0  0
    9.8541  -17.8651   20.1575 N   0  0  0  0  0  0  0  0  0  0  0  0
    9.6203  -17.9398   21.5913 C   0  0  1  0  0  0  0  0  0  0  0  0
    8.4808  -18.9640   21.7952 C   0  0  0  0  0  0  0  0  0  0  0  0
    8.2457  -19.1587   23.2679 C   0  0  0  0  0  0  0  0  0  0  0  0
    7.8949  -20.2915   23.7365 O   0  0  0  0  0  0  0  0  0  0  0  0
   10.8257  -18.2866   22.3437 C   0  0  0  0  0  0  0  0  0  0  0  0
   11.3327  -19.4342   22.2829 O   0  0  0  0  0  0  0  0  0  0  0  0
    8.3915  -18.1292   24.1988 O   0  0  0  0  0  0  0  0  0  0  0  0
   11.5062  -17.3497   23.1947 N   0  0  0  0  0  0  0  0  0  0  0  0
   12.7094  -17.6888   23.9618 C   0  0  1  0  0  0  0  0  0  0  0  0
   13.7635  -16.7233   23.4882 C   0  0  0  0  0  0  0  0  0  0  0  0
   15.0817  -16.8102   24.1610 C   0  0  0  0  0  0  0  0  0  0  0  0
   16.1179  -15.8771   23.6667 C   0  0  0  0  0  0  0  0  0  0  0  0
   15.8223  -15.0770   22.7477 O   0  0  0  0  0  0  0  0  0  0  0  0
   12.4439  -17.5804   25.4106 C   0  0  0  0  0  0  0  0  0  0  0  0
   13.2333  -18.2705   26.3077 O   0  0  0  0  0  0  0  0  0  0  0  0
   17.4193  -15.8337   24.1747 O   0  0  0  0  0  0  0  0  0  0  0  0
   11.5140  -16.8739   25.8299 O   0  0  0  0  0  0  0  0  0  0  0  0
  2  1  1  6
  2  7  1  0
  3  2  1  0
  4  3  1  0
  5  4  1  0
  5  6  2  0
  7 10  1  0
  7  8  2  0
  9  5  1  0
 10 11  1  0
 11 12  1  6
 13 12  1  0
 13 17  1  0
 14 13  2  0
 15 11  1  0
 15 16  2  0
 18 15  1  0
 19 18  1  0
 19 20  1  6
 20 21  1  0
 21 22  1  0
 22 23  2  0
 22 26  1  0
 24 19  1  0
 25 24  1  0
 27 24  2  0
M  END
$$$$
