EDE.pdb
     RDKit          3D

 27 26  0  0  1  0  0  0  0  0999 V2000
   11.0721  -13.7980   18.8477 N   0  0  0  0  0  0  0  0  0  0  0  0
   11.6078  -15.1211   18.9680 C   0  0  1  0  0  0  0  0  0  0  0  0
   13.0682  -15.2599   18.7518 C   0  0  0  0  0  0  0  0  0  0  0  0
   13.9225  -14.1160   19.1668 C   0  0  0  0  0  0  0  0  0  0  0  0
   15.3509  -14.3455   18.9144 C   0  0  0  0  0  0  0  0  0  0  0  0
   16.1362  -14.6149   19.8364 O   0  0  0  0  0  0  0  0  0  0  0  0
   11.1746  -15.7037   20.2817 C   0  0  0  0  0  0  0  0  0  0  0  0
   10.7808  -14.9300   21.1971 O   0  0  0  0  0  0  0  0  0  0  0  0
   15.8379  -14.2581   17.5985 O   0  0  0  0  0  0  0  0  0  0  0  0
   11.1833  -17.1120   20.5484 N   0  0  0  0  0  0  0  0  0  0  0  0
   10.6470  -17.5597   21.8243 C   0  0  1  0  0  0  0  0  0  0  0  0
   10.3878  -19.0768   21.6808 C   0  0  0  0  0  0  0  0  0  0  0  0
    9.0691  -19.2921   20.9902 C   0  0  0  0  0  0  0  0  0  0  0  0
    8.2008  -18.3609   20.9199 O   0  0  0  0  0  0  0  0  0  0  0  0
   11.5276  -17.2464   22.9493 C   0  0  0  0  0  0  0  0  0  0  0  0
   12.7696  -17.1308   22.8013 O   0  0  0  0  0  0  0  0  0  0  0  0
    8.7171  -20.5043   20.3950 O   0  0  0  0  0  0  0  0  0  0  0  0
   11.0392  -17.0510   24.2866 N   0  0  0  0  0  0  0  0  0  0  0  0
   11.9140  -16.7524   25.4253 C   0  0  1  0  0  0  0  0  0  0  0  0
   10.9832  -16.3988   26.5549 C   0  0  0  0  0  0  0  0  0  0  0  0
   11.6165  -16.1458   27.8712 C   0  0  0  0  0  0  0  0  0  0  0  0
   10.7081  -15.6808   28.9423 C   0  0  0  0  0  0  0  0  0  0  0  0
   11.1888  -15.4132   30.0690 O   0  0  0  0  0  0  0  0  0  0  0  0
   12.7723  -17.9141   25.7337 C   0  0  0  0  0  0  0  0  0  0  0  0
   14.0478  -17.7163   26.2216 O   0  0  0  0  0  0  0  0  0  0  0  0
    9.3313  -15.5170   28.7659 O   0  0  0  0  0  0  0  0  0  0  0  0
   12.3566  -19.0698   25.5562 O   0  0  0  0  0  0  0  0  0  0  0  0
  2  1  1  1
  2  7  1  0
  3  2  1  0
  4  3  1  0
  5  4  1  0
  5  6  2  0
  7 10  1  0
  7  8  2  0
  9  5  1  0
 10 11  1  0
 11 12  1  6
 13 12  1  0
 13 17  1  0
 14 13  2  0
 15 11  1  0
 15 16  2  0
 18 15  1  0
 19 18  1  0
 19 20  1  1
 20 21  1  0
 21 22  1  0
 22 23  2  0
 22 26  1  0
 24 19  1  0
 25 24  1  0
 27 24  2  0
M  END
$$$$
