EDE.pdb
     RDKit          3D

 27 26  0  0  1  0  0  0  0  0999 V2000
   13.2387  -20.2296   17.7657 N   0  0  0  0  0  0  0  0  0  0  0  0
   14.3874  -20.0328   18.5986 C   0  0  1  0  0  0  0  0  0  0  0  0
   15.4805  -19.2111   18.0255 C   0  0  0  0  0  0  0  0  0  0  0  0
   15.4516  -18.9811   16.5568 C   0  0  0  0  0  0  0  0  0  0  0  0
   16.5342  -18.1044   16.0920 C   0  0  0  0  0  0  0  0  0  0  0  0
   16.3342  -16.9058   15.8415 O   0  0  0  0  0  0  0  0  0  0  0  0
   13.9370  -19.5186   19.9350 C   0  0  0  0  0  0  0  0  0  0  0  0
   14.8028  -19.2321   20.8068 O   0  0  0  0  0  0  0  0  0  0  0  0
   17.8252  -18.6361   15.9280 O   0  0  0  0  0  0  0  0  0  0  0  0
   12.5562  -19.3317   20.2709 N   0  0  0  0  0  0  0  0  0  0  0  0
   12.2508  -18.7599   21.5732 C   0  0  1  0  0  0  0  0  0  0  0  0
   10.7643  -18.3384   21.5273 C   0  0  0  0  0  0  0  0  0  0  0  0
   10.4742  -17.6848   20.2041 C   0  0  0  0  0  0  0  0  0  0  0  0
   10.9660  -16.5461   19.9083 O   0  0  0  0  0  0  0  0  0  0  0  0
   12.5385  -19.6773   22.6753 C   0  0  0  0  0  0  0  0  0  0  0  0
   12.3021  -20.9079   22.5869 O   0  0  0  0  0  0  0  0  0  0  0  0
    9.6606  -18.2715   19.2339 O   0  0  0  0  0  0  0  0  0  0  0  0
   13.1052  -19.2404   23.9215 N   0  0  0  0  0  0  0  0  0  0  0  0
   13.2994  -20.1301   25.0712 C   0  0  1  0  0  0  0  0  0  0  0  0
   14.7594  -20.0102   25.4198 C   0  0  0  0  0  0  0  0  0  0  0  0
   15.2374  -20.8557   26.5398 C   0  0  0  0  0  0  0  0  0  0  0  0
   16.6786  -20.7482   26.8561 C   0  0  0  0  0  0  0  0  0  0  0  0
   17.1532  -21.4681   27.7664 O   0  0  0  0  0  0  0  0  0  0  0  0
   12.4114  -19.7356   26.1834 C   0  0  0  0  0  0  0  0  0  0  0  0
   12.0895  -20.6513   27.1642 O   0  0  0  0  0  0  0  0  0  0  0  0
   17.5505  -19.8842   26.1877 O   0  0  0  0  0  0  0  0  0  0  0  0
   11.9494  -18.5854   26.2436 O   0  0  0  0  0  0  0  0  0  0  0  0
  2  1  1  6
  2  7  1  0
  3  2  1  0
  4  3  1  0
  5  4  1  0
  5  6  2  0
  7 10  1  0
  7  8  2  0
  9  5  1  0
 10 11  1  0
 11 12  1  6
 13 12  1  0
 13 17  1  0
 14 13  2  0
 15 11  1  0
 15 16  2  0
 18 15  1  0
 19 18  1  0
 19 20  1  1
 20 21  1  0
 21 22  1  0
 22 23  2  0
 22 26  1  0
 24 19  1  0
 25 24  1  0
 27 24  2  0
M  END
$$$$
