EDE.pdb
     RDKit          3D

 27 26  0  0  1  0  0  0  0  0999 V2000
    9.8975  -19.7467   18.1103 N   0  0  0  0  0  0  0  0  0  0  0  0
   10.7153  -18.6293   17.7431 C   0  0  1  0  0  0  0  0  0  0  0  0
   10.2839  -17.8651   16.5478 C   0  0  0  0  0  0  0  0  0  0  0  0
    8.9736  -17.1674   16.6309 C   0  0  0  0  0  0  0  0  0  0  0  0
    8.1861  -17.2769   15.3963 C   0  0  0  0  0  0  0  0  0  0  0  0
    7.5371  -18.3005   15.1309 O   0  0  0  0  0  0  0  0  0  0  0  0
   10.8974  -17.7449   18.9421 C   0  0  0  0  0  0  0  0  0  0  0  0
   11.6500  -16.7362   18.8530 O   0  0  0  0  0  0  0  0  0  0  0  0
    8.1677  -16.1972   14.4960 O   0  0  0  0  0  0  0  0  0  0  0  0
   10.2479  -17.9913   20.1958 N   0  0  0  0  0  0  0  0  0  0  0  0
   10.5182  -17.0689   21.2876 C   0  0  1  0  0  0  0  0  0  0  0  0
    9.1913  -16.9111   22.0646 C   0  0  0  0  0  0  0  0  0  0  0  0
    9.3676  -15.8783   23.1437 C   0  0  0  0  0  0  0  0  0  0  0  0
    8.3992  -15.5454   23.9035 O   0  0  0  0  0  0  0  0  0  0  0  0
   11.6184  -17.5122   22.1433 C   0  0  0  0  0  0  0  0  0  0  0  0
   11.5815  -18.6138   22.7460 O   0  0  0  0  0  0  0  0  0  0  0  0
   10.5803  -15.2282   23.3764 O   0  0  0  0  0  0  0  0  0  0  0  0
   12.8045  -16.7281   22.3518 N   0  0  0  0  0  0  0  0  0  0  0  0
   13.9260  -17.1744   23.1850 C   0  0  1  0  0  0  0  0  0  0  0  0
   15.0369  -16.1967   22.9066 C   0  0  0  0  0  0  0  0  0  0  0  0
   16.4162  -16.7364   22.9703 C   0  0  0  0  0  0  0  0  0  0  0  0
   17.5012  -15.7524   22.7622 C   0  0  0  0  0  0  0  0  0  0  0  0
   18.0255  -15.2097   23.7635 O   0  0  0  0  0  0  0  0  0  0  0  0
   13.5312  -17.2017   24.6079 C   0  0  0  0  0  0  0  0  0  0  0  0
   14.1537  -18.0738   25.4774 O   0  0  0  0  0  0  0  0  0  0  0  0
   17.9825  -15.3936   21.5000 O   0  0  0  0  0  0  0  0  0  0  0  0
   12.6415  -16.4466   25.0299 O   0  0  0  0  0  0  0  0  0  0  0  0
  2  1  1  1
  2  7  1  0
  3  2  1  0
  4  3  1  0
  5  4  1  0
  5  6  2  0
  7 10  1  0
  7  8  2  0
  9  5  1  0
 10 11  1  0
 11 12  1  1
 13 12  1  0
 13 17  1  0
 14 13  2  0
 15 11  1  0
 15 16  2  0
 18 15  1  0
 19 18  1  0
 19 20  1  1
 20 21  1  0
 21 22  1  0
 22 23  2  0
 22 26  1  0
 24 19  1  0
 25 24  1  0
 27 24  2  0
M  END
$$$$
