EDE.pdb
     RDKit          3D

 27 26  0  0  1  0  0  0  0  0999 V2000
    7.8396  -18.5367   20.4984 N   0  0  0  0  0  0  0  0  0  0  0  0
    8.1918  -19.8458   20.9614 C   0  0  1  0  0  0  0  0  0  0  0  0
    9.3148  -20.5107   20.2574 C   0  0  0  0  0  0  0  0  0  0  0  0
    9.8128  -19.8592   19.0172 C   0  0  0  0  0  0  0  0  0  0  0  0
   10.8749  -20.6257   18.3533 C   0  0  0  0  0  0  0  0  0  0  0  0
   10.6263  -21.3965   17.4133 O   0  0  0  0  0  0  0  0  0  0  0  0
    8.4082  -19.7949   22.4458 C   0  0  0  0  0  0  0  0  0  0  0  0
    9.0385  -18.8210   22.9419 O   0  0  0  0  0  0  0  0  0  0  0  0
   12.2024  -20.4821   18.7932 O   0  0  0  0  0  0  0  0  0  0  0  0
    7.9251  -20.8081   23.3371 N   0  0  0  0  0  0  0  0  0  0  0  0
    8.1713  -20.6278   24.7594 C   0  0  1  0  0  0  0  0  0  0  0  0
    7.0459  -21.3884   25.4972 C   0  0  0  0  0  0  0  0  0  0  0  0
    7.2226  -21.2195   26.9812 C   0  0  0  0  0  0  0  0  0  0  0  0
    8.1979  -20.5506   27.4581 O   0  0  0  0  0  0  0  0  0  0  0  0
    9.5049  -21.0719   25.1634 C   0  0  0  0  0  0  0  0  0  0  0  0
    9.9737  -22.1752   24.7879 O   0  0  0  0  0  0  0  0  0  0  0  0
    6.3472  -21.7764   27.9145 O   0  0  0  0  0  0  0  0  0  0  0  0
   10.3622  -20.2864   26.0079 N   0  0  0  0  0  0  0  0  0  0  0  0
   11.7130  -20.7071   26.3944 C   0  0  1  0  0  0  0  0  0  0  0  0
   12.5937  -20.3152   25.2376 C   0  0  0  0  0  0  0  0  0  0  0  0
   12.8596  -18.8655   25.0780 C   0  0  0  0  0  0  0  0  0  0  0  0
   13.7261  -18.4931   23.9382 C   0  0  0  0  0  0  0  0  0  0  0  0
   14.2060  -19.4027   23.2210 O   0  0  0  0  0  0  0  0  0  0  0  0
   12.1111  -20.0604   27.6611 C   0  0  0  0  0  0  0  0  0  0  0  0
   11.2775  -19.1320   28.2507 O   0  0  0  0  0  0  0  0  0  0  0  0
   14.0393  -17.1711   23.6098 O   0  0  0  0  0  0  0  0  0  0  0  0
   13.1919  -20.3435   28.2011 O   0  0  0  0  0  0  0  0  0  0  0  0
  2  1  1  6
  2  7  1  0
  3  2  1  0
  4  3  1  0
  5  4  1  0
  5  6  2  0
  7 10  1  0
  7  8  2  0
  9  5  1  0
 10 11  1  0
 11 12  1  1
 13 12  1  0
 13 17  1  0
 14 13  2  0
 15 11  1  0
 15 16  2  0
 18 15  1  0
 19 18  1  0
 19 20  1  6
 20 21  1  0
 21 22  1  0
 22 23  2  0
 22 26  1  0
 24 19  1  0
 25 24  1  0
 27 24  2  0
M  END
$$$$
