WEW.pdb
     RDKit          3D

 38 41  0  0  1  0  0  0  0  0999 V2000
    7.9709  -18.3025   21.8574 N   0  0  0  0  0  0  0  0  0  0  0  0
    8.6068  -17.1268   22.4063 C   0  0  1  0  0  0  0  0  0  0  0  0
    7.5645  -16.3709   23.2010 C   0  0  0  0  0  0  0  0  0  0  0  0
    6.7611  -15.6172   22.2163 C   0  0  0  0  0  0  0  0  0  0  0  0
    5.4761  -15.8591   21.8086 C   0  0  0  0  0  0  0  0  0  0  0  0
    5.1484  -14.9170   20.8883 N   0  0  0  0  0  0  0  0  0  0  0  0
    6.1907  -14.0805   20.6985 C   0  0  0  0  0  0  0  0  0  0  0  0
    6.4356  -12.9670   19.9098 C   0  0  0  0  0  0  0  0  0  0  0  0
    7.6428  -12.2934   19.9312 C   0  0  0  0  0  0  0  0  0  0  0  0
    8.6590  -12.7256   20.7603 C   0  0  0  0  0  0  0  0  0  0  0  0
    8.4127  -13.8300   21.5408 C   0  0  0  0  0  0  0  0  0  0  0  0
    7.1999  -14.5136   21.5252 C   0  0  0  0  0  0  0  0  0  0  0  0
    9.7716  -17.5521   23.2192 C   0  0  0  0  0  0  0  0  0  0  0  0
    9.7610  -18.6581   23.8444 O   0  0  0  0  0  0  0  0  0  0  0  0
   10.9336  -16.7713   23.3437 N   0  0  0  0  0  0  0  0  0  0  0  0
   12.1314  -17.2483   24.0488 C   0  0  1  0  0  0  0  0  0  0  0  0
   13.2883  -16.5481   23.4202 C   0  0  0  0  0  0  0  0  0  0  0  0
   14.6560  -16.8835   23.8614 C   0  0  0  0  0  0  0  0  0  0  0  0
   15.6522  -16.0214   23.2003 C   0  0  0  0  0  0  0  0  0  0  0  0
   16.4010  -16.5037   22.3169 O   0  0  0  0  0  0  0  0  0  0  0  0
   12.0135  -17.1203   25.4681 C   0  0  0  0  0  0  0  0  0  0  0  0
   12.9693  -17.4270   26.2700 O   0  0  0  0  0  0  0  0  0  0  0  0
   15.7702  -14.6941   23.5407 O   0  0  0  0  0  0  0  0  0  0  0  0
   10.8604  -16.6531   26.1685 N   0  0  0  0  0  0  0  0  0  0  0  0
   10.7068  -16.6295   27.5579 C   0  0  1  0  0  0  0  0  0  0  0  0
    9.4667  -16.1324   28.1667 C   0  0  0  0  0  0  0  0  0  0  0  0
    8.5351  -15.4620   27.2313 C   0  0  0  0  0  0  0  0  0  0  0  0
    7.5280  -15.9841   26.4522 C   0  0  0  0  0  0  0  0  0  0  0  0
    6.9328  -14.9700   25.7529 N   0  0  0  0  0  0  0  0  0  0  0  0
    7.5239  -13.8136   26.0561 C   0  0  0  0  0  0  0  0  0  0  0  0
    7.2758  -12.5352   25.6091 C   0  0  0  0  0  0  0  0  0  0  0  0
    8.0349  -11.4627   26.0732 C   0  0  0  0  0  0  0  0  0  0  0  0
    9.0280  -11.7449   26.9859 C   0  0  0  0  0  0  0  0  0  0  0  0
    9.2712  -13.0286   27.4293 C   0  0  0  0  0  0  0  0  0  0  0  0
    8.5184  -14.0894   26.9683 C   0  0  0  0  0  0  0  0  0  0  0  0
   10.9488  -18.0205   28.0931 C   0  0  0  0  0  0  0  0  0  0  0  0
   11.0161  -18.2280   29.4581 O   0  0  0  0  0  0  0  0  0  0  0  0
   11.0938  -19.0107   27.3554 O   0  0  0  0  0  0  0  0  0  0  0  0
  2  1  1  1
  2 13  1  0
  2  3  1  0
  4  3  1  0
  5  4  2  0
  6  5  1  0
  7  6  1  0
  7 12  2  0
  8  7  1  0
  9  8  2  0
  9 10  1  0
 10 11  2  0
 11 12  1  0
 12  4  1  0
 13 14  2  0
 15 13  1  0
 15 16  1  0
 16 17  1  6
 18 19  1  0
 18 17  1  0
 19 20  2  0
 21 22  2  0
 21 16  1  0
 23 19  1  0
 24 21  1  0
 25 24  1  0
 26 27  1  0
 25 26  1  6
 27 28  2  0
 27 35  1  0
 28 29  1  0
 29 30  1  0
 30 31  2  0
 31 32  1  0
 33 32  2  0
 34 33  1  0
 35 34  2  0
 35 30  1  0
 36 37  1  0
 36 25  1  0
 38 36  2  0
M  END
$$$$
