WEW.pdb
     RDKit          3D

 38 41  0  0  1  0  0  0  0  0999 V2000
    8.8165  -17.2599   20.0416 N   0  0  0  0  0  0  0  0  0  0  0  0
    8.9150  -16.4744   21.2502 C   0  0  1  0  0  0  0  0  0  0  0  0
    7.5291  -15.9648   21.5799 C   0  0  0  0  0  0  0  0  0  0  0  0
    7.1523  -15.0526   20.4804 C   0  0  0  0  0  0  0  0  0  0  0  0
    6.1881  -15.2315   19.5241 C   0  0  0  0  0  0  0  0  0  0  0  0
    6.1957  -14.1400   18.7177 N   0  0  0  0  0  0  0  0  0  0  0  0
    7.1394  -13.2695   19.1347 C   0  0  0  0  0  0  0  0  0  0  0  0
    7.5920  -12.0264   18.7203 C   0  0  0  0  0  0  0  0  0  0  0  0
    8.6100  -11.3528   19.3697 C   0  0  0  0  0  0  0  0  0  0  0  0
    9.2151  -11.9177   20.4749 C   0  0  0  0  0  0  0  0  0  0  0  0
    8.7638  -13.1503   20.8830 C   0  0  0  0  0  0  0  0  0  0  0  0
    7.7393  -13.8348   20.2347 C   0  0  0  0  0  0  0  0  0  0  0  0
    9.5009  -17.3184   22.3193 C   0  0  0  0  0  0  0  0  0  0  0  0
    8.8873  -18.3444   22.7493 O   0  0  0  0  0  0  0  0  0  0  0  0
   10.7456  -17.0379   22.9088 N   0  0  0  0  0  0  0  0  0  0  0  0
   11.2243  -17.7374   24.1092 C   0  0  1  0  0  0  0  0  0  0  0  0
   12.6460  -18.0973   23.8395 C   0  0  0  0  0  0  0  0  0  0  0  0
   12.9645  -18.9324   22.6652 C   0  0  0  0  0  0  0  0  0  0  0  0
   12.7778  -20.3632   22.9663 C   0  0  0  0  0  0  0  0  0  0  0  0
   12.1592  -21.0924   22.1544 O   0  0  0  0  0  0  0  0  0  0  0  0
   10.9791  -16.9936   25.3056 C   0  0  0  0  0  0  0  0  0  0  0  0
   11.4378  -15.8072   25.4862 O   0  0  0  0  0  0  0  0  0  0  0  0
   13.2742  -20.9081   24.1274 O   0  0  0  0  0  0  0  0  0  0  0  0
   10.2202  -17.4472   26.4266 N   0  0  0  0  0  0  0  0  0  0  0  0
   10.1397  -16.8073   27.6670 C   0  0  1  0  0  0  0  0  0  0  0  0
    8.8763  -16.2157   28.1248 C   0  0  0  0  0  0  0  0  0  0  0  0
    8.0907  -15.5277   27.0753 C   0  0  0  0  0  0  0  0  0  0  0  0
    7.2060  -16.0342   26.1507 C   0  0  0  0  0  0  0  0  0  0  0  0
    6.7196  -15.0075   25.3887 N   0  0  0  0  0  0  0  0  0  0  0  0
    7.2621  -13.8580   25.7922 C   0  0  0  0  0  0  0  0  0  0  0  0
    7.0829  -12.5720   25.3342 C   0  0  0  0  0  0  0  0  0  0  0  0
    7.7683  -11.5094   25.9199 C   0  0  0  0  0  0  0  0  0  0  0  0
    8.6187  -11.8091   26.9620 C   0  0  0  0  0  0  0  0  0  0  0  0
    8.7936  -13.1004   27.4157 C   0  0  0  0  0  0  0  0  0  0  0  0
    8.1139  -14.1512   26.8341 C   0  0  0  0  0  0  0  0  0  0  0  0
   10.6043  -17.7675   28.7356 C   0  0  0  0  0  0  0  0  0  0  0  0
   10.8055  -17.3131   30.0255 O   0  0  0  0  0  0  0  0  0  0  0  0
   10.8201  -18.9714   28.5123 O   0  0  0  0  0  0  0  0  0  0  0  0
  2  1  1  6
  2 13  1  0
  2  3  1  0
  4  3  1  0
  5  4  2  0
  6  5  1  0
  7  6  1  0
  7 12  2  0
  8  7  1  0
  9  8  2  0
  9 10  1  0
 10 11  2  0
 11 12  1  0
 12  4  1  0
 13 14  2  0
 15 13  1  0
 15 16  1  0
 16 17  1  6
 18 19  1  0
 18 17  1  0
 19 20  2  0
 21 22  2  0
 21 16  1  0
 23 19  1  0
 24 21  1  0
 25 24  1  0
 26 27  1  0
 25 26  1  1
 27 28  2  0
 27 35  1  0
 28 29  1  0
 29 30  1  0
 30 31  2  0
 31 32  1  0
 33 32  2  0
 34 33  1  0
 35 34  2  0
 35 30  1  0
 36 37  1  0
 36 25  1  0
 38 36  2  0
M  END
$$$$
