WEW.pdb
     RDKit          3D

 38 41  0  0  1  0  0  0  0  0999 V2000
    6.3948  -15.9128   23.1598 N   0  0  0  0  0  0  0  0  0  0  0  0
    7.1031  -17.0751   22.6749 C   0  0  1  0  0  0  0  0  0  0  0  0
    6.7215  -17.2722   21.2242 C   0  0  0  0  0  0  0  0  0  0  0  0
    7.3419  -16.1575   20.4789 C   0  0  0  0  0  0  0  0  0  0  0  0
    8.0079  -16.2050   19.2830 C   0  0  0  0  0  0  0  0  0  0  0  0
    8.4101  -14.9444   18.9815 N   0  0  0  0  0  0  0  0  0  0  0  0
    8.0179  -14.0940   19.9538 C   0  0  0  0  0  0  0  0  0  0  0  0
    8.1365  -12.7323   20.1851 C   0  0  0  0  0  0  0  0  0  0  0  0
    7.6130  -12.1223   21.3101 C   0  0  0  0  0  0  0  0  0  0  0  0
    6.9424  -12.8752   22.2537 C   0  0  0  0  0  0  0  0  0  0  0  0
    6.8267  -14.2250   22.0209 C   0  0  0  0  0  0  0  0  0  0  0  0
    7.3509  -14.8466   20.8908 C   0  0  0  0  0  0  0  0  0  0  0  0
    8.5568  -16.8645   22.8772 C   0  0  0  0  0  0  0  0  0  0  0  0
    9.0283  -15.6975   23.0496 O   0  0  0  0  0  0  0  0  0  0  0  0
    9.4808  -17.9235   22.8894 N   0  0  0  0  0  0  0  0  0  0  0  0
   10.9246  -17.7074   23.0573 C   0  0  1  0  0  0  0  0  0  0  0  0
   11.3472  -16.8350   21.9242 C   0  0  0  0  0  0  0  0  0  0  0  0
   12.7597  -16.4187   21.8271 C   0  0  0  0  0  0  0  0  0  0  0  0
   13.5031  -17.2814   20.8914 C   0  0  0  0  0  0  0  0  0  0  0  0
   13.3161  -17.1630   19.6566 O   0  0  0  0  0  0  0  0  0  0  0  0
   11.2555  -17.2415   24.3681 C   0  0  0  0  0  0  0  0  0  0  0  0
   12.4677  -17.0391   24.7425 O   0  0  0  0  0  0  0  0  0  0  0  0
   14.3999  -18.2147   21.3564 O   0  0  0  0  0  0  0  0  0  0  0  0
   10.3214  -16.9480   25.4073 N   0  0  0  0  0  0  0  0  0  0  0  0
   10.6469  -16.4979   26.6902 C   0  0  1  0  0  0  0  0  0  0  0  0
   10.0299  -15.2832   27.2375 C   0  0  0  0  0  0  0  0  0  0  0  0
    8.6670  -14.9934   26.7371 C   0  0  0  0  0  0  0  0  0  0  0  0
    7.6585  -15.8491   26.3567 C   0  0  0  0  0  0  0  0  0  0  0  0
    6.5718  -15.1143   25.9683 N   0  0  0  0  0  0  0  0  0  0  0  0
    6.8481  -13.8149   26.0860 C   0  0  0  0  0  0  0  0  0  0  0  0
    6.0774  -12.7061   25.8174 C   0  0  0  0  0  0  0  0  0  0  0  0
    6.5853  -11.4244   26.0197 C   0  0  0  0  0  0  0  0  0  0  0  0
    7.8756  -11.3280   26.4938 C   0  0  0  0  0  0  0  0  0  0  0  0
    8.6425  -12.4437   26.7606 C   0  0  0  0  0  0  0  0  0  0  0  0
    8.1375  -13.7121   26.5594 C   0  0  0  0  0  0  0  0  0  0  0  0
   10.3939  -17.6167   27.6719 C   0  0  0  0  0  0  0  0  0  0  0  0
   10.9028  -17.5320   28.9544 O   0  0  0  0  0  0  0  0  0  0  0  0
    9.7379  -18.6323   27.3820 O   0  0  0  0  0  0  0  0  0  0  0  0
  2  1  1  6
  2 13  1  0
  2  3  1  0
  4  3  1  0
  5  4  2  0
  6  5  1  0
  7  6  1  0
  7 12  2  0
  8  7  1  0
  9  8  2  0
  9 10  1  0
 10 11  2  0
 11 12  1  0
 12  4  1  0
 13 14  2  0
 15 13  1  0
 15 16  1  0
 16 17  1  6
 18 19  1  0
 18 17  1  0
 19 20  2  0
 21 22  2  0
 21 16  1  0
 23 19  1  0
 24 21  1  0
 25 24  1  0
 26 27  1  0
 25 26  1  1
 27 28  2  0
 27 35  1  0
 28 29  1  0
 29 30  1  0
 30 31  2  0
 31 32  1  0
 33 32  2  0
 34 33  1  0
 35 34  2  0
 35 30  1  0
 36 37  1  0
 36 25  1  0
 38 36  2  0
M  END
$$$$
