WEW.pdb
     RDKit          3D

 38 41  0  0  1  0  0  0  0  0999 V2000
    8.0528  -17.7343   21.4292 N   0  0  0  0  0  0  0  0  0  0  0  0
    8.7812  -16.6462   22.0403 C   0  0  1  0  0  0  0  0  0  0  0  0
    7.7755  -15.7544   22.7348 C   0  0  0  0  0  0  0  0  0  0  0  0
    7.0538  -15.0347   21.6651 C   0  0  0  0  0  0  0  0  0  0  0  0
    5.7931  -15.2729   21.1855 C   0  0  0  0  0  0  0  0  0  0  0  0
    5.5457  -14.3706   20.2025 N   0  0  0  0  0  0  0  0  0  0  0  0
    6.6156  -13.5630   20.0426 C   0  0  0  0  0  0  0  0  0  0  0  0
    6.9345  -12.4934   19.2205 C   0  0  0  0  0  0  0  0  0  0  0  0
    8.1518  -11.8413   19.2896 C   0  0  0  0  0  0  0  0  0  0  0  0
    9.1027  -12.2513   20.2032 C   0  0  0  0  0  0  0  0  0  0  0  0
    8.7829  -13.3122   21.0168 C   0  0  0  0  0  0  0  0  0  0  0  0
    7.5596  -13.9738   20.9534 C   0  0  0  0  0  0  0  0  0  0  0  0
    9.7986  -17.2118   22.9587 C   0  0  0  0  0  0  0  0  0  0  0  0
    9.4757  -18.0649   23.8430 O   0  0  0  0  0  0  0  0  0  0  0  0
   11.1541  -16.8440   22.9060 N   0  0  0  0  0  0  0  0  0  0  0  0
   12.0811  -17.0908   24.0192 C   0  0  1  0  0  0  0  0  0  0  0  0
   13.4290  -16.6746   23.5356 C   0  0  0  0  0  0  0  0  0  0  0  0
   13.8888  -17.1325   22.2102 C   0  0  0  0  0  0  0  0  0  0  0  0
   15.2643  -17.6577   22.2791 C   0  0  0  0  0  0  0  0  0  0  0  0
   16.1811  -16.9369   22.7412 O   0  0  0  0  0  0  0  0  0  0  0  0
   11.6371  -16.4916   25.2392 C   0  0  0  0  0  0  0  0  0  0  0  0
   11.7552  -15.2338   25.4727 O   0  0  0  0  0  0  0  0  0  0  0  0
   15.5542  -18.9294   21.8427 O   0  0  0  0  0  0  0  0  0  0  0  0
   11.0246  -17.1802   26.3297 N   0  0  0  0  0  0  0  0  0  0  0  0
   10.8836  -16.6836   27.6289 C   0  0  1  0  0  0  0  0  0  0  0  0
   10.0227  -15.5254   27.8995 C   0  0  0  0  0  0  0  0  0  0  0  0
    8.8043  -15.4420   27.0624 C   0  0  0  0  0  0  0  0  0  0  0  0
    7.9600  -16.4343   26.6191 C   0  0  0  0  0  0  0  0  0  0  0  0
    6.9603  -15.8707   25.8745 N   0  0  0  0  0  0  0  0  0  0  0  0
    7.1338  -14.5494   25.8240 C   0  0  0  0  0  0  0  0  0  0  0  0
    6.3930  -13.5706   25.2004 C   0  0  0  0  0  0  0  0  0  0  0  0
    6.7721  -12.2324   25.2863 C   0  0  0  0  0  0  0  0  0  0  0  0
    7.9064  -11.9468   26.0147 C   0  0  0  0  0  0  0  0  0  0  0  0
    8.6443  -12.9329   26.6369 C   0  0  0  0  0  0  0  0  0  0  0  0
    8.2671  -14.2576   26.5504 C   0  0  0  0  0  0  0  0  0  0  0  0
   10.4269  -17.8078   28.5275 C   0  0  0  0  0  0  0  0  0  0  0  0
   10.1123  -19.0379   27.9810 O   0  0  0  0  0  0  0  0  0  0  0  0
   10.3163  -17.6833   29.7596 O   0  0  0  0  0  0  0  0  0  0  0  0
  2  1  1  1
  2 13  1  0
  2  3  1  0
  4  3  1  0
  5  4  2  0
  6  5  1  0
  7  6  1  0
  7 12  2  0
  8  7  1  0
  9  8  2  0
  9 10  1  0
 10 11  2  0
 11 12  1  0
 12  4  1  0
 13 14  2  0
 15 13  1  0
 15 16  1  0
 16 17  1  6
 18 19  1  0
 18 17  1  0
 19 20  2  0
 21 22  2  0
 21 16  1  0
 23 19  1  0
 24 21  1  0
 25 24  1  0
 26 27  1  0
 25 26  1  6
 27 28  2  0
 27 35  1  0
 28 29  1  0
 29 30  1  0
 30 31  2  0
 31 32  1  0
 33 32  2  0
 34 33  1  0
 35 34  2  0
 35 30  1  0
 36 37  1  0
 36 25  1  0
 38 36  2  0
M  END
$$$$
