WEW.pdb
     RDKit          3D

 38 41  0  0  1  0  0  0  0  0999 V2000
    7.5865  -18.0385   22.8346 N   0  0  0  0  0  0  0  0  0  0  0  0
    8.5887  -17.0658   23.2052 C   0  0  1  0  0  0  0  0  0  0  0  0
    8.5177  -16.8835   24.7056 C   0  0  0  0  0  0  0  0  0  0  0  0
    7.3314  -16.0412   24.9634 C   0  0  0  0  0  0  0  0  0  0  0  0
    6.1346  -16.4106   25.5177 C   0  0  0  0  0  0  0  0  0  0  0  0
    5.3386  -15.3122   25.5566 N   0  0  0  0  0  0  0  0  0  0  0  0
    5.9964  -14.2518   25.0417 C   0  0  0  0  0  0  0  0  0  0  0  0
    5.7038  -12.9137   24.8282 C   0  0  0  0  0  0  0  0  0  0  0  0
    6.6109  -12.0367   24.2626 C   0  0  0  0  0  0  0  0  0  0  0  0
    7.8619  -12.4853   23.8877 C   0  0  0  0  0  0  0  0  0  0  0  0
    8.1486  -13.8128   24.1010 C   0  0  0  0  0  0  0  0  0  0  0  0
    7.2408  -14.7020   24.6699 C   0  0  0  0  0  0  0  0  0  0  0  0
    9.9110  -17.5420   22.7327 C   0  0  0  0  0  0  0  0  0  0  0  0
   10.1831  -18.7825   22.6995 O   0  0  0  0  0  0  0  0  0  0  0  0
   10.9219  -16.6654   22.3024 N   0  0  0  0  0  0  0  0  0  0  0  0
   12.3394  -17.0519   22.2721 C   0  0  1  0  0  0  0  0  0  0  0  0
   13.0089  -16.0976   21.3421 C   0  0  0  0  0  0  0  0  0  0  0  0
   12.6233  -16.0938   19.9177 C   0  0  0  0  0  0  0  0  0  0  0  0
   13.6589  -16.7342   19.0868 C   0  0  0  0  0  0  0  0  0  0  0  0
   13.7719  -17.9835   19.0901 O   0  0  0  0  0  0  0  0  0  0  0  0
   12.9028  -17.1544   23.5823 C   0  0  0  0  0  0  0  0  0  0  0  0
   14.1075  -17.5514   23.7858 O   0  0  0  0  0  0  0  0  0  0  0  0
   14.5027  -15.9776   18.3077 O   0  0  0  0  0  0  0  0  0  0  0  0
   12.2314  -16.8435   24.8034 N   0  0  0  0  0  0  0  0  0  0  0  0
   12.7982  -16.8988   26.0801 C   0  0  1  0  0  0  0  0  0  0  0  0
   12.2788  -16.0606   27.1680 C   0  0  0  0  0  0  0  0  0  0  0  0
   10.8067  -16.0798   27.3248 C   0  0  0  0  0  0  0  0  0  0  0  0
    9.9287  -17.1392   27.3502 C   0  0  0  0  0  0  0  0  0  0  0  0
    8.6581  -16.6624   27.5232 N   0  0  0  0  0  0  0  0  0  0  0  0
    8.6900  -15.3319   27.6094 C   0  0  0  0  0  0  0  0  0  0  0  0
    7.6734  -14.4198   27.7830 C   0  0  0  0  0  0  0  0  0  0  0  0
    7.9489  -13.0551   27.8446 C   0  0  0  0  0  0  0  0  0  0  0  0
    9.2680  -12.6750   27.7247 C   0  0  0  0  0  0  0  0  0  0  0  0
   10.2817  -13.5947   27.5506 C   0  0  0  0  0  0  0  0  0  0  0  0
   10.0066  -14.9456   27.4897 C   0  0  0  0  0  0  0  0  0  0  0  0
   12.7699  -18.3307   26.5582 C   0  0  0  0  0  0  0  0  0  0  0  0
   13.5492  -18.7098   27.6352 O   0  0  0  0  0  0  0  0  0  0  0  0
   12.0678  -19.2062   26.0230 O   0  0  0  0  0  0  0  0  0  0  0  0
  2  1  1  1
  2 13  1  0
  2  3  1  0
  4  3  1  0
  5  4  2  0
  6  5  1  0
  7  6  1  0
  7 12  2  0
  8  7  1  0
  9  8  2  0
  9 10  1  0
 10 11  2  0
 11 12  1  0
 12  4  1  0
 13 14  2  0
 15 13  1  0
 15 16  1  0
 16 17  1  6
 18 19  1  0
 18 17  1  0
 19 20  2  0
 21 22  2  0
 21 16  1  0
 23 19  1  0
 24 21  1  0
 25 24  1  0
 26 27  1  0
 25 26  1  1
 27 28  2  0
 27 35  1  0
 28 29  1  0
 29 30  1  0
 30 31  2  0
 31 32  1  0
 33 32  2  0
 34 33  1  0
 35 34  2  0
 35 30  1  0
 36 37  1  0
 36 25  1  0
 38 36  2  0
M  END
$$$$
