WEW.pdb
     RDKit          3D

 38 41  0  0  1  0  0  0  0  0999 V2000
    8.5409  -17.8018   21.6086 N   0  0  0  0  0  0  0  0  0  0  0  0
    9.1433  -16.7578   22.4053 C   0  0  1  0  0  0  0  0  0  0  0  0
    8.0259  -16.0003   23.0887 C   0  0  0  0  0  0  0  0  0  0  0  0
    7.2759  -15.3145   22.0163 C   0  0  0  0  0  0  0  0  0  0  0  0
    6.1248  -15.7205   21.3947 C   0  0  0  0  0  0  0  0  0  0  0  0
    5.7986  -14.7814   20.4709 N   0  0  0  0  0  0  0  0  0  0  0  0
    6.7114  -13.7870   20.4871 C   0  0  0  0  0  0  0  0  0  0  0  0
    6.8956  -12.6009   19.7934 C   0  0  0  0  0  0  0  0  0  0  0  0
    7.9623  -11.7559   20.0384 C   0  0  0  0  0  0  0  0  0  0  0  0
    8.8929  -12.0826   21.0049 C   0  0  0  0  0  0  0  0  0  0  0  0
    8.7070  -13.2594   21.6907 C   0  0  0  0  0  0  0  0  0  0  0  0
    7.6356  -14.1153   21.4501 C   0  0  0  0  0  0  0  0  0  0  0  0
   10.1006  -17.3761   23.3539 C   0  0  0  0  0  0  0  0  0  0  0  0
    9.8060  -18.4462   23.9721 O   0  0  0  0  0  0  0  0  0  0  0  0
   11.3658  -16.8248   23.6201 N   0  0  0  0  0  0  0  0  0  0  0  0
   12.3243  -17.4586   24.5361 C   0  0  1  0  0  0  0  0  0  0  0  0
   13.6701  -17.2709   23.9218 C   0  0  0  0  0  0  0  0  0  0  0  0
   14.0969  -15.9138   23.5294 C   0  0  0  0  0  0  0  0  0  0  0  0
   14.9648  -15.9551   22.3387 C   0  0  0  0  0  0  0  0  0  0  0  0
   14.7804  -15.1344   21.4080 O   0  0  0  0  0  0  0  0  0  0  0  0
   12.1765  -16.9976   25.8815 C   0  0  0  0  0  0  0  0  0  0  0  0
   12.9210  -17.4181   26.8403 O   0  0  0  0  0  0  0  0  0  0  0  0
   15.9747  -16.8830   22.2363 O   0  0  0  0  0  0  0  0  0  0  0  0
   11.2160  -16.0425   26.3331 N   0  0  0  0  0  0  0  0  0  0  0  0
   11.1144  -15.5445   27.6354 C   0  0  1  0  0  0  0  0  0  0  0  0
   10.0547  -14.5936   27.9939 C   0  0  0  0  0  0  0  0  0  0  0  0
    8.7055  -14.9419   27.4934 C   0  0  0  0  0  0  0  0  0  0  0  0
    8.0032  -16.1225   27.5769 C   0  0  0  0  0  0  0  0  0  0  0  0
    6.7878  -15.9632   26.9694 N   0  0  0  0  0  0  0  0  0  0  0  0
    6.6855  -14.7200   26.4978 C   0  0  0  0  0  0  0  0  0  0  0  0
    5.6608  -14.0997   25.8189 C   0  0  0  0  0  0  0  0  0  0  0  0
    5.7791  -12.7703   25.4183 C   0  0  0  0  0  0  0  0  0  0  0  0
    6.9540  -12.1223   25.7321 C   0  0  0  0  0  0  0  0  0  0  0  0
    7.9770  -12.7503   26.4126 C   0  0  0  0  0  0  0  0  0  0  0  0
    7.8578  -14.0669   26.8082 C   0  0  0  0  0  0  0  0  0  0  0  0
   11.0200  -16.7099   28.5908 C   0  0  0  0  0  0  0  0  0  0  0  0
   10.8832  -17.9933   28.0957 O   0  0  0  0  0  0  0  0  0  0  0  0
   11.0595  -16.5737   29.8260 O   0  0  0  0  0  0  0  0  0  0  0  0
  2  1  1  1
  2 13  1  0
  2  3  1  0
  4  3  1  0
  5  4  2  0
  6  5  1  0
  7  6  1  0
  7 12  2  0
  8  7  1  0
  9  8  2  0
  9 10  1  0
 10 11  2  0
 11 12  1  0
 12  4  1  0
 13 14  2  0
 15 13  1  0
 15 16  1  0
 16 17  1  6
 18 19  1  0
 18 17  1  0
 19 20  2  0
 21 22  2  0
 21 16  1  0
 23 19  1  0
 24 21  1  0
 25 24  1  0
 26 27  1  0
 25 26  1  6
 27 28  2  0
 27 35  1  0
 28 29  1  0
 29 30  1  0
 30 31  2  0
 31 32  1  0
 33 32  2  0
 34 33  1  0
 35 34  2  0
 35 30  1  0
 36 37  1  0
 36 25  1  0
 38 36  2  0
M  END
$$$$
