WEW.pdb
     RDKit          3D

 38 41  0  0  1  0  0  0  0  0999 V2000
    8.5387  -18.3164   20.2337 N   0  0  0  0  0  0  0  0  0  0  0  0
    9.3979  -17.2189   20.6145 C   0  0  1  0  0  0  0  0  0  0  0  0
    8.7570  -16.5233   21.7954 C   0  0  0  0  0  0  0  0  0  0  0  0
    7.6552  -15.7068   21.2455 C   0  0  0  0  0  0  0  0  0  0  0  0
    6.3074  -15.9346   21.3320 C   0  0  0  0  0  0  0  0  0  0  0  0
    5.6736  -14.9286   20.6778 N   0  0  0  0  0  0  0  0  0  0  0  0
    6.5820  -14.0650   20.1764 C   0  0  0  0  0  0  0  0  0  0  0  0
    6.5311  -12.8900   19.4424 C   0  0  0  0  0  0  0  0  0  0  0  0
    7.6689  -12.2029   19.0616 C   0  0  0  0  0  0  0  0  0  0  0  0
    8.9147  -12.6838   19.4130 C   0  0  0  0  0  0  0  0  0  0  0  0
    8.9614  -13.8491   20.1408 C   0  0  0  0  0  0  0  0  0  0  0  0
    7.8204  -14.5466   20.5281 C   0  0  0  0  0  0  0  0  0  0  0  0
   10.7493  -17.7533   20.9092 C   0  0  0  0  0  0  0  0  0  0  0  0
   10.9013  -18.9382   21.3416 O   0  0  0  0  0  0  0  0  0  0  0  0
   11.9190  -16.9945   20.7314 N   0  0  0  0  0  0  0  0  0  0  0  0
   13.2178  -17.4090   21.2799 C   0  0  1  0  0  0  0  0  0  0  0  0
   14.2530  -16.7045   20.4701 C   0  0  0  0  0  0  0  0  0  0  0  0
   15.6792  -16.9365   20.7701 C   0  0  0  0  0  0  0  0  0  0  0  0
   16.1926  -18.1044   20.0317 C   0  0  0  0  0  0  0  0  0  0  0  0
   16.2245  -18.0806   18.7779 O   0  0  0  0  0  0  0  0  0  0  0  0
   13.2933  -17.2251   22.6959 C   0  0  0  0  0  0  0  0  0  0  0  0
   14.2557  -17.6993   23.4026 O   0  0  0  0  0  0  0  0  0  0  0  0
   16.6375  -19.2201   20.7018 O   0  0  0  0  0  0  0  0  0  0  0  0
   12.3452  -16.5170   23.4948 N   0  0  0  0  0  0  0  0  0  0  0  0
   12.2170  -16.6152   24.8834 C   0  0  1  0  0  0  0  0  0  0  0  0
   10.9220  -16.9372   25.4959 C   0  0  0  0  0  0  0  0  0  0  0  0
   10.8257  -16.6481   26.9448 C   0  0  0  0  0  0  0  0  0  0  0  0
   10.9192  -17.4916   28.0282 C   0  0  0  0  0  0  0  0  0  0  0  0
   10.7704  -16.7625   29.1762 N   0  0  0  0  0  0  0  0  0  0  0  0
   10.5841  -15.4787   28.8670 C   0  0  0  0  0  0  0  0  0  0  0  0
   10.3894  -14.3807   29.6747 C   0  0  0  0  0  0  0  0  0  0  0  0
   10.2139  -13.1148   29.1191 C   0  0  0  0  0  0  0  0  0  0  0  0
   10.2450  -13.0227   27.7445 C   0  0  0  0  0  0  0  0  0  0  0  0
   10.4403  -14.1275   26.9412 C   0  0  0  0  0  0  0  0  0  0  0  0
   10.6138  -15.3802   27.4935 C   0  0  0  0  0  0  0  0  0  0  0  0
   13.2210  -17.6229   25.3898 C   0  0  0  0  0  0  0  0  0  0  0  0
   13.0910  -18.9546   25.0426 O   0  0  0  0  0  0  0  0  0  0  0  0
   14.1793  -17.3119   26.1183 O   0  0  0  0  0  0  0  0  0  0  0  0
  2  1  1  1
  2 13  1  0
  2  3  1  0
  4  3  1  0
  5  4  2  0
  6  5  1  0
  7  6  1  0
  7 12  2  0
  8  7  1  0
  9  8  2  0
  9 10  1  0
 10 11  2  0
 11 12  1  0
 12  4  1  0
 13 14  2  0
 15 13  1  0
 15 16  1  0
 16 17  1  6
 18 19  1  0
 18 17  1  0
 19 20  2  0
 21 22  2  0
 21 16  1  0
 23 19  1  0
 24 21  1  0
 25 24  1  0
 26 27  1  0
 25 26  1  6
 27 28  2  0
 27 35  1  0
 28 29  1  0
 29 30  1  0
 30 31  2  0
 31 32  1  0
 33 32  2  0
 34 33  1  0
 35 34  2  0
 35 30  1  0
 36 37  1  0
 36 25  1  0
 38 36  2  0
M  END
$$$$
