TWK.pdb
     RDKit          3D

 31 32  0  0  1  0  0  0  0  0999 V2000
   28.6635  -21.6662  -17.1665 C   0  0  0  0  0  0  0  0  0  0  0  0
   28.0338  -22.0171  -15.8465 C   0  0  1  0  0  0  0  0  0  0  0  0
   28.8281  -22.8902  -15.1224 O   0  0  0  0  0  0  0  0  0  0  0  0
   27.6875  -20.7663  -15.0643 C   0  0  2  0  0  0  0  0  0  0  0  0
   28.8517  -20.0201  -14.6973 N   0  0  0  0  0  0  0  0  0  0  0  0
   26.9629  -21.2088  -13.8231 C   0  0  0  0  0  0  0  0  0  0  0  0
   25.9295  -21.8758  -13.9748 O   0  0  0  0  0  0  0  0  0  0  0  0
   27.4720  -20.8579  -12.5547 N   0  0  0  0  0  0  0  0  0  0  0  0
   26.8138  -21.1051  -11.2987 C   0  0  1  0  0  0  0  0  0  0  0  0
   27.7401  -20.7189  -10.1570 C   0  0  0  0  0  0  0  0  0  0  0  0
   26.9594  -20.5753   -8.9060 C   0  0  0  0  0  0  0  0  0  0  0  0
   25.6321  -20.7068   -8.6557 C   0  0  0  0  0  0  0  0  0  0  0  0
   25.3671  -20.4796   -7.3376 N   0  0  0  0  0  0  0  0  0  0  0  0
   26.5347  -20.2029   -6.7494 C   0  0  0  0  0  0  0  0  0  0  0  0
   26.7997  -19.9053   -5.4319 C   0  0  0  0  0  0  0  0  0  0  0  0
   28.0947  -19.6567   -5.0613 C   0  0  0  0  0  0  0  0  0  0  0  0
   29.1246  -19.6986   -5.9718 C   0  0  0  0  0  0  0  0  0  0  0  0
   28.8456  -20.0011   -7.3051 C   0  0  0  0  0  0  0  0  0  0  0  0
   27.5418  -20.2496   -7.6708 C   0  0  0  0  0  0  0  0  0  0  0  0
   25.5236  -20.4147  -11.2796 C   0  0  0  0  0  0  0  0  0  0  0  0
   25.4411  -19.1362  -11.2771 O   0  0  0  0  0  0  0  0  0  0  0  0
   24.2651  -21.0847  -11.2624 N   0  0  0  0  0  0  0  0  0  0  0  0
   23.0293  -20.3922  -11.6663 C   0  0  1  0  0  0  0  0  0  0  0  0
   22.6939  -20.7025  -13.0826 C   0  0  0  0  0  0  0  0  0  0  0  0
   21.4349  -20.0315  -13.5204 C   0  0  0  0  0  0  0  0  0  0  0  0
   21.0975  -20.3522  -14.9714 C   0  0  0  0  0  0  0  0  0  0  0  0
   19.8357  -19.5778  -15.3094 C   0  0  0  0  0  0  0  0  0  0  0  0
   19.4334  -19.7687  -16.6828 N   0  0  0  0  0  0  0  0  0  0  0  0
   22.0058  -20.8322  -10.6919 C   0  0  0  0  0  0  0  0  0  0  0  0
   21.8676  -22.0536  -10.3589 O   0  0  0  0  0  0  0  0  0  0  0  0
   21.1160  -19.9694  -10.0572 O   0  0  0  0  0  0  0  0  0  0  0  0
  2  1  1  6
  3  2  1  0
  4  5  1  1
  4  6  1  0
  4  2  1  0
  6  8  1  0
  7  6  2  0
  8  9  1  0
  9 10  1  1
 10 11  1  0
 11 19  1  0
 11 12  2  0
 12 13  1  0
 14 13  1  0
 14 15  2  0
 16 15  1  0
 17 16  2  0
 18 19  2  0
 18 17  1  0
 19 14  1  0
 20 21  2  0
 20  9  1  0
 22 20  1  0
 23 24  1  6
 23 22  1  0
 25 26  1  0
 25 24  1  0
 27 26  1  0
 28 27  1  0
 29 23  1  0
 30 29  2  0
 31 29  1  0
M  END
$$$$
