TWK.pdb
     RDKit          3D

 31 32  0  0  1  0  0  0  0  0999 V2000
   32.1603  -38.4073   -7.0669 C   0  0  0  0  0  0  0  0  0  0  0  0
   33.4801  -37.8968   -6.5576 C   0  0  1  0  0  0  0  0  0  0  0  0
   34.5424  -38.5530   -7.1566 O   0  0  0  0  0  0  0  0  0  0  0  0
   33.5711  -36.3917   -6.7084 C   0  0  2  0  0  0  0  0  0  0  0  0
   34.8120  -35.8746   -6.2188 N   0  0  0  0  0  0  0  0  0  0  0  0
   32.4349  -35.8001   -5.9206 C   0  0  0  0  0  0  0  0  0  0  0  0
   32.5600  -35.7538   -4.6885 O   0  0  0  0  0  0  0  0  0  0  0  0
   31.2890  -35.3275   -6.5951 N   0  0  0  0  0  0  0  0  0  0  0  0
   30.1265  -34.7631   -5.9612 C   0  0  1  0  0  0  0  0  0  0  0  0
   29.3292  -33.9675   -6.9820 C   0  0  0  0  0  0  0  0  0  0  0  0
   28.0669  -33.4911   -6.3699 C   0  0  0  0  0  0  0  0  0  0  0  0
   27.5799  -33.6091   -5.1087 C   0  0  0  0  0  0  0  0  0  0  0  0
   26.3618  -33.0052   -5.0057 N   0  0  0  0  0  0  0  0  0  0  0  0
   26.0759  -32.5010   -6.2098 C   0  0  0  0  0  0  0  0  0  0  0  0
   24.9655  -31.7994   -6.6214 C   0  0  0  0  0  0  0  0  0  0  0  0
   24.8987  -31.3781   -7.9229 C   0  0  0  0  0  0  0  0  0  0  0  0
   25.9102  -31.6404   -8.8172 C   0  0  0  0  0  0  0  0  0  0  0  0
   27.0316  -32.3524   -8.3903 C   0  0  0  0  0  0  0  0  0  0  0  0
   27.0922  -32.7732   -7.0808 C   0  0  0  0  0  0  0  0  0  0  0  0
   29.3636  -35.8259   -5.3054 C   0  0  0  0  0  0  0  0  0  0  0  0
   28.8001  -36.7635   -5.9722 O   0  0  0  0  0  0  0  0  0  0  0  0
   29.1797  -35.9161   -3.8943 N   0  0  0  0  0  0  0  0  0  0  0  0
   28.4515  -37.0465   -3.2930 C   0  0  1  0  0  0  0  0  0  0  0  0
   29.3876  -37.9433   -2.5620 C   0  0  0  0  0  0  0  0  0  0  0  0
   29.9034  -39.0423   -3.4297 C   0  0  0  0  0  0  0  0  0  0  0  0
   30.7778  -40.0165   -2.6497 C   0  0  0  0  0  0  0  0  0  0  0  0
   31.2973  -41.0356   -3.6485 C   0  0  0  0  0  0  0  0  0  0  0  0
   32.0044  -42.1164   -3.0030 N   0  0  0  0  0  0  0  0  0  0  0  0
   27.4162  -36.4255   -2.4369 C   0  0  0  0  0  0  0  0  0  0  0  0
   27.6928  -35.9056   -1.3077 O   0  0  0  0  0  0  0  0  0  0  0  0
   26.0685  -36.3496   -2.7789 O   0  0  0  0  0  0  0  0  0  0  0  0
  2  1  1  6
  3  2  1  0
  4  5  1  1
  4  6  1  0
  4  2  1  0
  6  8  1  0
  7  6  2  0
  8  9  1  0
  9 10  1  6
 10 11  1  0
 11 19  1  0
 11 12  2  0
 12 13  1  0
 14 13  1  0
 14 15  2  0
 16 15  1  0
 17 16  2  0
 18 19  2  0
 18 17  1  0
 19 14  1  0
 20 21  2  0
 20  9  1  0
 22 20  1  0
 23 24  1  1
 23 22  1  0
 25 26  1  0
 25 24  1  0
 27 26  1  0
 28 27  1  0
 29 23  1  0
 30 29  2  0
 31 29  1  0
M  END
$$$$
