TWK.pdb
     RDKit          3D

 31 32  0  0  1  0  0  0  0  0999 V2000
   22.4698  -16.6137  -18.7291 C   0  0  0  0  0  0  0  0  0  0  0  0
   23.7351  -16.5658  -19.5407 C   0  0  1  0  0  0  0  0  0  0  0  0
   23.8743  -15.3510  -20.1908 O   0  0  0  0  0  0  0  0  0  0  0  0
   24.9386  -16.9046  -18.6846 C   0  0  2  0  0  0  0  0  0  0  0  0
   26.1645  -16.8111  -19.4161 N   0  0  0  0  0  0  0  0  0  0  0  0
   24.7506  -18.3151  -18.1980 C   0  0  0  0  0  0  0  0  0  0  0  0
   24.8268  -19.2221  -19.0391 O   0  0  0  0  0  0  0  0  0  0  0  0
   24.4993  -18.5544  -16.8302 N   0  0  0  0  0  0  0  0  0  0  0  0
   24.1835  -19.8360  -16.2561 C   0  0  1  0  0  0  0  0  0  0  0  0
   24.8903  -19.9794  -14.9180 C   0  0  0  0  0  0  0  0  0  0  0  0
   24.6526  -21.3349  -14.3692 C   0  0  0  0  0  0  0  0  0  0  0  0
   23.8887  -21.7626  -13.3323 C   0  0  0  0  0  0  0  0  0  0  0  0
   23.9788  -23.1163  -13.1957 N   0  0  0  0  0  0  0  0  0  0  0  0
   24.8050  -23.5485  -14.1530 C   0  0  0  0  0  0  0  0  0  0  0  0
   25.2176  -24.8306  -14.4370 C   0  0  0  0  0  0  0  0  0  0  0  0
   26.0782  -25.0280  -15.4840 C   0  0  0  0  0  0  0  0  0  0  0  0
   26.5332  -23.9797  -16.2493 C   0  0  0  0  0  0  0  0  0  0  0  0
   26.1092  -22.6837  -15.9534 C   0  0  0  0  0  0  0  0  0  0  0  0
   25.2444  -22.4923  -14.8993 C   0  0  0  0  0  0  0  0  0  0  0  0
   22.7304  -19.9935  -16.1831 C   0  0  0  0  0  0  0  0  0  0  0  0
   21.9791  -19.0985  -15.6580 O   0  0  0  0  0  0  0  0  0  0  0  0
   22.0296  -21.1323  -16.6784 N   0  0  0  0  0  0  0  0  0  0  0  0
   20.5699  -21.2537  -16.5232 C   0  0  1  0  0  0  0  0  0  0  0  0
   20.0015  -22.1302  -17.5832 C   0  0  0  0  0  0  0  0  0  0  0  0
   18.5093  -22.1196  -17.5787 C   0  0  0  0  0  0  0  0  0  0  0  0
   17.9390  -23.1326  -16.5935 C   0  0  0  0  0  0  0  0  0  0  0  0
   16.4323  -23.1282  -16.7831 C   0  0  0  0  0  0  0  0  0  0  0  0
   15.7645  -23.9967  -15.8428 N   0  0  0  0  0  0  0  0  0  0  0  0
   20.3701  -21.7609  -15.1473 C   0  0  0  0  0  0  0  0  0  0  0  0
   21.0095  -22.7654  -14.6957 O   0  0  0  0  0  0  0  0  0  0  0  0
   19.4836  -21.1978  -14.2329 O   0  0  0  0  0  0  0  0  0  0  0  0
  2  1  1  1
  3  2  1  0
  4  5  1  6
  4  6  1  0
  4  2  1  0
  6  8  1  0
  7  6  2  0
  8  9  1  0
  9 10  1  1
 10 11  1  0
 11 19  1  0
 11 12  2  0
 12 13  1  0
 14 13  1  0
 14 15  2  0
 16 15  1  0
 17 16  2  0
 18 19  2  0
 18 17  1  0
 19 14  1  0
 20 21  2  0
 20  9  1  0
 22 20  1  0
 23 24  1  6
 23 22  1  0
 25 26  1  0
 25 24  1  0
 27 26  1  0
 28 27  1  0
 29 23  1  0
 30 29  2  0
 31 29  1  0
M  END
$$$$
