TWK.pdb
     RDKit          3D

 31 32  0  0  1  0  0  0  0  0999 V2000
   25.8733  -20.3587  -17.0045 C   0  0  0  0  0  0  0  0  0  0  0  0
   26.7951  -21.5293  -17.2094 C   0  0  1  0  0  0  0  0  0  0  0  0
   27.4920  -21.4228  -18.4013 O   0  0  0  0  0  0  0  0  0  0  0  0
   27.7128  -21.7087  -16.0170 C   0  0  2  0  0  0  0  0  0  0  0  0
   28.5874  -22.8301  -16.1734 N   0  0  0  0  0  0  0  0  0  0  0  0
   26.8362  -21.9197  -14.8136 C   0  0  0  0  0  0  0  0  0  0  0  0
   26.2862  -23.0242  -14.6967 O   0  0  0  0  0  0  0  0  0  0  0  0
   26.6720  -20.8766  -13.8775 N   0  0  0  0  0  0  0  0  0  0  0  0
   25.9405  -20.9775  -12.6420 C   0  0  1  0  0  0  0  0  0  0  0  0
   26.4804  -19.9605  -11.6495 C   0  0  0  0  0  0  0  0  0  0  0  0
   27.6196  -20.5448  -10.9039 C   0  0  0  0  0  0  0  0  0  0  0  0
   28.7072  -21.2386  -11.3252 C   0  0  0  0  0  0  0  0  0  0  0  0
   29.4985  -21.5792  -10.2683 N   0  0  0  0  0  0  0  0  0  0  0  0
   28.9080  -21.0974   -9.1706 C   0  0  0  0  0  0  0  0  0  0  0  0
   29.3108  -21.1753   -7.8567 C   0  0  0  0  0  0  0  0  0  0  0  0
   28.5293  -20.5944   -6.8934 C   0  0  0  0  0  0  0  0  0  0  0  0
   27.3615  -19.9412   -7.2114 C   0  0  0  0  0  0  0  0  0  0  0  0
   26.9616  -19.8678   -8.5462 C   0  0  0  0  0  0  0  0  0  0  0  0
   27.7517  -20.4542   -9.5093 C   0  0  0  0  0  0  0  0  0  0  0  0
   24.5080  -20.8464  -12.9106 C   0  0  0  0  0  0  0  0  0  0  0  0
   24.0187  -19.8062  -13.4763 O   0  0  0  0  0  0  0  0  0  0  0  0
   23.5434  -21.8417  -12.5758 N   0  0  0  0  0  0  0  0  0  0  0  0
   22.1129  -21.6420  -12.8649 C   0  0  1  0  0  0  0  0  0  0  0  0
   21.3707  -22.9268  -12.7491 C   0  0  0  0  0  0  0  0  0  0  0  0
   19.9460  -22.7911  -13.1718 C   0  0  0  0  0  0  0  0  0  0  0  0
   19.2137  -24.1268  -13.1310 C   0  0  0  0  0  0  0  0  0  0  0  0
   17.8123  -23.8747  -13.6586 C   0  0  0  0  0  0  0  0  0  0  0  0
   17.0595  -25.0980  -13.8053 N   0  0  0  0  0  0  0  0  0  0  0  0
   21.6698  -20.5995  -11.9125 C   0  0  0  0  0  0  0  0  0  0  0  0
   20.8916  -19.6524  -12.2579 O   0  0  0  0  0  0  0  0  0  0  0  0
   22.0517  -20.5572  -10.5740 O   0  0  0  0  0  0  0  0  0  0  0  0
  2  1  1  1
  3  2  1  0
  4  5  1  6
  4  6  1  0
  4  2  1  0
  6  8  1  0
  7  6  2  0
  8  9  1  0
  9 10  1  1
 10 11  1  0
 11 19  1  0
 11 12  2  0
 12 13  1  0
 14 13  1  0
 14 15  2  0
 16 15  1  0
 17 16  2  0
 18 19  2  0
 18 17  1  0
 19 14  1  0
 20 21  2  0
 20  9  1  0
 22 20  1  0
 23 24  1  1
 23 22  1  0
 25 26  1  0
 25 24  1  0
 27 26  1  0
 28 27  1  0
 29 23  1  0
 30 29  2  0
 31 29  1  0
M  END
$$$$
