TWK.pdb
     RDKit          3D

 31 32  0  0  1  0  0  0  0  0999 V2000
   26.8522  -23.3185  -18.8850 C   0  0  0  0  0  0  0  0  0  0  0  0
   27.7637  -24.1575  -18.0322 C   0  0  1  0  0  0  0  0  0  0  0  0
   28.3286  -25.1915  -18.7598 O   0  0  0  0  0  0  0  0  0  0  0  0
   28.8052  -23.2964  -17.3466 C   0  0  2  0  0  0  0  0  0  0  0  0
   29.6595  -24.0615  -16.4914 N   0  0  0  0  0  0  0  0  0  0  0  0
   28.0641  -22.2733  -16.5309 C   0  0  0  0  0  0  0  0  0  0  0  0
   27.6689  -22.6183  -15.4081 O   0  0  0  0  0  0  0  0  0  0  0  0
   27.8477  -20.9827  -17.0588 N   0  0  0  0  0  0  0  0  0  0  0  0
   27.2310  -19.8900  -16.3533 C   0  0  1  0  0  0  0  0  0  0  0  0
   27.6777  -18.5737  -16.9685 C   0  0  0  0  0  0  0  0  0  0  0  0
   27.0759  -17.4434  -16.2234 C   0  0  0  0  0  0  0  0  0  0  0  0
   27.1452  -17.0924  -14.9143 C   0  0  0  0  0  0  0  0  0  0  0  0
   26.4213  -15.9607  -14.6815 N   0  0  0  0  0  0  0  0  0  0  0  0
   25.8904  -15.5924  -15.8512 C   0  0  0  0  0  0  0  0  0  0  0  0
   25.0827  -14.5169  -16.1436 C   0  0  0  0  0  0  0  0  0  0  0  0
   24.6597  -14.3435  -17.4347 C   0  0  0  0  0  0  0  0  0  0  0  0
   25.0234  -15.2152  -18.4344 C   0  0  0  0  0  0  0  0  0  0  0  0
   25.8424  -16.3025  -18.1280 C   0  0  0  0  0  0  0  0  0  0  0  0
   26.2637  -16.4710  -16.8281 C   0  0  0  0  0  0  0  0  0  0  0  0
   25.7798  -20.0778  -16.3351 C   0  0  0  0  0  0  0  0  0  0  0  0
   25.1408  -20.5069  -17.3593 O   0  0  0  0  0  0  0  0  0  0  0  0
   24.9586  -19.8071  -15.2013 N   0  0  0  0  0  0  0  0  0  0  0  0
   23.4967  -19.9760  -15.2634 C   0  0  1  0  0  0  0  0  0  0  0  0
   22.9206  -20.0620  -13.8939 C   0  0  0  0  0  0  0  0  0  0  0  0
   21.4316  -20.1576  -13.9171 C   0  0  0  0  0  0  0  0  0  0  0  0
   20.9401  -21.4801  -13.3415 C   0  0  0  0  0  0  0  0  0  0  0  0
   19.4259  -21.4728  -13.4573 C   0  0  0  0  0  0  0  0  0  0  0  0
   18.8312  -22.6504  -12.8705 N   0  0  0  0  0  0  0  0  0  0  0  0
   23.0095  -18.8230  -16.0532 C   0  0  0  0  0  0  0  0  0  0  0  0
   22.0355  -18.9223  -16.8676 O   0  0  0  0  0  0  0  0  0  0  0  0
   23.5570  -17.5447  -15.9805 O   0  0  0  0  0  0  0  0  0  0  0  0
  2  1  1  6
  3  2  1  0
  4  5  1  1
  4  6  1  0
  4  2  1  0
  6  8  1  0
  7  6  2  0
  8  9  1  0
  9 10  1  6
 10 11  1  0
 11 19  1  0
 11 12  2  0
 12 13  1  0
 14 13  1  0
 14 15  2  0
 16 15  1  0
 17 16  2  0
 18 19  2  0
 18 17  1  0
 19 14  1  0
 20 21  2  0
 20  9  1  0
 22 20  1  0
 23 24  1  1
 23 22  1  0
 25 26  1  0
 25 24  1  0
 27 26  1  0
 28 27  1  0
 29 23  1  0
 30 29  2  0
 31 29  1  0
M  END
$$$$
