TWK.pdb
     RDKit          3D

 31 32  0  0  1  0  0  0  0  0999 V2000
   26.9340  -20.4452  -17.5299 C   0  0  0  0  0  0  0  0  0  0  0  0
   27.8055  -21.6336  -17.8302 C   0  0  1  0  0  0  0  0  0  0  0  0
   28.4972  -21.4674  -19.0183 O   0  0  0  0  0  0  0  0  0  0  0  0
   28.7242  -21.9376  -16.6639 C   0  0  2  0  0  0  0  0  0  0  0  0
   29.4861  -23.1301  -16.8741 N   0  0  0  0  0  0  0  0  0  0  0  0
   27.8539  -22.1054  -15.4491 C   0  0  0  0  0  0  0  0  0  0  0  0
   27.2393  -23.1753  -15.3327 O   0  0  0  0  0  0  0  0  0  0  0  0
   27.7674  -21.0625  -14.5025 N   0  0  0  0  0  0  0  0  0  0  0  0
   27.0368  -21.1242  -13.2638 C   0  0  1  0  0  0  0  0  0  0  0  0
   27.6426  -20.1469  -12.2695 C   0  0  0  0  0  0  0  0  0  0  0  0
   26.8534  -20.1552  -11.0156 C   0  0  0  0  0  0  0  0  0  0  0  0
   25.5328  -19.9444  -10.7843 C   0  0  0  0  0  0  0  0  0  0  0  0
   25.2547  -20.0547   -9.4540 N   0  0  0  0  0  0  0  0  0  0  0  0
   26.4069  -20.3378   -8.8391 C   0  0  0  0  0  0  0  0  0  0  0  0
   26.6544  -20.5460   -7.5012 C   0  0  0  0  0  0  0  0  0  0  0  0
   27.9349  -20.8279   -7.1051 C   0  0  0  0  0  0  0  0  0  0  0  0
   28.9675  -20.9061   -8.0102 C   0  0  0  0  0  0  0  0  0  0  0  0
   28.7064  -20.6934   -9.3643 C   0  0  0  0  0  0  0  0  0  0  0  0
   27.4171  -20.4101   -9.7554 C   0  0  0  0  0  0  0  0  0  0  0  0
   25.6138  -20.9044  -13.5249 C   0  0  0  0  0  0  0  0  0  0  0  0
   25.1931  -19.8661  -14.1465 O   0  0  0  0  0  0  0  0  0  0  0  0
   24.5844  -21.8047  -13.1212 N   0  0  0  0  0  0  0  0  0  0  0  0
   23.1872  -21.5993  -13.5398 C   0  0  1  0  0  0  0  0  0  0  0  0
   22.4752  -22.9019  -13.6456 C   0  0  0  0  0  0  0  0  0  0  0  0
   21.0444  -22.7287  -14.0326 C   0  0  0  0  0  0  0  0  0  0  0  0
   20.2945  -24.0552  -14.0368 C   0  0  0  0  0  0  0  0  0  0  0  0
   18.8731  -23.7539  -14.4784 C   0  0  0  0  0  0  0  0  0  0  0  0
   18.0669  -24.9485  -14.5644 N   0  0  0  0  0  0  0  0  0  0  0  0
   22.6155  -20.6776  -12.5328 C   0  0  0  0  0  0  0  0  0  0  0  0
   22.7106  -20.8967  -11.2819 O   0  0  0  0  0  0  0  0  0  0  0  0
   21.9351  -19.5049  -12.8508 O   0  0  0  0  0  0  0  0  0  0  0  0
  2  1  1  1
  3  2  1  0
  4  5  1  6
  4  6  1  0
  4  2  1  0
  6  8  1  0
  7  6  2  0
  8  9  1  0
  9 10  1  1
 10 11  1  0
 11 19  1  0
 11 12  2  0
 12 13  1  0
 14 13  1  0
 14 15  2  0
 16 15  1  0
 17 16  2  0
 18 19  2  0
 18 17  1  0
 19 14  1  0
 20 21  2  0
 20  9  1  0
 22 20  1  0
 23 24  1  1
 23 22  1  0
 25 26  1  0
 25 24  1  0
 27 26  1  0
 28 27  1  0
 29 23  1  0
 30 29  2  0
 31 29  1  0
M  END
$$$$
