TWK.pdb
     RDKit          3D

 31 32  0  0  1  0  0  0  0  0999 V2000
   27.2549  -21.1201  -18.6915 C   0  0  0  0  0  0  0  0  0  0  0  0
   26.6497  -21.4705  -17.3600 C   0  0  1  0  0  0  0  0  0  0  0  0
   25.4420  -22.1312  -17.5105 O   0  0  0  0  0  0  0  0  0  0  0  0
   27.6324  -22.2487  -16.5086 C   0  0  2  0  0  0  0  0  0  0  0  0
   27.8848  -23.5552  -17.0341 N   0  0  0  0  0  0  0  0  0  0  0  0
   27.0293  -22.3675  -15.1361 C   0  0  0  0  0  0  0  0  0  0  0  0
   26.5195  -23.4550  -14.8307 O   0  0  0  0  0  0  0  0  0  0  0  0
   27.0628  -21.2614  -14.2604 N   0  0  0  0  0  0  0  0  0  0  0  0
   26.5170  -21.2402  -12.9287 C   0  0  1  0  0  0  0  0  0  0  0  0
   27.2638  -20.2143  -12.0917 C   0  0  0  0  0  0  0  0  0  0  0  0
   26.7242  -20.2058  -10.7119 C   0  0  0  0  0  0  0  0  0  0  0  0
   25.4948  -19.8920  -10.2305 C   0  0  0  0  0  0  0  0  0  0  0  0
   25.4599  -20.0320   -8.8747 N   0  0  0  0  0  0  0  0  0  0  0  0
   26.6754  -20.4376   -8.4952 C   0  0  0  0  0  0  0  0  0  0  0  0
   27.1471  -20.7204   -7.2335 C   0  0  0  0  0  0  0  0  0  0  0  0
   28.4475  -21.1270   -7.0931 C   0  0  0  0  0  0  0  0  0  0  0  0
   29.2822  -21.2568   -8.1785 C   0  0  0  0  0  0  0  0  0  0  0  0
   28.7945  -20.9676   -9.4535 C   0  0  0  0  0  0  0  0  0  0  0  0
   27.4866  -20.5591   -9.5873 C   0  0  0  0  0  0  0  0  0  0  0  0
   25.0723  -21.0169  -12.9967 C   0  0  0  0  0  0  0  0  0  0  0  0
   24.5619  -20.1223  -13.7586 O   0  0  0  0  0  0  0  0  0  0  0  0
   24.1182  -21.7572  -12.2387 N   0  0  0  0  0  0  0  0  0  0  0  0
   22.6726  -21.5275  -12.4034 C   0  0  1  0  0  0  0  0  0  0  0  0
   22.0554  -21.1251  -11.1104 C   0  0  0  0  0  0  0  0  0  0  0  0
   20.5759  -21.3193  -11.1111 C   0  0  0  0  0  0  0  0  0  0  0  0
   20.1970  -22.7842  -10.9309 C   0  0  0  0  0  0  0  0  0  0  0  0
   18.6819  -22.8377  -10.8440 C   0  0  0  0  0  0  0  0  0  0  0  0
   18.1829  -24.1916  -10.8950 N   0  0  0  0  0  0  0  0  0  0  0  0
   22.5643  -20.5063  -13.4691 C   0  0  0  0  0  0  0  0  0  0  0  0
   22.2399  -20.8051  -14.6638 O   0  0  0  0  0  0  0  0  0  0  0  0
   22.7996  -19.1482  -13.2705 O   0  0  0  0  0  0  0  0  0  0  0  0
  2  1  1  6
  3  2  1  0
  4  5  1  6
  4  6  1  0
  4  2  1  0
  6  8  1  0
  7  6  2  0
  8  9  1  0
  9 10  1  1
 10 11  1  0
 11 19  1  0
 11 12  2  0
 12 13  1  0
 14 13  1  0
 14 15  2  0
 16 15  1  0
 17 16  2  0
 18 19  2  0
 18 17  1  0
 19 14  1  0
 20 21  2  0
 20  9  1  0
 22 20  1  0
 23 24  1  1
 23 22  1  0
 25 26  1  0
 25 24  1  0
 27 26  1  0
 28 27  1  0
 29 23  1  0
 30 29  2  0
 31 29  1  0
M  END
$$$$
