PKG.pdb
     RDKit          3D

 21 21  0  0  1  0  0  0  0  0999 V2000
   19.9960  -11.9836  -17.7574 N   0  0  0  0  0  0  0  0  0  0  0  0
   19.4307  -13.2290  -18.1839 C   0  0  0  0  0  0  0  0  0  0  0  0
   19.0668  -14.0179  -16.9524 C   0  0  0  0  0  0  0  0  0  0  0  0
   19.9307  -13.3242  -15.8916 C   0  0  0  0  0  0  0  0  0  0  0  0
   19.8192  -11.8950  -16.3209 C   0  0  1  0  0  0  0  0  0  0  0  0
   20.8345  -11.0205  -15.6934 C   0  0  0  0  0  0  0  0  0  0  0  0
   20.7850  -10.8876  -14.4453 O   0  0  0  0  0  0  0  0  0  0  0  0
   21.8382  -10.3397  -16.4110 N   0  0  0  0  0  0  0  0  0  0  0  0
   22.7391   -9.4528  -15.7058 C   0  0  1  0  0  0  0  0  0  0  0  0
   24.1177   -9.7223  -16.2440 C   0  0  0  0  0  0  0  0  0  0  0  0
   24.7434  -10.9889  -15.7843 C   0  0  0  0  0  0  0  0  0  0  0  0
   26.0403  -11.3399  -16.4372 C   0  0  0  0  0  0  0  0  0  0  0  0
   26.6768  -12.6150  -16.0206 C   0  0  0  0  0  0  0  0  0  0  0  0
   27.9276  -12.9349  -16.6500 N   0  0  0  0  0  0  0  0  0  0  0  0
   22.3244   -8.0364  -15.8373 C   0  0  0  0  0  0  0  0  0  0  0  0
   21.9766   -7.5694  -16.9469 O   0  0  0  0  0  0  0  0  0  0  0  0
   22.2966   -7.1343  -14.7273 N   0  0  0  0  0  0  0  0  0  0  0  0
   21.9097   -5.7647  -14.9112 C   0  0  0  0  0  0  0  0  0  0  0  0
   21.9218   -4.9847  -13.6638 C   0  0  0  0  0  0  0  0  0  0  0  0
   22.1656   -5.5493  -12.5842 O   0  0  0  0  0  0  0  0  0  0  0  0
   21.6630   -3.6249  -13.6864 O   0  0  0  0  0  0  0  0  0  0  0  0
  2  1  1  0
  3  2  1  0
  4  5  1  0
  4  3  1  0
  5  1  1  0
  6  8  1  0
  5  6  1  1
  7  6  2  0
  9  8  1  0
  9 10  1  6
 10 11  1  0
 11 12  1  0
 12 13  1  0
 13 14  1  0
 15  9  1  0
 16 15  2  0
 17 15  1  0
 18 19  1  0
 18 17  1  0
 19 21  1  0
 20 19  2  0
M  END
$$$$
