PKG.pdb
     RDKit          3D

 21 21  0  0  1  0  0  0  0  0999 V2000
   24.0380  -20.5990  -10.6236 N   0  0  0  0  0  0  0  0  0  0  0  0
   25.0136  -21.1586   -9.7361 C   0  0  0  0  0  0  0  0  0  0  0  0
   26.3531  -21.0996  -10.4243 C   0  0  0  0  0  0  0  0  0  0  0  0
   25.9256  -20.9428  -11.8891 C   0  0  0  0  0  0  0  0  0  0  0  0
   24.7514  -20.0259  -11.7485 C   0  0  1  0  0  0  0  0  0  0  0  0
   23.9102  -19.9708  -12.9644 C   0  0  0  0  0  0  0  0  0  0  0  0
   24.4158  -19.4486  -13.9889 O   0  0  0  0  0  0  0  0  0  0  0  0
   22.5924  -20.4654  -13.0326 N   0  0  0  0  0  0  0  0  0  0  0  0
   21.8573  -20.3614  -14.2753 C   0  0  1  0  0  0  0  0  0  0  0  0
   21.6855  -21.7634  -14.7928 C   0  0  0  0  0  0  0  0  0  0  0  0
   22.9094  -22.3865  -15.3593 C   0  0  0  0  0  0  0  0  0  0  0  0
   23.3211  -23.6796  -14.7351 C   0  0  0  0  0  0  0  0  0  0  0  0
   24.5020  -24.3614  -15.3226 C   0  0  0  0  0  0  0  0  0  0  0  0
   24.9165  -25.5777  -14.6809 N   0  0  0  0  0  0  0  0  0  0  0  0
   20.5748  -19.6424  -14.0919 C   0  0  0  0  0  0  0  0  0  0  0  0
   19.9973  -19.6325  -12.9798 O   0  0  0  0  0  0  0  0  0  0  0  0
   19.9310  -18.9300  -15.1524 N   0  0  0  0  0  0  0  0  0  0  0  0
   18.7452  -18.1622  -14.8997 C   0  0  0  0  0  0  0  0  0  0  0  0
   17.5151  -18.9691  -14.9191 C   0  0  0  0  0  0  0  0  0  0  0  0
   17.5848  -20.1983  -15.0861 O   0  0  0  0  0  0  0  0  0  0  0  0
   16.2802  -18.3661  -14.7524 O   0  0  0  0  0  0  0  0  0  0  0  0
  2  1  1  0
  3  2  1  0
  4  5  1  0
  4  3  1  0
  5  1  1  0
  6  8  1  0
  5  6  1  6
  7  6  2  0
  9  8  1  0
  9 10  1  1
 10 11  1  0
 11 12  1  0
 12 13  1  0
 13 14  1  0
 15  9  1  0
 16 15  2  0
 17 15  1  0
 18 19  1  0
 18 17  1  0
 19 21  1  0
 20 19  2  0
M  END
$$$$
