PKG.pdb
     RDKit          3D

 21 21  0  0  1  0  0  0  0  0999 V2000
   25.1510  -21.6758  -12.8987 N   0  0  0  0  0  0  0  0  0  0  0  0
   26.2246  -21.9904  -12.0037 C   0  0  0  0  0  0  0  0  0  0  0  0
   26.1699  -21.0164  -10.8549 C   0  0  0  0  0  0  0  0  0  0  0  0
   25.3269  -19.8889  -11.4639 C   0  0  0  0  0  0  0  0  0  0  0  0
   24.3262  -20.6731  -12.2529 C   0  0  1  0  0  0  0  0  0  0  0  0
   23.5890  -19.8491  -13.2361 C   0  0  0  0  0  0  0  0  0  0  0  0
   22.9010  -18.8986  -12.7874 O   0  0  0  0  0  0  0  0  0  0  0  0
   23.6176  -20.0709  -14.6274 N   0  0  0  0  0  0  0  0  0  0  0  0
   22.9277  -19.1524  -15.5083 C   0  0  1  0  0  0  0  0  0  0  0  0
   23.8011  -18.9806  -16.7210 C   0  0  0  0  0  0  0  0  0  0  0  0
   25.1587  -18.4392  -16.4553 C   0  0  0  0  0  0  0  0  0  0  0  0
   26.0475  -18.3164  -17.6496 C   0  0  0  0  0  0  0  0  0  0  0  0
   27.4370  -17.8534  -17.4061 C   0  0  0  0  0  0  0  0  0  0  0  0
   28.2761  -17.7277  -18.5650 N   0  0  0  0  0  0  0  0  0  0  0  0
   21.5621  -19.6279  -15.8312 C   0  0  0  0  0  0  0  0  0  0  0  0
   20.8170  -18.9707  -16.5949 O   0  0  0  0  0  0  0  0  0  0  0  0
   21.0222  -20.8420  -15.3011 N   0  0  0  0  0  0  0  0  0  0  0  0
   19.6711  -21.2274  -15.5935 C   0  0  0  0  0  0  0  0  0  0  0  0
   18.7123  -20.8178  -14.5554 C   0  0  0  0  0  0  0  0  0  0  0  0
   18.2358  -19.6705  -14.5722 O   0  0  0  0  0  0  0  0  0  0  0  0
   18.3380  -21.7041  -13.5599 O   0  0  0  0  0  0  0  0  0  0  0  0
  2  1  1  0
  3  2  1  0
  4  5  1  0
  4  3  1  0
  5  1  1  0
  6  8  1  0
  5  6  1  6
  7  6  2  0
  9  8  1  0
  9 10  1  6
 10 11  1  0
 11 12  1  0
 12 13  1  0
 13 14  1  0
 15  9  1  0
 16 15  2  0
 17 15  1  0
 18 19  1  0
 18 17  1  0
 19 21  1  0
 20 19  2  0
M  END
$$$$
