PKG.pdb
     RDKit          3D

 21 21  0  0  1  0  0  0  0  0999 V2000
   27.1628  -20.2444  -15.2312 N   0  0  0  0  0  0  0  0  0  0  0  0
   28.5213  -20.6838  -15.1135 C   0  0  0  0  0  0  0  0  0  0  0  0
   28.6752  -21.9370  -15.9364 C   0  0  0  0  0  0  0  0  0  0  0  0
   27.2138  -22.3836  -16.0700 C   0  0  0  0  0  0  0  0  0  0  0  0
   26.5260  -21.0659  -16.2423 C   0  0  1  0  0  0  0  0  0  0  0  0
   25.0617  -21.1462  -16.0453 C   0  0  0  0  0  0  0  0  0  0  0  0
   24.4024  -21.7911  -16.8982 O   0  0  0  0  0  0  0  0  0  0  0  0
   24.3787  -20.5469  -14.9682 N   0  0  0  0  0  0  0  0  0  0  0  0
   22.9554  -20.7650  -14.8191 C   0  0  1  0  0  0  0  0  0  0  0  0
   22.7325  -21.1953  -13.3951 C   0  0  0  0  0  0  0  0  0  0  0  0
   21.3275  -21.5257  -13.0432 C   0  0  0  0  0  0  0  0  0  0  0  0
   20.8689  -22.8910  -13.4395 C   0  0  0  0  0  0  0  0  0  0  0  0
   19.4589  -23.2398  -13.1320 C   0  0  0  0  0  0  0  0  0  0  0  0
   19.0612  -24.5889  -13.4233 N   0  0  0  0  0  0  0  0  0  0  0  0
   22.1766  -19.5626  -15.1976 C   0  0  0  0  0  0  0  0  0  0  0  0
   22.3182  -18.4838  -14.5760 O   0  0  0  0  0  0  0  0  0  0  0  0
   21.2346  -19.5608  -16.2743 N   0  0  0  0  0  0  0  0  0  0  0  0
   20.4545  -18.3901  -16.5577 C   0  0  0  0  0  0  0  0  0  0  0  0
   19.0802  -18.4676  -16.0381 C   0  0  0  0  0  0  0  0  0  0  0  0
   18.8812  -18.4521  -14.8118 O   0  0  0  0  0  0  0  0  0  0  0  0
   18.0072  -18.5577  -16.9084 O   0  0  0  0  0  0  0  0  0  0  0  0
  2  1  1  0
  3  2  1  0
  4  5  1  0
  4  3  1  0
  5  1  1  0
  6  8  1  0
  5  6  1  1
  7  6  2  0
  9  8  1  0
  9 10  1  1
 10 11  1  0
 11 12  1  0
 12 13  1  0
 13 14  1  0
 15  9  1  0
 16 15  2  0
 17 15  1  0
 18 19  1  0
 18 17  1  0
 19 21  1  0
 20 19  2  0
M  END
$$$$
