PKG.pdb
     RDKit          3D

 21 21  0  0  1  0  0  0  0  0999 V2000
   28.4190  -21.4252  -10.9006 N   0  0  0  0  0  0  0  0  0  0  0  0
   29.7718  -21.8968  -10.8919 C   0  0  0  0  0  0  0  0  0  0  0  0
   30.6275  -20.8606  -11.5743 C   0  0  0  0  0  0  0  0  0  0  0  0
   29.5706  -20.0800  -12.3657 C   0  0  0  0  0  0  0  0  0  0  0  0
   28.4375  -20.0599  -11.3886 C   0  0  1  0  0  0  0  0  0  0  0  0
   27.1477  -19.6771  -12.0044 C   0  0  0  0  0  0  0  0  0  0  0  0
   26.9818  -18.4631  -12.2813 O   0  0  0  0  0  0  0  0  0  0  0  0
   26.1120  -20.5883  -12.2921 N   0  0  0  0  0  0  0  0  0  0  0  0
   24.8752  -20.1013  -12.8652 C   0  0  1  0  0  0  0  0  0  0  0  0
   24.8300  -20.6037  -14.2824 C   0  0  0  0  0  0  0  0  0  0  0  0
   23.7002  -20.0948  -15.1018 C   0  0  0  0  0  0  0  0  0  0  0  0
   22.8587  -21.1403  -15.7576 C   0  0  0  0  0  0  0  0  0  0  0  0
   21.7100  -20.6643  -16.5690 C   0  0  0  0  0  0  0  0  0  0  0  0
   20.9054  -21.6810  -17.1871 N   0  0  0  0  0  0  0  0  0  0  0  0
   23.7015  -20.5119  -12.0594 C   0  0  0  0  0  0  0  0  0  0  0  0
   23.5256  -21.7124  -11.7463 O   0  0  0  0  0  0  0  0  0  0  0  0
   22.7177  -19.5808  -11.5992 N   0  0  0  0  0  0  0  0  0  0  0  0
   21.6376  -20.0171  -10.7610 C   0  0  0  0  0  0  0  0  0  0  0  0
   20.4726  -20.5004  -11.5185 C   0  0  0  0  0  0  0  0  0  0  0  0
   20.5448  -20.6209  -12.7530 O   0  0  0  0  0  0  0  0  0  0  0  0
   19.2963  -20.8217  -10.8631 O   0  0  0  0  0  0  0  0  0  0  0  0
  2  1  1  0
  3  2  1  0
  4  5  1  0
  4  3  1  0
  5  1  1  0
  6  8  1  0
  5  6  1  6
  7  6  2  0
  9  8  1  0
  9 10  1  6
 10 11  1  0
 11 12  1  0
 12 13  1  0
 13 14  1  0
 15  9  1  0
 16 15  2  0
 17 15  1  0
 18 19  1  0
 18 17  1  0
 19 21  1  0
 20 19  2  0
M  END
$$$$
