PKG.pdb
     RDKit          3D

 21 21  0  0  1  0  0  0  0  0999 V2000
   23.2583  -23.1538  -14.4263 N   0  0  0  0  0  0  0  0  0  0  0  0
   24.6639  -23.3010  -14.6613 C   0  0  0  0  0  0  0  0  0  0  0  0
   24.9128  -24.7196  -15.1054 C   0  0  0  0  0  0  0  0  0  0  0  0
   23.6399  -25.4133  -14.6039 C   0  0  0  0  0  0  0  0  0  0  0  0
   22.6106  -24.3656  -14.8899 C   0  0  1  0  0  0  0  0  0  0  0  0
   21.3284  -24.6068  -14.1920 C   0  0  0  0  0  0  0  0  0  0  0  0
   20.6522  -25.5992  -14.5607 O   0  0  0  0  0  0  0  0  0  0  0  0
   20.8338  -23.7949  -13.1520 N   0  0  0  0  0  0  0  0  0  0  0  0
   19.6063  -24.1676  -12.4813 C   0  0  1  0  0  0  0  0  0  0  0  0
   19.9393  -24.3104  -11.0213 C   0  0  0  0  0  0  0  0  0  0  0  0
   18.8176  -24.7527  -10.1536 C   0  0  0  0  0  0  0  0  0  0  0  0
   19.1208  -24.8158   -8.6922 C   0  0  0  0  0  0  0  0  0  0  0  0
   17.9847  -25.1152   -7.7844 C   0  0  0  0  0  0  0  0  0  0  0  0
   18.2765  -25.1038   -6.3781 N   0  0  0  0  0  0  0  0  0  0  0  0
   18.5232  -23.1910  -12.7433 C   0  0  0  0  0  0  0  0  0  0  0  0
   18.6902  -21.9702  -12.5153 O   0  0  0  0  0  0  0  0  0  0  0  0
   17.2466  -23.5753  -13.2622 N   0  0  0  0  0  0  0  0  0  0  0  0
   16.2435  -22.5860  -13.5354 C   0  0  0  0  0  0  0  0  0  0  0  0
   15.4120  -22.2628  -12.3654 C   0  0  0  0  0  0  0  0  0  0  0  0
   15.5983  -22.8586  -11.2912 O   0  0  0  0  0  0  0  0  0  0  0  0
   14.4230  -21.2982  -12.4550 O   0  0  0  0  0  0  0  0  0  0  0  0
  2  1  1  0
  3  2  1  0
  4  5  1  0
  4  3  1  0
  5  1  1  0
  6  8  1  0
  5  6  1  1
  7  6  2  0
  9  8  1  0
  9 10  1  1
 10 11  1  0
 11 12  1  0
 12 13  1  0
 13 14  1  0
 15  9  1  0
 16 15  2  0
 17 15  1  0
 18 19  1  0
 18 17  1  0
 19 21  1  0
 20 19  2  0
M  END
$$$$
