PKG.pdb
     RDKit          3D

 21 21  0  0  1  0  0  0  0  0999 V2000
   24.0607  -11.4418  -15.0698 N   0  0  0  0  0  0  0  0  0  0  0  0
   24.4254  -12.8022  -15.3321 C   0  0  0  0  0  0  0  0  0  0  0  0
   24.2960  -13.0384  -16.8150 C   0  0  0  0  0  0  0  0  0  0  0  0
   23.3736  -11.8811  -17.2186 C   0  0  0  0  0  0  0  0  0  0  0  0
   23.8971  -10.7808  -16.3500 C   0  0  1  0  0  0  0  0  0  0  0  0
   22.9769   -9.6256  -16.2604 C   0  0  0  0  0  0  0  0  0  0  0  0
   22.8453   -8.9156  -17.2882 O   0  0  0  0  0  0  0  0  0  0  0  0
   22.2519   -9.2854  -15.1009 N   0  0  0  0  0  0  0  0  0  0  0  0
   21.3811   -8.1292  -15.1204 C   0  0  1  0  0  0  0  0  0  0  0  0
   19.9902   -8.6329  -14.8472 C   0  0  0  0  0  0  0  0  0  0  0  0
   19.4188   -9.5210  -15.8921 C   0  0  0  0  0  0  0  0  0  0  0  0
   18.0548  -10.0579  -15.6047 C   0  0  0  0  0  0  0  0  0  0  0  0
   17.5101  -11.0518  -16.5639 C   0  0  0  0  0  0  0  0  0  0  0  0
   16.1561  -11.4746  -16.3386 N   0  0  0  0  0  0  0  0  0  0  0  0
   21.8288   -7.0927  -14.1610 C   0  0  0  0  0  0  0  0  0  0  0  0
   21.9921   -7.3667  -12.9492 O   0  0  0  0  0  0  0  0  0  0  0  0
   22.0965   -5.7429  -14.5525 N   0  0  0  0  0  0  0  0  0  0  0  0
   22.3854   -4.7419  -13.5657 C   0  0  0  0  0  0  0  0  0  0  0  0
   21.6207   -3.4996  -13.7567 C   0  0  0  0  0  0  0  0  0  0  0  0
   20.7330   -3.4474  -14.6244 O   0  0  0  0  0  0  0  0  0  0  0  0
   21.8849   -2.3881  -12.9746 O   0  0  0  0  0  0  0  0  0  0  0  0
  2  1  1  0
  3  2  1  0
  4  5  1  0
  4  3  1  0
  5  1  1  0
  6  8  1  0
  5  6  1  1
  7  6  2  0
  9  8  1  0
  9 10  1  1
 10 11  1  0
 11 12  1  0
 12 13  1  0
 13 14  1  0
 15  9  1  0
 16 15  2  0
 17 15  1  0
 18 19  1  0
 18 17  1  0
 19 21  1  0
 20 19  2  0
M  END
$$$$
