PKG.pdb
     RDKit          3D

 21 21  0  0  1  0  0  0  0  0999 V2000
   27.4316  -18.6524  -16.3824 N   0  0  0  0  0  0  0  0  0  0  0  0
   28.6087  -18.0667  -16.9516 C   0  0  0  0  0  0  0  0  0  0  0  0
   29.6341  -19.1584  -17.1192 C   0  0  0  0  0  0  0  0  0  0  0  0
   29.0974  -20.2187  -16.1493 C   0  0  0  0  0  0  0  0  0  0  0  0
   27.6231  -20.0897  -16.3706 C   0  0  1  0  0  0  0  0  0  0  0  0
   26.8191  -20.7443  -15.3150 C   0  0  0  0  0  0  0  0  0  0  0  0
   26.8371  -21.9997  -15.2754 O   0  0  0  0  0  0  0  0  0  0  0  0
   26.0464  -20.0446  -14.3668 N   0  0  0  0  0  0  0  0  0  0  0  0
   25.2218  -20.7851  -13.4356 C   0  0  1  0  0  0  0  0  0  0  0  0
   25.6626  -20.3818  -12.0550 C   0  0  0  0  0  0  0  0  0  0  0  0
   24.8780  -20.9711  -10.9396 C   0  0  0  0  0  0  0  0  0  0  0  0
   25.3212  -20.5842   -9.5665 C   0  0  0  0  0  0  0  0  0  0  0  0
   24.5944  -21.2022   -8.4288 C   0  0  0  0  0  0  0  0  0  0  0  0
   25.0082  -20.7943   -7.1152 N   0  0  0  0  0  0  0  0  0  0  0  0
   23.7790  -20.5545  -13.6817 C   0  0  0  0  0  0  0  0  0  0  0  0
   23.3376  -19.3981  -13.8774 O   0  0  0  0  0  0  0  0  0  0  0  0
   22.8215  -21.6170  -13.7102 N   0  0  0  0  0  0  0  0  0  0  0  0
   21.4644  -21.3645  -14.1023 C   0  0  0  0  0  0  0  0  0  0  0  0
   20.6000  -20.9646  -12.9809 C   0  0  0  0  0  0  0  0  0  0  0  0
   19.3849  -20.7876  -13.1696 O   0  0  0  0  0  0  0  0  0  0  0  0
   21.1336  -20.7845  -11.7161 O   0  0  0  0  0  0  0  0  0  0  0  0
  2  1  1  0
  3  2  1  0
  4  5  1  0
  4  3  1  0
  5  1  1  0
  6  8  1  0
  5  6  1  1
  7  6  2  0
  9  8  1  0
  9 10  1  1
 10 11  1  0
 11 12  1  0
 12 13  1  0
 13 14  1  0
 15  9  1  0
 16 15  2  0
 17 15  1  0
 18 19  1  0
 18 17  1  0
 19 21  1  0
 20 19  2  0
M  END
$$$$
