PKG.pdb
     RDKit          3D

 21 21  0  0  1  0  0  0  0  0999 V2000
   18.9977  -12.4048  -15.9269 N   0  0  0  0  0  0  0  0  0  0  0  0
   19.0411  -13.7565  -16.3998 C   0  0  0  0  0  0  0  0  0  0  0  0
   18.1948  -13.8388  -17.6441 C   0  0  0  0  0  0  0  0  0  0  0  0
   17.3250  -12.5845  -17.4928 C   0  0  0  0  0  0  0  0  0  0  0  0
   18.3166  -11.6136  -16.9333 C   0  0  1  0  0  0  0  0  0  0  0  0
   17.6840  -10.4088  -16.3523 C   0  0  0  0  0  0  0  0  0  0  0  0
   17.1438   -9.6029  -17.1502 O   0  0  0  0  0  0  0  0  0  0  0  0
   17.6560  -10.1225  -14.9728 N   0  0  0  0  0  0  0  0  0  0  0  0
   17.0147   -8.9097  -14.5112 C   0  0  1  0  0  0  0  0  0  0  0  0
   15.9580   -9.3293  -13.5262 C   0  0  0  0  0  0  0  0  0  0  0  0
   14.6751   -9.7810  -14.1239 C   0  0  0  0  0  0  0  0  0  0  0  0
   13.6209  -10.1932  -13.1491 C   0  0  0  0  0  0  0  0  0  0  0  0
   12.2880  -10.5336  -13.7075 C   0  0  0  0  0  0  0  0  0  0  0  0
   11.2939  -10.9587  -12.7620 N   0  0  0  0  0  0  0  0  0  0  0  0
   17.9965   -7.9541  -13.9469 C   0  0  0  0  0  0  0  0  0  0  0  0
   18.5872   -8.2013  -12.8698 O   0  0  0  0  0  0  0  0  0  0  0  0
   18.3229   -6.7161  -14.5852 N   0  0  0  0  0  0  0  0  0  0  0  0
   19.2678   -5.8158  -13.9885 C   0  0  0  0  0  0  0  0  0  0  0  0
   20.6598   -6.0939  -14.3753 C   0  0  0  0  0  0  0  0  0  0  0  0
   20.9170   -7.0714  -15.0979 O   0  0  0  0  0  0  0  0  0  0  0  0
   21.6848   -5.2723  -13.9384 O   0  0  0  0  0  0  0  0  0  0  0  0
  2  1  1  0
  3  2  1  0
  4  5  1  0
  4  3  1  0
  5  1  1  0
  6  8  1  0
  5  6  1  1
  7  6  2  0
  9  8  1  0
  9 10  1  1
 10 11  1  0
 11 12  1  0
 12 13  1  0
 13 14  1  0
 15  9  1  0
 16 15  2  0
 17 15  1  0
 18 19  1  0
 18 17  1  0
 19 21  1  0
 20 19  2  0
M  END
$$$$
