YDQ.pdb
     RDKit          3D

 30 30  0  0  1  0  0  0  0  0999 V2000
   27.8419  -21.1293   -7.6936 O   0  0  0  0  0  0  0  0  0  0  0  0
   27.6450  -20.7036   -8.9984 C   0  0  0  0  0  0  0  0  0  0  0  0
   26.6376  -19.8401   -9.3620 C   0  0  0  0  0  0  0  0  0  0  0  0
   26.4598  -19.4273  -10.6769 C   0  0  0  0  0  0  0  0  0  0  0  0
   27.2985  -19.8769  -11.6692 C   0  0  0  0  0  0  0  0  0  0  0  0
   27.1127  -19.4514  -13.0695 C   0  0  0  0  0  0  0  0  0  0  0  0
   25.6732  -19.4512  -13.4592 C   0  0  2  0  0  0  0  0  0  0  0  0
   25.1568  -20.8250  -13.3445 N   0  0  0  0  0  0  0  0  0  0  0  0
   25.4452  -18.9589  -14.8335 C   0  0  0  0  0  0  0  0  0  0  0  0
   26.0403  -17.9201  -15.2732 O   0  0  0  0  0  0  0  0  0  0  0  0
   28.3188  -20.7490  -11.3118 C   0  0  0  0  0  0  0  0  0  0  0  0
   28.4731  -21.1400  -10.0124 C   0  0  0  0  0  0  0  0  0  0  0  0
   24.5398  -19.6697  -15.6666 N   0  0  0  0  0  0  0  0  0  0  0  0
   24.2000  -19.1594  -16.9615 C   0  0  1  0  0  0  0  0  0  0  0  0
   24.1280  -20.2544  -17.9477 C   0  0  0  0  0  0  0  0  0  0  0  0
   23.9251  -19.6927  -19.3026 C   0  0  0  0  0  0  0  0  0  0  0  0
   22.9312  -19.9529  -20.0227 O   0  0  0  0  0  0  0  0  0  0  0  0
   22.9643  -18.3476  -16.8658 C   0  0  0  0  0  0  0  0  0  0  0  0
   22.1457  -18.6431  -15.9646 O   0  0  0  0  0  0  0  0  0  0  0  0
   24.8653  -18.8103  -19.8712 O   0  0  0  0  0  0  0  0  0  0  0  0
   22.5906  -12.5272  -18.6311 N   0  0  0  0  0  0  0  0  0  0  0  0
   21.2706  -12.7355  -18.1691 C   0  0  0  0  0  0  0  0  0  0  0  0
   20.4476  -11.7679  -18.1550 O   0  0  0  0  0  0  0  0  0  0  0  0
   20.8071  -14.0496  -17.7044 C   0  0  0  0  0  0  0  0  0  0  0  0
   21.8582  -15.0716  -17.8358 C   0  0  0  0  0  0  0  0  0  0  0  0
   21.4304  -16.4489  -17.5157 C   0  0  2  0  0  0  0  0  0  0  0  0
   22.6555  -17.2741  -17.7173 N   0  0  0  0  0  0  0  0  0  0  0  0
   20.2790  -17.0467  -18.1282 C   0  0  0  0  0  0  0  0  0  0  0  0
   19.1194  -16.9116  -17.5882 O   0  0  0  0  0  0  0  0  0  0  0  0
   20.2526  -17.7914  -19.3062 O   0  0  0  0  0  0  0  0  0  0  0  0
  1  2  1  0
  2  3  2  0
  3  4  1  0
  5  6  1  0
  5  4  2  0
  7  9  1  0
  7  6  1  0
  7  8  1  6
  9 10  2  0
 11  5  1  0
 12 11  2  0
 12  2  1  0
 13 14  1  0
 13  9  1  0
 14 15  1  6
 15 16  1  0
 16 17  2  0
 18 14  1  0
 19 18  2  0
 20 16  1  0
 21 22  1  0
 22 23  2  0
 24 22  1  0
 24 25  1  0
 26 25  1  6
 26 27  1  0
 27 18  1  0
 28 26  1  0
 28 30  1  0
 29 28  2  0
M  END
$$$$
