YDQ.pdb
     RDKit          3D

 30 30  0  0  1  0  0  0  0  0999 V2000
   28.8091  -20.6844   -4.7199 O   0  0  0  0  0  0  0  0  0  0  0  0
   28.3926  -20.4902   -6.0282 C   0  0  0  0  0  0  0  0  0  0  0  0
   29.2210  -20.0100   -7.0160 C   0  0  0  0  0  0  0  0  0  0  0  0
   28.7808  -19.8236   -8.3207 C   0  0  0  0  0  0  0  0  0  0  0  0
   27.4836  -20.1179   -8.6686 C   0  0  0  0  0  0  0  0  0  0  0  0
   27.0042  -19.9153  -10.0490 C   0  0  0  0  0  0  0  0  0  0  0  0
   27.0428  -21.1807  -10.8372 C   0  0  2  0  0  0  0  0  0  0  0  0
   28.4453  -21.6086  -10.9677 N   0  0  0  0  0  0  0  0  0  0  0  0
   26.4490  -21.0431  -12.1831 C   0  0  0  0  0  0  0  0  0  0  0  0
   27.1127  -20.5487  -13.1536 O   0  0  0  0  0  0  0  0  0  0  0  0
   26.6396  -20.6036   -7.6780 C   0  0  0  0  0  0  0  0  0  0  0  0
   27.0960  -20.7783   -6.4028 C   0  0  0  0  0  0  0  0  0  0  0  0
   25.1096  -21.4743  -12.3805 N   0  0  0  0  0  0  0  0  0  0  0  0
   24.4698  -21.2815  -13.6478 C   0  0  1  0  0  0  0  0  0  0  0  0
   24.7727  -22.4030  -14.5574 C   0  0  0  0  0  0  0  0  0  0  0  0
   24.4254  -23.6845  -13.9019 C   0  0  0  0  0  0  0  0  0  0  0  0
   24.5713  -24.8063  -14.4445 O   0  0  0  0  0  0  0  0  0  0  0  0
   23.0223  -21.0425  -13.4411 C   0  0  0  0  0  0  0  0  0  0  0  0
   22.4749  -21.6105  -12.4679 O   0  0  0  0  0  0  0  0  0  0  0  0
   23.8972  -23.7123  -12.5957 O   0  0  0  0  0  0  0  0  0  0  0  0
   18.2622  -19.8045  -17.0685 N   0  0  0  0  0  0  0  0  0  0  0  0
   19.5940  -20.0823  -17.4538 C   0  0  0  0  0  0  0  0  0  0  0  0
   19.8336  -20.5234  -18.6207 O   0  0  0  0  0  0  0  0  0  0  0  0
   20.7276  -19.8706  -16.5440 C   0  0  0  0  0  0  0  0  0  0  0  0
   20.2850  -19.3513  -15.2398 C   0  0  0  0  0  0  0  0  0  0  0  0
   20.7559  -20.1221  -14.0708 C   0  0  2  0  0  0  0  0  0  0  0  0
   22.2307  -20.2240  -14.2633 N   0  0  0  0  0  0  0  0  0  0  0  0
   20.1773  -21.3850  -13.7123 C   0  0  0  0  0  0  0  0  0  0  0  0
   20.6666  -22.4754  -14.1879 O   0  0  0  0  0  0  0  0  0  0  0  0
   19.0955  -21.5951  -12.8588 O   0  0  0  0  0  0  0  0  0  0  0  0
  1  2  1  0
  2  3  2  0
  3  4  1  0
  5  6  1  0
  5  4  2  0
  7  9  1  0
  7  6  1  0
  7  8  1  6
  9 10  2  0
 11  5  1  0
 12 11  2  0
 12  2  1  0
 13 14  1  0
 13  9  1  0
 14 15  1  6
 15 16  1  0
 16 17  2  0
 18 14  1  0
 19 18  2  0
 20 16  1  0
 21 22  1  0
 22 23  2  0
 24 22  1  0
 24 25  1  0
 26 25  1  6
 26 27  1  0
 27 18  1  0
 28 26  1  0
 28 30  1  0
 29 28  2  0
M  END
$$$$
