YDQ.pdb
     RDKit          3D

 30 30  0  0  1  0  0  0  0  0999 V2000
   15.0827  -17.3339  -17.7778 O   0  0  0  0  0  0  0  0  0  0  0  0
   15.7367  -16.1712  -17.3994 C   0  0  0  0  0  0  0  0  0  0  0  0
   15.9796  -15.1309  -18.2661 C   0  0  0  0  0  0  0  0  0  0  0  0
   16.6373  -13.9749  -17.8637 C   0  0  0  0  0  0  0  0  0  0  0  0
   17.0720  -13.8345  -16.5670 C   0  0  0  0  0  0  0  0  0  0  0  0
   17.7790  -12.6148  -16.1321 C   0  0  0  0  0  0  0  0  0  0  0  0
   19.2151  -12.6375  -16.5332 C   0  0  2  0  0  0  0  0  0  0  0  0
   19.8614  -13.7961  -15.8949 N   0  0  0  0  0  0  0  0  0  0  0  0
   19.9412  -11.4070  -16.1567 C   0  0  0  0  0  0  0  0  0  0  0  0
   20.2654  -11.1724  -14.9457 O   0  0  0  0  0  0  0  0  0  0  0  0
   16.8312  -14.8797  -15.6843 C   0  0  0  0  0  0  0  0  0  0  0  0
   16.1825  -16.0057  -16.1039 C   0  0  0  0  0  0  0  0  0  0  0  0
   20.2748  -10.4774  -17.1782 N   0  0  0  0  0  0  0  0  0  0  0  0
   20.8827   -9.2245  -16.8418 C   0  0  1  0  0  0  0  0  0  0  0  0
   22.0082   -8.9338  -17.7503 C   0  0  0  0  0  0  0  0  0  0  0  0
   22.6871   -7.6899  -17.3210 C   0  0  0  0  0  0  0  0  0  0  0  0
   22.2817   -6.9639  -16.3814 O   0  0  0  0  0  0  0  0  0  0  0  0
   19.8470   -8.1659  -16.8017 C   0  0  0  0  0  0  0  0  0  0  0  0
   19.1452   -8.0033  -17.8267 O   0  0  0  0  0  0  0  0  0  0  0  0
   23.8587   -7.2429  -17.9640 O   0  0  0  0  0  0  0  0  0  0  0  0
   14.8691   -7.8085  -15.7363 N   0  0  0  0  0  0  0  0  0  0  0  0
   14.9816   -6.5137  -15.1796 C   0  0  0  0  0  0  0  0  0  0  0  0
   13.9346   -5.8283  -14.9611 O   0  0  0  0  0  0  0  0  0  0  0  0
   16.2824   -5.9258  -14.8335 C   0  0  0  0  0  0  0  0  0  0  0  0
   17.3867   -6.8630  -15.0958 C   0  0  0  0  0  0  0  0  0  0  0  0
   18.5743   -6.2616  -15.7365 C   0  0  2  0  0  0  0  0  0  0  0  0
   19.6045   -7.3384  -15.6930 N   0  0  0  0  0  0  0  0  0  0  0  0
   19.1063   -4.9984  -15.3128 C   0  0  0  0  0  0  0  0  0  0  0  0
   20.3032   -4.9276  -14.8469 O   0  0  0  0  0  0  0  0  0  0  0  0
   18.4583   -3.7650  -15.3512 O   0  0  0  0  0  0  0  0  0  0  0  0
  1  2  1  0
  2  3  2  0
  3  4  1  0
  5  6  1  0
  5  4  2  0
  7  9  1  0
  7  6  1  0
  7  8  1  1
  9 10  2  0
 11  5  1  0
 12 11  2  0
 12  2  1  0
 13 14  1  0
 13  9  1  0
 14 15  1  6
 15 16  1  0
 16 17  2  0
 18 14  1  0
 19 18  2  0
 20 16  1  0
 21 22  1  0
 22 23  2  0
 24 22  1  0
 24 25  1  0
 26 25  1  1
 26 27  1  0
 27 18  1  0
 28 26  1  0
 28 30  1  0
 29 28  2  0
M  END
$$$$
