YDQ.pdb
     RDKit          3D

 30 30  0  0  1  0  0  0  0  0999 V2000
   28.5857  -16.8081  -15.8223 O   0  0  0  0  0  0  0  0  0  0  0  0
   28.2934  -15.4542  -15.8853 C   0  0  0  0  0  0  0  0  0  0  0  0
   28.9395  -14.5857  -16.7344 C   0  0  0  0  0  0  0  0  0  0  0  0
   28.6292  -13.2320  -16.7798 C   0  0  0  0  0  0  0  0  0  0  0  0
   27.6519  -12.7122  -15.9644 C   0  0  0  0  0  0  0  0  0  0  0  0
   27.3211  -11.2748  -15.9988 C   0  0  0  0  0  0  0  0  0  0  0  0
   25.9275  -11.0413  -16.4759 C   0  0  2  0  0  0  0  0  0  0  0  0
   25.7121  -11.8330  -17.6982 N   0  0  0  0  0  0  0  0  0  0  0  0
   25.6435   -9.6197  -16.7608 C   0  0  0  0  0  0  0  0  0  0  0  0
   25.7829   -8.7228  -15.8648 O   0  0  0  0  0  0  0  0  0  0  0  0
   26.9938  -13.5813  -15.1036 C   0  0  0  0  0  0  0  0  0  0  0  0
   27.3168  -14.9079  -15.0777 C   0  0  0  0  0  0  0  0  0  0  0  0
   25.2054   -9.2640  -18.0649 N   0  0  0  0  0  0  0  0  0  0  0  0
   24.8341   -7.9114  -18.3565 C   0  0  1  0  0  0  0  0  0  0  0  0
   25.0330   -7.6164  -19.7883 C   0  0  0  0  0  0  0  0  0  0  0  0
   24.2241   -8.5484  -20.6065 C   0  0  0  0  0  0  0  0  0  0  0  0
   24.7034   -9.5329  -21.2191 O   0  0  0  0  0  0  0  0  0  0  0  0
   23.4571   -7.6597  -17.8712 C   0  0  0  0  0  0  0  0  0  0  0  0
   22.5996   -8.5500  -18.0751 O   0  0  0  0  0  0  0  0  0  0  0  0
   22.8326   -8.3736  -20.7443 O   0  0  0  0  0  0  0  0  0  0  0  0
   21.2581   -9.7652  -14.1220 N   0  0  0  0  0  0  0  0  0  0  0  0
   20.2714   -8.7542  -14.0622 C   0  0  0  0  0  0  0  0  0  0  0  0
   19.2748   -8.8911  -13.2864 O   0  0  0  0  0  0  0  0  0  0  0  0
   20.3605   -7.5309  -14.8705 C   0  0  0  0  0  0  0  0  0  0  0  0
   21.5616   -7.5311  -15.7214 C   0  0  0  0  0  0  0  0  0  0  0  0
   21.6911   -6.3620  -16.6152 C   0  0  2  0  0  0  0  0  0  0  0  0
   23.0558   -6.4924  -17.2012 N   0  0  0  0  0  0  0  0  0  0  0  0
   21.4331   -5.0266  -16.1589 C   0  0  0  0  0  0  0  0  0  0  0  0
   22.4119   -4.2521  -15.8478 O   0  0  0  0  0  0  0  0  0  0  0  0
   20.1860   -4.4225  -16.0084 O   0  0  0  0  0  0  0  0  0  0  0  0
  1  2  1  0
  2  3  2  0
  3  4  1  0
  5  6  1  0
  5  4  2  0
  7  9  1  0
  7  6  1  0
  7  8  1  6
  9 10  2  0
 11  5  1  0
 12 11  2  0
 12  2  1  0
 13 14  1  0
 13  9  1  0
 14 15  1  6
 15 16  1  0
 16 17  2  0
 18 14  1  0
 19 18  2  0
 20 16  1  0
 21 22  1  0
 22 23  2  0
 24 22  1  0
 24 25  1  0
 26 25  1  1
 26 27  1  0
 27 18  1  0
 28 26  1  0
 28 30  1  0
 29 28  2  0
M  END
$$$$
