YDQ.pdb
     RDKit          3D

 30 30  0  0  1  0  0  0  0  0999 V2000
   29.8488  -19.5962   -4.5049 O   0  0  0  0  0  0  0  0  0  0  0  0
   28.9413  -19.7915   -5.5349 C   0  0  0  0  0  0  0  0  0  0  0  0
   27.8985  -18.9310   -5.7896 C   0  0  0  0  0  0  0  0  0  0  0  0
   27.0012  -19.1477   -6.8282 C   0  0  0  0  0  0  0  0  0  0  0  0
   27.1309  -20.2461   -7.6449 C   0  0  0  0  0  0  0  0  0  0  0  0
   26.1783  -20.4897   -8.7448 C   0  0  0  0  0  0  0  0  0  0  0  0
   26.8800  -20.8175  -10.0193 C   0  0  2  0  0  0  0  0  0  0  0  0
   27.9791  -19.8566  -10.2092 N   0  0  0  0  0  0  0  0  0  0  0  0
   25.9897  -20.7773  -11.1977 C   0  0  0  0  0  0  0  0  0  0  0  0
   25.6093  -19.6703  -11.7043 O   0  0  0  0  0  0  0  0  0  0  0  0
   28.1808  -21.1207   -7.3958 C   0  0  0  0  0  0  0  0  0  0  0  0
   29.0497  -20.8858   -6.3688 C   0  0  0  0  0  0  0  0  0  0  0  0
   25.5576  -22.0072  -11.7631 N   0  0  0  0  0  0  0  0  0  0  0  0
   24.7510  -22.0120  -12.9471 C   0  0  1  0  0  0  0  0  0  0  0  0
   24.9080  -23.2851  -13.6761 C   0  0  0  0  0  0  0  0  0  0  0  0
   24.1258  -23.2399  -14.9326 C   0  0  0  0  0  0  0  0  0  0  0  0
   23.5489  -24.2369  -15.4299 O   0  0  0  0  0  0  0  0  0  0  0  0
   23.3499  -21.6845  -12.5939 C   0  0  0  0  0  0  0  0  0  0  0  0
   22.8943  -22.1626  -11.5294 O   0  0  0  0  0  0  0  0  0  0  0  0
   23.9840  -22.0396  -15.6570 O   0  0  0  0  0  0  0  0  0  0  0  0
   18.6042  -18.2026  -14.2605 N   0  0  0  0  0  0  0  0  0  0  0  0
   18.6585  -18.2315  -12.8478 C   0  0  0  0  0  0  0  0  0  0  0  0
   17.6667  -17.8177  -12.1704 O   0  0  0  0  0  0  0  0  0  0  0  0
   19.8332  -18.7356  -12.1242 C   0  0  0  0  0  0  0  0  0  0  0  0
   20.8660  -19.2316  -13.0483 C   0  0  0  0  0  0  0  0  0  0  0  0
   21.0670  -20.6951  -13.0293 C   0  0  2  0  0  0  0  0  0  0  0  0
   22.5062  -20.8763  -13.3735 N   0  0  0  0  0  0  0  0  0  0  0  0
   20.2250  -21.5857  -13.7751 C   0  0  0  0  0  0  0  0  0  0  0  0
   20.7456  -22.4240  -14.6001 O   0  0  0  0  0  0  0  0  0  0  0  0
   18.8352  -21.6699  -13.7106 O   0  0  0  0  0  0  0  0  0  0  0  0
  1  2  1  0
  2  3  2  0
  3  4  1  0
  5  6  1  0
  5  4  2  0
  7  9  1  0
  7  6  1  0
  7  8  1  6
  9 10  2  0
 11  5  1  0
 12 11  2  0
 12  2  1  0
 13 14  1  0
 13  9  1  0
 14 15  1  1
 15 16  1  0
 16 17  2  0
 18 14  1  0
 19 18  2  0
 20 16  1  0
 21 22  1  0
 22 23  2  0
 24 22  1  0
 24 25  1  0
 26 25  1  6
 26 27  1  0
 27 18  1  0
 28 26  1  0
 28 30  1  0
 29 28  2  0
M  END
$$$$
