YDQ.pdb
     RDKit          3D

 30 30  0  0  1  0  0  0  0  0999 V2000
   19.0297  -26.3206   -1.4202 O   0  0  0  0  0  0  0  0  0  0  0  0
   19.8290  -27.4516   -1.3517 C   0  0  0  0  0  0  0  0  0  0  0  0
   21.0523  -27.5447   -1.9743 C   0  0  0  0  0  0  0  0  0  0  0  0
   21.8360  -28.6892   -1.8913 C   0  0  0  0  0  0  0  0  0  0  0  0
   21.4051  -29.7797   -1.1734 C   0  0  0  0  0  0  0  0  0  0  0  0
   22.2259  -31.0026   -1.0865 C   0  0  0  0  0  0  0  0  0  0  0  0
   22.1287  -31.8211   -2.3293 C   0  0  2  0  0  0  0  0  0  0  0  0
   20.7693  -32.3792   -2.4173 N   0  0  0  0  0  0  0  0  0  0  0  0
   23.1111  -32.9238   -2.3749 C   0  0  0  0  0  0  0  0  0  0  0  0
   22.7939  -34.1095   -2.0282 O   0  0  0  0  0  0  0  0  0  0  0  0
   20.1713  -29.6951   -0.5411 C   0  0  0  0  0  0  0  0  0  0  0  0
   19.4195  -28.5591   -0.6375 C   0  0  0  0  0  0  0  0  0  0  0  0
   24.4314  -32.6376   -2.8151 N   0  0  0  0  0  0  0  0  0  0  0  0
   25.3616  -33.7030   -3.0437 C   0  0  1  0  0  0  0  0  0  0  0  0
   26.2923  -33.3536   -4.1339 C   0  0  0  0  0  0  0  0  0  0  0  0
   25.7011  -33.7368   -5.4363 C   0  0  0  0  0  0  0  0  0  0  0  0
   24.6365  -34.3905   -5.5525 O   0  0  0  0  0  0  0  0  0  0  0  0
   26.0275  -34.0618   -1.7698 C   0  0  0  0  0  0  0  0  0  0  0  0
   26.3828  -33.1245   -1.0183 O   0  0  0  0  0  0  0  0  0  0  0  0
   26.3212  -33.3767   -6.6494 O   0  0  0  0  0  0  0  0  0  0  0  0
   27.6469  -39.9306    2.4440 N   0  0  0  0  0  0  0  0  0  0  0  0
   26.9280  -39.1014    1.5525 C   0  0  0  0  0  0  0  0  0  0  0  0
   25.9991  -39.5965    0.8413 O   0  0  0  0  0  0  0  0  0  0  0  0
   27.2149  -37.6668    1.4211 C   0  0  0  0  0  0  0  0  0  0  0  0
   26.6339  -37.1095    0.1889 C   0  0  0  0  0  0  0  0  0  0  0  0
   26.8941  -35.6714   -0.0267 C   0  0  2  0  0  0  0  0  0  0  0  0
   26.2836  -35.3790   -1.3550 N   0  0  0  0  0  0  0  0  0  0  0  0
   28.2109  -35.1136    0.0884 C   0  0  0  0  0  0  0  0  0  0  0  0
   28.6399  -34.7064    1.2306 O   0  0  0  0  0  0  0  0  0  0  0  0
   29.1423  -34.9548   -0.9363 O   0  0  0  0  0  0  0  0  0  0  0  0
  1  2  1  0
  2  3  2  0
  3  4  1  0
  5  6  1  0
  5  4  2  0
  7  9  1  0
  7  6  1  0
  7  8  1  1
  9 10  2  0
 11  5  1  0
 12 11  2  0
 12  2  1  0
 13 14  1  0
 13  9  1  0
 14 15  1  6
 15 16  1  0
 16 17  2  0
 18 14  1  0
 19 18  2  0
 20 16  1  0
 21 22  1  0
 22 23  2  0
 24 22  1  0
 24 25  1  0
 26 25  1  6
 26 27  1  0
 27 18  1  0
 28 26  1  0
 28 30  1  0
 29 28  2  0
M  END
$$$$
