YDQ.pdb
     RDKit          3D

 30 30  0  0  1  0  0  0  0  0999 V2000
   13.2279   -3.5435   -6.3290 O   0  0  0  0  0  0  0  0  0  0  0  0
   13.5695   -4.0739   -7.5637 C   0  0  0  0  0  0  0  0  0  0  0  0
   14.4537   -5.1171   -7.7136 C   0  0  0  0  0  0  0  0  0  0  0  0
   14.7808   -5.6322   -8.9620 C   0  0  0  0  0  0  0  0  0  0  0  0
   14.2218   -5.1058  -10.1026 C   0  0  0  0  0  0  0  0  0  0  0  0
   14.5692   -5.6399  -11.4333 C   0  0  0  0  0  0  0  0  0  0  0  0
   14.6545   -4.5581  -12.4562 C   0  0  2  0  0  0  0  0  0  0  0  0
   13.3084   -3.9970  -12.6579 N   0  0  0  0  0  0  0  0  0  0  0  0
   15.1851   -5.0275  -13.7528 C   0  0  0  0  0  0  0  0  0  0  0  0
   14.4068   -5.3506  -14.7102 O   0  0  0  0  0  0  0  0  0  0  0  0
   13.3277   -4.0523   -9.9614 C   0  0  0  0  0  0  0  0  0  0  0  0
   13.0222   -3.5637   -8.7233 C   0  0  0  0  0  0  0  0  0  0  0  0
   16.5937   -5.1157  -13.9169 N   0  0  0  0  0  0  0  0  0  0  0  0
   17.1496   -5.4920  -15.1826 C   0  0  1  0  0  0  0  0  0  0  0  0
   18.3890   -4.7374  -15.4495 C   0  0  0  0  0  0  0  0  0  0  0  0
   18.0545   -3.3413  -15.8125 C   0  0  0  0  0  0  0  0  0  0  0  0
   17.4184   -3.0239  -16.8463 O   0  0  0  0  0  0  0  0  0  0  0  0
   17.3127   -6.9636  -15.2346 C   0  0  0  0  0  0  0  0  0  0  0  0
   17.7196   -7.5380  -14.1983 O   0  0  0  0  0  0  0  0  0  0  0  0
   18.4444   -2.2642  -14.9918 O   0  0  0  0  0  0  0  0  0  0  0  0
   14.1394  -10.5974  -18.9849 N   0  0  0  0  0  0  0  0  0  0  0  0
   14.9067  -11.5569  -18.2851 C   0  0  0  0  0  0  0  0  0  0  0  0
   14.6796  -12.7946  -18.4595 O   0  0  0  0  0  0  0  0  0  0  0  0
   15.9764  -11.1704  -17.3556 C   0  0  0  0  0  0  0  0  0  0  0  0
   16.0980   -9.7073  -17.2490 C   0  0  0  0  0  0  0  0  0  0  0  0
   17.1503   -9.2361  -16.3255 C   0  0  2  0  0  0  0  0  0  0  0  0
   17.0414   -7.7498  -16.3665 N   0  0  0  0  0  0  0  0  0  0  0  0
   18.5118   -9.6734  -16.4410 C   0  0  0  0  0  0  0  0  0  0  0  0
   18.8408  -10.8597  -16.0679 O   0  0  0  0  0  0  0  0  0  0  0  0
   19.5847   -8.9384  -16.9425 O   0  0  0  0  0  0  0  0  0  0  0  0
  1  2  1  0
  2  3  2  0
  3  4  1  0
  5  6  1  0
  5  4  2  0
  7  9  1  0
  7  6  1  0
  7  8  1  6
  9 10  2  0
 11  5  1  0
 12 11  2  0
 12  2  1  0
 13 14  1  0
 13  9  1  0
 14 15  1  1
 15 16  1  0
 16 17  2  0
 18 14  1  0
 19 18  2  0
 20 16  1  0
 21 22  1  0
 22 23  2  0
 24 22  1  0
 24 25  1  0
 26 25  1  6
 26 27  1  0
 27 18  1  0
 28 26  1  0
 28 30  1  0
 29 28  2  0
M  END
$$$$
