YDQ.pdb
     RDKit          3D

 30 30  0  0  1  0  0  0  0  0999 V2000
   30.8552  -10.9221  -17.8104 O   0  0  0  0  0  0  0  0  0  0  0  0
   29.5060  -10.6319  -17.6756 C   0  0  0  0  0  0  0  0  0  0  0  0
   28.5221  -11.3000  -18.3671 C   0  0  0  0  0  0  0  0  0  0  0  0
   27.1758  -10.9914  -18.2154 C   0  0  0  0  0  0  0  0  0  0  0  0
   26.7809   -9.9932  -17.3565 C   0  0  0  0  0  0  0  0  0  0  0  0
   25.3546   -9.6521  -17.1950 C   0  0  0  0  0  0  0  0  0  0  0  0
   24.7414  -10.3767  -16.0448 C   0  0  2  0  0  0  0  0  0  0  0  0
   24.9582  -11.8207  -16.2318 N   0  0  0  0  0  0  0  0  0  0  0  0
   23.2940  -10.1167  -15.9017 C   0  0  0  0  0  0  0  0  0  0  0  0
   22.4464  -11.0696  -15.8944 O   0  0  0  0  0  0  0  0  0  0  0  0
   27.7671   -9.3129  -16.6537 C   0  0  0  0  0  0  0  0  0  0  0  0
   29.0838   -9.6350  -16.8199 C   0  0  0  0  0  0  0  0  0  0  0  0
   22.8566   -8.7710  -15.7722 N   0  0  0  0  0  0  0  0  0  0  0  0
   21.4599   -8.4757  -15.6520 C   0  0  1  0  0  0  0  0  0  0  0  0
   20.8810   -9.1729  -14.4877 C   0  0  0  0  0  0  0  0  0  0  0  0
   19.4293   -8.8918  -14.4092 C   0  0  0  0  0  0  0  0  0  0  0  0
   18.8841   -8.3096  -13.4407 O   0  0  0  0  0  0  0  0  0  0  0  0
   21.2629   -7.0073  -15.6388 C   0  0  0  0  0  0  0  0  0  0  0  0
   21.8272   -6.3556  -14.7297 O   0  0  0  0  0  0  0  0  0  0  0  0
   18.5582   -9.2745  -15.4487 O   0  0  0  0  0  0  0  0  0  0  0  0
   19.2162   -4.5110  -20.5457 N   0  0  0  0  0  0  0  0  0  0  0  0
   20.5338   -4.9387  -20.2624 C   0  0  0  0  0  0  0  0  0  0  0  0
   21.2724   -5.3696  -21.2018 O   0  0  0  0  0  0  0  0  0  0  0  0
   21.0905   -4.8965  -18.9037 C   0  0  0  0  0  0  0  0  0  0  0  0
   20.0955   -4.4273  -17.9257 C   0  0  0  0  0  0  0  0  0  0  0  0
   20.3645   -4.8201  -16.5272 C   0  0  2  0  0  0  0  0  0  0  0  0
   20.4878   -6.3051  -16.5762 N   0  0  0  0  0  0  0  0  0  0  0  0
   19.5265   -4.3910  -15.4447 C   0  0  0  0  0  0  0  0  0  0  0  0
   18.6520   -5.1942  -14.9500 O   0  0  0  0  0  0  0  0  0  0  0  0
   19.5448   -3.1460  -14.8181 O   0  0  0  0  0  0  0  0  0  0  0  0
  1  2  1  0
  2  3  2  0
  3  4  1  0
  5  6  1  0
  5  4  2  0
  7  9  1  0
  7  6  1  0
  7  8  1  6
  9 10  2  0
 11  5  1  0
 12 11  2  0
 12  2  1  0
 13 14  1  0
 13  9  1  0
 14 15  1  1
 15 16  1  0
 16 17  2  0
 18 14  1  0
 19 18  2  0
 20 16  1  0
 21 22  1  0
 22 23  2  0
 24 22  1  0
 24 25  1  0
 26 25  1  6
 26 27  1  0
 27 18  1  0
 28 26  1  0
 28 30  1  0
 29 28  2  0
M  END
$$$$
