YDQ.pdb
     RDKit          3D

 30 30  0  0  1  0  0  0  0  0999 V2000
   23.4385  -15.4392  -23.9396 O   0  0  0  0  0  0  0  0  0  0  0  0
   22.7142  -14.7385  -22.9872 C   0  0  0  0  0  0  0  0  0  0  0  0
   22.1360  -13.5149  -23.2346 C   0  0  0  0  0  0  0  0  0  0  0  0
   21.4143  -12.8312  -22.2638 C   0  0  0  0  0  0  0  0  0  0  0  0
   21.2543  -13.3657  -21.0072 C   0  0  0  0  0  0  0  0  0  0  0  0
   20.4972  -12.6437  -19.9670 C   0  0  0  0  0  0  0  0  0  0  0  0
   21.3230  -11.5838  -19.3199 C   0  0  2  0  0  0  0  0  0  0  0  0
   22.4456  -12.2278  -18.6183 N   0  0  0  0  0  0  0  0  0  0  0  0
   20.5592  -10.7589  -18.3612 C   0  0  0  0  0  0  0  0  0  0  0  0
   20.5630  -11.0186  -17.1125 O   0  0  0  0  0  0  0  0  0  0  0  0
   21.8343  -14.6009  -20.7479 C   0  0  0  0  0  0  0  0  0  0  0  0
   22.5389  -15.2533  -21.7189 C   0  0  0  0  0  0  0  0  0  0  0  0
   19.8099   -9.6593  -18.8596 N   0  0  0  0  0  0  0  0  0  0  0  0
   18.9838   -8.8909  -17.9766 C   0  0  1  0  0  0  0  0  0  0  0  0
   18.9858   -7.4692  -18.3709 C   0  0  0  0  0  0  0  0  0  0  0  0
   20.1030   -6.7669  -17.6993 C   0  0  0  0  0  0  0  0  0  0  0  0
   20.2005   -6.6441  -16.4544 O   0  0  0  0  0  0  0  0  0  0  0  0
   17.6345   -9.4985  -17.9057 C   0  0  0  0  0  0  0  0  0  0  0  0
   17.3620  -10.4013  -18.7304 O   0  0  0  0  0  0  0  0  0  0  0  0
   21.1463   -6.1824  -18.4448 O   0  0  0  0  0  0  0  0  0  0  0  0
   16.1584  -13.8622  -15.6476 N   0  0  0  0  0  0  0  0  0  0  0  0
   15.2123  -13.6477  -16.6763 C   0  0  0  0  0  0  0  0  0  0  0  0
   14.5223  -14.6217  -17.1112 O   0  0  0  0  0  0  0  0  0  0  0  0
   14.9897  -12.3203  -17.2646 C   0  0  0  0  0  0  0  0  0  0  0  0
   15.8280  -11.2958  -16.6209 C   0  0  0  0  0  0  0  0  0  0  0  0
   15.3830   -9.9034  -16.8347 C   0  0  2  0  0  0  0  0  0  0  0  0
   16.6480   -9.1275  -16.9773 N   0  0  0  0  0  0  0  0  0  0  0  0
   14.4597   -9.2578  -15.9464 C   0  0  0  0  0  0  0  0  0  0  0  0
   14.8969   -8.5051  -14.9994 O   0  0  0  0  0  0  0  0  0  0  0  0
   13.0688   -9.3394  -15.9851 O   0  0  0  0  0  0  0  0  0  0  0  0
  1  2  1  0
  2  3  2  0
  3  4  1  0
  5  6  1  0
  5  4  2  0
  7  9  1  0
  7  6  1  0
  7  8  1  1
  9 10  2  0
 11  5  1  0
 12 11  2  0
 12  2  1  0
 13 14  1  0
 13  9  1  0
 14 15  1  6
 15 16  1  0
 16 17  2  0
 18 14  1  0
 19 18  2  0
 20 16  1  0
 21 22  1  0
 22 23  2  0
 24 22  1  0
 24 25  1  0
 26 25  1  1
 26 27  1  0
 27 18  1  0
 28 26  1  0
 28 30  1  0
 29 28  2  0
M  END
$$$$
