YDQ.pdb
     RDKit          3D

 30 30  0  0  1  0  0  0  0  0999 V2000
   29.4943  -21.3857   -6.6212 O   0  0  0  0  0  0  0  0  0  0  0  0
   29.0109  -21.0635   -7.8802 C   0  0  0  0  0  0  0  0  0  0  0  0
   27.6687  -20.9766   -8.1691 C   0  0  0  0  0  0  0  0  0  0  0  0
   27.2078  -20.6519   -9.4391 C   0  0  0  0  0  0  0  0  0  0  0  0
   28.0937  -20.4043  -10.4610 C   0  0  0  0  0  0  0  0  0  0  0  0
   27.6143  -20.0674  -11.8150 C   0  0  0  0  0  0  0  0  0  0  0  0
   27.4681  -21.2831  -12.6663 C   0  0  2  0  0  0  0  0  0  0  0  0
   28.8053  -21.7031  -13.1166 N   0  0  0  0  0  0  0  0  0  0  0  0
   26.6044  -21.0644  -13.8449 C   0  0  0  0  0  0  0  0  0  0  0  0
   27.0281  -20.4352  -14.8703 O   0  0  0  0  0  0  0  0  0  0  0  0
   29.4511  -20.4895  -10.1790 C   0  0  0  0  0  0  0  0  0  0  0  0
   29.8792  -20.8103   -8.9225 C   0  0  0  0  0  0  0  0  0  0  0  0
   25.2773  -21.5713  -13.8162 N   0  0  0  0  0  0  0  0  0  0  0  0
   24.3095  -21.1111  -14.7671 C   0  0  1  0  0  0  0  0  0  0  0  0
   24.6722  -21.5479  -16.1288 C   0  0  0  0  0  0  0  0  0  0  0  0
   24.5486  -20.4093  -17.0673 C   0  0  0  0  0  0  0  0  0  0  0  0
   23.4504  -19.9379  -17.4494 O   0  0  0  0  0  0  0  0  0  0  0  0
   22.9546  -21.5289  -14.3372 C   0  0  0  0  0  0  0  0  0  0  0  0
   22.8670  -22.2425  -13.3112 O   0  0  0  0  0  0  0  0  0  0  0  0
   25.6914  -19.7766  -17.5961 O   0  0  0  0  0  0  0  0  0  0  0  0
   20.0441  -20.5820   -9.6096 N   0  0  0  0  0  0  0  0  0  0  0  0
   20.0998  -20.1225  -10.9457 C   0  0  0  0  0  0  0  0  0  0  0  0
   19.2074  -19.3277  -11.3766 O   0  0  0  0  0  0  0  0  0  0  0  0
   21.1702  -20.5306  -11.8651 C   0  0  0  0  0  0  0  0  0  0  0  0
   21.0185  -19.8995  -13.1861 C   0  0  0  0  0  0  0  0  0  0  0  0
   20.5376  -20.7997  -14.2543 C   0  0  2  0  0  0  0  0  0  0  0  0
   21.7697  -21.1768  -15.0041 N   0  0  0  0  0  0  0  0  0  0  0  0
   19.4705  -20.4259  -15.1373 C   0  0  0  0  0  0  0  0  0  0  0  0
   19.7353  -19.8958  -16.2790 O   0  0  0  0  0  0  0  0  0  0  0  0
   18.1044  -20.5801  -14.9073 O   0  0  0  0  0  0  0  0  0  0  0  0
  1  2  1  0
  2  3  2  0
  3  4  1  0
  5  6  1  0
  5  4  2  0
  7  9  1  0
  7  6  1  0
  7  8  1  6
  9 10  2  0
 11  5  1  0
 12 11  2  0
 12  2  1  0
 13 14  1  0
 13  9  1  0
 14 15  1  6
 15 16  1  0
 16 17  2  0
 18 14  1  0
 19 18  2  0
 20 16  1  0
 21 22  1  0
 22 23  2  0
 24 22  1  0
 24 25  1  0
 26 25  1  1
 26 27  1  0
 27 18  1  0
 28 26  1  0
 28 30  1  0
 29 28  2  0
M  END
$$$$
