YDQ.pdb
     RDKit          3D

 30 30  0  0  1  0  0  0  0  0999 V2000
   27.8292  -17.7131  -15.7117 O   0  0  0  0  0  0  0  0  0  0  0  0
   27.0651  -16.5622  -15.8310 C   0  0  0  0  0  0  0  0  0  0  0  0
   26.7083  -16.0208  -17.0443 C   0  0  0  0  0  0  0  0  0  0  0  0
   25.9415  -14.8659  -17.1390 C   0  0  0  0  0  0  0  0  0  0  0  0
   25.5100  -14.2196  -16.0047 C   0  0  0  0  0  0  0  0  0  0  0  0
   24.7028  -12.9879  -16.0946 C   0  0  0  0  0  0  0  0  0  0  0  0
   23.2844  -13.2287  -15.7018 C   0  0  2  0  0  0  0  0  0  0  0  0
   22.7073  -14.2253  -16.6187 N   0  0  0  0  0  0  0  0  0  0  0  0
   22.4590  -12.0037  -15.7327 C   0  0  0  0  0  0  0  0  0  0  0  0
   21.7124  -11.7319  -16.7305 O   0  0  0  0  0  0  0  0  0  0  0  0
   25.8651  -14.7588  -14.7749 C   0  0  0  0  0  0  0  0  0  0  0  0
   26.6195  -15.8952  -14.7081 C   0  0  0  0  0  0  0  0  0  0  0  0
   22.5125  -11.1219  -14.6198 N   0  0  0  0  0  0  0  0  0  0  0  0
   21.6635   -9.9689  -14.5726 C   0  0  1  0  0  0  0  0  0  0  0  0
   21.4286   -9.5549  -13.1761 C   0  0  0  0  0  0  0  0  0  0  0  0
   20.5063   -8.3969  -13.1476 C   0  0  0  0  0  0  0  0  0  0  0  0
   20.8337   -7.2557  -12.7416 O   0  0  0  0  0  0  0  0  0  0  0  0
   22.2264   -8.9031  -15.4342 C   0  0  0  0  0  0  0  0  0  0  0  0
   23.3257   -9.1290  -15.9910 O   0  0  0  0  0  0  0  0  0  0  0  0
   19.1733   -8.5191  -13.5880 O   0  0  0  0  0  0  0  0  0  0  0  0
   22.4209   -7.5358  -21.7151 N   0  0  0  0  0  0  0  0  0  0  0  0
   22.2173   -7.9488  -20.3783 C   0  0  0  0  0  0  0  0  0  0  0  0
   21.9237   -9.1597  -20.1304 O   0  0  0  0  0  0  0  0  0  0  0  0
   22.3408   -7.0180  -19.2487 C   0  0  0  0  0  0  0  0  0  0  0  0
   22.0537   -7.6819  -17.9668 C   0  0  0  0  0  0  0  0  0  0  0  0
   22.0242   -6.7840  -16.7940 C   0  0  2  0  0  0  0  0  0  0  0  0
   21.6080   -7.6632  -15.6641 N   0  0  0  0  0  0  0  0  0  0  0  0
   21.2954   -5.5483  -16.8034 C   0  0  0  0  0  0  0  0  0  0  0  0
   20.1365   -5.4802  -16.2494 O   0  0  0  0  0  0  0  0  0  0  0  0
   21.7094   -4.3396  -17.3606 O   0  0  0  0  0  0  0  0  0  0  0  0
  1  2  1  0
  2  3  2  0
  3  4  1  0
  5  6  1  0
  5  4  2  0
  7  9  1  0
  7  6  1  0
  7  8  1  6
  9 10  2  0
 11  5  1  0
 12 11  2  0
 12  2  1  0
 13 14  1  0
 13  9  1  0
 14 15  1  1
 15 16  1  0
 16 17  2  0
 18 14  1  0
 19 18  2  0
 20 16  1  0
 21 22  1  0
 22 23  2  0
 24 22  1  0
 24 25  1  0
 26 25  1  6
 26 27  1  0
 27 18  1  0
 28 26  1  0
 28 30  1  0
 29 28  2  0
M  END
$$$$
