YDQ.pdb
     RDKit          3D

 30 30  0  0  1  0  0  0  0  0999 V2000
   20.8798  -19.0325  -15.0698 O   0  0  0  0  0  0  0  0  0  0  0  0
   20.6256  -17.7383  -15.4976 C   0  0  0  0  0  0  0  0  0  0  0  0
   20.4453  -17.4071  -16.8206 C   0  0  0  0  0  0  0  0  0  0  0  0
   20.1915  -16.1023  -17.2255 C   0  0  0  0  0  0  0  0  0  0  0  0
   20.1121  -15.0875  -16.3013 C   0  0  0  0  0  0  0  0  0  0  0  0
   19.8517  -13.6976  -16.7218 C   0  0  0  0  0  0  0  0  0  0  0  0
   18.4283  -13.3120  -16.4997 C   0  0  2  0  0  0  0  0  0  0  0  0
   17.5709  -14.2102  -17.2904 N   0  0  0  0  0  0  0  0  0  0  0  0
   18.1423  -11.9118  -16.8745 C   0  0  0  0  0  0  0  0  0  0  0  0
   17.7992  -11.6000  -18.0627 O   0  0  0  0  0  0  0  0  0  0  0  0
   20.2927  -15.4122  -14.9628 C   0  0  0  0  0  0  0  0  0  0  0  0
   20.5408  -16.7023  -14.5899 C   0  0  0  0  0  0  0  0  0  0  0  0
   18.2587  -10.9059  -15.8777 N   0  0  0  0  0  0  0  0  0  0  0  0
   17.9083   -9.5496  -16.1783 C   0  0  1  0  0  0  0  0  0  0  0  0
   16.6438   -9.1814  -15.5133 C   0  0  0  0  0  0  0  0  0  0  0  0
   16.3144   -7.7696  -15.8150 C   0  0  0  0  0  0  0  0  0  0  0  0
   16.4527   -7.2491  -16.9482 O   0  0  0  0  0  0  0  0  0  0  0  0
   19.0466   -8.6594  -15.8516 C   0  0  0  0  0  0  0  0  0  0  0  0
   19.6860   -8.8988  -14.8012 O   0  0  0  0  0  0  0  0  0  0  0  0
   15.8135   -6.9113  -14.8160 O   0  0  0  0  0  0  0  0  0  0  0  0
   22.2131   -5.3400  -19.9248 N   0  0  0  0  0  0  0  0  0  0  0  0
   22.8315   -4.9289  -18.7216 C   0  0  0  0  0  0  0  0  0  0  0  0
   23.8334   -4.1489  -18.7623 O   0  0  0  0  0  0  0  0  0  0  0  0
   22.3475   -5.3712  -17.4071 C   0  0  0  0  0  0  0  0  0  0  0  0
   21.1662   -6.2407  -17.5301 C   0  0  0  0  0  0  0  0  0  0  0  0
   20.6021   -6.7090  -16.2476 C   0  0  2  0  0  0  0  0  0  0  0  0
   19.4509   -7.5705  -16.6413 N   0  0  0  0  0  0  0  0  0  0  0  0
   20.2504   -5.7982  -15.1965 C   0  0  0  0  0  0  0  0  0  0  0  0
   19.0604   -5.3135  -15.1360 O   0  0  0  0  0  0  0  0  0  0  0  0
   21.0780   -5.3515  -14.1677 O   0  0  0  0  0  0  0  0  0  0  0  0
  1  2  1  0
  2  3  2  0
  3  4  1  0
  5  6  1  0
  5  4  2  0
  7  9  1  0
  7  6  1  0
  7  8  1  6
  9 10  2  0
 11  5  1  0
 12 11  2  0
 12  2  1  0
 13 14  1  0
 13  9  1  0
 14 15  1  1
 15 16  1  0
 16 17  2  0
 18 14  1  0
 19 18  2  0
 20 16  1  0
 21 22  1  0
 22 23  2  0
 24 22  1  0
 24 25  1  0
 26 25  1  6
 26 27  1  0
 27 18  1  0
 28 26  1  0
 28 30  1  0
 29 28  2  0
M  END
$$$$
