LHI.pdb
     RDKit          3D

 27 27  0  0  1  0  0  0  0  0999 V2000
    7.3662  -11.8823   19.2001 C   0  0  0  0  0  0  0  0  0  0  0  0
    8.0956  -13.1959   19.0625 C   0  0  1  0  0  0  0  0  0  0  0  0
    9.5901  -12.8879   19.1824 C   0  0  0  0  0  0  0  0  0  0  0  0
    7.7511  -14.1643   20.1653 C   0  0  0  0  0  0  0  0  0  0  0  0
    8.5549  -15.4413   20.1006 C   0  0  2  0  0  0  0  0  0  0  0  0
    7.8096  -16.3610   19.2533 N   0  0  0  0  0  0  0  0  0  0  0  0
    8.6170  -15.9748   21.4984 C   0  0  0  0  0  0  0  0  0  0  0  0
    7.5523  -16.2702   22.0887 O   0  0  0  0  0  0  0  0  0  0  0  0
    9.9000  -16.1291   22.1130 N   0  0  0  0  0  0  0  0  0  0  0  0
    9.8932  -16.7246   23.4651 C   0  0  1  0  0  0  0  0  0  0  0  0
   11.1185  -17.6004   23.4998 C   0  0  0  0  0  0  0  0  0  0  0  0
   10.8829  -18.9037   22.8354 C   0  0  0  0  0  0  0  0  0  0  0  0
    9.6578  -19.3042   22.2881 C   0  0  0  0  0  0  0  0  0  0  0  0
    9.8264  -20.5246   21.7834 N   0  0  0  0  0  0  0  0  0  0  0  0
   11.0922  -20.9317   21.9750 C   0  0  0  0  0  0  0  0  0  0  0  0
   11.7173  -19.9296   22.6173 N   0  0  0  0  0  0  0  0  0  0  0  0
    9.9349  -15.6137   24.4220 C   0  0  0  0  0  0  0  0  0  0  0  0
   10.7305  -14.6331   24.3361 O   0  0  0  0  0  0  0  0  0  0  0  0
    5.9809  -12.7435   25.7690 C   0  0  0  0  0  0  0  0  0  0  0  0
    7.4018  -13.2598   25.5979 C   0  0  0  0  0  0  0  0  0  0  0  0
    7.8854  -13.9264   26.8499 C   0  0  2  0  0  0  0  0  0  0  0  0
    7.9145  -12.8808   27.9346 C   0  0  0  0  0  0  0  0  0  0  0  0
    9.1995  -14.6031   26.6236 C   0  0  2  0  0  0  0  0  0  0  0  0
    9.0648  -15.5781   25.5203 N   0  0  0  0  0  0  0  0  0  0  0  0
    9.8077  -15.2381   27.7888 C   0  0  0  0  0  0  0  0  0  0  0  0
    9.8175  -16.5865   28.0269 O   0  0  0  0  0  0  0  0  0  0  0  0
   10.3884  -14.5313   28.6870 O   0  0  0  0  0  0  0  0  0  0  0  0
  2  1  1  1
  2  3  1  0
  4  5  1  0
  4  2  1  0
  5  7  1  0
  5  6  1  6
  7  8  2  0
  9 10  1  0
  9  7  1  0
 11 12  1  0
 10 11  1  6
 12 16  1  0
 13 12  2  0
 13 14  1  0
 14 15  1  0
 16 15  2  0
 17 18  2  0
 17 10  1  0
 19 20  1  0
 20 21  1  0
 21 23  1  0
 21 22  1  1
 23 24  1  6
 23 25  1  0
 24 17  1  0
 25 26  1  0
 27 25  2  0
M  END
$$$$
