LHI.pdb
     RDKit          3D

 27 27  0  0  1  0  0  0  0  0999 V2000
    6.9856  -12.4138   18.1423 C   0  0  0  0  0  0  0  0  0  0  0  0
    7.9055  -13.5088   18.6232 C   0  0  1  0  0  0  0  0  0  0  0  0
    9.2765  -12.8677   18.8515 C   0  0  0  0  0  0  0  0  0  0  0  0
    7.4639  -14.0953   19.9399 C   0  0  0  0  0  0  0  0  0  0  0  0
    8.4292  -15.1234   20.4805 C   0  0  2  0  0  0  0  0  0  0  0  0
    8.4031  -16.2472   19.5555 N   0  0  0  0  0  0  0  0  0  0  0  0
    7.8938  -15.5490   21.8126 C   0  0  0  0  0  0  0  0  0  0  0  0
    7.1242  -14.7822   22.4363 O   0  0  0  0  0  0  0  0  0  0  0  0
    8.2836  -16.8258   22.3278 N   0  0  0  0  0  0  0  0  0  0  0  0
    7.7963  -17.1424   23.6861 C   0  0  1  0  0  0  0  0  0  0  0  0
    8.0340  -18.6222   23.8388 C   0  0  0  0  0  0  0  0  0  0  0  0
    7.7543  -19.0855   25.2182 C   0  0  0  0  0  0  0  0  0  0  0  0
    6.7449  -18.5673   26.0388 C   0  0  0  0  0  0  0  0  0  0  0  0
    6.7959  -19.2232   27.1963 N   0  0  0  0  0  0  0  0  0  0  0  0
    7.7819  -20.1351   27.1661 C   0  0  0  0  0  0  0  0  0  0  0  0
    8.3521  -20.0337   25.9528 N   0  0  0  0  0  0  0  0  0  0  0  0
    8.5722  -16.3208   24.6213 C   0  0  0  0  0  0  0  0  0  0  0  0
    9.8121  -16.0948   24.5065 O   0  0  0  0  0  0  0  0  0  0  0  0
    6.3378  -11.9164   26.3709 C   0  0  0  0  0  0  0  0  0  0  0  0
    7.3494  -12.9727   25.9517 C   0  0  0  0  0  0  0  0  0  0  0  0
    7.8388  -13.7480   27.1371 C   0  0  2  0  0  0  0  0  0  0  0  0
    8.5307  -12.7756   28.0570 C   0  0  0  0  0  0  0  0  0  0  0  0
    8.6972  -14.8954   26.7099 C   0  0  2  0  0  0  0  0  0  0  0  0
    7.9593  -15.7211   25.7301 N   0  0  0  0  0  0  0  0  0  0  0  0
    9.2320  -15.7343   27.7780 C   0  0  0  0  0  0  0  0  0  0  0  0
   10.4130  -15.5068   28.4325 O   0  0  0  0  0  0  0  0  0  0  0  0
    8.5923  -16.7729   28.1729 O   0  0  0  0  0  0  0  0  0  0  0  0
  2  1  1  1
  2  3  1  0
  4  5  1  0
  4  2  1  0
  5  7  1  0
  5  6  1  6
  7  8  2  0
  9 10  1  0
  9  7  1  0
 11 12  1  0
 10 11  1  1
 12 16  1  0
 13 12  2  0
 13 14  1  0
 14 15  1  0
 16 15  2  0
 17 18  2  0
 17 10  1  0
 19 20  1  0
 20 21  1  0
 21 23  1  0
 21 22  1  1
 23 24  1  6
 23 25  1  0
 24 17  1  0
 25 26  1  0
 27 25  2  0
M  END
$$$$
