LHI.pdb
     RDKit          3D

 27 27  0  0  1  0  0  0  0  0999 V2000
   13.8074  -20.1972   26.5142 C   0  0  0  0  0  0  0  0  0  0  0  0
   13.8678  -19.6728   25.1007 C   0  0  1  0  0  0  0  0  0  0  0  0
   13.2239  -20.7347   24.2060 C   0  0  0  0  0  0  0  0  0  0  0  0
   13.0762  -18.4022   24.9233 C   0  0  0  0  0  0  0  0  0  0  0  0
   12.9488  -17.9842   23.4776 C   0  0  2  0  0  0  0  0  0  0  0  0
   14.2517  -17.4756   23.0739 N   0  0  0  0  0  0  0  0  0  0  0  0
   11.9388  -16.8792   23.4429 C   0  0  0  0  0  0  0  0  0  0  0  0
   12.2328  -15.7655   23.9353 O   0  0  0  0  0  0  0  0  0  0  0  0
   10.6654  -17.1380   22.8434 N   0  0  0  0  0  0  0  0  0  0  0  0
    9.7664  -15.9716   22.7247 C   0  0  1  0  0  0  0  0  0  0  0  0
    8.9394  -16.2538   21.4975 C   0  0  0  0  0  0  0  0  0  0  0  0
    8.3032  -15.0250   20.9676 C   0  0  0  0  0  0  0  0  0  0  0  0
    8.4254  -13.7562   21.5473 C   0  0  0  0  0  0  0  0  0  0  0  0
    7.7215  -12.9073   20.8011 N   0  0  0  0  0  0  0  0  0  0  0  0
    7.1534  -13.5593   19.7731 C   0  0  0  0  0  0  0  0  0  0  0  0
    7.5207  -14.8470   19.8942 N   0  0  0  0  0  0  0  0  0  0  0  0
    8.9822  -15.9081   23.9627 C   0  0  0  0  0  0  0  0  0  0  0  0
    8.8076  -16.8892   24.7428 O   0  0  0  0  0  0  0  0  0  0  0  0
    7.4203  -10.8217   25.7822 C   0  0  0  0  0  0  0  0  0  0  0  0
    7.9747  -12.2380   25.8227 C   0  0  0  0  0  0  0  0  0  0  0  0
    6.8875  -13.2466   25.6068 C   0  0  2  0  0  0  0  0  0  0  0  0
    5.8782  -13.0644   26.7108 C   0  0  0  0  0  0  0  0  0  0  0  0
    7.4491  -14.6297   25.5198 C   0  0  2  0  0  0  0  0  0  0  0  0
    8.3637  -14.7151   24.3612 N   0  0  0  0  0  0  0  0  0  0  0  0
    6.4785  -15.7192   25.4799 C   0  0  0  0  0  0  0  0  0  0  0  0
    6.1273  -16.4918   26.5544 O   0  0  0  0  0  0  0  0  0  0  0  0
    5.8807  -16.0194   24.3861 O   0  0  0  0  0  0  0  0  0  0  0  0
  2  1  1  1
  2  3  1  0
  4  5  1  0
  4  2  1  0
  5  7  1  0
  5  6  1  1
  7  8  2  0
  9 10  1  0
  9  7  1  0
 11 12  1  0
 10 11  1  6
 12 16  1  0
 13 12  2  0
 13 14  1  0
 14 15  1  0
 16 15  2  0
 17 18  2  0
 17 10  1  0
 19 20  1  0
 20 21  1  0
 21 23  1  0
 21 22  1  1
 23 24  1  6
 23 25  1  0
 24 17  1  0
 25 26  1  0
 27 25  2  0
M  END
$$$$
