LHI.pdb
     RDKit          3D

 27 27  0  0  1  0  0  0  0  0999 V2000
    9.5932  -13.4535   19.8780 C   0  0  0  0  0  0  0  0  0  0  0  0
    8.1197  -13.6842   20.1067 C   0  0  1  0  0  0  0  0  0  0  0  0
    7.4073  -12.3736   19.7637 C   0  0  0  0  0  0  0  0  0  0  0  0
    7.5555  -14.7479   19.1995 C   0  0  0  0  0  0  0  0  0  0  0  0
    7.9960  -16.1414   19.5802 C   0  0  2  0  0  0  0  0  0  0  0  0
    7.3265  -17.0551   18.6658 N   0  0  0  0  0  0  0  0  0  0  0  0
    7.5096  -16.3733   20.9774 C   0  0  0  0  0  0  0  0  0  0  0  0
    6.2846  -16.2804   21.2223 O   0  0  0  0  0  0  0  0  0  0  0  0
    8.4693  -16.6954   21.9888 N   0  0  0  0  0  0  0  0  0  0  0  0
    7.9161  -16.9611   23.3328 C   0  0  1  0  0  0  0  0  0  0  0  0
    8.2672  -18.3998   23.6095 C   0  0  0  0  0  0  0  0  0  0  0  0
    7.8794  -18.8074   24.9803 C   0  0  0  0  0  0  0  0  0  0  0  0
    7.1781  -17.9953   25.8800 C   0  0  0  0  0  0  0  0  0  0  0  0
    7.0129  -18.6931   27.0019 N   0  0  0  0  0  0  0  0  0  0  0  0
    7.5687  -19.9094   26.8740 C   0  0  0  0  0  0  0  0  0  0  0  0
    8.0904  -19.9572   25.6358 N   0  0  0  0  0  0  0  0  0  0  0  0
    8.5515  -16.0114   24.2524 C   0  0  0  0  0  0  0  0  0  0  0  0
    9.7586  -15.6409   24.1669 O   0  0  0  0  0  0  0  0  0  0  0  0
    5.7558  -11.8046   25.8687 C   0  0  0  0  0  0  0  0  0  0  0  0
    6.8578  -12.7766   25.4741 C   0  0  0  0  0  0  0  0  0  0  0  0
    7.4066  -13.4831   26.6764 C   0  0  2  0  0  0  0  0  0  0  0  0
    7.9268  -12.4294   27.6197 C   0  0  0  0  0  0  0  0  0  0  0  0
    8.4280  -14.5008   26.2803 C   0  0  2  0  0  0  0  0  0  0  0  0
    7.8296  -15.4439   25.3114 N   0  0  0  0  0  0  0  0  0  0  0  0
    9.0670  -15.2322   27.3700 C   0  0  0  0  0  0  0  0  0  0  0  0
   10.2384  -14.8643   27.9759 O   0  0  0  0  0  0  0  0  0  0  0  0
    8.5379  -16.3041   27.8335 O   0  0  0  0  0  0  0  0  0  0  0  0
  2  1  1  6
  2  3  1  0
  4  5  1  0
  4  2  1  0
  5  7  1  0
  5  6  1  6
  7  8  2  0
  9 10  1  0
  9  7  1  0
 11 12  1  0
 10 11  1  1
 12 16  1  0
 13 12  2  0
 13 14  1  0
 14 15  1  0
 16 15  2  0
 17 18  2  0
 17 10  1  0
 19 20  1  0
 20 21  1  0
 21 23  1  0
 21 22  1  1
 23 24  1  6
 23 25  1  0
 24 17  1  0
 25 26  1  0
 27 25  2  0
M  END
$$$$
