LHI.pdb
     RDKit          3D

 27 27  0  0  1  0  0  0  0  0999 V2000
    7.3212  -12.2353   18.4368 C   0  0  0  0  0  0  0  0  0  0  0  0
    8.0348  -13.5208   18.7757 C   0  0  1  0  0  0  0  0  0  0  0  0
    9.5153  -13.1735   18.9499 C   0  0  0  0  0  0  0  0  0  0  0  0
    7.5615  -14.1165   20.0771 C   0  0  0  0  0  0  0  0  0  0  0  0
    8.3489  -15.3385   20.4867 C   0  0  2  0  0  0  0  0  0  0  0  0
    8.0359  -16.3802   19.5190 N   0  0  0  0  0  0  0  0  0  0  0  0
    7.8449  -15.7341   21.8401 C   0  0  0  0  0  0  0  0  0  0  0  0
    7.0042  -15.0062   22.4170 O   0  0  0  0  0  0  0  0  0  0  0  0
    8.3456  -16.9383   22.4290 N   0  0  0  0  0  0  0  0  0  0  0  0
    7.8712  -17.2248   23.7986 C   0  0  1  0  0  0  0  0  0  0  0  0
    8.2164  -18.6739   24.0239 C   0  0  0  0  0  0  0  0  0  0  0  0
    7.8126  -19.1328   25.3736 C   0  0  0  0  0  0  0  0  0  0  0  0
    7.1268  -18.3449   26.3063 C   0  0  0  0  0  0  0  0  0  0  0  0
    6.9398  -19.0879   27.3952 N   0  0  0  0  0  0  0  0  0  0  0  0
    7.4669  -20.3103   27.2151 C   0  0  0  0  0  0  0  0  0  0  0  0
    7.9930  -20.3154   25.9778 N   0  0  0  0  0  0  0  0  0  0  0  0
    8.5759  -16.3041   24.6969 C   0  0  0  0  0  0  0  0  0  0  0  0
    9.7945  -15.9858   24.5727 O   0  0  0  0  0  0  0  0  0  0  0  0
    6.5102  -11.7254   25.8159 C   0  0  0  0  0  0  0  0  0  0  0  0
    7.4704  -12.8908   25.6288 C   0  0  0  0  0  0  0  0  0  0  0  0
    7.7392  -13.5796   26.9323 C   0  0  2  0  0  0  0  0  0  0  0  0
    8.3451  -12.5615   27.8633 C   0  0  0  0  0  0  0  0  0  0  0  0
    8.5840  -14.7969   26.7310 C   0  0  2  0  0  0  0  0  0  0  0  0
    7.9132  -15.7066   25.7779 N   0  0  0  0  0  0  0  0  0  0  0  0
    8.9689  -15.5223   27.9378 C   0  0  0  0  0  0  0  0  0  0  0  0
    8.3191  -16.6236   28.4274 O   0  0  0  0  0  0  0  0  0  0  0  0
    9.9804  -15.1456   28.6297 O   0  0  0  0  0  0  0  0  0  0  0  0
  2  1  1  1
  2  3  1  0
  4  5  1  0
  4  2  1  0
  5  7  1  0
  5  6  1  6
  7  8  2  0
  9 10  1  0
  9  7  1  0
 11 12  1  0
 10 11  1  1
 12 16  1  0
 13 12  2  0
 13 14  1  0
 14 15  1  0
 16 15  2  0
 17 18  2  0
 17 10  1  0
 19 20  1  0
 20 21  1  0
 21 23  1  0
 21 22  1  1
 23 24  1  6
 23 25  1  0
 24 17  1  0
 25 26  1  0
 27 25  2  0
M  END
$$$$
