WEK.pdb
     RDKit          3D

 33 34  0  0  1  0  0  0  0  0999 V2000
    6.3336  -17.4705   24.2642 N   0  0  0  0  0  0  0  0  0  0  0  0
    7.6318  -16.8238   24.1557 C   0  0  1  0  0  0  0  0  0  0  0  0
    7.9312  -16.1652   25.4356 C   0  0  0  0  0  0  0  0  0  0  0  0
    7.0819  -15.0099   25.7863 C   0  0  0  0  0  0  0  0  0  0  0  0
    5.9203  -15.1098   26.5621 C   0  0  0  0  0  0  0  0  0  0  0  0
    5.4330  -13.8780   26.7107 N   0  0  0  0  0  0  0  0  0  0  0  0
    6.1957  -12.9538   26.0782 C   0  0  0  0  0  0  0  0  0  0  0  0
    6.0888  -11.5828   25.9358 C   0  0  0  0  0  0  0  0  0  0  0  0
    7.0381  -10.9250   25.1967 C   0  0  0  0  0  0  0  0  0  0  0  0
    8.0758  -11.6109   24.6075 C   0  0  0  0  0  0  0  0  0  0  0  0
    8.1591  -12.9639   24.7649 C   0  0  0  0  0  0  0  0  0  0  0  0
    7.2331  -13.6905   25.4997 C   0  0  0  0  0  0  0  0  0  0  0  0
    8.6576  -17.5566   23.4676 C   0  0  0  0  0  0  0  0  0  0  0  0
    8.3955  -18.5496   22.7156 O   0  0  0  0  0  0  0  0  0  0  0  0
   10.0641  -17.2737   23.5519 N   0  0  0  0  0  0  0  0  0  0  0  0
   11.0221  -17.3613   22.5268 C   0  0  1  0  0  0  0  0  0  0  0  0
   10.8609  -16.6485   21.2615 C   0  0  0  0  0  0  0  0  0  0  0  0
   11.9697  -16.7810   20.2548 C   0  0  0  0  0  0  0  0  0  0  0  0
   11.4515  -16.5416   18.8755 C   0  0  0  0  0  0  0  0  0  0  0  0
   10.2708  -16.2460   18.6402 O   0  0  0  0  0  0  0  0  0  0  0  0
   12.3718  -17.0148   23.1141 C   0  0  0  0  0  0  0  0  0  0  0  0
   13.2155  -16.4156   22.4205 O   0  0  0  0  0  0  0  0  0  0  0  0
   12.2765  -16.6376   17.7460 O   0  0  0  0  0  0  0  0  0  0  0  0
   12.7182  -17.3470   24.4357 N   0  0  0  0  0  0  0  0  0  0  0  0
   13.5292  -16.3670   25.2786 C   0  0  1  0  0  0  0  0  0  0  0  0
   12.8958  -16.4709   26.6036 C   0  0  0  0  0  0  0  0  0  0  0  0
   11.7758  -15.6836   27.0743 C   0  0  0  0  0  0  0  0  0  0  0  0
   11.0891  -15.8696   28.3606 C   0  0  0  0  0  0  0  0  0  0  0  0
    9.8772  -14.9650   28.5325 C   0  0  0  0  0  0  0  0  0  0  0  0
    8.6856  -15.8337   28.7065 N   0  0  0  0  0  0  0  0  0  0  0  0
   14.8643  -17.0895   25.2033 C   0  0  0  0  0  0  0  0  0  0  0  0
   14.9964  -18.3891   24.8618 O   0  0  0  0  0  0  0  0  0  0  0  0
   15.9039  -16.4060   25.4802 O   0  0  0  0  0  0  0  0  0  0  0  0
  2  1  1  1
  3  2  1  0
  4  3  1  0
  4  5  2  0
  6  5  1  0
  7  6  1  0
  8  7  2  0
  9  8  1  0
 10  9  2  0
 10 11  1  0
 11 12  2  0
 12  7  1  0
 12  4  1  0
 13 14  2  0
 13  2  1  0
 15 13  1  0
 16 17  1  6
 16 15  1  0
 18 19  1  0
 18 17  1  0
 19 23  1  0
 20 19  2  0
 21 16  1  0
 22 21  2  0
 24 21  1  0
 25 24  1  0
 26 27  1  0
 25 26  1  1
 28 29  1  0
 28 27  1  0
 29 30  1  0
 31 25  1  0
 31 32  1  0
 33 31  2  0
M  END
$$$$
