WEK.pdb
     RDKit          3D

 33 34  0  0  1  0  0  0  0  0999 V2000
    6.1531  -18.2389   23.8709 N   0  0  0  0  0  0  0  0  0  0  0  0
    7.3560  -17.4227   23.8239 C   0  0  1  0  0  0  0  0  0  0  0  0
    7.6204  -16.9065   25.1749 C   0  0  0  0  0  0  0  0  0  0  0  0
    6.9968  -15.6109   25.5091 C   0  0  0  0  0  0  0  0  0  0  0  0
    5.8354  -15.4867   26.2817 C   0  0  0  0  0  0  0  0  0  0  0  0
    5.5822  -14.1848   26.4143 N   0  0  0  0  0  0  0  0  0  0  0  0
    6.5025  -13.4238   25.7740 C   0  0  0  0  0  0  0  0  0  0  0  0
    6.6492  -12.0583   25.6154 C   0  0  0  0  0  0  0  0  0  0  0  0
    7.7041  -11.5947   24.8723 C   0  0  0  0  0  0  0  0  0  0  0  0
    8.5992  -12.4663   24.2948 C   0  0  0  0  0  0  0  0  0  0  0  0
    8.4327  -13.8097   24.4682 C   0  0  0  0  0  0  0  0  0  0  0  0
    7.3880  -14.3452   25.2079 C   0  0  0  0  0  0  0  0  0  0  0  0
    8.4375  -17.9205   23.0207 C   0  0  0  0  0  0  0  0  0  0  0  0
    8.7152  -19.1606   22.9477 O   0  0  0  0  0  0  0  0  0  0  0  0
    9.3193  -17.1019   22.2347 N   0  0  0  0  0  0  0  0  0  0  0  0
   10.5990  -17.4309   21.7548 C   0  0  1  0  0  0  0  0  0  0  0  0
   11.2535  -16.6456   20.7108 C   0  0  0  0  0  0  0  0  0  0  0  0
   12.6055  -17.1131   20.2482 C   0  0  0  0  0  0  0  0  0  0  0  0
   13.1045  -16.2468   19.1397 C   0  0  0  0  0  0  0  0  0  0  0  0
   13.5308  -15.0971   19.3216 O   0  0  0  0  0  0  0  0  0  0  0  0
   11.5314  -17.5410   22.9401 C   0  0  0  0  0  0  0  0  0  0  0  0
   12.7439  -17.7616   22.7580 O   0  0  0  0  0  0  0  0  0  0  0  0
   13.1222  -16.6833   17.8076 O   0  0  0  0  0  0  0  0  0  0  0  0
   11.0765  -17.4008   24.2631 N   0  0  0  0  0  0  0  0  0  0  0  0
   12.0822  -17.2690   25.4032 C   0  0  1  0  0  0  0  0  0  0  0  0
   11.2345  -16.8954   26.5475 C   0  0  0  0  0  0  0  0  0  0  0  0
   11.4174  -15.7391   27.3992 C   0  0  0  0  0  0  0  0  0  0  0  0
   10.4453  -15.2515   28.3880 C   0  0  0  0  0  0  0  0  0  0  0  0
   10.9008  -13.9909   29.1091 C   0  0  0  0  0  0  0  0  0  0  0  0
    9.8395  -13.6154   30.0772 N   0  0  0  0  0  0  0  0  0  0  0  0
   12.5305  -18.7206   25.4486 C   0  0  0  0  0  0  0  0  0  0  0  0
   11.7335  -19.7627   25.1298 O   0  0  0  0  0  0  0  0  0  0  0  0
   13.7335  -18.9394   25.8086 O   0  0  0  0  0  0  0  0  0  0  0  0
  2  1  1  1
  3  2  1  0
  4  3  1  0
  4  5  2  0
  6  5  1  0
  7  6  1  0
  8  7  2  0
  9  8  1  0
 10  9  2  0
 10 11  1  0
 11 12  2  0
 12  7  1  0
 12  4  1  0
 13 14  2  0
 13  2  1  0
 15 13  1  0
 16 17  1  6
 16 15  1  0
 18 19  1  0
 18 17  1  0
 19 23  1  0
 20 19  2  0
 21 16  1  0
 22 21  2  0
 24 21  1  0
 25 24  1  0
 26 27  1  0
 25 26  1  1
 28 29  1  0
 28 27  1  0
 29 30  1  0
 31 25  1  0
 31 32  1  0
 33 31  2  0
M  END
$$$$
