WEK.pdb
     RDKit          3D

 33 34  0  0  1  0  0  0  0  0999 V2000
    5.4928  -17.1570   23.5155 N   0  0  0  0  0  0  0  0  0  0  0  0
    6.5838  -16.1970   23.4587 C   0  0  1  0  0  0  0  0  0  0  0  0
    7.1910  -16.1040   24.7945 C   0  0  0  0  0  0  0  0  0  0  0  0
    6.6361  -15.0699   25.6899 C   0  0  0  0  0  0  0  0  0  0  0  0
    5.5949  -15.3074   26.5959 C   0  0  0  0  0  0  0  0  0  0  0  0
    5.3789  -14.1727   27.2612 N   0  0  0  0  0  0  0  0  0  0  0  0
    6.2107  -13.1832   26.8551 C   0  0  0  0  0  0  0  0  0  0  0  0
    6.3509  -11.8592   27.2274 C   0  0  0  0  0  0  0  0  0  0  0  0
    7.2981  -11.0972   26.5931 C   0  0  0  0  0  0  0  0  0  0  0  0
    8.0934  -11.6348   25.6067 C   0  0  0  0  0  0  0  0  0  0  0  0
    7.9358  -12.9450   25.2592 C   0  0  0  0  0  0  0  0  0  0  0  0
    6.9974  -13.7713   25.8608 C   0  0  0  0  0  0  0  0  0  0  0  0
    7.4194  -16.2445   22.2916 C   0  0  0  0  0  0  0  0  0  0  0  0
    7.6433  -17.3264   21.6594 O   0  0  0  0  0  0  0  0  0  0  0  0
    8.0943  -15.1118   21.7198 N   0  0  0  0  0  0  0  0  0  0  0  0
    8.9829  -15.0997   20.6305 C   0  0  1  0  0  0  0  0  0  0  0  0
    9.1289  -13.9271   19.7710 C   0  0  0  0  0  0  0  0  0  0  0  0
    7.9602  -13.5700   18.8952 C   0  0  0  0  0  0  0  0  0  0  0  0
    8.0231  -14.3261   17.6096 C   0  0  0  0  0  0  0  0  0  0  0  0
    8.7823  -14.0148   16.6804 O   0  0  0  0  0  0  0  0  0  0  0  0
   10.3487  -15.5097   21.1336 C   0  0  0  0  0  0  0  0  0  0  0  0
   11.3202  -15.5206   20.3538 O   0  0  0  0  0  0  0  0  0  0  0  0
    7.2181  -15.4484   17.3689 O   0  0  0  0  0  0  0  0  0  0  0  0
   10.5700  -15.8847   22.4705 N   0  0  0  0  0  0  0  0  0  0  0  0
   11.9732  -16.2700   22.9299 C   0  0  1  0  0  0  0  0  0  0  0  0
   11.8134  -16.4166   24.3862 C   0  0  0  0  0  0  0  0  0  0  0  0
   12.5331  -17.3463   25.2309 C   0  0  0  0  0  0  0  0  0  0  0  0
   12.7039  -17.2140   26.6848 C   0  0  0  0  0  0  0  0  0  0  0  0
   13.4898  -18.3603   27.3055 C   0  0  0  0  0  0  0  0  0  0  0  0
   13.5168  -18.1465   28.7746 N   0  0  0  0  0  0  0  0  0  0  0  0
   12.0649  -17.6045   22.2080 C   0  0  0  0  0  0  0  0  0  0  0  0
   11.6025  -18.7665   22.7167 O   0  0  0  0  0  0  0  0  0  0  0  0
   12.6115  -17.5984   21.0565 O   0  0  0  0  0  0  0  0  0  0  0  0
  2  1  1  1
  3  2  1  0
  4  3  1  0
  4  5  2  0
  6  5  1  0
  7  6  1  0
  8  7  2  0
  9  8  1  0
 10  9  2  0
 10 11  1  0
 11 12  2  0
 12  7  1  0
 12  4  1  0
 13 14  2  0
 13  2  1  0
 15 13  1  0
 16 17  1  1
 16 15  1  0
 18 19  1  0
 18 17  1  0
 19 23  1  0
 20 19  2  0
 21 16  1  0
 22 21  2  0
 24 21  1  0
 25 24  1  0
 26 27  1  0
 25 26  1  1
 28 29  1  0
 28 27  1  0
 29 30  1  0
 31 25  1  0
 31 32  1  0
 33 31  2  0
M  END
$$$$
