WEK.pdb
     RDKit          3D

 33 34  0  0  1  0  0  0  0  0999 V2000
    7.0121  -16.5135   22.8493 N   0  0  0  0  0  0  0  0  0  0  0  0
    8.3683  -16.1660   23.2431 C   0  0  1  0  0  0  0  0  0  0  0  0
    8.3955  -15.9799   24.7013 C   0  0  0  0  0  0  0  0  0  0  0  0
    7.3867  -15.0569   25.2575 C   0  0  0  0  0  0  0  0  0  0  0  0
    6.2218  -15.4831   25.9077 C   0  0  0  0  0  0  0  0  0  0  0  0
    5.5686  -14.3932   26.3105 N   0  0  0  0  0  0  0  0  0  0  0  0
    6.2226  -13.2571   25.9676 C   0  0  0  0  0  0  0  0  0  0  0  0
    5.9379  -11.9162   26.1469 C   0  0  0  0  0  0  0  0  0  0  0  0
    6.8163  -10.9878   25.6502 C   0  0  0  0  0  0  0  0  0  0  0  0
    7.9571  -11.3783   24.9865 C   0  0  0  0  0  0  0  0  0  0  0  0
    8.2156  -12.7084   24.8244 C   0  0  0  0  0  0  0  0  0  0  0  0
    7.3696  -13.6990   25.3023 C   0  0  0  0  0  0  0  0  0  0  0  0
    9.4287  -16.8816   22.5904 C   0  0  0  0  0  0  0  0  0  0  0  0
    9.2049  -17.8008   21.7389 O   0  0  0  0  0  0  0  0  0  0  0  0
   10.8300  -16.6616   22.8218 N   0  0  0  0  0  0  0  0  0  0  0  0
   11.9153  -17.2328   22.1348 C   0  0  1  0  0  0  0  0  0  0  0  0
   12.0781  -17.0780   20.6910 C   0  0  0  0  0  0  0  0  0  0  0  0
   12.4214  -15.7049   20.1837 C   0  0  0  0  0  0  0  0  0  0  0  0
   13.1648  -15.7980   18.8926 C   0  0  0  0  0  0  0  0  0  0  0  0
   13.4339  -16.8772   18.3453 O   0  0  0  0  0  0  0  0  0  0  0  0
   13.1895  -16.7924   22.8199 C   0  0  0  0  0  0  0  0  0  0  0  0
   14.2895  -16.9824   22.2669 O   0  0  0  0  0  0  0  0  0  0  0  0
   13.6112  -14.6578   18.2098 O   0  0  0  0  0  0  0  0  0  0  0  0
   13.1818  -16.1650   24.0782 N   0  0  0  0  0  0  0  0  0  0  0  0
   13.5255  -16.9670   25.3300 C   0  0  1  0  0  0  0  0  0  0  0  0
   12.2579  -17.6475   25.6426 C   0  0  0  0  0  0  0  0  0  0  0  0
   12.0790  -18.7080   26.6118 C   0  0  0  0  0  0  0  0  0  0  0  0
   10.8207  -19.4255   26.8615 C   0  0  0  0  0  0  0  0  0  0  0  0
   10.8993  -20.3871   28.0388 C   0  0  0  0  0  0  0  0  0  0  0  0
    9.5512  -20.9796   28.2293 N   0  0  0  0  0  0  0  0  0  0  0  0
   14.5546  -17.8932   24.7027 C   0  0  0  0  0  0  0  0  0  0  0  0
   14.3380  -18.6011   23.5736 O   0  0  0  0  0  0  0  0  0  0  0  0
   15.6797  -17.9868   25.2945 O   0  0  0  0  0  0  0  0  0  0  0  0
  2  1  1  1
  3  2  1  0
  4  3  1  0
  4  5  2  0
  6  5  1  0
  7  6  1  0
  8  7  2  0
  9  8  1  0
 10  9  2  0
 10 11  1  0
 11 12  2  0
 12  7  1  0
 12  4  1  0
 13 14  2  0
 13  2  1  0
 15 13  1  0
 16 17  1  6
 16 15  1  0
 18 19  1  0
 18 17  1  0
 19 23  1  0
 20 19  2  0
 21 16  1  0
 22 21  2  0
 24 21  1  0
 25 24  1  0
 26 27  1  0
 25 26  1  6
 28 29  1  0
 28 27  1  0
 29 30  1  0
 31 25  1  0
 31 32  1  0
 33 31  2  0
M  END
$$$$
