WEK.pdb
     RDKit          3D

 33 34  0  0  1  0  0  0  0  0999 V2000
    6.1683  -18.6763   24.5982 N   0  0  0  0  0  0  0  0  0  0  0  0
    6.6158  -17.3144   24.3528 C   0  0  1  0  0  0  0  0  0  0  0  0
    7.2016  -16.7870   25.5939 C   0  0  0  0  0  0  0  0  0  0  0  0
    6.7508  -15.4430   26.0054 C   0  0  0  0  0  0  0  0  0  0  0  0
    5.4243  -15.1382   26.3351 C   0  0  0  0  0  0  0  0  0  0  0  0
    5.3875  -13.8549   26.6935 N   0  0  0  0  0  0  0  0  0  0  0  0
    6.6102  -13.2754   26.6219 C   0  0  0  0  0  0  0  0  0  0  0  0
    7.0598  -11.9920   26.8707 C   0  0  0  0  0  0  0  0  0  0  0  0
    8.3887  -11.7146   26.6781 C   0  0  0  0  0  0  0  0  0  0  0  0
    9.2590  -12.6895   26.2461 C   0  0  0  0  0  0  0  0  0  0  0  0
    8.7899  -13.9489   26.0094 C   0  0  0  0  0  0  0  0  0  0  0  0
    7.4581  -14.2968   26.1845 C   0  0  0  0  0  0  0  0  0  0  0  0
    7.2602  -17.0685   23.0931 C   0  0  0  0  0  0  0  0  0  0  0  0
    7.6768  -18.0120   22.3471 O   0  0  0  0  0  0  0  0  0  0  0  0
    7.5165  -15.7654   22.5439 N   0  0  0  0  0  0  0  0  0  0  0  0
    8.2007  -15.4517   21.3566 C   0  0  1  0  0  0  0  0  0  0  0  0
    7.8411  -14.2900   20.5465 C   0  0  0  0  0  0  0  0  0  0  0  0
    8.6912  -14.0075   19.3390 C   0  0  0  0  0  0  0  0  0  0  0  0
    8.5615  -15.1106   18.3417 C   0  0  0  0  0  0  0  0  0  0  0  0
    7.4677  -15.5124   17.9186 O   0  0  0  0  0  0  0  0  0  0  0  0
    9.6792  -15.3912   21.6681 C   0  0  0  0  0  0  0  0  0  0  0  0
   10.5052  -15.2842   20.7416 O   0  0  0  0  0  0  0  0  0  0  0  0
    9.6810  -15.7698   17.8148 O   0  0  0  0  0  0  0  0  0  0  0  0
   10.1674  -15.4508   22.9853 N   0  0  0  0  0  0  0  0  0  0  0  0
   11.6701  -15.5370   23.2362 C   0  0  1  0  0  0  0  0  0  0  0  0
   11.7488  -15.7448   24.6916 C   0  0  0  0  0  0  0  0  0  0  0  0
   11.8062  -17.0248   25.3655 C   0  0  0  0  0  0  0  0  0  0  0  0
   11.8695  -17.2147   26.8217 C   0  0  0  0  0  0  0  0  0  0  0  0
   11.9184  -18.6784   27.2365 C   0  0  0  0  0  0  0  0  0  0  0  0
   12.8738  -18.7962   28.3670 N   0  0  0  0  0  0  0  0  0  0  0  0
   11.9370  -16.8056   22.4426 C   0  0  0  0  0  0  0  0  0  0  0  0
   13.1090  -17.0745   21.8287 O   0  0  0  0  0  0  0  0  0  0  0  0
   10.9842  -17.6493   22.3705 O   0  0  0  0  0  0  0  0  0  0  0  0
  2  1  1  1
  3  2  1  0
  4  3  1  0
  4  5  2  0
  6  5  1  0
  7  6  1  0
  8  7  2  0
  9  8  1  0
 10  9  2  0
 10 11  1  0
 11 12  2  0
 12  7  1  0
 12  4  1  0
 13 14  2  0
 13  2  1  0
 15 13  1  0
 16 17  1  1
 16 15  1  0
 18 19  1  0
 18 17  1  0
 19 23  1  0
 20 19  2  0
 21 16  1  0
 22 21  2  0
 24 21  1  0
 25 24  1  0
 26 27  1  0
 25 26  1  1
 28 29  1  0
 28 27  1  0
 29 30  1  0
 31 25  1  0
 31 32  1  0
 33 31  2  0
M  END
$$$$
