WEK.pdb
     RDKit          3D

 33 34  0  0  1  0  0  0  0  0999 V2000
    6.5899  -17.7089   24.9311 N   0  0  0  0  0  0  0  0  0  0  0  0
    6.9575  -17.1460   23.6415 C   0  0  1  0  0  0  0  0  0  0  0  0
    6.9513  -15.6802   23.7554 C   0  0  0  0  0  0  0  0  0  0  0  0
    7.1580  -15.1328   25.1106 C   0  0  0  0  0  0  0  0  0  0  0  0
    7.5570  -15.9081   26.2065 C   0  0  0  0  0  0  0  0  0  0  0  0
    7.6818  -15.0885   27.2503 N   0  0  0  0  0  0  0  0  0  0  0  0
    7.3875  -13.8069   26.9237 C   0  0  0  0  0  0  0  0  0  0  0  0
    7.3569  -12.6328   27.6530 C   0  0  0  0  0  0  0  0  0  0  0  0
    6.9877  -11.4757   27.0166 C   0  0  0  0  0  0  0  0  0  0  0  0
    6.6536  -11.4790   25.6814 C   0  0  0  0  0  0  0  0  0  0  0  0
    6.6935  -12.6513   24.9839 C   0  0  0  0  0  0  0  0  0  0  0  0
    7.0585  -13.8567   25.5662 C   0  0  0  0  0  0  0  0  0  0  0  0
    8.0171  -17.8069   22.9321 C   0  0  0  0  0  0  0  0  0  0  0  0
    8.2727  -19.0438   23.0900 O   0  0  0  0  0  0  0  0  0  0  0  0
    8.8992  -17.1679   21.9945 N   0  0  0  0  0  0  0  0  0  0  0  0
    9.7952  -17.7807   21.1013 C   0  0  1  0  0  0  0  0  0  0  0  0
   10.0444  -17.2363   19.7684 C   0  0  0  0  0  0  0  0  0  0  0  0
    8.8561  -17.0733   18.8619 C   0  0  0  0  0  0  0  0  0  0  0  0
    9.0910  -17.7739   17.5649 C   0  0  0  0  0  0  0  0  0  0  0  0
    8.1766  -18.2708   16.8913 O   0  0  0  0  0  0  0  0  0  0  0  0
   11.1184  -17.9590   21.8113 C   0  0  0  0  0  0  0  0  0  0  0  0
   12.0426  -18.5823   21.2551 O   0  0  0  0  0  0  0  0  0  0  0  0
   10.3751  -17.9163   17.0206 O   0  0  0  0  0  0  0  0  0  0  0  0
   11.3516  -17.4392   23.0967 N   0  0  0  0  0  0  0  0  0  0  0  0
   12.6850  -17.6991   23.7917 C   0  0  1  0  0  0  0  0  0  0  0  0
   13.4898  -16.5278   23.4071 C   0  0  0  0  0  0  0  0  0  0  0  0
   14.6633  -16.5442   22.5593 C   0  0  0  0  0  0  0  0  0  0  0  0
   15.5107  -15.3808   22.2612 C   0  0  0  0  0  0  0  0  0  0  0  0
   16.6111  -15.6799   21.2531 C   0  0  0  0  0  0  0  0  0  0  0  0
   16.9129  -14.4208   20.5263 N   0  0  0  0  0  0  0  0  0  0  0  0
   12.1851  -17.6278   25.2254 C   0  0  0  0  0  0  0  0  0  0  0  0
   12.8855  -18.0786   26.2880 O   0  0  0  0  0  0  0  0  0  0  0  0
   11.0370  -17.1051   25.4082 O   0  0  0  0  0  0  0  0  0  0  0  0
  2  1  1  1
  3  2  1  0
  4  3  1  0
  4  5  2  0
  6  5  1  0
  7  6  1  0
  8  7  2  0
  9  8  1  0
 10  9  2  0
 10 11  1  0
 11 12  2  0
 12  7  1  0
 12  4  1  0
 13 14  2  0
 13  2  1  0
 15 13  1  0
 16 17  1  6
 16 15  1  0
 18 19  1  0
 18 17  1  0
 19 23  1  0
 20 19  2  0
 21 16  1  0
 22 21  2  0
 24 21  1  0
 25 24  1  0
 26 27  1  0
 25 26  1  1
 28 29  1  0
 28 27  1  0
 29 30  1  0
 31 25  1  0
 31 32  1  0
 33 31  2  0
M  END
$$$$
