INN.pdb
     RDKit          3D

 25 24  0  0  1  0  0  0  0  0999 V2000
   29.5493  -17.1484  -17.8624 C   0  0  0  0  0  0  0  0  0  0  0  0
   28.1592  -17.2508  -17.2961 C   0  0  0  0  0  0  0  0  0  0  0  0
   27.9543  -18.4954  -16.4636 C   0  0  2  0  0  0  0  0  0  0  0  0
   28.2656  -19.7510  -17.2330 C   0  0  0  0  0  0  0  0  0  0  0  0
   26.5296  -18.4684  -15.9565 C   0  0  2  0  0  0  0  0  0  0  0  0
   26.2876  -17.1802  -15.3772 N   0  0  0  0  0  0  0  0  0  0  0  0
   26.2598  -19.5194  -14.9570 C   0  0  0  0  0  0  0  0  0  0  0  0
   26.3401  -20.7231  -15.2918 O   0  0  0  0  0  0  0  0  0  0  0  0
   25.1395  -20.7226   -9.3685 N   0  0  0  0  0  0  0  0  0  0  0  0
   26.0903  -20.9907  -10.3661 C   0  0  0  0  0  0  0  0  0  0  0  0
   26.7181  -22.0918  -10.3835 O   0  0  0  0  0  0  0  0  0  0  0  0
   26.3693  -19.9905  -11.4069 C   0  0  0  0  0  0  0  0  0  0  0  0
   25.5900  -20.2952  -12.6966 C   0  0  2  0  0  0  0  0  0  0  0  0
   25.9107  -19.2076  -13.6211 N   0  0  0  0  0  0  0  0  0  0  0  0
   24.1347  -20.2770  -12.3937 C   0  0  0  0  0  0  0  0  0  0  0  0
   23.6703  -19.3568  -11.6372 O   0  0  0  0  0  0  0  0  0  0  0  0
   19.9257  -18.9508  -13.5868 N   0  0  0  0  0  0  0  0  0  0  0  0
   21.0385  -18.8603  -14.4871 C   0  0  0  0  0  0  0  0  0  0  0  0
   21.0394  -17.9026  -15.2871 O   0  0  0  0  0  0  0  0  0  0  0  0
   22.1162  -19.8592  -14.4523 C   0  0  0  0  0  0  0  0  0  0  0  0
   21.9243  -20.9150  -13.4102 C   0  0  2  0  0  0  0  0  0  0  0  0
   23.2710  -21.2515  -12.9240 N   0  0  0  0  0  0  0  0  0  0  0  0
   21.2795  -22.1506  -13.9028 C   0  0  0  0  0  0  0  0  0  0  0  0
   20.0105  -22.4617  -13.3832 O   0  0  0  0  0  0  0  0  0  0  0  0
   21.7426  -22.9472  -14.7310 O   0  0  0  0  0  0  0  0  0  0  0  0
  1  2  1  0
  2  3  1  0
  3  4  1  6
  5  3  1  0
  5  6  1  1
  7  8  2  0
  7  5  1  0
 10  9  1  0
 10 12  1  0
 11 10  2  0
 13 12  1  1
 13 14  1  0
 14  7  1  0
 15 22  1  0
 15 13  1  0
 16 15  2  0
 18 17  1  0
 19 18  2  0
 20 18  1  0
 21 22  1  0
 21 20  1  6
 23 21  1  0
 24 23  1  0
 25 23  2  0
M  END
$$$$
