INN.pdb
     RDKit          3D

 25 24  0  0  1  0  0  0  0  0999 V2000
   15.5658  -12.9040  -12.3782 C   0  0  0  0  0  0  0  0  0  0  0  0
   15.1164  -12.1725  -11.1425 C   0  0  0  0  0  0  0  0  0  0  0  0
   15.4880  -10.7077  -11.1594 C   0  0  2  0  0  0  0  0  0  0  0  0
   16.9787  -10.4998  -11.1618 C   0  0  0  0  0  0  0  0  0  0  0  0
   14.8174  -10.0593   -9.9687 C   0  0  2  0  0  0  0  0  0  0  0  0
   13.4338  -10.4323   -9.9794 N   0  0  0  0  0  0  0  0  0  0  0  0
   14.9340   -8.5888   -9.9791 C   0  0  0  0  0  0  0  0  0  0  0  0
   14.4451   -7.9387  -10.9309 O   0  0  0  0  0  0  0  0  0  0  0  0
   13.1177   -5.9217   -8.4727 N   0  0  0  0  0  0  0  0  0  0  0  0
   14.0267   -5.6942   -7.4273 C   0  0  0  0  0  0  0  0  0  0  0  0
   13.6197   -5.3364   -6.2813 O   0  0  0  0  0  0  0  0  0  0  0  0
   15.4688   -5.8696   -7.6527 C   0  0  0  0  0  0  0  0  0  0  0  0
   15.7498   -6.4347   -9.0546 C   0  0  2  0  0  0  0  0  0  0  0  0
   15.5862   -7.8840   -8.9390 N   0  0  0  0  0  0  0  0  0  0  0  0
   17.1548   -6.1214   -9.4258 C   0  0  0  0  0  0  0  0  0  0  0  0
   18.0903   -6.3935   -8.5978 O   0  0  0  0  0  0  0  0  0  0  0  0
   21.4608   -5.5582  -12.1393 N   0  0  0  0  0  0  0  0  0  0  0  0
   20.7944   -6.7676  -11.7516 C   0  0  0  0  0  0  0  0  0  0  0  0
   21.4133   -7.8355  -11.9349 O   0  0  0  0  0  0  0  0  0  0  0  0
   19.4459   -6.7283  -11.1678 C   0  0  0  0  0  0  0  0  0  0  0  0
   18.8525   -5.3562  -11.1164 C   0  0  2  0  0  0  0  0  0  0  0  0
   17.4639   -5.5339  -10.6651 N   0  0  0  0  0  0  0  0  0  0  0  0
   18.8386   -4.6468  -12.4132 C   0  0  0  0  0  0  0  0  0  0  0  0
   19.9237   -3.7963  -12.6896 O   0  0  0  0  0  0  0  0  0  0  0  0
   17.9654   -4.7226  -13.2888 O   0  0  0  0  0  0  0  0  0  0  0  0
  1  2  1  0
  2  3  1  0
  3  4  1  1
  5  3  1  0
  5  6  1  6
  7  8  2  0
  7  5  1  0
 10  9  1  0
 10 12  1  0
 11 10  2  0
 13 12  1  1
 13 14  1  0
 14  7  1  0
 15 22  1  0
 15 13  1  0
 16 15  2  0
 18 17  1  0
 19 18  2  0
 20 18  1  0
 21 22  1  0
 21 20  1  6
 23 21  1  0
 24 23  1  0
 25 23  2  0
M  END
$$$$
