INN.pdb
     RDKit          3D

 25 24  0  0  1  0  0  0  0  0999 V2000
   19.3055  -18.6112  -12.7755 C   0  0  0  0  0  0  0  0  0  0  0  0
   20.0943  -18.5777  -14.0562 C   0  0  0  0  0  0  0  0  0  0  0  0
   20.3501  -17.1730  -14.5517 C   0  0  2  0  0  0  0  0  0  0  0  0
   19.0775  -16.3842  -14.7052 C   0  0  0  0  0  0  0  0  0  0  0  0
   21.1181  -17.2864  -15.8499 C   0  0  2  0  0  0  0  0  0  0  0  0
   22.3425  -17.9816  -15.5835 N   0  0  0  0  0  0  0  0  0  0  0  0
   21.4153  -15.9734  -16.4534 C   0  0  0  0  0  0  0  0  0  0  0  0
   22.3683  -15.2931  -16.0100 O   0  0  0  0  0  0  0  0  0  0  0  0
   22.4547  -12.6729  -20.8469 N   0  0  0  0  0  0  0  0  0  0  0  0
   21.2395  -12.9382  -20.1958 C   0  0  0  0  0  0  0  0  0  0  0  0
   20.3250  -12.0615  -20.1486 O   0  0  0  0  0  0  0  0  0  0  0  0
   21.0141  -14.2434  -19.5579 C   0  0  0  0  0  0  0  0  0  0  0  0
   20.9477  -14.1124  -18.0275 C   0  0  2  0  0  0  0  0  0  0  0  0
   20.6514  -15.4545  -17.5262 N   0  0  0  0  0  0  0  0  0  0  0  0
   19.8352  -13.1925  -17.6723 C   0  0  0  0  0  0  0  0  0  0  0  0
   18.6325  -13.6226  -17.7304 O   0  0  0  0  0  0  0  0  0  0  0  0
   17.2531   -9.1065  -15.6992 N   0  0  0  0  0  0  0  0  0  0  0  0
   17.9367  -10.0440  -14.8561 C   0  0  0  0  0  0  0  0  0  0  0  0
   17.6505  -10.0224  -13.6418 O   0  0  0  0  0  0  0  0  0  0  0  0
   18.9243  -10.9774  -15.4167 C   0  0  0  0  0  0  0  0  0  0  0  0
   19.0024  -10.9450  -16.9101 C   0  0  2  0  0  0  0  0  0  0  0  0
   20.0879  -11.8670  -17.2774 N   0  0  0  0  0  0  0  0  0  0  0  0
   19.3034   -9.6139  -17.4782 C   0  0  0  0  0  0  0  0  0  0  0  0
   20.4769   -9.4947  -18.2435 O   0  0  0  0  0  0  0  0  0  0  0  0
   18.6262   -8.5844  -17.3500 O   0  0  0  0  0  0  0  0  0  0  0  0
  1  2  1  0
  2  3  1  0
  3  4  1  6
  5  3  1  0
  5  6  1  1
  7  8  2  0
  7  5  1  0
 10  9  1  0
 10 12  1  0
 11 10  2  0
 13 12  1  6
 13 14  1  0
 14  7  1  0
 15 22  1  0
 15 13  1  0
 16 15  2  0
 18 17  1  0
 19 18  2  0
 20 18  1  0
 21 22  1  0
 21 20  1  1
 23 21  1  0
 24 23  1  0
 25 23  2  0
M  END
$$$$
