INN.pdb
     RDKit          3D

 25 24  0  0  1  0  0  0  0  0999 V2000
   15.6137  -13.9783  -17.4781 C   0  0  0  0  0  0  0  0  0  0  0  0
   16.6580  -13.5368  -16.4891 C   0  0  0  0  0  0  0  0  0  0  0  0
   17.8346  -12.8508  -17.1441 C   0  0  2  0  0  0  0  0  0  0  0  0
   18.5268  -13.7396  -18.1422 C   0  0  0  0  0  0  0  0  0  0  0  0
   18.7611  -12.3933  -16.0396 C   0  0  2  0  0  0  0  0  0  0  0  0
   18.0012  -11.5960  -15.1227 N   0  0  0  0  0  0  0  0  0  0  0  0
   19.9069  -11.6123  -16.5431 C   0  0  0  0  0  0  0  0  0  0  0  0
   20.7148  -12.1457  -17.3370 O   0  0  0  0  0  0  0  0  0  0  0  0
   23.0065  -10.8253  -18.3898 N   0  0  0  0  0  0  0  0  0  0  0  0
   21.9442  -10.1683  -19.0308 C   0  0  0  0  0  0  0  0  0  0  0  0
   21.8303  -10.1996  -20.2929 O   0  0  0  0  0  0  0  0  0  0  0  0
   20.9470   -9.4327  -18.2396 C   0  0  0  0  0  0  0  0  0  0  0  0
   21.2458   -9.5313  -16.7347 C   0  0  2  0  0  0  0  0  0  0  0  0
   20.1234  -10.2686  -16.1541 N   0  0  0  0  0  0  0  0  0  0  0  0
   21.2882   -8.1597  -16.1629 C   0  0  0  0  0  0  0  0  0  0  0  0
   22.2005   -7.3532  -16.5532 O   0  0  0  0  0  0  0  0  0  0  0  0
   20.8724   -3.9775  -13.2799 N   0  0  0  0  0  0  0  0  0  0  0  0
   21.9811   -4.8486  -13.5425 C   0  0  0  0  0  0  0  0  0  0  0  0
   23.1103   -4.4419  -13.2008 O   0  0  0  0  0  0  0  0  0  0  0  0
   21.7747   -6.1545  -14.1850 C   0  0  0  0  0  0  0  0  0  0  0  0
   20.3670   -6.3886  -14.6330 C   0  0  2  0  0  0  0  0  0  0  0  0
   20.3460   -7.7430  -15.2063 N   0  0  0  0  0  0  0  0  0  0  0  0
   19.8844   -5.4371  -15.6561 C   0  0  0  0  0  0  0  0  0  0  0  0
   19.1182   -4.3472  -15.2064 O   0  0  0  0  0  0  0  0  0  0  0  0
   20.0847   -5.4990  -16.8772 O   0  0  0  0  0  0  0  0  0  0  0  0
  1  2  1  0
  2  3  1  0
  3  4  1  6
  5  3  1  0
  5  6  1  1
  7  8  2  0
  7  5  1  0
 10  9  1  0
 10 12  1  0
 11 10  2  0
 13 12  1  6
 13 14  1  0
 14  7  1  0
 15 22  1  0
 15 13  1  0
 16 15  2  0
 18 17  1  0
 19 18  2  0
 20 18  1  0
 21 22  1  0
 21 20  1  6
 23 21  1  0
 24 23  1  0
 25 23  2  0
M  END
$$$$
