LVD.pdb
     RDKit          3D

 24 23  0  0  1  0  0  0  0  0999 V2000
   28.7286  -17.9639  -16.2626 C   0  0  0  0  0  0  0  0  0  0  0  0
   27.9496  -18.9438  -17.0823 C   0  0  2  0  0  0  0  0  0  0  0  0
   27.3257  -18.2101  -18.2477 C   0  0  0  0  0  0  0  0  0  0  0  0
   26.9322  -19.7133  -16.2874 C   0  0  0  0  0  0  0  0  0  0  0  0
   27.6569  -20.4514  -15.1689 C   0  0  2  0  0  0  0  0  0  0  0  0
   28.4857  -21.4708  -15.7406 N   0  0  0  0  0  0  0  0  0  0  0  0
   26.6582  -21.0280  -14.2081 C   0  0  0  0  0  0  0  0  0  0  0  0
   26.2102  -22.1854  -14.3977 O   0  0  0  0  0  0  0  0  0  0  0  0
   26.7379  -21.1145  -10.2616 C   0  0  0  0  0  0  0  0  0  0  0  0
   25.4638  -20.3891  -10.7772 C   0  0  2  0  0  0  0  0  0  0  0  0
   24.3838  -20.8383   -9.8322 C   0  0  0  0  0  0  0  0  0  0  0  0
   25.1840  -20.8395  -12.1734 C   0  0  2  0  0  0  0  0  0  0  0  0
   26.2004  -20.3066  -13.0866 N   0  0  0  0  0  0  0  0  0  0  0  0
   23.8268  -20.4124  -12.6646 C   0  0  0  0  0  0  0  0  0  0  0  0
   23.5885  -19.1805  -12.8325 O   0  0  0  0  0  0  0  0  0  0  0  0
   22.8113  -21.3293  -12.9499 N   0  0  0  0  0  0  0  0  0  0  0  0
   21.4933  -21.0602  -13.4382 C   0  0  1  0  0  0  0  0  0  0  0  0
   20.9671  -22.0437  -14.4686 C   0  0  0  0  0  0  0  0  0  0  0  0
   19.6810  -21.5541  -15.0375 C   0  0  0  0  0  0  0  0  0  0  0  0
   19.2211  -20.4441  -14.6163 O   0  0  0  0  0  0  0  0  0  0  0  0
   20.5302  -20.8175  -12.3761 C   0  0  0  0  0  0  0  0  0  0  0  0
   20.3893  -21.5670  -11.3660 O   0  0  0  0  0  0  0  0  0  0  0  0
   18.9668  -22.2317  -15.9878 O   0  0  0  0  0  0  0  0  0  0  0  0
   19.6977  -19.7093  -12.4360 O   0  0  0  0  0  0  0  0  0  0  0  0
  2  1  1  1
  2  3  1  0
  4  5  1  0
  4  2  1  0
  5  7  1  0
  5  6  1  6
  7 13  1  0
  8  7  2  0
 10 11  1  1
 10  9  1  0
 12 10  1  0
 12 13  1  6
 14 12  1  0
 14 16  1  0
 15 14  2  0
 17 16  1  0
 17 21  1  0
 17 18  1  1
 19 18  1  0
 20 19  2  0
 21 22  2  0
 21 24  1  0
 23 19  1  0
M  END
$$$$
