LVD.pdb
     RDKit          3D

 24 23  0  0  1  0  0  0  0  0999 V2000
   22.8907  -22.7055   -8.9806 C   0  0  0  0  0  0  0  0  0  0  0  0
   22.8824  -21.2561   -8.6088 C   0  0  2  0  0  0  0  0  0  0  0  0
   21.4798  -20.8720   -8.1953 C   0  0  0  0  0  0  0  0  0  0  0  0
   23.4206  -20.3587   -9.6877 C   0  0  0  0  0  0  0  0  0  0  0  0
   24.8202  -20.8361  -10.0537 C   0  0  2  0  0  0  0  0  0  0  0  0
   25.6882  -20.6485   -8.9292 N   0  0  0  0  0  0  0  0  0  0  0  0
   25.3134  -20.0919  -11.2603 C   0  0  0  0  0  0  0  0  0  0  0  0
   25.6013  -18.8736  -11.1641 O   0  0  0  0  0  0  0  0  0  0  0  0
   28.3717  -20.3839  -13.0750 C   0  0  0  0  0  0  0  0  0  0  0  0
   27.2685  -20.6567  -14.1351 C   0  0  2  0  0  0  0  0  0  0  0  0
   27.7960  -20.0041  -15.3830 C   0  0  0  0  0  0  0  0  0  0  0  0
   25.9972  -20.0156  -13.6842 C   0  0  2  0  0  0  0  0  0  0  0  0
   25.4666  -20.7208  -12.5128 N   0  0  0  0  0  0  0  0  0  0  0  0
   24.9388  -19.9998  -14.7544 C   0  0  0  0  0  0  0  0  0  0  0  0
   24.3491  -21.0780  -15.0580 O   0  0  0  0  0  0  0  0  0  0  0  0
   24.5741  -18.8315  -15.4293 N   0  0  0  0  0  0  0  0  0  0  0  0
   23.4627  -18.6328  -16.3086 C   0  0  1  0  0  0  0  0  0  0  0  0
   22.6658  -17.3616  -16.0740 C   0  0  0  0  0  0  0  0  0  0  0  0
   21.5070  -17.3010  -17.0072 C   0  0  0  0  0  0  0  0  0  0  0  0
   21.6465  -16.6595  -18.0981 O   0  0  0  0  0  0  0  0  0  0  0  0
   23.8061  -18.8088  -17.7106 C   0  0  0  0  0  0  0  0  0  0  0  0
   24.8443  -18.3252  -18.2493 O   0  0  0  0  0  0  0  0  0  0  0  0
   20.3010  -17.8968  -16.7564 O   0  0  0  0  0  0  0  0  0  0  0  0
   22.9725  -19.5441  -18.5408 O   0  0  0  0  0  0  0  0  0  0  0  0
  2  1  1  6
  2  3  1  0
  4  5  1  0
  4  2  1  0
  5  7  1  0
  5  6  1  1
  7 13  1  0
  8  7  2  0
 10 11  1  6
 10  9  1  0
 12 10  1  0
 12 13  1  1
 14 12  1  0
 14 16  1  0
 15 14  2  0
 17 16  1  0
 17 21  1  0
 17 18  1  6
 19 18  1  0
 20 19  2  0
 21 22  2  0
 21 24  1  0
 23 19  1  0
M  END
$$$$
