LVD.pdb
     RDKit          3D

 24 23  0  0  1  0  0  0  0  0999 V2000
   28.1320  -24.2909  -18.5121 C   0  0  0  0  0  0  0  0  0  0  0  0
   27.7726  -24.4754  -17.0713 C   0  0  2  0  0  0  0  0  0  0  0  0
   27.0767  -25.8085  -16.9144 C   0  0  0  0  0  0  0  0  0  0  0  0
   26.9609  -23.3431  -16.5075 C   0  0  0  0  0  0  0  0  0  0  0  0
   27.8607  -22.1190  -16.3939 C   0  0  2  0  0  0  0  0  0  0  0  0
   29.0247  -22.4624  -15.6322 N   0  0  0  0  0  0  0  0  0  0  0  0
   27.1038  -20.9867  -15.7630 C   0  0  0  0  0  0  0  0  0  0  0  0
   26.9432  -20.9641  -14.5181 O   0  0  0  0  0  0  0  0  0  0  0  0
   27.7733  -17.3682  -16.0360 C   0  0  0  0  0  0  0  0  0  0  0  0
   26.2781  -17.5281  -16.4286 C   0  0  2  0  0  0  0  0  0  0  0  0
   25.5953  -16.3868  -15.7270 C   0  0  0  0  0  0  0  0  0  0  0  0
   25.7857  -18.8456  -15.9261 C   0  0  2  0  0  0  0  0  0  0  0  0
   26.5607  -19.9350  -16.5290 N   0  0  0  0  0  0  0  0  0  0  0  0
   24.3273  -19.0751  -16.2196 C   0  0  0  0  0  0  0  0  0  0  0  0
   23.9788  -20.1168  -16.8488 O   0  0  0  0  0  0  0  0  0  0  0  0
   23.3327  -18.1791  -15.8176 N   0  0  0  0  0  0  0  0  0  0  0  0
   22.0007  -18.4767  -15.3877 C   0  0  1  0  0  0  0  0  0  0  0  0
   21.8902  -19.4978  -14.2691 C   0  0  0  0  0  0  0  0  0  0  0  0
   20.4607  -19.8253  -14.0107 C   0  0  0  0  0  0  0  0  0  0  0  0
   19.7083  -20.0632  -15.0098 O   0  0  0  0  0  0  0  0  0  0  0  0
   21.2091  -17.2869  -15.1185 C   0  0  0  0  0  0  0  0  0  0  0  0
   19.9887  -17.3117  -14.7840 O   0  0  0  0  0  0  0  0  0  0  0  0
   19.9120  -19.8844  -12.7586 O   0  0  0  0  0  0  0  0  0  0  0  0
   21.7890  -16.0309  -15.2235 O   0  0  0  0  0  0  0  0  0  0  0  0
  2  1  1  6
  2  3  1  0
  4  5  1  0
  4  2  1  0
  5  7  1  0
  5  6  1  1
  7 13  1  0
  8  7  2  0
 10 11  1  1
 10  9  1  0
 12 10  1  0
 12 13  1  6
 14 12  1  0
 14 16  1  0
 15 14  2  0
 17 16  1  0
 17 21  1  0
 17 18  1  1
 19 18  1  0
 20 19  2  0
 21 22  2  0
 21 24  1  0
 23 19  1  0
M  END
$$$$
