LVD.pdb
     RDKit          3D

 24 23  0  0  1  0  0  0  0  0999 V2000
   15.9067  -10.5269  -11.3209 C   0  0  0  0  0  0  0  0  0  0  0  0
   16.3433  -11.2257  -12.5699 C   0  0  2  0  0  0  0  0  0  0  0  0
   17.2123  -12.4020  -12.1863 C   0  0  0  0  0  0  0  0  0  0  0  0
   17.0223  -10.3181  -13.5569 C   0  0  0  0  0  0  0  0  0  0  0  0
   15.9765   -9.3752  -14.1385 C   0  0  2  0  0  0  0  0  0  0  0  0
   15.0768  -10.1252  -14.9637 N   0  0  0  0  0  0  0  0  0  0  0  0
   16.6514   -8.2806  -14.9127 C   0  0  0  0  0  0  0  0  0  0  0  0
   17.1256   -8.5249  -16.0493 O   0  0  0  0  0  0  0  0  0  0  0  0
   15.4678   -5.3880  -16.6086 C   0  0  0  0  0  0  0  0  0  0  0  0
   16.4105   -4.8404  -15.5010 C   0  0  2  0  0  0  0  0  0  0  0  0
   17.0661   -3.6477  -16.1405 C   0  0  0  0  0  0  0  0  0  0  0  0
   17.4143   -5.8919  -15.1586 C   0  0  2  0  0  0  0  0  0  0  0  0
   16.7726   -6.9721  -14.4021 N   0  0  0  0  0  0  0  0  0  0  0  0
   18.5666   -5.3589  -14.3500 C   0  0  0  0  0  0  0  0  0  0  0  0
   18.3312   -4.7258  -13.2793 O   0  0  0  0  0  0  0  0  0  0  0  0
   19.8981   -5.5405  -14.7341 N   0  0  0  0  0  0  0  0  0  0  0  0
   21.0800   -5.2151  -13.9958 C   0  0  1  0  0  0  0  0  0  0  0  0
   22.2579   -6.1499  -14.2070 C   0  0  0  0  0  0  0  0  0  0  0  0
   21.8248   -7.5663  -14.0532 C   0  0  0  0  0  0  0  0  0  0  0  0
   21.1908   -7.8899  -12.9977 O   0  0  0  0  0  0  0  0  0  0  0  0
   21.4644   -3.8183  -14.1214 C   0  0  0  0  0  0  0  0  0  0  0  0
   21.0970   -3.0677  -15.0719 O   0  0  0  0  0  0  0  0  0  0  0  0
   22.0711   -8.5385  -14.9840 O   0  0  0  0  0  0  0  0  0  0  0  0
   22.2815   -3.2360  -13.1632 O   0  0  0  0  0  0  0  0  0  0  0  0
  2  1  1  1
  2  3  1  0
  4  5  1  0
  4  2  1  0
  5  7  1  0
  5  6  1  6
  7 13  1  0
  8  7  2  0
 10 11  1  6
 10  9  1  0
 12 10  1  0
 12 13  1  1
 14 12  1  0
 14 16  1  0
 15 14  2  0
 17 16  1  0
 17 21  1  0
 17 18  1  6
 19 18  1  0
 20 19  2  0
 21 22  2  0
 21 24  1  0
 23 19  1  0
M  END
$$$$
