LVD.pdb
     RDKit          3D

 24 23  0  0  1  0  0  0  0  0999 V2000
   17.9673  -11.9359  -18.9084 C   0  0  0  0  0  0  0  0  0  0  0  0
   17.5267  -12.3729  -17.5468 C   0  0  2  0  0  0  0  0  0  0  0  0
   16.0285  -12.1967  -17.4447 C   0  0  0  0  0  0  0  0  0  0  0  0
   18.2558  -11.6789  -16.4307 C   0  0  0  0  0  0  0  0  0  0  0  0
   19.7505  -11.9016  -16.6239 C   0  0  2  0  0  0  0  0  0  0  0  0
   20.0687  -13.2588  -16.2928 N   0  0  0  0  0  0  0  0  0  0  0  0
   20.5238  -10.9324  -15.7779 C   0  0  0  0  0  0  0  0  0  0  0  0
   20.4767  -11.0247  -14.5267 O   0  0  0  0  0  0  0  0  0  0  0  0
   23.9991  -10.5192  -15.2821 C   0  0  0  0  0  0  0  0  0  0  0  0
   23.5410   -9.1278  -15.8011 C   0  0  2  0  0  0  0  0  0  0  0  0
   24.3567   -8.1544  -14.9959 C   0  0  0  0  0  0  0  0  0  0  0  0
   22.0814   -8.9677  -15.5281 C   0  0  2  0  0  0  0  0  0  0  0  0
   21.3107   -9.9099  -16.3462 N   0  0  0  0  0  0  0  0  0  0  0  0
   21.5843   -7.5742  -15.8049 C   0  0  0  0  0  0  0  0  0  0  0  0
   21.6068   -7.1330  -16.9912 O   0  0  0  0  0  0  0  0  0  0  0  0
   21.0898   -6.7417  -14.7969 N   0  0  0  0  0  0  0  0  0  0  0  0
   20.5763   -5.4122  -14.9256 C   0  0  1  0  0  0  0  0  0  0  0  0
   19.2752   -5.1426  -14.1905 C   0  0  0  0  0  0  0  0  0  0  0  0
   18.7968   -3.7626  -14.4803 C   0  0  0  0  0  0  0  0  0  0  0  0
   19.4376   -3.0714  -15.3362 O   0  0  0  0  0  0  0  0  0  0  0  0
   21.5735   -4.3875  -14.6605 C   0  0  0  0  0  0  0  0  0  0  0  0
   22.2570   -4.3259  -13.5972 O   0  0  0  0  0  0  0  0  0  0  0  0
   17.7067   -3.1969  -13.8770 O   0  0  0  0  0  0  0  0  0  0  0  0
   21.8203   -3.4008  -15.6041 O   0  0  0  0  0  0  0  0  0  0  0  0
  2  1  1  6
  2  3  1  0
  4  5  1  0
  4  2  1  0
  5  7  1  0
  5  6  1  1
  7 13  1  0
  8  7  2  0
 10 11  1  1
 10  9  1  0
 12 10  1  0
 12 13  1  6
 14 12  1  0
 14 16  1  0
 15 14  2  0
 17 16  1  0
 17 21  1  0
 17 18  1  1
 19 18  1  0
 20 19  2  0
 21 22  2  0
 21 24  1  0
 23 19  1  0
M  END
$$$$
