LVD.pdb
     RDKit          3D

 24 23  0  0  1  0  0  0  0  0999 V2000
   24.4233  -13.7966  -15.0503 C   0  0  0  0  0  0  0  0  0  0  0  0
   24.5338  -13.5001  -16.5128 C   0  0  2  0  0  0  0  0  0  0  0  0
   25.9940  -13.3165  -16.8591 C   0  0  0  0  0  0  0  0  0  0  0  0
   23.6966  -12.3313  -16.9511 C   0  0  0  0  0  0  0  0  0  0  0  0
   22.2338  -12.6633  -16.6844 C   0  0  2  0  0  0  0  0  0  0  0  0
   21.8438  -13.7627  -17.5163 N   0  0  0  0  0  0  0  0  0  0  0  0
   21.3824  -11.4530  -16.9360 C   0  0  0  0  0  0  0  0  0  0  0  0
   21.3627  -10.9339  -18.0789 O   0  0  0  0  0  0  0  0  0  0  0  0
   17.8434  -11.0569  -17.0203 C   0  0  0  0  0  0  0  0  0  0  0  0
   18.3082  -10.0622  -15.9204 C   0  0  2  0  0  0  0  0  0  0  0  0
   17.4102   -8.8706  -16.1067 C   0  0  0  0  0  0  0  0  0  0  0  0
   19.7381   -9.7066  -16.1647 C   0  0  2  0  0  0  0  0  0  0  0  0
   20.5945  -10.8721  -15.9214 N   0  0  0  0  0  0  0  0  0  0  0  0
   20.2146   -8.5720  -15.2979 C   0  0  0  0  0  0  0  0  0  0  0  0
   21.0622   -8.8028  -14.3864 O   0  0  0  0  0  0  0  0  0  0  0  0
   19.7588   -7.2611  -15.4633 N   0  0  0  0  0  0  0  0  0  0  0  0
   20.2797   -6.0664  -14.8724 C   0  0  1  0  0  0  0  0  0  0  0  0
   21.7887   -5.9106  -14.9403 C   0  0  0  0  0  0  0  0  0  0  0  0
   22.2168   -4.7073  -14.1748 C   0  0  0  0  0  0  0  0  0  0  0  0
   22.4600   -3.6382  -14.8220 O   0  0  0  0  0  0  0  0  0  0  0  0
   19.5884   -4.8647  -15.3114 C   0  0  0  0  0  0  0  0  0  0  0  0
   19.2114   -4.6624  -16.5025 O   0  0  0  0  0  0  0  0  0  0  0  0
   22.3633   -4.6879  -12.8145 O   0  0  0  0  0  0  0  0  0  0  0  0
   19.3062   -3.8565  -14.4011 O   0  0  0  0  0  0  0  0  0  0  0  0
  2  1  1  1
  2  3  1  0
  4  5  1  0
  4  2  1  0
  5  7  1  0
  5  6  1  6
  7 13  1  0
  8  7  2  0
 10 11  1  6
 10  9  1  0
 12 10  1  0
 12 13  1  1
 14 12  1  0
 14 16  1  0
 15 14  2  0
 17 16  1  0
 17 21  1  0
 17 18  1  6
 19 18  1  0
 20 19  2  0
 21 22  2  0
 21 24  1  0
 23 19  1  0
M  END
$$$$
