LVD.pdb
     RDKit          3D

 24 23  0  0  1  0  0  0  0  0999 V2000
   19.2869  -14.2946  -20.7623 C   0  0  0  0  0  0  0  0  0  0  0  0
   18.2567  -14.5233  -19.7015 C   0  0  2  0  0  0  0  0  0  0  0  0
   16.9201  -14.0366  -20.2137 C   0  0  0  0  0  0  0  0  0  0  0  0
   18.6142  -13.9076  -18.3778 C   0  0  0  0  0  0  0  0  0  0  0  0
   19.9845  -14.4277  -17.9623 C   0  0  2  0  0  0  0  0  0  0  0  0
   19.8781  -15.8184  -17.6341 N   0  0  0  0  0  0  0  0  0  0  0  0
   20.5041  -13.6266  -16.8041 C   0  0  0  0  0  0  0  0  0  0  0  0
   19.9856  -13.7670  -15.6693 O   0  0  0  0  0  0  0  0  0  0  0  0
   23.8549  -13.3682  -15.1649 C   0  0  0  0  0  0  0  0  0  0  0  0
   23.4980  -11.9508  -15.6932 C   0  0  2  0  0  0  0  0  0  0  0  0
   23.9973  -11.0268  -14.6170 C   0  0  0  0  0  0  0  0  0  0  0  0
   22.0157  -11.8525  -15.8470 C   0  0  2  0  0  0  0  0  0  0  0  0
   21.5666  -12.7112  -16.9479 N   0  0  0  0  0  0  0  0  0  0  0  0
   21.5476  -10.4470  -16.1135 C   0  0  0  0  0  0  0  0  0  0  0  0
   21.8923   -9.8727  -17.1877 O   0  0  0  0  0  0  0  0  0  0  0  0
   20.7363   -9.7455  -15.2172 N   0  0  0  0  0  0  0  0  0  0  0  0
   20.2267   -8.4146  -15.3467 C   0  0  1  0  0  0  0  0  0  0  0  0
   18.7323   -8.2647  -15.1221 C   0  0  0  0  0  0  0  0  0  0  0  0
   18.3177   -6.8518  -15.3439 C   0  0  0  0  0  0  0  0  0  0  0  0
   18.1443   -6.1090  -14.3246 O   0  0  0  0  0  0  0  0  0  0  0  0
   20.9914   -7.4351  -14.5915 C   0  0  0  0  0  0  0  0  0  0  0  0
   21.4846   -7.6547  -13.4468 O   0  0  0  0  0  0  0  0  0  0  0  0
   18.1129   -6.3086  -16.5830 O   0  0  0  0  0  0  0  0  0  0  0  0
   21.2162   -6.1732  -15.1223 O   0  0  0  0  0  0  0  0  0  0  0  0
  2  1  1  6
  2  3  1  0
  4  5  1  0
  4  2  1  0
  5  7  1  0
  5  6  1  1
  7 13  1  0
  8  7  2  0
 10 11  1  1
 10  9  1  0
 12 10  1  0
 12 13  1  6
 14 12  1  0
 14 16  1  0
 15 14  2  0
 17 16  1  0
 17 21  1  0
 17 18  1  1
 19 18  1  0
 20 19  2  0
 21 22  2  0
 21 24  1  0
 23 19  1  0
M  END
$$$$
