MKG.pdb
     RDKit          3D

 22 21  0  0  1  0  0  0  0  0999 V2000
    7.3121  -11.3488   27.1422 C   0  0  0  0  0  0  0  0  0  0  0  0
    6.5248  -12.9800   27.0759 S   0  0  0  0  0  0  0  0  0  0  0  0
    6.1222  -13.4393   25.3908 C   0  0  0  0  0  0  0  0  0  0  0  0
    7.3140  -13.4740   24.4724 C   0  0  0  0  0  0  0  0  0  0  0  0
    7.6213  -14.8240   23.9078 C   0  0  2  0  0  0  0  0  0  0  0  0
    6.7994  -15.8919   24.3686 N   0  0  0  0  0  0  0  0  0  0  0  0
    9.0720  -15.1509   24.0086 C   0  0  0  0  0  0  0  0  0  0  0  0
    9.9670  -14.3094   23.7380 O   0  0  0  0  0  0  0  0  0  0  0  0
    9.4973  -16.4368   24.4178 N   0  0  0  0  0  0  0  0  0  0  0  0
   10.9425  -16.7895   24.4806 C   0  0  1  0  0  0  0  0  0  0  0  0
   11.1105  -17.7515   25.6461 C   0  0  0  0  0  0  0  0  0  0  0  0
   11.1124  -17.1060   26.9865 C   0  0  0  0  0  0  0  0  0  0  0  0
   11.2416  -18.1369   28.1084 C   0  0  0  0  0  0  0  0  0  0  0  0
   11.1594  -17.4413   29.4200 C   0  0  0  0  0  0  0  0  0  0  0  0
   11.2557  -18.4137   30.4895 N   0  0  0  0  0  0  0  0  0  0  0  0
   11.2735  -17.4510   23.2138 C   0  0  0  0  0  0  0  0  0  0  0  0
   12.0303  -18.4563   23.2158 O   0  0  0  0  0  0  0  0  0  0  0  0
   10.7621  -16.9961   21.9734 N   0  0  0  0  0  0  0  0  0  0  0  0
   11.6322  -16.4060   20.9492 C   0  0  0  0  0  0  0  0  0  0  0  0
   12.7092  -17.3578   20.6533 C   0  0  0  0  0  0  0  0  0  0  0  0
   12.4499  -18.5292   19.9561 O   0  0  0  0  0  0  0  0  0  0  0  0
   13.9086  -17.1322   21.0292 O   0  0  0  0  0  0  0  0  0  0  0  0
  2  1  1  0
  3  2  1  0
  4  3  1  0
  4  5  1  0
  5  7  1  0
  5  6  1  1
  7  8  2  0
  9 10  1  0
  9  7  1  0
 10 11  1  1
 11 12  1  0
 13 12  1  0
 13 14  1  0
 14 15  1  0
 16 17  2  0
 16 10  1  0
 18 16  1  0
 19 18  1  0
 20 19  1  0
 21 20  1  0
 22 20  2  0
M  END
$$$$
