MKG.pdb
     RDKit          3D

 22 21  0  0  1  0  0  0  0  0999 V2000
    7.0743  -11.2457   26.1608 C   0  0  0  0  0  0  0  0  0  0  0  0
    6.5441  -12.1784   27.6216 S   0  0  0  0  0  0  0  0  0  0  0  0
    6.1325  -13.8707   27.1981 C   0  0  0  0  0  0  0  0  0  0  0  0
    7.0776  -14.4925   26.2055 C   0  0  0  0  0  0  0  0  0  0  0  0
    6.6646  -15.8455   25.7213 C   0  0  2  0  0  0  0  0  0  0  0  0
    6.5192  -16.8466   26.7238 N   0  0  0  0  0  0  0  0  0  0  0  0
    7.5096  -16.3104   24.5848 C   0  0  0  0  0  0  0  0  0  0  0  0
    8.2155  -17.3488   24.6580 O   0  0  0  0  0  0  0  0  0  0  0  0
    7.5465  -15.5890   23.3683 N   0  0  0  0  0  0  0  0  0  0  0  0
    8.2805  -16.1102   22.1824 C   0  0  1  0  0  0  0  0  0  0  0  0
    7.8992  -15.2264   21.0052 C   0  0  0  0  0  0  0  0  0  0  0  0
    8.5238  -15.6141   19.7119 C   0  0  0  0  0  0  0  0  0  0  0  0
    7.9059  -16.8947   19.1491 C   0  0  0  0  0  0  0  0  0  0  0  0
    8.5872  -17.2439   17.8744 C   0  0  0  0  0  0  0  0  0  0  0  0
    7.9601  -18.4151   17.2966 N   0  0  0  0  0  0  0  0  0  0  0  0
    9.7115  -15.9843   22.4797 C   0  0  0  0  0  0  0  0  0  0  0  0
   10.1555  -14.9086   22.9585 O   0  0  0  0  0  0  0  0  0  0  0  0
   10.6223  -17.0447   22.2488 N   0  0  0  0  0  0  0  0  0  0  0  0
   11.9887  -17.0193   22.7844 C   0  0  0  0  0  0  0  0  0  0  0  0
   12.9094  -16.7005   21.6872 C   0  0  0  0  0  0  0  0  0  0  0  0
   13.7061  -15.5654   21.7360 O   0  0  0  0  0  0  0  0  0  0  0  0
   13.0000  -17.4577   20.6630 O   0  0  0  0  0  0  0  0  0  0  0  0
  2  1  1  0
  3  2  1  0
  4  3  1  0
  4  5  1  0
  5  7  1  0
  5  6  1  1
  7  8  2  0
  9 10  1  0
  9  7  1  0
 10 11  1  6
 11 12  1  0
 13 12  1  0
 13 14  1  0
 14 15  1  0
 16 17  2  0
 16 10  1  0
 18 16  1  0
 19 18  1  0
 20 19  1  0
 21 20  1  0
 22 20  2  0
M  END
$$$$
