MKG.pdb
     RDKit          3D

 22 21  0  0  1  0  0  0  0  0999 V2000
    7.5152  -11.1222   19.8814 C   0  0  0  0  0  0  0  0  0  0  0  0
    7.3019  -12.5218   18.7496 S   0  0  0  0  0  0  0  0  0  0  0  0
    6.7665  -13.9907   19.6261 C   0  0  0  0  0  0  0  0  0  0  0  0
    7.3676  -14.1282   20.9990 C   0  0  0  0  0  0  0  0  0  0  0  0
    7.8771  -15.4975   21.3173 C   0  0  2  0  0  0  0  0  0  0  0  0
    6.9775  -16.5708   21.0586 N   0  0  0  0  0  0  0  0  0  0  0  0
    8.4546  -15.5699   22.6895 C   0  0  0  0  0  0  0  0  0  0  0  0
    9.1567  -14.6429   23.1688 O   0  0  0  0  0  0  0  0  0  0  0  0
    8.2294  -16.6999   23.5106 N   0  0  0  0  0  0  0  0  0  0  0  0
    9.0518  -16.9482   24.7267 C   0  0  1  0  0  0  0  0  0  0  0  0
    8.3802  -18.0797   25.4888 C   0  0  0  0  0  0  0  0  0  0  0  0
    8.9849  -18.3775   26.8150 C   0  0  0  0  0  0  0  0  0  0  0  0
    8.2871  -19.5521   27.5018 C   0  0  0  0  0  0  0  0  0  0  0  0
    8.9954  -19.8637   28.7714 C   0  0  0  0  0  0  0  0  0  0  0  0
    8.2976  -20.9266   29.4656 N   0  0  0  0  0  0  0  0  0  0  0  0
   10.3823  -17.3567   24.2633 C   0  0  0  0  0  0  0  0  0  0  0  0
   10.6100  -18.5693   24.0155 O   0  0  0  0  0  0  0  0  0  0  0  0
   11.4320  -16.4234   24.0778 N   0  0  0  0  0  0  0  0  0  0  0  0
   12.2914  -15.9972   25.1888 C   0  0  0  0  0  0  0  0  0  0  0  0
   13.4850  -16.8508   25.2037 C   0  0  0  0  0  0  0  0  0  0  0  0
   14.1453  -17.1686   24.0253 O   0  0  0  0  0  0  0  0  0  0  0  0
   13.9442  -17.3210   26.2984 O   0  0  0  0  0  0  0  0  0  0  0  0
  2  1  1  0
  3  2  1  0
  4  3  1  0
  4  5  1  0
  5  7  1  0
  5  6  1  1
  7  8  2  0
  9 10  1  0
  9  7  1  0
 10 11  1  1
 11 12  1  0
 13 12  1  0
 13 14  1  0
 14 15  1  0
 16 17  2  0
 16 10  1  0
 18 16  1  0
 19 18  1  0
 20 19  1  0
 21 20  1  0
 22 20  2  0
M  END
$$$$
