MKG.pdb
     RDKit          3D

 22 21  0  0  1  0  0  0  0  0999 V2000
    8.3323  -11.7326   20.1782 C   0  0  0  0  0  0  0  0  0  0  0  0
    6.9307  -12.8806   20.2310 S   0  0  0  0  0  0  0  0  0  0  0  0
    7.4831  -14.5844   20.1612 C   0  0  0  0  0  0  0  0  0  0  0  0
    8.7791  -14.8299   20.8857 C   0  0  0  0  0  0  0  0  0  0  0  0
    9.2920  -16.2304   20.7796 C   0  0  2  0  0  0  0  0  0  0  0  0
    8.3176  -17.2605   20.9120 N   0  0  0  0  0  0  0  0  0  0  0  0
   10.4709  -16.4584   21.6626 C   0  0  0  0  0  0  0  0  0  0  0  0
   11.5283  -15.7864   21.5524 O   0  0  0  0  0  0  0  0  0  0  0  0
   10.4397  -17.4526   22.6688 N   0  0  0  0  0  0  0  0  0  0  0  0
   11.6560  -17.7932   23.4572 C   0  0  1  0  0  0  0  0  0  0  0  0
   11.1964  -18.6465   24.6289 C   0  0  0  0  0  0  0  0  0  0  0  0
   12.2592  -18.9582   25.6221 C   0  0  0  0  0  0  0  0  0  0  0  0
   11.7239  -19.8145   26.7704 C   0  0  0  0  0  0  0  0  0  0  0  0
   12.8168  -20.0526   27.7500 C   0  0  0  0  0  0  0  0  0  0  0  0
   12.3177  -20.8610   28.8437 N   0  0  0  0  0  0  0  0  0  0  0  0
   12.5344  -18.5642   22.5707 C   0  0  0  0  0  0  0  0  0  0  0  0
   12.6219  -19.8115   22.7123 O   0  0  0  0  0  0  0  0  0  0  0  0
   13.2937  -17.9484   21.5453 N   0  0  0  0  0  0  0  0  0  0  0  0
   14.5514  -17.2475   21.8307 C   0  0  0  0  0  0  0  0  0  0  0  0
   15.6349  -18.2366   21.8624 C   0  0  0  0  0  0  0  0  0  0  0  0
   15.8817  -18.9831   23.0058 O   0  0  0  0  0  0  0  0  0  0  0  0
   16.3757  -18.4342   20.8412 O   0  0  0  0  0  0  0  0  0  0  0  0
  2  1  1  0
  3  2  1  0
  4  3  1  0
  4  5  1  0
  5  7  1  0
  5  6  1  1
  7  8  2  0
  9 10  1  0
  9  7  1  0
 10 11  1  1
 11 12  1  0
 13 12  1  0
 13 14  1  0
 14 15  1  0
 16 17  2  0
 16 10  1  0
 18 16  1  0
 19 18  1  0
 20 19  1  0
 21 20  1  0
 22 20  2  0
M  END
$$$$
