WWP.pdb
     RDKit          3D

 36 40  0  0  1  0  0  0  0  0999 V2000
   11.6900  -17.9153   20.2777 N   0  0  0  0  0  0  0  0  0  0  0  0
   11.3699  -18.2863   21.6411 C   0  0  1  0  0  0  0  0  0  0  0  0
   12.6373  -18.9445   22.1888 C   0  0  0  0  0  0  0  0  0  0  0  0
   12.6423  -20.3401   21.6964 C   0  0  0  0  0  0  0  0  0  0  0  0
   13.3569  -20.8248   20.6101 C   0  0  0  0  0  0  0  0  0  0  0  0
   13.1039  -22.1378   20.4714 N   0  0  0  0  0  0  0  0  0  0  0  0
   12.2445  -22.5122   21.4408 C   0  0  0  0  0  0  0  0  0  0  0  0
   11.6466  -23.7167   21.7842 C   0  0  0  0  0  0  0  0  0  0  0  0
   10.7939  -23.7863   22.8543 C   0  0  0  0  0  0  0  0  0  0  0  0
   10.5053  -22.6662   23.6188 C   0  0  0  0  0  0  0  0  0  0  0  0
   11.0836  -21.4578   23.3016 C   0  0  0  0  0  0  0  0  0  0  0  0
   11.9350  -21.4062   22.2272 C   0  0  0  0  0  0  0  0  0  0  0  0
   10.9874  -17.1391   22.4730 C   0  0  0  0  0  0  0  0  0  0  0  0
   11.6223  -16.0593   22.3402 O   0  0  0  0  0  0  0  0  0  0  0  0
    9.9386  -17.2335   23.3976 N   0  0  0  0  0  0  0  0  0  0  0  0
    9.6165  -16.1113   24.2786 C   0  0  1  0  0  0  0  0  0  0  0  0
    8.2009  -15.7656   24.0127 C   0  0  0  0  0  0  0  0  0  0  0  0
    7.8279  -14.3460   24.1088 C   0  0  0  0  0  0  0  0  0  0  0  0
    8.0736  -13.3635   23.1318 C   0  0  0  0  0  0  0  0  0  0  0  0
    7.6379  -12.1845   23.5654 N   0  0  0  0  0  0  0  0  0  0  0  0
    7.1104  -12.3477   24.7955 C   0  0  0  0  0  0  0  0  0  0  0  0
    6.5200  -11.4772   25.6646 C   0  0  0  0  0  0  0  0  0  0  0  0
    6.0339  -11.8924   26.8715 C   0  0  0  0  0  0  0  0  0  0  0  0
    6.1332  -13.2290   27.2415 C   0  0  0  0  0  0  0  0  0  0  0  0
    6.7252  -14.0867   26.3651 C   0  0  0  0  0  0  0  0  0  0  0  0
    7.2237  -13.6833   25.1395 C   0  0  0  0  0  0  0  0  0  0  0  0
    9.9752  -16.3739   25.6573 C   0  0  0  0  0  0  0  0  0  0  0  0
   10.2386  -17.6373   25.8878 O   0  0  0  0  0  0  0  0  0  0  0  0
   10.0819  -15.5197   26.7546 N   0  0  0  0  0  0  0  0  0  0  0  0
    9.5298  -14.2330   27.0521 C   0  0  0  0  0  0  0  0  0  0  0  0
   10.8252  -13.5187   27.4999 C   0  0  0  0  0  0  0  0  0  0  0  0
   11.2921  -14.5045   28.5501 C   0  0  0  0  0  0  0  0  0  0  0  0
   10.9040  -15.8286   27.9704 C   0  0  1  0  0  0  0  0  0  0  0  0
   10.0734  -16.5570   28.9456 C   0  0  0  0  0  0  0  0  0  0  0  0
   10.6705  -17.1379   30.0424 O   0  0  0  0  0  0  0  0  0  0  0  0
    8.8410  -16.6538   28.7909 O   0  0  0  0  0  0  0  0  0  0  0  0
  2  3  1  0
  2  1  1  6
  4  5  2  0
  4  3  1  0
  6  5  1  0
  7 12  2  0
  7  6  1  0
  8  7  1  0
  9 10  1  0
  9  8  2  0
 10 11  2  0
 11 12  1  0
 12  4  1  0
 13  2  1  0
 14 13  2  0
 15 13  1  0
 16 15  1  0
 16 17  1  1
 18 17  1  0
 19 18  2  0
 20 19  1  0
 21 20  1  0
 21 26  2  0
 22 21  1  0
 23 22  2  0
 23 24  1  0
 24 25  2  0
 25 26  1  0
 26 18  1  0
 27 16  1  0
 27 29  1  0
 28 27  2  0
 29 30  1  0
 30 31  1  0
 32 31  1  0
 33 29  1  0
 33 32  1  0
 33 34  1  1
 35 34  1  0
 36 34  2  0
M  END
$$$$
