WWP.pdb
     RDKit          3D

 36 40  0  0  1  0  0  0  0  0999 V2000
   10.7679  -16.2697   20.0261 N   0  0  0  0  0  0  0  0  0  0  0  0
   10.7709  -17.0336   21.2570 C   0  0  1  0  0  0  0  0  0  0  0  0
   12.2061  -17.5379   21.4159 C   0  0  0  0  0  0  0  0  0  0  0  0
   12.3742  -18.6588   20.4643 C   0  0  0  0  0  0  0  0  0  0  0  0
   12.8571  -18.5684   19.1664 C   0  0  0  0  0  0  0  0  0  0  0  0
   12.8599  -19.7945   18.6150 N   0  0  0  0  0  0  0  0  0  0  0  0
   12.3914  -20.6731   19.5243 C   0  0  0  0  0  0  0  0  0  0  0  0
   12.1764  -22.0443   19.5156 C   0  0  0  0  0  0  0  0  0  0  0  0
   11.6766  -22.6740   20.6250 C   0  0  0  0  0  0  0  0  0  0  0  0
   11.3734  -21.9670   21.7786 C   0  0  0  0  0  0  0  0  0  0  0  0
   11.5761  -20.6059   21.8162 C   0  0  0  0  0  0  0  0  0  0  0  0
   12.0773  -19.9917   20.6966 C   0  0  0  0  0  0  0  0  0  0  0  0
   10.3741  -16.2395   22.4260 C   0  0  0  0  0  0  0  0  0  0  0  0
   10.8155  -15.0648   22.5353 O   0  0  0  0  0  0  0  0  0  0  0  0
    9.5218  -16.7684   23.4045 N   0  0  0  0  0  0  0  0  0  0  0  0
    9.1765  -15.9902   24.5938 C   0  0  1  0  0  0  0  0  0  0  0  0
    7.7969  -16.3835   24.9632 C   0  0  0  0  0  0  0  0  0  0  0  0
    6.8911  -15.3134   25.4084 C   0  0  0  0  0  0  0  0  0  0  0  0
    5.5415  -15.4771   25.7717 C   0  0  0  0  0  0  0  0  0  0  0  0
    5.0173  -14.2956   26.0837 N   0  0  0  0  0  0  0  0  0  0  0  0
    5.9700  -13.3522   25.9419 C   0  0  0  0  0  0  0  0  0  0  0  0
    5.9646  -12.0032   26.1466 C   0  0  0  0  0  0  0  0  0  0  0  0
    7.0845  -11.2465   25.9503 C   0  0  0  0  0  0  0  0  0  0  0  0
    8.2675  -11.8459   25.5325 C   0  0  0  0  0  0  0  0  0  0  0  0
    8.2588  -13.1926   25.3314 C   0  0  0  0  0  0  0  0  0  0  0  0
    7.1337  -13.9740   25.5243 C   0  0  0  0  0  0  0  0  0  0  0  0
   10.1832  -16.0937   25.6302 C   0  0  0  0  0  0  0  0  0  0  0  0
   11.1587  -16.9121   25.3188 O   0  0  0  0  0  0  0  0  0  0  0  0
   10.2796  -15.4783   26.8781 N   0  0  0  0  0  0  0  0  0  0  0  0
    9.5407  -14.4297   27.5133 C   0  0  0  0  0  0  0  0  0  0  0  0
   10.7268  -13.5586   27.9856 C   0  0  0  0  0  0  0  0  0  0  0  0
   11.5162  -14.6127   28.7330 C   0  0  0  0  0  0  0  0  0  0  0  0
   11.3088  -15.8429   27.9064 C   0  0  1  0  0  0  0  0  0  0  0  0
   10.7780  -16.9167   28.7647 C   0  0  0  0  0  0  0  0  0  0  0  0
   11.6266  -17.5756   29.6264 O   0  0  0  0  0  0  0  0  0  0  0  0
    9.5743  -17.2353   28.7209 O   0  0  0  0  0  0  0  0  0  0  0  0
  2  3  1  0
  2  1  1  6
  4  5  2  0
  4  3  1  0
  6  5  1  0
  7 12  2  0
  7  6  1  0
  8  7  1  0
  9 10  1  0
  9  8  2  0
 10 11  2  0
 11 12  1  0
 12  4  1  0
 13  2  1  0
 14 13  2  0
 15 13  1  0
 16 15  1  0
 16 17  1  1
 18 17  1  0
 19 18  2  0
 20 19  1  0
 21 20  1  0
 21 26  2  0
 22 21  1  0
 23 22  2  0
 23 24  1  0
 24 25  2  0
 25 26  1  0
 26 18  1  0
 27 16  1  0
 27 29  1  0
 28 27  2  0
 29 30  1  0
 30 31  1  0
 32 31  1  0
 33 29  1  0
 33 32  1  0
 33 34  1  1
 35 34  1  0
 36 34  2  0
M  END
$$$$
