WWP.pdb
     RDKit          3D

 36 40  0  0  1  0  0  0  0  0999 V2000
    9.1742  -17.0694   21.7340 N   0  0  0  0  0  0  0  0  0  0  0  0
    8.9610  -15.6581   21.9821 C   0  0  1  0  0  0  0  0  0  0  0  0
    7.5382  -15.3734   21.4984 C   0  0  0  0  0  0  0  0  0  0  0  0
    7.5983  -15.2788   20.0227 C   0  0  0  0  0  0  0  0  0  0  0  0
    7.1352  -16.2256   19.1199 C   0  0  0  0  0  0  0  0  0  0  0  0
    7.3683  -15.7883   17.8702 N   0  0  0  0  0  0  0  0  0  0  0  0
    7.9697  -14.5836   17.9442 C   0  0  0  0  0  0  0  0  0  0  0  0
    8.4317  -13.6790   16.9983 C   0  0  0  0  0  0  0  0  0  0  0  0
    9.0140  -12.5028   17.3915 C   0  0  0  0  0  0  0  0  0  0  0  0
    9.1580  -12.1841   18.7332 C   0  0  0  0  0  0  0  0  0  0  0  0
    8.7093  -13.0622   19.6936 C   0  0  0  0  0  0  0  0  0  0  0  0
    8.1286  -14.2352   19.2823 C   0  0  0  0  0  0  0  0  0  0  0  0
    9.1032  -15.2967   23.3977 C   0  0  0  0  0  0  0  0  0  0  0  0
    9.2138  -14.0792   23.7013 O   0  0  0  0  0  0  0  0  0  0  0  0
    9.1158  -16.2786   24.3973 N   0  0  0  0  0  0  0  0  0  0  0  0
    9.1842  -15.9055   25.8099 C   0  0  1  0  0  0  0  0  0  0  0  0
    7.8622  -16.2335   26.3922 C   0  0  0  0  0  0  0  0  0  0  0  0
    6.7949  -15.2332   26.2382 C   0  0  0  0  0  0  0  0  0  0  0  0
    5.4423  -15.5096   25.9657 C   0  0  0  0  0  0  0  0  0  0  0  0
    4.7678  -14.3691   25.8537 N   0  0  0  0  0  0  0  0  0  0  0  0
    5.6231  -13.3442   26.0428 C   0  0  0  0  0  0  0  0  0  0  0  0
    5.4478  -11.9911   26.0507 C   0  0  0  0  0  0  0  0  0  0  0  0
    6.4866  -11.1376   26.2913 C   0  0  0  0  0  0  0  0  0  0  0  0
    7.7600  -11.6396   26.5361 C   0  0  0  0  0  0  0  0  0  0  0  0
    7.9209  -12.9917   26.5246 C   0  0  0  0  0  0  0  0  0  0  0  0
    6.8805  -13.8704   26.2818 C   0  0  0  0  0  0  0  0  0  0  0  0
   10.3447  -16.4659   26.4713 C   0  0  0  0  0  0  0  0  0  0  0  0
   11.0571  -17.2406   25.6897 O   0  0  0  0  0  0  0  0  0  0  0  0
   10.8155  -16.3190   27.7759 N   0  0  0  0  0  0  0  0  0  0  0  0
   10.3202  -15.6215   28.9236 C   0  0  0  0  0  0  0  0  0  0  0  0
   11.6142  -14.8768   29.3231 C   0  0  0  0  0  0  0  0  0  0  0  0
   12.5596  -16.0576   29.3910 C   0  0  0  0  0  0  0  0  0  0  0  0
   12.0894  -16.9346   28.2732 C   0  0  1  0  0  0  0  0  0  0  0  0
   11.8039  -18.2797   28.8031 C   0  0  0  0  0  0  0  0  0  0  0  0
   12.8412  -19.0589   29.2654 O   0  0  0  0  0  0  0  0  0  0  0  0
   10.6389  -18.7199   28.8381 O   0  0  0  0  0  0  0  0  0  0  0  0
  2  3  1  0
  2  1  1  1
  4  5  2  0
  4  3  1  0
  6  5  1  0
  7 12  2  0
  7  6  1  0
  8  7  1  0
  9 10  1  0
  9  8  2  0
 10 11  2  0
 11 12  1  0
 12  4  1  0
 13  2  1  0
 14 13  2  0
 15 13  1  0
 16 15  1  0
 16 17  1  1
 18 17  1  0
 19 18  2  0
 20 19  1  0
 21 20  1  0
 21 26  2  0
 22 21  1  0
 23 22  2  0
 23 24  1  0
 24 25  2  0
 25 26  1  0
 26 18  1  0
 27 16  1  0
 27 29  1  0
 28 27  2  0
 29 30  1  0
 30 31  1  0
 32 31  1  0
 33 29  1  0
 33 32  1  0
 33 34  1  1
 35 34  1  0
 36 34  2  0
M  END
$$$$
