WWP.pdb
     RDKit          3D

 36 40  0  0  1  0  0  0  0  0999 V2000
   12.8875  -15.7887   20.9085 N   0  0  0  0  0  0  0  0  0  0  0  0
   11.4517  -15.6309   21.0198 C   0  0  1  0  0  0  0  0  0  0  0  0
   10.8582  -16.9195   20.4483 C   0  0  0  0  0  0  0  0  0  0  0  0
    9.7802  -16.5184   19.5170 C   0  0  0  0  0  0  0  0  0  0  0  0
    8.9841  -17.3720   18.7664 C   0  0  0  0  0  0  0  0  0  0  0  0
    8.1225  -16.6394   18.0395 N   0  0  0  0  0  0  0  0  0  0  0  0
    8.3427  -15.3353   18.3025 C   0  0  0  0  0  0  0  0  0  0  0  0
    7.7687  -14.1532   17.8556 C   0  0  0  0  0  0  0  0  0  0  0  0
    8.2196  -12.9456   18.3198 C   0  0  0  0  0  0  0  0  0  0  0  0
    9.2530  -12.8689   19.2410 C   0  0  0  0  0  0  0  0  0  0  0  0
    9.8415  -14.0248   19.7019 C   0  0  0  0  0  0  0  0  0  0  0  0
    9.3776  -15.2253   19.2267 C   0  0  0  0  0  0  0  0  0  0  0  0
   11.0024  -15.4286   22.4025 C   0  0  0  0  0  0  0  0  0  0  0  0
   11.8666  -15.3888   23.3180 O   0  0  0  0  0  0  0  0  0  0  0  0
    9.6426  -15.2810   22.7071 N   0  0  0  0  0  0  0  0  0  0  0  0
    9.2152  -14.9123   24.0564 C   0  0  1  0  0  0  0  0  0  0  0  0
    7.7458  -14.7356   23.9945 C   0  0  0  0  0  0  0  0  0  0  0  0
    7.0513  -14.4470   25.2587 C   0  0  0  0  0  0  0  0  0  0  0  0
    6.3221  -15.3741   26.0261 C   0  0  0  0  0  0  0  0  0  0  0  0
    5.7970  -14.7625   27.0836 N   0  0  0  0  0  0  0  0  0  0  0  0
    6.1515  -13.4622   27.0475 C   0  0  0  0  0  0  0  0  0  0  0  0
    5.8973  -12.4172   27.8872 C   0  0  0  0  0  0  0  0  0  0  0  0
    6.3940  -11.1684   27.6439 C   0  0  0  0  0  0  0  0  0  0  0  0
    7.1791  -10.9362   26.5201 C   0  0  0  0  0  0  0  0  0  0  0  0
    7.4244  -11.9876   25.6904 C   0  0  0  0  0  0  0  0  0  0  0  0
    6.9287  -13.2583   25.9208 C   0  0  0  0  0  0  0  0  0  0  0  0
    9.7200  -15.8247   25.0618 C   0  0  0  0  0  0  0  0  0  0  0  0
   10.0913  -16.9804   24.5667 O   0  0  0  0  0  0  0  0  0  0  0  0
    9.8704  -15.6764   26.4404 N   0  0  0  0  0  0  0  0  0  0  0  0
    9.3447  -14.7418   27.3886 C   0  0  0  0  0  0  0  0  0  0  0  0
   10.6622  -14.3655   28.1037 C   0  0  0  0  0  0  0  0  0  0  0  0
   11.1463  -15.7548   28.4615 C   0  0  0  0  0  0  0  0  0  0  0  0
   10.7235  -16.5763   27.2842 C   0  0  1  0  0  0  0  0  0  0  0  0
    9.9121  -17.7125   27.7554 C   0  0  0  0  0  0  0  0  0  0  0  0
   10.5090  -18.7093   28.4950 O   0  0  0  0  0  0  0  0  0  0  0  0
    8.6960  -17.7827   27.4939 O   0  0  0  0  0  0  0  0  0  0  0  0
  2  3  1  0
  2  1  1  1
  4  5  2  0
  4  3  1  0
  6  5  1  0
  7 12  2  0
  7  6  1  0
  8  7  1  0
  9 10  1  0
  9  8  2  0
 10 11  2  0
 11 12  1  0
 12  4  1  0
 13  2  1  0
 14 13  2  0
 15 13  1  0
 16 15  1  0
 16 17  1  6
 18 17  1  0
 19 18  2  0
 20 19  1  0
 21 20  1  0
 21 26  2  0
 22 21  1  0
 23 22  2  0
 23 24  1  0
 24 25  2  0
 25 26  1  0
 26 18  1  0
 27 16  1  0
 27 29  1  0
 28 27  2  0
 29 30  1  0
 30 31  1  0
 32 31  1  0
 33 29  1  0
 33 32  1  0
 33 34  1  1
 35 34  1  0
 36 34  2  0
M  END
$$$$
