WWP.pdb
     RDKit          3D

 36 40  0  0  1  0  0  0  0  0999 V2000
   11.5080  -15.2216   21.1720 N   0  0  0  0  0  0  0  0  0  0  0  0
   10.2052  -15.4599   21.7592 C   0  0  1  0  0  0  0  0  0  0  0  0
    9.7017  -16.7521   21.1143 C   0  0  0  0  0  0  0  0  0  0  0  0
    8.8037  -16.3563   20.0065 C   0  0  0  0  0  0  0  0  0  0  0  0
    8.0973  -17.2147   19.1758 C   0  0  0  0  0  0  0  0  0  0  0  0
    7.3959  -16.4863   18.2898 N   0  0  0  0  0  0  0  0  0  0  0  0
    7.6319  -15.1802   18.5283 C   0  0  0  0  0  0  0  0  0  0  0  0
    7.1909  -14.0005   17.9451 C   0  0  0  0  0  0  0  0  0  0  0  0
    7.6183  -12.7897   18.4229 C   0  0  0  0  0  0  0  0  0  0  0  0
    8.4960  -12.7074   19.4931 C   0  0  0  0  0  0  0  0  0  0  0  0
    8.9504  -13.8609   20.0914 C   0  0  0  0  0  0  0  0  0  0  0  0
    8.5121  -15.0646   19.6003 C   0  0  0  0  0  0  0  0  0  0  0  0
   10.2513  -15.5999   23.2197 C   0  0  0  0  0  0  0  0  0  0  0  0
   11.3037  -15.2641   23.8250 O   0  0  0  0  0  0  0  0  0  0  0  0
    9.1522  -16.0951   23.9341 N   0  0  0  0  0  0  0  0  0  0  0  0
    9.0222  -15.8485   25.3699 C   0  0  1  0  0  0  0  0  0  0  0  0
    7.6250  -16.1877   25.7263 C   0  0  0  0  0  0  0  0  0  0  0  0
    6.6813  -15.0696   25.8779 C   0  0  0  0  0  0  0  0  0  0  0  0
    5.2791  -15.1616   25.8037 C   0  0  0  0  0  0  0  0  0  0  0  0
    4.7446  -13.9526   25.9479 N   0  0  0  0  0  0  0  0  0  0  0  0
    5.7410  -13.0600   26.1161 C   0  0  0  0  0  0  0  0  0  0  0  0
    5.7409  -11.7109   26.3202 C   0  0  0  0  0  0  0  0  0  0  0  0
    6.9034  -11.0136   26.4869 C   0  0  0  0  0  0  0  0  0  0  0  0
    8.1256  -11.6756   26.4512 C   0  0  0  0  0  0  0  0  0  0  0  0
    8.1113  -13.0217   26.2461 C   0  0  0  0  0  0  0  0  0  0  0  0
    6.9437  -13.7433   26.0744 C   0  0  0  0  0  0  0  0  0  0  0  0
   10.0661  -16.4976   26.1362 C   0  0  0  0  0  0  0  0  0  0  0  0
   10.7436  -17.3771   25.4391 O   0  0  0  0  0  0  0  0  0  0  0  0
   10.4573  -16.3427   27.4659 N   0  0  0  0  0  0  0  0  0  0  0  0
   10.0383  -15.4629   28.5145 C   0  0  0  0  0  0  0  0  0  0  0  0
   11.4282  -14.9739   28.9810 C   0  0  0  0  0  0  0  0  0  0  0  0
   12.0893  -16.3160   29.2136 C   0  0  0  0  0  0  0  0  0  0  0  0
   11.5275  -17.1666   28.1180 C   0  0  1  0  0  0  0  0  0  0  0  0
   10.9199  -18.3729   28.7073 C   0  0  0  0  0  0  0  0  0  0  0  0
   11.7316  -19.3354   29.2655 O   0  0  0  0  0  0  0  0  0  0  0  0
    9.6843  -18.5326   28.7071 O   0  0  0  0  0  0  0  0  0  0  0  0
  2  3  1  0
  2  1  1  6
  4  5  2  0
  4  3  1  0
  6  5  1  0
  7 12  2  0
  7  6  1  0
  8  7  1  0
  9 10  1  0
  9  8  2  0
 10 11  2  0
 11 12  1  0
 12  4  1  0
 13  2  1  0
 14 13  2  0
 15 13  1  0
 16 15  1  0
 16 17  1  1
 18 17  1  0
 19 18  2  0
 20 19  1  0
 21 20  1  0
 21 26  2  0
 22 21  1  0
 23 22  2  0
 23 24  1  0
 24 25  2  0
 25 26  1  0
 26 18  1  0
 27 16  1  0
 27 29  1  0
 28 27  2  0
 29 30  1  0
 30 31  1  0
 32 31  1  0
 33 29  1  0
 33 32  1  0
 33 34  1  1
 35 34  1  0
 36 34  2  0
M  END
$$$$
