WWP.pdb
     RDKit          3D

 36 40  0  0  1  0  0  0  0  0999 V2000
    9.8019  -16.0976   19.2431 N   0  0  0  0  0  0  0  0  0  0  0  0
   10.4866  -16.6951   20.3713 C   0  0  1  0  0  0  0  0  0  0  0  0
   11.9498  -16.8104   19.9411 C   0  0  0  0  0  0  0  0  0  0  0  0
   12.5912  -17.7782   20.8587 C   0  0  0  0  0  0  0  0  0  0  0  0
   12.6847  -19.1500   20.6704 C   0  0  0  0  0  0  0  0  0  0  0  0
   13.3314  -19.6915   21.7173 N   0  0  0  0  0  0  0  0  0  0  0  0
   13.6574  -18.7039   22.5756 C   0  0  0  0  0  0  0  0  0  0  0  0
   14.3174  -18.6685   23.7961 C   0  0  0  0  0  0  0  0  0  0  0  0
   14.5036  -17.4782   24.4485 C   0  0  0  0  0  0  0  0  0  0  0  0
   14.0426  -16.2847   23.9141 C   0  0  0  0  0  0  0  0  0  0  0  0
   13.3842  -16.2892   22.7052 C   0  0  0  0  0  0  0  0  0  0  0  0
   13.2066  -17.4898   22.0656 C   0  0  0  0  0  0  0  0  0  0  0  0
   10.3743  -15.8975   21.5985 C   0  0  0  0  0  0  0  0  0  0  0  0
   10.6462  -14.6687   21.5463 O   0  0  0  0  0  0  0  0  0  0  0  0
    9.9729  -16.4821   22.8071 N   0  0  0  0  0  0  0  0  0  0  0  0
    9.4665  -15.6573   23.9037 C   0  0  1  0  0  0  0  0  0  0  0  0
    7.9961  -15.5969   23.7354 C   0  0  0  0  0  0  0  0  0  0  0  0
    7.2205  -14.9893   24.8276 C   0  0  0  0  0  0  0  0  0  0  0  0
    6.4906  -15.6896   25.8059 C   0  0  0  0  0  0  0  0  0  0  0  0
    5.8814  -14.8250   26.6118 N   0  0  0  0  0  0  0  0  0  0  0  0
    6.1807  -13.5749   26.2051 C   0  0  0  0  0  0  0  0  0  0  0  0
    5.8352  -12.3453   26.6853 C   0  0  0  0  0  0  0  0  0  0  0  0
    6.2900  -11.1971   26.1021 C   0  0  0  0  0  0  0  0  0  0  0  0
    7.1256  -11.2614   24.9927 C   0  0  0  0  0  0  0  0  0  0  0  0
    7.4620  -12.4946   24.5235 C   0  0  0  0  0  0  0  0  0  0  0  0
    7.0098  -13.6675   25.1010 C   0  0  0  0  0  0  0  0  0  0  0  0
    9.9573  -16.0962   25.1940 C   0  0  0  0  0  0  0  0  0  0  0  0
   10.4900  -17.2936   25.1607 O   0  0  0  0  0  0  0  0  0  0  0  0
    9.9536  -15.4659   26.4381 N   0  0  0  0  0  0  0  0  0  0  0  0
    9.3163  -14.2850   26.9364 C   0  0  0  0  0  0  0  0  0  0  0  0
   10.5428  -13.6168   27.5981 C   0  0  0  0  0  0  0  0  0  0  0  0
   11.0004  -14.7661   28.4712 C   0  0  0  0  0  0  0  0  0  0  0  0
   10.7188  -15.9686   27.6260 C   0  0  1  0  0  0  0  0  0  0  0  0
    9.8734  -16.9056   28.3869 C   0  0  0  0  0  0  0  0  0  0  0  0
    8.5949  -17.1712   27.9492 O   0  0  0  0  0  0  0  0  0  0  0  0
   10.2996  -17.4591   29.4185 O   0  0  0  0  0  0  0  0  0  0  0  0
  2  3  1  0
  2  1  1  6
  4  5  2  0
  4  3  1  0
  6  5  1  0
  7 12  2  0
  7  6  1  0
  8  7  1  0
  9 10  1  0
  9  8  2  0
 10 11  2  0
 11 12  1  0
 12  4  1  0
 13  2  1  0
 14 13  2  0
 15 13  1  0
 16 15  1  0
 16 17  1  1
 18 17  1  0
 19 18  2  0
 20 19  1  0
 21 20  1  0
 21 26  2  0
 22 21  1  0
 23 22  2  0
 23 24  1  0
 24 25  2  0
 25 26  1  0
 26 18  1  0
 27 16  1  0
 27 29  1  0
 28 27  2  0
 29 30  1  0
 30 31  1  0
 32 31  1  0
 33 29  1  0
 33 32  1  0
 33 34  1  1
 35 34  1  0
 36 34  2  0
M  END
$$$$
