WWP.pdb
     RDKit          3D

 36 40  0  0  1  0  0  0  0  0999 V2000
   10.4742  -18.7421   21.5592 N   0  0  0  0  0  0  0  0  0  0  0  0
   11.3598  -17.6198   21.7939 C   0  0  1  0  0  0  0  0  0  0  0  0
   11.4372  -16.8801   20.4574 C   0  0  0  0  0  0  0  0  0  0  0  0
   11.7543  -17.8922   19.4253 C   0  0  0  0  0  0  0  0  0  0  0  0
   10.8736  -18.4118   18.4871 C   0  0  0  0  0  0  0  0  0  0  0  0
   11.5252  -19.3074   17.7251 N   0  0  0  0  0  0  0  0  0  0  0  0
   12.8037  -19.3784   18.1480 C   0  0  0  0  0  0  0  0  0  0  0  0
   13.9107  -20.1132   17.7466 C   0  0  0  0  0  0  0  0  0  0  0  0
   15.1115  -19.9630   18.3887 C   0  0  0  0  0  0  0  0  0  0  0  0
   15.2556  -19.0810   19.4488 C   0  0  0  0  0  0  0  0  0  0  0  0
   14.1749  -18.3391   19.8690 C   0  0  0  0  0  0  0  0  0  0  0  0
   12.9801  -18.5018   19.2147 C   0  0  0  0  0  0  0  0  0  0  0  0
   10.8793  -16.7211   22.8503 C   0  0  0  0  0  0  0  0  0  0  0  0
   11.4207  -15.5904   22.9728 O   0  0  0  0  0  0  0  0  0  0  0  0
    9.8399  -17.1040   23.7086 N   0  0  0  0  0  0  0  0  0  0  0  0
    9.4455  -16.2522   24.8303 C   0  0  1  0  0  0  0  0  0  0  0  0
    7.9702  -16.3446   24.9252 C   0  0  0  0  0  0  0  0  0  0  0  0
    7.1996  -15.1390   24.5840 C   0  0  0  0  0  0  0  0  0  0  0  0
    6.5401  -14.9031   23.3635 C   0  0  0  0  0  0  0  0  0  0  0  0
    5.9779  -13.6983   23.3860 N   0  0  0  0  0  0  0  0  0  0  0  0
    6.2390  -13.1249   24.5780 C   0  0  0  0  0  0  0  0  0  0  0  0
    5.8874  -11.9208   25.1147 C   0  0  0  0  0  0  0  0  0  0  0  0
    6.2628  -11.5653   26.3789 C   0  0  0  0  0  0  0  0  0  0  0  0
    7.0209  -12.4368   27.1529 C   0  0  0  0  0  0  0  0  0  0  0  0
    7.3654  -13.6347   26.6048 C   0  0  0  0  0  0  0  0  0  0  0  0
    6.9948  -14.0104   25.3262 C   0  0  0  0  0  0  0  0  0  0  0  0
   10.1956  -16.5459   26.0342 C   0  0  0  0  0  0  0  0  0  0  0  0
   10.8748  -17.6645   25.9562 O   0  0  0  0  0  0  0  0  0  0  0  0
   10.3087  -15.8476   27.2362 N   0  0  0  0  0  0  0  0  0  0  0  0
    9.6944  -14.6563   27.7388 C   0  0  0  0  0  0  0  0  0  0  0  0
   10.9653  -13.9232   28.2249 C   0  0  0  0  0  0  0  0  0  0  0  0
   11.5494  -15.0109   29.1015 C   0  0  0  0  0  0  0  0  0  0  0  0
   11.2135  -16.2650   28.3571 C   0  0  1  0  0  0  0  0  0  0  0  0
   10.4844  -17.1781   29.2550 C   0  0  0  0  0  0  0  0  0  0  0  0
    9.1274  -17.3470   29.0913 O   0  0  0  0  0  0  0  0  0  0  0  0
   11.0785  -17.7976   30.1580 O   0  0  0  0  0  0  0  0  0  0  0  0
  2  3  1  0
  2  1  1  6
  4  5  2  0
  4  3  1  0
  6  5  1  0
  7 12  2  0
  7  6  1  0
  8  7  1  0
  9 10  1  0
  9  8  2  0
 10 11  2  0
 11 12  1  0
 12  4  1  0
 13  2  1  0
 14 13  2  0
 15 13  1  0
 16 15  1  0
 16 17  1  1
 18 17  1  0
 19 18  2  0
 20 19  1  0
 21 20  1  0
 21 26  2  0
 22 21  1  0
 23 22  2  0
 23 24  1  0
 24 25  2  0
 25 26  1  0
 26 18  1  0
 27 16  1  0
 27 29  1  0
 28 27  2  0
 29 30  1  0
 30 31  1  0
 32 31  1  0
 33 29  1  0
 33 32  1  0
 33 34  1  1
 35 34  1  0
 36 34  2  0
M  END
$$$$
