WWP.pdb
     RDKit          3D

 36 40  0  0  1  0  0  0  0  0999 V2000
    9.2523  -16.9636   21.7535 N   0  0  0  0  0  0  0  0  0  0  0  0
    9.1922  -15.5516   22.0719 C   0  0  1  0  0  0  0  0  0  0  0  0
    7.7774  -15.1117   21.6919 C   0  0  0  0  0  0  0  0  0  0  0  0
    7.6736  -15.2276   20.2202 C   0  0  0  0  0  0  0  0  0  0  0  0
    7.1141  -16.2855   19.5175 C   0  0  0  0  0  0  0  0  0  0  0  0
    7.2068  -16.0327   18.2003 N   0  0  0  0  0  0  0  0  0  0  0  0
    7.8116  -14.8388   18.0359 C   0  0  0  0  0  0  0  0  0  0  0  0
    8.1652  -14.0839   16.9261 C   0  0  0  0  0  0  0  0  0  0  0  0
    8.7864  -12.8727   17.0817 C   0  0  0  0  0  0  0  0  0  0  0  0
    9.0779  -12.3697   18.3405 C   0  0  0  0  0  0  0  0  0  0  0  0
    8.7392  -13.0965   19.4594 C   0  0  0  0  0  0  0  0  0  0  0  0
    8.1176  -14.3071   19.2853 C   0  0  0  0  0  0  0  0  0  0  0  0
    9.4529  -15.2715   23.4890 C   0  0  0  0  0  0  0  0  0  0  0  0
    9.8932  -14.1354   23.8083 O   0  0  0  0  0  0  0  0  0  0  0  0
    9.2191  -16.2413   24.4731 N   0  0  0  0  0  0  0  0  0  0  0  0
    9.2779  -15.8941   25.8927 C   0  0  1  0  0  0  0  0  0  0  0  0
    7.9383  -16.1917   26.4505 C   0  0  0  0  0  0  0  0  0  0  0  0
    6.8724  -15.2108   26.1948 C   0  0  0  0  0  0  0  0  0  0  0  0
    5.5436  -15.5134   25.8443 C   0  0  0  0  0  0  0  0  0  0  0  0
    4.8655  -14.3859   25.6513 N   0  0  0  0  0  0  0  0  0  0  0  0
    5.6954  -13.3445   25.8618 C   0  0  0  0  0  0  0  0  0  0  0  0
    5.5052  -11.9942   25.8139 C   0  0  0  0  0  0  0  0  0  0  0  0
    6.5168  -11.1200   26.0932 C   0  0  0  0  0  0  0  0  0  0  0  0
    7.7768  -11.5973   26.4366 C   0  0  0  0  0  0  0  0  0  0  0  0
    7.9529  -12.9468   26.4800 C   0  0  0  0  0  0  0  0  0  0  0  0
    6.9402  -13.8463   26.1991 C   0  0  0  0  0  0  0  0  0  0  0  0
   10.4113  -16.5002   26.5607 C   0  0  0  0  0  0  0  0  0  0  0  0
   11.1183  -17.2736   25.7730 O   0  0  0  0  0  0  0  0  0  0  0  0
   10.8611  -16.3976   27.8769 N   0  0  0  0  0  0  0  0  0  0  0  0
   10.3662  -15.7101   29.0307 C   0  0  0  0  0  0  0  0  0  0  0  0
   11.6754  -15.0167   29.4712 C   0  0  0  0  0  0  0  0  0  0  0  0
   12.5810  -16.2288   29.5299 C   0  0  0  0  0  0  0  0  0  0  0  0
   12.1048  -17.0651   28.3838 C   0  0  1  0  0  0  0  0  0  0  0  0
   11.7661  -18.4117   28.8774 C   0  0  0  0  0  0  0  0  0  0  0  0
   12.7687  -19.2337   29.3421 O   0  0  0  0  0  0  0  0  0  0  0  0
   10.5873  -18.8148   28.8798 O   0  0  0  0  0  0  0  0  0  0  0  0
  2  3  1  0
  2  1  1  1
  4  5  2  0
  4  3  1  0
  6  5  1  0
  7 12  2  0
  7  6  1  0
  8  7  1  0
  9 10  1  0
  9  8  2  0
 10 11  2  0
 11 12  1  0
 12  4  1  0
 13  2  1  0
 14 13  2  0
 15 13  1  0
 16 15  1  0
 16 17  1  1
 18 17  1  0
 19 18  2  0
 20 19  1  0
 21 20  1  0
 21 26  2  0
 22 21  1  0
 23 22  2  0
 23 24  1  0
 24 25  2  0
 25 26  1  0
 26 18  1  0
 27 16  1  0
 27 29  1  0
 28 27  2  0
 29 30  1  0
 30 31  1  0
 32 31  1  0
 33 29  1  0
 33 32  1  0
 33 34  1  1
 35 34  1  0
 36 34  2  0
M  END
$$$$
