WWP.pdb
     RDKit          3D

 36 40  0  0  1  0  0  0  0  0999 V2000
   10.4561  -16.3112   20.2101 N   0  0  0  0  0  0  0  0  0  0  0  0
   10.8017  -16.9773   21.4493 C   0  0  1  0  0  0  0  0  0  0  0  0
   12.3189  -17.1644   21.3978 C   0  0  0  0  0  0  0  0  0  0  0  0
   12.5933  -18.1453   20.3241 C   0  0  0  0  0  0  0  0  0  0  0  0
   13.1841  -17.8760   19.0976 C   0  0  0  0  0  0  0  0  0  0  0  0
   13.2618  -19.0167   18.3903 N   0  0  0  0  0  0  0  0  0  0  0  0
   12.7363  -20.0145   19.1295 C   0  0  0  0  0  0  0  0  0  0  0  0
   12.5535  -21.3743   18.9195 C   0  0  0  0  0  0  0  0  0  0  0  0
   11.9740  -22.1526   19.8867 C   0  0  0  0  0  0  0  0  0  0  0  0
   11.5568  -21.6105   21.0927 C   0  0  0  0  0  0  0  0  0  0  0  0
   11.7252  -20.2648   21.3289 C   0  0  0  0  0  0  0  0  0  0  0  0
   12.3072  -19.5003   20.3497 C   0  0  0  0  0  0  0  0  0  0  0  0
   10.4202  -16.2080   22.6398 C   0  0  0  0  0  0  0  0  0  0  0  0
   10.8964  -15.0514   22.7889 O   0  0  0  0  0  0  0  0  0  0  0  0
    9.5444  -16.7405   23.5954 N   0  0  0  0  0  0  0  0  0  0  0  0
    9.1808  -15.9722   24.7856 C   0  0  1  0  0  0  0  0  0  0  0  0
    7.7885  -16.3529   25.1183 C   0  0  0  0  0  0  0  0  0  0  0  0
    6.8314  -15.2600   25.3488 C   0  0  0  0  0  0  0  0  0  0  0  0
    5.4491  -15.4100   25.5656 C   0  0  0  0  0  0  0  0  0  0  0  0
    4.8861  -14.2127   25.6983 N   0  0  0  0  0  0  0  0  0  0  0  0
    5.8444  -13.2719   25.5784 C   0  0  0  0  0  0  0  0  0  0  0  0
    5.8083  -11.9098   25.6496 C   0  0  0  0  0  0  0  0  0  0  0  0
    6.9400  -11.1573   25.5134 C   0  0  0  0  0  0  0  0  0  0  0  0
    8.1669  -11.7747   25.2970 C   0  0  0  0  0  0  0  0  0  0  0  0
    8.1884  -13.1344   25.2276 C   0  0  0  0  0  0  0  0  0  0  0  0
    7.0522  -13.9118   25.3621 C   0  0  0  0  0  0  0  0  0  0  0  0
   10.1619  -16.0999   25.8436 C   0  0  0  0  0  0  0  0  0  0  0  0
   11.1645  -16.8813   25.5229 O   0  0  0  0  0  0  0  0  0  0  0  0
   10.2107  -15.5400   27.1200 N   0  0  0  0  0  0  0  0  0  0  0  0
    9.3211  -14.6901   27.8519 C   0  0  0  0  0  0  0  0  0  0  0  0
   10.3414  -13.6267   28.3177 C   0  0  0  0  0  0  0  0  0  0  0  0
   11.3631  -14.5401   28.9616 C   0  0  0  0  0  0  0  0  0  0  0  0
   11.3499  -15.7448   28.0737 C   0  0  1  0  0  0  0  0  0  0  0  0
   11.0893  -16.9431   28.8908 C   0  0  0  0  0  0  0  0  0  0  0  0
   12.0774  -17.4236   29.7213 O   0  0  0  0  0  0  0  0  0  0  0  0
    9.9892  -17.5257   28.8401 O   0  0  0  0  0  0  0  0  0  0  0  0
  2  3  1  0
  2  1  1  6
  4  5  2  0
  4  3  1  0
  6  5  1  0
  7 12  2  0
  7  6  1  0
  8  7  1  0
  9 10  1  0
  9  8  2  0
 10 11  2  0
 11 12  1  0
 12  4  1  0
 13  2  1  0
 14 13  2  0
 15 13  1  0
 16 15  1  0
 16 17  1  1
 18 17  1  0
 19 18  2  0
 20 19  1  0
 21 20  1  0
 21 26  2  0
 22 21  1  0
 23 22  2  0
 23 24  1  0
 24 25  2  0
 25 26  1  0
 26 18  1  0
 27 16  1  0
 27 29  1  0
 28 27  2  0
 29 30  1  0
 30 31  1  0
 32 31  1  0
 33 29  1  0
 33 32  1  0
 33 34  1  1
 35 34  1  0
 36 34  2  0
M  END
$$$$
