SFD.pdb
     RDKit          3D

 26 26  0  0  1  0  0  0  0  0999 V2000
    8.3988  -18.7801   20.9461 O   0  0  0  0  0  0  0  0  0  0  0  0
    9.2205  -18.2481   19.9679 C   0  0  0  0  0  0  0  0  0  0  0  0
    8.9594  -16.7673   19.7993 C   0  0  2  0  0  0  0  0  0  0  0  0
    9.8313  -16.2016   18.8144 N   0  0  0  0  0  0  0  0  0  0  0  0
    9.2003  -16.0798   21.0943 C   0  0  0  0  0  0  0  0  0  0  0  0
   10.3662  -15.9876   21.5658 O   0  0  0  0  0  0  0  0  0  0  0  0
    8.1438  -15.5107   21.8364 N   0  0  0  0  0  0  0  0  0  0  0  0
    8.3166  -14.8796   23.1535 C   0  0  1  0  0  0  0  0  0  0  0  0
    7.1704  -13.9589   23.3836 C   0  0  0  0  0  0  0  0  0  0  0  0
    7.1193  -13.3180   24.7089 C   0  0  0  0  0  0  0  0  0  0  0  0
    7.9717  -12.2924   25.0338 C   0  0  0  0  0  0  0  0  0  0  0  0
    7.9497  -11.6698   26.2804 C   0  0  0  0  0  0  0  0  0  0  0  0
    7.0496  -12.0836   27.2308 C   0  0  0  0  0  0  0  0  0  0  0  0
    6.1838  -13.1106   26.9284 C   0  0  0  0  0  0  0  0  0  0  0  0
    6.2217  -13.7155   25.6855 C   0  0  0  0  0  0  0  0  0  0  0  0
    8.5686  -15.8938   24.1739 C   0  0  0  0  0  0  0  0  0  0  0  0
    7.8125  -16.9278   24.2090 O   0  0  0  0  0  0  0  0  0  0  0  0
    9.5966  -15.8509   25.1556 N   0  0  0  0  0  0  0  0  0  0  0  0
    9.8982  -16.9780   26.0470 C   0  0  1  0  0  0  0  0  0  0  0  0
   11.2022  -17.5818   25.5915 C   0  0  0  0  0  0  0  0  0  0  0  0
   11.6359  -18.6761   26.4630 C   0  0  0  0  0  0  0  0  0  0  0  0
   10.9659  -19.7235   26.5964 O   0  0  0  0  0  0  0  0  0  0  0  0
    9.9995  -16.5534   27.4669 C   0  0  0  0  0  0  0  0  0  0  0  0
    9.7354  -17.4957   28.4411 O   0  0  0  0  0  0  0  0  0  0  0  0
   12.8274  -18.5942   27.1881 O   0  0  0  0  0  0  0  0  0  0  0  0
   10.3095  -15.3959   27.8024 O   0  0  0  0  0  0  0  0  0  0  0  0
  2  1  1  0
  3  5  1  0
  3  2  1  0
  3  4  1  6
  5  7  1  0
  6  5  2  0
  7  8  1  0
  8  9  1  1
  9 10  1  0
 10 11  2  0
 11 12  1  0
 13 12  2  0
 14 13  1  0
 15 10  1  0
 15 14  2  0
 16 17  2  0
 16  8  1  0
 18 16  1  0
 19 23  1  0
 19 18  1  0
 19 20  1  6
 21 22  2  0
 21 20  1  0
 23 24  1  0
 25 21  1  0
 26 23  2  0
M  END
$$$$
