SFD.pdb
     RDKit          3D

 26 26  0  0  1  0  0  0  0  0999 V2000
    9.8225  -19.0615   20.3616 O   0  0  0  0  0  0  0  0  0  0  0  0
    8.5974  -18.5543   19.9653 C   0  0  0  0  0  0  0  0  0  0  0  0
    8.7164  -17.0880   19.6118 C   0  0  2  0  0  0  0  0  0  0  0  0
    9.7869  -16.8686   18.6864 N   0  0  0  0  0  0  0  0  0  0  0  0
    8.9932  -16.3102   20.8472 C   0  0  0  0  0  0  0  0  0  0  0  0
   10.1496  -15.8651   21.0809 O   0  0  0  0  0  0  0  0  0  0  0  0
    7.9821  -16.0439   21.7946 N   0  0  0  0  0  0  0  0  0  0  0  0
    8.2046  -15.2921   23.0388 C   0  0  1  0  0  0  0  0  0  0  0  0
    6.9304  -14.6202   23.4121 C   0  0  0  0  0  0  0  0  0  0  0  0
    6.9628  -13.8297   24.6546 C   0  0  0  0  0  0  0  0  0  0  0  0
    6.4234  -14.3169   25.8190 C   0  0  0  0  0  0  0  0  0  0  0  0
    6.4353  -13.5908   27.0085 C   0  0  0  0  0  0  0  0  0  0  0  0
    7.0029  -12.3411   27.0360 C   0  0  0  0  0  0  0  0  0  0  0  0
    7.5507  -11.8307   25.8805 C   0  0  0  0  0  0  0  0  0  0  0  0
    7.5287  -12.5672   24.7104 C   0  0  0  0  0  0  0  0  0  0  0  0
    8.8233  -16.1491   24.0469 C   0  0  0  0  0  0  0  0  0  0  0  0
    8.3550  -17.3296   24.2174 O   0  0  0  0  0  0  0  0  0  0  0  0
    9.9232  -15.7986   24.8774 N   0  0  0  0  0  0  0  0  0  0  0  0
   10.5010  -16.7158   25.8677 C   0  0  1  0  0  0  0  0  0  0  0  0
   11.9985  -16.6844   25.6973 C   0  0  0  0  0  0  0  0  0  0  0  0
   12.4088  -17.1085   24.3568 C   0  0  0  0  0  0  0  0  0  0  0  0
   13.2431  -16.4648   23.6835 O   0  0  0  0  0  0  0  0  0  0  0  0
   10.1364  -16.3368   27.2571 C   0  0  0  0  0  0  0  0  0  0  0  0
    9.6233  -15.0720   27.4658 O   0  0  0  0  0  0  0  0  0  0  0  0
   11.8801  -18.2606   23.7695 O   0  0  0  0  0  0  0  0  0  0  0  0
   10.2757  -17.1084   28.2233 O   0  0  0  0  0  0  0  0  0  0  0  0
  2  1  1  0
  3  5  1  0
  3  2  1  0
  3  4  1  6
  5  7  1  0
  6  5  2  0
  7  8  1  0
  8  9  1  1
  9 10  1  0
 10 11  2  0
 11 12  1  0
 13 12  2  0
 14 13  1  0
 15 10  1  0
 15 14  2  0
 16 17  2  0
 16  8  1  0
 18 16  1  0
 19 23  1  0
 19 18  1  0
 19 20  1  1
 21 22  2  0
 21 20  1  0
 23 24  1  0
 25 21  1  0
 26 23  2  0
M  END
$$$$
