SFD.pdb
     RDKit          3D

 26 26  0  0  1  0  0  0  0  0999 V2000
   10.1148  -18.8221   20.9783 O   0  0  0  0  0  0  0  0  0  0  0  0
    8.9978  -18.2099   20.4375 C   0  0  0  0  0  0  0  0  0  0  0  0
    9.2866  -16.7594   20.1182 C   0  0  2  0  0  0  0  0  0  0  0  0
   10.4833  -16.6335   19.3420 N   0  0  0  0  0  0  0  0  0  0  0  0
    9.4656  -16.0077   21.3874 C   0  0  0  0  0  0  0  0  0  0  0  0
   10.6184  -15.6994   21.7945 O   0  0  0  0  0  0  0  0  0  0  0  0
    8.3630  -15.6154   22.1754 N   0  0  0  0  0  0  0  0  0  0  0  0
    8.4860  -14.9337   23.4727 C   0  0  1  0  0  0  0  0  0  0  0  0
    7.2105  -14.2179   23.7465 C   0  0  0  0  0  0  0  0  0  0  0  0
    7.1300  -13.5253   25.0440 C   0  0  0  0  0  0  0  0  0  0  0  0
    7.8224  -12.3620   25.2708 C   0  0  0  0  0  0  0  0  0  0  0  0
    7.7692  -11.6868   26.4888 C   0  0  0  0  0  0  0  0  0  0  0  0
    7.0017  -12.1882   27.5106 C   0  0  0  0  0  0  0  0  0  0  0  0
    6.2976  -13.3538   27.3072 C   0  0  0  0  0  0  0  0  0  0  0  0
    6.3638  -14.0087   26.0911 C   0  0  0  0  0  0  0  0  0  0  0  0
    8.9567  -15.8657   24.4940 C   0  0  0  0  0  0  0  0  0  0  0  0
    8.3204  -16.9658   24.6586 O   0  0  0  0  0  0  0  0  0  0  0  0
   10.0804  -15.6730   25.3440 N   0  0  0  0  0  0  0  0  0  0  0  0
   10.5375  -16.6835   26.3062 C   0  0  1  0  0  0  0  0  0  0  0  0
   12.0379  -16.7744   26.1921 C   0  0  0  0  0  0  0  0  0  0  0  0
   12.4688  -17.0698   24.8239 C   0  0  0  0  0  0  0  0  0  0  0  0
   11.9530  -17.9877   24.1493 O   0  0  0  0  0  0  0  0  0  0  0  0
   10.1503  -16.3414   27.6990 C   0  0  0  0  0  0  0  0  0  0  0  0
   10.4090  -17.2718   28.6860 O   0  0  0  0  0  0  0  0  0  0  0  0
   13.4835  -16.3312   24.2100 O   0  0  0  0  0  0  0  0  0  0  0  0
    9.6095  -15.2622   28.0012 O   0  0  0  0  0  0  0  0  0  0  0  0
  2  1  1  0
  3  5  1  0
  3  2  1  0
  3  4  1  6
  5  7  1  0
  6  5  2  0
  7  8  1  0
  8  9  1  1
  9 10  1  0
 10 11  2  0
 11 12  1  0
 13 12  2  0
 14 13  1  0
 15 10  1  0
 15 14  2  0
 16 17  2  0
 16  8  1  0
 18 16  1  0
 19 23  1  0
 19 18  1  0
 19 20  1  1
 21 22  2  0
 21 20  1  0
 23 24  1  0
 25 21  1  0
 26 23  2  0
M  END
$$$$
