SFD.pdb
     RDKit          3D

 26 26  0  0  1  0  0  0  0  0999 V2000
    9.0913  -18.4735   20.5316 O   0  0  0  0  0  0  0  0  0  0  0  0
    8.0949  -17.7443   19.9067 C   0  0  0  0  0  0  0  0  0  0  0  0
    8.5497  -16.3225   19.6596 C   0  0  2  0  0  0  0  0  0  0  0  0
    9.7230  -16.2945   18.8393 N   0  0  0  0  0  0  0  0  0  0  0  0
    8.8677  -15.6798   20.9610 C   0  0  0  0  0  0  0  0  0  0  0  0
   10.0644  -15.5333   21.3299 O   0  0  0  0  0  0  0  0  0  0  0  0
    7.8520  -15.2146   21.8228 N   0  0  0  0  0  0  0  0  0  0  0  0
    8.1085  -14.6213   23.1439 C   0  0  1  0  0  0  0  0  0  0  0  0
    6.9087  -13.8375   23.5442 C   0  0  0  0  0  0  0  0  0  0  0  0
    6.9559  -13.2345   24.8873 C   0  0  0  0  0  0  0  0  0  0  0  0
    6.1815  -13.7215   25.9107 C   0  0  0  0  0  0  0  0  0  0  0  0
    6.2017  -13.1693   27.1901 C   0  0  0  0  0  0  0  0  0  0  0  0
    7.0196  -12.0991   27.4555 C   0  0  0  0  0  0  0  0  0  0  0  0
    7.8061  -11.5928   26.4451 C   0  0  0  0  0  0  0  0  0  0  0  0
    7.7715  -12.1550   25.1822 C   0  0  0  0  0  0  0  0  0  0  0  0
    8.5762  -15.6426   24.0776 C   0  0  0  0  0  0  0  0  0  0  0  0
    7.8515  -16.6836   24.2592 O   0  0  0  0  0  0  0  0  0  0  0  0
    9.7871  -15.5994   24.8220 N   0  0  0  0  0  0  0  0  0  0  0  0
   10.2042  -16.6730   25.7327 C   0  0  1  0  0  0  0  0  0  0  0  0
   11.7082  -16.7584   25.6766 C   0  0  0  0  0  0  0  0  0  0  0  0
   12.1961  -16.9830   24.3140 C   0  0  0  0  0  0  0  0  0  0  0  0
   13.1062  -16.2877   23.8120 O   0  0  0  0  0  0  0  0  0  0  0  0
    9.7578  -16.4247   27.1277 C   0  0  0  0  0  0  0  0  0  0  0  0
    9.2624  -15.1722   27.4319 O   0  0  0  0  0  0  0  0  0  0  0  0
   11.6598  -17.9929   23.5112 O   0  0  0  0  0  0  0  0  0  0  0  0
    9.8144  -17.2935   28.0167 O   0  0  0  0  0  0  0  0  0  0  0  0
  2  1  1  0
  3  5  1  0
  3  2  1  0
  3  4  1  6
  5  7  1  0
  6  5  2  0
  7  8  1  0
  8  9  1  1
  9 10  1  0
 10 11  2  0
 11 12  1  0
 13 12  2  0
 14 13  1  0
 15 10  1  0
 15 14  2  0
 16 17  2  0
 16  8  1  0
 18 16  1  0
 19 23  1  0
 19 18  1  0
 19 20  1  1
 21 22  2  0
 21 20  1  0
 23 24  1  0
 25 21  1  0
 26 23  2  0
M  END
$$$$
