SFD.pdb
     RDKit          3D

 26 26  0  0  1  0  0  0  0  0999 V2000
    8.6090  -18.9433   20.0004 O   0  0  0  0  0  0  0  0  0  0  0  0
    7.4715  -18.2363   19.6521 C   0  0  0  0  0  0  0  0  0  0  0  0
    7.8103  -16.7906   19.3612 C   0  0  2  0  0  0  0  0  0  0  0  0
    8.8371  -16.6943   18.3678 N   0  0  0  0  0  0  0  0  0  0  0  0
    8.2966  -16.1442   20.6075 C   0  0  0  0  0  0  0  0  0  0  0  0
    9.5294  -15.9588   20.7964 O   0  0  0  0  0  0  0  0  0  0  0  0
    7.4054  -15.7184   21.6151 N   0  0  0  0  0  0  0  0  0  0  0  0
    7.8337  -15.0872   22.8725 C   0  0  1  0  0  0  0  0  0  0  0  0
    6.6670  -14.3715   23.4563 C   0  0  0  0  0  0  0  0  0  0  0  0
    6.9163  -13.6688   24.7267 C   0  0  0  0  0  0  0  0  0  0  0  0
    7.2233  -12.3311   24.7485 C   0  0  0  0  0  0  0  0  0  0  0  0
    7.4683  -11.6405   25.9340 C   0  0  0  0  0  0  0  0  0  0  0  0
    7.4047  -12.3056   27.1333 C   0  0  0  0  0  0  0  0  0  0  0  0
    7.0984  -13.6479   27.1372 C   0  0  0  0  0  0  0  0  0  0  0  0
    6.8587  -14.3150   25.9500 C   0  0  0  0  0  0  0  0  0  0  0  0
    8.5098  -16.0612   23.7256 C   0  0  0  0  0  0  0  0  0  0  0  0
    8.0719  -17.2652   23.7459 O   0  0  0  0  0  0  0  0  0  0  0  0
    9.6359  -15.8030   24.5548 N   0  0  0  0  0  0  0  0  0  0  0  0
   10.4255  -16.8685   25.1849 C   0  0  1  0  0  0  0  0  0  0  0  0
   11.8635  -16.6702   24.7785 C   0  0  0  0  0  0  0  0  0  0  0  0
   12.7433  -17.6909   25.3521 C   0  0  0  0  0  0  0  0  0  0  0  0
   12.9915  -17.7408   26.5767 O   0  0  0  0  0  0  0  0  0  0  0  0
   10.3053  -16.8493   26.6655 C   0  0  0  0  0  0  0  0  0  0  0  0
    9.9971  -15.6472   27.2709 O   0  0  0  0  0  0  0  0  0  0  0  0
   13.3473  -18.6601   24.5473 O   0  0  0  0  0  0  0  0  0  0  0  0
   10.4704  -17.8638   27.3670 O   0  0  0  0  0  0  0  0  0  0  0  0
  2  1  1  0
  3  5  1  0
  3  2  1  0
  3  4  1  6
  5  7  1  0
  6  5  2  0
  7  8  1  0
  8  9  1  1
  9 10  1  0
 10 11  2  0
 11 12  1  0
 13 12  2  0
 14 13  1  0
 15 10  1  0
 15 14  2  0
 16 17  2  0
 16  8  1  0
 18 16  1  0
 19 23  1  0
 19 18  1  0
 19 20  1  1
 21 22  2  0
 21 20  1  0
 23 24  1  0
 25 21  1  0
 26 23  2  0
M  END
$$$$
