SFD.pdb
     RDKit          3D

 26 26  0  0  1  0  0  0  0  0999 V2000
    9.0675  -17.7460   19.9985 O   0  0  0  0  0  0  0  0  0  0  0  0
    7.7409  -17.4119   19.7891 C   0  0  0  0  0  0  0  0  0  0  0  0
    7.5836  -15.9134   19.6518 C   0  0  2  0  0  0  0  0  0  0  0  0
    8.3510  -15.4158   18.5501 N   0  0  0  0  0  0  0  0  0  0  0  0
    8.0629  -15.2575   20.8959 C   0  0  0  0  0  0  0  0  0  0  0  0
    9.2045  -14.7240   20.9424 O   0  0  0  0  0  0  0  0  0  0  0  0
    7.2660  -15.2081   22.0592 N   0  0  0  0  0  0  0  0  0  0  0  0
    7.7316  -14.6730   23.3475 C   0  0  1  0  0  0  0  0  0  0  0  0
    6.5691  -14.0608   24.0461 C   0  0  0  0  0  0  0  0  0  0  0  0
    6.8549  -13.4595   25.3600 C   0  0  0  0  0  0  0  0  0  0  0  0
    6.8714  -14.2231   26.5005 C   0  0  0  0  0  0  0  0  0  0  0  0
    7.1343  -13.6819   27.7577 C   0  0  0  0  0  0  0  0  0  0  0  0
    7.3884  -12.3383   27.8793 C   0  0  0  0  0  0  0  0  0  0  0  0
    7.3776  -11.5515   26.7495 C   0  0  0  0  0  0  0  0  0  0  0  0
    7.1145  -12.1078   25.5112 C   0  0  0  0  0  0  0  0  0  0  0  0
    8.4848  -15.6895   24.0777 C   0  0  0  0  0  0  0  0  0  0  0  0
    7.9963  -16.8712   24.1608 O   0  0  0  0  0  0  0  0  0  0  0  0
    9.7391  -15.4967   24.7193 N   0  0  0  0  0  0  0  0  0  0  0  0
   10.4733  -16.5822   25.3815 C   0  0  1  0  0  0  0  0  0  0  0  0
   11.9447  -16.2794   25.2552 C   0  0  0  0  0  0  0  0  0  0  0  0
   12.4188  -16.4190   23.8765 C   0  0  0  0  0  0  0  0  0  0  0  0
   11.8700  -17.1921   23.0611 O   0  0  0  0  0  0  0  0  0  0  0  0
   10.0997  -16.7149   26.8132 C   0  0  0  0  0  0  0  0  0  0  0  0
   10.6225  -17.7805   27.5189 O   0  0  0  0  0  0  0  0  0  0  0  0
   13.5142  -15.6872   23.4109 O   0  0  0  0  0  0  0  0  0  0  0  0
    9.3436  -15.9112   27.3883 O   0  0  0  0  0  0  0  0  0  0  0  0
  2  1  1  0
  3  5  1  0
  3  2  1  0
  3  4  1  6
  5  7  1  0
  6  5  2  0
  7  8  1  0
  8  9  1  1
  9 10  1  0
 10 11  2  0
 11 12  1  0
 13 12  2  0
 14 13  1  0
 15 10  1  0
 15 14  2  0
 16 17  2  0
 16  8  1  0
 18 16  1  0
 19 23  1  0
 19 18  1  0
 19 20  1  1
 21 22  2  0
 21 20  1  0
 23 24  1  0
 25 21  1  0
 26 23  2  0
M  END
$$$$
