SFD.pdb
     RDKit          3D

 26 26  0  0  1  0  0  0  0  0999 V2000
    7.4612  -16.6028   19.1260 O   0  0  0  0  0  0  0  0  0  0  0  0
    8.2717  -15.4837   19.2009 C   0  0  0  0  0  0  0  0  0  0  0  0
    7.6358  -14.4220   20.0714 C   0  0  2  0  0  0  0  0  0  0  0  0
    7.8179  -13.1188   19.5066 N   0  0  0  0  0  0  0  0  0  0  0  0
    8.2717  -14.4480   21.4141 C   0  0  0  0  0  0  0  0  0  0  0  0
    9.3809  -13.8816   21.6109 O   0  0  0  0  0  0  0  0  0  0  0  0
    7.6635  -15.1009   22.5070 N   0  0  0  0  0  0  0  0  0  0  0  0
    8.2033  -15.0815   23.8749 C   0  0  1  0  0  0  0  0  0  0  0  0
    7.0666  -14.9285   24.8229 C   0  0  0  0  0  0  0  0  0  0  0  0
    6.9622  -13.6207   25.4926 C   0  0  0  0  0  0  0  0  0  0  0  0
    7.6079  -13.3785   26.6794 C   0  0  0  0  0  0  0  0  0  0  0  0
    7.5244  -12.1532   27.3383 C   0  0  0  0  0  0  0  0  0  0  0  0
    6.7739  -11.1398   26.7957 C   0  0  0  0  0  0  0  0  0  0  0  0
    6.1169  -11.3586   25.6057 C   0  0  0  0  0  0  0  0  0  0  0  0
    6.2125  -12.5817   24.9676 C   0  0  0  0  0  0  0  0  0  0  0  0
    9.0950  -16.2191   24.0856 C   0  0  0  0  0  0  0  0  0  0  0  0
    8.6777  -17.3898   23.7735 O   0  0  0  0  0  0  0  0  0  0  0  0
   10.4145  -16.1574   24.6123 N   0  0  0  0  0  0  0  0  0  0  0  0
   11.2112  -17.3531   24.9143 C   0  0  1  0  0  0  0  0  0  0  0  0
   12.6653  -16.9686   24.8118 C   0  0  0  0  0  0  0  0  0  0  0  0
   13.0768  -16.7373   23.4254 C   0  0  0  0  0  0  0  0  0  0  0  0
   12.8622  -17.5739   22.5211 O   0  0  0  0  0  0  0  0  0  0  0  0
   10.9185  -17.8900   26.2682 C   0  0  0  0  0  0  0  0  0  0  0  0
   10.2220  -17.0816   27.1446 O   0  0  0  0  0  0  0  0  0  0  0  0
   13.7324  -15.5612   23.0524 O   0  0  0  0  0  0  0  0  0  0  0  0
   11.2741  -19.0253   26.6329 O   0  0  0  0  0  0  0  0  0  0  0  0
  2  1  1  0
  3  5  1  0
  3  2  1  0
  3  4  1  6
  5  7  1  0
  6  5  2  0
  7  8  1  0
  8  9  1  1
  9 10  1  0
 10 11  2  0
 11 12  1  0
 13 12  2  0
 14 13  1  0
 15 10  1  0
 15 14  2  0
 16 17  2  0
 16  8  1  0
 18 16  1  0
 19 23  1  0
 19 18  1  0
 19 20  1  1
 21 22  2  0
 21 20  1  0
 23 24  1  0
 25 21  1  0
 26 23  2  0
M  END
$$$$
