MCE.pdb
     RDKit          3D

 24 23  0  0  1  0  0  0  0  0999 V2000
   22.3078  -20.6478  -12.3737 C   0  0  0  0  0  0  0  0  0  0  0  0
   23.6147  -21.0912  -13.4945 S   0  0  0  0  0  0  0  0  0  0  0  0
   23.4539  -20.6534  -15.1864 C   0  0  0  0  0  0  0  0  0  0  0  0
   24.5105  -21.1242  -16.0970 C   0  0  0  0  0  0  0  0  0  0  0  0
   25.8954  -21.0428  -15.5971 C   0  0  2  0  0  0  0  0  0  0  0  0
   26.3733  -19.6691  -15.4637 N   0  0  0  0  0  0  0  0  0  0  0  0
   26.8393  -21.7407  -16.5688 C   0  0  0  0  0  0  0  0  0  0  0  0
   27.1634  -21.1327  -17.5899 O   0  0  0  0  0  0  0  0  0  0  0  0
   27.3442  -23.0398  -16.3383 N   0  0  0  0  0  0  0  0  0  0  0  0
   28.3222  -23.6771  -17.1836 C   0  0  1  0  0  0  0  0  0  0  0  0
   29.5873  -22.8715  -17.3227 C   0  0  0  0  0  0  0  0  0  0  0  0
   30.9655  -23.8012  -17.9823 S   0  0  0  0  0  0  0  0  0  0  0  0
   28.5627  -25.0735  -16.7410 C   0  0  0  0  0  0  0  0  0  0  0  0
   29.0065  -25.2772  -15.5739 O   0  0  0  0  0  0  0  0  0  0  0  0
   28.3225  -26.1961  -17.5527 N   0  0  0  0  0  0  0  0  0  0  0  0
   28.5783  -27.5774  -17.1293 C   0  0  1  0  0  0  0  0  0  0  0  0
   27.3674  -28.4105  -17.4574 C   0  0  0  0  0  0  0  0  0  0  0  0
   26.8567  -29.2467  -16.3430 C   0  0  0  0  0  0  0  0  0  0  0  0
   26.5985  -30.6539  -16.6666 C   0  0  0  0  0  0  0  0  0  0  0  0
   26.1456  -31.0946  -17.7295 O   0  0  0  0  0  0  0  0  0  0  0  0
   29.7210  -28.1495  -17.8837 C   0  0  0  0  0  0  0  0  0  0  0  0
   29.9731  -27.8132  -19.0656 O   0  0  0  0  0  0  0  0  0  0  0  0
   26.8981  -31.5954  -15.6623 O   0  0  0  0  0  0  0  0  0  0  0  0
   30.5464  -29.0849  -17.2824 O   0  0  0  0  0  0  0  0  0  0  0  0
  2  1  1  0
  3  2  1  0
  4  5  1  0
  4  3  1  0
  5  7  1  0
  5  6  1  6
  7  9  1  0
  7  8  2  0
  9 10  1  0
 10 13  1  0
 10 11  1  1
 12 11  1  0
 13 14  2  0
 15 16  1  0
 15 13  1  0
 16 21  1  0
 16 17  1  6
 18 17  1  0
 19 18  1  0
 19 20  2  0
 21 24  1  0
 22 21  2  0
 23 19  1  0
M  END
$$$$
