MCE.pdb
     RDKit          3D

 24 23  0  0  1  0  0  0  0  0999 V2000
   25.6151  -21.6175   -9.9034 C   0  0  0  0  0  0  0  0  0  0  0  0
   26.8289  -20.3260  -10.0434 S   0  0  0  0  0  0  0  0  0  0  0  0
   26.8705  -19.3694  -11.5142 C   0  0  0  0  0  0  0  0  0  0  0  0
   26.0513  -19.8474  -12.6401 C   0  0  0  0  0  0  0  0  0  0  0  0
   26.6175  -20.9433  -13.4481 C   0  0  2  0  0  0  0  0  0  0  0  0
   27.8314  -20.5564  -14.1623 N   0  0  0  0  0  0  0  0  0  0  0  0
   25.6109  -21.3823  -14.5046 C   0  0  0  0  0  0  0  0  0  0  0  0
   25.5116  -20.6956  -15.5224 O   0  0  0  0  0  0  0  0  0  0  0  0
   24.8030  -22.5315  -14.3546 N   0  0  0  0  0  0  0  0  0  0  0  0
   23.9016  -23.0112  -15.3717 C   0  0  1  0  0  0  0  0  0  0  0  0
   24.2814  -24.3720  -15.8937 C   0  0  0  0  0  0  0  0  0  0  0  0
   24.8857  -25.4858  -14.6314 S   0  0  0  0  0  0  0  0  0  0  0  0
   22.4961  -22.9361  -14.8999 C   0  0  0  0  0  0  0  0  0  0  0  0
   22.2695  -22.9097  -13.6555 O   0  0  0  0  0  0  0  0  0  0  0  0
   21.3891  -22.8916  -15.7655 N   0  0  0  0  0  0  0  0  0  0  0  0
   19.9959  -22.8711  -15.3062 C   0  0  1  0  0  0  0  0  0  0  0  0
   19.7146  -21.5258  -14.6906 C   0  0  0  0  0  0  0  0  0  0  0  0
   19.7536  -20.3806  -15.6334 C   0  0  0  0  0  0  0  0  0  0  0  0
   18.9058  -19.2359  -15.2833 C   0  0  0  0  0  0  0  0  0  0  0  0
   18.1708  -19.1384  -14.2937 O   0  0  0  0  0  0  0  0  0  0  0  0
   19.0678  -23.0306  -16.4531 C   0  0  0  0  0  0  0  0  0  0  0  0
   17.8289  -23.1488  -16.2950 O   0  0  0  0  0  0  0  0  0  0  0  0
   18.9346  -18.1385  -16.1664 O   0  0  0  0  0  0  0  0  0  0  0  0
   19.5644  -23.0522  -17.7456 O   0  0  0  0  0  0  0  0  0  0  0  0
  2  1  1  0
  3  2  1  0
  4  5  1  0
  4  3  1  0
  5  7  1  0
  5  6  1  6
  7  9  1  0
  7  8  2  0
  9 10  1  0
 10 13  1  0
 10 11  1  1
 12 11  1  0
 13 14  2  0
 15 16  1  0
 15 13  1  0
 16 21  1  0
 16 17  1  6
 18 17  1  0
 19 18  1  0
 19 20  2  0
 21 24  1  0
 22 21  2  0
 23 19  1  0
M  END
$$$$
