MCE.pdb
     RDKit          3D

 24 23  0  0  1  0  0  0  0  0999 V2000
   18.1927  -15.0594  -21.4494 C   0  0  0  0  0  0  0  0  0  0  0  0
   18.8758  -14.0169  -20.1815 S   0  0  0  0  0  0  0  0  0  0  0  0
   19.3301  -14.7453  -18.6507 C   0  0  0  0  0  0  0  0  0  0  0  0
   19.8606  -13.8412  -17.6171 C   0  0  0  0  0  0  0  0  0  0  0  0
   21.0592  -13.0610  -17.9766 C   0  0  2  0  0  0  0  0  0  0  0  0
   22.2785  -13.8649  -17.9937 N   0  0  0  0  0  0  0  0  0  0  0  0
   21.2819  -11.9523  -16.9552 C   0  0  0  0  0  0  0  0  0  0  0  0
   21.6922  -12.2746  -15.8393 O   0  0  0  0  0  0  0  0  0  0  0  0
   21.0363  -10.5914  -17.2438 N   0  0  0  0  0  0  0  0  0  0  0  0
   21.2893   -9.5202  -16.3133 C   0  0  1  0  0  0  0  0  0  0  0  0
   22.4900   -8.6920  -16.6891 C   0  0  0  0  0  0  0  0  0  0  0  0
   22.7730   -7.2986  -15.6041 S   0  0  0  0  0  0  0  0  0  0  0  0
   20.0623   -8.7116  -16.1034 C   0  0  0  0  0  0  0  0  0  0  0  0
   19.4146   -8.3098  -17.1131 O   0  0  0  0  0  0  0  0  0  0  0  0
   19.5719   -8.3626  -14.8327 N   0  0  0  0  0  0  0  0  0  0  0  0
   18.3634   -7.5589  -14.6183 C   0  0  1  0  0  0  0  0  0  0  0  0
   17.8232   -7.8636  -13.2459 C   0  0  0  0  0  0  0  0  0  0  0  0
   17.1239   -9.1661  -13.1186 C   0  0  0  0  0  0  0  0  0  0  0  0
   16.5387   -9.4512  -11.8042 C   0  0  0  0  0  0  0  0  0  0  0  0
   15.8567  -10.4365  -11.4990 O   0  0  0  0  0  0  0  0  0  0  0  0
   18.6891   -6.1114  -14.6493 C   0  0  0  0  0  0  0  0  0  0  0  0
   19.8724   -5.6963  -14.6846 O   0  0  0  0  0  0  0  0  0  0  0  0
   16.7804   -8.5042  -10.7894 O   0  0  0  0  0  0  0  0  0  0  0  0
   17.6700   -5.1739  -14.6395 O   0  0  0  0  0  0  0  0  0  0  0  0
  2  1  1  0
  3  2  1  0
  4  5  1  0
  4  3  1  0
  5  7  1  0
  5  6  1  1
  7  9  1  0
  7  8  2  0
  9 10  1  0
 10 13  1  0
 10 11  1  6
 12 11  1  0
 13 14  2  0
 15 16  1  0
 15 13  1  0
 16 21  1  0
 16 17  1  1
 18 17  1  0
 19 18  1  0
 19 20  2  0
 21 24  1  0
 22 21  2  0
 23 19  1  0
M  END
$$$$
