MCE.pdb
     RDKit          3D

 24 23  0  0  1  0  0  0  0  0999 V2000
   31.3318  -20.3078   -9.8930 C   0  0  0  0  0  0  0  0  0  0  0  0
   30.2142  -21.6902   -9.9242 S   0  0  0  0  0  0  0  0  0  0  0  0
   29.2403  -21.9497  -11.3609 C   0  0  0  0  0  0  0  0  0  0  0  0
   28.4227  -20.8157  -11.8222 C   0  0  0  0  0  0  0  0  0  0  0  0
   27.5450  -21.0645  -12.9807 C   0  0  2  0  0  0  0  0  0  0  0  0
   28.2862  -21.3047  -14.2161 N   0  0  0  0  0  0  0  0  0  0  0  0
   26.6605  -19.8493  -13.2318 C   0  0  0  0  0  0  0  0  0  0  0  0
   26.3536  -19.1534  -12.2628 O   0  0  0  0  0  0  0  0  0  0  0  0
   26.1905  -19.5032  -14.5183 N   0  0  0  0  0  0  0  0  0  0  0  0
   25.2622  -18.4290  -14.7662 C   0  0  1  0  0  0  0  0  0  0  0  0
   25.9048  -17.2468  -15.4431 C   0  0  0  0  0  0  0  0  0  0  0  0
   27.3198  -16.5943  -14.5650 S   0  0  0  0  0  0  0  0  0  0  0  0
   24.0620  -18.9318  -15.4803 C   0  0  0  0  0  0  0  0  0  0  0  0
   24.2095  -19.4914  -16.6054 O   0  0  0  0  0  0  0  0  0  0  0  0
   22.7553  -18.8216  -14.9731 N   0  0  0  0  0  0  0  0  0  0  0  0
   21.5673  -19.3361  -15.6633 C   0  0  1  0  0  0  0  0  0  0  0  0
   20.7132  -20.0701  -14.6634 C   0  0  0  0  0  0  0  0  0  0  0  0
   19.6571  -19.2530  -14.0161 C   0  0  0  0  0  0  0  0  0  0  0  0
   18.7384  -19.9797  -13.1333 C   0  0  0  0  0  0  0  0  0  0  0  0
   17.7207  -19.5276  -12.5957 O   0  0  0  0  0  0  0  0  0  0  0  0
   20.7517  -18.2178  -16.1986 C   0  0  0  0  0  0  0  0  0  0  0  0
   19.8749  -18.3954  -17.0779 O   0  0  0  0  0  0  0  0  0  0  0  0
   19.0504  -21.3289  -12.8742 O   0  0  0  0  0  0  0  0  0  0  0  0
   20.9492  -16.9312  -15.7260 O   0  0  0  0  0  0  0  0  0  0  0  0
  2  1  1  0
  3  2  1  0
  4  5  1  0
  4  3  1  0
  5  7  1  0
  5  6  1  6
  7  9  1  0
  7  8  2  0
  9 10  1  0
 10 13  1  0
 10 11  1  6
 12 11  1  0
 13 14  2  0
 15 16  1  0
 15 13  1  0
 16 21  1  0
 16 17  1  1
 18 17  1  0
 19 18  1  0
 19 20  2  0
 21 24  1  0
 22 21  2  0
 23 19  1  0
M  END
$$$$
