MCE.pdb
     RDKit          3D

 24 23  0  0  1  0  0  0  0  0999 V2000
   28.4311   -6.8253  -23.6617 C   0  0  0  0  0  0  0  0  0  0  0  0
   27.0655   -6.9072  -22.5263 S   0  0  0  0  0  0  0  0  0  0  0  0
   26.8183   -8.3874  -21.6164 C   0  0  0  0  0  0  0  0  0  0  0  0
   25.6460   -8.4318  -20.7270 C   0  0  0  0  0  0  0  0  0  0  0  0
   25.4824   -9.6504  -19.9129 C   0  0  2  0  0  0  0  0  0  0  0  0
   25.1414  -10.8263  -20.7093 N   0  0  0  0  0  0  0  0  0  0  0  0
   24.3493   -9.4575  -18.9124 C   0  0  0  0  0  0  0  0  0  0  0  0
   23.2003   -9.6782  -19.2978 O   0  0  0  0  0  0  0  0  0  0  0  0
   24.5726   -9.0407  -17.5812 N   0  0  0  0  0  0  0  0  0  0  0  0
   23.5292   -8.9352  -16.5926 C   0  0  1  0  0  0  0  0  0  0  0  0
   23.7268   -9.8755  -15.4327 C   0  0  0  0  0  0  0  0  0  0  0  0
   22.6178   -9.5735  -14.0624 S   0  0  0  0  0  0  0  0  0  0  0  0
   23.3464   -7.5221  -16.1766 C   0  0  0  0  0  0  0  0  0  0  0  0
   24.3542   -6.8643  -15.7862 O   0  0  0  0  0  0  0  0  0  0  0  0
   22.1040   -6.8640  -16.1918 N   0  0  0  0  0  0  0  0  0  0  0  0
   21.9041   -5.4896  -15.7190 C   0  0  1  0  0  0  0  0  0  0  0  0
   20.5093   -5.0556  -16.0854 C   0  0  0  0  0  0  0  0  0  0  0  0
   20.1428   -3.6834  -15.6557 C   0  0  0  0  0  0  0  0  0  0  0  0
   18.7756   -3.2581  -15.9740 C   0  0  0  0  0  0  0  0  0  0  0  0
   17.9161   -3.9220  -16.5653 O   0  0  0  0  0  0  0  0  0  0  0  0
   22.0075   -5.4282  -14.2399 C   0  0  0  0  0  0  0  0  0  0  0  0
   21.5517   -6.3351  -13.5029 O   0  0  0  0  0  0  0  0  0  0  0  0
   18.4083   -1.9617  -15.5627 O   0  0  0  0  0  0  0  0  0  0  0  0
   22.6224   -4.3448  -13.6351 O   0  0  0  0  0  0  0  0  0  0  0  0
  2  1  1  0
  3  2  1  0
  4  5  1  0
  4  3  1  0
  5  7  1  0
  5  6  1  6
  7  9  1  0
  7  8  2  0
  9 10  1  0
 10 13  1  0
 10 11  1  1
 12 11  1  0
 13 14  2  0
 15 16  1  0
 15 13  1  0
 16 21  1  0
 16 17  1  1
 18 17  1  0
 19 18  1  0
 19 20  2  0
 21 24  1  0
 22 21  2  0
 23 19  1  0
M  END
$$$$
