MCE.pdb
     RDKit          3D

 24 23  0  0  1  0  0  0  0  0999 V2000
   17.3274  -13.3547  -18.4275 C   0  0  0  0  0  0  0  0  0  0  0  0
   18.3786  -14.7883  -18.4002 S   0  0  0  0  0  0  0  0  0  0  0  0
   20.0507  -14.5935  -17.9036 C   0  0  0  0  0  0  0  0  0  0  0  0
   20.5920  -13.2246  -17.9180 C   0  0  0  0  0  0  0  0  0  0  0  0
   22.0163  -13.0757  -17.5661 C   0  0  2  0  0  0  0  0  0  0  0  0
   22.6385  -14.3344  -17.1639 N   0  0  0  0  0  0  0  0  0  0  0  0
   22.1622  -12.1207  -16.3876 C   0  0  0  0  0  0  0  0  0  0  0  0
   21.5401  -12.3824  -15.3571 O   0  0  0  0  0  0  0  0  0  0  0  0
   22.9739  -10.9657  -16.4404 N   0  0  0  0  0  0  0  0  0  0  0  0
   23.1583  -10.0687  -15.3275 C   0  0  1  0  0  0  0  0  0  0  0  0
   24.5174  -10.1990  -14.6916 C   0  0  0  0  0  0  0  0  0  0  0  0
   25.5092  -11.5216  -15.3742 S   0  0  0  0  0  0  0  0  0  0  0  0
   22.8262   -8.6762  -15.7200 C   0  0  0  0  0  0  0  0  0  0  0  0
   23.1539   -8.2712  -16.8730 O   0  0  0  0  0  0  0  0  0  0  0  0
   22.1605   -7.7705  -14.8755 N   0  0  0  0  0  0  0  0  0  0  0  0
   21.8649   -6.3810  -15.2421 C   0  0  1  0  0  0  0  0  0  0  0  0
   20.3756   -6.2378  -15.4143 C   0  0  0  0  0  0  0  0  0  0  0  0
   19.8945   -4.8480  -15.6109 C   0  0  0  0  0  0  0  0  0  0  0  0
   18.4655   -4.7028  -15.9083 C   0  0  0  0  0  0  0  0  0  0  0  0
   17.6309   -5.6126  -15.9778 O   0  0  0  0  0  0  0  0  0  0  0  0
   22.2705   -5.4581  -14.1530 C   0  0  0  0  0  0  0  0  0  0  0  0
   22.4385   -4.2306  -14.3492 O   0  0  0  0  0  0  0  0  0  0  0  0
   18.0006   -3.3927  -16.1371 O   0  0  0  0  0  0  0  0  0  0  0  0
   22.4749   -5.9473  -12.8737 O   0  0  0  0  0  0  0  0  0  0  0  0
  2  1  1  0
  3  2  1  0
  4  5  1  0
  4  3  1  0
  5  7  1  0
  5  6  1  1
  7  9  1  0
  7  8  2  0
  9 10  1  0
 10 13  1  0
 10 11  1  6
 12 11  1  0
 13 14  2  0
 15 16  1  0
 15 13  1  0
 16 21  1  0
 16 17  1  1
 18 17  1  0
 19 18  1  0
 19 20  2  0
 21 24  1  0
 22 21  2  0
 23 19  1  0
M  END
$$$$
