MCE.pdb
     RDKit          3D

 24 23  0  0  1  0  0  0  0  0999 V2000
   19.0562  -15.2280  -11.8070 C   0  0  0  0  0  0  0  0  0  0  0  0
   19.3719  -16.6698  -12.7981 S   0  0  0  0  0  0  0  0  0  0  0  0
   19.2698  -16.5265  -14.5443 C   0  0  0  0  0  0  0  0  0  0  0  0
   19.7977  -15.2884  -15.1406 C   0  0  0  0  0  0  0  0  0  0  0  0
   19.7056  -15.1725  -16.6078 C   0  0  2  0  0  0  0  0  0  0  0  0
   20.5491  -16.1363  -17.3097 N   0  0  0  0  0  0  0  0  0  0  0  0
   20.1654  -13.7880  -17.0485 C   0  0  0  0  0  0  0  0  0  0  0  0
   21.3778  -13.5805  -17.1144 O   0  0  0  0  0  0  0  0  0  0  0  0
   19.2600  -12.7547  -17.3773 N   0  0  0  0  0  0  0  0  0  0  0  0
   19.6695  -11.4525  -17.8399 C   0  0  1  0  0  0  0  0  0  0  0  0
   19.1820  -11.1477  -19.2320 C   0  0  0  0  0  0  0  0  0  0  0  0
   19.7604  -12.3040  -20.4680 S   0  0  0  0  0  0  0  0  0  0  0  0
   19.3038  -10.4090  -16.8495 C   0  0  0  0  0  0  0  0  0  0  0  0
   18.2199  -10.5279  -16.2079 O   0  0  0  0  0  0  0  0  0  0  0  0
   20.1014   -9.2831  -16.5794 N   0  0  0  0  0  0  0  0  0  0  0  0
   19.7206   -8.2207  -15.6421 C   0  0  1  0  0  0  0  0  0  0  0  0
   20.9746   -7.6290  -15.0541 C   0  0  0  0  0  0  0  0  0  0  0  0
   20.7596   -6.4932  -14.1238 C   0  0  0  0  0  0  0  0  0  0  0  0
   21.9734   -5.8672  -13.5888 C   0  0  0  0  0  0  0  0  0  0  0  0
   22.1586   -4.6589  -13.4022 O   0  0  0  0  0  0  0  0  0  0  0  0
   19.0129   -7.1278  -16.3541 C   0  0  0  0  0  0  0  0  0  0  0  0
   19.2331   -6.8685  -17.5616 O   0  0  0  0  0  0  0  0  0  0  0  0
   23.0331   -6.7335  -13.2549 O   0  0  0  0  0  0  0  0  0  0  0  0
   18.0769   -6.3590  -15.6830 O   0  0  0  0  0  0  0  0  0  0  0  0
  2  1  1  0
  3  2  1  0
  4  5  1  0
  4  3  1  0
  5  7  1  0
  5  6  1  6
  7  9  1  0
  7  8  2  0
  9 10  1  0
 10 13  1  0
 10 11  1  6
 12 11  1  0
 13 14  2  0
 15 16  1  0
 15 13  1  0
 16 21  1  0
 16 17  1  6
 18 17  1  0
 19 18  1  0
 19 20  2  0
 21 24  1  0
 22 21  2  0
 23 19  1  0
M  END
$$$$
