MCE.pdb
     RDKit          3D

 24 23  0  0  1  0  0  0  0  0999 V2000
   27.4741  -19.1805   -6.0432 C   0  0  0  0  0  0  0  0  0  0  0  0
   28.6691  -20.4783   -6.2632 S   0  0  0  0  0  0  0  0  0  0  0  0
   28.7636  -21.2763   -7.8235 C   0  0  0  0  0  0  0  0  0  0  0  0
   27.8219  -20.8215   -8.8596 C   0  0  0  0  0  0  0  0  0  0  0  0
   27.9448  -21.4551  -10.1854 C   0  0  2  0  0  0  0  0  0  0  0  0
   29.2984  -21.3812  -10.7291 N   0  0  0  0  0  0  0  0  0  0  0  0
   27.0346  -20.7499  -11.1837 C   0  0  0  0  0  0  0  0  0  0  0  0
   27.0110  -19.5184  -11.1675 O   0  0  0  0  0  0  0  0  0  0  0  0
   26.2319  -21.4528  -12.1096 N   0  0  0  0  0  0  0  0  0  0  0  0
   25.3507  -20.8094  -13.0512 C   0  0  1  0  0  0  0  0  0  0  0  0
   26.0009  -20.5682  -14.3883 C   0  0  0  0  0  0  0  0  0  0  0  0
   27.7882  -20.5407  -14.3266 S   0  0  0  0  0  0  0  0  0  0  0  0
   24.0654  -21.5455  -13.1491 C   0  0  0  0  0  0  0  0  0  0  0  0
   24.0776  -22.8088  -13.0818 O   0  0  0  0  0  0  0  0  0  0  0  0
   22.8205  -20.9131  -13.3136 N   0  0  0  0  0  0  0  0  0  0  0  0
   21.5396  -21.6283  -13.3331 C   0  0  1  0  0  0  0  0  0  0  0  0
   20.4272  -20.6158  -13.4082 C   0  0  0  0  0  0  0  0  0  0  0  0
   19.0576  -21.1856  -13.4448 C   0  0  0  0  0  0  0  0  0  0  0  0
   17.9622  -20.2120  -13.5065 C   0  0  0  0  0  0  0  0  0  0  0  0
   18.0716  -18.9810  -13.5471 O   0  0  0  0  0  0  0  0  0  0  0  0
   21.4382  -22.4808  -14.5436 C   0  0  0  0  0  0  0  0  0  0  0  0
   20.8376  -23.5821  -14.5333 O   0  0  0  0  0  0  0  0  0  0  0  0
   16.6547  -20.7365  -13.5209 O   0  0  0  0  0  0  0  0  0  0  0  0
   22.0177  -22.0659  -15.7309 O   0  0  0  0  0  0  0  0  0  0  0  0
  2  1  1  0
  3  2  1  0
  4  5  1  0
  4  3  1  0
  5  7  1  0
  5  6  1  6
  7  9  1  0
  7  8  2  0
  9 10  1  0
 10 13  1  0
 10 11  1  6
 12 11  1  0
 13 14  2  0
 15 16  1  0
 15 13  1  0
 16 21  1  0
 16 17  1  6
 18 17  1  0
 19 18  1  0
 19 20  2  0
 21 24  1  0
 22 21  2  0
 23 19  1  0
M  END
$$$$
