MCE.pdb
     RDKit          3D

 24 23  0  0  1  0  0  0  0  0999 V2000
   27.1017  -15.4483  -13.8480 C   0  0  0  0  0  0  0  0  0  0  0  0
   27.0883  -15.3204  -15.6213 S   0  0  0  0  0  0  0  0  0  0  0  0
   25.5406  -15.2478  -16.4457 C   0  0  0  0  0  0  0  0  0  0  0  0
   24.5071  -14.3901  -15.8427 C   0  0  0  0  0  0  0  0  0  0  0  0
   23.1957  -14.3659  -16.5166 C   0  0  2  0  0  0  0  0  0  0  0  0
   23.0929  -15.3416  -17.5986 N   0  0  0  0  0  0  0  0  0  0  0  0
   22.9585  -12.9960  -17.1405 C   0  0  0  0  0  0  0  0  0  0  0  0
   23.3161  -12.8276  -18.3072 O   0  0  0  0  0  0  0  0  0  0  0  0
   22.3525  -11.9331  -16.4343 N   0  0  0  0  0  0  0  0  0  0  0  0
   21.9414  -10.6972  -17.0514 C   0  0  1  0  0  0  0  0  0  0  0  0
   20.9866  -10.9063  -18.1974 C   0  0  0  0  0  0  0  0  0  0  0  0
   19.5861  -11.9412  -17.7896 S   0  0  0  0  0  0  0  0  0  0  0  0
   21.4314   -9.7490  -16.0296 C   0  0  0  0  0  0  0  0  0  0  0  0
   20.7175  -10.1940  -15.0846 O   0  0  0  0  0  0  0  0  0  0  0  0
   21.6989   -8.3688  -16.0507 N   0  0  0  0  0  0  0  0  0  0  0  0
   21.1842   -7.4237  -15.0535 C   0  0  1  0  0  0  0  0  0  0  0  0
   21.9372   -6.1267  -15.1899 C   0  0  0  0  0  0  0  0  0  0  0  0
   21.5871   -5.0864  -14.1914 C   0  0  0  0  0  0  0  0  0  0  0  0
   22.2883   -3.8056  -14.3306 C   0  0  0  0  0  0  0  0  0  0  0  0
   23.3287   -3.6002  -14.9665 O   0  0  0  0  0  0  0  0  0  0  0  0
   19.7524   -7.1277  -15.3078 C   0  0  0  0  0  0  0  0  0  0  0  0
   19.2755   -7.0958  -16.4676 O   0  0  0  0  0  0  0  0  0  0  0  0
   21.7153   -2.7000  -13.6716 O   0  0  0  0  0  0  0  0  0  0  0  0
   18.9001   -6.8763  -14.2458 O   0  0  0  0  0  0  0  0  0  0  0  0
  2  1  1  0
  3  2  1  0
  4  5  1  0
  4  3  1  0
  5  7  1  0
  5  6  1  6
  7  9  1  0
  7  8  2  0
  9 10  1  0
 10 13  1  0
 10 11  1  6
 12 11  1  0
 13 14  2  0
 15 16  1  0
 15 13  1  0
 16 21  1  0
 16 17  1  6
 18 17  1  0
 19 18  1  0
 19 20  2  0
 21 24  1  0
 22 21  2  0
 23 19  1  0
M  END
$$$$
