MCE.pdb
     RDKit          3D

 24 23  0  0  1  0  0  0  0  0999 V2000
   14.6231  -12.9179  -19.8356 C   0  0  0  0  0  0  0  0  0  0  0  0
   15.3025  -11.6311  -18.8141 S   0  0  0  0  0  0  0  0  0  0  0  0
   16.4776  -12.0674  -17.5856 C   0  0  0  0  0  0  0  0  0  0  0  0
   17.0406  -10.9674  -16.7855 C   0  0  0  0  0  0  0  0  0  0  0  0
   18.0182  -11.3417  -15.7468 C   0  0  2  0  0  0  0  0  0  0  0  0
   17.4044  -12.0044  -14.5990 N   0  0  0  0  0  0  0  0  0  0  0  0
   18.7098  -10.0937  -15.2117 C   0  0  0  0  0  0  0  0  0  0  0  0
   18.2285   -9.5546  -14.2140 O   0  0  0  0  0  0  0  0  0  0  0  0
   19.8643   -9.5463  -15.8141 N   0  0  0  0  0  0  0  0  0  0  0  0
   20.5146   -8.3471  -15.3490 C   0  0  1  0  0  0  0  0  0  0  0  0
   21.9984   -8.5235  -15.1598 C   0  0  0  0  0  0  0  0  0  0  0  0
   22.4452   -9.2253  -13.5765 S   0  0  0  0  0  0  0  0  0  0  0  0
   20.1678   -7.1953  -16.2188 C   0  0  0  0  0  0  0  0  0  0  0  0
   20.3853   -7.2808  -17.4622 O   0  0  0  0  0  0  0  0  0  0  0  0
   19.6045   -6.0011  -15.7358 N   0  0  0  0  0  0  0  0  0  0  0  0
   19.3181   -4.8356  -16.5797 C   0  0  1  0  0  0  0  0  0  0  0  0
   18.3801   -3.9235  -15.8338 C   0  0  0  0  0  0  0  0  0  0  0  0
   16.9526   -4.0316  -16.2239 C   0  0  0  0  0  0  0  0  0  0  0  0
   15.9974   -4.1714  -15.1195 C   0  0  0  0  0  0  0  0  0  0  0  0
   15.4305   -5.2107  -14.7624 O   0  0  0  0  0  0  0  0  0  0  0  0
   20.5595   -4.0665  -16.8432 C   0  0  0  0  0  0  0  0  0  0  0  0
   21.6456   -4.3428  -16.2795 O   0  0  0  0  0  0  0  0  0  0  0  0
   15.6983   -3.0008  -14.3947 O   0  0  0  0  0  0  0  0  0  0  0  0
   20.5396   -3.0077  -17.7355 O   0  0  0  0  0  0  0  0  0  0  0  0
  2  1  1  0
  3  2  1  0
  4  5  1  0
  4  3  1  0
  5  7  1  0
  5  6  1  1
  7  9  1  0
  7  8  2  0
  9 10  1  0
 10 13  1  0
 10 11  1  6
 12 11  1  0
 13 14  2  0
 15 16  1  0
 15 13  1  0
 16 21  1  0
 16 17  1  1
 18 17  1  0
 19 18  1  0
 19 20  2  0
 21 24  1  0
 22 21  2  0
 23 19  1  0
M  END
$$$$
