MSV.pdb
     RDKit          3D

 22 21  0  0  1  0  0  0  0  0999 V2000
   12.8208  -15.0030  -12.5687 C   0  0  0  0  0  0  0  0  0  0  0  0
   13.3385  -13.5365  -11.6442 S   0  0  0  0  0  0  0  0  0  0  0  0
   14.9021  -12.8750  -12.2553 C   0  0  0  0  0  0  0  0  0  0  0  0
   15.3214  -11.6395  -11.4726 C   0  0  0  0  0  0  0  0  0  0  0  0
   16.6146  -11.0716  -12.0133 C   0  0  2  0  0  0  0  0  0  0  0  0
   17.6416  -12.0754  -11.8052 N   0  0  0  0  0  0  0  0  0  0  0  0
   16.9356   -9.8178  -11.2565 C   0  0  0  0  0  0  0  0  0  0  0  0
   17.5255   -9.8704  -10.1484 O   0  0  0  0  0  0  0  0  0  0  0  0
   16.8563   -6.2481  -13.1193 O   0  0  0  0  0  0  0  0  0  0  0  0
   17.6208   -6.3716  -11.9627 C   0  0  0  0  0  0  0  0  0  0  0  0
   16.8917   -7.3194  -11.0034 C   0  0  2  0  0  0  0  0  0  0  0  0
   16.5944   -8.5353  -11.7464 N   0  0  0  0  0  0  0  0  0  0  0  0
   15.6767   -6.6966  -10.4559 C   0  0  0  0  0  0  0  0  0  0  0  0
   14.5837   -6.8681  -11.0318 O   0  0  0  0  0  0  0  0  0  0  0  0
   15.2683   -5.7066   -6.3048 C   0  0  0  0  0  0  0  0  0  0  0  0
   14.2197   -5.6520   -7.3663 C   0  0  2  0  0  0  0  0  0  0  0  0
   13.6175   -7.0374   -7.5913 C   0  0  0  0  0  0  0  0  0  0  0  0
   14.6901   -5.1598   -8.6999 C   0  0  2  0  0  0  0  0  0  0  0  0
   15.7691   -5.9117   -9.2824 N   0  0  0  0  0  0  0  0  0  0  0  0
   15.0017   -3.6960   -8.7125 C   0  0  0  0  0  0  0  0  0  0  0  0
   16.1804   -3.3175   -8.8445 O   0  0  0  0  0  0  0  0  0  0  0  0
   14.0050   -2.7483   -8.5799 O   0  0  0  0  0  0  0  0  0  0  0  0
  2  1  1  0
  3  2  1  0
  4  5  1  0
  4  3  1  0
  5  6  1  1
  7  5  1  0
  8  7  2  0
 11 10  1  6
 10  9  1  0
 11 13  1  0
 11 12  1  0
 12  7  1  0
 13 19  1  0
 14 13  2  0
 16 15  1  1
 16 17  1  0
 18 20  1  0
 18 16  1  0
 18 19  1  1
 20 22  1  0
 21 20  2  0
M  END
$$$$
