MSV.pdb
     RDKit          3D

 22 21  0  0  1  0  0  0  0  0999 V2000
   18.8039  -17.1288  -17.1286 C   0  0  0  0  0  0  0  0  0  0  0  0
   18.2457  -15.5520  -16.4391 S   0  0  0  0  0  0  0  0  0  0  0  0
   18.9675  -14.1457  -17.3094 C   0  0  0  0  0  0  0  0  0  0  0  0
   18.5608  -12.8298  -16.6631 C   0  0  0  0  0  0  0  0  0  0  0  0
   19.2821  -11.6670  -17.3071 C   0  0  2  0  0  0  0  0  0  0  0  0
   20.6967  -11.9904  -17.3091 N   0  0  0  0  0  0  0  0  0  0  0  0
   19.0195  -10.4357  -16.4931 C   0  0  0  0  0  0  0  0  0  0  0  0
   17.8471  -10.0176  -16.3219 O   0  0  0  0  0  0  0  0  0  0  0  0
   22.1632   -8.2105  -15.0032 O   0  0  0  0  0  0  0  0  0  0  0  0
   21.0222   -8.2690  -14.2080 C   0  0  0  0  0  0  0  0  0  0  0  0
   19.8103   -8.4859  -15.1215 C   0  0  2  0  0  0  0  0  0  0  0  0
   20.0635   -9.6969  -15.8885 N   0  0  0  0  0  0  0  0  0  0  0  0
   19.5790   -7.3213  -15.9898 C   0  0  0  0  0  0  0  0  0  0  0  0
   20.1369   -7.2632  -17.1038 O   0  0  0  0  0  0  0  0  0  0  0  0
   16.1606   -5.8025  -17.0491 C   0  0  0  0  0  0  0  0  0  0  0  0
   16.9939   -4.7391  -16.4133 C   0  0  2  0  0  0  0  0  0  0  0  0
   16.9137   -3.4457  -17.2216 C   0  0  0  0  0  0  0  0  0  0  0  0
   18.4465   -5.0721  -16.2673 C   0  0  2  0  0  0  0  0  0  0  0  0
   18.7254   -6.2843  -15.5451 N   0  0  0  0  0  0  0  0  0  0  0  0
   19.2605   -3.9383  -15.7272 C   0  0  0  0  0  0  0  0  0  0  0  0
   19.3308   -3.7608  -14.4969 O   0  0  0  0  0  0  0  0  0  0  0  0
   19.9404   -3.0779  -16.5678 O   0  0  0  0  0  0  0  0  0  0  0  0
  2  1  1  0
  3  2  1  0
  4  5  1  0
  4  3  1  0
  5  6  1  1
  7  5  1  0
  8  7  2  0
 11 10  1  1
 10  9  1  0
 11 13  1  0
 11 12  1  0
 12  7  1  0
 13 19  1  0
 14 13  2  0
 16 15  1  6
 16 17  1  0
 18 20  1  0
 18 16  1  0
 18 19  1  1
 20 22  1  0
 21 20  2  0
M  END
$$$$
