MSV.pdb
     RDKit          3D

 22 21  0  0  1  0  0  0  0  0999 V2000
   14.5326  -11.3112  -20.3270 C   0  0  0  0  0  0  0  0  0  0  0  0
   14.1099  -12.8744  -19.5201 S   0  0  0  0  0  0  0  0  0  0  0  0
   15.1283  -13.1736  -18.0609 C   0  0  0  0  0  0  0  0  0  0  0  0
   15.2793  -11.9107  -17.2259 C   0  0  0  0  0  0  0  0  0  0  0  0
   16.1932  -12.1509  -16.0451 C   0  0  2  0  0  0  0  0  0  0  0  0
   15.6733  -13.3015  -15.3300 N   0  0  0  0  0  0  0  0  0  0  0  0
   16.1744  -10.9308  -15.1742 C   0  0  0  0  0  0  0  0  0  0  0  0
   15.1546  -10.6385  -14.5010 O   0  0  0  0  0  0  0  0  0  0  0  0
   18.7156   -9.2229  -12.5402 O   0  0  0  0  0  0  0  0  0  0  0  0
   18.6195   -8.5533  -13.7567 C   0  0  0  0  0  0  0  0  0  0  0  0
   17.2234   -8.8079  -14.3366 C   0  0  2  0  0  0  0  0  0  0  0  0
   17.2871  -10.0633  -15.0708 N   0  0  0  0  0  0  0  0  0  0  0  0
   16.7861   -7.6919  -15.1893 C   0  0  0  0  0  0  0  0  0  0  0  0
   17.0518   -7.7070  -16.4078 O   0  0  0  0  0  0  0  0  0  0  0  0
   13.3772   -5.3607  -14.0860 C   0  0  0  0  0  0  0  0  0  0  0  0
   14.0817   -5.3681  -15.4024 C   0  0  2  0  0  0  0  0  0  0  0  0
   13.5995   -6.5381  -16.2576 C   0  0  0  0  0  0  0  0  0  0  0  0
   15.5735   -5.4715  -15.3244 C   0  0  2  0  0  0  0  0  0  0  0  0
   16.0696   -6.6177  -14.6109 N   0  0  0  0  0  0  0  0  0  0  0  0
   16.2268   -4.2196  -14.8287 C   0  0  0  0  0  0  0  0  0  0  0  0
   16.1405   -3.1727  -15.4970 O   0  0  0  0  0  0  0  0  0  0  0  0
   16.9287   -4.1984  -13.6387 O   0  0  0  0  0  0  0  0  0  0  0  0
  2  1  1  0
  3  2  1  0
  4  5  1  0
  4  3  1  0
  5  6  1  1
  7  5  1  0
  8  7  2  0
 11 10  1  6
 10  9  1  0
 11 13  1  0
 11 12  1  0
 12  7  1  0
 13 19  1  0
 14 13  2  0
 16 15  1  1
 16 17  1  0
 18 20  1  0
 18 16  1  0
 18 19  1  1
 20 22  1  0
 21 20  2  0
M  END
$$$$
