MSV.pdb
     RDKit          3D

 22 21  0  0  1  0  0  0  0  0999 V2000
   25.6505  -15.9060  -15.2833 C   0  0  0  0  0  0  0  0  0  0  0  0
   24.5970  -14.4672  -15.5893 S   0  0  0  0  0  0  0  0  0  0  0  0
   24.8832  -13.7615  -17.2252 C   0  0  0  0  0  0  0  0  0  0  0  0
   24.0762  -12.4872  -17.4246 C   0  0  0  0  0  0  0  0  0  0  0  0
   22.6074  -12.7321  -17.1609 C   0  0  2  0  0  0  0  0  0  0  0  0
   22.1147  -13.5715  -18.2373 N   0  0  0  0  0  0  0  0  0  0  0  0
   21.8998  -11.4104  -17.1511 C   0  0  0  0  0  0  0  0  0  0  0  0
   21.8427  -10.7054  -18.1895 O   0  0  0  0  0  0  0  0  0  0  0  0
   19.6226  -10.3196  -13.9591 O   0  0  0  0  0  0  0  0  0  0  0  0
   19.3541   -9.7014  -15.1769 C   0  0  0  0  0  0  0  0  0  0  0  0
   20.6701   -9.5770  -15.9534 C   0  0  2  0  0  0  0  0  0  0  0  0
   21.2727  -10.9016  -15.9896 N   0  0  0  0  0  0  0  0  0  0  0  0
   21.5623   -8.5818  -15.3390 C   0  0  0  0  0  0  0  0  0  0  0  0
   22.4598   -8.9578  -14.5588 O   0  0  0  0  0  0  0  0  0  0  0  0
   23.6043   -4.1087  -15.7544 C   0  0  0  0  0  0  0  0  0  0  0  0
   22.6891   -5.1874  -16.2319 C   0  0  2  0  0  0  0  0  0  0  0  0
   21.4367   -4.5823  -16.8629 C   0  0  0  0  0  0  0  0  0  0  0  0
   22.2265   -6.1424  -15.1755 C   0  0  2  0  0  0  0  0  0  0  0  0
   21.3864   -7.2116  -15.6444 N   0  0  0  0  0  0  0  0  0  0  0  0
   21.6040   -5.4622  -13.9966 C   0  0  0  0  0  0  0  0  0  0  0  0
   20.3664   -5.4719  -13.8615 O   0  0  0  0  0  0  0  0  0  0  0  0
   22.3761   -4.8192  -13.0481 O   0  0  0  0  0  0  0  0  0  0  0  0
  2  1  1  0
  3  2  1  0
  4  5  1  0
  4  3  1  0
  5  6  1  6
  7  5  1  0
  8  7  2  0
 11 10  1  1
 10  9  1  0
 11 13  1  0
 11 12  1  0
 12  7  1  0
 13 19  1  0
 14 13  2  0
 16 15  1  1
 16 17  1  0
 18 20  1  0
 18 16  1  0
 18 19  1  6
 20 22  1  0
 21 20  2  0
M  END
$$$$
