MSV.pdb
     RDKit          3D

 22 21  0  0  1  0  0  0  0  0999 V2000
   15.7499  -14.0954  -14.5656 C   0  0  0  0  0  0  0  0  0  0  0  0
   14.9629  -12.9641  -15.7379 S   0  0  0  0  0  0  0  0  0  0  0  0
   15.9885  -12.6889  -17.1968 C   0  0  0  0  0  0  0  0  0  0  0  0
   17.2676  -11.9465  -16.8394 C   0  0  0  0  0  0  0  0  0  0  0  0
   18.1256  -11.7290  -18.0656 C   0  0  2  0  0  0  0  0  0  0  0  0
   18.7713  -12.9937  -18.3645 N   0  0  0  0  0  0  0  0  0  0  0  0
   19.1432  -10.6737  -17.7519 C   0  0  0  0  0  0  0  0  0  0  0  0
   20.2406  -10.9780  -17.2210 O   0  0  0  0  0  0  0  0  0  0  0  0
   20.4619   -6.0507  -18.3897 O   0  0  0  0  0  0  0  0  0  0  0  0
   19.4585   -7.0090  -18.5001 C   0  0  0  0  0  0  0  0  0  0  0  0
   19.9444   -8.2943  -17.8202 C   0  0  2  0  0  0  0  0  0  0  0  0
   18.9195   -9.3056  -18.0340 N   0  0  0  0  0  0  0  0  0  0  0  0
   20.2132   -8.0751  -16.3906 C   0  0  0  0  0  0  0  0  0  0  0  0
   19.2747   -8.1345  -15.5714 O   0  0  0  0  0  0  0  0  0  0  0  0
   22.7787  -10.0192  -14.5030 C   0  0  0  0  0  0  0  0  0  0  0  0
   23.0128   -8.5892  -14.1429 C   0  0  2  0  0  0  0  0  0  0  0  0
   23.1244   -8.4333  -12.6277 C   0  0  0  0  0  0  0  0  0  0  0  0
   21.9529   -7.6364  -14.6020 C   0  0  2  0  0  0  0  0  0  0  0  0
   21.5352   -7.7998  -15.9686 N   0  0  0  0  0  0  0  0  0  0  0  0
   22.2846   -6.2043  -14.3206 C   0  0  0  0  0  0  0  0  0  0  0  0
   22.5466   -5.4352  -15.2639 O   0  0  0  0  0  0  0  0  0  0  0  0
   22.3073   -5.7126  -13.0295 O   0  0  0  0  0  0  0  0  0  0  0  0
  2  1  1  0
  3  2  1  0
  4  5  1  0
  4  3  1  0
  5  6  1  1
  7  5  1  0
  8  7  2  0
 11 10  1  1
 10  9  1  0
 11 13  1  0
 11 12  1  0
 12  7  1  0
 13 19  1  0
 14 13  2  0
 16 15  1  1
 16 17  1  0
 18 20  1  0
 18 16  1  0
 18 19  1  6
 20 22  1  0
 21 20  2  0
M  END
$$$$
