YNT.pdb
     RDKit          3D

 28 28  0  0  1  0  0  0  0  0999 V2000
    4.1457  -23.7747   27.2742 O   0  0  0  0  0  0  0  0  0  0  0  0
    4.8471  -23.0854   26.2967 C   0  0  0  0  0  0  0  0  0  0  0  0
    4.1152  -22.3217   25.3867 C   0  0  0  0  0  0  0  0  0  0  0  0
    4.7663  -21.6118   24.3878 C   0  0  0  0  0  0  0  0  0  0  0  0
    6.1276  -21.6776   24.3171 C   0  0  0  0  0  0  0  0  0  0  0  0
    6.8740  -20.9363   23.2690 C   0  0  0  0  0  0  0  0  0  0  0  0
    6.7102  -21.5998   21.9179 C   0  0  2  0  0  0  0  0  0  0  0  0
    7.0565  -22.9988   21.9710 N   0  0  0  0  0  0  0  0  0  0  0  0
    7.5252  -20.8829   20.9180 C   0  0  0  0  0  0  0  0  0  0  0  0
    8.7008  -21.2941   20.6448 O   0  0  0  0  0  0  0  0  0  0  0  0
    6.8614  -22.4392   25.2246 C   0  0  0  0  0  0  0  0  0  0  0  0
    6.2250  -23.1381   26.2074 C   0  0  0  0  0  0  0  0  0  0  0  0
    9.2765  -17.7851   17.0169 N   0  0  0  0  0  0  0  0  0  0  0  0
    7.8560  -17.8078   17.0568 C   0  0  0  0  0  0  0  0  0  0  0  0
    7.2545  -17.3177   16.0377 O   0  0  0  0  0  0  0  0  0  0  0  0
    7.1098  -18.3615   18.2010 C   0  0  0  0  0  0  0  0  0  0  0  0
    7.9379  -19.0263   19.2441 C   0  0  2  0  0  0  0  0  0  0  0  0
    7.0861  -19.7294   20.2116 N   0  0  0  0  0  0  0  0  0  0  0  0
    8.9312  -18.1876   19.9280 C   0  0  0  0  0  0  0  0  0  0  0  0
    9.7258  -17.5087   19.1973 O   0  0  0  0  0  0  0  0  0  0  0  0
    8.8120  -15.0017   21.4371 C   0  0  0  0  0  0  0  0  0  0  0  0
    9.3638  -15.9130   22.5076 C   0  0  1  0  0  0  0  0  0  0  0  0
    8.3556  -16.2626   23.3725 O   0  0  0  0  0  0  0  0  0  0  0  0
   10.0577  -17.1212   21.9094 C   0  0  2  0  0  0  0  0  0  0  0  0
    9.1127  -18.0370   21.3102 N   0  0  0  0  0  0  0  0  0  0  0  0
   10.9120  -17.6938   22.9423 C   0  0  0  0  0  0  0  0  0  0  0  0
   10.6888  -18.8573   23.3430 O   0  0  0  0  0  0  0  0  0  0  0  0
   11.9528  -16.9607   23.4695 O   0  0  0  0  0  0  0  0  0  0  0  0
  1  2  1  0
  2 12  2  0
  3  4  2  0
  3  2  1  0
  4  5  1  0
  5  6  1  0
  5 11  2  0
  7  8  1  1
  7  6  1  0
  9  7  1  0
  9 10  2  0
 12 11  1  0
 13 14  1  0
 14 16  1  0
 14 15  2  0
 17 16  1  6
 17 18  1  0
 17 19  1  0
 18  9  1  0
 19 20  2  0
 19 25  1  0
 22 21  1  6
 22 23  1  0
 24 22  1  0
 24 25  1  1
 26 28  1  0
 26 24  1  0
 27 26  2  0
M  END
$$$$
