YNT.pdb
     RDKit          3D

 28 28  0  0  1  0  0  0  0  0999 V2000
   13.6924  -16.0127   10.3012 O   0  0  0  0  0  0  0  0  0  0  0  0
   13.7269  -16.3017   11.6570 C   0  0  0  0  0  0  0  0  0  0  0  0
   12.5616  -16.7909   12.2482 C   0  0  0  0  0  0  0  0  0  0  0  0
   12.5401  -17.0964   13.6016 C   0  0  0  0  0  0  0  0  0  0  0  0
   13.6759  -16.9087   14.3345 C   0  0  0  0  0  0  0  0  0  0  0  0
   13.7079  -17.2211   15.7860 C   0  0  0  0  0  0  0  0  0  0  0  0
   12.3057  -17.3070   16.3509 C   0  0  2  0  0  0  0  0  0  0  0  0
   11.5991  -16.0584   16.2026 N   0  0  0  0  0  0  0  0  0  0  0  0
   12.3721  -17.7212   17.7658 C   0  0  0  0  0  0  0  0  0  0  0  0
   12.3565  -16.8392   18.6866 O   0  0  0  0  0  0  0  0  0  0  0  0
   14.8415  -16.4204   13.7470 C   0  0  0  0  0  0  0  0  0  0  0  0
   14.8662  -16.1192   12.4174 C   0  0  0  0  0  0  0  0  0  0  0  0
   11.7696  -21.3411   17.6186 N   0  0  0  0  0  0  0  0  0  0  0  0
   11.1935  -21.3805   18.9173 C   0  0  0  0  0  0  0  0  0  0  0  0
   10.2652  -22.2443   19.0973 O   0  0  0  0  0  0  0  0  0  0  0  0
   11.6329  -20.4825   20.0004 C   0  0  0  0  0  0  0  0  0  0  0  0
   12.6228  -19.4424   19.6079 C   0  0  2  0  0  0  0  0  0  0  0  0
   12.4552  -19.0739   18.1966 N   0  0  0  0  0  0  0  0  0  0  0  0
   14.0310  -19.7261   19.9151 C   0  0  0  0  0  0  0  0  0  0  0  0
   14.3063  -20.1019   21.1022 O   0  0  0  0  0  0  0  0  0  0  0  0
   18.8777  -19.9748   18.6795 C   0  0  0  0  0  0  0  0  0  0  0  0
   17.4605  -19.6225   18.2941 C   0  0  1  0  0  0  0  0  0  0  0  0
   17.0923  -20.3554   17.1922 O   0  0  0  0  0  0  0  0  0  0  0  0
   16.5039  -19.8050   19.4562 C   0  0  2  0  0  0  0  0  0  0  0  0
   15.1277  -19.6362   19.0461 N   0  0  0  0  0  0  0  0  0  0  0  0
   16.9463  -18.9265   20.5320 C   0  0  0  0  0  0  0  0  0  0  0  0
   17.9399  -19.2537   21.2175 O   0  0  0  0  0  0  0  0  0  0  0  0
   16.2768  -17.7499   20.7890 O   0  0  0  0  0  0  0  0  0  0  0  0
  1  2  1  0
  2 12  2  0
  3  4  2  0
  3  2  1  0
  4  5  1  0
  5  6  1  0
  5 11  2  0
  7  8  1  1
  7  6  1  0
  9  7  1  0
  9 10  2  0
 12 11  1  0
 13 14  1  0
 14 16  1  0
 14 15  2  0
 17 16  1  6
 17 18  1  0
 17 19  1  0
 18  9  1  0
 19 20  2  0
 19 25  1  0
 22 21  1  1
 22 23  1  0
 24 22  1  0
 24 25  1  6
 26 28  1  0
 26 24  1  0
 27 26  2  0
M  END
$$$$
