YNT.pdb
     RDKit          3D

 28 28  0  0  1  0  0  0  0  0999 V2000
    6.0146  -12.4241   16.3201 O   0  0  0  0  0  0  0  0  0  0  0  0
    6.7955  -13.1628   17.1960 C   0  0  0  0  0  0  0  0  0  0  0  0
    7.6742  -14.1005   16.6524 C   0  0  0  0  0  0  0  0  0  0  0  0
    8.4791  -14.8672   17.4830 C   0  0  0  0  0  0  0  0  0  0  0  0
    8.3917  -14.6840   18.8326 C   0  0  0  0  0  0  0  0  0  0  0  0
    9.2313  -15.4769   19.7662 C   0  0  0  0  0  0  0  0  0  0  0  0
    8.7546  -16.9124   19.8349 C   0  0  2  0  0  0  0  0  0  0  0  0
    7.4487  -17.0069   20.4398 N   0  0  0  0  0  0  0  0  0  0  0  0
    9.7457  -17.7232   20.5686 C   0  0  0  0  0  0  0  0  0  0  0  0
    9.5927  -17.9360   21.8165 O   0  0  0  0  0  0  0  0  0  0  0  0
    7.5152  -13.7482   19.3786 C   0  0  0  0  0  0  0  0  0  0  0  0
    6.7228  -12.9931   18.5655 C   0  0  0  0  0  0  0  0  0  0  0  0
   11.1609  -19.6206   18.1323 N   0  0  0  0  0  0  0  0  0  0  0  0
   11.9337  -20.5201   18.9155 C   0  0  0  0  0  0  0  0  0  0  0  0
   12.1665  -21.6665   18.3940 O   0  0  0  0  0  0  0  0  0  0  0  0
   12.4421  -20.1625   20.2521 C   0  0  0  0  0  0  0  0  0  0  0  0
   12.0154  -18.8317   20.7645 C   0  0  2  0  0  0  0  0  0  0  0  0
   10.8976  -18.3051   19.9714 N   0  0  0  0  0  0  0  0  0  0  0  0
   13.0691  -17.8211   20.9265 C   0  0  0  0  0  0  0  0  0  0  0  0
   12.9874  -16.7708   20.2080 O   0  0  0  0  0  0  0  0  0  0  0  0
   12.4995  -15.5541   22.2260 C   0  0  0  0  0  0  0  0  0  0  0  0
   13.5937  -15.9418   23.1921 C   0  0  1  0  0  0  0  0  0  0  0  0
   13.0463  -16.6261   24.2500 O   0  0  0  0  0  0  0  0  0  0  0  0
   14.6946  -16.7251   22.5040 C   0  0  2  0  0  0  0  0  0  0  0  0
   14.1707  -17.8698   21.7928 N   0  0  0  0  0  0  0  0  0  0  0  0
   15.7122  -17.0243   23.5038 C   0  0  0  0  0  0  0  0  0  0  0  0
   15.8084  -18.1900   23.9468 O   0  0  0  0  0  0  0  0  0  0  0  0
   16.5575  -16.0337   23.9541 O   0  0  0  0  0  0  0  0  0  0  0  0
  1  2  1  0
  2 12  2  0
  3  4  2  0
  3  2  1  0
  4  5  1  0
  5  6  1  0
  5 11  2  0
  7  8  1  1
  7  6  1  0
  9  7  1  0
  9 10  2  0
 12 11  1  0
 13 14  1  0
 14 16  1  0
 14 15  2  0
 17 16  1  6
 17 18  1  0
 17 19  1  0
 18  9  1  0
 19 20  2  0
 19 25  1  0
 22 21  1  6
 22 23  1  0
 24 22  1  0
 24 25  1  1
 26 28  1  0
 26 24  1  0
 27 26  2  0
M  END
$$$$
