YNT.pdb
     RDKit          3D

 28 28  0  0  1  0  0  0  0  0999 V2000
    7.3278  -12.2419   17.8951 O   0  0  0  0  0  0  0  0  0  0  0  0
    7.6382  -12.9682   19.0348 C   0  0  0  0  0  0  0  0  0  0  0  0
    6.5846  -13.3777   19.8528 C   0  0  0  0  0  0  0  0  0  0  0  0
    6.8382  -14.1069   21.0059 C   0  0  0  0  0  0  0  0  0  0  0  0
    8.1313  -14.4113   21.3183 C   0  0  0  0  0  0  0  0  0  0  0  0
    8.4581  -15.1905   22.5396 C   0  0  0  0  0  0  0  0  0  0  0  0
    9.0927  -16.5174   22.1799 C   0  0  2  0  0  0  0  0  0  0  0  0
    8.1345  -17.5938   22.2367 N   0  0  0  0  0  0  0  0  0  0  0  0
   10.2383  -16.7711   23.0749 C   0  0  0  0  0  0  0  0  0  0  0  0
   10.2322  -17.7912   23.8400 O   0  0  0  0  0  0  0  0  0  0  0  0
    9.1858  -14.0039   20.5034 C   0  0  0  0  0  0  0  0  0  0  0  0
    8.9403  -13.2873   19.3696 C   0  0  0  0  0  0  0  0  0  0  0  0
   14.0386  -14.4199   21.3257 N   0  0  0  0  0  0  0  0  0  0  0  0
   14.0252  -15.5784   22.1489 C   0  0  0  0  0  0  0  0  0  0  0  0
   14.2745  -16.6901   21.5637 O   0  0  0  0  0  0  0  0  0  0  0  0
   13.7415  -15.5134   23.5939 C   0  0  0  0  0  0  0  0  0  0  0  0
   12.5193  -16.2367   24.0397 C   0  0  2  0  0  0  0  0  0  0  0  0
   11.3877  -15.9374   23.1532 N   0  0  0  0  0  0  0  0  0  0  0  0
   12.1401  -16.0794   25.4501 C   0  0  0  0  0  0  0  0  0  0  0  0
   13.0350  -16.3189   26.3264 O   0  0  0  0  0  0  0  0  0  0  0  0
    9.6974  -13.1468   27.0781 C   0  0  0  0  0  0  0  0  0  0  0  0
    9.4238  -14.5522   27.5584 C   0  0  1  0  0  0  0  0  0  0  0  0
    8.2984  -15.0355   26.9365 O   0  0  0  0  0  0  0  0  0  0  0  0
   10.6265  -15.4542   27.3606 C   0  0  2  0  0  0  0  0  0  0  0  0
   10.8937  -15.6874   25.9588 N   0  0  0  0  0  0  0  0  0  0  0  0
   10.4142  -16.6525   28.1628 C   0  0  0  0  0  0  0  0  0  0  0  0
   10.2806  -17.7555   27.5887 O   0  0  0  0  0  0  0  0  0  0  0  0
   10.3619  -16.5692   29.5372 O   0  0  0  0  0  0  0  0  0  0  0  0
  1  2  1  0
  2 12  2  0
  3  4  2  0
  3  2  1  0
  4  5  1  0
  5  6  1  0
  5 11  2  0
  7  8  1  1
  7  6  1  0
  9  7  1  0
  9 10  2  0
 12 11  1  0
 13 14  1  0
 14 16  1  0
 14 15  2  0
 17 16  1  6
 17 18  1  0
 17 19  1  0
 18  9  1  0
 19 20  2  0
 19 25  1  0
 22 21  1  6
 22 23  1  0
 24 22  1  0
 24 25  1  6
 26 28  1  0
 26 24  1  0
 27 26  2  0
M  END
$$$$
