YNT.pdb
     RDKit          3D

 28 28  0  0  1  0  0  0  0  0999 V2000
    8.3037  -12.9300   16.5830 O   0  0  0  0  0  0  0  0  0  0  0  0
    7.9726  -13.3961   17.8463 C   0  0  0  0  0  0  0  0  0  0  0  0
    7.3446  -14.6388   17.9378 C   0  0  0  0  0  0  0  0  0  0  0  0
    6.9910  -15.1531   19.1772 C   0  0  0  0  0  0  0  0  0  0  0  0
    7.2696  -14.4212   20.2948 C   0  0  0  0  0  0  0  0  0  0  0  0
    6.9140  -14.9256   21.6456 C   0  0  0  0  0  0  0  0  0  0  0  0
    8.1563  -15.1609   22.4785 C   0  0  2  0  0  0  0  0  0  0  0  0
    9.1793  -15.8394   21.7213 N   0  0  0  0  0  0  0  0  0  0  0  0
    7.7959  -15.9187   23.6925 C   0  0  0  0  0  0  0  0  0  0  0  0
    6.8196  -15.5316   24.4156 O   0  0  0  0  0  0  0  0  0  0  0  0
    7.8968  -13.1799   20.2068 C   0  0  0  0  0  0  0  0  0  0  0  0
    8.2457  -12.6714   18.9907 C   0  0  0  0  0  0  0  0  0  0  0  0
    6.5578  -20.2804   26.7995 N   0  0  0  0  0  0  0  0  0  0  0  0
    7.9028  -20.0595   26.3966 C   0  0  0  0  0  0  0  0  0  0  0  0
    8.8067  -20.6007   27.1250 O   0  0  0  0  0  0  0  0  0  0  0  0
    8.2466  -19.2553   25.2102 C   0  0  0  0  0  0  0  0  0  0  0  0
    8.1240  -17.7814   25.3783 C   0  0  2  0  0  0  0  0  0  0  0  0
    8.4765  -17.0867   24.1337 N   0  0  0  0  0  0  0  0  0  0  0  0
    8.8223  -17.1906   26.5277 C   0  0  0  0  0  0  0  0  0  0  0  0
    8.6038  -17.7068   27.6731 O   0  0  0  0  0  0  0  0  0  0  0  0
   10.0608  -13.4817   29.2088 C   0  0  0  0  0  0  0  0  0  0  0  0
    9.3848  -14.2995   28.1340 C   0  0  1  0  0  0  0  0  0  0  0  0
    9.0566  -13.4833   27.0790 O   0  0  0  0  0  0  0  0  0  0  0  0
   10.2382  -15.4786   27.7094 C   0  0  2  0  0  0  0  0  0  0  0  0
    9.7184  -16.1121   26.5182 N   0  0  0  0  0  0  0  0  0  0  0  0
   10.3872  -16.3527   28.8663 C   0  0  0  0  0  0  0  0  0  0  0  0
    9.9339  -17.5172   28.8137 O   0  0  0  0  0  0  0  0  0  0  0  0
   11.0206  -15.9001   30.0032 O   0  0  0  0  0  0  0  0  0  0  0  0
  1  2  1  0
  2 12  2  0
  3  4  2  0
  3  2  1  0
  4  5  1  0
  5  6  1  0
  5 11  2  0
  7  8  1  6
  7  6  1  0
  9  7  1  0
  9 10  2  0
 12 11  1  0
 13 14  1  0
 14 16  1  0
 14 15  2  0
 17 16  1  6
 17 18  1  0
 17 19  1  0
 18  9  1  0
 19 20  2  0
 19 25  1  0
 22 21  1  1
 22 23  1  0
 24 22  1  0
 24 25  1  6
 26 28  1  0
 26 24  1  0
 27 26  2  0
M  END
$$$$
