YNT.pdb
     RDKit          3D

 28 28  0  0  1  0  0  0  0  0999 V2000
    7.5234  -11.4154   17.9984 O   0  0  0  0  0  0  0  0  0  0  0  0
    7.8984  -12.3887   18.9121 C   0  0  0  0  0  0  0  0  0  0  0  0
    9.2492  -12.4785   19.2500 C   0  0  0  0  0  0  0  0  0  0  0  0
    9.6798  -13.4345   20.1589 C   0  0  0  0  0  0  0  0  0  0  0  0
    8.7589  -14.2775   20.7100 C   0  0  0  0  0  0  0  0  0  0  0  0
    9.1657  -15.3174   21.6890 C   0  0  0  0  0  0  0  0  0  0  0  0
    9.8745  -16.4627   20.9972 C   0  0  2  0  0  0  0  0  0  0  0  0
    9.0223  -17.1006   20.0240 N   0  0  0  0  0  0  0  0  0  0  0  0
   10.3498  -17.4269   22.0082 C   0  0  0  0  0  0  0  0  0  0  0  0
    9.6642  -18.4722   22.2599 O   0  0  0  0  0  0  0  0  0  0  0  0
    7.4090  -14.1903   20.3747 C   0  0  0  0  0  0  0  0  0  0  0  0
    6.9823  -13.2522   19.4819 C   0  0  0  0  0  0  0  0  0  0  0  0
   13.7842  -19.3484   26.0557 N   0  0  0  0  0  0  0  0  0  0  0  0
   14.0422  -19.3848   24.6585 C   0  0  0  0  0  0  0  0  0  0  0  0
   14.7928  -20.3377   24.2475 O   0  0  0  0  0  0  0  0  0  0  0  0
   13.4823  -18.3873   23.7289 C   0  0  0  0  0  0  0  0  0  0  0  0
   11.9990  -18.2630   23.7403 C   0  0  2  0  0  0  0  0  0  0  0  0
   11.5541  -17.2753   22.7491 N   0  0  0  0  0  0  0  0  0  0  0  0
   11.3698  -18.0205   25.0453 C   0  0  0  0  0  0  0  0  0  0  0  0
   11.5887  -16.8931   25.5995 O   0  0  0  0  0  0  0  0  0  0  0  0
    7.7599  -18.4876   28.3054 C   0  0  0  0  0  0  0  0  0  0  0  0
    8.4298  -18.8890   27.0127 C   0  0  1  0  0  0  0  0  0  0  0  0
    7.7691  -18.3085   25.9575 O   0  0  0  0  0  0  0  0  0  0  0  0
    9.9089  -18.5554   27.0231 C   0  0  2  0  0  0  0  0  0  0  0  0
   10.5405  -18.8912   25.7665 N   0  0  0  0  0  0  0  0  0  0  0  0
   10.4929  -19.1829   28.2020 C   0  0  0  0  0  0  0  0  0  0  0  0
   11.3115  -20.1168   28.0539 O   0  0  0  0  0  0  0  0  0  0  0  0
   10.1464  -18.7508   29.4637 O   0  0  0  0  0  0  0  0  0  0  0  0
  1  2  1  0
  2 12  2  0
  3  4  2  0
  3  2  1  0
  4  5  1  0
  5  6  1  0
  5 11  2  0
  7  8  1  6
  7  6  1  0
  9  7  1  0
  9 10  2  0
 12 11  1  0
 13 14  1  0
 14 16  1  0
 14 15  2  0
 17 16  1  1
 17 18  1  0
 17 19  1  0
 18  9  1  0
 19 20  2  0
 19 25  1  0
 22 21  1  1
 22 23  1  0
 24 22  1  0
 24 25  1  6
 26 28  1  0
 26 24  1  0
 27 26  2  0
M  END
$$$$
