GID.pdb
     RDKit          3D

 21 20  0  0  1  0  0  0  0  0999 V2000
   18.3881  -12.9507  -17.6819 N   0  0  0  0  0  0  0  0  0  0  0  0
   19.1596  -11.7898  -18.0146 C   0  0  0  0  0  0  0  0  0  0  0  0
   19.9563  -11.3100  -16.8319 C   0  0  0  0  0  0  0  0  0  0  0  0
   19.3337  -11.0631  -15.7761 O   0  0  0  0  0  0  0  0  0  0  0  0
   23.9664  -13.8657  -14.8374 C   0  0  0  0  0  0  0  0  0  0  0  0
   22.8397  -12.9705  -15.2302 C   0  0  0  0  0  0  0  0  0  0  0  0
   23.1764  -11.5370  -15.4393 C   0  0  2  0  0  0  0  0  0  0  0  0
   24.1308  -11.0382  -14.3756 C   0  0  0  0  0  0  0  0  0  0  0  0
   22.1511  -10.6169  -15.9243 C   0  0  2  0  0  0  0  0  0  0  0  0
   21.3595  -11.1706  -16.9964 N   0  0  0  0  0  0  0  0  0  0  0  0
   22.4616   -9.1887  -16.0894 C   0  0  0  0  0  0  0  0  0  0  0  0
   23.0323   -8.7023  -17.0815 O   0  0  0  0  0  0  0  0  0  0  0  0
   22.0991   -8.2892  -15.0565 N   0  0  0  0  0  0  0  0  0  0  0  0
   22.2901   -6.8381  -15.1716 C   0  0  1  0  0  0  0  0  0  0  0  0
   21.4597   -6.3570  -16.3173 C   0  0  0  0  0  0  0  0  0  0  0  0
   21.4806   -4.8957  -16.4663 C   0  0  0  0  0  0  0  0  0  0  0  0
   22.4962   -4.2244  -16.2351 O   0  0  0  0  0  0  0  0  0  0  0  0
   21.9187   -6.1870  -13.9004 C   0  0  0  0  0  0  0  0  0  0  0  0
   22.0478   -4.8550  -13.5966 O   0  0  0  0  0  0  0  0  0  0  0  0
   20.3423   -4.1837  -16.8810 O   0  0  0  0  0  0  0  0  0  0  0  0
   21.4262   -6.9255  -12.9816 O   0  0  0  0  0  0  0  0  0  0  0  0
  1  2  1  0
  2  3  1  0
  3 10  1  0
  3  4  2  0
  6  7  1  0
  6  5  1  0
  7  8  1  1
  9  7  1  0
  9 10  1  6
 11  9  1  0
 11 13  1  0
 12 11  2  0
 14 15  1  6
 14 13  1  0
 14 18  1  0
 16 20  1  0
 16 15  1  0
 17 16  2  0
 18 19  1  0
 21 18  2  0
M  END
$$$$
