GID.pdb
     RDKit          3D

 21 20  0  0  1  0  0  0  0  0999 V2000
   15.4495  -10.4215  -14.8046 N   0  0  0  0  0  0  0  0  0  0  0  0
   16.0953   -9.4503  -15.6372 C   0  0  0  0  0  0  0  0  0  0  0  0
   17.4157   -9.0266  -15.0533 C   0  0  0  0  0  0  0  0  0  0  0  0
   17.4451   -8.7381  -13.8372 O   0  0  0  0  0  0  0  0  0  0  0  0
   19.8753  -11.8778  -16.1314 C   0  0  0  0  0  0  0  0  0  0  0  0
   20.5612  -11.0045  -15.1354 C   0  0  0  0  0  0  0  0  0  0  0  0
   20.8474   -9.6098  -15.5653 C   0  0  2  0  0  0  0  0  0  0  0  0
   22.2836   -9.2311  -15.2738 C   0  0  0  0  0  0  0  0  0  0  0  0
   19.8232   -8.5805  -15.4088 C   0  0  2  0  0  0  0  0  0  0  0  0
   18.5367   -8.9837  -15.9235 N   0  0  0  0  0  0  0  0  0  0  0  0
   20.1516   -7.1697  -15.6645 C   0  0  0  0  0  0  0  0  0  0  0  0
   20.1126   -6.6294  -16.7840 O   0  0  0  0  0  0  0  0  0  0  0  0
   20.5470   -6.3545  -14.5754 N   0  0  0  0  0  0  0  0  0  0  0  0
   20.9327   -4.9478  -14.7428 C   0  0  1  0  0  0  0  0  0  0  0  0
   19.8535   -4.1036  -14.1457 C   0  0  0  0  0  0  0  0  0  0  0  0
   20.1091   -2.6637  -14.2854 C   0  0  0  0  0  0  0  0  0  0  0  0
   20.2910   -1.9287  -13.3046 O   0  0  0  0  0  0  0  0  0  0  0  0
   22.2424   -4.7138  -14.1043 C   0  0  0  0  0  0  0  0  0  0  0  0
   23.2642   -3.9407  -14.5957 O   0  0  0  0  0  0  0  0  0  0  0  0
   20.1601   -2.0462  -15.5467 O   0  0  0  0  0  0  0  0  0  0  0  0
   22.4607   -5.2817  -12.9809 O   0  0  0  0  0  0  0  0  0  0  0  0
  1  2  1  0
  2  3  1  0
  3 10  1  0
  3  4  2  0
  6  7  1  0
  6  5  1  0
  7  8  1  1
  9  7  1  0
  9 10  1  6
 11  9  1  0
 11 13  1  0
 12 11  2  0
 14 15  1  1
 14 13  1  0
 14 18  1  0
 16 20  1  0
 16 15  1  0
 17 16  2  0
 18 19  1  0
 21 18  2  0
M  END
$$$$
