GID.pdb
     RDKit          3D

 21 20  0  0  1  0  0  0  0  0999 V2000
   17.8905  -12.3870  -16.9835 N   0  0  0  0  0  0  0  0  0  0  0  0
   18.6126  -11.2314  -17.4270 C   0  0  0  0  0  0  0  0  0  0  0  0
   19.4917  -10.6878  -16.3336 C   0  0  0  0  0  0  0  0  0  0  0  0
   18.9962  -10.5830  -15.1905 O   0  0  0  0  0  0  0  0  0  0  0  0
   24.1183  -12.5930  -15.0518 C   0  0  0  0  0  0  0  0  0  0  0  0
   22.8145  -11.8925  -15.2384 C   0  0  0  0  0  0  0  0  0  0  0  0
   22.8743  -10.4146  -15.3933 C   0  0  2  0  0  0  0  0  0  0  0  0
   23.8529   -9.8009  -14.4150 C   0  0  0  0  0  0  0  0  0  0  0  0
   21.6560   -9.6700  -15.7002 C   0  0  2  0  0  0  0  0  0  0  0  0
   20.8227  -10.3312  -16.6754 N   0  0  0  0  0  0  0  0  0  0  0  0
   21.7049   -8.2078  -15.8520 C   0  0  0  0  0  0  0  0  0  0  0  0
   22.0474   -7.6189  -16.8924 O   0  0  0  0  0  0  0  0  0  0  0  0
   21.3464   -7.3962  -14.7474 N   0  0  0  0  0  0  0  0  0  0  0  0
   21.4681   -5.9332  -14.7715 C   0  0  1  0  0  0  0  0  0  0  0  0
   20.1561   -5.3725  -15.2164 C   0  0  0  0  0  0  0  0  0  0  0  0
   20.1508   -3.9047  -15.2756 C   0  0  0  0  0  0  0  0  0  0  0  0
   21.1477   -3.2558  -15.6228 O   0  0  0  0  0  0  0  0  0  0  0  0
   21.8588   -5.4465  -13.4343 C   0  0  0  0  0  0  0  0  0  0  0  0
   22.2143   -4.1628  -13.1040 O   0  0  0  0  0  0  0  0  0  0  0  0
   19.0071   -3.1606  -14.9392 O   0  0  0  0  0  0  0  0  0  0  0  0
   21.8719   -6.2944  -12.4787 O   0  0  0  0  0  0  0  0  0  0  0  0
  1  2  1  0
  2  3  1  0
  3 10  1  0
  3  4  2  0
  6  7  1  0
  6  5  1  0
  7  8  1  1
  9  7  1  0
  9 10  1  6
 11  9  1  0
 11 13  1  0
 12 11  2  0
 14 15  1  1
 14 13  1  0
 14 18  1  0
 16 20  1  0
 16 15  1  0
 17 16  2  0
 18 19  1  0
 21 18  2  0
M  END
$$$$
