GID.pdb
     RDKit          3D

 21 20  0  0  1  0  0  0  0  0999 V2000
   20.2252  -14.2676  -17.4412 N   0  0  0  0  0  0  0  0  0  0  0  0
   20.6185  -12.9806  -17.9336 C   0  0  0  0  0  0  0  0  0  0  0  0
   21.3143  -12.1803  -16.8663 C   0  0  0  0  0  0  0  0  0  0  0  0
   20.7958  -12.1577  -15.7289 O   0  0  0  0  0  0  0  0  0  0  0  0
   26.7210  -10.4180  -14.8629 C   0  0  0  0  0  0  0  0  0  0  0  0
   25.2997  -10.0298  -15.0962 C   0  0  0  0  0  0  0  0  0  0  0  0
   24.5186  -10.9010  -16.0142 C   0  0  2  0  0  0  0  0  0  0  0  0
   25.3748  -11.3950  -17.1605 C   0  0  0  0  0  0  0  0  0  0  0  0
   23.1190  -10.5886  -16.2909 C   0  0  2  0  0  0  0  0  0  0  0  0
   22.5114  -11.5060  -17.2245 N   0  0  0  0  0  0  0  0  0  0  0  0
   22.6977   -9.1907  -16.4696 C   0  0  0  0  0  0  0  0  0  0  0  0
   22.6711   -8.5975  -17.5623 O   0  0  0  0  0  0  0  0  0  0  0  0
   22.2960   -8.4497  -15.3308 N   0  0  0  0  0  0  0  0  0  0  0  0
   21.8223   -7.0628  -15.4194 C   0  0  1  0  0  0  0  0  0  0  0  0
   20.4406   -7.0871  -15.9887 C   0  0  0  0  0  0  0  0  0  0  0  0
   19.8327   -5.7525  -16.0744 C   0  0  0  0  0  0  0  0  0  0  0  0
   18.6888   -5.5217  -15.6577 O   0  0  0  0  0  0  0  0  0  0  0  0
   21.8648   -6.4383  -14.0831 C   0  0  0  0  0  0  0  0  0  0  0  0
   21.8179   -5.0948  -13.8074 O   0  0  0  0  0  0  0  0  0  0  0  0
   20.5238   -4.6659  -16.6368 O   0  0  0  0  0  0  0  0  0  0  0  0
   21.9544   -7.2143  -13.0721 O   0  0  0  0  0  0  0  0  0  0  0  0
  1  2  1  0
  2  3  1  0
  3 10  1  0
  3  4  2  0
  6  7  1  0
  6  5  1  0
  7  8  1  6
  9  7  1  0
  9 10  1  6
 11  9  1  0
 11 13  1  0
 12 11  2  0
 14 15  1  1
 14 13  1  0
 14 18  1  0
 16 20  1  0
 16 15  1  0
 17 16  2  0
 18 19  1  0
 21 18  2  0
M  END
$$$$
