GID.pdb
     RDKit          3D

 21 20  0  0  1  0  0  0  0  0999 V2000
   17.8648  -11.7004  -16.2209 N   0  0  0  0  0  0  0  0  0  0  0  0
   18.1394  -10.2962  -16.2992 C   0  0  0  0  0  0  0  0  0  0  0  0
   19.2492   -9.9067  -15.3609 C   0  0  0  0  0  0  0  0  0  0  0  0
   18.9490   -9.6931  -14.1661 O   0  0  0  0  0  0  0  0  0  0  0  0
   22.6494  -12.6699  -16.3737 C   0  0  0  0  0  0  0  0  0  0  0  0
   22.5233  -11.9103  -15.0961 C   0  0  0  0  0  0  0  0  0  0  0  0
   22.7788  -10.4470  -15.1690 C   0  0  2  0  0  0  0  0  0  0  0  0
   24.0989  -10.0889  -14.5207 C   0  0  0  0  0  0  0  0  0  0  0  0
   21.6676   -9.5109  -15.0208 C   0  0  2  0  0  0  0  0  0  0  0  0
   20.5602   -9.8084  -15.8969 N   0  0  0  0  0  0  0  0  0  0  0  0
   21.9323   -8.0726  -14.8627 C   0  0  0  0  0  0  0  0  0  0  0  0
   22.6271   -7.5800  -13.9566 O   0  0  0  0  0  0  0  0  0  0  0  0
   21.3614   -7.1690  -15.7926 N   0  0  0  0  0  0  0  0  0  0  0  0
   21.6416   -5.7280  -15.7656 C   0  0  1  0  0  0  0  0  0  0  0  0
   21.4583   -5.2006  -17.1520 C   0  0  0  0  0  0  0  0  0  0  0  0
   21.6428   -3.7459  -17.2406 C   0  0  0  0  0  0  0  0  0  0  0  0
   22.4649   -3.1420  -16.5371 O   0  0  0  0  0  0  0  0  0  0  0  0
   20.7484   -5.0676  -14.7942 C   0  0  0  0  0  0  0  0  0  0  0  0
   20.9115   -3.8167  -14.2538 O   0  0  0  0  0  0  0  0  0  0  0  0
   20.8909   -2.9636  -18.1336 O   0  0  0  0  0  0  0  0  0  0  0  0
   19.7158   -5.7136  -14.4087 O   0  0  0  0  0  0  0  0  0  0  0  0
  1  2  1  0
  2  3  1  0
  3 10  1  0
  3  4  2  0
  6  7  1  0
  6  5  1  0
  7  8  1  1
  9  7  1  0
  9 10  1  6
 11  9  1  0
 11 13  1  0
 12 11  2  0
 14 15  1  6
 14 13  1  0
 14 18  1  0
 16 20  1  0
 16 15  1  0
 17 16  2  0
 18 19  1  0
 21 18  2  0
M  END
$$$$
