GID.pdb
     RDKit          3D

 21 20  0  0  1  0  0  0  0  0999 V2000
   18.4458  -13.5488  -17.1705 N   0  0  0  0  0  0  0  0  0  0  0  0
   18.5539  -12.1605  -17.5088 C   0  0  0  0  0  0  0  0  0  0  0  0
   19.4665  -11.4386  -16.5549 C   0  0  0  0  0  0  0  0  0  0  0  0
   19.0312  -11.1969  -15.4080 O   0  0  0  0  0  0  0  0  0  0  0  0
   24.2970  -12.9847  -15.4314 C   0  0  0  0  0  0  0  0  0  0  0  0
   22.9443  -12.3685  -15.5566 C   0  0  0  0  0  0  0  0  0  0  0  0
   22.9058  -10.9259  -15.9163 C   0  0  2  0  0  0  0  0  0  0  0  0
   23.9425  -10.1408  -15.1416 C   0  0  0  0  0  0  0  0  0  0  0  0
   21.6231  -10.2827  -16.1884 C   0  0  2  0  0  0  0  0  0  0  0  0
   20.7585  -11.0817  -17.0230 N   0  0  0  0  0  0  0  0  0  0  0  0
   21.5688   -8.8423  -16.4812 C   0  0  0  0  0  0  0  0  0  0  0  0
   21.6342   -8.3528  -17.6226 O   0  0  0  0  0  0  0  0  0  0  0  0
   21.4389   -7.9326  -15.4028 N   0  0  0  0  0  0  0  0  0  0  0  0
   21.3336   -6.4820  -15.6032 C   0  0  1  0  0  0  0  0  0  0  0  0
   20.0685   -6.2147  -16.3529 C   0  0  0  0  0  0  0  0  0  0  0  0
   19.7938   -4.7813  -16.5205 C   0  0  0  0  0  0  0  0  0  0  0  0
   20.7016   -3.9438  -16.6203 O   0  0  0  0  0  0  0  0  0  0  0  0
   21.3634   -5.7977  -14.2961 C   0  0  0  0  0  0  0  0  0  0  0  0
   21.4550   -6.3944  -13.0637 O   0  0  0  0  0  0  0  0  0  0  0  0
   18.4794   -4.2874  -16.5761 O   0  0  0  0  0  0  0  0  0  0  0  0
   21.2982   -4.5218  -14.2968 O   0  0  0  0  0  0  0  0  0  0  0  0
  1  2  1  0
  2  3  1  0
  3 10  1  0
  3  4  2  0
  6  7  1  0
  6  5  1  0
  7  8  1  1
  9  7  1  0
  9 10  1  6
 11  9  1  0
 11 13  1  0
 12 11  2  0
 14 15  1  1
 14 13  1  0
 14 18  1  0
 16 20  1  0
 16 15  1  0
 17 16  2  0
 18 19  1  0
 21 18  2  0
M  END
$$$$
