GID.pdb
     RDKit          3D

 21 20  0  0  1  0  0  0  0  0999 V2000
   15.4901  -10.1149  -10.1564 N   0  0  0  0  0  0  0  0  0  0  0  0
   15.3186   -9.3345  -11.3460 C   0  0  0  0  0  0  0  0  0  0  0  0
   16.5638   -9.3508  -12.1904 C   0  0  0  0  0  0  0  0  0  0  0  0
   17.6352   -9.6788  -11.6358 O   0  0  0  0  0  0  0  0  0  0  0  0
   16.3270  -11.6314  -16.5941 C   0  0  0  0  0  0  0  0  0  0  0  0
   17.2518  -11.0967  -15.5529 C   0  0  0  0  0  0  0  0  0  0  0  0
   17.5420   -9.6392  -15.6121 C   0  0  2  0  0  0  0  0  0  0  0  0
   18.5368   -9.3234  -16.7085 C   0  0  0  0  0  0  0  0  0  0  0  0
   17.6190   -8.8666  -14.3751 C   0  0  2  0  0  0  0  0  0  0  0  0
   16.4361   -8.9925  -13.5583 N   0  0  0  0  0  0  0  0  0  0  0  0
   18.1934   -7.5125  -14.3870 C   0  0  0  0  0  0  0  0  0  0  0  0
   17.5538   -6.4786  -14.6485 O   0  0  0  0  0  0  0  0  0  0  0  0
   19.5692   -7.3539  -14.0880 N   0  0  0  0  0  0  0  0  0  0  0  0
   20.2177   -6.0377  -14.0344 C   0  0  1  0  0  0  0  0  0  0  0  0
   21.5826   -6.2239  -13.4546 C   0  0  0  0  0  0  0  0  0  0  0  0
   22.3489   -4.9728  -13.3800 C   0  0  0  0  0  0  0  0  0  0  0  0
   22.0571   -4.0679  -12.5854 O   0  0  0  0  0  0  0  0  0  0  0  0
   20.2610   -5.4512  -15.3878 C   0  0  0  0  0  0  0  0  0  0  0  0
   19.9928   -4.1475  -15.7220 O   0  0  0  0  0  0  0  0  0  0  0  0
   23.4575   -4.7402  -14.2118 O   0  0  0  0  0  0  0  0  0  0  0  0
   20.5786   -6.2230  -16.3551 O   0  0  0  0  0  0  0  0  0  0  0  0
  1  2  1  0
  2  3  1  0
  3 10  1  0
  3  4  2  0
  6  7  1  0
  6  5  1  0
  7  8  1  1
  9  7  1  0
  9 10  1  6
 11  9  1  0
 11 13  1  0
 12 11  2  0
 14 15  1  6
 14 13  1  0
 14 18  1  0
 16 20  1  0
 16 15  1  0
 17 16  2  0
 18 19  1  0
 21 18  2  0
M  END
$$$$
