GID.pdb
     RDKit          3D

 21 20  0  0  1  0  0  0  0  0999 V2000
   26.8761  -20.8300  -15.3518 N   0  0  0  0  0  0  0  0  0  0  0  0
   25.6701  -20.5080  -16.0557 C   0  0  0  0  0  0  0  0  0  0  0  0
   25.0044  -19.2946  -15.4656 C   0  0  0  0  0  0  0  0  0  0  0  0
   24.7381  -19.3167  -14.2442 O   0  0  0  0  0  0  0  0  0  0  0  0
   27.3423  -15.1856  -15.5841 C   0  0  0  0  0  0  0  0  0  0  0  0
   26.2488  -16.0480  -15.0495 C   0  0  0  0  0  0  0  0  0  0  0  0
   24.9113  -15.8862  -15.6796 C   0  0  2  0  0  0  0  0  0  0  0  0
   24.2794  -14.5668  -15.2911 C   0  0  0  0  0  0  0  0  0  0  0  0
   24.0367  -17.0465  -15.8274 C   0  0  2  0  0  0  0  0  0  0  0  0
   24.7244  -18.2086  -16.3363 N   0  0  0  0  0  0  0  0  0  0  0  0
   22.6754  -16.8797  -16.3588 C   0  0  0  0  0  0  0  0  0  0  0  0
   22.3750  -16.9581  -17.5630 O   0  0  0  0  0  0  0  0  0  0  0  0
   21.6202  -16.6050  -15.4541 N   0  0  0  0  0  0  0  0  0  0  0  0
   20.2221  -16.4856  -15.8862 C   0  0  1  0  0  0  0  0  0  0  0  0
   19.3524  -16.7798  -14.7069 C   0  0  0  0  0  0  0  0  0  0  0  0
   19.4053  -18.1884  -14.2932 C   0  0  0  0  0  0  0  0  0  0  0  0
   19.4760  -19.1139  -15.1141 O   0  0  0  0  0  0  0  0  0  0  0  0
   19.9856  -15.1349  -16.4314 C   0  0  0  0  0  0  0  0  0  0  0  0
   19.0542  -14.7874  -17.3775 O   0  0  0  0  0  0  0  0  0  0  0  0
   19.3782  -18.5568  -12.9373 O   0  0  0  0  0  0  0  0  0  0  0  0
   20.7138  -14.1838  -15.9871 O   0  0  0  0  0  0  0  0  0  0  0  0
  1  2  1  0
  2  3  1  0
  3 10  1  0
  3  4  2  0
  6  7  1  0
  6  5  1  0
  7  8  1  1
  9  7  1  0
  9 10  1  6
 11  9  1  0
 11 13  1  0
 12 11  2  0
 14 15  1  1
 14 13  1  0
 14 18  1  0
 16 20  1  0
 16 15  1  0
 17 16  2  0
 18 19  1  0
 21 18  2  0
M  END
$$$$
