GID.pdb
     RDKit          3D

 21 20  0  0  1  0  0  0  0  0999 V2000
   21.0008  -11.6106  -19.2559 N   0  0  0  0  0  0  0  0  0  0  0  0
   22.1181  -12.3169  -18.7025 C   0  0  0  0  0  0  0  0  0  0  0  0
   22.5362  -11.7243  -17.3843 C   0  0  0  0  0  0  0  0  0  0  0  0
   21.8438  -11.9992  -16.3802 O   0  0  0  0  0  0  0  0  0  0  0  0
   27.6007  -11.9923  -15.8071 C   0  0  0  0  0  0  0  0  0  0  0  0
   26.1238  -11.8785  -15.9831 C   0  0  0  0  0  0  0  0  0  0  0  0
   25.5481  -10.5118  -15.8706 C   0  0  2  0  0  0  0  0  0  0  0  0
   26.1810   -9.7435  -14.7303 C   0  0  0  0  0  0  0  0  0  0  0  0
   24.1262  -10.3028  -16.1303 C   0  0  2  0  0  0  0  0  0  0  0  0
   23.6878  -10.8941  -17.3716 N   0  0  0  0  0  0  0  0  0  0  0  0
   23.5082   -8.9999  -15.8402 C   0  0  0  0  0  0  0  0  0  0  0  0
   23.6227   -8.3907  -14.7621 O   0  0  0  0  0  0  0  0  0  0  0  0
   22.7201   -8.3819  -16.8423 N   0  0  0  0  0  0  0  0  0  0  0  0
   22.0724   -7.0792  -16.6443 C   0  0  1  0  0  0  0  0  0  0  0  0
   21.8827   -6.4539  -17.9884 C   0  0  0  0  0  0  0  0  0  0  0  0
   21.2378   -5.1357  -17.9212 C   0  0  0  0  0  0  0  0  0  0  0  0
   20.4405   -4.7474  -18.7866 O   0  0  0  0  0  0  0  0  0  0  0  0
   20.7949   -7.2646  -15.9292 C   0  0  0  0  0  0  0  0  0  0  0  0
   20.3218   -6.5021  -14.8910 O   0  0  0  0  0  0  0  0  0  0  0  0
   21.4957   -4.2453  -16.8650 O   0  0  0  0  0  0  0  0  0  0  0  0
   20.0439   -8.2279  -16.3038 O   0  0  0  0  0  0  0  0  0  0  0  0
  1  2  1  0
  2  3  1  0
  3 10  1  0
  3  4  2  0
  6  7  1  0
  6  5  1  0
  7  8  1  1
  9  7  1  0
  9 10  1  6
 11  9  1  0
 11 13  1  0
 12 11  2  0
 14 15  1  6
 14 13  1  0
 14 18  1  0
 16 20  1  0
 16 15  1  0
 17 16  2  0
 18 19  1  0
 21 18  2  0
M  END
$$$$
