GID.pdb
     RDKit          3D

 21 20  0  0  1  0  0  0  0  0999 V2000
   19.8043  -14.6894  -18.5475 N   0  0  0  0  0  0  0  0  0  0  0  0
   20.1946  -13.3327  -18.7935 C   0  0  0  0  0  0  0  0  0  0  0  0
   20.5531  -12.6300  -17.5123 C   0  0  0  0  0  0  0  0  0  0  0  0
   19.6707  -12.5483  -16.6303 O   0  0  0  0  0  0  0  0  0  0  0  0
   24.5961  -13.9272  -14.6258 C   0  0  0  0  0  0  0  0  0  0  0  0
   23.3324  -13.3688  -15.1884 C   0  0  0  0  0  0  0  0  0  0  0  0
   23.3223  -11.9082  -15.4687 C   0  0  2  0  0  0  0  0  0  0  0  0
   23.8629  -11.1217  -14.2938 C   0  0  0  0  0  0  0  0  0  0  0  0
   22.2223  -11.3265  -16.2334 C   0  0  2  0  0  0  0  0  0  0  0  0
   21.8681  -12.1081  -17.3936 N   0  0  0  0  0  0  0  0  0  0  0  0
   22.1665   -9.8734  -16.4544 C   0  0  0  0  0  0  0  0  0  0  0  0
   22.7135   -9.2839  -17.4030 O   0  0  0  0  0  0  0  0  0  0  0  0
   21.4501   -9.0714  -15.5320 N   0  0  0  0  0  0  0  0  0  0  0  0
   21.3503   -7.6127  -15.6666 C   0  0  1  0  0  0  0  0  0  0  0  0
   20.2593   -7.3174  -16.6445 C   0  0  0  0  0  0  0  0  0  0  0  0
   20.0025   -5.8793  -16.7993 C   0  0  0  0  0  0  0  0  0  0  0  0
   20.8762   -5.0272  -16.5845 O   0  0  0  0  0  0  0  0  0  0  0  0
   21.0937   -7.0095  -14.3446 C   0  0  0  0  0  0  0  0  0  0  0  0
   21.2594   -5.6909  -14.0023 O   0  0  0  0  0  0  0  0  0  0  0  0
   18.7452   -5.3972  -17.2014 O   0  0  0  0  0  0  0  0  0  0  0  0
   20.6750   -7.7805  -13.4159 O   0  0  0  0  0  0  0  0  0  0  0  0
  1  2  1  0
  2  3  1  0
  3 10  1  0
  3  4  2  0
  6  7  1  0
  6  5  1  0
  7  8  1  1
  9  7  1  0
  9 10  1  6
 11  9  1  0
 11 13  1  0
 12 11  2  0
 14 15  1  6
 14 13  1  0
 14 18  1  0
 16 20  1  0
 16 15  1  0
 17 16  2  0
 18 19  1  0
 21 18  2  0
M  END
$$$$
