GID.pdb
     RDKit          3D

 21 20  0  0  1  0  0  0  0  0999 V2000
   21.7414  -13.6949  -18.4816 N   0  0  0  0  0  0  0  0  0  0  0  0
   21.9156  -12.2902  -18.7055 C   0  0  0  0  0  0  0  0  0  0  0  0
   22.2773  -11.5778  -17.4305 C   0  0  0  0  0  0  0  0  0  0  0  0
   21.5838  -11.8156  -16.4177 O   0  0  0  0  0  0  0  0  0  0  0  0
   26.8841  -11.7421  -15.1724 C   0  0  0  0  0  0  0  0  0  0  0  0
   25.4619  -11.5512  -15.5802 C   0  0  0  0  0  0  0  0  0  0  0  0
   25.0076  -10.1461  -15.7562 C   0  0  2  0  0  0  0  0  0  0  0  0
   25.4953   -9.2673  -14.6244 C   0  0  0  0  0  0  0  0  0  0  0  0
   23.6818   -9.8787  -16.3074 C   0  0  2  0  0  0  0  0  0  0  0  0
   23.3806  -10.6850  -17.4657 N   0  0  0  0  0  0  0  0  0  0  0  0
   23.1872   -8.4964  -16.3988 C   0  0  0  0  0  0  0  0  0  0  0  0
   23.5202   -7.6864  -17.2817 O   0  0  0  0  0  0  0  0  0  0  0  0
   22.2720   -8.0346  -15.4209 N   0  0  0  0  0  0  0  0  0  0  0  0
   21.7209   -6.6739  -15.4368 C   0  0  1  0  0  0  0  0  0  0  0  0
   20.2307   -6.7844  -15.4669 C   0  0  0  0  0  0  0  0  0  0  0  0
   19.5593   -5.4777  -15.4728 C   0  0  0  0  0  0  0  0  0  0  0  0
   20.1905   -4.4125  -15.4240 O   0  0  0  0  0  0  0  0  0  0  0  0
   22.2021   -5.9305  -14.2563 C   0  0  0  0  0  0  0  0  0  0  0  0
   22.8844   -6.4512  -13.1856 O   0  0  0  0  0  0  0  0  0  0  0  0
   18.1594   -5.3721  -15.5347 O   0  0  0  0  0  0  0  0  0  0  0  0
   21.9668   -4.6756  -14.2135 O   0  0  0  0  0  0  0  0  0  0  0  0
  1  2  1  0
  2  3  1  0
  3 10  1  0
  3  4  2  0
  6  7  1  0
  6  5  1  0
  7  8  1  1
  9  7  1  0
  9 10  1  6
 11  9  1  0
 11 13  1  0
 12 11  2  0
 14 15  1  1
 14 13  1  0
 14 18  1  0
 16 20  1  0
 16 15  1  0
 17 16  2  0
 18 19  1  0
 21 18  2  0
M  END
$$$$
