IAT.pdb
     RDKit          3D

 21 20  0  0  1  0  0  0  0  0999 V2000
    7.5704  -10.9579   27.3446 C   0  0  0  0  0  0  0  0  0  0  0  0
    7.7901  -12.4335   27.1989 C   0  0  0  0  0  0  0  0  0  0  0  0
    7.1887  -12.9697   25.9183 C   0  0  2  0  0  0  0  0  0  0  0  0
    5.7517  -12.5718   25.7535 C   0  0  0  0  0  0  0  0  0  0  0  0
    7.4042  -14.4321   25.7392 C   0  0  2  0  0  0  0  0  0  0  0  0
    8.8016  -14.7028   26.1117 N   0  0  0  0  0  0  0  0  0  0  0  0
    7.1974  -14.9260   24.3783 C   0  0  0  0  0  0  0  0  0  0  0  0
    6.2164  -15.6671   24.1299 O   0  0  0  0  0  0  0  0  0  0  0  0
    7.8799  -13.8901   21.0087 C   0  0  0  0  0  0  0  0  0  0  0  0
    7.7380  -15.0447   21.9882 C   0  0  2  0  0  0  0  0  0  0  0  0
    8.0683  -14.6014   23.3067 N   0  0  0  0  0  0  0  0  0  0  0  0
    8.5301  -16.2109   21.5447 C   0  0  0  0  0  0  0  0  0  0  0  0
    8.4768  -16.7288   20.4019 O   0  0  0  0  0  0  0  0  0  0  0  0
   12.2202  -16.4448   21.4465 C   0  0  0  0  0  0  0  0  0  0  0  0
   11.7496  -17.4663   22.4342 C   0  0  1  0  0  0  0  0  0  0  0  0
   11.8766  -17.0420   23.7564 O   0  0  0  0  0  0  0  0  0  0  0  0
   10.3030  -17.8918   22.1534 C   0  0  2  0  0  0  0  0  0  0  0  0
    9.4223  -16.7913   22.4865 N   0  0  0  0  0  0  0  0  0  0  0  0
   10.0163  -19.0762   22.9953 C   0  0  0  0  0  0  0  0  0  0  0  0
   10.6794  -20.2518   22.7383 O   0  0  0  0  0  0  0  0  0  0  0  0
    9.1896  -18.9872   23.9102 O   0  0  0  0  0  0  0  0  0  0  0  0
  2  1  1  0
  3  2  1  0
  3  4  1  1
  5  3  1  0
  5  7  1  0
  5  6  1  6
  7  8  2  0
 10  9  1  6
 11 10  1  0
 11  7  1  0
 12 10  1  0
 12 18  1  0
 13 12  2  0
 15 14  1  6
 15 16  1  0
 17 18  1  1
 17 15  1  0
 19 17  1  0
 20 19  1  0
 21 19  2  0
M  END
$$$$
