IAT.pdb
     RDKit          3D

 21 20  0  0  1  0  0  0  0  0999 V2000
    5.8061  -11.8509   26.9630 C   0  0  0  0  0  0  0  0  0  0  0  0
    5.5559  -12.9841   26.0142 C   0  0  0  0  0  0  0  0  0  0  0  0
    6.8279  -13.7326   25.6815 C   0  0  2  0  0  0  0  0  0  0  0  0
    7.9169  -12.8198   25.2005 C   0  0  0  0  0  0  0  0  0  0  0  0
    6.6040  -14.8895   24.7711 C   0  0  2  0  0  0  0  0  0  0  0  0
    5.5225  -15.6916   25.3641 N   0  0  0  0  0  0  0  0  0  0  0  0
    7.7618  -15.7630   24.5842 C   0  0  0  0  0  0  0  0  0  0  0  0
    7.8769  -16.7982   25.2830 O   0  0  0  0  0  0  0  0  0  0  0  0
   10.6515  -16.1081   22.2424 C   0  0  0  0  0  0  0  0  0  0  0  0
    9.8807  -16.3954   23.5215 C   0  0  2  0  0  0  0  0  0  0  0  0
    8.7790  -15.4911   23.6336 N   0  0  0  0  0  0  0  0  0  0  0  0
   10.7804  -16.3736   24.6937 C   0  0  0  0  0  0  0  0  0  0  0  0
   11.8914  -16.9550   24.7634 O   0  0  0  0  0  0  0  0  0  0  0  0
   11.0645  -14.6592   29.3867 C   0  0  0  0  0  0  0  0  0  0  0  0
   10.4104  -14.6408   28.0405 C   0  0  1  0  0  0  0  0  0  0  0  0
   10.3307  -13.3609   27.4929 O   0  0  0  0  0  0  0  0  0  0  0  0
   11.1147  -15.5899   27.0628 C   0  0  2  0  0  0  0  0  0  0  0  0
   10.3538  -15.6364   25.8314 N   0  0  0  0  0  0  0  0  0  0  0  0
   11.1731  -16.9245   27.7027 C   0  0  0  0  0  0  0  0  0  0  0  0
   12.0009  -17.1087   28.7838 O   0  0  0  0  0  0  0  0  0  0  0  0
   10.4798  -17.8450   27.2555 O   0  0  0  0  0  0  0  0  0  0  0  0
  2  1  1  0
  3  2  1  0
  3  4  1  6
  5  3  1  0
  5  7  1  0
  5  6  1  1
  7  8  2  0
 10  9  1  6
 11 10  1  0
 11  7  1  0
 12 10  1  0
 12 18  1  0
 13 12  2  0
 15 14  1  1
 15 16  1  0
 17 18  1  6
 17 15  1  0
 19 17  1  0
 20 19  1  0
 21 19  2  0
M  END
$$$$
