IAT.pdb
     RDKit          3D

 21 20  0  0  1  0  0  0  0  0999 V2000
    7.7424  -12.3123   27.5803 C   0  0  0  0  0  0  0  0  0  0  0  0
    6.8277  -13.3329   26.9732 C   0  0  0  0  0  0  0  0  0  0  0  0
    7.4375  -13.9797   25.7490 C   0  0  2  0  0  0  0  0  0  0  0  0
    8.0050  -12.9709   24.7945 C   0  0  0  0  0  0  0  0  0  0  0  0
    6.5237  -14.9492   25.0840 C   0  0  2  0  0  0  0  0  0  0  0  0
    6.1860  -15.9700   26.0884 N   0  0  0  0  0  0  0  0  0  0  0  0
    7.0870  -15.6322   23.9199 C   0  0  0  0  0  0  0  0  0  0  0  0
    7.4595  -16.8256   24.0212 O   0  0  0  0  0  0  0  0  0  0  0  0
    7.4287  -14.9817   20.2543 C   0  0  0  0  0  0  0  0  0  0  0  0
    7.6216  -15.7859   21.5305 C   0  0  2  0  0  0  0  0  0  0  0  0
    7.2348  -14.9986   22.6594 N   0  0  0  0  0  0  0  0  0  0  0  0
    9.0023  -16.3050   21.6213 C   0  0  0  0  0  0  0  0  0  0  0  0
    9.5661  -17.0159   20.7531 O   0  0  0  0  0  0  0  0  0  0  0  0
   11.0785  -15.1125   25.1232 C   0  0  0  0  0  0  0  0  0  0  0  0
   11.8454  -15.4451   23.8816 C   0  0  1  0  0  0  0  0  0  0  0  0
   13.1360  -15.9017   24.1464 O   0  0  0  0  0  0  0  0  0  0  0  0
   11.0934  -16.4627   23.0147 C   0  0  2  0  0  0  0  0  0  0  0  0
    9.7502  -15.9729   22.7833 N   0  0  0  0  0  0  0  0  0  0  0  0
   11.0716  -17.7464   23.7533 C   0  0  0  0  0  0  0  0  0  0  0  0
   12.2160  -18.5051   23.8035 O   0  0  0  0  0  0  0  0  0  0  0  0
   10.0295  -18.1113   24.3093 O   0  0  0  0  0  0  0  0  0  0  0  0
  2  1  1  0
  3  2  1  0
  3  4  1  6
  5  3  1  0
  5  7  1  0
  5  6  1  1
  7  8  2  0
 10  9  1  6
 11 10  1  0
 11  7  1  0
 12 10  1  0
 12 18  1  0
 13 12  2  0
 15 14  1  1
 15 16  1  0
 17 18  1  1
 17 15  1  0
 19 17  1  0
 20 19  1  0
 21 19  2  0
M  END
$$$$
