IAT.pdb
     RDKit          3D

 21 20  0  0  1  0  0  0  0  0999 V2000
    8.5763  -12.3038   26.8222 C   0  0  0  0  0  0  0  0  0  0  0  0
    8.0068  -13.6210   27.2550 C   0  0  0  0  0  0  0  0  0  0  0  0
    7.8717  -14.5852   26.0969 C   0  0  2  0  0  0  0  0  0  0  0  0
    7.1293  -13.9851   24.9396 C   0  0  0  0  0  0  0  0  0  0  0  0
    7.3300  -15.9119   26.5012 C   0  0  2  0  0  0  0  0  0  0  0  0
    8.1421  -16.3719   27.6387 N   0  0  0  0  0  0  0  0  0  0  0  0
    7.3812  -16.9430   25.4655 C   0  0  0  0  0  0  0  0  0  0  0  0
    8.4085  -17.6528   25.3472 O   0  0  0  0  0  0  0  0  0  0  0  0
    5.1087  -18.5871   23.0170 C   0  0  0  0  0  0  0  0  0  0  0  0
    6.4710  -18.1539   23.5356 C   0  0  2  0  0  0  0  0  0  0  0  0
    6.3057  -17.1833   24.5722 N   0  0  0  0  0  0  0  0  0  0  0  0
    7.3320  -17.6896   22.4278 C   0  0  0  0  0  0  0  0  0  0  0  0
    7.7591  -18.4111   21.4928 O   0  0  0  0  0  0  0  0  0  0  0  0
    6.4509  -14.3936   20.6973 C   0  0  0  0  0  0  0  0  0  0  0  0
    7.9037  -14.3283   21.0517 C   0  0  1  0  0  0  0  0  0  0  0  0
    8.1643  -13.4694   22.1188 O   0  0  0  0  0  0  0  0  0  0  0  0
    8.4715  -15.7225   21.3458 C   0  0  2  0  0  0  0  0  0  0  0  0
    7.7056  -16.3184   22.4210 N   0  0  0  0  0  0  0  0  0  0  0  0
    9.8905  -15.5518   21.7347 C   0  0  0  0  0  0  0  0  0  0  0  0
   10.7912  -15.1169   20.7926 O   0  0  0  0  0  0  0  0  0  0  0  0
   10.2384  -15.8023   22.8942 O   0  0  0  0  0  0  0  0  0  0  0  0
  2  1  1  0
  3  2  1  0
  3  4  1  6
  5  3  1  0
  5  7  1  0
  5  6  1  1
  7  8  2  0
 10  9  1  6
 11 10  1  0
 11  7  1  0
 12 10  1  0
 12 18  1  0
 13 12  2  0
 15 14  1  1
 15 16  1  0
 17 18  1  1
 17 15  1  0
 19 17  1  0
 20 19  1  0
 21 19  2  0
M  END
$$$$
