IAT.pdb
     RDKit          3D

 21 20  0  0  1  0  0  0  0  0999 V2000
    7.3762  -11.6753   26.8146 C   0  0  0  0  0  0  0  0  0  0  0  0
    7.2385  -13.1483   27.0551 C   0  0  0  0  0  0  0  0  0  0  0  0
    7.3724  -13.9439   25.7751 C   0  0  2  0  0  0  0  0  0  0  0  0
    6.5824  -13.3470   24.6481 C   0  0  0  0  0  0  0  0  0  0  0  0
    7.1030  -15.3967   25.9592 C   0  0  2  0  0  0  0  0  0  0  0  0
    7.9543  -15.8474   27.0714 N   0  0  0  0  0  0  0  0  0  0  0  0
    7.4001  -16.2333   24.7972 C   0  0  0  0  0  0  0  0  0  0  0  0
    8.5909  -16.5220   24.5290 O   0  0  0  0  0  0  0  0  0  0  0  0
    5.4958  -18.4808   22.5272 C   0  0  0  0  0  0  0  0  0  0  0  0
    6.7396  -17.7216   22.9621 C   0  0  2  0  0  0  0  0  0  0  0  0
    6.3884  -16.7432   23.9435 N   0  0  0  0  0  0  0  0  0  0  0  0
    7.4451  -17.1550   21.7937 C   0  0  0  0  0  0  0  0  0  0  0  0
    7.9461  -17.8247   20.8568 O   0  0  0  0  0  0  0  0  0  0  0  0
    7.6723  -12.8767   21.7175 C   0  0  0  0  0  0  0  0  0  0  0  0
    7.5224  -13.6742   20.4597 C   0  0  1  0  0  0  0  0  0  0  0  0
    8.0290  -13.0192   19.3378 O   0  0  0  0  0  0  0  0  0  0  0  0
    8.1645  -15.0605   20.5959 C   0  0  2  0  0  0  0  0  0  0  0  0
    7.5657  -15.7405   21.7259 N   0  0  0  0  0  0  0  0  0  0  0  0
    9.6170  -14.8594   20.8048 C   0  0  0  0  0  0  0  0  0  0  0  0
   10.1471  -15.0816   22.0527 O   0  0  0  0  0  0  0  0  0  0  0  0
   10.3238  -14.4969   19.8576 O   0  0  0  0  0  0  0  0  0  0  0  0
  2  1  1  0
  3  2  1  0
  3  4  1  6
  5  3  1  0
  5  7  1  0
  5  6  1  1
  7  8  2  0
 10  9  1  6
 11 10  1  0
 11  7  1  0
 12 10  1  0
 12 18  1  0
 13 12  2  0
 15 14  1  1
 15 16  1  0
 17 18  1  1
 17 15  1  0
 19 17  1  0
 20 19  1  0
 21 19  2  0
M  END
$$$$
