KQP.pdb
     RDKit          3D

 26 26  0  0  1  0  0  0  0  0999 V2000
    8.5116  -16.1909   19.8430 N   0  0  0  0  0  0  0  0  0  0  0  0
    8.4226  -14.8398   20.2923 C   0  0  1  0  0  0  0  0  0  0  0  0
    7.5982  -14.0610   19.2959 C   0  0  0  0  0  0  0  0  0  0  0  0
    7.9462  -14.5527   17.9095 C   0  0  0  0  0  0  0  0  0  0  0  0
    7.5502  -13.5477   16.8488 C   0  0  0  0  0  0  0  0  0  0  0  0
    7.8137  -14.1466   15.4727 C   0  0  0  0  0  0  0  0  0  0  0  0
    7.5486  -13.2087   14.4256 N   0  0  0  0  0  0  0  0  0  0  0  0
    7.9775  -14.6787   21.6728 C   0  0  0  0  0  0  0  0  0  0  0  0
    7.8578  -13.5287   22.1653 O   0  0  0  0  0  0  0  0  0  0  0  0
    6.1958  -18.5960   26.4282 N   0  0  0  0  0  0  0  0  0  0  0  0
    7.3028  -18.8897   25.5672 C   0  0  0  0  0  0  0  0  0  0  0  0
    8.0214  -19.8899   25.8128 O   0  0  0  0  0  0  0  0  0  0  0  0
    7.5631  -17.9965   24.4086 C   0  0  0  0  0  0  0  0  0  0  0  0
    6.5637  -16.8686   24.4623 C   0  0  0  0  0  0  0  0  0  0  0  0
    7.1198  -15.5918   23.8568 C   0  0  2  0  0  0  0  0  0  0  0  0
    7.6512  -15.7803   22.5511 N   0  0  0  0  0  0  0  0  0  0  0  0
    8.0868  -14.9725   24.7592 C   0  0  0  0  0  0  0  0  0  0  0  0
    9.3193  -15.1526   24.3812 O   0  0  0  0  0  0  0  0  0  0  0  0
    7.9017  -14.2362   25.9338 N   0  0  0  0  0  0  0  0  0  0  0  0
    6.5736  -14.0516   26.5555 C   0  0  0  0  0  0  0  0  0  0  0  0
    6.6319  -12.7200   27.2361 C   0  0  0  0  0  0  0  0  0  0  0  0
    8.0132  -12.2042   26.9727 C   0  0  0  0  0  0  0  0  0  0  0  0
    8.7833  -13.5340   26.8164 C   0  0  1  0  0  0  0  0  0  0  0  0
    8.9023  -14.2023   28.1471 C   0  0  0  0  0  0  0  0  0  0  0  0
    9.8889  -13.8102   29.0409 O   0  0  0  0  0  0  0  0  0  0  0  0
    8.1427  -15.1289   28.5265 O   0  0  0  0  0  0  0  0  0  0  0  0
  2  1  1  6
  3  2  1  0
  4  3  1  0
  4  5  1  0
  5  6  1  0
  6  7  1  0
  8  2  1  0
  8  9  2  0
 10 11  1  0
 11 12  2  0
 11 13  1  0
 13 14  1  0
 15 14  1  1
 15 16  1  0
 16  8  1  0
 17 15  1  0
 18 17  2  0
 19 17  1  0
 19 23  1  0
 20 19  1  0
 20 21  1  0
 21 22  1  0
 23 22  1  0
 24 25  1  0
 23 24  1  1
 26 24  2  0
M  END
$$$$
