KQP.pdb
     RDKit          3D

 26 26  0  0  1  0  0  0  0  0999 V2000
    6.6463  -16.0766   20.6969 N   0  0  0  0  0  0  0  0  0  0  0  0
    7.3810  -15.0821   21.4086 C   0  0  1  0  0  0  0  0  0  0  0  0
    6.9671  -13.7252   20.8923 C   0  0  0  0  0  0  0  0  0  0  0  0
    7.2324  -13.6859   19.4047 C   0  0  0  0  0  0  0  0  0  0  0  0
    8.6999  -13.4613   19.1085 C   0  0  0  0  0  0  0  0  0  0  0  0
    8.8777  -13.2430   17.6110 C   0  0  0  0  0  0  0  0  0  0  0  0
   10.2515  -13.0504   17.2617 N   0  0  0  0  0  0  0  0  0  0  0  0
    7.3235  -15.1974   22.8623 C   0  0  0  0  0  0  0  0  0  0  0  0
    6.5322  -14.4757   23.5200 O   0  0  0  0  0  0  0  0  0  0  0  0
    5.3390  -20.0509   23.4826 N   0  0  0  0  0  0  0  0  0  0  0  0
    6.2158  -19.4678   24.4544 C   0  0  0  0  0  0  0  0  0  0  0  0
    6.9507  -20.2172   25.1441 O   0  0  0  0  0  0  0  0  0  0  0  0
    6.2250  -17.9905   24.6129 C   0  0  0  0  0  0  0  0  0  0  0  0
    7.4346  -17.6226   25.4349 C   0  0  0  0  0  0  0  0  0  0  0  0
    7.9947  -16.2673   25.0403 C   0  0  2  0  0  0  0  0  0  0  0  0
    8.1363  -16.1114   23.6338 N   0  0  0  0  0  0  0  0  0  0  0  0
    9.2420  -15.9987   25.7511 C   0  0  0  0  0  0  0  0  0  0  0  0
   10.2972  -16.2098   25.0190 O   0  0  0  0  0  0  0  0  0  0  0  0
    9.4744  -15.5622   27.0593 N   0  0  0  0  0  0  0  0  0  0  0  0
    8.3782  -15.2259   27.9919 C   0  0  0  0  0  0  0  0  0  0  0  0
    8.9298  -14.1653   28.8922 C   0  0  0  0  0  0  0  0  0  0  0  0
   10.3375  -13.9491   28.4283 C   0  0  0  0  0  0  0  0  0  0  0  0
   10.6546  -15.3412   27.8388 C   0  0  1  0  0  0  0  0  0  0  0  0
   10.7948  -16.3333   28.9468 C   0  0  0  0  0  0  0  0  0  0  0  0
   11.9619  -16.3845   29.6962 O   0  0  0  0  0  0  0  0  0  0  0  0
    9.8960  -17.1546   29.2582 O   0  0  0  0  0  0  0  0  0  0  0  0
  2  1  1  6
  3  2  1  0
  4  3  1  0
  4  5  1  0
  5  6  1  0
  6  7  1  0
  8  2  1  0
  8  9  2  0
 10 11  1  0
 11 12  2  0
 11 13  1  0
 13 14  1  0
 15 14  1  6
 15 16  1  0
 16  8  1  0
 17 15  1  0
 18 17  2  0
 19 17  1  0
 19 23  1  0
 20 19  1  0
 20 21  1  0
 21 22  1  0
 23 22  1  0
 24 25  1  0
 23 24  1  1
 26 24  2  0
M  END
$$$$
