KQP.pdb
     RDKit          3D

 26 26  0  0  1  0  0  0  0  0999 V2000
    6.9487  -17.0577   19.6953 N   0  0  0  0  0  0  0  0  0  0  0  0
    7.4786  -15.9991   20.4914 C   0  0  1  0  0  0  0  0  0  0  0  0
    7.1598  -14.6889   19.8127 C   0  0  0  0  0  0  0  0  0  0  0  0
    8.1406  -14.4942   18.6792 C   0  0  0  0  0  0  0  0  0  0  0  0
    7.8262  -13.2465   17.8815 C   0  0  0  0  0  0  0  0  0  0  0  0
    8.8237  -13.1234   16.7363 C   0  0  0  0  0  0  0  0  0  0  0  0
    8.8461  -14.2996   15.9225 N   0  0  0  0  0  0  0  0  0  0  0  0
    7.0959  -16.0371   21.8992 C   0  0  0  0  0  0  0  0  0  0  0  0
    5.9026  -16.2648   22.2210 O   0  0  0  0  0  0  0  0  0  0  0  0
    7.4815  -20.0158   25.4543 N   0  0  0  0  0  0  0  0  0  0  0  0
    7.1351  -19.0933   26.4946 C   0  0  0  0  0  0  0  0  0  0  0  0
    6.8003  -19.5375   27.6206 O   0  0  0  0  0  0  0  0  0  0  0  0
    7.1841  -17.6371   26.2035 C   0  0  0  0  0  0  0  0  0  0  0  0
    7.6516  -17.4670   24.7799 C   0  0  0  0  0  0  0  0  0  0  0  0
    7.6494  -16.0090   24.3551 C   0  0  2  0  0  0  0  0  0  0  0  0
    8.0171  -15.8253   22.9936 N   0  0  0  0  0  0  0  0  0  0  0  0
    8.4710  -15.2081   25.2589 C   0  0  0  0  0  0  0  0  0  0  0  0
    9.7470  -15.3644   25.0552 O   0  0  0  0  0  0  0  0  0  0  0  0
    8.1118  -14.3236   26.2809 N   0  0  0  0  0  0  0  0  0  0  0  0
    6.7068  -14.1001   26.6817 C   0  0  0  0  0  0  0  0  0  0  0  0
    6.6497  -12.6861   27.1688 C   0  0  0  0  0  0  0  0  0  0  0  0
    8.0468  -12.1650   27.0275 C   0  0  0  0  0  0  0  0  0  0  0  0
    8.8501  -13.4768   27.1681 C   0  0  1  0  0  0  0  0  0  0  0  0
    8.7899  -13.9508   28.5835 C   0  0  0  0  0  0  0  0  0  0  0  0
    8.0280  -15.0617   28.9173 O   0  0  0  0  0  0  0  0  0  0  0  0
    9.4043  -13.3923   29.5270 O   0  0  0  0  0  0  0  0  0  0  0  0
  2  1  1  6
  3  2  1  0
  4  3  1  0
  4  5  1  0
  5  6  1  0
  6  7  1  0
  8  2  1  0
  8  9  2  0
 10 11  1  0
 11 12  2  0
 11 13  1  0
 13 14  1  0
 15 14  1  1
 15 16  1  0
 16  8  1  0
 17 15  1  0
 18 17  2  0
 19 17  1  0
 19 23  1  0
 20 19  1  0
 20 21  1  0
 21 22  1  0
 23 22  1  0
 24 25  1  0
 23 24  1  1
 26 24  2  0
M  END
$$$$
