KQP.pdb
     RDKit          3D

 26 26  0  0  1  0  0  0  0  0999 V2000
    6.1525  -16.8283   19.8689 N   0  0  0  0  0  0  0  0  0  0  0  0
    6.8749  -15.9009   20.6772 C   0  0  1  0  0  0  0  0  0  0  0  0
    6.5921  -14.5075   20.1699 C   0  0  0  0  0  0  0  0  0  0  0  0
    7.0637  -14.4230   18.7363 C   0  0  0  0  0  0  0  0  0  0  0  0
    8.0801  -13.3164   18.5508 C   0  0  0  0  0  0  0  0  0  0  0  0
    8.5010  -13.2674   17.0872 C   0  0  0  0  0  0  0  0  0  0  0  0
    9.3053  -12.1188   16.8039 N   0  0  0  0  0  0  0  0  0  0  0  0
    6.6748  -16.0518   22.1149 C   0  0  0  0  0  0  0  0  0  0  0  0
    5.5171  -15.9868   22.5995 O   0  0  0  0  0  0  0  0  0  0  0  0
    7.7052  -20.1562   26.0497 N   0  0  0  0  0  0  0  0  0  0  0  0
    7.6029  -19.1095   27.0230 C   0  0  0  0  0  0  0  0  0  0  0  0
    7.5876  -19.4070   28.2430 O   0  0  0  0  0  0  0  0  0  0  0  0
    7.5182  -17.7026   26.5527 C   0  0  0  0  0  0  0  0  0  0  0  0
    7.6214  -17.7124   25.0483 C   0  0  0  0  0  0  0  0  0  0  0  0
    7.5345  -16.3122   24.4670 C   0  0  2  0  0  0  0  0  0  0  0  0
    7.7449  -16.2789   23.0608 N   0  0  0  0  0  0  0  0  0  0  0  0
    8.4295  -15.4029   25.1780 C   0  0  0  0  0  0  0  0  0  0  0  0
    9.6752  -15.5423   24.8276 O   0  0  0  0  0  0  0  0  0  0  0  0
    8.1654  -14.4323   26.1496 N   0  0  0  0  0  0  0  0  0  0  0  0
    6.7921  -14.0664   26.5553 C   0  0  0  0  0  0  0  0  0  0  0  0
    6.8637  -12.6265   26.9571 C   0  0  0  0  0  0  0  0  0  0  0  0
    8.2970  -12.2359   26.7658 C   0  0  0  0  0  0  0  0  0  0  0  0
    8.9890  -13.6011   26.9742 C   0  0  1  0  0  0  0  0  0  0  0  0
    8.9154  -13.9840   28.4162 C   0  0  0  0  0  0  0  0  0  0  0  0
    8.1060  -15.0366   28.8199 O   0  0  0  0  0  0  0  0  0  0  0  0
    9.5596  -13.3972   29.3218 O   0  0  0  0  0  0  0  0  0  0  0  0
  2  1  1  6
  3  2  1  0
  4  3  1  0
  4  5  1  0
  5  6  1  0
  6  7  1  0
  8  2  1  0
  8  9  2  0
 10 11  1  0
 11 12  2  0
 11 13  1  0
 13 14  1  0
 15 14  1  1
 15 16  1  0
 16  8  1  0
 17 15  1  0
 18 17  2  0
 19 17  1  0
 19 23  1  0
 20 19  1  0
 20 21  1  0
 21 22  1  0
 23 22  1  0
 24 25  1  0
 23 24  1  1
 26 24  2  0
M  END
$$$$
