KQP.pdb
     RDKit          3D

 26 26  0  0  1  0  0  0  0  0999 V2000
    6.1866  -16.6091   19.9926 N   0  0  0  0  0  0  0  0  0  0  0  0
    6.8787  -15.6698   20.8136 C   0  0  1  0  0  0  0  0  0  0  0  0
    6.5338  -14.2790   20.3387 C   0  0  0  0  0  0  0  0  0  0  0  0
    7.1768  -14.0693   18.9869 C   0  0  0  0  0  0  0  0  0  0  0  0
    8.5430  -13.4301   19.1155 C   0  0  0  0  0  0  0  0  0  0  0  0
    9.0734  -13.1051   17.7245 C   0  0  0  0  0  0  0  0  0  0  0  0
   10.3401  -12.4427   17.7804 N   0  0  0  0  0  0  0  0  0  0  0  0
    6.7000  -15.8588   22.2496 C   0  0  0  0  0  0  0  0  0  0  0  0
    5.6112  -15.5477   22.7946 O   0  0  0  0  0  0  0  0  0  0  0  0
    8.0745  -20.2510   26.1246 N   0  0  0  0  0  0  0  0  0  0  0  0
    7.9385  -19.2088   27.0986 C   0  0  0  0  0  0  0  0  0  0  0  0
    7.9998  -19.4992   28.3189 O   0  0  0  0  0  0  0  0  0  0  0  0
    7.7287  -17.8149   26.6287 C   0  0  0  0  0  0  0  0  0  0  0  0
    7.7803  -17.8238   25.1216 C   0  0  0  0  0  0  0  0  0  0  0  0
    7.5686  -16.4366   24.5411 C   0  0  2  0  0  0  0  0  0  0  0  0
    7.7161  -16.3963   23.1271 N   0  0  0  0  0  0  0  0  0  0  0  0
    8.4254  -15.4617   25.2108 C   0  0  0  0  0  0  0  0  0  0  0  0
    9.6455  -15.4644   24.7573 O   0  0  0  0  0  0  0  0  0  0  0  0
    8.1485  -14.5504   26.2348 N   0  0  0  0  0  0  0  0  0  0  0  0
    6.7943  -14.3783   26.8013 C   0  0  0  0  0  0  0  0  0  0  0  0
    6.7212  -12.9482   27.2363 C   0  0  0  0  0  0  0  0  0  0  0  0
    8.0595  -12.3660   26.8992 C   0  0  0  0  0  0  0  0  0  0  0  0
    8.9442  -13.6290   26.9879 C   0  0  1  0  0  0  0  0  0  0  0  0
    9.0865  -14.0405   28.4168 C   0  0  0  0  0  0  0  0  0  0  0  0
    8.4073  -15.1521   28.8954 O   0  0  0  0  0  0  0  0  0  0  0  0
    9.8051  -13.4269   29.2454 O   0  0  0  0  0  0  0  0  0  0  0  0
  2  1  1  6
  3  2  1  0
  4  3  1  0
  4  5  1  0
  5  6  1  0
  6  7  1  0
  8  2  1  0
  8  9  2  0
 10 11  1  0
 11 12  2  0
 11 13  1  0
 13 14  1  0
 15 14  1  1
 15 16  1  0
 16  8  1  0
 17 15  1  0
 18 17  2  0
 19 17  1  0
 19 23  1  0
 20 19  1  0
 20 21  1  0
 21 22  1  0
 23 22  1  0
 24 25  1  0
 23 24  1  1
 26 24  2  0
M  END
$$$$
