KQP.pdb
     RDKit          3D

 26 26  0  0  1  0  0  0  0  0999 V2000
    6.1693  -16.9546   20.6023 N   0  0  0  0  0  0  0  0  0  0  0  0
    7.1032  -16.1620   21.3337 C   0  0  1  0  0  0  0  0  0  0  0  0
    7.1035  -14.7694   20.7509 C   0  0  0  0  0  0  0  0  0  0  0  0
    7.6873  -14.8412   19.3585 C   0  0  0  0  0  0  0  0  0  0  0  0
    7.6512  -13.4926   18.6715 C   0  0  0  0  0  0  0  0  0  0  0  0
    8.2622  -13.6253   17.2820 C   0  0  0  0  0  0  0  0  0  0  0  0
    8.3161  -12.3673   16.6031 N   0  0  0  0  0  0  0  0  0  0  0  0
    6.9319  -16.1898   22.7827 C   0  0  0  0  0  0  0  0  0  0  0  0
    5.7867  -16.3394   23.2782 O   0  0  0  0  0  0  0  0  0  0  0  0
    5.9201  -20.2344   25.7556 N   0  0  0  0  0  0  0  0  0  0  0  0
    7.1441  -19.6219   26.1798 C   0  0  0  0  0  0  0  0  0  0  0  0
    7.6725  -19.9914   27.2575 O   0  0  0  0  0  0  0  0  0  0  0  0
    7.7480  -18.5663   25.3260 C   0  0  0  0  0  0  0  0  0  0  0  0
    7.0267  -17.2733   25.6123 C   0  0  0  0  0  0  0  0  0  0  0  0
    7.8181  -16.0678   25.1362 C   0  0  2  0  0  0  0  0  0  0  0  0
    8.0178  -16.0536   23.7281 N   0  0  0  0  0  0  0  0  0  0  0  0
    9.0755  -15.9545   25.8705 C   0  0  0  0  0  0  0  0  0  0  0  0
   10.0891  -16.4437   25.2167 O   0  0  0  0  0  0  0  0  0  0  0  0
    9.3540  -15.4175   27.1314 N   0  0  0  0  0  0  0  0  0  0  0  0
    8.2915  -15.0103   28.0746 C   0  0  0  0  0  0  0  0  0  0  0  0
    8.8721  -13.8827   28.8691 C   0  0  0  0  0  0  0  0  0  0  0  0
   10.2612  -13.7026   28.3385 C   0  0  0  0  0  0  0  0  0  0  0  0
   10.5611  -15.1361   27.8477 C   0  0  1  0  0  0  0  0  0  0  0  0
   10.7450  -16.0390   29.0235 C   0  0  0  0  0  0  0  0  0  0  0  0
    9.7941  -17.0061   29.3181 O   0  0  0  0  0  0  0  0  0  0  0  0
   11.7376  -15.9809   29.7921 O   0  0  0  0  0  0  0  0  0  0  0  0
  2  1  1  6
  3  2  1  0
  4  3  1  0
  4  5  1  0
  5  6  1  0
  6  7  1  0
  8  2  1  0
  8  9  2  0
 10 11  1  0
 11 12  2  0
 11 13  1  0
 13 14  1  0
 15 14  1  1
 15 16  1  0
 16  8  1  0
 17 15  1  0
 18 17  2  0
 19 17  1  0
 19 23  1  0
 20 19  1  0
 20 21  1  0
 21 22  1  0
 23 22  1  0
 24 25  1  0
 23 24  1  1
 26 24  2  0
M  END
$$$$
