VHT.pdb
     RDKit          3D

 25 25  0  0  1  0  0  0  0  0999 V2000
   20.7885  -21.4715  -13.3615 C   0  0  0  0  0  0  0  0  0  0  0  0
   21.9694  -21.3073  -14.2506 C   0  0  2  0  0  0  0  0  0  0  0  0
   23.0830  -22.2660  -13.8075 C   0  0  0  0  0  0  0  0  0  0  0  0
   22.5231  -19.9268  -14.3684 C   0  0  2  0  0  0  0  0  0  0  0  0
   21.4353  -19.0599  -14.8761 N   0  0  0  0  0  0  0  0  0  0  0  0
   23.7187  -19.7966  -15.2169 C   0  0  0  0  0  0  0  0  0  0  0  0
   23.5850  -19.9304  -16.4636 O   0  0  0  0  0  0  0  0  0  0  0  0
   24.9831  -19.5313  -14.6993 N   0  0  0  0  0  0  0  0  0  0  0  0
   26.1908  -19.4493  -15.5344 C   0  0  1  0  0  0  0  0  0  0  0  0
   26.9856  -18.2729  -14.9493 C   0  0  0  0  0  0  0  0  0  0  0  0
   26.5951  -17.0052  -15.6083 C   0  0  0  0  0  0  0  0  0  0  0  0
   25.6746  -16.8006  -16.6196 C   0  0  0  0  0  0  0  0  0  0  0  0
   25.6448  -15.4801  -16.9082 N   0  0  0  0  0  0  0  0  0  0  0  0
   26.5188  -14.8558  -16.1075 C   0  0  0  0  0  0  0  0  0  0  0  0
   27.0888  -15.7924  -15.3235 N   0  0  0  0  0  0  0  0  0  0  0  0
   26.9696  -20.6940  -15.3280 C   0  0  0  0  0  0  0  0  0  0  0  0
   27.2875  -21.0777  -14.1750 O   0  0  0  0  0  0  0  0  0  0  0  0
   26.1734  -24.1695  -15.5960 C   0  0  0  0  0  0  0  0  0  0  0  0
   27.2640  -23.9608  -16.6261 C   0  0  1  0  0  0  0  0  0  0  0  0
   26.7852  -23.8788  -17.9153 O   0  0  0  0  0  0  0  0  0  0  0  0
   28.1034  -22.7719  -16.2247 C   0  0  2  0  0  0  0  0  0  0  0  0
   27.4002  -21.5205  -16.4031 N   0  0  0  0  0  0  0  0  0  0  0  0
   29.3744  -22.7058  -16.9630 C   0  0  0  0  0  0  0  0  0  0  0  0
   30.3817  -23.6538  -16.8362 O   0  0  0  0  0  0  0  0  0  0  0  0
   29.5962  -21.7633  -17.7544 O   0  0  0  0  0  0  0  0  0  0  0  0
  2  1  1  1
  2  3  1  0
  4  6  1  0
  4  2  1  0
  4  5  1  6
  6  7  2  0
  8  9  1  0
  8  6  1  0
  9 10  1  1
 10 11  1  0
 11 12  2  0
 13 12  1  0
 14 13  1  0
 15 14  2  0
 15 11  1  0
 16  9  1  0
 17 16  2  0
 19 18  1  1
 19 20  1  0
 19 21  1  0
 21 22  1  6
 22 16  1  0
 23 21  1  0
 23 24  1  0
 25 23  2  0
M  END
$$$$
