VHT.pdb
     RDKit          3D

 25 25  0  0  1  0  0  0  0  0999 V2000
   22.5360  -14.2737  -19.1293 C   0  0  0  0  0  0  0  0  0  0  0  0
   22.5860  -13.4755  -17.8753 C   0  0  2  0  0  0  0  0  0  0  0  0
   21.8147  -14.2084  -16.7691 C   0  0  0  0  0  0  0  0  0  0  0  0
   22.1012  -12.0674  -17.9665 C   0  0  2  0  0  0  0  0  0  0  0  0
   22.3373  -11.6115  -19.3553 N   0  0  0  0  0  0  0  0  0  0  0  0
   22.7081  -11.1277  -17.0099 C   0  0  0  0  0  0  0  0  0  0  0  0
   22.5960  -11.3725  -15.7780 O   0  0  0  0  0  0  0  0  0  0  0  0
   23.3981   -9.9874  -17.4104 N   0  0  0  0  0  0  0  0  0  0  0  0
   23.9481   -9.0078  -16.4614 C   0  0  1  0  0  0  0  0  0  0  0  0
   25.4209   -8.8595  -16.8697 C   0  0  0  0  0  0  0  0  0  0  0  0
   26.1855  -10.0730  -16.5002 C   0  0  0  0  0  0  0  0  0  0  0  0
   26.5916  -10.4950  -15.2475 C   0  0  0  0  0  0  0  0  0  0  0  0
   27.2637  -11.6597  -15.3871 N   0  0  0  0  0  0  0  0  0  0  0  0
   27.2887  -11.9763  -16.6886 C   0  0  0  0  0  0  0  0  0  0  0  0
   26.6310  -11.0055  -17.3533 N   0  0  0  0  0  0  0  0  0  0  0  0
   23.2610   -7.7149  -16.6960 C   0  0  0  0  0  0  0  0  0  0  0  0
   23.0049   -7.3171  -17.8595 O   0  0  0  0  0  0  0  0  0  0  0  0
   20.1195   -7.4926  -15.5930 C   0  0  0  0  0  0  0  0  0  0  0  0
   20.5844   -6.2797  -16.3718 C   0  0  1  0  0  0  0  0  0  0  0  0
   19.6261   -5.2945  -16.4661 O   0  0  0  0  0  0  0  0  0  0  0  0
   21.8892   -5.7892  -15.7921 C   0  0  2  0  0  0  0  0  0  0  0  0
   22.8542   -6.8556  -15.6375 N   0  0  0  0  0  0  0  0  0  0  0  0
   21.7122   -5.1238  -14.4918 C   0  0  0  0  0  0  0  0  0  0  0  0
   21.1070   -3.8822  -14.3453 O   0  0  0  0  0  0  0  0  0  0  0  0
   22.1139   -5.6724  -13.4423 O   0  0  0  0  0  0  0  0  0  0  0  0
  2  1  1  6
  2  3  1  0
  4  6  1  0
  4  2  1  0
  4  5  1  6
  6  7  2  0
  8  9  1  0
  8  6  1  0
  9 10  1  6
 10 11  1  0
 11 12  2  0
 13 12  1  0
 14 13  1  0
 15 14  2  0
 15 11  1  0
 16  9  1  0
 17 16  2  0
 19 18  1  1
 19 20  1  0
 19 21  1  0
 21 22  1  1
 22 16  1  0
 23 21  1  0
 23 24  1  0
 25 23  2  0
M  END
$$$$
