VHT.pdb
     RDKit          3D

 25 25  0  0  1  0  0  0  0  0999 V2000
   26.3755  -21.9448  -12.7019 C   0  0  0  0  0  0  0  0  0  0  0  0
   26.0061  -20.8524  -11.7627 C   0  0  2  0  0  0  0  0  0  0  0  0
   26.3656  -21.2648  -10.3287 C   0  0  0  0  0  0  0  0  0  0  0  0
   24.5867  -20.3944  -11.8045 C   0  0  2  0  0  0  0  0  0  0  0  0
   23.7494  -21.5172  -11.3243 N   0  0  0  0  0  0  0  0  0  0  0  0
   24.1124  -19.9281  -13.1175 C   0  0  0  0  0  0  0  0  0  0  0  0
   24.6543  -18.9069  -13.6212 O   0  0  0  0  0  0  0  0  0  0  0  0
   23.0963  -20.5680  -13.8209 N   0  0  0  0  0  0  0  0  0  0  0  0
   22.6522  -20.1401  -15.1560 C   0  0  1  0  0  0  0  0  0  0  0  0
   22.6900  -21.4196  -16.0041 C   0  0  0  0  0  0  0  0  0  0  0  0
   24.0784  -21.7239  -16.4208 C   0  0  0  0  0  0  0  0  0  0  0  0
   25.2324  -20.9977  -16.1907 C   0  0  0  0  0  0  0  0  0  0  0  0
   26.2697  -21.6555  -16.7555 N   0  0  0  0  0  0  0  0  0  0  0  0
   25.7971  -22.7695  -17.3304 C   0  0  0  0  0  0  0  0  0  0  0  0
   24.4661  -22.7992  -17.1202 N   0  0  0  0  0  0  0  0  0  0  0  0
   21.2437  -19.6909  -15.0423 C   0  0  0  0  0  0  0  0  0  0  0  0
   20.4901  -20.1372  -14.1420 O   0  0  0  0  0  0  0  0  0  0  0  0
   19.4424  -17.2314  -18.0471 C   0  0  0  0  0  0  0  0  0  0  0  0
   19.0940  -16.9767  -16.5953 C   0  0  1  0  0  0  0  0  0  0  0  0
   17.8380  -16.4370  -16.4246 O   0  0  0  0  0  0  0  0  0  0  0  0
   19.3115  -18.2439  -15.8042 C   0  0  2  0  0  0  0  0  0  0  0  0
   20.6638  -18.7418  -15.9297 N   0  0  0  0  0  0  0  0  0  0  0  0
   18.3790  -19.3147  -16.1896 C   0  0  0  0  0  0  0  0  0  0  0  0
   17.0231  -19.2916  -15.8892 O   0  0  0  0  0  0  0  0  0  0  0  0
   18.7904  -20.3128  -16.8207 O   0  0  0  0  0  0  0  0  0  0  0  0
  2  1  1  6
  2  3  1  0
  4  6  1  0
  4  2  1  0
  4  5  1  6
  6  7  2  0
  8  9  1  0
  8  6  1  0
  9 10  1  6
 10 11  1  0
 11 12  2  0
 13 12  1  0
 14 13  1  0
 15 14  2  0
 15 11  1  0
 16  9  1  0
 17 16  2  0
 19 18  1  6
 19 20  1  0
 19 21  1  0
 21 22  1  6
 22 16  1  0
 23 21  1  0
 23 24  1  0
 25 23  2  0
M  END
$$$$
