VHT.pdb
     RDKit          3D

 25 25  0  0  1  0  0  0  0  0999 V2000
   20.4397  -12.5188  -16.5374 C   0  0  0  0  0  0  0  0  0  0  0  0
   19.1550  -12.4044  -17.2780 C   0  0  2  0  0  0  0  0  0  0  0  0
   19.0987  -13.4746  -18.3767 C   0  0  0  0  0  0  0  0  0  0  0  0
   18.8488  -11.0700  -17.8713 C   0  0  2  0  0  0  0  0  0  0  0  0
   19.5829  -10.9817  -19.1541 N   0  0  0  0  0  0  0  0  0  0  0  0
   19.1669   -9.9126  -17.0194 C   0  0  0  0  0  0  0  0  0  0  0  0
   18.5893   -9.8150  -15.9028 O   0  0  0  0  0  0  0  0  0  0  0  0
   20.0765   -8.9289  -17.3961 N   0  0  0  0  0  0  0  0  0  0  0  0
   20.5133   -7.8525  -16.4942 C   0  0  1  0  0  0  0  0  0  0  0  0
   22.0466   -7.9357  -16.5080 C   0  0  0  0  0  0  0  0  0  0  0  0
   22.5139   -9.0284  -15.6241 C   0  0  0  0  0  0  0  0  0  0  0  0
   21.7664   -9.9214  -14.8786 C   0  0  0  0  0  0  0  0  0  0  0  0
   22.6151  -10.7445  -14.2228 N   0  0  0  0  0  0  0  0  0  0  0  0
   23.8686  -10.3915  -14.5372 C   0  0  0  0  0  0  0  0  0  0  0  0
   23.7935   -9.3490  -15.3881 N   0  0  0  0  0  0  0  0  0  0  0  0
   20.1054   -6.5615  -17.0989 C   0  0  0  0  0  0  0  0  0  0  0  0
   20.3233   -6.3142  -18.3109 O   0  0  0  0  0  0  0  0  0  0  0  0
   16.8583   -5.2373  -17.8467 C   0  0  0  0  0  0  0  0  0  0  0  0
   17.4508   -4.2205  -16.8933 C   0  0  1  0  0  0  0  0  0  0  0  0
   16.9442   -4.3140  -15.6156 O   0  0  0  0  0  0  0  0  0  0  0  0
   18.9569   -4.3110  -16.9461 C   0  0  2  0  0  0  0  0  0  0  0  0
   19.4521   -5.5367  -16.3590 N   0  0  0  0  0  0  0  0  0  0  0  0
   19.6123   -3.1736  -16.2817 C   0  0  0  0  0  0  0  0  0  0  0  0
   19.5348   -1.8679  -16.7490 O   0  0  0  0  0  0  0  0  0  0  0  0
   20.2823   -3.3514  -15.2409 O   0  0  0  0  0  0  0  0  0  0  0  0
  2  1  1  6
  2  3  1  0
  4  6  1  0
  4  2  1  0
  4  5  1  6
  6  7  2  0
  8  9  1  0
  8  6  1  0
  9 10  1  6
 10 11  1  0
 11 12  2  0
 13 12  1  0
 14 13  1  0
 15 14  2  0
 15 11  1  0
 16  9  1  0
 17 16  2  0
 19 18  1  6
 19 20  1  0
 19 21  1  0
 21 22  1  1
 22 16  1  0
 23 21  1  0
 23 24  1  0
 25 23  2  0
M  END
$$$$
