VHT.pdb
     RDKit          3D

 25 25  0  0  1  0  0  0  0  0999 V2000
   24.5901  -15.5692  -15.1870 C   0  0  0  0  0  0  0  0  0  0  0  0
   23.8729  -14.4100  -15.7820 C   0  0  2  0  0  0  0  0  0  0  0  0
   24.2013  -13.1395  -14.9860 C   0  0  0  0  0  0  0  0  0  0  0  0
   22.3926  -14.5430  -15.9127 C   0  0  2  0  0  0  0  0  0  0  0  0
   22.1322  -15.7237  -16.7673 N   0  0  0  0  0  0  0  0  0  0  0  0
   21.6976  -13.3611  -16.4481 C   0  0  0  0  0  0  0  0  0  0  0  0
   21.8919  -13.0482  -17.6541 O   0  0  0  0  0  0  0  0  0  0  0  0
   20.8382  -12.5816  -15.6796 N   0  0  0  0  0  0  0  0  0  0  0  0
   20.0858  -11.4415  -16.2244 C   0  0  1  0  0  0  0  0  0  0  0  0
   18.6117  -11.8459  -16.0773 C   0  0  0  0  0  0  0  0  0  0  0  0
   18.2326  -12.8144  -17.1318 C   0  0  0  0  0  0  0  0  0  0  0  0
   18.0285  -14.1778  -17.0253 C   0  0  0  0  0  0  0  0  0  0  0  0
   17.6965  -14.6559  -18.2455 N   0  0  0  0  0  0  0  0  0  0  0  0
   17.6875  -13.6317  -19.1091 C   0  0  0  0  0  0  0  0  0  0  0  0
   18.0145  -12.5199  -18.4209 N   0  0  0  0  0  0  0  0  0  0  0  0
   20.3432  -10.2705  -15.3520 C   0  0  0  0  0  0  0  0  0  0  0  0
   20.4481  -10.3986  -14.1069 O   0  0  0  0  0  0  0  0  0  0  0  0
   22.0474   -5.6839  -14.8156 C   0  0  0  0  0  0  0  0  0  0  0  0
   21.8177   -6.8940  -15.6970 C   0  0  1  0  0  0  0  0  0  0  0  0
   22.9830   -7.5396  -16.0479 O   0  0  0  0  0  0  0  0  0  0  0  0
   20.8077   -7.8021  -15.0381 C   0  0  2  0  0  0  0  0  0  0  0  0
   20.4855   -8.9487  -15.8590 N   0  0  0  0  0  0  0  0  0  0  0  0
   19.5590   -7.1020  -14.6985 C   0  0  0  0  0  0  0  0  0  0  0  0
   18.6006   -6.7492  -15.6401 O   0  0  0  0  0  0  0  0  0  0  0  0
   19.3120   -6.7916  -13.5125 O   0  0  0  0  0  0  0  0  0  0  0  0
  2  1  1  1
  2  3  1  0
  4  6  1  0
  4  2  1  0
  4  5  1  6
  6  7  2  0
  8  9  1  0
  8  6  1  0
  9 10  1  1
 10 11  1  0
 11 12  2  0
 13 12  1  0
 14 13  1  0
 15 14  2  0
 15 11  1  0
 16  9  1  0
 17 16  2  0
 19 18  1  1
 19 20  1  0
 19 21  1  0
 21 22  1  6
 22 16  1  0
 23 21  1  0
 23 24  1  0
 25 23  2  0
M  END
$$$$
