VHT.pdb
     RDKit          3D

 25 25  0  0  1  0  0  0  0  0999 V2000
   26.6368  -20.7974  -18.0838 C   0  0  0  0  0  0  0  0  0  0  0  0
   27.1681  -19.9137  -17.0120 C   0  0  2  0  0  0  0  0  0  0  0  0
   28.4720  -19.2577  -17.4868 C   0  0  0  0  0  0  0  0  0  0  0  0
   27.3901  -20.5479  -15.6798 C   0  0  2  0  0  0  0  0  0  0  0  0
   27.3377  -22.0142  -15.8781 N   0  0  0  0  0  0  0  0  0  0  0  0
   26.4502  -20.1410  -14.6227 C   0  0  0  0  0  0  0  0  0  0  0  0
   26.3792  -18.9181  -14.3235 O   0  0  0  0  0  0  0  0  0  0  0  0
   25.6406  -21.0485  -13.9460 N   0  0  0  0  0  0  0  0  0  0  0  0
   24.6702  -20.6457  -12.9170 C   0  0  1  0  0  0  0  0  0  0  0  0
   23.3621  -21.3372  -13.3281 C   0  0  0  0  0  0  0  0  0  0  0  0
   22.6198  -20.5041  -14.3021 C   0  0  0  0  0  0  0  0  0  0  0  0
   22.9548  -19.2657  -14.8178 C   0  0  0  0  0  0  0  0  0  0  0  0
   21.9816  -18.8832  -15.6748 N   0  0  0  0  0  0  0  0  0  0  0  0
   21.0504  -19.8458  -15.7086 C   0  0  0  0  0  0  0  0  0  0  0  0
   21.4495  -20.8238  -14.8714 N   0  0  0  0  0  0  0  0  0  0  0  0
   25.1188  -21.2154  -11.6237 C   0  0  0  0  0  0  0  0  0  0  0  0
   25.1631  -22.4574  -11.4414 O   0  0  0  0  0  0  0  0  0  0  0  0
   28.1332  -20.1027   -9.1520 C   0  0  0  0  0  0  0  0  0  0  0  0
   26.7905  -20.0600   -8.4525 C   0  0  1  0  0  0  0  0  0  0  0  0
   26.3300  -18.7794   -8.2382 O   0  0  0  0  0  0  0  0  0  0  0  0
   25.8116  -20.9277   -9.2061 C   0  0  2  0  0  0  0  0  0  0  0  0
   25.5211  -20.4071  -10.5241 N   0  0  0  0  0  0  0  0  0  0  0  0
   24.5436  -21.1053   -8.4814 C   0  0  0  0  0  0  0  0  0  0  0  0
   24.4586  -21.6818   -7.2205 O   0  0  0  0  0  0  0  0  0  0  0  0
   23.4660  -20.7307   -8.9937 O   0  0  0  0  0  0  0  0  0  0  0  0
  2  1  1  6
  2  3  1  0
  4  6  1  0
  4  2  1  0
  4  5  1  6
  6  7  2  0
  8  9  1  0
  8  6  1  0
  9 10  1  6
 10 11  1  0
 11 12  2  0
 13 12  1  0
 14 13  1  0
 15 14  2  0
 15 11  1  0
 16  9  1  0
 17 16  2  0
 19 18  1  6
 19 20  1  0
 19 21  1  0
 21 22  1  6
 22 16  1  0
 23 21  1  0
 23 24  1  0
 25 23  2  0
M  END
$$$$
