VHT.pdb
     RDKit          3D

 25 25  0  0  1  0  0  0  0  0999 V2000
   25.8348  -36.3352  -12.1952 C   0  0  0  0  0  0  0  0  0  0  0  0
   26.4458  -35.8506  -10.9287 C   0  0  2  0  0  0  0  0  0  0  0  0
   26.0953  -36.8153   -9.7875 C   0  0  0  0  0  0  0  0  0  0  0  0
   26.1055  -34.4565  -10.5200 C   0  0  2  0  0  0  0  0  0  0  0  0
   26.7474  -33.5450  -11.4943 N   0  0  0  0  0  0  0  0  0  0  0  0
   26.4892  -34.0898   -9.1471 C   0  0  0  0  0  0  0  0  0  0  0  0
   27.6762  -33.7202   -8.9363 O   0  0  0  0  0  0  0  0  0  0  0  0
   25.5972  -34.1335   -8.0798 N   0  0  0  0  0  0  0  0  0  0  0  0
   25.9822  -33.8059   -6.6987 C   0  0  1  0  0  0  0  0  0  0  0  0
   24.6530  -33.5200   -5.9849 C   0  0  0  0  0  0  0  0  0  0  0  0
   24.8956  -33.1168   -4.5805 C   0  0  0  0  0  0  0  0  0  0  0  0
   26.0995  -32.9075   -3.9333 C   0  0  0  0  0  0  0  0  0  0  0  0
   25.8401  -32.5510   -2.6553 N   0  0  0  0  0  0  0  0  0  0  0  0
   24.5113  -32.5318   -2.4865 C   0  0  0  0  0  0  0  0  0  0  0  0
   23.9496  -32.8771   -3.6621 N   0  0  0  0  0  0  0  0  0  0  0  0
   26.5890  -35.0182   -6.0981 C   0  0  0  0  0  0  0  0  0  0  0  0
   26.2260  -36.1683   -6.4488 O   0  0  0  0  0  0  0  0  0  0  0  0
   30.4747  -37.0444   -3.8684 C   0  0  0  0  0  0  0  0  0  0  0  0
   29.8116  -35.9344   -4.6573 C   0  0  1  0  0  0  0  0  0  0  0  0
   30.3025  -35.8104   -5.9385 O   0  0  0  0  0  0  0  0  0  0  0  0
   28.3140  -36.1179   -4.6073 C   0  0  2  0  0  0  0  0  0  0  0  0
   27.6042  -34.9591   -5.1029 N   0  0  0  0  0  0  0  0  0  0  0  0
   27.8294  -36.4212   -3.2516 C   0  0  0  0  0  0  0  0  0  0  0  0
   27.5604  -37.7094   -2.8070 O   0  0  0  0  0  0  0  0  0  0  0  0
   27.6377  -35.4991   -2.4289 O   0  0  0  0  0  0  0  0  0  0  0  0
  2  1  1  6
  2  3  1  0
  4  6  1  0
  4  2  1  0
  4  5  1  6
  6  7  2  0
  8  9  1  0
  8  6  1  0
  9 10  1  1
 10 11  1  0
 11 12  2  0
 13 12  1  0
 14 13  1  0
 15 14  2  0
 15 11  1  0
 16  9  1  0
 17 16  2  0
 19 18  1  6
 19 20  1  0
 19 21  1  0
 21 22  1  1
 22 16  1  0
 23 21  1  0
 23 24  1  0
 25 23  2  0
M  END
$$$$
