ILS.pdb
     RDKit          3D

 23 22  0  0  1  0  0  0  0  0999 V2000
    6.3180  -22.7483   24.8119 C   0  0  0  0  0  0  0  0  0  0  0  0
    5.6046  -21.5003   24.4132 C   0  0  0  0  0  0  0  0  0  0  0  0
    6.4840  -20.2587   24.4587 C   0  0  2  0  0  0  0  0  0  0  0  0
    7.1288  -20.2388   25.8017 C   0  0  0  0  0  0  0  0  0  0  0  0
    5.6924  -19.0415   24.0937 C   0  0  2  0  0  0  0  0  0  0  0  0
    5.3236  -19.2461   22.6737 N   0  0  0  0  0  0  0  0  0  0  0  0
    6.4260  -17.7684   24.1527 C   0  0  0  0  0  0  0  0  0  0  0  0
    7.3014  -17.5200   23.2645 O   0  0  0  0  0  0  0  0  0  0  0  0
    6.6228  -12.3603   27.1567 C   0  0  0  0  0  0  0  0  0  0  0  0
    7.3108  -13.2466   26.1117 C   0  0  2  0  0  0  0  0  0  0  0  0
    7.4795  -12.3800   24.8838 C   0  0  0  0  0  0  0  0  0  0  0  0
    6.4537  -14.4312   25.9027 C   0  0  0  0  0  0  0  0  0  0  0  0
    7.1035  -15.6094   25.2138 C   0  0  2  0  0  0  0  0  0  0  0  0
    6.2418  -16.7484   25.1413 N   0  0  0  0  0  0  0  0  0  0  0  0
    8.4819  -15.8852   25.6687 C   0  0  0  0  0  0  0  0  0  0  0  0
    8.7110  -16.2943   26.8629 O   0  0  0  0  0  0  0  0  0  0  0  0
   11.9198  -15.4591   23.1597 O   0  0  0  0  0  0  0  0  0  0  0  0
   11.7265  -16.5876   23.9452 C   0  0  0  0  0  0  0  0  0  0  0  0
   10.9067  -16.3412   25.1630 C   0  0  2  0  0  0  0  0  0  0  0  0
    9.6270  -15.7202   24.8371 N   0  0  0  0  0  0  0  0  0  0  0  0
   11.6257  -15.4674   26.1405 C   0  0  0  0  0  0  0  0  0  0  0  0
   11.0419  -14.4043   26.4770 O   0  0  0  0  0  0  0  0  0  0  0  0
   12.8749  -15.8259   26.6426 O   0  0  0  0  0  0  0  0  0  0  0  0
  1  2  1  0
  2  3  1  0
  3  5  1  0
  3  4  1  1
  5  7  1  0
  5  6  1  6
  7  8  2  0
 10  9  1  1
 10 12  1  0
 11 10  1  0
 13 12  1  1
 14 13  1  0
 14  7  1  0
 15 16  2  0
 15 13  1  0
 17 18  1  0
 19 18  1  6
 19 21  1  0
 19 20  1  0
 20 15  1  0
 21 23  1  0
 22 21  2  0
M  END
$$$$
