ILS.pdb
     RDKit          3D

 23 22  0  0  1  0  0  0  0  0999 V2000
    6.3577  -22.8593   24.8543 C   0  0  0  0  0  0  0  0  0  0  0  0
    5.5708  -21.6389   24.5125 C   0  0  0  0  0  0  0  0  0  0  0  0
    6.4155  -20.3749   24.4356 C   0  0  2  0  0  0  0  0  0  0  0  0
    7.2247  -20.3231   25.6856 C   0  0  0  0  0  0  0  0  0  0  0  0
    5.5520  -19.1825   24.1639 C   0  0  2  0  0  0  0  0  0  0  0  0
    5.0022  -19.4188   22.8088 N   0  0  0  0  0  0  0  0  0  0  0  0
    6.2546  -17.8919   24.1076 C   0  0  0  0  0  0  0  0  0  0  0  0
    7.0048  -17.6418   23.1119 O   0  0  0  0  0  0  0  0  0  0  0  0
    6.8285  -12.5074   27.1488 C   0  0  0  0  0  0  0  0  0  0  0  0
    7.3588  -13.3768   26.0026 C   0  0  2  0  0  0  0  0  0  0  0  0
    7.3139  -12.5036   24.7687 C   0  0  0  0  0  0  0  0  0  0  0  0
    6.5023  -14.5777   25.9250 C   0  0  0  0  0  0  0  0  0  0  0  0
    6.9969  -15.6910   25.0302 C   0  0  2  0  0  0  0  0  0  0  0  0
    6.1703  -16.8563   25.0935 N   0  0  0  0  0  0  0  0  0  0  0  0
    8.4502  -15.9386   25.1276 C   0  0  0  0  0  0  0  0  0  0  0  0
    8.9528  -16.5068   26.1622 O   0  0  0  0  0  0  0  0  0  0  0  0
   12.5962  -16.4702   22.5515 O   0  0  0  0  0  0  0  0  0  0  0  0
   11.3115  -15.9577   22.6724 C   0  0  0  0  0  0  0  0  0  0  0  0
   10.6876  -16.2023   24.0016 C   0  0  2  0  0  0  0  0  0  0  0  0
    9.3752  -15.5731   24.1074 N   0  0  0  0  0  0  0  0  0  0  0  0
   11.5501  -15.6965   25.1136 C   0  0  0  0  0  0  0  0  0  0  0  0
   11.0858  -14.7455   25.7950 O   0  0  0  0  0  0  0  0  0  0  0  0
   12.7989  -16.2594   25.3685 O   0  0  0  0  0  0  0  0  0  0  0  0
  1  2  1  0
  2  3  1  0
  3  5  1  0
  3  4  1  1
  5  7  1  0
  5  6  1  6
  7  8  2  0
 10  9  1  1
 10 12  1  0
 11 10  1  0
 13 12  1  1
 14 13  1  0
 14  7  1  0
 15 16  2  0
 15 13  1  0
 17 18  1  0
 19 18  1  6
 19 21  1  0
 19 20  1  0
 20 15  1  0
 21 23  1  0
 22 21  2  0
M  END
$$$$
