ILS.pdb
     RDKit          3D

 23 22  0  0  1  0  0  0  0  0999 V2000
    9.8628  -20.3808   20.7616 C   0  0  0  0  0  0  0  0  0  0  0  0
    9.4939  -18.9431   20.6117 C   0  0  0  0  0  0  0  0  0  0  0  0
    9.5299  -18.1684   21.9215 C   0  0  2  0  0  0  0  0  0  0  0  0
    8.6952  -18.9296   22.8931 C   0  0  0  0  0  0  0  0  0  0  0  0
    9.1376  -16.7410   21.6977 C   0  0  2  0  0  0  0  0  0  0  0  0
   10.1530  -16.2166   20.7552 N   0  0  0  0  0  0  0  0  0  0  0  0
    9.1891  -15.8767   22.8864 C   0  0  0  0  0  0  0  0  0  0  0  0
   10.3188  -15.6089   23.4049 O   0  0  0  0  0  0  0  0  0  0  0  0
    5.6128  -12.4286   26.6166 C   0  0  0  0  0  0  0  0  0  0  0  0
    6.9805  -13.0966   26.4321 C   0  0  2  0  0  0  0  0  0  0  0  0
    8.0014  -11.9895   26.5707 C   0  0  0  0  0  0  0  0  0  0  0  0
    6.9773  -13.7540   25.1094 C   0  0  0  0  0  0  0  0  0  0  0  0
    8.1749  -14.6207   24.7942 C   0  0  2  0  0  0  0  0  0  0  0  0
    8.0562  -15.2863   23.5341 N   0  0  0  0  0  0  0  0  0  0  0  0
    8.6143  -15.4698   25.9207 C   0  0  0  0  0  0  0  0  0  0  0  0
    7.8663  -16.4128   26.3645 O   0  0  0  0  0  0  0  0  0  0  0  0
   11.8523  -17.0585   25.9626 O   0  0  0  0  0  0  0  0  0  0  0  0
   11.6464  -16.8078   27.3127 C   0  0  0  0  0  0  0  0  0  0  0  0
   10.3106  -16.2278   27.6212 C   0  0  2  0  0  0  0  0  0  0  0  0
    9.8671  -15.3069   26.5797 N   0  0  0  0  0  0  0  0  0  0  0  0
   10.3164  -15.5023   28.9287 C   0  0  0  0  0  0  0  0  0  0  0  0
   10.6821  -16.1638   29.9351 O   0  0  0  0  0  0  0  0  0  0  0  0
    9.9342  -14.1650   29.0110 O   0  0  0  0  0  0  0  0  0  0  0  0
  1  2  1  0
  2  3  1  0
  3  5  1  0
  3  4  1  1
  5  7  1  0
  5  6  1  6
  7  8  2  0
 10  9  1  6
 10 12  1  0
 11 10  1  0
 13 12  1  1
 14 13  1  0
 14  7  1  0
 15 16  2  0
 15 13  1  0
 17 18  1  0
 19 18  1  6
 19 21  1  0
 19 20  1  0
 20 15  1  0
 21 23  1  0
 22 21  2  0
M  END
$$$$
