ILS.pdb
     RDKit          3D

 23 22  0  0  1  0  0  0  0  0999 V2000
   10.4237  -13.6932   29.5052 C   0  0  0  0  0  0  0  0  0  0  0  0
   10.4125  -14.5750   28.3020 C   0  0  0  0  0  0  0  0  0  0  0  0
    9.9303  -15.9895   28.5917 C   0  0  2  0  0  0  0  0  0  0  0  0
   10.9083  -16.5897   29.5422 C   0  0  0  0  0  0  0  0  0  0  0  0
    9.7112  -16.7408   27.3155 C   0  0  2  0  0  0  0  0  0  0  0  0
   10.9635  -16.5489   26.5478 N   0  0  0  0  0  0  0  0  0  0  0  0
    8.6218  -16.2389   26.4647 C   0  0  0  0  0  0  0  0  0  0  0  0
    7.5491  -16.9155   26.3743 O   0  0  0  0  0  0  0  0  0  0  0  0
    5.7024  -12.9806   26.4698 C   0  0  0  0  0  0  0  0  0  0  0  0
    7.1080  -12.6821   25.9350 C   0  0  2  0  0  0  0  0  0  0  0  0
    7.2147  -11.1747   25.8766 C   0  0  0  0  0  0  0  0  0  0  0  0
    7.2330  -13.3484   24.6227 C   0  0  0  0  0  0  0  0  0  0  0  0
    7.7254  -14.7774   24.6463 C   0  0  2  0  0  0  0  0  0  0  0  0
    8.6513  -15.0230   25.7081 N   0  0  0  0  0  0  0  0  0  0  0  0
    8.1271  -15.2956   23.3223 C   0  0  0  0  0  0  0  0  0  0  0  0
    7.3004  -15.3060   22.3414 O   0  0  0  0  0  0  0  0  0  0  0  0
   11.3180  -16.0304   19.8906 O   0  0  0  0  0  0  0  0  0  0  0  0
   10.8306  -15.4929   21.0744 C   0  0  0  0  0  0  0  0  0  0  0  0
    9.7831  -16.3246   21.7278 C   0  0  2  0  0  0  0  0  0  0  0  0
    9.4271  -15.8092   23.0458 N   0  0  0  0  0  0  0  0  0  0  0  0
   10.2238  -17.7459   21.8745 C   0  0  0  0  0  0  0  0  0  0  0  0
   10.3033  -18.1897   23.0496 O   0  0  0  0  0  0  0  0  0  0  0  0
   10.5267  -18.5240   20.7590 O   0  0  0  0  0  0  0  0  0  0  0  0
  1  2  1  0
  2  3  1  0
  3  5  1  0
  3  4  1  1
  5  7  1  0
  5  6  1  6
  7  8  2  0
 10  9  1  6
 10 12  1  0
 11 10  1  0
 13 12  1  6
 14 13  1  0
 14  7  1  0
 15 16  2  0
 15 13  1  0
 17 18  1  0
 19 18  1  1
 19 21  1  0
 19 20  1  0
 20 15  1  0
 21 23  1  0
 22 21  2  0
M  END
$$$$
