ILS.pdb
     RDKit          3D

 23 22  0  0  1  0  0  0  0  0999 V2000
    7.0948  -12.3556   19.1036 C   0  0  0  0  0  0  0  0  0  0  0  0
    7.2251  -13.6407   19.8498 C   0  0  0  0  0  0  0  0  0  0  0  0
    8.3918  -13.6583   20.8274 C   0  0  2  0  0  0  0  0  0  0  0  0
    9.6203  -13.3728   20.0341 C   0  0  0  0  0  0  0  0  0  0  0  0
    8.3998  -14.9334   21.6118 C   0  0  2  0  0  0  0  0  0  0  0  0
    6.9962  -15.4056   21.5739 N   0  0  0  0  0  0  0  0  0  0  0  0
    8.7545  -14.8001   23.0327 C   0  0  0  0  0  0  0  0  0  0  0  0
    9.9620  -14.5536   23.3457 O   0  0  0  0  0  0  0  0  0  0  0  0
    7.9142  -11.9554   26.3546 C   0  0  0  0  0  0  0  0  0  0  0  0
    6.7713  -12.9419   26.0872 C   0  0  2  0  0  0  0  0  0  0  0  0
    5.6144  -12.4731   26.9409 C   0  0  0  0  0  0  0  0  0  0  0  0
    7.2641  -14.2926   26.4256 C   0  0  0  0  0  0  0  0  0  0  0  0
    8.2944  -14.8793   25.4879 C   0  0  2  0  0  0  0  0  0  0  0  0
    7.8436  -14.9209   24.1314 N   0  0  0  0  0  0  0  0  0  0  0  0
    8.9211  -16.1210   25.9860 C   0  0  0  0  0  0  0  0  0  0  0  0
    9.1932  -16.2669   27.2312 O   0  0  0  0  0  0  0  0  0  0  0  0
    9.4600  -19.6610   23.6362 O   0  0  0  0  0  0  0  0  0  0  0  0
    9.3172  -19.6543   25.0174 C   0  0  0  0  0  0  0  0  0  0  0  0
    9.8643  -18.4354   25.6739 C   0  0  2  0  0  0  0  0  0  0  0  0
    9.2612  -17.2176   25.1422 N   0  0  0  0  0  0  0  0  0  0  0  0
   11.3478  -18.3436   25.5106 C   0  0  0  0  0  0  0  0  0  0  0  0
   11.7777  -17.3793   24.8254 O   0  0  0  0  0  0  0  0  0  0  0  0
   12.1953  -19.2839   26.0928 O   0  0  0  0  0  0  0  0  0  0  0  0
  1  2  1  0
  2  3  1  0
  3  5  1  0
  3  4  1  6
  5  7  1  0
  5  6  1  1
  7  8  2  0
 10  9  1  1
 10 12  1  0
 11 10  1  0
 13 12  1  1
 14 13  1  0
 14  7  1  0
 15 16  2  0
 15 13  1  0
 17 18  1  0
 19 18  1  6
 19 21  1  0
 19 20  1  0
 20 15  1  0
 21 23  1  0
 22 21  2  0
M  END
$$$$
