ILS.pdb
     RDKit          3D

 23 22  0  0  1  0  0  0  0  0999 V2000
    7.5622  -15.9687   18.0117 C   0  0  0  0  0  0  0  0  0  0  0  0
    7.7224  -14.7602   18.8715 C   0  0  0  0  0  0  0  0  0  0  0  0
    7.9405  -15.0873   20.3421 C   0  0  2  0  0  0  0  0  0  0  0  0
    6.8337  -15.9987   20.7475 C   0  0  0  0  0  0  0  0  0  0  0  0
    8.0815  -13.8307   21.1437 C   0  0  2  0  0  0  0  0  0  0  0  0
    9.2366  -13.1278   20.5386 N   0  0  0  0  0  0  0  0  0  0  0  0
    8.4089  -14.0200   22.5648 C   0  0  0  0  0  0  0  0  0  0  0  0
    9.6266  -14.1600   22.9031 O   0  0  0  0  0  0  0  0  0  0  0  0
    7.6857  -11.6693   26.4501 C   0  0  0  0  0  0  0  0  0  0  0  0
    6.4697  -12.4675   25.9652 C   0  0  2  0  0  0  0  0  0  0  0  0
    5.3363  -12.0967   26.8953 C   0  0  0  0  0  0  0  0  0  0  0  0
    6.8368  -13.8978   25.9995 C   0  0  0  0  0  0  0  0  0  0  0  0
    7.8591  -14.3470   24.9807 C   0  0  2  0  0  0  0  0  0  0  0  0
    7.4608  -14.0593   23.6377 N   0  0  0  0  0  0  0  0  0  0  0  0
    8.3753  -15.7122   25.2102 C   0  0  0  0  0  0  0  0  0  0  0  0
    8.7451  -16.0877   26.3799 O   0  0  0  0  0  0  0  0  0  0  0  0
    9.3651  -18.6247   22.1410 O   0  0  0  0  0  0  0  0  0  0  0  0
    8.7040  -18.9594   23.3153 C   0  0  0  0  0  0  0  0  0  0  0  0
    8.9824  -18.0347   24.4481 C   0  0  2  0  0  0  0  0  0  0  0  0
    8.4979  -16.6853   24.1767 N   0  0  0  0  0  0  0  0  0  0  0  0
   10.4449  -17.9644   24.7520 C   0  0  0  0  0  0  0  0  0  0  0  0
   11.0042  -19.0465   25.0691 O   0  0  0  0  0  0  0  0  0  0  0  0
   11.1367  -16.7570   24.6829 O   0  0  0  0  0  0  0  0  0  0  0  0
  1  2  1  0
  2  3  1  0
  3  5  1  0
  3  4  1  1
  5  7  1  0
  5  6  1  6
  7  8  2  0
 10  9  1  1
 10 12  1  0
 11 10  1  0
 13 12  1  1
 14 13  1  0
 14  7  1  0
 15 16  2  0
 15 13  1  0
 17 18  1  0
 19 18  1  6
 19 21  1  0
 19 20  1  0
 20 15  1  0
 21 23  1  0
 22 21  2  0
M  END
$$$$
