ILS.pdb
     RDKit          3D

 23 22  0  0  1  0  0  0  0  0999 V2000
    7.1150  -19.0681   18.8057 C   0  0  0  0  0  0  0  0  0  0  0  0
    7.3691  -17.6187   19.0509 C   0  0  0  0  0  0  0  0  0  0  0  0
    7.6913  -17.2972   20.5035 C   0  0  2  0  0  0  0  0  0  0  0  0
    6.6414  -17.9548   21.3314 C   0  0  0  0  0  0  0  0  0  0  0  0
    7.8450  -15.8200   20.6922 C   0  0  2  0  0  0  0  0  0  0  0  0
    8.9760  -15.4454   19.8119 N   0  0  0  0  0  0  0  0  0  0  0  0
    8.2152  -15.3905   22.0490 C   0  0  0  0  0  0  0  0  0  0  0  0
    9.3739  -15.6730   22.4900 O   0  0  0  0  0  0  0  0  0  0  0  0
    5.9794  -12.3025   26.9460 C   0  0  0  0  0  0  0  0  0  0  0  0
    7.1740  -13.0838   26.3863 C   0  0  2  0  0  0  0  0  0  0  0  0
    8.3877  -12.2180   26.6404 C   0  0  0  0  0  0  0  0  0  0  0  0
    6.9039  -13.3419   24.9573 C   0  0  0  0  0  0  0  0  0  0  0  0
    7.7691  -14.3897   24.2953 C   0  0  2  0  0  0  0  0  0  0  0  0
    7.3731  -14.6594   22.9478 N   0  0  0  0  0  0  0  0  0  0  0  0
    8.0166  -15.5809   25.1337 C   0  0  0  0  0  0  0  0  0  0  0  0
    7.0583  -16.3724   25.4513 O   0  0  0  0  0  0  0  0  0  0  0  0
   10.7660  -19.2954   25.9603 O   0  0  0  0  0  0  0  0  0  0  0  0
   10.3736  -18.1038   25.3652 C   0  0  0  0  0  0  0  0  0  0  0  0
    9.5613  -17.2263   26.2517 C   0  0  2  0  0  0  0  0  0  0  0  0
    9.3032  -15.9277   25.6382 N   0  0  0  0  0  0  0  0  0  0  0  0
   10.2324  -17.0063   27.5698 C   0  0  0  0  0  0  0  0  0  0  0  0
   10.5176  -15.8156   27.8617 O   0  0  0  0  0  0  0  0  0  0  0  0
   10.5196  -18.0737   28.4179 O   0  0  0  0  0  0  0  0  0  0  0  0
  1  2  1  0
  2  3  1  0
  3  5  1  0
  3  4  1  1
  5  7  1  0
  5  6  1  6
  7  8  2  0
 10  9  1  6
 10 12  1  0
 11 10  1  0
 13 12  1  1
 14 13  1  0
 14  7  1  0
 15 16  2  0
 15 13  1  0
 17 18  1  0
 19 18  1  6
 19 21  1  0
 19 20  1  0
 20 15  1  0
 21 23  1  0
 22 21  2  0
M  END
$$$$
