ILS.pdb
     RDKit          3D

 23 22  0  0  1  0  0  0  0  0999 V2000
    7.8741  -11.7845   20.3005 C   0  0  0  0  0  0  0  0  0  0  0  0
    7.7652  -13.0244   21.1227 C   0  0  0  0  0  0  0  0  0  0  0  0
    8.5431  -14.2012   20.5506 C   0  0  2  0  0  0  0  0  0  0  0  0
    8.0543  -14.4019   19.1575 C   0  0  0  0  0  0  0  0  0  0  0  0
    8.4419  -15.3878   21.4580 C   0  0  2  0  0  0  0  0  0  0  0  0
    7.0081  -15.7592   21.4309 N   0  0  0  0  0  0  0  0  0  0  0  0
    8.7792  -15.1374   22.8672 C   0  0  0  0  0  0  0  0  0  0  0  0
    9.9985  -14.9747   23.1894 O   0  0  0  0  0  0  0  0  0  0  0  0
    8.1567  -12.0084   26.1004 C   0  0  0  0  0  0  0  0  0  0  0  0
    6.9000  -12.8469   25.8386 C   0  0  2  0  0  0  0  0  0  0  0  0
    5.8140  -12.2405   26.6988 C   0  0  0  0  0  0  0  0  0  0  0  0
    7.2251  -14.2482   26.1737 C   0  0  0  0  0  0  0  0  0  0  0  0
    8.2641  -14.9167   25.3028 C   0  0  2  0  0  0  0  0  0  0  0  0
    7.8388  -15.0526   23.9443 N   0  0  0  0  0  0  0  0  0  0  0  0
    8.8625  -16.1266   25.9038 C   0  0  0  0  0  0  0  0  0  0  0  0
    9.2399  -16.1342   27.1299 O   0  0  0  0  0  0  0  0  0  0  0  0
    9.9843  -19.5499   23.6592 O   0  0  0  0  0  0  0  0  0  0  0  0
    9.5214  -19.7261   24.9564 C   0  0  0  0  0  0  0  0  0  0  0  0
    9.6536  -18.5160   25.8131 C   0  0  2  0  0  0  0  0  0  0  0  0
    9.0598  -17.3405   25.1845 N   0  0  0  0  0  0  0  0  0  0  0  0
   11.0856  -18.2183   26.1244 C   0  0  0  0  0  0  0  0  0  0  0  0
   11.5273  -17.1096   25.7245 O   0  0  0  0  0  0  0  0  0  0  0  0
   11.8751  -19.1307   26.8211 O   0  0  0  0  0  0  0  0  0  0  0  0
  1  2  1  0
  2  3  1  0
  3  5  1  0
  3  4  1  6
  5  7  1  0
  5  6  1  1
  7  8  2  0
 10  9  1  1
 10 12  1  0
 11 10  1  0
 13 12  1  1
 14 13  1  0
 14  7  1  0
 15 16  2  0
 15 13  1  0
 17 18  1  0
 19 18  1  6
 19 21  1  0
 19 20  1  0
 20 15  1  0
 21 23  1  0
 22 21  2  0
M  END
$$$$
