ILS.pdb
     RDKit          3D

 23 22  0  0  1  0  0  0  0  0999 V2000
    8.3614  -12.3159   27.3161 C   0  0  0  0  0  0  0  0  0  0  0  0
    7.9138  -13.6568   26.8396 C   0  0  0  0  0  0  0  0  0  0  0  0
    6.6720  -13.6043   25.9608 C   0  0  2  0  0  0  0  0  0  0  0  0
    5.5879  -13.0011   26.7860 C   0  0  0  0  0  0  0  0  0  0  0  0
    6.3812  -14.9541   25.3822 C   0  0  2  0  0  0  0  0  0  0  0  0
    6.6299  -15.9002   26.4946 N   0  0  0  0  0  0  0  0  0  0  0  0
    7.2584  -15.3717   24.2783 C   0  0  0  0  0  0  0  0  0  0  0  0
    7.4578  -16.6126   24.0854 O   0  0  0  0  0  0  0  0  0  0  0  0
    6.6670  -14.0719   20.0991 C   0  0  0  0  0  0  0  0  0  0  0  0
    7.6492  -13.1547   20.8373 C   0  0  2  0  0  0  0  0  0  0  0  0
    7.9163  -11.9981   19.9002 C   0  0  0  0  0  0  0  0  0  0  0  0
    8.8454  -13.9577   21.1629 C   0  0  0  0  0  0  0  0  0  0  0  0
    8.6785  -14.9859   22.2582 C   0  0  2  0  0  0  0  0  0  0  0  0
    7.9271  -14.4897   23.3692 N   0  0  0  0  0  0  0  0  0  0  0  0
    9.9239  -15.7017   22.6042 C   0  0  0  0  0  0  0  0  0  0  0  0
   10.6979  -16.1561   21.6875 O   0  0  0  0  0  0  0  0  0  0  0  0
   10.8338  -16.8914   26.5297 O   0  0  0  0  0  0  0  0  0  0  0  0
   11.9070  -16.5979   25.6989 C   0  0  0  0  0  0  0  0  0  0  0  0
   11.5785  -16.6522   24.2481 C   0  0  2  0  0  0  0  0  0  0  0  0
   10.3445  -15.9344   23.9455 N   0  0  0  0  0  0  0  0  0  0  0  0
   11.4398  -18.0621   23.7696 C   0  0  0  0  0  0  0  0  0  0  0  0
   12.4697  -18.7822   23.8409 O   0  0  0  0  0  0  0  0  0  0  0  0
   10.2276  -18.5377   23.2739 O   0  0  0  0  0  0  0  0  0  0  0  0
  1  2  1  0
  2  3  1  0
  3  5  1  0
  3  4  1  1
  5  7  1  0
  5  6  1  1
  7  8  2  0
 10  9  1  6
 10 12  1  0
 11 10  1  0
 13 12  1  6
 14 13  1  0
 14  7  1  0
 15 16  2  0
 15 13  1  0
 17 18  1  0
 19 18  1  1
 19 21  1  0
 19 20  1  0
 20 15  1  0
 21 23  1  0
 22 21  2  0
M  END
$$$$
