ILS.pdb
     RDKit          3D

 23 22  0  0  1  0  0  0  0  0999 V2000
    8.0007  -11.8415   27.0448 C   0  0  0  0  0  0  0  0  0  0  0  0
    7.8152  -13.3116   26.8727 C   0  0  0  0  0  0  0  0  0  0  0  0
    6.7912  -13.6725   25.8058 C   0  0  2  0  0  0  0  0  0  0  0  0
    5.4866  -13.1112   26.2562 C   0  0  0  0  0  0  0  0  0  0  0  0
    6.8126  -15.1448   25.5348 C   0  0  2  0  0  0  0  0  0  0  0  0
    7.7248  -15.7015   26.5606 N   0  0  0  0  0  0  0  0  0  0  0  0
    7.3642  -15.5401   24.2303 C   0  0  0  0  0  0  0  0  0  0  0  0
    7.0224  -16.6580   23.7300 O   0  0  0  0  0  0  0  0  0  0  0  0
    6.5027  -13.9852   20.4216 C   0  0  0  0  0  0  0  0  0  0  0  0
    7.6417  -13.1908   21.0716 C   0  0  2  0  0  0  0  0  0  0  0  0
    7.8491  -11.9761   20.1949 C   0  0  0  0  0  0  0  0  0  0  0  0
    8.8146  -14.0849   21.1534 C   0  0  0  0  0  0  0  0  0  0  0  0
    8.7262  -15.2079   22.1612 C   0  0  2  0  0  0  0  0  0  0  0  0
    8.2739  -14.7629   23.4428 N   0  0  0  0  0  0  0  0  0  0  0  0
    9.9089  -16.0932   22.1786 C   0  0  0  0  0  0  0  0  0  0  0  0
   10.4301  -16.5163   21.0853 O   0  0  0  0  0  0  0  0  0  0  0  0
   12.1255  -16.8860   25.7058 O   0  0  0  0  0  0  0  0  0  0  0  0
   12.7054  -16.8930   24.4442 C   0  0  0  0  0  0  0  0  0  0  0  0
   11.7767  -17.3049   23.3563 C   0  0  2  0  0  0  0  0  0  0  0  0
   10.5397  -16.5310   23.3789 N   0  0  0  0  0  0  0  0  0  0  0  0
   11.4325  -18.7571   23.4496 C   0  0  0  0  0  0  0  0  0  0  0  0
   10.2225  -19.0342   23.6578 O   0  0  0  0  0  0  0  0  0  0  0  0
   12.4115  -19.7388   23.3110 O   0  0  0  0  0  0  0  0  0  0  0  0
  1  2  1  0
  2  3  1  0
  3  5  1  0
  3  4  1  1
  5  7  1  0
  5  6  1  1
  7  8  2  0
 10  9  1  6
 10 12  1  0
 11 10  1  0
 13 12  1  6
 14 13  1  0
 14  7  1  0
 15 16  2  0
 15 13  1  0
 17 18  1  0
 19 18  1  1
 19 21  1  0
 19 20  1  0
 20 15  1  0
 21 23  1  0
 22 21  2  0
M  END
$$$$
