KLW.pdb
     RDKit          3D

 32 33  0  0  1  0  0  0  0  0999 V2000
    9.8475  -18.9527   18.7790 N   0  0  0  0  0  0  0  0  0  0  0  0
   11.1506  -18.3513   19.0154 C   0  0  1  0  0  0  0  0  0  0  0  0
   11.7017  -17.7114   17.8078 C   0  0  0  0  0  0  0  0  0  0  0  0
   12.4978  -18.4618   16.8396 C   0  0  0  0  0  0  0  0  0  0  0  0
   12.0360  -18.5318   15.4526 C   0  0  0  0  0  0  0  0  0  0  0  0
   12.8479  -19.2161   14.4295 C   0  0  0  0  0  0  0  0  0  0  0  0
   12.2899  -20.5002   14.0264 N   0  0  0  0  0  0  0  0  0  0  0  0
   10.9677  -17.2117   20.0262 C   0  0  0  0  0  0  0  0  0  0  0  0
   11.9538  -16.5254   20.3884 O   0  0  0  0  0  0  0  0  0  0  0  0
    6.1173  -14.4159   20.1587 C   0  0  0  0  0  0  0  0  0  0  0  0
    7.6781  -14.5319   20.0838 C   0  0  1  0  0  0  0  0  0  0  0  0
    8.1419  -13.1133   20.1170 C   0  0  0  0  0  0  0  0  0  0  0  0
    8.0224  -15.3783   21.2347 C   0  0  0  0  0  0  0  0  0  0  0  0
    9.3894  -15.8815   21.4492 C   0  0  2  0  0  0  0  0  0  0  0  0
    9.6622  -16.9972   20.5037 N   0  0  0  0  0  0  0  0  0  0  0  0
    9.7453  -16.4133   22.7786 C   0  0  0  0  0  0  0  0  0  0  0  0
   10.1547  -17.5850   23.0054 O   0  0  0  0  0  0  0  0  0  0  0  0
    9.6486  -15.6067   23.9676 N   0  0  0  0  0  0  0  0  0  0  0  0
    9.8737  -16.1129   25.3083 C   0  0  1  0  0  0  0  0  0  0  0  0
    9.5538  -15.1182   26.3497 C   0  0  0  0  0  0  0  0  0  0  0  0
    8.1642  -14.6419   26.2608 C   0  0  0  0  0  0  0  0  0  0  0  0
    7.0201  -15.3787   25.9438 C   0  0  0  0  0  0  0  0  0  0  0  0
    5.9352  -14.5882   25.9168 N   0  0  0  0  0  0  0  0  0  0  0  0
    6.3398  -13.3406   26.2112 C   0  0  0  0  0  0  0  0  0  0  0  0
    5.6097  -12.1612   26.3320 C   0  0  0  0  0  0  0  0  0  0  0  0
    6.3110  -11.0243   26.6742 C   0  0  0  0  0  0  0  0  0  0  0  0
    7.6649  -11.0214   26.8921 C   0  0  0  0  0  0  0  0  0  0  0  0
    8.3814  -12.1883   26.7706 C   0  0  0  0  0  0  0  0  0  0  0  0
    7.6922  -13.3396   26.4266 C   0  0  0  0  0  0  0  0  0  0  0  0
    9.3321  -17.4420   25.5417 C   0  0  0  0  0  0  0  0  0  0  0  0
    9.5786  -18.1460   26.5251 O   0  0  0  0  0  0  0  0  0  0  0  0
    8.4624  -17.9658   24.5756 O   0  0  0  0  0  0  0  0  0  0  0  0
  2  1  1  6
  2  3  1  0
  3  4  1  0
  5  4  1  0
  6  5  1  0
  7  6  1  0
  8  2  1  0
  9  8  2  0
 11 10  1  1
 11 13  1  0
 12 11  1  0
 14 13  1  1
 14 16  1  0
 14 15  1  0
 15  8  1  0
 16 17  2  0
 18 16  1  0
 18 19  1  0
 19 20  1  1
 20 21  1  0
 21 29  1  0
 22 21  2  0
 22 23  1  0
 23 24  1  0
 24 25  2  0
 25 26  1  0
 27 26  2  0
 28 27  1  0
 29 28  2  0
 29 24  1  0
 30 32  1  0
 30 19  1  0
 31 30  2  0
M  END
$$$$
