KLW.pdb
     RDKit          3D

 32 33  0  0  1  0  0  0  0  0999 V2000
    8.7296  -19.0915   20.8090 N   0  0  0  0  0  0  0  0  0  0  0  0
   10.0854  -18.6249   20.5652 C   0  0  1  0  0  0  0  0  0  0  0  0
   10.4500  -18.6781   19.1384 C   0  0  0  0  0  0  0  0  0  0  0  0
    9.4434  -18.5590   18.0863 C   0  0  0  0  0  0  0  0  0  0  0  0
    9.7119  -19.1692   16.7834 C   0  0  0  0  0  0  0  0  0  0  0  0
   10.5687  -18.4817   15.7998 C   0  0  0  0  0  0  0  0  0  0  0  0
   10.6358  -19.1761   14.5208 N   0  0  0  0  0  0  0  0  0  0  0  0
   10.1474  -17.1386   20.9405 C   0  0  0  0  0  0  0  0  0  0  0  0
   11.0792  -16.4173   20.5092 O   0  0  0  0  0  0  0  0  0  0  0  0
    6.0461  -13.6036   20.5886 C   0  0  0  0  0  0  0  0  0  0  0  0
    7.4834  -14.2151   20.4657 C   0  0  1  0  0  0  0  0  0  0  0  0
    8.2926  -13.1059   19.8796 C   0  0  0  0  0  0  0  0  0  0  0  0
    7.8065  -14.6297   21.8380 C   0  0  0  0  0  0  0  0  0  0  0  0
    9.1070  -15.2267   22.1847 C   0  0  2  0  0  0  0  0  0  0  0  0
    9.1225  -16.6567   21.7746 N   0  0  0  0  0  0  0  0  0  0  0  0
    9.5268  -15.2317   23.5992 C   0  0  0  0  0  0  0  0  0  0  0  0
    9.9607  -14.2293   24.2306 O   0  0  0  0  0  0  0  0  0  0  0  0
    9.4733  -16.4268   24.4007 N   0  0  0  0  0  0  0  0  0  0  0  0
   10.0510  -16.5372   25.7268 C   0  0  1  0  0  0  0  0  0  0  0  0
    9.0310  -16.5103   26.7922 C   0  0  0  0  0  0  0  0  0  0  0  0
    7.8499  -15.7168   26.4166 C   0  0  0  0  0  0  0  0  0  0  0  0
    6.6782  -16.1579   25.7960 C   0  0  0  0  0  0  0  0  0  0  0  0
    5.8415  -15.1322   25.5716 N   0  0  0  0  0  0  0  0  0  0  0  0
    6.4374  -14.0192   26.0332 C   0  0  0  0  0  0  0  0  0  0  0  0
    5.9886  -12.7014   26.0598 C   0  0  0  0  0  0  0  0  0  0  0  0
    6.8279  -11.7669   26.6290 C   0  0  0  0  0  0  0  0  0  0  0  0
    8.0537  -12.0876   27.1533 C   0  0  0  0  0  0  0  0  0  0  0  0
    8.4926  -13.3900   27.1238 C   0  0  0  0  0  0  0  0  0  0  0  0
    7.6620  -14.3414   26.5546 C   0  0  0  0  0  0  0  0  0  0  0  0
   11.0470  -17.5885   25.8568 C   0  0  0  0  0  0  0  0  0  0  0  0
   11.7533  -17.7776   26.8512 O   0  0  0  0  0  0  0  0  0  0  0  0
   11.2197  -18.4552   24.7692 O   0  0  0  0  0  0  0  0  0  0  0  0
  2  1  1  6
  2  3  1  0
  3  4  1  0
  5  4  1  0
  6  5  1  0
  7  6  1  0
  8  2  1  0
  9  8  2  0
 11 10  1  1
 11 13  1  0
 12 11  1  0
 14 13  1  1
 14 16  1  0
 14 15  1  0
 15  8  1  0
 16 17  2  0
 18 16  1  0
 18 19  1  0
 19 20  1  1
 20 21  1  0
 21 29  1  0
 22 21  2  0
 22 23  1  0
 23 24  1  0
 24 25  2  0
 25 26  1  0
 27 26  2  0
 28 27  1  0
 29 28  2  0
 29 24  1  0
 30 32  1  0
 30 19  1  0
 31 30  2  0
M  END
$$$$
