KLW.pdb
     RDKit          3D

 32 33  0  0  1  0  0  0  0  0999 V2000
    7.9100  -19.1997   20.2878 N   0  0  0  0  0  0  0  0  0  0  0  0
    9.2550  -19.0136   19.7664 C   0  0  1  0  0  0  0  0  0  0  0  0
    9.2929  -19.0227   18.2933 C   0  0  0  0  0  0  0  0  0  0  0  0
    8.9687  -20.2234   17.5268 C   0  0  0  0  0  0  0  0  0  0  0  0
    9.0778  -20.1776   16.0681 C   0  0  0  0  0  0  0  0  0  0  0  0
    8.7888  -21.3768   15.2602 C   0  0  0  0  0  0  0  0  0  0  0  0
    8.8148  -21.1164   13.8270 N   0  0  0  0  0  0  0  0  0  0  0  0
    9.7282  -17.6116   20.1718 C   0  0  0  0  0  0  0  0  0  0  0  0
   10.8797  -17.2205   19.8626 O   0  0  0  0  0  0  0  0  0  0  0  0
    5.9797  -13.6060   20.4500 C   0  0  0  0  0  0  0  0  0  0  0  0
    7.2943  -14.3283   19.9970 C   0  0  1  0  0  0  0  0  0  0  0  0
    7.9112  -13.3711   19.0317 C   0  0  0  0  0  0  0  0  0  0  0  0
    8.0132  -14.5699   21.2557 C   0  0  0  0  0  0  0  0  0  0  0  0
    9.1923  -15.4493   21.3219 C   0  0  2  0  0  0  0  0  0  0  0  0
    8.8132  -16.8219   20.8911 N   0  0  0  0  0  0  0  0  0  0  0  0
    9.8654  -15.6306   22.6223 C   0  0  0  0  0  0  0  0  0  0  0  0
   10.9745  -15.1214   22.9423 O   0  0  0  0  0  0  0  0  0  0  0  0
    9.2881  -16.4346   23.6682 N   0  0  0  0  0  0  0  0  0  0  0  0
    9.9376  -16.6959   24.9387 C   0  0  1  0  0  0  0  0  0  0  0  0
    9.9023  -15.5303   25.8424 C   0  0  0  0  0  0  0  0  0  0  0  0
    8.5553  -14.9478   25.9524 C   0  0  0  0  0  0  0  0  0  0  0  0
    7.3243  -15.6040   25.8712 C   0  0  0  0  0  0  0  0  0  0  0  0
    6.3099  -14.7305   25.9735 N   0  0  0  0  0  0  0  0  0  0  0  0
    6.8466  -13.5071   26.1220 C   0  0  0  0  0  0  0  0  0  0  0  0
    6.2337  -12.2680   26.2885 C   0  0  0  0  0  0  0  0  0  0  0  0
    7.0623  -11.1766   26.4424 C   0  0  0  0  0  0  0  0  0  0  0  0
    8.4302  -11.2728   26.4363 C   0  0  0  0  0  0  0  0  0  0  0  0
    9.0305  -12.4983   26.2706 C   0  0  0  0  0  0  0  0  0  0  0  0
    8.2125  -13.6052   26.1137 C   0  0  0  0  0  0  0  0  0  0  0  0
    9.5605  -17.9594   25.5516 C   0  0  0  0  0  0  0  0  0  0  0  0
    8.6192  -18.6708   25.1891 O   0  0  0  0  0  0  0  0  0  0  0  0
   10.3243  -18.4054   26.6387 O   0  0  0  0  0  0  0  0  0  0  0  0
  2  1  1  6
  2  3  1  0
  3  4  1  0
  5  4  1  0
  6  5  1  0
  7  6  1  0
  8  2  1  0
  9  8  2  0
 11 10  1  1
 11 13  1  0
 12 11  1  0
 14 13  1  1
 14 16  1  0
 14 15  1  0
 15  8  1  0
 16 17  2  0
 18 16  1  0
 18 19  1  0
 19 20  1  1
 20 21  1  0
 21 29  1  0
 22 21  2  0
 22 23  1  0
 23 24  1  0
 24 25  2  0
 25 26  1  0
 27 26  2  0
 28 27  1  0
 29 28  2  0
 29 24  1  0
 30 32  1  0
 30 19  1  0
 31 30  2  0
M  END
$$$$
