KLW.pdb
     RDKit          3D

 32 33  0  0  1  0  0  0  0  0999 V2000
    8.4591  -19.1347   20.7782 N   0  0  0  0  0  0  0  0  0  0  0  0
    9.7640  -18.7064   20.2991 C   0  0  1  0  0  0  0  0  0  0  0  0
    9.8751  -18.7780   18.8315 C   0  0  0  0  0  0  0  0  0  0  0  0
    9.2066  -19.8257   18.0635 C   0  0  0  0  0  0  0  0  0  0  0  0
    9.9720  -20.5512   17.0488 C   0  0  0  0  0  0  0  0  0  0  0  0
    9.3041  -21.5233   16.1639 C   0  0  0  0  0  0  0  0  0  0  0  0
   10.2113  -22.1307   15.1992 N   0  0  0  0  0  0  0  0  0  0  0  0
    9.9280  -17.2202   20.6425 C   0  0  0  0  0  0  0  0  0  0  0  0
   10.9395  -16.5899   20.2499 O   0  0  0  0  0  0  0  0  0  0  0  0
    6.0235  -13.4233   20.2423 C   0  0  0  0  0  0  0  0  0  0  0  0
    7.4625  -14.0326   20.1278 C   0  0  1  0  0  0  0  0  0  0  0  0
    8.2876  -12.9007   19.6110 C   0  0  0  0  0  0  0  0  0  0  0  0
    7.7512  -14.5080   21.4879 C   0  0  0  0  0  0  0  0  0  0  0  0
    9.0039  -15.2078   21.8181 C   0  0  2  0  0  0  0  0  0  0  0  0
    8.9011  -16.6328   21.4033 N   0  0  0  0  0  0  0  0  0  0  0  0
    9.4375  -15.2518   23.2277 C   0  0  0  0  0  0  0  0  0  0  0  0
    9.9277  -14.2805   23.8666 O   0  0  0  0  0  0  0  0  0  0  0  0
    9.3322  -16.4528   24.0152 N   0  0  0  0  0  0  0  0  0  0  0  0
    9.7957  -16.5642   25.3853 C   0  0  1  0  0  0  0  0  0  0  0  0
    8.7008  -16.8517   26.3313 C   0  0  0  0  0  0  0  0  0  0  0  0
    7.5797  -15.9084   26.1934 C   0  0  0  0  0  0  0  0  0  0  0  0
    6.3154  -16.1475   25.6485 C   0  0  0  0  0  0  0  0  0  0  0  0
    5.5738  -15.0283   25.6536 N   0  0  0  0  0  0  0  0  0  0  0  0
    6.3237  -14.0519   26.1931 C   0  0  0  0  0  0  0  0  0  0  0  0
    6.0203  -12.7161   26.4430 C   0  0  0  0  0  0  0  0  0  0  0  0
    7.0024  -11.9531   27.0386 C   0  0  0  0  0  0  0  0  0  0  0  0
    8.2314  -12.4559   27.3813 C   0  0  0  0  0  0  0  0  0  0  0  0
    8.5264  -13.7751   27.1315 C   0  0  0  0  0  0  0  0  0  0  0  0
    7.5510  -14.5556   26.5328 C   0  0  0  0  0  0  0  0  0  0  0  0
   10.9804  -17.3915   25.5477 C   0  0  0  0  0  0  0  0  0  0  0  0
   11.5990  -17.5452   26.6047 O   0  0  0  0  0  0  0  0  0  0  0  0
   11.4583  -18.0675   24.4169 O   0  0  0  0  0  0  0  0  0  0  0  0
  2  1  1  6
  2  3  1  0
  3  4  1  0
  5  4  1  0
  6  5  1  0
  7  6  1  0
  8  2  1  0
  9  8  2  0
 11 10  1  1
 11 13  1  0
 12 11  1  0
 14 13  1  1
 14 16  1  0
 14 15  1  0
 15  8  1  0
 16 17  2  0
 18 16  1  0
 18 19  1  0
 19 20  1  1
 20 21  1  0
 21 29  1  0
 22 21  2  0
 22 23  1  0
 23 24  1  0
 24 25  2  0
 25 26  1  0
 27 26  2  0
 28 27  1  0
 29 28  2  0
 29 24  1  0
 30 32  1  0
 30 19  1  0
 31 30  2  0
M  END
$$$$
