KLW.pdb
     RDKit          3D

 32 33  0  0  1  0  0  0  0  0999 V2000
    8.9114  -19.7898   20.6139 N   0  0  0  0  0  0  0  0  0  0  0  0
   10.0033  -19.1844   19.8678 C   0  0  1  0  0  0  0  0  0  0  0  0
    9.7969  -19.2578   18.4105 C   0  0  0  0  0  0  0  0  0  0  0  0
    9.4078  -20.5037   17.7545 C   0  0  0  0  0  0  0  0  0  0  0  0
    9.7531  -20.6944   16.3452 C   0  0  0  0  0  0  0  0  0  0  0  0
    9.3108  -21.9029   15.6255 C   0  0  0  0  0  0  0  0  0  0  0  0
    9.8292  -21.9764   14.2658 N   0  0  0  0  0  0  0  0  0  0  0  0
   10.0246  -17.6857   20.1956 C   0  0  0  0  0  0  0  0  0  0  0  0
   10.9526  -16.9589   19.7653 O   0  0  0  0  0  0  0  0  0  0  0  0
    7.8491  -12.9989   20.4772 C   0  0  0  0  0  0  0  0  0  0  0  0
    7.1282  -13.9036   21.5340 C   0  0  1  0  0  0  0  0  0  0  0  0
    5.6866  -13.5459   21.3838 C   0  0  0  0  0  0  0  0  0  0  0  0
    7.5247  -15.2674   21.1567 C   0  0  0  0  0  0  0  0  0  0  0  0
    8.9029  -15.7543   21.3344 C   0  0  2  0  0  0  0  0  0  0  0  0
    8.9681  -17.1993   20.9864 N   0  0  0  0  0  0  0  0  0  0  0  0
    9.5192  -15.6564   22.6714 C   0  0  0  0  0  0  0  0  0  0  0  0
   10.3987  -14.8156   23.0049 O   0  0  0  0  0  0  0  0  0  0  0  0
    9.1522  -16.5474   23.7414 N   0  0  0  0  0  0  0  0  0  0  0  0
    9.8283  -16.5918   25.0241 C   0  0  1  0  0  0  0  0  0  0  0  0
    8.8880  -16.5639   26.1605 C   0  0  0  0  0  0  0  0  0  0  0  0
    7.8135  -15.5757   25.9739 C   0  0  0  0  0  0  0  0  0  0  0  0
    6.4994  -15.8013   25.5562 C   0  0  0  0  0  0  0  0  0  0  0  0
    5.8235  -14.6452   25.4606 N   0  0  0  0  0  0  0  0  0  0  0  0
    6.6661  -13.6573   25.8084 C   0  0  0  0  0  0  0  0  0  0  0  0
    6.4576  -12.2833   25.8947 C   0  0  0  0  0  0  0  0  0  0  0  0
    7.5239  -11.5144   26.3109 C   0  0  0  0  0  0  0  0  0  0  0  0
    8.7461  -12.0469   26.6323 C   0  0  0  0  0  0  0  0  0  0  0  0
    8.9471  -13.4040   26.5446 C   0  0  0  0  0  0  0  0  0  0  0  0
    7.8863  -14.1910   26.1271 C   0  0  0  0  0  0  0  0  0  0  0  0
   10.8697  -17.6025   25.1137 C   0  0  0  0  0  0  0  0  0  0  0  0
   11.1634  -18.3999   24.2185 O   0  0  0  0  0  0  0  0  0  0  0  0
   11.5974  -17.6786   26.3090 O   0  0  0  0  0  0  0  0  0  0  0  0
  2  1  1  1
  2  3  1  0
  3  4  1  0
  5  4  1  0
  6  5  1  0
  7  6  1  0
  8  2  1  0
  9  8  2  0
 11 10  1  6
 11 13  1  0
 12 11  1  0
 14 13  1  1
 14 16  1  0
 14 15  1  0
 15  8  1  0
 16 17  2  0
 18 16  1  0
 18 19  1  0
 19 20  1  1
 20 21  1  0
 21 29  1  0
 22 21  2  0
 22 23  1  0
 23 24  1  0
 24 25  2  0
 25 26  1  0
 27 26  2  0
 28 27  1  0
 29 28  2  0
 29 24  1  0
 30 32  1  0
 30 19  1  0
 31 30  2  0
M  END
$$$$
