KLW.pdb
     RDKit          3D

 32 33  0  0  1  0  0  0  0  0999 V2000
    7.5513  -19.8050   20.0148 N   0  0  0  0  0  0  0  0  0  0  0  0
    7.1969  -18.8856   21.0848 C   0  0  1  0  0  0  0  0  0  0  0  0
    7.3071  -19.5048   22.4174 C   0  0  0  0  0  0  0  0  0  0  0  0
    6.5468  -20.7012   22.7707 C   0  0  0  0  0  0  0  0  0  0  0  0
    5.6535  -20.6505   23.9288 C   0  0  0  0  0  0  0  0  0  0  0  0
    4.8691  -21.8367   24.3186 C   0  0  0  0  0  0  0  0  0  0  0  0
    5.7027  -22.9662   24.7087 N   0  0  0  0  0  0  0  0  0  0  0  0
    8.2228  -17.7449   21.0856 C   0  0  0  0  0  0  0  0  0  0  0  0
    9.3868  -17.9430   20.6608 O   0  0  0  0  0  0  0  0  0  0  0  0
    6.4436  -12.6160   20.0103 C   0  0  0  0  0  0  0  0  0  0  0  0
    7.2105  -13.9763   19.8816 C   0  0  1  0  0  0  0  0  0  0  0  0
    8.0746  -13.7848   18.6795 C   0  0  0  0  0  0  0  0  0  0  0  0
    7.8863  -14.1218   21.1784 C   0  0  0  0  0  0  0  0  0  0  0  0
    8.6785  -15.3169   21.5132 C   0  0  2  0  0  0  0  0  0  0  0  0
    7.7836  -16.5035   21.5799 N   0  0  0  0  0  0  0  0  0  0  0  0
    9.4283  -15.3336   22.7838 C   0  0  0  0  0  0  0  0  0  0  0  0
   10.3962  -14.5747   23.0650 O   0  0  0  0  0  0  0  0  0  0  0  0
    9.1027  -16.2530   23.8432 N   0  0  0  0  0  0  0  0  0  0  0  0
    9.8072  -16.3087   25.1100 C   0  0  1  0  0  0  0  0  0  0  0  0
    9.6569  -15.0693   25.8960 C   0  0  0  0  0  0  0  0  0  0  0  0
    8.2460  -14.7194   26.1252 C   0  0  0  0  0  0  0  0  0  0  0  0
    7.1246  -15.5450   26.0099 C   0  0  0  0  0  0  0  0  0  0  0  0
    5.9979  -14.8570   26.2548 N   0  0  0  0  0  0  0  0  0  0  0  0
    6.3528  -13.5903   26.5313 C   0  0  0  0  0  0  0  0  0  0  0  0
    5.5712  -12.4888   26.8697 C   0  0  0  0  0  0  0  0  0  0  0  0
    6.2342  -11.3069   27.1248 C   0  0  0  0  0  0  0  0  0  0  0  0
    7.5988  -11.1883   27.0568 C   0  0  0  0  0  0  0  0  0  0  0  0
    8.3658  -12.2787   26.7214 C   0  0  0  0  0  0  0  0  0  0  0  0
    7.7154  -13.4737   26.4611 C   0  0  0  0  0  0  0  0  0  0  0  0
    9.5943  -17.5384   25.8563 C   0  0  0  0  0  0  0  0  0  0  0  0
   10.1785  -17.8456   26.8992 O   0  0  0  0  0  0  0  0  0  0  0  0
    8.6528  -18.4465   25.3533 O   0  0  0  0  0  0  0  0  0  0  0  0
  2  1  1  6
  2  3  1  0
  3  4  1  0
  5  4  1  0
  6  5  1  0
  7  6  1  0
  8  2  1  0
  9  8  2  0
 11 10  1  1
 11 13  1  0
 12 11  1  0
 14 13  1  1
 14 16  1  0
 14 15  1  0
 15  8  1  0
 16 17  2  0
 18 16  1  0
 18 19  1  0
 19 20  1  1
 20 21  1  0
 21 29  1  0
 22 21  2  0
 22 23  1  0
 23 24  1  0
 24 25  2  0
 25 26  1  0
 27 26  2  0
 28 27  1  0
 29 28  2  0
 29 24  1  0
 30 32  1  0
 30 19  1  0
 31 30  2  0
M  END
$$$$
