CLI.pdb
     RDKit          3D

 23 22  0  0  1  0  0  0  0  0999 V2000
    7.1168  -18.8499   21.5334 N   0  0  0  0  0  0  0  0  0  0  0  0
    6.8053  -18.2728   22.8024 C   0  0  1  0  0  0  0  0  0  0  0  0
    7.0238  -19.3173   23.8768 C   0  0  0  0  0  0  0  0  0  0  0  0
    5.4731  -19.9073   24.5520 S   0  0  0  0  0  0  0  0  0  0  0  0
    7.6663  -17.0918   23.1060 C   0  0  0  0  0  0  0  0  0  0  0  0
    8.8476  -17.0137   22.6847 O   0  0  0  0  0  0  0  0  0  0  0  0
    6.0277  -12.6139   26.7054 C   0  0  0  0  0  0  0  0  0  0  0  0
    7.2013  -12.9489   25.7602 C   0  0  2  0  0  0  0  0  0  0  0  0
    7.8198  -11.6403   25.3227 C   0  0  0  0  0  0  0  0  0  0  0  0
    6.6496  -13.7255   24.5887 C   0  0  0  0  0  0  0  0  0  0  0  0
    7.6735  -14.8177   24.2472 C   0  0  2  0  0  0  0  0  0  0  0  0
    7.0967  -16.0645   23.8879 N   0  0  0  0  0  0  0  0  0  0  0  0
    8.8033  -14.8617   25.1552 C   0  0  0  0  0  0  0  0  0  0  0  0
    9.4094  -13.8084   25.5641 O   0  0  0  0  0  0  0  0  0  0  0  0
    9.2681  -13.5637   29.2682 C   0  0  0  0  0  0  0  0  0  0  0  0
    9.8632  -14.1013   27.9679 C   0  0  0  0  0  0  0  0  0  0  0  0
    9.6835  -15.5864   27.9313 C   0  0  2  0  0  0  0  0  0  0  0  0
   10.2976  -16.2211   29.1686 C   0  0  0  0  0  0  0  0  0  0  0  0
   10.2782  -16.2063   26.6966 C   0  0  2  0  0  0  0  0  0  0  0  0
    9.2895  -16.1055   25.6364 N   0  0  0  0  0  0  0  0  0  0  0  0
   10.7773  -17.5556   26.8965 C   0  0  0  0  0  0  0  0  0  0  0  0
   10.0507  -18.6488   26.4758 O   0  0  0  0  0  0  0  0  0  0  0  0
   11.8776  -17.7499   27.4553 O   0  0  0  0  0  0  0  0  0  0  0  0
  2  3  1  0
  2  1  1  6
  3  4  1  0
  5  2  1  0
  6  5  2  0
  8  7  1  1
  8 10  1  0
  9  8  1  0
 11 10  1  1
 11 12  1  0
 12  5  1  0
 13 11  1  0
 13 20  1  0
 14 13  2  0
 15 16  1  0
 16 17  1  0
 17 19  1  0
 17 18  1  1
 19 20  1  6
 19 21  1  0
 21 22  1  0
 23 21  2  0
M  END
$$$$
