CLI.pdb
     RDKit          3D

 23 22  0  0  1  0  0  0  0  0999 V2000
   12.4689  -17.4238   19.7975 N   0  0  0  0  0  0  0  0  0  0  0  0
   11.0738  -17.4069   20.1040 C   0  0  1  0  0  0  0  0  0  0  0  0
   10.6413  -18.8105   20.4728 C   0  0  0  0  0  0  0  0  0  0  0  0
   11.2464  -19.2866   22.0901 S   0  0  0  0  0  0  0  0  0  0  0  0
   10.7635  -16.4986   21.2473 C   0  0  0  0  0  0  0  0  0  0  0  0
   11.6459  -16.1579   22.0746 O   0  0  0  0  0  0  0  0  0  0  0  0
    8.5856  -12.7001   21.2125 C   0  0  0  0  0  0  0  0  0  0  0  0
    7.6703  -13.8955   20.8715 C   0  0  2  0  0  0  0  0  0  0  0  0
    6.3602  -13.3346   20.3664 C   0  0  0  0  0  0  0  0  0  0  0  0
    7.4815  -14.7116   22.1277 C   0  0  0  0  0  0  0  0  0  0  0  0
    8.8349  -15.3595   22.4542 C   0  0  2  0  0  0  0  0  0  0  0  0
    9.4347  -16.0376   21.3602 N   0  0  0  0  0  0  0  0  0  0  0  0
    8.8614  -16.0400   23.7344 C   0  0  0  0  0  0  0  0  0  0  0  0
    8.8038  -17.3161   23.8460 O   0  0  0  0  0  0  0  0  0  0  0  0
   10.3393  -12.7996   27.9311 C   0  0  0  0  0  0  0  0  0  0  0  0
   10.2817  -13.9497   26.9273 C   0  0  0  0  0  0  0  0  0  0  0  0
    9.1289  -14.8380   27.2750 C   0  0  2  0  0  0  0  0  0  0  0  0
    9.3415  -15.4641   28.6438 C   0  0  0  0  0  0  0  0  0  0  0  0
    8.9087  -15.9193   26.2529 C   0  0  2  0  0  0  0  0  0  0  0  0
    8.9556  -15.2973   24.9403 N   0  0  0  0  0  0  0  0  0  0  0  0
    7.7095  -16.7074   26.4776 C   0  0  0  0  0  0  0  0  0  0  0  0
    7.7598  -17.8848   27.1928 O   0  0  0  0  0  0  0  0  0  0  0  0
    6.6076  -16.3309   26.0253 O   0  0  0  0  0  0  0  0  0  0  0  0
  2  3  1  0
  2  1  1  1
  3  4  1  0
  5  2  1  0
  6  5  2  0
  8  7  1  1
  8 10  1  0
  9  8  1  0
 11 10  1  6
 11 12  1  0
 12  5  1  0
 13 11  1  0
 13 20  1  0
 14 13  2  0
 15 16  1  0
 16 17  1  0
 17 19  1  0
 17 18  1  1
 19 20  1  6
 19 21  1  0
 21 22  1  0
 23 21  2  0
M  END
$$$$
