CLI.pdb
     RDKit          3D

 23 22  0  0  1  0  0  0  0  0999 V2000
   13.0244  -16.8190   19.7558 N   0  0  0  0  0  0  0  0  0  0  0  0
   11.8464  -17.3335   20.3787 C   0  0  1  0  0  0  0  0  0  0  0  0
   12.1297  -18.7394   20.8651 C   0  0  0  0  0  0  0  0  0  0  0  0
   11.9538  -19.9431   19.5503 S   0  0  0  0  0  0  0  0  0  0  0  0
   11.4227  -16.5038   21.5450 C   0  0  0  0  0  0  0  0  0  0  0  0
   12.2627  -15.9811   22.3199 O   0  0  0  0  0  0  0  0  0  0  0  0
    8.3724  -13.2002   21.6926 C   0  0  0  0  0  0  0  0  0  0  0  0
    7.7898  -14.5923   21.3676 C   0  0  2  0  0  0  0  0  0  0  0  0
    6.3537  -14.3944   20.9376 C   0  0  0  0  0  0  0  0  0  0  0  0
    7.8884  -15.4413   22.6123 C   0  0  0  0  0  0  0  0  0  0  0  0
    9.3783  -15.7293   22.8469 C   0  0  2  0  0  0  0  0  0  0  0  0
   10.0361  -16.3306   21.7414 N   0  0  0  0  0  0  0  0  0  0  0  0
    9.6655  -16.2851   24.1551 C   0  0  0  0  0  0  0  0  0  0  0  0
   10.0259  -17.5031   24.3304 O   0  0  0  0  0  0  0  0  0  0  0  0
    9.7664  -12.4822   28.1978 C   0  0  0  0  0  0  0  0  0  0  0  0
   10.1944  -13.5725   27.2170 C   0  0  0  0  0  0  0  0  0  0  0  0
    9.5593  -14.8651   27.6233 C   0  0  2  0  0  0  0  0  0  0  0  0
   10.0271  -15.2671   29.0126 C   0  0  0  0  0  0  0  0  0  0  0  0
    9.8469  -15.9765   26.6513 C   0  0  2  0  0  0  0  0  0  0  0  0
    9.5557  -15.4781   25.3176 N   0  0  0  0  0  0  0  0  0  0  0  0
    9.1702  -17.2229   26.9643 C   0  0  0  0  0  0  0  0  0  0  0  0
    7.9548  -17.5317   26.3920 O   0  0  0  0  0  0  0  0  0  0  0  0
    9.6794  -18.0400   27.7604 O   0  0  0  0  0  0  0  0  0  0  0  0
  2  3  1  0
  2  1  1  1
  3  4  1  0
  5  2  1  0
  6  5  2  0
  8  7  1  1
  8 10  1  0
  9  8  1  0
 11 10  1  6
 11 12  1  0
 12  5  1  0
 13 11  1  0
 13 20  1  0
 14 13  2  0
 15 16  1  0
 16 17  1  0
 17 19  1  0
 17 18  1  1
 19 20  1  6
 19 21  1  0
 21 22  1  0
 23 21  2  0
M  END
$$$$
