CLI.pdb
     RDKit          3D

 23 22  0  0  1  0  0  0  0  0999 V2000
    7.3896  -19.7935   21.4764 N   0  0  0  0  0  0  0  0  0  0  0  0
    6.9544  -18.5953   22.1209 C   0  0  1  0  0  0  0  0  0  0  0  0
    6.6546  -18.9068   23.5722 C   0  0  0  0  0  0  0  0  0  0  0  0
    5.0387  -19.6544   23.7690 S   0  0  0  0  0  0  0  0  0  0  0  0
    7.9928  -17.5241   22.0698 C   0  0  0  0  0  0  0  0  0  0  0  0
    9.2185  -17.7928   22.1373 O   0  0  0  0  0  0  0  0  0  0  0  0
    8.8925  -13.6603   19.5445 C   0  0  0  0  0  0  0  0  0  0  0  0
    7.4565  -13.7542   20.1032 C   0  0  2  0  0  0  0  0  0  0  0  0
    6.6834  -12.5693   19.5698 C   0  0  0  0  0  0  0  0  0  0  0  0
    7.5403  -13.7339   21.6107 C   0  0  0  0  0  0  0  0  0  0  0  0
    8.2990  -14.9984   22.0388 C   0  0  2  0  0  0  0  0  0  0  0  0
    7.5392  -16.1941   21.9422 N   0  0  0  0  0  0  0  0  0  0  0  0
    9.0878  -14.8249   23.2432 C   0  0  0  0  0  0  0  0  0  0  0  0
   10.1748  -14.1454   23.2718 O   0  0  0  0  0  0  0  0  0  0  0  0
    7.0856  -11.8214   27.2838 C   0  0  0  0  0  0  0  0  0  0  0  0
    8.0755  -12.9843   27.2406 C   0  0  0  0  0  0  0  0  0  0  0  0
    7.8728  -13.7449   25.9680 C   0  0  2  0  0  0  0  0  0  0  0  0
    6.4921  -14.3807   25.9495 C   0  0  0  0  0  0  0  0  0  0  0  0
    8.9202  -14.8041   25.7593 C   0  0  2  0  0  0  0  0  0  0  0  0
    8.6722  -15.4162   24.4649 N   0  0  0  0  0  0  0  0  0  0  0  0
    9.0125  -15.7638   26.8456 C   0  0  0  0  0  0  0  0  0  0  0  0
    8.7507  -17.1005   26.6335 O   0  0  0  0  0  0  0  0  0  0  0  0
    9.3319  -15.3936   27.9952 O   0  0  0  0  0  0  0  0  0  0  0  0
  2  3  1  0
  2  1  1  6
  3  4  1  0
  5  2  1  0
  6  5  2  0
  8  7  1  6
  8 10  1  0
  9  8  1  0
 11 10  1  1
 11 12  1  0
 12  5  1  0
 13 11  1  0
 13 20  1  0
 14 13  2  0
 15 16  1  0
 16 17  1  0
 17 19  1  0
 17 18  1  1
 19 20  1  6
 19 21  1  0
 21 22  1  0
 23 21  2  0
M  END
$$$$
