CLI.pdb
     RDKit          3D

 23 22  0  0  1  0  0  0  0  0999 V2000
    8.7280  -17.3123   19.9313 N   0  0  0  0  0  0  0  0  0  0  0  0
    8.0826  -17.2975   21.2055 C   0  0  1  0  0  0  0  0  0  0  0  0
    8.1822  -18.6800   21.8155 C   0  0  0  0  0  0  0  0  0  0  0  0
    7.5300  -19.9366   20.7182 S   0  0  0  0  0  0  0  0  0  0  0  0
    8.7132  -16.3194   22.1403 C   0  0  0  0  0  0  0  0  0  0  0  0
    9.9332  -16.0283   22.0627 O   0  0  0  0  0  0  0  0  0  0  0  0
    8.0382  -12.1997   25.1305 C   0  0  0  0  0  0  0  0  0  0  0  0
    6.7611  -13.0329   24.8896 C   0  0  2  0  0  0  0  0  0  0  0  0
    5.7110  -12.5457   25.8625 C   0  0  0  0  0  0  0  0  0  0  0  0
    7.1023  -14.4860   25.1171 C   0  0  0  0  0  0  0  0  0  0  0  0
    8.2468  -14.8379   24.1557 C   0  0  2  0  0  0  0  0  0  0  0  0
    7.8799  -15.7340   23.1170 N   0  0  0  0  0  0  0  0  0  0  0  0
    9.5086  -15.0965   24.8218 C   0  0  0  0  0  0  0  0  0  0  0  0
   10.5471  -14.3631   24.6551 O   0  0  0  0  0  0  0  0  0  0  0  0
   10.8171  -13.6502   29.6429 C   0  0  0  0  0  0  0  0  0  0  0  0
   11.2466  -14.8425   28.7897 C   0  0  0  0  0  0  0  0  0  0  0  0
   10.2159  -15.0756   27.7303 C   0  0  2  0  0  0  0  0  0  0  0  0
    8.8615  -15.3468   28.3649 C   0  0  0  0  0  0  0  0  0  0  0  0
   10.5815  -16.2107   26.8135 C   0  0  2  0  0  0  0  0  0  0  0  0
    9.6409  -16.1992   25.7058 N   0  0  0  0  0  0  0  0  0  0  0  0
   10.6769  -17.4982   27.4788 C   0  0  0  0  0  0  0  0  0  0  0  0
    9.7633  -18.4977   27.2211 O   0  0  0  0  0  0  0  0  0  0  0  0
   11.5918  -17.7234   28.2992 O   0  0  0  0  0  0  0  0  0  0  0  0
  2  3  1  0
  2  1  1  6
  3  4  1  0
  5  2  1  0
  6  5  2  0
  8  7  1  1
  8 10  1  0
  9  8  1  0
 11 10  1  1
 11 12  1  0
 12  5  1  0
 13 11  1  0
 13 20  1  0
 14 13  2  0
 15 16  1  0
 16 17  1  0
 17 19  1  0
 17 18  1  1
 19 20  1  6
 19 21  1  0
 21 22  1  0
 23 21  2  0
M  END
$$$$
