CLI.pdb
     RDKit          3D

 23 22  0  0  1  0  0  0  0  0999 V2000
    9.4743  -15.7731   19.9841 N   0  0  0  0  0  0  0  0  0  0  0  0
    8.4907  -15.9429   21.0058 C   0  0  1  0  0  0  0  0  0  0  0  0
    8.1628  -17.4166   21.1232 C   0  0  0  0  0  0  0  0  0  0  0  0
    9.4804  -18.3263   21.9265 S   0  0  0  0  0  0  0  0  0  0  0  0
    8.9726  -15.4565   22.3323 C   0  0  0  0  0  0  0  0  0  0  0  0
   10.1864  -15.2054   22.5392 O   0  0  0  0  0  0  0  0  0  0  0  0
    7.8874  -12.1475   25.1748 C   0  0  0  0  0  0  0  0  0  0  0  0
    6.6742  -13.0527   24.8720 C   0  0  2  0  0  0  0  0  0  0  0  0
    5.4655  -12.4273   25.5310 C   0  0  0  0  0  0  0  0  0  0  0  0
    6.9662  -14.4256   25.4284 C   0  0  0  0  0  0  0  0  0  0  0  0
    8.2175  -14.9490   24.7085 C   0  0  2  0  0  0  0  0  0  0  0  0
    8.0057  -15.2900   23.3464 N   0  0  0  0  0  0  0  0  0  0  0  0
    8.9968  -15.8822   25.4987 C   0  0  0  0  0  0  0  0  0  0  0  0
    9.3358  -17.0427   25.0716 O   0  0  0  0  0  0  0  0  0  0  0  0
   10.4953  -13.5195   30.0753 C   0  0  0  0  0  0  0  0  0  0  0  0
   10.8356  -14.2333   28.7681 C   0  0  0  0  0  0  0  0  0  0  0  0
   10.5253  -15.6895   28.9172 C   0  0  2  0  0  0  0  0  0  0  0  0
   11.6383  -16.3890   29.6805 C   0  0  0  0  0  0  0  0  0  0  0  0
   10.3151  -16.3702   27.5924 C   0  0  2  0  0  0  0  0  0  0  0  0
    9.4237  -15.5335   26.8068 N   0  0  0  0  0  0  0  0  0  0  0  0
    9.8692  -17.7481   27.7019 C   0  0  0  0  0  0  0  0  0  0  0  0
   10.7767  -18.7778   27.8298 O   0  0  0  0  0  0  0  0  0  0  0  0
    8.6513  -18.0254   27.6821 O   0  0  0  0  0  0  0  0  0  0  0  0
  2  3  1  0
  2  1  1  6
  3  4  1  0
  5  2  1  0
  6  5  2  0
  8  7  1  1
  8 10  1  0
  9  8  1  0
 11 10  1  1
 11 12  1  0
 12  5  1  0
 13 11  1  0
 13 20  1  0
 14 13  2  0
 15 16  1  0
 16 17  1  0
 17 19  1  0
 17 18  1  6
 19 20  1  6
 19 21  1  0
 21 22  1  0
 23 21  2  0
M  END
$$$$
