CLI.pdb
     RDKit          3D

 23 22  0  0  1  0  0  0  0  0999 V2000
   12.6783  -16.9292   19.3891 N   0  0  0  0  0  0  0  0  0  0  0  0
   11.6471  -17.4657   20.2193 C   0  0  1  0  0  0  0  0  0  0  0  0
   12.1179  -18.7903   20.7822 C   0  0  0  0  0  0  0  0  0  0  0  0
   10.8114  -19.6341   21.6709 S   0  0  0  0  0  0  0  0  0  0  0  0
   11.3155  -16.5573   21.3565 C   0  0  0  0  0  0  0  0  0  0  0  0
   12.2086  -15.9284   21.9776 O   0  0  0  0  0  0  0  0  0  0  0  0
    8.3998  -13.3240   21.4981 C   0  0  0  0  0  0  0  0  0  0  0  0
    7.7066  -14.6972   21.3680 C   0  0  2  0  0  0  0  0  0  0  0  0
    6.2454  -14.4421   21.0745 C   0  0  0  0  0  0  0  0  0  0  0  0
    7.8939  -15.4394   22.6694 C   0  0  0  0  0  0  0  0  0  0  0  0
    9.3938  -15.7374   22.8086 C   0  0  2  0  0  0  0  0  0  0  0  0
    9.9538  -16.4344   21.7055 N   0  0  0  0  0  0  0  0  0  0  0  0
    9.7764  -16.1966   24.1298 C   0  0  0  0  0  0  0  0  0  0  0  0
   10.3394  -17.3299   24.3372 O   0  0  0  0  0  0  0  0  0  0  0  0
    9.3435  -12.2533   27.9502 C   0  0  0  0  0  0  0  0  0  0  0  0
    9.9329  -13.3281   27.0385 C   0  0  0  0  0  0  0  0  0  0  0  0
    9.5191  -14.6734   27.5463 C   0  0  2  0  0  0  0  0  0  0  0  0
   10.1161  -14.9227   28.9219 C   0  0  0  0  0  0  0  0  0  0  0  0
    9.9146  -15.7855   26.6140 C   0  0  2  0  0  0  0  0  0  0  0  0
    9.5356  -15.3853   25.2694 N   0  0  0  0  0  0  0  0  0  0  0  0
    9.3985  -17.0878   26.9977 C   0  0  0  0  0  0  0  0  0  0  0  0
    8.1809  -17.5329   26.5293 O   0  0  0  0  0  0  0  0  0  0  0  0
   10.0513  -17.8301   27.7617 O   0  0  0  0  0  0  0  0  0  0  0  0
  2  3  1  0
  2  1  1  1
  3  4  1  0
  5  2  1  0
  6  5  2  0
  8  7  1  1
  8 10  1  0
  9  8  1  0
 11 10  1  1
 11 12  1  0
 12  5  1  0
 13 11  1  0
 13 20  1  0
 14 13  2  0
 15 16  1  0
 16 17  1  0
 17 19  1  0
 17 18  1  1
 19 20  1  6
 19 21  1  0
 21 22  1  0
 23 21  2  0
M  END
$$$$
