CLI.pdb
     RDKit          3D

 23 22  0  0  1  0  0  0  0  0999 V2000
    9.5372  -15.3127   19.9724 N   0  0  0  0  0  0  0  0  0  0  0  0
    8.6775  -15.8368   20.9857 C   0  0  1  0  0  0  0  0  0  0  0  0
    8.7634  -17.3485   20.9602 C   0  0  0  0  0  0  0  0  0  0  0  0
    7.8168  -18.0428   19.6071 S   0  0  0  0  0  0  0  0  0  0  0  0
    9.0638  -15.3621   22.3472 C   0  0  0  0  0  0  0  0  0  0  0  0
   10.2622  -15.1333   22.6483 O   0  0  0  0  0  0  0  0  0  0  0  0
    7.5893  -12.1785   25.2638 C   0  0  0  0  0  0  0  0  0  0  0  0
    6.4581  -13.1445   24.8513 C   0  0  2  0  0  0  0  0  0  0  0  0
    5.1780  -12.6381   25.4769 C   0  0  0  0  0  0  0  0  0  0  0  0
    6.8169  -14.5234   25.3510 C   0  0  0  0  0  0  0  0  0  0  0  0
    8.1375  -14.9201   24.6754 C   0  0  2  0  0  0  0  0  0  0  0  0
    8.0245  -15.1806   23.2841 N   0  0  0  0  0  0  0  0  0  0  0  0
    8.9301  -15.8557   25.4496 C   0  0  0  0  0  0  0  0  0  0  0  0
    9.2219  -17.0326   25.0329 O   0  0  0  0  0  0  0  0  0  0  0  0
   10.7561  -13.3320   29.6615 C   0  0  0  0  0  0  0  0  0  0  0  0
   11.0896  -14.2316   28.4727 C   0  0  0  0  0  0  0  0  0  0  0  0
   10.6379  -15.6250   28.7788 C   0  0  2  0  0  0  0  0  0  0  0  0
   11.7341  -16.3849   29.5080 C   0  0  0  0  0  0  0  0  0  0  0  0
   10.2335  -16.3817   27.5433 C   0  0  2  0  0  0  0  0  0  0  0  0
    9.4242  -15.4906   26.7293 N   0  0  0  0  0  0  0  0  0  0  0  0
    9.5944  -17.6571   27.8163 C   0  0  0  0  0  0  0  0  0  0  0  0
   10.3389  -18.8113   27.9338 O   0  0  0  0  0  0  0  0  0  0  0  0
    8.3545  -17.7309   27.9498 O   0  0  0  0  0  0  0  0  0  0  0  0
  2  3  1  0
  2  1  1  6
  3  4  1  0
  5  2  1  0
  6  5  2  0
  8  7  1  1
  8 10  1  0
  9  8  1  0
 11 10  1  1
 11 12  1  0
 12  5  1  0
 13 11  1  0
 13 20  1  0
 14 13  2  0
 15 16  1  0
 16 17  1  0
 17 19  1  0
 17 18  1  6
 19 20  1  1
 19 21  1  0
 21 22  1  0
 23 21  2  0
M  END
$$$$
