CLI.pdb
     RDKit          3D

 23 22  0  0  1  0  0  0  0  0999 V2000
    6.7065  -19.4063   22.5325 N   0  0  0  0  0  0  0  0  0  0  0  0
    6.4237  -18.6682   23.7223 C   0  0  1  0  0  0  0  0  0  0  0  0
    6.7675  -19.5288   24.9199 C   0  0  0  0  0  0  0  0  0  0  0  0
    6.2678  -21.2317   24.6771 S   0  0  0  0  0  0  0  0  0  0  0  0
    7.2184  -17.4069   23.7999 C   0  0  0  0  0  0  0  0  0  0  0  0
    8.3106  -17.2795   23.1917 O   0  0  0  0  0  0  0  0  0  0  0  0
    6.2487  -11.9083   26.6660 C   0  0  0  0  0  0  0  0  0  0  0  0
    7.0906  -12.8171   25.7449 C   0  0  2  0  0  0  0  0  0  0  0  0
    7.3427  -12.0556   24.4631 C   0  0  0  0  0  0  0  0  0  0  0  0
    6.3074  -14.0840   25.4974 C   0  0  0  0  0  0  0  0  0  0  0  0
    7.2728  -15.0964   24.8641 C   0  0  2  0  0  0  0  0  0  0  0  0
    6.6903  -16.3614   24.5868 N   0  0  0  0  0  0  0  0  0  0  0  0
    8.5888  -15.1061   25.4730 C   0  0  0  0  0  0  0  0  0  0  0  0
    9.4543  -14.1808   25.2756 O   0  0  0  0  0  0  0  0  0  0  0  0
   10.1127  -13.3660   29.4383 C   0  0  0  0  0  0  0  0  0  0  0  0
   10.1685  -14.0306   28.0639 C   0  0  0  0  0  0  0  0  0  0  0  0
   10.2395  -15.5141   28.2463 C   0  0  2  0  0  0  0  0  0  0  0  0
   11.4485  -15.8828   29.0908 C   0  0  0  0  0  0  0  0  0  0  0  0
   10.2934  -16.2516   26.9365 C   0  0  2  0  0  0  0  0  0  0  0  0
    8.9743  -16.1681   26.3324 N   0  0  0  0  0  0  0  0  0  0  0  0
   10.7955  -17.6102   27.0454 C   0  0  0  0  0  0  0  0  0  0  0  0
    9.9545  -18.6907   26.8856 O   0  0  0  0  0  0  0  0  0  0  0  0
   12.0024  -17.8241   27.2866 O   0  0  0  0  0  0  0  0  0  0  0  0
  2  3  1  0
  2  1  1  6
  3  4  1  0
  5  2  1  0
  6  5  2  0
  8  7  1  1
  8 10  1  0
  9  8  1  0
 11 10  1  1
 11 12  1  0
 12  5  1  0
 13 11  1  0
 13 20  1  0
 14 13  2  0
 15 16  1  0
 16 17  1  0
 17 19  1  0
 17 18  1  1
 19 20  1  1
 19 21  1  0
 21 22  1  0
 23 21  2  0
M  END
$$$$
