CLI.pdb
     RDKit          3D

 23 22  0  0  1  0  0  0  0  0999 V2000
   12.7009  -17.0363   19.7794 N   0  0  0  0  0  0  0  0  0  0  0  0
   11.3442  -17.3016   20.1389 C   0  0  1  0  0  0  0  0  0  0  0  0
   11.2788  -18.6512   20.8228 C   0  0  0  0  0  0  0  0  0  0  0  0
   11.4321  -19.9962   19.6497 S   0  0  0  0  0  0  0  0  0  0  0  0
   10.8008  -16.2701   21.0711 C   0  0  0  0  0  0  0  0  0  0  0  0
   11.5311  -15.7030   21.9221 O   0  0  0  0  0  0  0  0  0  0  0  0
    8.3348  -12.6314   20.3918 C   0  0  0  0  0  0  0  0  0  0  0  0
    7.6211  -13.9356   19.9761 C   0  0  2  0  0  0  0  0  0  0  0  0
    6.3690  -13.5476   19.2224 C   0  0  0  0  0  0  0  0  0  0  0  0
    7.3001  -14.7119   21.2307 C   0  0  0  0  0  0  0  0  0  0  0  0
    8.6358  -15.1715   21.8327 C   0  0  2  0  0  0  0  0  0  0  0  0
    9.4296  -15.9578   20.9563 N   0  0  0  0  0  0  0  0  0  0  0  0
    8.5292  -15.6329   23.2033 C   0  0  0  0  0  0  0  0  0  0  0  0
    8.7828  -16.8400   23.5535 O   0  0  0  0  0  0  0  0  0  0  0  0
    7.5538  -11.5931   26.8871 C   0  0  0  0  0  0  0  0  0  0  0  0
    8.2307  -12.7828   26.2086 C   0  0  0  0  0  0  0  0  0  0  0  0
    7.3563  -13.9876   26.3597 C   0  0  2  0  0  0  0  0  0  0  0  0
    7.2092  -14.3499   27.8287 C   0  0  0  0  0  0  0  0  0  0  0  0
    7.8768  -15.1742   25.5957 C   0  0  2  0  0  0  0  0  0  0  0  0
    8.1308  -14.7400   24.2323 N   0  0  0  0  0  0  0  0  0  0  0  0
    7.0267  -16.3488   25.6805 C   0  0  0  0  0  0  0  0  0  0  0  0
    7.3027  -17.3593   26.5765 O   0  0  0  0  0  0  0  0  0  0  0  0
    6.0270  -16.4645   24.9403 O   0  0  0  0  0  0  0  0  0  0  0  0
  2  3  1  0
  2  1  1  1
  3  4  1  0
  5  2  1  0
  6  5  2  0
  8  7  1  1
  8 10  1  0
  9  8  1  0
 11 10  1  6
 11 12  1  0
 12  5  1  0
 13 11  1  0
 13 20  1  0
 14 13  2  0
 15 16  1  0
 16 17  1  0
 17 19  1  0
 17 18  1  1
 19 20  1  6
 19 21  1  0
 21 22  1  0
 23 21  2  0
M  END
$$$$
