CLI.pdb
     RDKit          3D

 23 22  0  0  1  0  0  0  0  0999 V2000
    6.9101  -19.7930   21.9751 N   0  0  0  0  0  0  0  0  0  0  0  0
    6.6824  -18.4628   22.4431 C   0  0  1  0  0  0  0  0  0  0  0  0
    6.1568  -18.5313   23.8617 C   0  0  0  0  0  0  0  0  0  0  0  0
    7.2757  -19.4221   24.9402 S   0  0  0  0  0  0  0  0  0  0  0  0
    7.9324  -17.6468   22.4386 C   0  0  0  0  0  0  0  0  0  0  0  0
    9.0655  -18.1803   22.3360 O   0  0  0  0  0  0  0  0  0  0  0  0
    8.4790  -14.1733   19.7832 C   0  0  0  0  0  0  0  0  0  0  0  0
    7.5011  -13.9325   20.9531 C   0  0  2  0  0  0  0  0  0  0  0  0
    6.7613  -12.6448   20.6687 C   0  0  0  0  0  0  0  0  0  0  0  0
    8.3090  -13.8434   22.2255 C   0  0  0  0  0  0  0  0  0  0  0  0
    8.8077  -15.2601   22.5452 C   0  0  2  0  0  0  0  0  0  0  0  0
    7.7877  -16.2480   22.5548 N   0  0  0  0  0  0  0  0  0  0  0  0
    9.7699  -15.3085   23.6290 C   0  0  0  0  0  0  0  0  0  0  0  0
   10.9255  -14.7573   23.5593 O   0  0  0  0  0  0  0  0  0  0  0  0
    9.8358  -12.9644   28.5951 C   0  0  0  0  0  0  0  0  0  0  0  0
   10.3452  -14.2994   28.0544 C   0  0  0  0  0  0  0  0  0  0  0  0
    9.6228  -14.6133   26.7821 C   0  0  2  0  0  0  0  0  0  0  0  0
    8.1508  -14.8687   27.0624 C   0  0  0  0  0  0  0  0  0  0  0  0
   10.2134  -15.7952   26.0633 C   0  0  2  0  0  0  0  0  0  0  0  0
    9.4569  -15.9848   24.8371 N   0  0  0  0  0  0  0  0  0  0  0  0
   10.3061  -16.9943   26.8777 C   0  0  0  0  0  0  0  0  0  0  0  0
    9.6159  -18.1375   26.5358 O   0  0  0  0  0  0  0  0  0  0  0  0
   11.0154  -17.0107   27.9060 O   0  0  0  0  0  0  0  0  0  0  0  0
  2  3  1  0
  2  1  1  1
  3  4  1  0
  5  2  1  0
  6  5  2  0
  8  7  1  6
  8 10  1  0
  9  8  1  0
 11 10  1  1
 11 12  1  0
 12  5  1  0
 13 11  1  0
 13 20  1  0
 14 13  2  0
 15 16  1  0
 16 17  1  0
 17 19  1  0
 17 18  1  1
 19 20  1  6
 19 21  1  0
 21 22  1  0
 23 21  2  0
M  END
$$$$
