CAG.pdb
     RDKit          3D

 16 15  0  0  1  0  0  0  0  0999 V2000
   -8.8833  -22.6620   25.3017 N   0  0  0  0  0  0  0  0  0  0  0  0
   -8.4625  -21.9940   26.5066 C   0  0  1  0  0  0  0  0  0  0  0  0
   -9.5717  -22.0875   27.5306 C   0  0  0  0  0  0  0  0  0  0  0  0
  -10.7898  -20.7997   27.1103 S   0  0  0  0  0  0  0  0  0  0  0  0
   -7.2200  -22.6574   26.9755 C   0  0  0  0  0  0  0  0  0  0  0  0
   -7.0971  -23.9041   26.8857 O   0  0  0  0  0  0  0  0  0  0  0  0
   -3.7280  -21.5341   27.9088 C   0  0  0  0  0  0  0  0  0  0  0  0
   -4.8656  -22.5220   27.8698 C   0  0  2  0  0  0  0  0  0  0  0  0
   -6.1226  -21.9124   27.5431 N   0  0  0  0  0  0  0  0  0  0  0  0
   -4.9993  -23.2994   29.1072 C   0  0  0  0  0  0  0  0  0  0  0  0
   -5.8401  -22.9261   29.9655 O   0  0  0  0  0  0  0  0  0  0  0  0
   -4.2112  -24.4663   29.3778 N   0  0  0  0  0  0  0  0  0  0  0  0
   -4.4668  -25.1898   30.5845 C   0  0  0  0  0  0  0  0  0  0  0  0
   -3.5551  -26.3456   30.7804 C   0  0  0  0  0  0  0  0  0  0  0  0
   -3.2744  -27.0305   29.7663 O   0  0  0  0  0  0  0  0  0  0  0  0
   -3.0195  -26.6827   32.0110 O   0  0  0  0  0  0  0  0  0  0  0  0
  2  1  1  6
  2  3  1  0
  3  4  1  0
  5  2  1  0
  6  5  2  0
  8  7  1  1
  8  9  1  0
  9  5  1  0
 10  8  1  0
 11 10  2  0
 12 10  1  0
 13 14  1  0
 13 12  1  0
 14 16  1  0
 15 14  2  0
M  END
$$$$
