CAG.pdb
     RDKit          3D

 16 15  0  0  1  0  0  0  0  0999 V2000
    8.0762  -13.3858   17.6476 N   0  0  0  0  0  0  0  0  0  0  0  0
    8.8557  -13.9261   18.7318 C   0  0  1  0  0  0  0  0  0  0  0  0
    9.2920  -12.7923   19.6329 C   0  0  0  0  0  0  0  0  0  0  0  0
   10.6327  -11.9140   18.7670 S   0  0  0  0  0  0  0  0  0  0  0  0
    8.0038  -14.9067   19.4503 C   0  0  0  0  0  0  0  0  0  0  0  0
    6.8185  -14.6158   19.7468 O   0  0  0  0  0  0  0  0  0  0  0  0
    7.4758  -18.4399   19.7560 C   0  0  0  0  0  0  0  0  0  0  0  0
    7.6787  -17.1627   20.5300 C   0  0  2  0  0  0  0  0  0  0  0  0
    8.4920  -16.2100   19.8308 N   0  0  0  0  0  0  0  0  0  0  0  0
    8.2202  -17.3821   21.8762 C   0  0  0  0  0  0  0  0  0  0  0  0
    7.5385  -18.0463   22.6990 O   0  0  0  0  0  0  0  0  0  0  0  0
    9.4937  -16.8707   22.2916 N   0  0  0  0  0  0  0  0  0  0  0  0
    9.9089  -17.1043   23.6399 C   0  0  0  0  0  0  0  0  0  0  0  0
   11.2740  -16.5968   23.9302 C   0  0  0  0  0  0  0  0  0  0  0  0
   11.8945  -16.0520   22.9844 O   0  0  0  0  0  0  0  0  0  0  0  0
   11.8681  -16.7021   25.1756 O   0  0  0  0  0  0  0  0  0  0  0  0
  2  1  1  6
  2  3  1  0
  3  4  1  0
  5  2  1  0
  6  5  2  0
  8  7  1  6
  8  9  1  0
  9  5  1  0
 10  8  1  0
 11 10  2  0
 12 10  1  0
 13 14  1  0
 13 12  1  0
 14 16  1  0
 15 14  2  0
M  END
$$$$
