CAG.pdb
     RDKit          3D

 16 15  0  0  1  0  0  0  0  0999 V2000
    6.0697  -14.5404   26.5432 N   0  0  0  0  0  0  0  0  0  0  0  0
    6.8980  -13.7143   25.7026 C   0  0  1  0  0  0  0  0  0  0  0  0
    8.0366  -13.1608   26.5303 C   0  0  0  0  0  0  0  0  0  0  0  0
    7.4946  -11.5388   27.1580 S   0  0  0  0  0  0  0  0  0  0  0  0
    7.3873  -14.5610   24.5857 C   0  0  0  0  0  0  0  0  0  0  0  0
    7.6815  -15.7652   24.7880 O   0  0  0  0  0  0  0  0  0  0  0  0
    7.3713  -14.3308   20.8177 C   0  0  0  0  0  0  0  0  0  0  0  0
    7.8588  -14.8893   22.1299 C   0  0  2  0  0  0  0  0  0  0  0  0
    7.5425  -14.0464   23.2468 N   0  0  0  0  0  0  0  0  0  0  0  0
    9.2943  -15.1944   22.1310 C   0  0  0  0  0  0  0  0  0  0  0  0
    9.7603  -15.9037   21.2022 O   0  0  0  0  0  0  0  0  0  0  0  0
   10.1867  -14.7174   23.1469 N   0  0  0  0  0  0  0  0  0  0  0  0
   11.5637  -15.0953   23.0689 C   0  0  0  0  0  0  0  0  0  0  0  0
   11.8825  -16.3164   23.8515 C   0  0  0  0  0  0  0  0  0  0  0  0
   10.9387  -17.1126   24.0786 O   0  0  0  0  0  0  0  0  0  0  0  0
   13.1519  -16.5974   24.3258 O   0  0  0  0  0  0  0  0  0  0  0  0
  2  1  1  1
  2  3  1  0
  3  4  1  0
  5  2  1  0
  6  5  2  0
  8  7  1  6
  8  9  1  0
  9  5  1  0
 10  8  1  0
 11 10  2  0
 12 10  1  0
 13 14  1  0
 13 12  1  0
 14 16  1  0
 15 14  2  0
M  END
$$$$
