CAG.pdb
     RDKit          3D

 16 15  0  0  1  0  0  0  0  0999 V2000
    6.0655  -18.1786   20.9354 N   0  0  0  0  0  0  0  0  0  0  0  0
    7.2117  -18.6466   21.6720 C   0  0  1  0  0  0  0  0  0  0  0  0
    8.4238  -18.6058   20.7682 C   0  0  0  0  0  0  0  0  0  0  0  0
    8.4359  -20.1664   19.8285 S   0  0  0  0  0  0  0  0  0  0  0  0
    7.3742  -17.7645   22.8548 C   0  0  0  0  0  0  0  0  0  0  0  0
    6.9741  -16.5745   22.8151 O   0  0  0  0  0  0  0  0  0  0  0  0
    6.1796  -17.7035   25.6479 C   0  0  0  0  0  0  0  0  0  0  0  0
    7.6586  -17.6764   25.3593 C   0  0  2  0  0  0  0  0  0  0  0  0
    7.9867  -18.2278   24.0762 N   0  0  0  0  0  0  0  0  0  0  0  0
    8.4627  -18.3292   26.3989 C   0  0  0  0  0  0  0  0  0  0  0  0
    8.4157  -17.8750   27.5711 O   0  0  0  0  0  0  0  0  0  0  0  0
    9.2993  -19.4630   26.1330 N   0  0  0  0  0  0  0  0  0  0  0  0
   10.7117  -19.2559   26.0478 C   0  0  0  0  0  0  0  0  0  0  0  0
   11.4394  -19.6590   27.2780 C   0  0  0  0  0  0  0  0  0  0  0  0
   10.7555  -19.8291   28.3171 O   0  0  0  0  0  0  0  0  0  0  0  0
   12.8098  -19.8481   27.3150 O   0  0  0  0  0  0  0  0  0  0  0  0
  2  1  1  6
  2  3  1  0
  3  4  1  0
  5  2  1  0
  6  5  2  0
  8  7  1  1
  8  9  1  0
  9  5  1  0
 10  8  1  0
 11 10  2  0
 12 10  1  0
 13 14  1  0
 13 12  1  0
 14 16  1  0
 15 14  2  0
M  END
$$$$
