DQS.pdb
     RDKit          3D

 24 23  0  0  1  0  0  0  0  0999 V2000
   10.1219  -16.2823   19.8197 N   0  0  0  0  0  0  0  0  0  0  0  0
    9.1270  -16.5772   20.8065 C   0  0  1  0  0  0  0  0  0  0  0  0
    8.9827  -18.0796   20.8783 C   0  0  0  0  0  0  0  0  0  0  0  0
    9.4712  -18.7307   19.6391 C   0  0  0  0  0  0  0  0  0  0  0  0
    9.9613  -18.0248   18.6937 O   0  0  0  0  0  0  0  0  0  0  0  0
    9.4917  -16.0740   22.1551 C   0  0  0  0  0  0  0  0  0  0  0  0
   10.6817  -16.0057   22.5543 O   0  0  0  0  0  0  0  0  0  0  0  0
    9.4403  -20.0940   19.4103 O   0  0  0  0  0  0  0  0  0  0  0  0
    5.8269  -12.7695   26.1212 N   0  0  0  0  0  0  0  0  0  0  0  0
    7.0823  -12.7712   26.7815 C   0  0  0  0  0  0  0  0  0  0  0  0
    7.2120  -11.9688   27.7587 O   0  0  0  0  0  0  0  0  0  0  0  0
    8.1870  -13.6736   26.3420 C   0  0  0  0  0  0  0  0  0  0  0  0
    7.7553  -14.2921   25.0296 C   0  0  0  0  0  0  0  0  0  0  0  0
    8.8091  -15.1268   24.3856 C   0  0  2  0  0  0  0  0  0  0  0  0
    8.5270  -15.6299   23.0996 N   0  0  0  0  0  0  0  0  0  0  0  0
    9.1183  -16.2605   25.2931 C   0  0  0  0  0  0  0  0  0  0  0  0
    8.4078  -17.3007   25.3466 O   0  0  0  0  0  0  0  0  0  0  0  0
   12.6890  -18.4551   27.4975 O   0  0  0  0  0  0  0  0  0  0  0  0
   12.2363  -17.4411   26.6690 C   0  0  0  0  0  0  0  0  0  0  0  0
   10.7447  -17.2707   26.9402 C   0  0  2  0  0  0  0  0  0  0  0  0
   10.2596  -16.1652   26.1309 N   0  0  0  0  0  0  0  0  0  0  0  0
   10.5653  -16.9716   28.3747 C   0  0  0  0  0  0  0  0  0  0  0  0
   10.1231  -15.8726   28.7689 O   0  0  0  0  0  0  0  0  0  0  0  0
   10.8910  -17.9227   29.3142 O   0  0  0  0  0  0  0  0  0  0  0  0
  2  1  1  6
  2  3  1  0
  4  3  1  0
  5  4  2  0
  6  2  1  0
  7  6  2  0
  8  4  1  0
  9 10  1  0
 10 11  2  0
 10 12  1  0
 12 13  1  0
 14 13  1  1
 14 15  1  0
 15  6  1  0
 16 14  1  0
 17 16  2  0
 18 19  1  0
 20 19  1  1
 20 21  1  0
 21 16  1  0
 22 20  1  0
 22 24  1  0
 23 22  2  0
M  END
$$$$
