DQS.pdb
     RDKit          3D

 24 23  0  0  1  0  0  0  0  0999 V2000
    9.0854  -17.7255   20.8906 N   0  0  0  0  0  0  0  0  0  0  0  0
    8.1832  -16.6607   20.5697 C   0  0  1  0  0  0  0  0  0  0  0  0
    7.1915  -17.1879   19.5590 C   0  0  0  0  0  0  0  0  0  0  0  0
    7.8717  -17.6689   18.3325 C   0  0  0  0  0  0  0  0  0  0  0  0
    7.9131  -16.9309   17.2904 O   0  0  0  0  0  0  0  0  0  0  0  0
    7.4334  -16.1696   21.7536 C   0  0  0  0  0  0  0  0  0  0  0  0
    6.5012  -15.3308   21.6656 O   0  0  0  0  0  0  0  0  0  0  0  0
    8.4910  -18.8996   18.2160 O   0  0  0  0  0  0  0  0  0  0  0  0
    7.0256  -20.1993   26.3582 N   0  0  0  0  0  0  0  0  0  0  0  0
    7.7070  -19.0048   26.7058 C   0  0  0  0  0  0  0  0  0  0  0  0
    7.9862  -18.8466   27.9356 O   0  0  0  0  0  0  0  0  0  0  0  0
    8.0719  -17.9926   25.6713 C   0  0  0  0  0  0  0  0  0  0  0  0
    6.7917  -17.2928   25.2683 C   0  0  0  0  0  0  0  0  0  0  0  0
    6.9854  -16.2409   24.2299 C   0  0  2  0  0  0  0  0  0  0  0  0
    7.7084  -16.6081   23.0772 N   0  0  0  0  0  0  0  0  0  0  0  0
    7.6502  -15.0779   24.8699 C   0  0  0  0  0  0  0  0  0  0  0  0
    8.9031  -14.9371   24.8877 O   0  0  0  0  0  0  0  0  0  0  0  0
    5.1950  -12.3743   26.7950 O   0  0  0  0  0  0  0  0  0  0  0  0
    6.3204  -11.8393   26.1893 C   0  0  0  0  0  0  0  0  0  0  0  0
    7.3855  -12.9315   26.1744 C   0  0  2  0  0  0  0  0  0  0  0  0
    6.8397  -14.0881   25.4838 N   0  0  0  0  0  0  0  0  0  0  0  0
    7.7143  -13.2780   27.5712 C   0  0  0  0  0  0  0  0  0  0  0  0
    7.4049  -14.3811   28.0673 O   0  0  0  0  0  0  0  0  0  0  0  0
    8.3805  -12.3679   28.3595 O   0  0  0  0  0  0  0  0  0  0  0  0
  2  1  1  1
  2  3  1  0
  4  3  1  0
  5  4  2  0
  6  2  1  0
  7  6  2  0
  8  4  1  0
  9 10  1  0
 10 11  2  0
 10 12  1  0
 12 13  1  0
 14 13  1  1
 14 15  1  0
 15  6  1  0
 16 14  1  0
 17 16  2  0
 18 19  1  0
 20 19  1  1
 20 21  1  0
 21 16  1  0
 22 20  1  0
 22 24  1  0
 23 22  2  0
M  END
$$$$
