DQS.pdb
     RDKit          3D

 24 23  0  0  1  0  0  0  0  0999 V2000
    9.9540  -19.7433   18.1914 N   0  0  0  0  0  0  0  0  0  0  0  0
    9.3600  -18.4446   18.0855 C   0  0  1  0  0  0  0  0  0  0  0  0
    7.8623  -18.6148   18.1913 C   0  0  0  0  0  0  0  0  0  0  0  0
    7.3815  -19.7265   17.3362 C   0  0  0  0  0  0  0  0  0  0  0  0
    6.1321  -19.9815   17.2578 O   0  0  0  0  0  0  0  0  0  0  0  0
    9.8064  -17.5218   19.1597 C   0  0  0  0  0  0  0  0  0  0  0  0
   10.9742  -17.5369   19.6245 O   0  0  0  0  0  0  0  0  0  0  0  0
    8.2049  -20.5446   16.5849 O   0  0  0  0  0  0  0  0  0  0  0  0
    6.8593  -12.2662   20.8828 N   0  0  0  0  0  0  0  0  0  0  0  0
    7.4965  -12.5036   19.6379 C   0  0  0  0  0  0  0  0  0  0  0  0
    7.1782  -11.7315   18.6798 O   0  0  0  0  0  0  0  0  0  0  0  0
    8.4883  -13.6068   19.4739 C   0  0  0  0  0  0  0  0  0  0  0  0
    8.5463  -14.3473   20.7928 C   0  0  0  0  0  0  0  0  0  0  0  0
    9.3261  -15.6163   20.7334 C   0  0  2  0  0  0  0  0  0  0  0  0
    8.9514  -16.5497   19.7461 N   0  0  0  0  0  0  0  0  0  0  0  0
    9.2538  -16.2650   22.0669 C   0  0  0  0  0  0  0  0  0  0  0  0
    8.2233  -16.8665   22.4744 O   0  0  0  0  0  0  0  0  0  0  0  0
   11.0778  -19.4742   24.2715 O   0  0  0  0  0  0  0  0  0  0  0  0
   10.8620  -18.5439   23.2677 C   0  0  0  0  0  0  0  0  0  0  0  0
   10.6689  -17.1897   23.9434 C   0  0  2  0  0  0  0  0  0  0  0  0
   10.3918  -16.2036   22.9124 N   0  0  0  0  0  0  0  0  0  0  0  0
   11.9140  -16.8462   24.6583 C   0  0  0  0  0  0  0  0  0  0  0  0
   12.8154  -16.1675   24.1240 O   0  0  0  0  0  0  0  0  0  0  0  0
   12.0986  -17.2805   25.9509 O   0  0  0  0  0  0  0  0  0  0  0  0
  2  1  1  1
  2  3  1  0
  4  3  1  0
  5  4  2  0
  6  2  1  0
  7  6  2  0
  8  4  1  0
  9 10  1  0
 10 11  2  0
 10 12  1  0
 12 13  1  0
 14 13  1  1
 14 15  1  0
 15  6  1  0
 16 14  1  0
 17 16  2  0
 18 19  1  0
 20 19  1  6
 20 21  1  0
 21 16  1  0
 22 20  1  0
 22 24  1  0
 23 22  2  0
M  END
$$$$
