DQS.pdb
     RDKit          3D

 24 23  0  0  1  0  0  0  0  0999 V2000
   13.9402  -21.6951   19.4763 N   0  0  0  0  0  0  0  0  0  0  0  0
   14.6139  -21.3205   20.6831 C   0  0  1  0  0  0  0  0  0  0  0  0
   15.0758  -19.8904   20.5262 C   0  0  0  0  0  0  0  0  0  0  0  0
   16.2657  -19.7988   19.6463 C   0  0  0  0  0  0  0  0  0  0  0  0
   16.7480  -20.8520   19.1076 O   0  0  0  0  0  0  0  0  0  0  0  0
   13.7363  -21.4038   21.8780 C   0  0  0  0  0  0  0  0  0  0  0  0
   12.7189  -20.6800   22.0237 O   0  0  0  0  0  0  0  0  0  0  0  0
   16.9249  -18.6209   19.3467 O   0  0  0  0  0  0  0  0  0  0  0  0
   15.6077  -26.1892   26.4183 N   0  0  0  0  0  0  0  0  0  0  0  0
   14.4852  -25.5890   25.7923 C   0  0  0  0  0  0  0  0  0  0  0  0
   13.4398  -26.3048   25.6916 O   0  0  0  0  0  0  0  0  0  0  0  0
   14.5411  -24.1876   25.2817 C   0  0  0  0  0  0  0  0  0  0  0  0
   13.1852  -23.8823   24.6822 C   0  0  0  0  0  0  0  0  0  0  0  0
   13.1053  -22.5430   24.0326 C   0  0  2  0  0  0  0  0  0  0  0  0
   13.9754  -22.3065   22.9493 N   0  0  0  0  0  0  0  0  0  0  0  0
   13.3356  -21.5105   25.0744 C   0  0  0  0  0  0  0  0  0  0  0  0
   14.4751  -21.0237   25.3077 O   0  0  0  0  0  0  0  0  0  0  0  0
   10.0710  -19.6904   26.2716 O   0  0  0  0  0  0  0  0  0  0  0  0
   11.2271  -18.9813   26.5549 C   0  0  0  0  0  0  0  0  0  0  0  0
   12.3254  -20.0035   26.8313 C   0  0  2  0  0  0  0  0  0  0  0  0
   12.2267  -21.0564   25.8344 N   0  0  0  0  0  0  0  0  0  0  0  0
   12.1138  -20.5577   28.1831 C   0  0  0  0  0  0  0  0  0  0  0  0
   11.8083  -21.7545   28.3648 O   0  0  0  0  0  0  0  0  0  0  0  0
   12.2542  -19.7423   29.2827 O   0  0  0  0  0  0  0  0  0  0  0  0
  2  1  1  6
  2  3  1  0
  4  3  1  0
  5  4  2  0
  6  2  1  0
  7  6  2  0
  8  4  1  0
  9 10  1  0
 10 11  2  0
 10 12  1  0
 12 13  1  0
 14 13  1  1
 14 15  1  0
 15  6  1  0
 16 14  1  0
 17 16  2  0
 18 19  1  0
 20 19  1  6
 20 21  1  0
 21 16  1  0
 22 20  1  0
 22 24  1  0
 23 22  2  0
M  END
$$$$
