DQS.pdb
     RDKit          3D

 24 23  0  0  1  0  0  0  0  0999 V2000
   17.7432  -16.8796   15.1350 N   0  0  0  0  0  0  0  0  0  0  0  0
   17.0437  -16.1108   16.1200 C   0  0  1  0  0  0  0  0  0  0  0  0
   16.3784  -14.9536   15.4120 C   0  0  0  0  0  0  0  0  0  0  0  0
   17.3741  -13.9591   14.9453 C   0  0  0  0  0  0  0  0  0  0  0  0
   18.6218  -14.1679   15.1239 O   0  0  0  0  0  0  0  0  0  0  0  0
   15.9984  -16.8968   16.8231 C   0  0  0  0  0  0  0  0  0  0  0  0
   15.1999  -17.6565   16.2185 O   0  0  0  0  0  0  0  0  0  0  0  0
   17.0535  -12.7756   14.3063 O   0  0  0  0  0  0  0  0  0  0  0  0
   14.0729  -21.2639   19.8657 N   0  0  0  0  0  0  0  0  0  0  0  0
   14.9074  -21.1699   18.7226 C   0  0  0  0  0  0  0  0  0  0  0  0
   14.9705  -22.1982   17.9782 O   0  0  0  0  0  0  0  0  0  0  0  0
   15.6679  -19.9217   18.4199 C   0  0  0  0  0  0  0  0  0  0  0  0
   15.3133  -18.9176   19.4956 C   0  0  0  0  0  0  0  0  0  0  0  0
   14.8692  -17.5988   18.9610 C   0  0  2  0  0  0  0  0  0  0  0  0
   15.8180  -16.8537   18.2322 N   0  0  0  0  0  0  0  0  0  0  0  0
   14.3801  -16.7806   20.0992 C   0  0  0  0  0  0  0  0  0  0  0  0
   15.0983  -15.9177   20.6733 O   0  0  0  0  0  0  0  0  0  0  0  0
   10.6190  -15.7778   20.3022 O   0  0  0  0  0  0  0  0  0  0  0  0
   10.9526  -16.3073   21.5383 C   0  0  0  0  0  0  0  0  0  0  0  0
   12.4717  -16.2383   21.6621 C   0  0  2  0  0  0  0  0  0  0  0  0
   13.0513  -16.9806   20.5551 N   0  0  0  0  0  0  0  0  0  0  0  0
   12.8606  -16.8506   22.9478 C   0  0  0  0  0  0  0  0  0  0  0  0
   13.4437  -17.9531   23.0035 O   0  0  0  0  0  0  0  0  0  0  0  0
   12.5781  -16.1977   24.1257 O   0  0  0  0  0  0  0  0  0  0  0  0
  2  1  1  6
  2  3  1  0
  4  3  1  0
  5  4  2  0
  6  2  1  0
  7  6  2  0
  8  4  1  0
  9 10  1  0
 10 11  2  0
 10 12  1  0
 12 13  1  0
 14 13  1  1
 14 15  1  0
 15  6  1  0
 16 14  1  0
 17 16  2  0
 18 19  1  0
 20 19  1  6
 20 21  1  0
 21 16  1  0
 22 20  1  0
 22 24  1  0
 23 22  2  0
M  END
$$$$
