DQS.pdb
     RDKit          3D

 24 23  0  0  1  0  0  0  0  0999 V2000
    8.5873  -19.9400   17.8774 N   0  0  0  0  0  0  0  0  0  0  0  0
    8.4445  -18.5181   17.9702 C   0  0  1  0  0  0  0  0  0  0  0  0
    7.6946  -18.0510   16.7444 C   0  0  0  0  0  0  0  0  0  0  0  0
    8.6236  -17.6669   15.6546 C   0  0  0  0  0  0  0  0  0  0  0  0
    8.3960  -16.6217   14.9560 O   0  0  0  0  0  0  0  0  0  0  0  0
    7.6865  -18.0965   19.1754 C   0  0  0  0  0  0  0  0  0  0  0  0
    6.4376  -17.9531   19.1750 O   0  0  0  0  0  0  0  0  0  0  0  0
    9.7630  -18.3733   15.3161 O   0  0  0  0  0  0  0  0  0  0  0  0
    5.3722  -20.5554   23.3358 N   0  0  0  0  0  0  0  0  0  0  0  0
    6.7482  -20.8449   23.1489 C   0  0  0  0  0  0  0  0  0  0  0  0
    7.1323  -22.0133   23.4696 O   0  0  0  0  0  0  0  0  0  0  0  0
    7.6874  -19.8214   22.6030 C   0  0  0  0  0  0  0  0  0  0  0  0
    6.8608  -18.5984   22.2684 C   0  0  0  0  0  0  0  0  0  0  0  0
    7.6423  -17.5057   21.6222 C   0  0  2  0  0  0  0  0  0  0  0  0
    8.3106  -17.8228   20.4226 N   0  0  0  0  0  0  0  0  0  0  0  0
    8.6297  -16.9993   22.6086 C   0  0  0  0  0  0  0  0  0  0  0  0
    9.8190  -17.4155   22.6537 O   0  0  0  0  0  0  0  0  0  0  0  0
    7.0459  -14.7307   25.4376 O   0  0  0  0  0  0  0  0  0  0  0  0
    8.3542  -14.3154   25.2496 C   0  0  0  0  0  0  0  0  0  0  0  0
    9.0919  -15.4543   24.5524 C   0  0  2  0  0  0  0  0  0  0  0  0
    8.2142  -16.0076   23.5346 N   0  0  0  0  0  0  0  0  0  0  0  0
    9.4175  -16.4821   25.5607 C   0  0  0  0  0  0  0  0  0  0  0  0
    8.8567  -17.5975   25.5703 O   0  0  0  0  0  0  0  0  0  0  0  0
   10.3644  -16.2157   26.5230 O   0  0  0  0  0  0  0  0  0  0  0  0
  2  1  1  6
  2  3  1  0
  4  3  1  0
  5  4  2  0
  6  2  1  0
  7  6  2  0
  8  4  1  0
  9 10  1  0
 10 11  2  0
 10 12  1  0
 12 13  1  0
 14 13  1  1
 14 15  1  0
 15  6  1  0
 16 14  1  0
 17 16  2  0
 18 19  1  0
 20 19  1  1
 20 21  1  0
 21 16  1  0
 22 20  1  0
 22 24  1  0
 23 22  2  0
M  END
$$$$
