DQS.pdb
     RDKit          3D

 24 23  0  0  1  0  0  0  0  0999 V2000
   13.7644  -20.1380   15.5168 N   0  0  0  0  0  0  0  0  0  0  0  0
   13.8759  -18.8454   16.1228 C   0  0  1  0  0  0  0  0  0  0  0  0
   13.0262  -17.8874   15.3207 C   0  0  0  0  0  0  0  0  0  0  0  0
   13.5634  -17.7030   13.9511 C   0  0  0  0  0  0  0  0  0  0  0  0
   14.6111  -18.3342   13.5825 O   0  0  0  0  0  0  0  0  0  0  0  0
   13.4022  -18.8303   17.5300 C   0  0  0  0  0  0  0  0  0  0  0  0
   12.3071  -18.3160   17.8713 O   0  0  0  0  0  0  0  0  0  0  0  0
   13.0030  -16.8712   12.9993 O   0  0  0  0  0  0  0  0  0  0  0  0
   15.3597  -22.4893   22.2678 N   0  0  0  0  0  0  0  0  0  0  0  0
   14.4036  -21.6675   22.9178 C   0  0  0  0  0  0  0  0  0  0  0  0
   14.1647  -21.9291   24.1384 O   0  0  0  0  0  0  0  0  0  0  0  0
   13.7194  -20.5555   22.1945 C   0  0  0  0  0  0  0  0  0  0  0  0
   14.3237  -20.4936   20.8081 C   0  0  0  0  0  0  0  0  0  0  0  0
   13.7534  -19.4132   19.9539 C   0  0  2  0  0  0  0  0  0  0  0  0
   14.1468  -19.3953   18.6006 N   0  0  0  0  0  0  0  0  0  0  0  0
   14.0910  -18.1076   20.5748 C   0  0  0  0  0  0  0  0  0  0  0  0
   15.1700  -17.5007   20.3355 O   0  0  0  0  0  0  0  0  0  0  0  0
   11.3839  -16.6875   23.2587 O   0  0  0  0  0  0  0  0  0  0  0  0
   11.9944  -15.6875   22.5191 C   0  0  0  0  0  0  0  0  0  0  0  0
   13.3560  -16.2189   22.0819 C   0  0  2  0  0  0  0  0  0  0  0  0
   13.1595  -17.5233   21.4717 N   0  0  0  0  0  0  0  0  0  0  0  0
   14.2134  -16.3378   23.2778 C   0  0  0  0  0  0  0  0  0  0  0  0
   14.5633  -17.4473   23.7307 O   0  0  0  0  0  0  0  0  0  0  0  0
   14.6458  -15.2008   23.9210 O   0  0  0  0  0  0  0  0  0  0  0  0
  2  1  1  6
  2  3  1  0
  4  3  1  0
  5  4  2  0
  6  2  1  0
  7  6  2  0
  8  4  1  0
  9 10  1  0
 10 11  2  0
 10 12  1  0
 12 13  1  0
 14 13  1  1
 14 15  1  0
 15  6  1  0
 16 14  1  0
 17 16  2  0
 18 19  1  0
 20 19  1  1
 20 21  1  0
 21 16  1  0
 22 20  1  0
 22 24  1  0
 23 22  2  0
M  END
$$$$
