DQS.pdb
     RDKit          3D

 24 23  0  0  1  0  0  0  0  0999 V2000
   11.0689  -16.4542   20.3586 N   0  0  0  0  0  0  0  0  0  0  0  0
   10.0055  -16.6853   21.2894 C   0  0  1  0  0  0  0  0  0  0  0  0
   10.0518  -18.1423   21.6869 C   0  0  0  0  0  0  0  0  0  0  0  0
    9.6641  -19.0241   20.5598 C   0  0  0  0  0  0  0  0  0  0  0  0
   10.5625  -19.5994   19.8568 O   0  0  0  0  0  0  0  0  0  0  0  0
   10.1289  -15.8581   22.5163 C   0  0  0  0  0  0  0  0  0  0  0  0
   11.2218  -15.3659   22.8950 O   0  0  0  0  0  0  0  0  0  0  0  0
    8.3583  -19.2878   20.1896 O   0  0  0  0  0  0  0  0  0  0  0  0
    5.4240  -13.2078   25.8223 N   0  0  0  0  0  0  0  0  0  0  0  0
    6.5720  -12.7445   26.5148 C   0  0  0  0  0  0  0  0  0  0  0  0
    6.3777  -11.8714   27.4178 O   0  0  0  0  0  0  0  0  0  0  0  0
    7.9335  -13.2631   26.1904 C   0  0  0  0  0  0  0  0  0  0  0  0
    7.7933  -14.1283   24.9564 C   0  0  0  0  0  0  0  0  0  0  0  0
    9.0708  -14.7603   24.5197 C   0  0  2  0  0  0  0  0  0  0  0  0
    9.0240  -15.5569   23.3579 N   0  0  0  0  0  0  0  0  0  0  0  0
    9.5910  -15.5754   25.6463 C   0  0  0  0  0  0  0  0  0  0  0  0
    9.4758  -16.8304   25.6864 O   0  0  0  0  0  0  0  0  0  0  0  0
   11.4910  -15.3487   30.0741 O   0  0  0  0  0  0  0  0  0  0  0  0
   10.9653  -14.6419   29.0046 C   0  0  0  0  0  0  0  0  0  0  0  0
   10.8502  -15.6150   27.8353 C   0  0  2  0  0  0  0  0  0  0  0  0
   10.2432  -14.9117   26.7176 N   0  0  0  0  0  0  0  0  0  0  0  0
    9.9961  -16.7440   28.2537 C   0  0  0  0  0  0  0  0  0  0  0  0
    8.7683  -16.7609   28.0283 O   0  0  0  0  0  0  0  0  0  0  0  0
   10.5570  -17.8145   28.9117 O   0  0  0  0  0  0  0  0  0  0  0  0
  2  1  1  6
  2  3  1  0
  4  3  1  0
  5  4  2  0
  6  2  1  0
  7  6  2  0
  8  4  1  0
  9 10  1  0
 10 11  2  0
 10 12  1  0
 12 13  1  0
 14 13  1  1
 14 15  1  0
 15  6  1  0
 16 14  1  0
 17 16  2  0
 18 19  1  0
 20 19  1  1
 20 21  1  0
 21 16  1  0
 22 20  1  0
 22 24  1  0
 23 22  2  0
M  END
$$$$
