RRN.pdb
     RDKit          3D

 31 30  0  0  1  0  0  0  0  0999 V2000
   24.3570  -16.5339  -19.4402 N   0  0  0  0  0  0  0  0  0  0  0  0
   24.2932  -15.1865  -18.9286 C   0  0  0  0  0  0  0  0  0  0  0  0
   23.4793  -14.3989  -19.5301 N   0  0  0  0  0  0  0  0  0  0  0  0
   25.1007  -14.7999  -17.8249 N   0  0  0  0  0  0  0  0  0  0  0  0
   26.2469  -15.6481  -17.4602 C   0  0  0  0  0  0  0  0  0  0  0  0
   25.7481  -16.8462  -16.7383 C   0  0  0  0  0  0  0  0  0  0  0  0
   26.4925  -17.2722  -15.5326 C   0  0  0  0  0  0  0  0  0  0  0  0
   27.4926  -18.3608  -15.7230 C   0  0  2  0  0  0  0  0  0  0  0  0
   27.5650  -18.8133  -17.0993 N   0  0  0  0  0  0  0  0  0  0  0  0
   27.2484  -19.5350  -14.8655 C   0  0  0  0  0  0  0  0  0  0  0  0
   26.2949  -20.3012  -15.1381 O   0  0  0  0  0  0  0  0  0  0  0  0
   23.3701  -13.4266  -19.1893 N   0  0  0  0  0  0  0  0  0  0  0  0
   31.8085  -22.0546   -8.0349 C   0  0  0  0  0  0  0  0  0  0  0  0
   31.5210  -22.5327   -9.3446 N   0  0  0  0  0  0  0  0  0  0  0  0
   32.3502  -23.2772   -9.9544 N   0  0  0  0  0  0  0  0  0  0  0  0
   30.3027  -22.2010  -10.0200 C   0  0  0  0  0  0  0  0  0  0  0  0
   29.2238  -21.5625   -9.3381 C   0  0  0  0  0  0  0  0  0  0  0  0
   28.0130  -21.2774  -10.2168 C   0  0  0  0  0  0  0  0  0  0  0  0
   28.5067  -20.5659  -11.4258 C   0  0  1  0  0  0  0  0  0  0  0  0
   27.5599  -20.6509  -12.6054 N   0  0  0  0  0  0  0  0  0  0  0  0
   28.0283  -19.8697  -13.7301 C   0  0  0  0  0  0  0  0  0  0  0  0
   26.1786  -20.2439  -12.2091 O   0  0  0  0  0  0  0  0  0  0  0  0
   25.9328  -19.0621  -11.8415 N   0  0  0  0  0  0  0  0  0  0  0  0
   32.1463  -23.6078  -10.9203 C   0  0  0  0  0  0  0  0  0  0  0  0
   22.5336  -20.1806  -14.3021 O   0  0  0  0  0  0  0  0  0  0  0  0
   22.2503  -21.4651  -13.7811 C   0  0  0  0  0  0  0  0  0  0  0  0
   21.5033  -22.2257  -14.4207 C   0  0  2  0  0  0  0  0  0  0  0  0
   22.8240  -21.9181  -12.4944 N   0  0  0  0  0  0  0  0  0  0  0  0
   23.7625  -20.8858  -11.8954 C   0  0  0  0  0  0  0  0  0  0  0  0
   25.1311  -21.2039  -12.2483 O   0  0  0  0  0  0  0  0  0  0  0  0
   23.5887  -20.7979  -10.4234 O   0  0  0  0  0  0  0  0  0  0  0  0
  2  1  1  0
  2  3  2  0
  4  2  1  0
  5  4  1  0
  6  5  1  0
  7  8  1  0
  7  6  1  0
  8  9  1  6
  8 10  1  0
 10 20  1  0
 11 10  2  0
 13 12  1  0
 14 13  2  0
 15 13  1  0
 16 15  1  0
 17 16  1  0
 18 17  1  0
 19 18  1  6
 19 21  1  0
 20 19  1  0
 21 28  1  0
 21 22  2  0
 23 24  1  0
 24 25  2  0
 26 24  1  0
 27 26  1  1
 27 29  1  0
 28 27  1  0
 29 30  2  0
 29 31  1  0
M  END
$$$$
