RRN.pdb
     RDKit          3D

 31 30  0  0  1  0  0  0  0  0999 V2000
   29.1517  -23.7182  -17.9369 N   0  0  0  0  0  0  0  0  0  0  0  0
   29.1294  -24.4087  -19.2035 C   0  0  0  0  0  0  0  0  0  0  0  0
   30.2735  -24.6300  -19.7390 N   0  0  0  0  0  0  0  0  0  0  0  0
   27.8930  -24.8004  -19.7846 N   0  0  0  0  0  0  0  0  0  0  0  0
   26.6915  -24.8220  -18.9348 C   0  0  0  0  0  0  0  0  0  0  0  0
   26.1775  -23.4358  -18.7935 C   0  0  0  0  0  0  0  0  0  0  0  0
   25.5511  -23.0713  -17.5035 C   0  0  0  0  0  0  0  0  0  0  0  0
   25.9960  -23.8455  -16.3100 C   0  0  2  0  0  0  0  0  0  0  0  0
   25.6558  -25.2525  -16.4030 N   0  0  0  0  0  0  0  0  0  0  0  0
   25.4552  -23.3248  -15.0412 C   0  0  0  0  0  0  0  0  0  0  0  0
   24.3617  -23.7667  -14.6175 O   0  0  0  0  0  0  0  0  0  0  0  0
   30.3184  -25.0921  -20.6651 N   0  0  0  0  0  0  0  0  0  0  0  0
   30.0806  -22.7406  -10.3543 C   0  0  0  0  0  0  0  0  0  0  0  0
   29.3376  -21.6948   -9.7374 N   0  0  0  0  0  0  0  0  0  0  0  0
   29.2563  -21.6230   -8.4717 N   0  0  0  0  0  0  0  0  0  0  0  0
   28.6612  -20.6933  -10.5054 C   0  0  0  0  0  0  0  0  0  0  0  0
   27.3916  -20.1793  -10.1047 C   0  0  0  0  0  0  0  0  0  0  0  0
   26.2062  -20.8327  -10.8029 C   0  0  0  0  0  0  0  0  0  0  0  0
   26.5975  -21.0480  -12.2214 C   0  0  2  0  0  0  0  0  0  0  0  0
   25.5427  -21.7682  -13.0362 N   0  0  0  0  0  0  0  0  0  0  0  0
   26.0934  -22.3395  -14.2466 C   0  0  0  0  0  0  0  0  0  0  0  0
   24.3977  -20.8604  -13.3455 O   0  0  0  0  0  0  0  0  0  0  0  0
   24.5138  -19.9420  -14.2030 N   0  0  0  0  0  0  0  0  0  0  0  0
   28.7429  -20.8365   -8.0230 C   0  0  0  0  0  0  0  0  0  0  0  0
   20.1731  -18.8746  -15.3302 O   0  0  0  0  0  0  0  0  0  0  0  0
   20.1970  -20.1804  -14.7861 C   0  0  0  0  0  0  0  0  0  0  0  0
   19.1261  -20.7955  -14.6429 C   0  0  1  0  0  0  0  0  0  0  0  0
   21.4676  -20.8249  -14.3860 N   0  0  0  0  0  0  0  0  0  0  0  0
   21.9537  -20.3331  -13.0343 C   0  0  0  0  0  0  0  0  0  0  0  0
   23.1640  -21.0375  -12.6624 O   0  0  0  0  0  0  0  0  0  0  0  0
   20.8987  -20.4852  -12.0007 O   0  0  0  0  0  0  0  0  0  0  0  0
  2  1  1  0
  2  3  2  0
  4  2  1  0
  5  4  1  0
  6  5  1  0
  7  8  1  0
  7  6  1  0
  8  9  1  6
  8 10  1  0
 10 20  1  0
 11 10  2  0
 13 12  1  0
 14 13  2  0
 15 13  1  0
 16 15  1  0
 17 16  1  0
 18 17  1  0
 19 18  1  1
 19 21  1  0
 20 19  1  0
 21 28  1  0
 21 22  2  0
 23 24  1  0
 24 25  2  0
 26 24  1  0
 27 26  1  1
 27 29  1  0
 28 27  1  0
 29 30  2  0
 29 31  1  0
M  END
$$$$
