RRN.pdb
     RDKit          3D

 31 30  0  0  1  0  0  0  0  0999 V2000
   35.2135  -26.7554  -15.4448 N   0  0  0  0  0  0  0  0  0  0  0  0
   35.3050  -25.3210  -15.3195 C   0  0  0  0  0  0  0  0  0  0  0  0
   36.2135  -24.8869  -14.5252 N   0  0  0  0  0  0  0  0  0  0  0  0
   34.4224  -24.4799  -16.0497 N   0  0  0  0  0  0  0  0  0  0  0  0
   32.9796  -24.5625  -15.7703 C   0  0  0  0  0  0  0  0  0  0  0  0
   32.2754  -24.9990  -17.0029 C   0  0  0  0  0  0  0  0  0  0  0  0
   31.0692  -24.2405  -17.4013 C   0  0  0  0  0  0  0  0  0  0  0  0
   30.1692  -23.8013  -16.2974 C   0  0  2  0  0  0  0  0  0  0  0  0
   29.9808  -24.8305  -15.2926 N   0  0  0  0  0  0  0  0  0  0  0  0
   28.8403  -23.3667  -16.7649 C   0  0  0  0  0  0  0  0  0  0  0  0
   28.7641  -22.4708  -17.6379 O   0  0  0  0  0  0  0  0  0  0  0  0
   36.3616  -23.8655  -14.4350 N   0  0  0  0  0  0  0  0  0  0  0  0
   23.6787  -26.4880  -14.7744 C   0  0  0  0  0  0  0  0  0  0  0  0
   22.4765  -25.8903  -15.2474 N   0  0  0  0  0  0  0  0  0  0  0  0
   21.6117  -25.4485  -14.4285 N   0  0  0  0  0  0  0  0  0  0  0  0
   22.1951  -25.7623  -16.6456 C   0  0  0  0  0  0  0  0  0  0  0  0
   23.2401  -25.5920  -17.6025 C   0  0  0  0  0  0  0  0  0  0  0  0
   24.0303  -24.3004  -17.4392 C   0  0  0  0  0  0  0  0  0  0  0  0
   25.4101  -24.6792  -17.0338 C   0  0  1  0  0  0  0  0  0  0  0  0
   26.3035  -23.4896  -16.7477 N   0  0  0  0  0  0  0  0  0  0  0  0
   27.6146  -23.8977  -16.2903 C   0  0  0  0  0  0  0  0  0  0  0  0
   25.6592  -22.5638  -15.7687 O   0  0  0  0  0  0  0  0  0  0  0  0
   25.9228  -22.6392  -14.5370 N   0  0  0  0  0  0  0  0  0  0  0  0
   20.7408  -24.9980  -14.7779 C   0  0  0  0  0  0  0  0  0  0  0  0
   22.0164  -17.5068  -15.7778 O   0  0  0  0  0  0  0  0  0  0  0  0
   22.9956  -18.4067  -15.2950 C   0  0  0  0  0  0  0  0  0  0  0  0
   23.3837  -18.3036  -14.1184 C   0  0  2  0  0  0  0  0  0  0  0  0
   23.5640  -19.4636  -16.1608 N   0  0  0  0  0  0  0  0  0  0  0  0
   24.0870  -20.6390  -15.3545 C   0  0  0  0  0  0  0  0  0  0  0  0
   24.7381  -21.5872  -16.2355 O   0  0  0  0  0  0  0  0  0  0  0  0
   22.9960  -21.2809  -14.5785 O   0  0  0  0  0  0  0  0  0  0  0  0
  2  1  1  0
  2  3  2  0
  4  2  1  0
  5  4  1  0
  6  5  1  0
  7  8  1  0
  7  6  1  0
  8  9  1  1
  8 10  1  0
 10 20  1  0
 11 10  2  0
 13 12  1  0
 14 13  2  0
 15 13  1  0
 16 15  1  0
 17 16  1  0
 18 17  1  0
 19 18  1  6
 19 21  1  0
 20 19  1  0
 21 28  1  0
 21 22  2  0
 23 24  1  0
 24 25  2  0
 26 24  1  0
 27 26  1  1
 27 29  1  0
 28 27  1  0
 29 30  2  0
 29 31  1  0
M  END
$$$$
