RRN.pdb
     RDKit          3D

 31 30  0  0  1  0  0  0  0  0999 V2000
   25.6359  -19.5443  -10.0269 N   0  0  0  0  0  0  0  0  0  0  0  0
   26.7316  -20.4426   -9.7551 C   0  0  0  0  0  0  0  0  0  0  0  0
   26.8566  -20.8177   -8.5351 N   0  0  0  0  0  0  0  0  0  0  0  0
   27.5941  -20.8594  -10.8049 N   0  0  0  0  0  0  0  0  0  0  0  0
   27.9527  -19.8862  -11.8493 C   0  0  0  0  0  0  0  0  0  0  0  0
   26.7072  -19.3207  -12.4276 C   0  0  0  0  0  0  0  0  0  0  0  0
   25.8173  -20.2469  -13.1621 C   0  0  0  0  0  0  0  0  0  0  0  0
   26.2407  -20.6156  -14.5429 C   0  0  2  0  0  0  0  0  0  0  0  0
   26.6236  -19.4607  -15.3326 N   0  0  0  0  0  0  0  0  0  0  0  0
   25.2119  -21.3624  -15.2896 C   0  0  0  0  0  0  0  0  0  0  0  0
   24.4291  -20.7358  -16.0414 O   0  0  0  0  0  0  0  0  0  0  0  0
   27.6860  -21.3734   -8.2584 N   0  0  0  0  0  0  0  0  0  0  0  0
   20.3396  -27.2781  -13.7903 C   0  0  0  0  0  0  0  0  0  0  0  0
   20.6290  -28.0304  -14.9636 N   0  0  0  0  0  0  0  0  0  0  0  0
   19.7122  -28.6845  -15.5513 N   0  0  0  0  0  0  0  0  0  0  0  0
   21.9458  -28.0805  -15.5238 C   0  0  0  0  0  0  0  0  0  0  0  0
   22.9648  -27.1700  -15.1125 C   0  0  0  0  0  0  0  0  0  0  0  0
   22.7147  -25.7261  -15.5272 C   0  0  0  0  0  0  0  0  0  0  0  0
   23.8888  -24.9315  -15.0777 C   0  0  2  0  0  0  0  0  0  0  0  0
   23.7762  -23.4547  -15.3961 N   0  0  0  0  0  0  0  0  0  0  0  0
   25.0376  -22.7674  -15.2193 C   0  0  0  0  0  0  0  0  0  0  0  0
   22.6996  -22.8155  -14.5818 O   0  0  0  0  0  0  0  0  0  0  0  0
   22.6234  -23.0165  -13.3384 N   0  0  0  0  0  0  0  0  0  0  0  0
   19.9348  -29.2639  -16.3870 C   0  0  0  0  0  0  0  0  0  0  0  0
   18.2975  -20.0199  -14.6914 O   0  0  0  0  0  0  0  0  0  0  0  0
   18.4006  -20.8023  -15.8656 C   0  0  0  0  0  0  0  0  0  0  0  0
   17.5773  -20.6300  -16.7811 C   0  0  1  0  0  0  0  0  0  0  0  0
   19.4656  -21.8174  -16.0236 N   0  0  0  0  0  0  0  0  0  0  0  0
   20.3661  -21.8917  -14.8035 C   0  0  0  0  0  0  0  0  0  0  0  0
   21.7514  -21.9710  -15.2204 O   0  0  0  0  0  0  0  0  0  0  0  0
   19.9947  -23.0378  -13.9357 O   0  0  0  0  0  0  0  0  0  0  0  0
  2  1  1  0
  2  3  2  0
  4  2  1  0
  5  4  1  0
  6  5  1  0
  7  8  1  0
  7  6  1  0
  8  9  1  6
  8 10  1  0
 10 20  1  0
 11 10  2  0
 13 12  1  0
 14 13  2  0
 15 13  1  0
 16 15  1  0
 17 16  1  0
 18 17  1  0
 19 18  1  6
 19 21  1  0
 20 19  1  0
 21 28  1  0
 21 22  2  0
 23 24  1  0
 24 25  2  0
 26 24  1  0
 27 26  1  1
 27 29  1  0
 28 27  1  0
 29 30  2  0
 29 31  1  0
M  END
$$$$
