RRN.pdb
     RDKit          3D

 31 30  0  0  1  0  0  0  0  0999 V2000
   28.4363  -18.0271  -21.3923 N   0  0  0  0  0  0  0  0  0  0  0  0
   27.3261  -17.7867  -20.5029 C   0  0  0  0  0  0  0  0  0  0  0  0
   26.1655  -17.7774  -21.0485 N   0  0  0  0  0  0  0  0  0  0  0  0
   27.5514  -17.5780  -19.1153 N   0  0  0  0  0  0  0  0  0  0  0  0
   28.4613  -18.4911  -18.4050 C   0  0  0  0  0  0  0  0  0  0  0  0
   27.6577  -19.4033  -17.5520 C   0  0  0  0  0  0  0  0  0  0  0  0
   27.9845  -19.4492  -16.1097 C   0  0  0  0  0  0  0  0  0  0  0  0
   28.1374  -20.8046  -15.5087 C   0  0  2  0  0  0  0  0  0  0  0  0
   28.2939  -21.8414  -16.5111 N   0  0  0  0  0  0  0  0  0  0  0  0
   27.0175  -21.1826  -14.6275 C   0  0  0  0  0  0  0  0  0  0  0  0
   26.1425  -21.9702  -15.0573 O   0  0  0  0  0  0  0  0  0  0  0  0
   26.0912  -17.8011  -22.0816 N   0  0  0  0  0  0  0  0  0  0  0  0
   22.5013  -19.9132   -7.9215 C   0  0  0  0  0  0  0  0  0  0  0  0
   22.4265  -21.2894   -8.2779 N   0  0  0  0  0  0  0  0  0  0  0  0
   21.3360  -21.9286   -8.1516 N   0  0  0  0  0  0  0  0  0  0  0  0
   23.5597  -22.0010   -8.7876 C   0  0  0  0  0  0  0  0  0  0  0  0
   24.7541  -21.3211   -9.1722 C   0  0  0  0  0  0  0  0  0  0  0  0
   24.5665  -20.3279  -10.3114 C   0  0  0  0  0  0  0  0  0  0  0  0
   25.8240  -20.3293  -11.1054 C   0  0  1  0  0  0  0  0  0  0  0  0
   25.6509  -20.8708  -12.5097 N   0  0  0  0  0  0  0  0  0  0  0  0
   26.8522  -20.7115  -13.3008 C   0  0  0  0  0  0  0  0  0  0  0  0
   24.4782  -20.2370  -13.1834 O   0  0  0  0  0  0  0  0  0  0  0  0
   24.4278  -18.9878  -13.3545 N   0  0  0  0  0  0  0  0  0  0  0  0
   21.2858  -22.9359   -8.4096 C   0  0  0  0  0  0  0  0  0  0  0  0
   20.3771  -23.4063  -14.9713 O   0  0  0  0  0  0  0  0  0  0  0  0
   21.6630  -22.8205  -15.0408 C   0  0  0  0  0  0  0  0  0  0  0  0
   22.6565  -23.5059  -14.7427 C   0  0  1  0  0  0  0  0  0  0  0  0
   21.8467  -21.4132  -15.4598 N   0  0  0  0  0  0  0  0  0  0  0  0
   22.2353  -20.5193  -14.2958 C   0  0  0  0  0  0  0  0  0  0  0  0
   23.4080  -21.0558  -13.6356 O   0  0  0  0  0  0  0  0  0  0  0  0
   21.1049  -20.3584  -13.3466 O   0  0  0  0  0  0  0  0  0  0  0  0
  2  1  1  0
  2  3  2  0
  4  2  1  0
  5  4  1  0
  6  5  1  0
  7  8  1  0
  7  6  1  0
  8  9  1  6
  8 10  1  0
 10 20  1  0
 11 10  2  0
 13 12  1  0
 14 13  2  0
 15 13  1  0
 16 15  1  0
 17 16  1  0
 18 17  1  0
 19 18  1  1
 19 21  1  0
 20 19  1  0
 21 28  1  0
 21 22  2  0
 23 24  1  0
 24 25  2  0
 26 24  1  0
 27 26  1  6
 27 29  1  0
 28 27  1  0
 29 30  2  0
 29 31  1  0
M  END
$$$$
