RRN.pdb
     RDKit          3D

 31 30  0  0  1  0  0  0  0  0999 V2000
   24.3123  -25.6524  -13.8823 N   0  0  0  0  0  0  0  0  0  0  0  0
   23.3043  -25.4176  -14.8875 C   0  0  0  0  0  0  0  0  0  0  0  0
   23.6872  -25.5516  -16.1040 N   0  0  0  0  0  0  0  0  0  0  0  0
   21.9821  -25.0615  -14.5071 N   0  0  0  0  0  0  0  0  0  0  0  0
   21.6318  -25.0802  -13.0777 C   0  0  0  0  0  0  0  0  0  0  0  0
   20.1880  -24.7643  -12.9323 C   0  0  0  0  0  0  0  0  0  0  0  0
   19.3391  -25.7640  -12.2473 C   0  0  0  0  0  0  0  0  0  0  0  0
   19.8472  -26.2827  -10.9456 C   0  0  2  0  0  0  0  0  0  0  0  0
   20.4344  -27.6036  -11.0659 N   0  0  0  0  0  0  0  0  0  0  0  0
   18.8153  -26.3326   -9.8938 C   0  0  0  0  0  0  0  0  0  0  0  0
   17.8731  -27.1517  -10.0024 O   0  0  0  0  0  0  0  0  0  0  0  0
   23.0464  -25.2760  -16.8701 N   0  0  0  0  0  0  0  0  0  0  0  0
   19.3521  -27.7781   -2.2927 C   0  0  0  0  0  0  0  0  0  0  0  0
   18.0129  -27.4299   -2.6272 N   0  0  0  0  0  0  0  0  0  0  0  0
   17.0638  -27.6716   -1.8182 N   0  0  0  0  0  0  0  0  0  0  0  0
   17.6835  -26.8006   -3.8705 C   0  0  0  0  0  0  0  0  0  0  0  0
   17.6969  -25.3807   -4.0126 C   0  0  0  0  0  0  0  0  0  0  0  0
   17.2265  -24.8862   -5.3741 C   0  0  0  0  0  0  0  0  0  0  0  0
   18.2780  -25.2518   -6.3603 C   0  0  1  0  0  0  0  0  0  0  0  0
   17.7445  -25.4588   -7.7630 N   0  0  0  0  0  0  0  0  0  0  0  0
   18.8084  -25.5048   -8.7431 C   0  0  0  0  0  0  0  0  0  0  0  0
   16.7412  -24.4086   -8.1109 O   0  0  0  0  0  0  0  0  0  0  0  0
   17.0716  -23.1922   -8.1691 N   0  0  0  0  0  0  0  0  0  0  0  0
   16.0866  -27.4091   -2.0629 C   0  0  0  0  0  0  0  0  0  0  0  0
   11.7654  -23.2907  -10.9091 O   0  0  0  0  0  0  0  0  0  0  0  0
   12.0319  -23.6460   -9.5659 C   0  0  0  0  0  0  0  0  0  0  0  0
   11.3261  -23.1659   -8.6620 C   0  0  1  0  0  0  0  0  0  0  0  0
   13.1305  -24.5745   -9.2183 N   0  0  0  0  0  0  0  0  0  0  0  0
   14.3724  -23.8365   -8.7511 C   0  0  0  0  0  0  0  0  0  0  0  0
   15.3983  -24.7895   -8.3789 O   0  0  0  0  0  0  0  0  0  0  0  0
   14.0554  -22.9158   -7.6302 O   0  0  0  0  0  0  0  0  0  0  0  0
  2  1  1  0
  2  3  2  0
  4  2  1  0
  5  4  1  0
  6  5  1  0
  7  8  1  0
  7  6  1  0
  8  9  1  6
  8 10  1  0
 10 20  1  0
 11 10  2  0
 13 12  1  0
 14 13  2  0
 15 13  1  0
 16 15  1  0
 17 16  1  0
 18 17  1  0
 19 18  1  1
 19 21  1  0
 20 19  1  0
 21 28  1  0
 21 22  2  0
 23 24  1  0
 24 25  2  0
 26 24  1  0
 27 26  1  1
 27 29  1  0
 28 27  1  0
 29 30  2  0
 29 31  1  0
M  END
$$$$
