RRN.pdb
     RDKit          3D

 31 30  0  0  1  0  0  0  0  0999 V2000
   19.2587  -23.7057   -7.1158 N   0  0  0  0  0  0  0  0  0  0  0  0
   18.3381  -23.6170   -8.2231 C   0  0  0  0  0  0  0  0  0  0  0  0
   17.1127  -23.8821   -7.9530 N   0  0  0  0  0  0  0  0  0  0  0  0
   18.8045  -23.2550   -9.5158 N   0  0  0  0  0  0  0  0  0  0  0  0
   20.2246  -22.9040   -9.6788 C   0  0  0  0  0  0  0  0  0  0  0  0
   20.3238  -21.4806  -10.0907 C   0  0  0  0  0  0  0  0  0  0  0  0
   21.6769  -20.9403  -10.3482 C   0  0  0  0  0  0  0  0  0  0  0  0
   22.1737  -21.0407  -11.7499 C   0  0  2  0  0  0  0  0  0  0  0  0
   22.0757  -22.3881  -12.2780 N   0  0  0  0  0  0  0  0  0  0  0  0
   23.5665  -20.5844  -11.9101 C   0  0  0  0  0  0  0  0  0  0  0  0
   23.8727  -19.4233  -11.5515 O   0  0  0  0  0  0  0  0  0  0  0  0
   16.4091  -23.8548   -8.7130 N   0  0  0  0  0  0  0  0  0  0  0  0
   30.1545  -21.7591   -8.6400 C   0  0  0  0  0  0  0  0  0  0  0  0
   30.5556  -22.1446   -9.9503 N   0  0  0  0  0  0  0  0  0  0  0  0
   31.4822  -22.9980  -10.1148 N   0  0  0  0  0  0  0  0  0  0  0  0
   29.9404  -21.5964  -11.1213 C   0  0  0  0  0  0  0  0  0  0  0  0
   28.6956  -20.9019  -11.0522 C   0  0  0  0  0  0  0  0  0  0  0  0
   27.4732  -21.8099  -11.0766 C   0  0  0  0  0  0  0  0  0  0  0  0
   27.0100  -21.8833  -12.4879 C   0  0  2  0  0  0  0  0  0  0  0  0
   25.9191  -20.8853  -12.8182 N   0  0  0  0  0  0  0  0  0  0  0  0
   24.6086  -21.3781  -12.4519 C   0  0  0  0  0  0  0  0  0  0  0  0
   25.9642  -20.5066  -14.2623 O   0  0  0  0  0  0  0  0  0  0  0  0
   25.5000  -21.2765  -15.1477 N   0  0  0  0  0  0  0  0  0  0  0  0
   31.8531  -23.1920  -11.0679 C   0  0  0  0  0  0  0  0  0  0  0  0
   24.8470  -17.6137  -18.5140 O   0  0  0  0  0  0  0  0  0  0  0  0
   25.5092  -16.9863  -17.4325 C   0  0  0  0  0  0  0  0  0  0  0  0
   26.0870  -15.9023  -17.6243 C   0  0  1  0  0  0  0  0  0  0  0  0
   25.5267  -17.5937  -16.0833 N   0  0  0  0  0  0  0  0  0  0  0  0
   26.4971  -18.7582  -15.9964 C   0  0  0  0  0  0  0  0  0  0  0  0
   26.5383  -19.2621  -14.6387 O   0  0  0  0  0  0  0  0  0  0  0  0
   27.8480  -18.3629  -16.4691 O   0  0  0  0  0  0  0  0  0  0  0  0
  2  1  1  0
  2  3  2  0
  4  2  1  0
  5  4  1  0
  6  5  1  0
  7  8  1  0
  7  6  1  0
  8  9  1  1
  8 10  1  0
 10 20  1  0
 11 10  2  0
 13 12  1  0
 14 13  2  0
 15 13  1  0
 16 15  1  0
 17 16  1  0
 18 17  1  0
 19 18  1  1
 19 21  1  0
 20 19  1  0
 21 28  1  0
 21 22  2  0
 23 24  1  0
 24 25  2  0
 26 24  1  0
 27 26  1  1
 27 29  1  0
 28 27  1  0
 29 30  2  0
 29 31  1  0
M  END
$$$$
