RRN.pdb
     RDKit          3D

 31 30  0  0  1  0  0  0  0  0999 V2000
   23.4933  -35.4303  -11.5810 N   0  0  0  0  0  0  0  0  0  0  0  0
   22.6296  -34.5831  -10.7951 C   0  0  0  0  0  0  0  0  0  0  0  0
   21.7530  -35.1884  -10.0811 N   0  0  0  0  0  0  0  0  0  0  0  0
   22.7768  -33.1703  -10.8405 N   0  0  0  0  0  0  0  0  0  0  0  0
   21.8542  -32.3408  -10.0486 C   0  0  0  0  0  0  0  0  0  0  0  0
   22.1453  -30.9092  -10.3154 C   0  0  0  0  0  0  0  0  0  0  0  0
   21.0896  -30.1132  -10.9794 C   0  0  0  0  0  0  0  0  0  0  0  0
   21.3844  -28.6672  -11.1888 C   0  0  2  0  0  0  0  0  0  0  0  0
   22.3674  -28.1599  -10.2505 N   0  0  0  0  0  0  0  0  0  0  0  0
   20.1879  -27.8095  -11.1095 C   0  0  0  0  0  0  0  0  0  0  0  0
   19.1816  -28.1019  -11.7969 O   0  0  0  0  0  0  0  0  0  0  0  0
   21.0190  -34.6350   -9.6032 N   0  0  0  0  0  0  0  0  0  0  0  0
   16.8845  -24.8750   -3.8144 C   0  0  0  0  0  0  0  0  0  0  0  0
   16.8316  -26.2502   -4.1782 N   0  0  0  0  0  0  0  0  0  0  0  0
   16.5034  -27.1302   -3.3228 N   0  0  0  0  0  0  0  0  0  0  0  0
   17.1402  -26.6938   -5.5043 C   0  0  0  0  0  0  0  0  0  0  0  0
   17.7271  -25.8166   -6.4648 C   0  0  0  0  0  0  0  0  0  0  0  0
   18.1677  -26.5048   -7.7500 C   0  0  0  0  0  0  0  0  0  0  0  0
   18.7323  -25.4542   -8.6383 C   0  0  2  0  0  0  0  0  0  0  0  0
   18.8739  -25.8950  -10.0808 N   0  0  0  0  0  0  0  0  0  0  0  0
   20.0879  -26.6529  -10.2962 C   0  0  0  0  0  0  0  0  0  0  0  0
   18.8033  -24.7234  -11.0044 O   0  0  0  0  0  0  0  0  0  0  0  0
   19.8319  -24.0392  -11.2612 N   0  0  0  0  0  0  0  0  0  0  0  0
   16.4398  -28.1318   -3.5990 C   0  0  0  0  0  0  0  0  0  0  0  0
   17.1499  -21.3582  -14.5400 O   0  0  0  0  0  0  0  0  0  0  0  0
   17.4474  -22.6826  -14.9392 C   0  0  0  0  0  0  0  0  0  0  0  0
   17.5455  -22.9410  -16.1513 C   0  0  1  0  0  0  0  0  0  0  0  0
   17.6430  -23.7611  -13.9451 N   0  0  0  0  0  0  0  0  0  0  0  0
   17.4118  -23.2749  -12.5255 C   0  0  0  0  0  0  0  0  0  0  0  0
   17.5591  -24.3789  -11.5989 O   0  0  0  0  0  0  0  0  0  0  0  0
   16.0811  -22.6298  -12.3930 O   0  0  0  0  0  0  0  0  0  0  0  0
  2  1  1  0
  2  3  2  0
  4  2  1  0
  5  4  1  0
  6  5  1  0
  7  8  1  0
  7  6  1  0
  8  9  1  1
  8 10  1  0
 10 20  1  0
 11 10  2  0
 13 12  1  0
 14 13  2  0
 15 13  1  0
 16 15  1  0
 17 16  1  0
 18 17  1  0
 19 18  1  1
 19 21  1  0
 20 19  1  0
 21 28  1  0
 21 22  2  0
 23 24  1  0
 24 25  2  0
 26 24  1  0
 27 26  1  6
 27 29  1  0
 28 27  1  0
 29 30  2  0
 29 31  1  0
M  END
$$$$
