MFF.pdb
     RDKit          3D

 31 32  0  0  1  0  0  0  0  0999 V2000
    9.0918  -22.3757   21.3446 C   0  0  0  0  0  0  0  0  0  0  0  0
    9.3495  -22.1391   19.5811 S   0  0  0  0  0  0  0  0  0  0  0  0
    9.1449  -20.4206   19.0733 C   0  0  0  0  0  0  0  0  0  0  0  0
   10.0104  -19.4974   19.9246 C   0  0  0  0  0  0  0  0  0  0  0  0
    9.6444  -18.0870   19.5297 C   0  0  2  0  0  0  0  0  0  0  0  0
   10.6634  -17.6427   18.6000 N   0  0  0  0  0  0  0  0  0  0  0  0
    9.5313  -17.1710   20.6625 C   0  0  0  0  0  0  0  0  0  0  0  0
   10.5748  -16.5893   21.0543 O   0  0  0  0  0  0  0  0  0  0  0  0
    8.3276  -16.8881   21.3560 N   0  0  0  0  0  0  0  0  0  0  0  0
    8.3478  -16.0509   22.5078 C   0  0  1  0  0  0  0  0  0  0  0  0
    7.0039  -15.4381   22.8259 C   0  0  0  0  0  0  0  0  0  0  0  0
    7.0107  -14.5434   23.9954 C   0  0  0  0  0  0  0  0  0  0  0  0
    6.4069  -14.9524   25.1641 C   0  0  0  0  0  0  0  0  0  0  0  0
    6.3986  -14.1236   26.2876 C   0  0  0  0  0  0  0  0  0  0  0  0
    7.0022  -12.8770   26.2308 C   0  0  0  0  0  0  0  0  0  0  0  0
    7.6027  -12.4611   25.0801 C   0  0  0  0  0  0  0  0  0  0  0  0
    7.5994  -13.3030   23.9725 C   0  0  0  0  0  0  0  0  0  0  0  0
    8.8526  -16.7120   23.7245 C   0  0  0  0  0  0  0  0  0  0  0  0
    8.4474  -17.8722   23.9792 O   0  0  0  0  0  0  0  0  0  0  0  0
    9.7699  -16.1346   24.6402 N   0  0  0  0  0  0  0  0  0  0  0  0
   10.5074  -16.9552   25.6132 C   0  0  1  0  0  0  0  0  0  0  0  0
   11.4500  -16.0318   26.3244 C   0  0  0  0  0  0  0  0  0  0  0  0
   10.8132  -15.1499   27.3200 C   0  0  0  0  0  0  0  0  0  0  0  0
   10.7118  -15.5746   28.6267 C   0  0  0  0  0  0  0  0  0  0  0  0
   10.1328  -14.8015   29.6139 C   0  0  0  0  0  0  0  0  0  0  0  0
    9.6339  -13.5612   29.3025 C   0  0  0  0  0  0  0  0  0  0  0  0
    9.7308  -13.1234   27.9900 C   0  0  0  0  0  0  0  0  0  0  0  0
   10.3104  -13.9044   27.0162 C   0  0  0  0  0  0  0  0  0  0  0  0
    9.5227  -17.5603   26.5419 C   0  0  0  0  0  0  0  0  0  0  0  0
    9.9224  -18.4866   27.4935 O   0  0  0  0  0  0  0  0  0  0  0  0
    8.3020  -17.2616   26.5034 O   0  0  0  0  0  0  0  0  0  0  0  0
  2  1  1  0
  3  4  1  0
  3  2  1  0
  5  4  1  0
  5  6  1  6
  7  5  1  0
  7  8  2  0
  9  7  1  0
 10  9  1  0
 10 11  1  1
 12 11  1  0
 12 17  1  0
 13 12  2  0
 14 13  1  0
 14 15  2  0
 15 16  1  0
 16 17  2  0
 18 10  1  0
 19 18  2  0
 20 18  1  0
 21 20  1  0
 21 29  1  0
 21 22  1  1
 23 22  1  0
 23 24  2  0
 25 24  1  0
 26 25  2  0
 27 28  2  0
 27 26  1  0
 28 23  1  0
 29 30  1  0
 31 29  2  0
M  END
$$$$
