MFF.pdb
     RDKit          3D

 31 32  0  0  1  0  0  0  0  0999 V2000
    8.5353  -11.8393   18.2535 C   0  0  0  0  0  0  0  0  0  0  0  0
    7.6929  -13.2768   17.5779 S   0  0  0  0  0  0  0  0  0  0  0  0
    8.0532  -14.7878   18.4945 C   0  0  0  0  0  0  0  0  0  0  0  0
    9.5446  -15.1038   18.4534 C   0  0  0  0  0  0  0  0  0  0  0  0
    9.7524  -16.2948   19.3576 C   0  0  2  0  0  0  0  0  0  0  0  0
    8.7562  -17.2770   18.9794 N   0  0  0  0  0  0  0  0  0  0  0  0
    9.6607  -15.9744   20.7803 C   0  0  0  0  0  0  0  0  0  0  0  0
   10.6392  -15.3948   21.3165 O   0  0  0  0  0  0  0  0  0  0  0  0
    8.5460  -16.2698   21.6050 N   0  0  0  0  0  0  0  0  0  0  0  0
    8.5048  -15.7931   22.9463 C   0  0  1  0  0  0  0  0  0  0  0  0
    7.1138  -15.4268   23.4088 C   0  0  0  0  0  0  0  0  0  0  0  0
    7.0827  -14.5643   24.6018 C   0  0  0  0  0  0  0  0  0  0  0  0
    7.4667  -13.2456   24.4940 C   0  0  0  0  0  0  0  0  0  0  0  0
    7.4470  -12.4062   25.6094 C   0  0  0  0  0  0  0  0  0  0  0  0
    7.0381  -12.9001   26.8384 C   0  0  0  0  0  0  0  0  0  0  0  0
    6.6560  -14.2029   26.9578 C   0  0  0  0  0  0  0  0  0  0  0  0
    6.6832  -15.0218   25.8334 C   0  0  0  0  0  0  0  0  0  0  0  0
    9.0899  -16.7185   23.9329 C   0  0  0  0  0  0  0  0  0  0  0  0
    8.8685  -17.9464   23.7968 O   0  0  0  0  0  0  0  0  0  0  0  0
    9.8919  -16.3271   25.0360 N   0  0  0  0  0  0  0  0  0  0  0  0
   10.8256  -17.2633   25.6808 C   0  0  1  0  0  0  0  0  0  0  0  0
   11.7516  -16.4347   26.5192 C   0  0  0  0  0  0  0  0  0  0  0  0
   11.0988  -15.7142   27.6279 C   0  0  0  0  0  0  0  0  0  0  0  0
   10.5411  -14.4772   27.3895 C   0  0  0  0  0  0  0  0  0  0  0  0
    9.9097  -13.7466   28.3769 C   0  0  0  0  0  0  0  0  0  0  0  0
    9.8238  -14.2539   29.6495 C   0  0  0  0  0  0  0  0  0  0  0  0
   10.3817  -15.4986   29.9009 C   0  0  0  0  0  0  0  0  0  0  0  0
   11.0081  -16.2158   28.9072 C   0  0  0  0  0  0  0  0  0  0  0  0
   10.0324  -18.2074   26.5041 C   0  0  0  0  0  0  0  0  0  0  0  0
    8.6501  -18.1102   26.5601 O   0  0  0  0  0  0  0  0  0  0  0  0
   10.5750  -19.1213   27.1759 O   0  0  0  0  0  0  0  0  0  0  0  0
  2  1  1  0
  3  4  1  0
  3  2  1  0
  5  4  1  0
  5  6  1  6
  7  5  1  0
  7  8  2  0
  9  7  1  0
 10  9  1  0
 10 11  1  1
 12 11  1  0
 12 17  1  0
 13 12  2  0
 14 13  1  0
 14 15  2  0
 15 16  1  0
 16 17  2  0
 18 10  1  0
 19 18  2  0
 20 18  1  0
 21 20  1  0
 21 29  1  0
 21 22  1  1
 23 22  1  0
 23 24  2  0
 25 24  1  0
 26 25  2  0
 27 28  2  0
 27 26  1  0
 28 23  1  0
 29 30  1  0
 31 29  2  0
M  END
$$$$
