MFF.pdb
     RDKit          3D

 31 32  0  0  1  0  0  0  0  0999 V2000
   10.5004  -22.3724   20.2804 C   0  0  0  0  0  0  0  0  0  0  0  0
   10.8285  -21.7704   18.6184 S   0  0  0  0  0  0  0  0  0  0  0  0
   10.2690  -20.0737   18.3707 C   0  0  0  0  0  0  0  0  0  0  0  0
   10.3453  -19.2827   19.6724 C   0  0  0  0  0  0  0  0  0  0  0  0
    9.6840  -17.9528   19.4016 C   0  0  2  0  0  0  0  0  0  0  0  0
   10.4673  -17.3070   18.3674 N   0  0  0  0  0  0  0  0  0  0  0  0
    9.5716  -17.1018   20.5841 C   0  0  0  0  0  0  0  0  0  0  0  0
   10.5883  -16.4538   20.9407 O   0  0  0  0  0  0  0  0  0  0  0  0
    8.3965  -16.9517   21.3630 N   0  0  0  0  0  0  0  0  0  0  0  0
    8.3964  -16.0871   22.4946 C   0  0  1  0  0  0  0  0  0  0  0  0
    7.0396  -15.4934   22.7939 C   0  0  0  0  0  0  0  0  0  0  0  0
    7.0139  -14.6123   23.9734 C   0  0  0  0  0  0  0  0  0  0  0  0
    6.5337  -15.0972   25.1702 C   0  0  0  0  0  0  0  0  0  0  0  0
    6.4978  -14.2831   26.3038 C   0  0  0  0  0  0  0  0  0  0  0  0
    6.9484  -12.9742   26.2287 C   0  0  0  0  0  0  0  0  0  0  0  0
    7.4256  -12.4830   25.0503 C   0  0  0  0  0  0  0  0  0  0  0  0
    7.4525  -13.3117   23.9331 C   0  0  0  0  0  0  0  0  0  0  0  0
    8.9098  -16.7090   23.7281 C   0  0  0  0  0  0  0  0  0  0  0  0
    8.5459  -17.8798   23.9965 O   0  0  0  0  0  0  0  0  0  0  0  0
    9.7921  -16.0824   24.6459 N   0  0  0  0  0  0  0  0  0  0  0  0
   10.6831  -16.8656   25.5157 C   0  0  1  0  0  0  0  0  0  0  0  0
   11.6217  -15.8887   26.1575 C   0  0  0  0  0  0  0  0  0  0  0  0
   11.0506  -15.1426   27.2939 C   0  0  0  0  0  0  0  0  0  0  0  0
   11.1259  -15.6834   28.5588 C   0  0  0  0  0  0  0  0  0  0  0  0
   10.6178  -15.0406   29.6706 C   0  0  0  0  0  0  0  0  0  0  0  0
   10.0115  -13.8170   29.5318 C   0  0  0  0  0  0  0  0  0  0  0  0
    9.9302  -13.2630   28.2629 C   0  0  0  0  0  0  0  0  0  0  0  0
   10.4409  -13.9147   27.1636 C   0  0  0  0  0  0  0  0  0  0  0  0
    9.8452  -17.5655   26.5188 C   0  0  0  0  0  0  0  0  0  0  0  0
   10.4049  -18.4879   27.3902 O   0  0  0  0  0  0  0  0  0  0  0  0
    8.6098  -17.3534   26.6172 O   0  0  0  0  0  0  0  0  0  0  0  0
  2  1  1  0
  3  4  1  0
  3  2  1  0
  5  4  1  0
  5  6  1  6
  7  5  1  0
  7  8  2  0
  9  7  1  0
 10  9  1  0
 10 11  1  1
 12 11  1  0
 12 17  1  0
 13 12  2  0
 14 13  1  0
 14 15  2  0
 15 16  1  0
 16 17  2  0
 18 10  1  0
 19 18  2  0
 20 18  1  0
 21 20  1  0
 21 29  1  0
 21 22  1  1
 23 22  1  0
 23 24  2  0
 25 24  1  0
 26 25  2  0
 27 28  2  0
 27 26  1  0
 28 23  1  0
 29 30  1  0
 31 29  2  0
M  END
$$$$
