MFF.pdb
     RDKit          3D

 31 32  0  0  1  0  0  0  0  0999 V2000
    8.3486  -22.3317   21.7959 C   0  0  0  0  0  0  0  0  0  0  0  0
    6.6483  -22.7546   21.3928 S   0  0  0  0  0  0  0  0  0  0  0  0
    5.4708  -21.5087   21.9534 C   0  0  0  0  0  0  0  0  0  0  0  0
    6.1686  -20.1747   22.1976 C   0  0  0  0  0  0  0  0  0  0  0  0
    5.1140  -19.2335   22.7276 C   0  0  2  0  0  0  0  0  0  0  0  0
    4.1629  -19.0340   21.6526 N   0  0  0  0  0  0  0  0  0  0  0  0
    5.6492  -17.9581   23.1991 C   0  0  0  0  0  0  0  0  0  0  0  0
    5.7798  -17.0299   22.3612 O   0  0  0  0  0  0  0  0  0  0  0  0
    6.0340  -17.6881   24.5366 N   0  0  0  0  0  0  0  0  0  0  0  0
    6.7013  -16.4711   24.8549 C   0  0  1  0  0  0  0  0  0  0  0  0
    6.5992  -16.0968   26.3152 C   0  0  0  0  0  0  0  0  0  0  0  0
    7.0110  -14.7150   26.6138 C   0  0  0  0  0  0  0  0  0  0  0  0
    8.2713  -14.4781   27.1174 C   0  0  0  0  0  0  0  0  0  0  0  0
    8.6870  -13.1777   27.4095 C   0  0  0  0  0  0  0  0  0  0  0  0
    7.8270  -12.1124   27.1924 C   0  0  0  0  0  0  0  0  0  0  0  0
    6.5777  -12.3341   26.6947 C   0  0  0  0  0  0  0  0  0  0  0  0
    6.1839  -13.6378   26.4105 C   0  0  0  0  0  0  0  0  0  0  0  0
    8.1239  -16.4456   24.4709 C   0  0  0  0  0  0  0  0  0  0  0  0
    8.8030  -17.4866   24.6457 O   0  0  0  0  0  0  0  0  0  0  0  0
    8.7937  -15.3258   23.9135 N   0  0  0  0  0  0  0  0  0  0  0  0
   10.1236  -15.4512   23.2973 C   0  0  1  0  0  0  0  0  0  0  0  0
   10.2510  -14.3211   22.3208 C   0  0  0  0  0  0  0  0  0  0  0  0
    9.1248  -14.1930   21.3777 C   0  0  0  0  0  0  0  0  0  0  0  0
    9.0368  -15.0640   20.3138 C   0  0  0  0  0  0  0  0  0  0  0  0
    8.0086  -15.0074   19.3934 C   0  0  0  0  0  0  0  0  0  0  0  0
    7.0281  -14.0560   19.5256 C   0  0  0  0  0  0  0  0  0  0  0  0
    7.1066  -13.1739   20.5931 C   0  0  0  0  0  0  0  0  0  0  0  0
    8.1370  -13.2417   21.5030 C   0  0  0  0  0  0  0  0  0  0  0  0
   11.1380  -15.3656   24.3751 C   0  0  0  0  0  0  0  0  0  0  0  0
   10.7570  -15.1547   25.6918 O   0  0  0  0  0  0  0  0  0  0  0  0
   12.3681  -15.4790   24.1406 O   0  0  0  0  0  0  0  0  0  0  0  0
  2  1  1  0
  3  4  1  0
  3  2  1  0
  5  4  1  0
  5  6  1  6
  7  5  1  0
  7  8  2  0
  9  7  1  0
 10  9  1  0
 10 11  1  1
 12 11  1  0
 12 17  1  0
 13 12  2  0
 14 13  1  0
 14 15  2  0
 15 16  1  0
 16 17  2  0
 18 10  1  0
 19 18  2  0
 20 18  1  0
 21 20  1  0
 21 29  1  0
 21 22  1  6
 23 22  1  0
 23 24  2  0
 25 24  1  0
 26 25  2  0
 27 28  2  0
 27 26  1  0
 28 23  1  0
 29 30  1  0
 31 29  2  0
M  END
$$$$
