MFF.pdb
     RDKit          3D

 31 32  0  0  1  0  0  0  0  0999 V2000
   12.9330  -21.1053   20.0122 C   0  0  0  0  0  0  0  0  0  0  0  0
   12.1086  -20.9683   18.4204 S   0  0  0  0  0  0  0  0  0  0  0  0
   11.2272  -19.4067   18.2264 C   0  0  0  0  0  0  0  0  0  0  0  0
   11.2119  -18.6268   19.5370 C   0  0  0  0  0  0  0  0  0  0  0  0
   10.4202  -17.3685   19.2742 C   0  0  2  0  0  0  0  0  0  0  0  0
   11.1916  -16.5872   18.3284 N   0  0  0  0  0  0  0  0  0  0  0  0
   10.1290  -16.5959   20.4798 C   0  0  0  0  0  0  0  0  0  0  0  0
   11.0324  -15.8464   20.9300 O   0  0  0  0  0  0  0  0  0  0  0  0
    8.8983  -16.6287   21.1830 N   0  0  0  0  0  0  0  0  0  0  0  0
    8.7474  -15.8905   22.3914 C   0  0  1  0  0  0  0  0  0  0  0  0
    7.3326  -15.4176   22.6311 C   0  0  0  0  0  0  0  0  0  0  0  0
    7.1603  -14.6315   23.8643 C   0  0  0  0  0  0  0  0  0  0  0  0
    6.5444  -15.2077   24.9536 C   0  0  0  0  0  0  0  0  0  0  0  0
    6.3679  -14.4848   26.1349 C   0  0  0  0  0  0  0  0  0  0  0  0
    6.8149  -13.1751   26.2166 C   0  0  0  0  0  0  0  0  0  0  0  0
    7.4256  -12.5942   25.1455 C   0  0  0  0  0  0  0  0  0  0  0  0
    7.5913  -13.3327   23.9782 C   0  0  0  0  0  0  0  0  0  0  0  0
    9.2045  -16.6063   23.5959 C   0  0  0  0  0  0  0  0  0  0  0  0
    8.8228  -17.7905   23.7612 O   0  0  0  0  0  0  0  0  0  0  0  0
   10.0506  -16.0571   24.5937 N   0  0  0  0  0  0  0  0  0  0  0  0
   10.7741  -16.9125   25.5471 C   0  0  1  0  0  0  0  0  0  0  0  0
   11.8220  -16.0510   26.1849 C   0  0  0  0  0  0  0  0  0  0  0  0
   11.3129  -15.1187   27.2077 C   0  0  0  0  0  0  0  0  0  0  0  0
   10.9933  -13.8294   26.8422 C   0  0  0  0  0  0  0  0  0  0  0  0
   10.5072  -12.9029   27.7436 C   0  0  0  0  0  0  0  0  0  0  0  0
   10.3283  -13.2597   29.0570 C   0  0  0  0  0  0  0  0  0  0  0  0
   10.6466  -14.5553   29.4361 C   0  0  0  0  0  0  0  0  0  0  0  0
   11.1303  -15.4684   28.5271 C   0  0  0  0  0  0  0  0  0  0  0  0
    9.7974  -17.4195   26.5406 C   0  0  0  0  0  0  0  0  0  0  0  0
    8.4719  -17.0135   26.5022 O   0  0  0  0  0  0  0  0  0  0  0  0
   10.1284  -18.2268   27.4459 O   0  0  0  0  0  0  0  0  0  0  0  0
  2  1  1  0
  3  4  1  0
  3  2  1  0
  5  4  1  0
  5  6  1  6
  7  5  1  0
  7  8  2  0
  9  7  1  0
 10  9  1  0
 10 11  1  1
 12 11  1  0
 12 17  1  0
 13 12  2  0
 14 13  1  0
 14 15  2  0
 15 16  1  0
 16 17  2  0
 18 10  1  0
 19 18  2  0
 20 18  1  0
 21 20  1  0
 21 29  1  0
 21 22  1  1
 23 22  1  0
 23 24  2  0
 25 24  1  0
 26 25  2  0
 27 28  2  0
 27 26  1  0
 28 23  1  0
 29 30  1  0
 31 29  2  0
M  END
$$$$
