LCD.pdb
     RDKit          3D

 23 22  0  0  1  0  0  0  0  0999 V2000
   21.4786   -9.1457  -12.0432 C   0  0  0  0  0  0  0  0  0  0  0  0
   20.7261   -8.7712  -13.3185 C   0  0  2  0  0  0  0  0  0  0  0  0
   21.5998   -7.8863  -14.1793 C   0  0  0  0  0  0  0  0  0  0  0  0
   19.3840   -8.1762  -12.9971 C   0  0  0  0  0  0  0  0  0  0  0  0
   18.5694   -9.1095  -12.1836 C   0  0  2  0  0  0  0  0  0  0  0  0
   18.2912  -10.3134  -12.8965 N   0  0  0  0  0  0  0  0  0  0  0  0
   17.3054   -8.4760  -11.6819 C   0  0  0  0  0  0  0  0  0  0  0  0
   16.4044   -8.1907  -12.5101 O   0  0  0  0  0  0  0  0  0  0  0  0
   17.1031   -8.1936  -10.3136 N   0  0  0  0  0  0  0  0  0  0  0  0
   15.8262   -7.6256   -9.8265 C   0  0  1  0  0  0  0  0  0  0  0  0
   15.3737   -8.4510   -8.6201 C   0  0  0  0  0  0  0  0  0  0  0  0
   13.6637   -8.1290   -8.2249 S   0  0  0  0  0  0  0  0  0  0  0  0
   16.1454   -6.2416   -9.3936 C   0  0  0  0  0  0  0  0  0  0  0  0
   17.1081   -6.0135   -8.5726 O   0  0  0  0  0  0  0  0  0  0  0  0
   15.4269   -5.1003   -9.8481 N   0  0  0  0  0  0  0  0  0  0  0  0
   15.7681   -3.7718   -9.3277 C   0  0  1  0  0  0  0  0  0  0  0  0
   16.1059   -2.8763  -10.4839 C   0  0  0  0  0  0  0  0  0  0  0  0
   16.3414   -1.4906  -10.0370 C   0  0  0  0  0  0  0  0  0  0  0  0
   16.3280   -1.2406   -8.8088 O   0  0  0  0  0  0  0  0  0  0  0  0
   14.7112   -3.2610   -8.4419 C   0  0  0  0  0  0  0  0  0  0  0  0
   14.9659   -2.2021   -7.5940 O   0  0  0  0  0  0  0  0  0  0  0  0
   16.5786   -0.4436  -10.9143 O   0  0  0  0  0  0  0  0  0  0  0  0
   13.5781   -3.7772   -8.4475 O   0  0  0  0  0  0  0  0  0  0  0  0
  2  1  1  1
  2  3  1  0
  4  2  1  0
  4  5  1  0
  5  7  1  0
  5  6  1  6
  7  8  2  0
  9  7  1  0
  9 10  1  0
 10 11  1  1
 12 11  1  0
 13 14  2  0
 13 10  1  0
 15 13  1  0
 16 15  1  0
 16 17  1  6
 17 18  1  0
 18 19  2  0
 18 22  1  0
 20 16  1  0
 21 20  1  0
 23 20  2  0
M  END
$$$$
