LCD.pdb
     RDKit          3D

 23 22  0  0  1  0  0  0  0  0999 V2000
   18.8469  -12.8391  -17.6492 C   0  0  0  0  0  0  0  0  0  0  0  0
   17.3688  -13.1970  -17.5076 C   0  0  2  0  0  0  0  0  0  0  0  0
   16.7523  -13.3501  -18.8802 C   0  0  0  0  0  0  0  0  0  0  0  0
   16.6574  -12.2096  -16.6260 C   0  0  0  0  0  0  0  0  0  0  0  0
   17.2958  -12.1322  -15.2908 C   0  0  2  0  0  0  0  0  0  0  0  0
   17.3746  -13.4176  -14.6772 N   0  0  0  0  0  0  0  0  0  0  0  0
   16.6156  -11.1453  -14.3887 C   0  0  0  0  0  0  0  0  0  0  0  0
   16.4062   -9.9824  -14.8165 O   0  0  0  0  0  0  0  0  0  0  0  0
   16.2078  -11.4861  -13.0808 N   0  0  0  0  0  0  0  0  0  0  0  0
   15.5771  -10.4885  -12.1877 C   0  0  1  0  0  0  0  0  0  0  0  0
   14.8503  -11.2462  -11.0746 C   0  0  0  0  0  0  0  0  0  0  0  0
   14.2388  -10.1266   -9.8271 S   0  0  0  0  0  0  0  0  0  0  0  0
   16.6988   -9.7060  -11.6096 C   0  0  0  0  0  0  0  0  0  0  0  0
   17.8803  -10.2069  -11.5316 O   0  0  0  0  0  0  0  0  0  0  0  0
   16.5475   -8.3796  -11.1162 N   0  0  0  0  0  0  0  0  0  0  0  0
   17.7303   -7.6225  -10.6924 C   0  0  1  0  0  0  0  0  0  0  0  0
   18.6453   -7.4631  -11.8715 C   0  0  0  0  0  0  0  0  0  0  0  0
   19.8380   -6.6695  -11.5204 C   0  0  0  0  0  0  0  0  0  0  0  0
   20.0531   -6.4019  -10.3150 O   0  0  0  0  0  0  0  0  0  0  0  0
   17.3477   -6.3635  -10.0357 C   0  0  0  0  0  0  0  0  0  0  0  0
   16.3333   -5.5869  -10.5581 O   0  0  0  0  0  0  0  0  0  0  0  0
   20.7391   -6.2017  -12.4645 O   0  0  0  0  0  0  0  0  0  0  0  0
   17.9335   -5.9859   -9.0038 O   0  0  0  0  0  0  0  0  0  0  0  0
  2  1  1  6
  2  3  1  0
  4  2  1  0
  4  5  1  0
  5  7  1  0
  5  6  1  1
  7  8  2  0
  9  7  1  0
  9 10  1  0
 10 11  1  1
 12 11  1  0
 13 14  2  0
 13 10  1  0
 15 13  1  0
 16 15  1  0
 16 17  1  6
 17 18  1  0
 18 19  2  0
 18 22  1  0
 20 16  1  0
 21 20  1  0
 23 20  2  0
M  END
$$$$
