LCD.pdb
     RDKit          3D

 23 22  0  0  1  0  0  0  0  0999 V2000
   36.1334  -13.0740   -6.9125 C   0  0  0  0  0  0  0  0  0  0  0  0
   36.8634  -11.9683   -7.6722 C   0  0  2  0  0  0  0  0  0  0  0  0
   37.4265  -12.5270   -8.9599 C   0  0  0  0  0  0  0  0  0  0  0  0
   37.8869  -11.2994   -6.7983 C   0  0  0  0  0  0  0  0  0  0  0  0
   38.3328  -10.0153   -7.3886 C   0  0  2  0  0  0  0  0  0  0  0  0
   38.2836  -10.0537   -8.8139 N   0  0  0  0  0  0  0  0  0  0  0  0
   39.6939   -9.6074   -6.9073 C   0  0  0  0  0  0  0  0  0  0  0  0
   39.9690   -9.7465   -5.6891 O   0  0  0  0  0  0  0  0  0  0  0  0
   40.6667   -9.0746   -7.7807 N   0  0  0  0  0  0  0  0  0  0  0  0
   41.9769   -8.6050   -7.2775 C   0  0  1  0  0  0  0  0  0  0  0  0
   42.9802   -8.6861   -8.4298 C   0  0  0  0  0  0  0  0  0  0  0  0
   43.2600  -10.3783   -8.9217 S   0  0  0  0  0  0  0  0  0  0  0  0
   41.7704   -7.1855   -6.8935 C   0  0  0  0  0  0  0  0  0  0  0  0
   40.9111   -6.4544   -7.5101 O   0  0  0  0  0  0  0  0  0  0  0  0
   42.4902   -6.5528   -5.8414 N   0  0  0  0  0  0  0  0  0  0  0  0
   42.2093   -5.1520   -5.5084 C   0  0  1  0  0  0  0  0  0  0  0  0
   42.3475   -4.9750   -4.0244 C   0  0  0  0  0  0  0  0  0  0  0  0
   41.9840   -3.6062   -3.6121 C   0  0  0  0  0  0  0  0  0  0  0  0
   41.4543   -3.4334   -2.4893 O   0  0  0  0  0  0  0  0  0  0  0  0
   43.0316   -4.2389   -6.3164 C   0  0  0  0  0  0  0  0  0  0  0  0
   42.4698   -3.1107   -6.8790 O   0  0  0  0  0  0  0  0  0  0  0  0
   42.2007   -2.4938   -4.4106 O   0  0  0  0  0  0  0  0  0  0  0  0
   44.2404   -4.4736   -6.5010 O   0  0  0  0  0  0  0  0  0  0  0  0
  2  1  1  1
  2  3  1  0
  4  2  1  0
  4  5  1  0
  5  7  1  0
  5  6  1  6
  7  8  2  0
  9  7  1  0
  9 10  1  0
 10 11  1  6
 12 11  1  0
 13 14  2  0
 13 10  1  0
 15 13  1  0
 16 15  1  0
 16 17  1  1
 17 18  1  0
 18 19  2  0
 18 22  1  0
 20 16  1  0
 21 20  1  0
 23 20  2  0
M  END
$$$$
