LCD.pdb
     RDKit          3D

 23 22  0  0  1  0  0  0  0  0999 V2000
   11.8886   -9.8770  -10.9898 C   0  0  0  0  0  0  0  0  0  0  0  0
   12.6419  -10.2134   -9.7044 C   0  0  2  0  0  0  0  0  0  0  0  0
   11.8757   -9.6788   -8.5151 C   0  0  0  0  0  0  0  0  0  0  0  0
   14.0665   -9.7401   -9.7752 C   0  0  0  0  0  0  0  0  0  0  0  0
   14.7328  -10.2400  -11.0009 C   0  0  2  0  0  0  0  0  0  0  0  0
   15.1235  -11.6048  -10.8602 N   0  0  0  0  0  0  0  0  0  0  0  0
   15.8970   -9.3855  -11.4073 C   0  0  0  0  0  0  0  0  0  0  0  0
   16.7638   -9.0979  -10.5440 O   0  0  0  0  0  0  0  0  0  0  0  0
   16.0432   -8.8991  -12.7244 N   0  0  0  0  0  0  0  0  0  0  0  0
   17.1629   -8.0046  -13.0938 C   0  0  1  0  0  0  0  0  0  0  0  0
   17.9529   -8.6788  -14.2176 C   0  0  0  0  0  0  0  0  0  0  0  0
   19.6599   -8.1596  -14.2054 S   0  0  0  0  0  0  0  0  0  0  0  0
   16.5289   -6.7627  -13.6040 C   0  0  0  0  0  0  0  0  0  0  0  0
   15.5192   -6.8166  -14.3981 O   0  0  0  0  0  0  0  0  0  0  0  0
   16.9828   -5.4594  -13.2562 N   0  0  0  0  0  0  0  0  0  0  0  0
   16.4189   -4.2879  -13.9359 C   0  0  1  0  0  0  0  0  0  0  0  0
   15.7178   -3.4352  -12.9191 C   0  0  0  0  0  0  0  0  0  0  0  0
   15.1860   -2.2021  -13.5293 C   0  0  0  0  0  0  0  0  0  0  0  0
   15.1572   -2.1095  -14.7790 O   0  0  0  0  0  0  0  0  0  0  0  0
   17.4433   -3.5878  -14.7252 C   0  0  0  0  0  0  0  0  0  0  0  0
   18.7645   -3.9811  -14.6549 O   0  0  0  0  0  0  0  0  0  0  0  0
   14.7132   -1.1331  -12.7838 O   0  0  0  0  0  0  0  0  0  0  0  0
   17.1303   -2.6351  -15.4633 O   0  0  0  0  0  0  0  0  0  0  0  0
  2  1  1  6
  2  3  1  0
  4  2  1  0
  4  5  1  0
  5  7  1  0
  5  6  1  1
  7  8  2  0
  9  7  1  0
  9 10  1  0
 10 11  1  6
 12 11  1  0
 13 14  2  0
 13 10  1  0
 15 13  1  0
 16 15  1  0
 16 17  1  1
 17 18  1  0
 18 19  2  0
 18 22  1  0
 20 16  1  0
 21 20  1  0
 23 20  2  0
M  END
$$$$
