LCD.pdb
     RDKit          3D

 23 22  0  0  1  0  0  0  0  0999 V2000
   20.2879  -10.3642  -18.8699 C   0  0  0  0  0  0  0  0  0  0  0  0
   19.5791  -11.1468  -17.7663 C   0  0  2  0  0  0  0  0  0  0  0  0
   18.2688  -11.6885  -18.2927 C   0  0  0  0  0  0  0  0  0  0  0  0
   19.4399  -10.3166  -16.5213 C   0  0  0  0  0  0  0  0  0  0  0  0
   20.7543   -9.7907  -16.0830 C   0  0  2  0  0  0  0  0  0  0  0  0
   21.5542  -10.8153  -15.4952 N   0  0  0  0  0  0  0  0  0  0  0  0
   20.6204   -8.6156  -15.1601 C   0  0  0  0  0  0  0  0  0  0  0  0
   20.0302   -8.7757  -14.0622 O   0  0  0  0  0  0  0  0  0  0  0  0
   21.1359   -7.3435  -15.4902 N   0  0  0  0  0  0  0  0  0  0  0  0
   21.0946   -6.2229  -14.5244 C   0  0  1  0  0  0  0  0  0  0  0  0
   22.5319   -5.7571  -14.2822 C   0  0  0  0  0  0  0  0  0  0  0  0
   22.5690   -4.2697  -13.2971 S   0  0  0  0  0  0  0  0  0  0  0  0
   20.3267   -5.1450  -15.1975 C   0  0  0  0  0  0  0  0  0  0  0  0
   20.5830   -4.8138  -16.4131 O   0  0  0  0  0  0  0  0  0  0  0  0
   19.2785   -4.4236  -14.5600 N   0  0  0  0  0  0  0  0  0  0  0  0
   18.5808   -3.3590  -15.2894 C   0  0  1  0  0  0  0  0  0  0  0  0
   17.1246   -3.4059  -14.9289 C   0  0  0  0  0  0  0  0  0  0  0  0
   16.3483   -2.4221  -15.7068 C   0  0  0  0  0  0  0  0  0  0  0  0
   16.7241   -2.1370  -16.8681 O   0  0  0  0  0  0  0  0  0  0  0  0
   19.2267   -2.0557  -15.0729 C   0  0  0  0  0  0  0  0  0  0  0  0
   19.1006   -1.0525  -16.0125 O   0  0  0  0  0  0  0  0  0  0  0  0
   15.2157   -1.7929  -15.2136 O   0  0  0  0  0  0  0  0  0  0  0  0
   19.8924   -1.8440  -14.0422 O   0  0  0  0  0  0  0  0  0  0  0  0
  2  1  1  6
  2  3  1  0
  4  2  1  0
  4  5  1  0
  5  7  1  0
  5  6  1  1
  7  8  2  0
  9  7  1  0
  9 10  1  0
 10 11  1  6
 12 11  1  0
 13 14  2  0
 13 10  1  0
 15 13  1  0
 16 15  1  0
 16 17  1  1
 17 18  1  0
 18 19  2  0
 18 22  1  0
 20 16  1  0
 21 20  1  0
 23 20  2  0
M  END
$$$$
