LCD.pdb
     RDKit          3D

 23 22  0  0  1  0  0  0  0  0999 V2000
   25.8595  -14.0201  -14.7239 C   0  0  0  0  0  0  0  0  0  0  0  0
   25.6268  -13.9792  -16.2329 C   0  0  2  0  0  0  0  0  0  0  0  0
   26.9584  -13.9882  -16.9498 C   0  0  0  0  0  0  0  0  0  0  0  0
   24.7386  -12.8270  -16.6101 C   0  0  0  0  0  0  0  0  0  0  0  0
   23.4413  -12.9001  -15.8975 C   0  0  2  0  0  0  0  0  0  0  0  0
   22.7727  -14.1326  -16.1602 N   0  0  0  0  0  0  0  0  0  0  0  0
   22.5542  -11.7299  -16.2046 C   0  0  0  0  0  0  0  0  0  0  0  0
   22.1868  -11.5475  -17.3925 O   0  0  0  0  0  0  0  0  0  0  0  0
   22.1247  -10.8342  -15.2015 N   0  0  0  0  0  0  0  0  0  0  0  0
   21.2030   -9.7182  -15.5106 C   0  0  1  0  0  0  0  0  0  0  0  0
   19.9172   -9.9342  -14.7097 C   0  0  0  0  0  0  0  0  0  0  0  0
   19.1472  -11.4866  -15.1349 S   0  0  0  0  0  0  0  0  0  0  0  0
   21.8891   -8.4911  -15.0330 C   0  0  0  0  0  0  0  0  0  0  0  0
   22.6262   -8.5158  -13.9799 O   0  0  0  0  0  0  0  0  0  0  0  0
   21.7824   -7.2346  -15.6929 N   0  0  0  0  0  0  0  0  0  0  0  0
   22.5203   -6.0770  -15.1757 C   0  0  1  0  0  0  0  0  0  0  0  0
   22.6099   -5.0425  -16.2594 C   0  0  0  0  0  0  0  0  0  0  0  0
   23.2916   -5.5757  -17.4538 C   0  0  0  0  0  0  0  0  0  0  0  0
   24.3021   -6.3011  -17.3001 O   0  0  0  0  0  0  0  0  0  0  0  0
   21.9383   -5.5971  -13.9133 C   0  0  0  0  0  0  0  0  0  0  0  0
   20.7449   -6.1178  -13.4555 O   0  0  0  0  0  0  0  0  0  0  0  0
   22.8669   -5.3124  -18.7470 O   0  0  0  0  0  0  0  0  0  0  0  0
   22.5147   -4.7180  -13.2459 O   0  0  0  0  0  0  0  0  0  0  0  0
  2  1  1  1
  2  3  1  0
  4  2  1  0
  4  5  1  0
  5  7  1  0
  5  6  1  6
  7  8  2  0
  9  7  1  0
  9 10  1  0
 10 11  1  1
 12 11  1  0
 13 14  2  0
 13 10  1  0
 15 13  1  0
 16 15  1  0
 16 17  1  6
 17 18  1  0
 18 19  2  0
 18 22  1  0
 20 16  1  0
 21 20  1  0
 23 20  2  0
M  END
$$$$
