LCD.pdb
     RDKit          3D

 23 22  0  0  1  0  0  0  0  0999 V2000
   24.4925  -21.1298   -8.9599 C   0  0  0  0  0  0  0  0  0  0  0  0
   25.9835  -20.8838   -9.1821 C   0  0  2  0  0  0  0  0  0  0  0  0
   26.5998  -20.3367   -7.9139 C   0  0  0  0  0  0  0  0  0  0  0  0
   26.2130  -20.0231  -10.3925 C   0  0  0  0  0  0  0  0  0  0  0  0
   25.6681  -20.6645  -11.6123 C   0  0  2  0  0  0  0  0  0  0  0  0
   26.2383  -21.9556  -11.8196 N   0  0  0  0  0  0  0  0  0  0  0  0
   25.8274  -19.8033  -12.8304 C   0  0  0  0  0  0  0  0  0  0  0  0
   25.3986  -18.6226  -12.7940 O   0  0  0  0  0  0  0  0  0  0  0  0
   26.4415  -20.2811  -14.0083 N   0  0  0  0  0  0  0  0  0  0  0  0
   26.6110  -19.4118  -15.1940 C   0  0  1  0  0  0  0  0  0  0  0  0
   27.9650  -19.7384  -15.8274 C   0  0  0  0  0  0  0  0  0  0  0  0
   28.1850  -18.8598  -17.3648 S   0  0  0  0  0  0  0  0  0  0  0  0
   25.5189  -19.7915  -16.1255 C   0  0  0  0  0  0  0  0  0  0  0  0
   25.0991  -21.0051  -16.1891 O   0  0  0  0  0  0  0  0  0  0  0  0
   24.8760  -18.8609  -16.9893 N   0  0  0  0  0  0  0  0  0  0  0  0
   23.4786  -19.0774  -17.3802 C   0  0  1  0  0  0  0  0  0  0  0  0
   22.6439  -19.1817  -16.1371 C   0  0  0  0  0  0  0  0  0  0  0  0
   21.2182  -19.3720  -16.4638 C   0  0  0  0  0  0  0  0  0  0  0  0
   20.9148  -20.0203  -17.4928 O   0  0  0  0  0  0  0  0  0  0  0  0
   23.0308  -18.0556  -18.3383 C   0  0  0  0  0  0  0  0  0  0  0  0
   22.1308  -18.3816  -19.3327 O   0  0  0  0  0  0  0  0  0  0  0  0
   20.1901  -18.8659  -15.6836 O   0  0  0  0  0  0  0  0  0  0  0  0
   23.4578  -16.8884  -18.2626 O   0  0  0  0  0  0  0  0  0  0  0  0
  2  1  1  1
  2  3  1  0
  4  2  1  0
  4  5  1  0
  5  7  1  0
  5  6  1  6
  7  8  2  0
  9  7  1  0
  9 10  1  0
 10 11  1  6
 12 11  1  0
 13 14  2  0
 13 10  1  0
 15 13  1  0
 16 15  1  0
 16 17  1  1
 17 18  1  0
 18 19  2  0
 18 22  1  0
 20 16  1  0
 21 20  1  0
 23 20  2  0
M  END
$$$$
