RRR.pdb
     RDKit          3D

 34 33  0  0  1  0  0  0  0  0999 V2000
   30.1813  -25.8616  -23.3336 N   0  0  0  0  0  0  0  0  0  0  0  0
   29.9870  -24.9399  -22.2821 C   0  0  0  0  0  0  0  0  0  0  0  0
   28.8038  -24.7889  -21.8233 N   0  0  0  0  0  0  0  0  0  0  0  0
   31.0451  -24.1776  -21.7147 N   0  0  0  0  0  0  0  0  0  0  0  0
   30.7499  -23.0754  -20.8241 C   0  0  0  0  0  0  0  0  0  0  0  0
   30.7442  -23.5835  -19.4019 C   0  0  0  0  0  0  0  0  0  0  0  0
   30.5176  -22.4940  -18.4147 C   0  0  0  0  0  0  0  0  0  0  0  0
   30.5440  -23.0545  -17.0133 C   0  0  2  0  0  0  0  0  0  0  0  0
   30.8047  -24.4831  -17.1710 N   0  0  0  0  0  0  0  0  0  0  0  0
   29.2330  -22.8389  -16.3394 C   0  0  0  0  0  0  0  0  0  0  0  0
   28.4009  -23.7774  -16.3457 O   0  0  0  0  0  0  0  0  0  0  0  0
   28.5103  -24.1570  -21.0747 N   0  0  0  0  0  0  0  0  0  0  0  0
   26.3498  -21.3695  -10.1222 C   0  0  0  0  0  0  0  0  0  0  0  0
   25.5191  -20.2130  -10.4028 N   0  0  0  0  0  0  0  0  0  0  0  0
   24.2993  -20.1884  -10.0547 N   0  0  0  0  0  0  0  0  0  0  0  0
   26.0560  -19.0912  -11.0723 C   0  0  0  0  0  0  0  0  0  0  0  0
   26.5248  -19.0153  -12.3852 C   0  0  0  0  0  0  0  0  0  0  0  0
   26.3149  -20.1300  -13.3386 C   0  0  0  0  0  0  0  0  0  0  0  0
   27.6975  -20.3514  -13.9838 C   0  0  1  0  0  0  0  0  0  0  0  0
   27.6545  -21.4263  -15.0378 N   0  0  0  0  0  0  0  0  0  0  0  0
   28.9003  -21.6222  -15.6965 C   0  0  0  0  0  0  0  0  0  0  0  0
   26.5691  -21.2804  -16.0173 O   0  0  0  0  0  0  0  0  0  0  0  0
   26.8710  -21.0493  -17.2201 N   0  0  0  0  0  0  0  0  0  0  0  0
   23.6546  -19.4384  -10.2179 C   0  0  0  0  0  0  0  0  0  0  0  0
   26.9499  -27.3113  -17.4905 N   0  0  0  0  0  0  0  0  0  0  0  0
   25.5160  -27.2057  -17.3639 N   0  0  0  0  0  0  0  0  0  0  0  0
   24.8304  -28.1534  -16.8242 C   0  0  0  0  0  0  0  0  0  0  0  0
   24.8323  -26.0577  -17.8297 C   0  0  0  0  0  0  0  0  0  0  0  0
   25.5007  -25.0741  -18.7322 C   0  0  0  0  0  0  0  0  0  0  0  0
   24.9083  -23.7687  -18.3907 C   0  0  1  0  0  0  0  0  0  0  0  0
   24.7798  -23.2592  -17.0465 N   0  0  0  0  0  0  0  0  0  0  0  0
   24.2464  -21.9151  -16.7212 C   0  0  0  0  0  0  0  0  0  0  0  0
   25.2040  -21.3834  -15.6889 O   0  0  0  0  0  0  0  0  0  0  0  0
   22.9409  -21.9246  -16.0502 O   0  0  0  0  0  0  0  0  0  0  0  0
  1  2  1  0
  2  3  2  0
  4  2  1  0
  5  4  1  0
  6  5  1  0
  7  6  1  0
  8  7  1  0
  8  9  1  6
 10 20  1  0
 10  8  1  0
 11 10  2  0
 13 12  1  0
 14 13  2  0
 15 13  1  0
 16 15  1  0
 17 16  1  0
 17 18  1  0
 19 18  1  1
 19 20  1  0
 21 31  1  0
 21 19  1  0
 22 21  2  0
 23 24  1  0
 24 25  2  0
 26 27  1  0
 26 24  1  0
 27 28  1  0
 28 29  1  0
 30 29  1  1
 30 31  1  0
 30 32  1  0
 32 33  1  0
 34 32  2  0
M  END
$$$$
