RRR.pdb
     RDKit          3D

 34 33  0  0  1  0  0  0  0  0999 V2000
   21.4763  -23.2842  -16.0669 N   0  0  0  0  0  0  0  0  0  0  0  0
   21.6641  -21.9245  -15.7368 C   0  0  0  0  0  0  0  0  0  0  0  0
   20.7545  -21.3376  -15.0575 N   0  0  0  0  0  0  0  0  0  0  0  0
   22.8151  -21.1849  -16.1250 N   0  0  0  0  0  0  0  0  0  0  0  0
   23.6158  -21.6236  -17.2482 C   0  0  0  0  0  0  0  0  0  0  0  0
   24.5663  -22.7002  -16.7807 C   0  0  0  0  0  0  0  0  0  0  0  0
   25.9616  -22.2017  -16.6478 C   0  0  0  0  0  0  0  0  0  0  0  0
   26.6459  -22.8877  -15.4903 C   0  0  2  0  0  0  0  0  0  0  0  0
   26.7030  -24.3011  -15.8548 N   0  0  0  0  0  0  0  0  0  0  0  0
   25.8603  -22.7077  -14.2373 C   0  0  0  0  0  0  0  0  0  0  0  0
   25.1125  -23.6436  -13.8660 O   0  0  0  0  0  0  0  0  0  0  0  0
   20.8022  -20.4038  -14.6433 N   0  0  0  0  0  0  0  0  0  0  0  0
   27.8410  -18.0852   -7.0848 C   0  0  0  0  0  0  0  0  0  0  0  0
   27.7392  -19.5318   -7.1434 N   0  0  0  0  0  0  0  0  0  0  0  0
   28.3981  -20.2632   -6.3430 N   0  0  0  0  0  0  0  0  0  0  0  0
   26.9029  -20.1527   -8.0972 C   0  0  0  0  0  0  0  0  0  0  0  0
   26.0810  -19.5437   -9.0476 C   0  0  0  0  0  0  0  0  0  0  0  0
   25.1923  -20.3479   -9.9189 C   0  0  0  0  0  0  0  0  0  0  0  0
   25.9863  -20.5163  -11.2296 C   0  0  1  0  0  0  0  0  0  0  0  0
   25.2600  -21.3975  -12.2115 N   0  0  0  0  0  0  0  0  0  0  0  0
   25.9318  -21.5272  -13.4589 C   0  0  0  0  0  0  0  0  0  0  0  0
   23.8477  -21.0492  -12.4185 O   0  0  0  0  0  0  0  0  0  0  0  0
   23.5659  -20.1546  -13.2621 N   0  0  0  0  0  0  0  0  0  0  0  0
   28.4185  -21.2654   -6.3410 C   0  0  0  0  0  0  0  0  0  0  0  0
   16.6656  -25.2068   -9.3404 N   0  0  0  0  0  0  0  0  0  0  0  0
   17.0978  -25.1643  -10.7169 N   0  0  0  0  0  0  0  0  0  0  0  0
   16.6954  -26.0495  -11.5617 C   0  0  0  0  0  0  0  0  0  0  0  0
   17.9730  -24.1480  -11.1681 C   0  0  0  0  0  0  0  0  0  0  0  0
   18.2508  -22.9416  -10.3338 C   0  0  0  0  0  0  0  0  0  0  0  0
   19.0965  -22.0749  -11.1736 C   0  0  2  0  0  0  0  0  0  0  0  0
   20.5398  -22.0861  -11.1609 N   0  0  0  0  0  0  0  0  0  0  0  0
   21.3790  -21.1961  -11.9979 C   0  0  0  0  0  0  0  0  0  0  0  0
   22.7850  -21.6590  -11.7252 O   0  0  0  0  0  0  0  0  0  0  0  0
   21.3642  -19.7859  -11.5908 O   0  0  0  0  0  0  0  0  0  0  0  0
  1  2  1  0
  2  3  2  0
  4  2  1  0
  5  4  1  0
  6  5  1  0
  7  6  1  0
  8  7  1  0
  8  9  1  6
 10 20  1  0
 10  8  1  0
 11 10  2  0
 13 12  1  0
 14 13  2  0
 15 13  1  0
 16 15  1  0
 17 16  1  0
 17 18  1  0
 19 18  1  1
 19 20  1  0
 21 31  1  0
 21 19  1  0
 22 21  2  0
 23 24  1  0
 24 25  2  0
 26 27  1  0
 26 24  1  0
 27 28  1  0
 28 29  1  0
 30 29  1  1
 30 31  1  0
 30 32  1  0
 32 33  1  0
 34 32  2  0
M  END
$$$$
