RRR.pdb
     RDKit          3D

 34 33  0  0  1  0  0  0  0  0999 V2000
   25.9261  -12.4810  -17.8364 N   0  0  0  0  0  0  0  0  0  0  0  0
   26.9904  -13.0632  -17.1145 C   0  0  0  0  0  0  0  0  0  0  0  0
   28.1778  -12.9094  -17.5616 N   0  0  0  0  0  0  0  0  0  0  0  0
   26.7991  -13.8083  -15.9184 N   0  0  0  0  0  0  0  0  0  0  0  0
   27.1733  -15.2056  -15.8651 C   0  0  0  0  0  0  0  0  0  0  0  0
   26.3671  -15.9675  -16.8900 C   0  0  0  0  0  0  0  0  0  0  0  0
   25.8389  -17.2499  -16.3522 C   0  0  0  0  0  0  0  0  0  0  0  0
   26.9781  -18.2010  -16.0758 C   0  0  2  0  0  0  0  0  0  0  0  0
   27.5622  -18.4977  -17.3814 N   0  0  0  0  0  0  0  0  0  0  0  0
   26.4738  -19.4497  -15.4387 C   0  0  0  0  0  0  0  0  0  0  0  0
   26.0807  -20.3791  -16.1834 O   0  0  0  0  0  0  0  0  0  0  0  0
   29.0291  -13.3555  -17.2123 N   0  0  0  0  0  0  0  0  0  0  0  0
   22.7236  -22.0366   -7.2447 C   0  0  0  0  0  0  0  0  0  0  0  0
   23.4473  -21.4051   -8.3328 N   0  0  0  0  0  0  0  0  0  0  0  0
   22.9339  -20.4454   -8.9849 N   0  0  0  0  0  0  0  0  0  0  0  0
   24.7399  -21.8507   -8.6868 C   0  0  0  0  0  0  0  0  0  0  0  0
   25.5467  -21.4052   -9.7356 C   0  0  0  0  0  0  0  0  0  0  0  0
   25.0201  -21.3048  -11.1170 C   0  0  0  0  0  0  0  0  0  0  0  0
   26.2467  -20.9265  -11.9710 C   0  0  1  0  0  0  0  0  0  0  0  0
   25.8904  -20.7904  -13.4279 N   0  0  0  0  0  0  0  0  0  0  0  0
   26.4265  -19.6202  -14.0340 C   0  0  0  0  0  0  0  0  0  0  0  0
   24.4561  -20.9141  -13.7217 O   0  0  0  0  0  0  0  0  0  0  0  0
   23.7317  -19.8856  -13.6276 N   0  0  0  0  0  0  0  0  0  0  0  0
   23.3438  -19.9830   -9.7742 C   0  0  0  0  0  0  0  0  0  0  0  0
   21.4283  -27.8103  -16.7107 N   0  0  0  0  0  0  0  0  0  0  0  0
   22.0296  -27.3975  -15.4652 N   0  0  0  0  0  0  0  0  0  0  0  0
   23.0267  -28.0441  -14.9684 C   0  0  0  0  0  0  0  0  0  0  0  0
   21.5364  -26.2722  -14.7631 C   0  0  0  0  0  0  0  0  0  0  0  0
   20.4272  -25.4412  -15.3177 C   0  0  0  0  0  0  0  0  0  0  0  0
   20.7285  -24.0611  -14.8981 C   0  0  1  0  0  0  0  0  0  0  0  0
   22.0607  -23.5435  -14.6968 N   0  0  0  0  0  0  0  0  0  0  0  0
   22.3530  -22.1361  -14.3356 C   0  0  0  0  0  0  0  0  0  0  0  0
   23.8400  -22.1211  -14.1033 O   0  0  0  0  0  0  0  0  0  0  0  0
   21.7710  -21.7018  -13.0599 O   0  0  0  0  0  0  0  0  0  0  0  0
  1  2  1  0
  2  3  2  0
  4  2  1  0
  5  4  1  0
  6  5  1  0
  7  6  1  0
  8  7  1  0
  8  9  1  6
 10 20  1  0
 10  8  1  0
 11 10  2  0
 13 12  1  0
 14 13  2  0
 15 13  1  0
 16 15  1  0
 17 16  1  0
 17 18  1  0
 19 18  1  6
 19 20  1  0
 21 31  1  0
 21 19  1  0
 22 21  2  0
 23 24  1  0
 24 25  2  0
 26 27  1  0
 26 24  1  0
 27 28  1  0
 28 29  1  0
 30 29  1  1
 30 31  1  0
 30 32  1  0
 32 33  1  0
 34 32  2  0
M  END
$$$$
