RRR.pdb
     RDKit          3D

 34 33  0  0  1  0  0  0  0  0999 V2000
   20.8106  -22.2013  -13.7099 N   0  0  0  0  0  0  0  0  0  0  0  0
   19.4036  -22.0919  -13.6747 C   0  0  0  0  0  0  0  0  0  0  0  0
   18.7998  -21.7306  -14.7416 N   0  0  0  0  0  0  0  0  0  0  0  0
   18.6342  -22.3654  -12.5103 N   0  0  0  0  0  0  0  0  0  0  0  0
   19.2818  -22.8441  -11.3075 C   0  0  0  0  0  0  0  0  0  0  0  0
   19.3545  -24.3518  -11.3578 C   0  0  0  0  0  0  0  0  0  0  0  0
   18.0534  -24.9905  -11.0231 C   0  0  0  0  0  0  0  0  0  0  0  0
   18.2304  -26.4842  -10.8948 C   0  0  2  0  0  0  0  0  0  0  0  0
   17.6195  -27.0524  -12.0938 N   0  0  0  0  0  0  0  0  0  0  0  0
   17.5417  -26.9893   -9.6741 C   0  0  0  0  0  0  0  0  0  0  0  0
   16.3287  -26.7108   -9.5188 O   0  0  0  0  0  0  0  0  0  0  0  0
   17.7927  -21.6028  -14.8651 N   0  0  0  0  0  0  0  0  0  0  0  0
   14.4346  -30.8680   -3.4268 C   0  0  0  0  0  0  0  0  0  0  0  0
   15.5140  -31.7438   -3.8440 N   0  0  0  0  0  0  0  0  0  0  0  0
   15.9201  -32.6802   -3.0902 N   0  0  0  0  0  0  0  0  0  0  0  0
   16.1345  -31.5673   -5.1004 C   0  0  0  0  0  0  0  0  0  0  0  0
   15.9636  -30.5175   -6.0049 C   0  0  0  0  0  0  0  0  0  0  0  0
   16.6796  -30.5006   -7.3020 C   0  0  0  0  0  0  0  0  0  0  0  0
   17.8836  -29.5671   -7.0659 C   0  0  2  0  0  0  0  0  0  0  0  0
   17.5788  -28.1503   -7.4760 N   0  0  0  0  0  0  0  0  0  0  0  0
   18.2050  -27.7676   -8.6948 C   0  0  0  0  0  0  0  0  0  0  0  0
   17.8213  -27.1451   -6.4322 O   0  0  0  0  0  0  0  0  0  0  0  0
   18.9876  -26.6825   -6.3016 N   0  0  0  0  0  0  0  0  0  0  0  0
   16.6624  -33.3220   -3.2949 C   0  0  0  0  0  0  0  0  0  0  0  0
   12.4282  -21.5518   -1.9514 N   0  0  0  0  0  0  0  0  0  0  0  0
   13.1777  -21.5186   -3.1844 N   0  0  0  0  0  0  0  0  0  0  0  0
   12.8532  -20.7080   -4.1314 C   0  0  0  0  0  0  0  0  0  0  0  0
   14.2863  -22.3762   -3.3791 C   0  0  0  0  0  0  0  0  0  0  0  0
   14.4817  -23.5899   -2.5322 C   0  0  0  0  0  0  0  0  0  0  0  0
   15.7640  -24.1680   -2.9719 C   0  0  2  0  0  0  0  0  0  0  0  0
   15.9053  -25.0985   -4.0662 N   0  0  0  0  0  0  0  0  0  0  0  0
   17.2007  -25.6774   -4.4947 C   0  0  0  0  0  0  0  0  0  0  0  0
   16.8217  -26.6665   -5.5640 O   0  0  0  0  0  0  0  0  0  0  0  0
   17.8786  -26.4782   -3.4681 O   0  0  0  0  0  0  0  0  0  0  0  0
  1  2  1  0
  2  3  2  0
  4  2  1  0
  5  4  1  0
  6  5  1  0
  7  6  1  0
  8  7  1  0
  8  9  1  6
 10 20  1  0
 10  8  1  0
 11 10  2  0
 13 12  1  0
 14 13  2  0
 15 13  1  0
 16 15  1  0
 17 16  1  0
 17 18  1  0
 19 18  1  6
 19 20  1  0
 21 31  1  0
 21 19  1  0
 22 21  2  0
 23 24  1  0
 24 25  2  0
 26 27  1  0
 26 24  1  0
 27 28  1  0
 28 29  1  0
 30 29  1  1
 30 31  1  0
 30 32  1  0
 32 33  1  0
 34 32  2  0
M  END
$$$$
