RRR.pdb
     RDKit          3D

 34 33  0  0  1  0  0  0  0  0999 V2000
   18.7505  -18.3413  -17.0702 N   0  0  0  0  0  0  0  0  0  0  0  0
   17.7463  -18.5406  -16.0981 C   0  0  0  0  0  0  0  0  0  0  0  0
   16.9108  -17.5959  -15.8915 N   0  0  0  0  0  0  0  0  0  0  0  0
   17.6252  -19.7404  -15.3442 N   0  0  0  0  0  0  0  0  0  0  0  0
   18.6919  -20.7187  -15.3592 C   0  0  0  0  0  0  0  0  0  0  0  0
   19.8205  -20.2255  -14.4851 C   0  0  0  0  0  0  0  0  0  0  0  0
   20.8983  -21.2391  -14.3305 C   0  0  0  0  0  0  0  0  0  0  0  0
   21.6402  -21.4056  -15.6346 C   0  0  2  0  0  0  0  0  0  0  0  0
   21.1083  -22.6284  -16.2310 N   0  0  0  0  0  0  0  0  0  0  0  0
   23.1033  -21.5431  -15.3899 C   0  0  0  0  0  0  0  0  0  0  0  0
   23.5845  -22.6979  -15.3020 O   0  0  0  0  0  0  0  0  0  0  0  0
   16.1459  -17.5887  -15.2128 N   0  0  0  0  0  0  0  0  0  0  0  0
   29.5485  -19.3633  -18.6642 C   0  0  0  0  0  0  0  0  0  0  0  0
   28.6591  -18.2810  -18.2848 N   0  0  0  0  0  0  0  0  0  0  0  0
   29.1085  -17.1132  -18.0749 N   0  0  0  0  0  0  0  0  0  0  0  0
   27.2730  -18.5103  -18.1405 C   0  0  0  0  0  0  0  0  0  0  0  0
   26.5500  -19.6553  -18.4805 C   0  0  0  0  0  0  0  0  0  0  0  0
   25.5980  -20.2709  -17.5264 C   0  0  0  0  0  0  0  0  0  0  0  0
   26.2007  -19.9793  -16.1377 C   0  0  2  0  0  0  0  0  0  0  0  0
   25.3580  -20.5587  -15.0320 N   0  0  0  0  0  0  0  0  0  0  0  0
   23.9597  -20.4235  -15.2570 C   0  0  0  0  0  0  0  0  0  0  0  0
   25.7123  -20.0933  -13.6841 O   0  0  0  0  0  0  0  0  0  0  0  0
   25.0981  -19.0985  -13.2102 N   0  0  0  0  0  0  0  0  0  0  0  0
   28.5601  -16.2956  -17.8858 C   0  0  0  0  0  0  0  0  0  0  0  0
   21.5162  -21.3747   -7.7848 N   0  0  0  0  0  0  0  0  0  0  0  0
   21.7931  -20.8213   -9.0888 N   0  0  0  0  0  0  0  0  0  0  0  0
   20.8336  -20.5082   -9.8892 C   0  0  0  0  0  0  0  0  0  0  0  0
   23.1255  -20.6101   -9.5157 C   0  0  0  0  0  0  0  0  0  0  0  0
   24.2809  -20.9193   -8.6223 C   0  0  0  0  0  0  0  0  0  0  0  0
   25.4723  -20.4499   -9.3515 C   0  0  2  0  0  0  0  0  0  0  0  0
   25.6748  -20.6125  -10.7713 N   0  0  0  0  0  0  0  0  0  0  0  0
   26.9081  -20.1984  -11.4814 C   0  0  0  0  0  0  0  0  0  0  0  0
   26.7037  -20.6963  -12.8870 O   0  0  0  0  0  0  0  0  0  0  0  0
   28.1298  -20.8694  -11.0211 O   0  0  0  0  0  0  0  0  0  0  0  0
  1  2  1  0
  2  3  2  0
  4  2  1  0
  5  4  1  0
  6  5  1  0
  7  6  1  0
  8  7  1  0
  8  9  1  1
 10 20  1  0
 10  8  1  0
 11 10  2  0
 13 12  1  0
 14 13  2  0
 15 13  1  0
 16 15  1  0
 17 16  1  0
 17 18  1  0
 19 18  1  6
 19 20  1  0
 21 31  1  0
 21 19  1  0
 22 21  2  0
 23 24  1  0
 24 25  2  0
 26 27  1  0
 26 24  1  0
 27 28  1  0
 28 29  1  0
 30 29  1  1
 30 31  1  0
 30 32  1  0
 32 33  1  0
 34 32  2  0
M  END
$$$$
