RRR.pdb
     RDKit          3D

 34 33  0  0  1  0  0  0  0  0999 V2000
   29.6791  -31.8563  -15.6110 N   0  0  0  0  0  0  0  0  0  0  0  0
   28.7740  -31.5019  -16.6348 C   0  0  0  0  0  0  0  0  0  0  0  0
   28.2946  -32.4344  -17.3655 N   0  0  0  0  0  0  0  0  0  0  0  0
   28.3749  -30.1601  -16.8857 N   0  0  0  0  0  0  0  0  0  0  0  0
   27.4895  -29.8601  -17.9907 C   0  0  0  0  0  0  0  0  0  0  0  0
   27.2882  -28.3651  -18.0645 C   0  0  0  0  0  0  0  0  0  0  0  0
   26.7312  -27.8081  -16.8026 C   0  0  0  0  0  0  0  0  0  0  0  0
   26.3689  -26.3555  -16.9961 C   0  0  2  0  0  0  0  0  0  0  0  0
   27.5200  -25.5996  -16.5089 N   0  0  0  0  0  0  0  0  0  0  0  0
   25.1523  -26.0108  -16.2083 C   0  0  0  0  0  0  0  0  0  0  0  0
   25.2956  -25.6930  -15.0035 O   0  0  0  0  0  0  0  0  0  0  0  0
   27.6709  -32.3272  -18.1689 N   0  0  0  0  0  0  0  0  0  0  0  0
   21.1514  -19.2400  -16.7776 C   0  0  0  0  0  0  0  0  0  0  0  0
   21.4038  -20.3423  -17.6872 N   0  0  0  0  0  0  0  0  0  0  0  0
   21.5850  -20.1352  -18.9258 N   0  0  0  0  0  0  0  0  0  0  0  0
   21.4507  -21.6700  -17.2078 C   0  0  0  0  0  0  0  0  0  0  0  0
   21.0899  -22.1422  -15.9443 C   0  0  0  0  0  0  0  0  0  0  0  0
   21.1787  -23.5834  -15.6118 C   0  0  0  0  0  0  0  0  0  0  0  0
   22.4447  -24.0711  -16.3439 C   0  0  1  0  0  0  0  0  0  0  0  0
   22.7171  -25.5278  -16.0752 N   0  0  0  0  0  0  0  0  0  0  0  0
   23.8530  -26.0280  -16.7707 C   0  0  0  0  0  0  0  0  0  0  0  0
   21.5607  -26.4130  -16.2697 O   0  0  0  0  0  0  0  0  0  0  0  0
   21.1979  -26.6790  -17.4482 N   0  0  0  0  0  0  0  0  0  0  0  0
   21.7284  -20.8377  -19.6263 C   0  0  0  0  0  0  0  0  0  0  0  0
   21.8840  -31.3412  -10.4838 N   0  0  0  0  0  0  0  0  0  0  0  0
   21.5379  -29.9404  -10.4479 N   0  0  0  0  0  0  0  0  0  0  0  0
   22.1251  -29.1372   -9.6298 C   0  0  0  0  0  0  0  0  0  0  0  0
   20.5460  -29.4191  -11.3120 C   0  0  0  0  0  0  0  0  0  0  0  0
   19.9239  -30.2653  -12.3729 C   0  0  0  0  0  0  0  0  0  0  0  0
   20.2244  -29.5800  -13.6424 C   0  0  2  0  0  0  0  0  0  0  0  0
   19.3851  -28.5699  -14.2412 N   0  0  0  0  0  0  0  0  0  0  0  0
   19.6854  -27.9073  -15.5326 C   0  0  0  0  0  0  0  0  0  0  0  0
   20.8295  -26.9838  -15.2107 O   0  0  0  0  0  0  0  0  0  0  0  0
   18.6206  -27.0255  -16.0260 O   0  0  0  0  0  0  0  0  0  0  0  0
  1  2  1  0
  2  3  2  0
  4  2  1  0
  5  4  1  0
  6  5  1  0
  7  6  1  0
  8  7  1  0
  8  9  1  1
 10 20  1  0
 10  8  1  0
 11 10  2  0
 13 12  1  0
 14 13  2  0
 15 13  1  0
 16 15  1  0
 17 16  1  0
 17 18  1  0
 19 18  1  1
 19 20  1  0
 21 31  1  0
 21 19  1  0
 22 21  2  0
 23 24  1  0
 24 25  2  0
 26 27  1  0
 26 24  1  0
 27 28  1  0
 28 29  1  0
 30 29  1  6
 30 31  1  0
 30 32  1  0
 32 33  1  0
 34 32  2  0
M  END
$$$$
