YHP.pdb
     RDKit          3D

 30 32  0  0  1  0  0  0  0  0999 V2000
    9.3750  -11.8978   19.8997 O   0  0  0  0  0  0  0  0  0  0  0  0
    8.5057  -12.9521   20.0782 C   0  0  0  0  0  0  0  0  0  0  0  0
    7.5201  -12.9467   21.0499 C   0  0  0  0  0  0  0  0  0  0  0  0
    6.6577  -14.0022   21.2208 C   0  0  0  0  0  0  0  0  0  0  0  0
    6.7885  -15.0948   20.3926 C   0  0  0  0  0  0  0  0  0  0  0  0
    5.9017  -16.2761   20.5162 C   0  0  0  0  0  0  0  0  0  0  0  0
    6.5262  -17.2906   21.4039 C   0  0  2  0  0  0  0  0  0  0  0  0
    5.8975  -18.6097   21.2205 N   0  0  0  0  0  0  0  0  0  0  0  0
    6.4582  -16.9578   22.8466 C   0  0  0  0  0  0  0  0  0  0  0  0
    5.3981  -16.9549   23.5239 O   0  0  0  0  0  0  0  0  0  0  0  0
    7.7656  -15.0977   19.4308 C   0  0  0  0  0  0  0  0  0  0  0  0
    8.6292  -14.0463   19.2558 C   0  0  0  0  0  0  0  0  0  0  0  0
    7.6387  -16.6055   23.5878 N   0  0  0  0  0  0  0  0  0  0  0  0
    7.6040  -16.4632   25.0503 C   0  0  1  0  0  0  0  0  0  0  0  0
    8.4038  -17.5805   25.6865 C   0  0  0  0  0  0  0  0  0  0  0  0
    7.5994  -18.8125   25.8478 C   0  0  0  0  0  0  0  0  0  0  0  0
    7.3703  -19.8184   24.9336 C   0  0  0  0  0  0  0  0  0  0  0  0
    6.5713  -20.7657   25.4987 N   0  0  0  0  0  0  0  0  0  0  0  0
    6.3056  -20.3568   26.7478 C   0  0  0  0  0  0  0  0  0  0  0  0
    6.9340  -19.1664   26.9560 N   0  0  0  0  0  0  0  0  0  0  0  0
    8.2607  -15.1844   25.4060 C   0  0  0  0  0  0  0  0  0  0  0  0
    9.3780  -14.9199   24.8324 O   0  0  0  0  0  0  0  0  0  0  0  0
    7.7467  -14.2495   26.3196 N   0  0  0  0  0  0  0  0  0  0  0  0
    6.3679  -14.1368   26.7471 C   0  0  0  0  0  0  0  0  0  0  0  0
    6.2612  -12.6162   26.9733 C   0  0  0  0  0  0  0  0  0  0  0  0
    7.5530  -12.3568   27.7225 C   0  0  0  0  0  0  0  0  0  0  0  0
    8.5350  -13.2270   26.9771 C   0  0  1  0  0  0  0  0  0  0  0  0
    9.5888  -13.7844   27.8305 C   0  0  0  0  0  0  0  0  0  0  0  0
    9.6032  -14.9876   28.1366 O   0  0  0  0  0  0  0  0  0  0  0  0
   10.5938  -12.9630   28.3112 O   0  0  0  0  0  0  0  0  0  0  0  0
  2  1  1  0
  3  2  2  0
  4  3  1  0
  5  4  2  0
  5 11  1  0
  6  5  1  0
  7  6  1  0
  7  8  1  1
  9  7  1  0
  9 10  2  0
 11 12  2  0
 12  2  1  0
 13  9  1  0
 14 15  1  1
 14 13  1  0
 16 15  1  0
 16 17  2  0
 16 20  1  0
 17 18  1  0
 18 19  1  0
 20 19  2  0
 21 14  1  0
 22 21  2  0
 23 27  1  0
 23 21  1  0
 24 23  1  0
 25 24  1  0
 25 26  1  0
 26 27  1  0
 27 28  1  1
 28 29  2  0
 28 30  1  0
M  END
$$$$
