YHP.pdb
     RDKit          3D

 30 32  0  0  1  0  0  0  0  0999 V2000
   11.0241  -21.5114   27.2342 O   0  0  0  0  0  0  0  0  0  0  0  0
   11.3933  -20.4729   26.4069 C   0  0  0  0  0  0  0  0  0  0  0  0
   11.9292  -20.6801   25.1477 C   0  0  0  0  0  0  0  0  0  0  0  0
   12.2945  -19.6388   24.3295 C   0  0  0  0  0  0  0  0  0  0  0  0
   12.1169  -18.3525   24.7885 C   0  0  0  0  0  0  0  0  0  0  0  0
   12.4910  -17.1750   23.9696 C   0  0  0  0  0  0  0  0  0  0  0  0
   11.5624  -17.0403   22.8179 C   0  0  2  0  0  0  0  0  0  0  0  0
   12.2946  -17.0967   21.5412 N   0  0  0  0  0  0  0  0  0  0  0  0
   10.7664  -15.7900   22.8238 C   0  0  0  0  0  0  0  0  0  0  0  0
   11.2612  -14.6350   22.7648 O   0  0  0  0  0  0  0  0  0  0  0  0
   11.5857  -18.1499   26.0362 C   0  0  0  0  0  0  0  0  0  0  0  0
   11.2192  -19.1861   26.8571 C   0  0  0  0  0  0  0  0  0  0  0  0
    9.3310  -15.8193   22.8997 N   0  0  0  0  0  0  0  0  0  0  0  0
    8.5515  -14.5809   23.0376 C   0  0  1  0  0  0  0  0  0  0  0  0
    7.3732  -14.6163   22.0873 C   0  0  0  0  0  0  0  0  0  0  0  0
    7.8010  -14.5178   20.6737 C   0  0  0  0  0  0  0  0  0  0  0  0
    8.1363  -13.3931   19.9507 C   0  0  0  0  0  0  0  0  0  0  0  0
    8.4711  -13.7579   18.6819 N   0  0  0  0  0  0  0  0  0  0  0  0
    8.3466  -15.0913   18.6140 C   0  0  0  0  0  0  0  0  0  0  0  0
    7.9382  -15.5499   19.8298 N   0  0  0  0  0  0  0  0  0  0  0  0
    8.0130  -14.5248   24.4160 C   0  0  0  0  0  0  0  0  0  0  0  0
    8.0516  -15.6070   25.1048 O   0  0  0  0  0  0  0  0  0  0  0  0
    7.4689  -13.3767   25.0149 N   0  0  0  0  0  0  0  0  0  0  0  0
    7.3484  -12.0678   24.4076 C   0  0  0  0  0  0  0  0  0  0  0  0
    7.5251  -11.1618   25.6416 C   0  0  0  0  0  0  0  0  0  0  0  0
    6.6335  -11.8752   26.6383 C   0  0  0  0  0  0  0  0  0  0  0  0
    6.9456  -13.3260   26.3650 C   0  0  1  0  0  0  0  0  0  0  0  0
    5.7997  -14.2189   26.5630 C   0  0  0  0  0  0  0  0  0  0  0  0
    5.1431  -14.6503   25.6016 O   0  0  0  0  0  0  0  0  0  0  0  0
    5.4322  -14.5961   27.8431 O   0  0  0  0  0  0  0  0  0  0  0  0
  2  1  1  0
  3  2  2  0
  4  3  1  0
  5  4  2  0
  5 11  1  0
  6  5  1  0
  7  6  1  0
  7  8  1  6
  9  7  1  0
  9 10  2  0
 11 12  2  0
 12  2  1  0
 13  9  1  0
 14 15  1  6
 14 13  1  0
 16 15  1  0
 16 17  2  0
 16 20  1  0
 17 18  1  0
 18 19  1  0
 20 19  2  0
 21 14  1  0
 22 21  2  0
 23 27  1  0
 23 21  1  0
 24 23  1  0
 25 24  1  0
 25 26  1  0
 26 27  1  0
 27 28  1  6
 28 29  2  0
 28 30  1  0
M  END
$$$$
