YHP.pdb
     RDKit          3D

 30 32  0  0  1  0  0  0  0  0999 V2000
   16.0247  -20.8043   26.6160 O   0  0  0  0  0  0  0  0  0  0  0  0
   14.8959  -20.5002   25.8863 C   0  0  0  0  0  0  0  0  0  0  0  0
   13.6175  -20.6717   26.3884 C   0  0  0  0  0  0  0  0  0  0  0  0
   12.4977  -20.3658   25.6539 C   0  0  0  0  0  0  0  0  0  0  0  0
   12.6658  -19.8738   24.3785 C   0  0  0  0  0  0  0  0  0  0  0  0
   11.5092  -19.5254   23.5195 C   0  0  0  0  0  0  0  0  0  0  0  0
   11.8891  -18.4522   22.5651 C   0  0  2  0  0  0  0  0  0  0  0  0
   13.3373  -18.1893   22.6170 N   0  0  0  0  0  0  0  0  0  0  0  0
   11.1909  -17.1646   22.7913 C   0  0  0  0  0  0  0  0  0  0  0  0
   11.7677  -16.0911   23.1035 O   0  0  0  0  0  0  0  0  0  0  0  0
   13.9332  -19.7048   23.8835 C   0  0  0  0  0  0  0  0  0  0  0  0
   15.0548  -20.0085   24.6128 C   0  0  0  0  0  0  0  0  0  0  0  0
    9.7628  -17.0574   22.6642 N   0  0  0  0  0  0  0  0  0  0  0  0
    9.0830  -15.7608   22.7948 C   0  0  1  0  0  0  0  0  0  0  0  0
    7.9168  -15.7015   21.8309 C   0  0  0  0  0  0  0  0  0  0  0  0
    7.9391  -14.4683   21.0127 C   0  0  0  0  0  0  0  0  0  0  0  0
    8.8603  -13.4430   21.0235 C   0  0  0  0  0  0  0  0  0  0  0  0
    8.4965  -12.5024   20.1080 N   0  0  0  0  0  0  0  0  0  0  0  0
    7.3645  -12.9347   19.5340 C   0  0  0  0  0  0  0  0  0  0  0  0
    7.0287  -14.1327   20.0882 N   0  0  0  0  0  0  0  0  0  0  0  0
    8.5346  -15.6627   24.1669 C   0  0  0  0  0  0  0  0  0  0  0  0
    8.7686  -16.6418   24.9630 O   0  0  0  0  0  0  0  0  0  0  0  0
    7.7837  -14.5790   24.6514 N   0  0  0  0  0  0  0  0  0  0  0  0
    7.5506  -13.3236   23.9687 C   0  0  0  0  0  0  0  0  0  0  0  0
    7.4785  -12.3554   25.1654 C   0  0  0  0  0  0  0  0  0  0  0  0
    6.5946  -13.1469   26.1086 C   0  0  0  0  0  0  0  0  0  0  0  0
    7.1246  -14.5499   25.9414 C   0  0  1  0  0  0  0  0  0  0  0  0
    6.0949  -15.5848   26.0757 C   0  0  0  0  0  0  0  0  0  0  0  0
    5.5256  -16.0626   25.0811 O   0  0  0  0  0  0  0  0  0  0  0  0
    5.7410  -16.0471   27.3315 O   0  0  0  0  0  0  0  0  0  0  0  0
  2  1  1  0
  3  2  2  0
  4  3  1  0
  5  4  2  0
  5 11  1  0
  6  5  1  0
  7  6  1  0
  7  8  1  1
  9  7  1  0
  9 10  2  0
 11 12  2  0
 12  2  1  0
 13  9  1  0
 14 15  1  6
 14 13  1  0
 16 15  1  0
 16 17  2  0
 16 20  1  0
 17 18  1  0
 18 19  1  0
 20 19  2  0
 21 14  1  0
 22 21  2  0
 23 27  1  0
 23 21  1  0
 24 23  1  0
 25 24  1  0
 25 26  1  0
 26 27  1  0
 27 28  1  6
 28 29  2  0
 28 30  1  0
M  END
$$$$
