YHP.pdb
     RDKit          3D

 30 32  0  0  1  0  0  0  0  0999 V2000
   12.7322  -22.8160   18.7561 O   0  0  0  0  0  0  0  0  0  0  0  0
   12.6154  -21.6689   19.5108 C   0  0  0  0  0  0  0  0  0  0  0  0
   13.5123  -20.6195   19.4120 C   0  0  0  0  0  0  0  0  0  0  0  0
   13.3883  -19.4795   20.1684 C   0  0  0  0  0  0  0  0  0  0  0  0
   12.3335  -19.3903   21.0495 C   0  0  0  0  0  0  0  0  0  0  0  0
   12.1327  -18.1970   21.9055 C   0  0  0  0  0  0  0  0  0  0  0  0
   11.0244  -17.3661   21.3684 C   0  0  2  0  0  0  0  0  0  0  0  0
   11.4213  -16.7059   20.1132 N   0  0  0  0  0  0  0  0  0  0  0  0
   10.5498  -16.3141   22.2982 C   0  0  0  0  0  0  0  0  0  0  0  0
   11.0951  -15.1884   22.4322 O   0  0  0  0  0  0  0  0  0  0  0  0
   11.4463  -20.4312   21.1454 C   0  0  0  0  0  0  0  0  0  0  0  0
   11.5655  -21.5717   20.3924 C   0  0  0  0  0  0  0  0  0  0  0  0
    9.3979  -16.5203   23.1335 N   0  0  0  0  0  0  0  0  0  0  0  0
    8.9583  -15.4941   24.0894 C   0  0  1  0  0  0  0  0  0  0  0  0
    7.4591  -15.5887   24.2796 C   0  0  0  0  0  0  0  0  0  0  0  0
    6.9620  -14.5903   25.2527 C   0  0  0  0  0  0  0  0  0  0  0  0
    6.3717  -14.8024   26.4801 C   0  0  0  0  0  0  0  0  0  0  0  0
    6.0672  -13.6013   27.0457 N   0  0  0  0  0  0  0  0  0  0  0  0
    6.4620  -12.6533   26.1836 C   0  0  0  0  0  0  0  0  0  0  0  0
    7.0065  -13.2604   25.0927 N   0  0  0  0  0  0  0  0  0  0  0  0
    9.5938  -15.7776   25.3967 C   0  0  0  0  0  0  0  0  0  0  0  0
   10.0929  -16.9481   25.5642 O   0  0  0  0  0  0  0  0  0  0  0  0
    9.6872  -14.8591   26.4553 N   0  0  0  0  0  0  0  0  0  0  0  0
    9.1021  -13.5354   26.4965 C   0  0  0  0  0  0  0  0  0  0  0  0
   10.1486  -12.7855   27.3434 C   0  0  0  0  0  0  0  0  0  0  0  0
   10.3863  -13.7962   28.4476 C   0  0  0  0  0  0  0  0  0  0  0  0
   10.4096  -15.0998   27.6880 C   0  0  1  0  0  0  0  0  0  0  0  0
    9.8710  -16.2310   28.4494 C   0  0  0  0  0  0  0  0  0  0  0  0
   10.4386  -16.6511   29.4707 O   0  0  0  0  0  0  0  0  0  0  0  0
    8.7066  -16.8519   28.0317 O   0  0  0  0  0  0  0  0  0  0  0  0
  2  1  1  0
  3  2  2  0
  4  3  1  0
  5  4  2  0
  5 11  1  0
  6  5  1  0
  7  6  1  0
  7  8  1  6
  9  7  1  0
  9 10  2  0
 11 12  2  0
 12  2  1  0
 13  9  1  0
 14 15  1  1
 14 13  1  0
 16 15  1  0
 16 17  2  0
 16 20  1  0
 17 18  1  0
 18 19  1  0
 20 19  2  0
 21 14  1  0
 22 21  2  0
 23 27  1  0
 23 21  1  0
 24 23  1  0
 25 24  1  0
 25 26  1  0
 26 27  1  0
 27 28  1  1
 28 29  2  0
 28 30  1  0
M  END
$$$$
