YHP.pdb
     RDKit          3D

 30 32  0  0  1  0  0  0  0  0999 V2000
   11.8898  -19.1614   31.1271 O   0  0  0  0  0  0  0  0  0  0  0  0
   11.9419  -18.3927   29.9845 C   0  0  0  0  0  0  0  0  0  0  0  0
   10.9079  -17.5551   29.6041 C   0  0  0  0  0  0  0  0  0  0  0  0
   10.9683  -16.7923   28.4633 C   0  0  0  0  0  0  0  0  0  0  0  0
   12.0993  -16.8727   27.6814 C   0  0  0  0  0  0  0  0  0  0  0  0
   12.2401  -16.0870   26.4325 C   0  0  0  0  0  0  0  0  0  0  0  0
   11.4245  -16.6986   25.3519 C   0  0  2  0  0  0  0  0  0  0  0  0
   12.2770  -17.4221   24.3934 N   0  0  0  0  0  0  0  0  0  0  0  0
   10.6099  -15.7275   24.5837 C   0  0  0  0  0  0  0  0  0  0  0  0
   11.0829  -14.7425   23.9604 O   0  0  0  0  0  0  0  0  0  0  0  0
   13.1224  -17.7032   28.0605 C   0  0  0  0  0  0  0  0  0  0  0  0
   13.0671  -18.4669   29.1988 C   0  0  0  0  0  0  0  0  0  0  0  0
    9.1802  -15.8540   24.4995 N   0  0  0  0  0  0  0  0  0  0  0  0
    8.3487  -14.7565   23.9854 C   0  0  1  0  0  0  0  0  0  0  0  0
    7.2870  -15.3157   23.0620 C   0  0  0  0  0  0  0  0  0  0  0  0
    7.8210  -15.5900   21.7091 C   0  0  0  0  0  0  0  0  0  0  0  0
    9.1029  -15.4099   21.2353 C   0  0  0  0  0  0  0  0  0  0  0  0
    9.1568  -15.7912   19.9289 N   0  0  0  0  0  0  0  0  0  0  0  0
    7.9261  -16.2034   19.5921 C   0  0  0  0  0  0  0  0  0  0  0  0
    7.1157  -16.0791   20.6798 N   0  0  0  0  0  0  0  0  0  0  0  0
    7.6565  -14.1248   25.1322 C   0  0  0  0  0  0  0  0  0  0  0  0
    7.4412  -14.8583   26.1631 O   0  0  0  0  0  0  0  0  0  0  0  0
    7.2250  -12.7885   25.1673 N   0  0  0  0  0  0  0  0  0  0  0  0
    7.5088  -11.7694   24.1787 C   0  0  0  0  0  0  0  0  0  0  0  0
    7.5687  -10.5139   25.0702 C   0  0  0  0  0  0  0  0  0  0  0  0
    6.3476  -10.7343   25.9406 C   0  0  0  0  0  0  0  0  0  0  0  0
    6.4229  -12.2137   26.2281 C   0  0  1  0  0  0  0  0  0  0  0  0
    5.1098  -12.8530   26.3564 C   0  0  0  0  0  0  0  0  0  0  0  0
    4.3793  -12.6375   27.3369 O   0  0  0  0  0  0  0  0  0  0  0  0
    4.6637  -13.7165   25.3708 O   0  0  0  0  0  0  0  0  0  0  0  0
  2  1  1  0
  3  2  2  0
  4  3  1  0
  5  4  2  0
  5 11  1  0
  6  5  1  0
  7  6  1  0
  7  8  1  6
  9  7  1  0
  9 10  2  0
 11 12  2  0
 12  2  1  0
 13  9  1  0
 14 15  1  6
 14 13  1  0
 16 15  1  0
 16 17  2  0
 16 20  1  0
 17 18  1  0
 18 19  1  0
 20 19  2  0
 21 14  1  0
 22 21  2  0
 23 27  1  0
 23 21  1  0
 24 23  1  0
 25 24  1  0
 25 26  1  0
 26 27  1  0
 27 28  1  6
 28 29  2  0
 28 30  1  0
M  END
$$$$
