YHP.pdb
     RDKit          3D

 30 32  0  0  1  0  0  0  0  0999 V2000
   11.1662  -18.7659   29.0375 O   0  0  0  0  0  0  0  0  0  0  0  0
   10.9128  -18.7646   27.6829 C   0  0  0  0  0  0  0  0  0  0  0  0
   11.9235  -18.7422   26.7376 C   0  0  0  0  0  0  0  0  0  0  0  0
   11.6618  -18.7412   25.3890 C   0  0  0  0  0  0  0  0  0  0  0  0
   10.3476  -18.7631   24.9774 C   0  0  0  0  0  0  0  0  0  0  0  0
    9.9813  -18.7575   23.5412 C   0  0  0  0  0  0  0  0  0  0  0  0
   10.7122  -17.6747   22.8338 C   0  0  2  0  0  0  0  0  0  0  0  0
   12.1446  -17.6952   23.1755 N   0  0  0  0  0  0  0  0  0  0  0  0
   10.2023  -16.3125   23.1189 C   0  0  0  0  0  0  0  0  0  0  0  0
   10.8514  -15.4273   23.7334 O   0  0  0  0  0  0  0  0  0  0  0  0
    9.3483  -18.7853   25.9158 C   0  0  0  0  0  0  0  0  0  0  0  0
    9.6042  -18.7866   27.2636 C   0  0  0  0  0  0  0  0  0  0  0  0
    8.8902  -15.9031   22.6973 N   0  0  0  0  0  0  0  0  0  0  0  0
    8.3574  -14.5791   23.0483 C   0  0  1  0  0  0  0  0  0  0  0  0
    7.2279  -14.2218   22.1052 C   0  0  0  0  0  0  0  0  0  0  0  0
    7.7205  -13.9260   20.7411 C   0  0  0  0  0  0  0  0  0  0  0  0
    8.1041  -12.7147   20.2068 C   0  0  0  0  0  0  0  0  0  0  0  0
    8.4907  -12.8963   18.9135 N   0  0  0  0  0  0  0  0  0  0  0  0
    8.3503  -14.2024   18.6445 C   0  0  0  0  0  0  0  0  0  0  0  0
    7.8809  -14.8258   19.7609 N   0  0  0  0  0  0  0  0  0  0  0  0
    7.7917  -14.6560   24.4148 C   0  0  0  0  0  0  0  0  0  0  0  0
    7.5533  -15.8259   24.8854 O   0  0  0  0  0  0  0  0  0  0  0  0
    7.5026  -13.5444   25.2233 N   0  0  0  0  0  0  0  0  0  0  0  0
    7.8492  -12.1667   24.9432 C   0  0  0  0  0  0  0  0  0  0  0  0
    8.0756  -11.6320   26.3706 C   0  0  0  0  0  0  0  0  0  0  0  0
    6.8752  -12.2247   27.0815 C   0  0  0  0  0  0  0  0  0  0  0  0
    6.8089  -13.6129   26.4935 C   0  0  1  0  0  0  0  0  0  0  0  0
    5.4431  -14.1305   26.3667 C   0  0  0  0  0  0  0  0  0  0  0  0
    4.8431  -14.1108   25.2799 O   0  0  0  0  0  0  0  0  0  0  0  0
    4.7984  -14.6545   27.4738 O   0  0  0  0  0  0  0  0  0  0  0  0
  2  1  1  0
  3  2  2  0
  4  3  1  0
  5  4  2  0
  5 11  1  0
  6  5  1  0
  7  6  1  0
  7  8  1  1
  9  7  1  0
  9 10  2  0
 11 12  2  0
 12  2  1  0
 13  9  1  0
 14 15  1  6
 14 13  1  0
 16 15  1  0
 16 17  2  0
 16 20  1  0
 17 18  1  0
 18 19  1  0
 20 19  2  0
 21 14  1  0
 22 21  2  0
 23 27  1  0
 23 21  1  0
 24 23  1  0
 25 24  1  0
 25 26  1  0
 26 27  1  0
 27 28  1  6
 28 29  2  0
 28 30  1  0
M  END
$$$$
