YHP.pdb
     RDKit          3D

 30 32  0  0  1  0  0  0  0  0999 V2000
    9.3074  -13.1817   16.2742 O   0  0  0  0  0  0  0  0  0  0  0  0
    8.7427  -13.4567   17.5009 C   0  0  0  0  0  0  0  0  0  0  0  0
    7.4410  -13.9071   17.6359 C   0  0  0  0  0  0  0  0  0  0  0  0
    6.8861  -14.1788   18.8628 C   0  0  0  0  0  0  0  0  0  0  0  0
    7.6601  -13.9928   19.9867 C   0  0  0  0  0  0  0  0  0  0  0  0
    7.1341  -14.2575   21.3470 C   0  0  0  0  0  0  0  0  0  0  0  0
    7.2563  -15.7029   21.6676 C   0  0  2  0  0  0  0  0  0  0  0  0
    6.2459  -16.4910   20.9416 N   0  0  0  0  0  0  0  0  0  0  0  0
    7.1199  -16.0178   23.1094 C   0  0  0  0  0  0  0  0  0  0  0  0
    6.0558  -15.8826   23.7666 O   0  0  0  0  0  0  0  0  0  0  0  0
    8.9494  -13.5466   19.8503 C   0  0  0  0  0  0  0  0  0  0  0  0
    9.5083  -13.2740   18.6275 C   0  0  0  0  0  0  0  0  0  0  0  0
    8.2321  -16.5141   23.8736 N   0  0  0  0  0  0  0  0  0  0  0  0
    8.1041  -16.7891   25.3117 C   0  0  1  0  0  0  0  0  0  0  0  0
    8.2911  -18.2707   25.5622 C   0  0  0  0  0  0  0  0  0  0  0  0
    7.2196  -19.0761   24.9346 C   0  0  0  0  0  0  0  0  0  0  0  0
    6.1690  -18.6513   24.1498 C   0  0  0  0  0  0  0  0  0  0  0  0
    5.4191  -19.7273   23.7822 N   0  0  0  0  0  0  0  0  0  0  0  0
    5.9935  -20.8081   24.3298 C   0  0  0  0  0  0  0  0  0  0  0  0
    7.0900  -20.4066   25.0309 N   0  0  0  0  0  0  0  0  0  0  0  0
    9.1929  -16.0752   26.0174 C   0  0  0  0  0  0  0  0  0  0  0  0
   10.3950  -16.3199   25.6402 O   0  0  0  0  0  0  0  0  0  0  0  0
    8.9998  -15.1556   27.0615 N   0  0  0  0  0  0  0  0  0  0  0  0
    7.7520  -14.5144   27.4197 C   0  0  0  0  0  0  0  0  0  0  0  0
    8.2647  -13.1527   27.9273 C   0  0  0  0  0  0  0  0  0  0  0  0
    9.4296  -13.5994   28.7881 C   0  0  0  0  0  0  0  0  0  0  0  0
   10.0466  -14.6915   27.9492 C   0  0  1  0  0  0  0  0  0  0  0  0
   10.6402  -15.7734   28.7407 C   0  0  0  0  0  0  0  0  0  0  0  0
   10.1331  -16.9064   28.7689 O   0  0  0  0  0  0  0  0  0  0  0  0
   11.7893  -15.5397   29.4761 O   0  0  0  0  0  0  0  0  0  0  0  0
  2  1  1  0
  3  2  2  0
  4  3  1  0
  5  4  2  0
  5 11  1  0
  6  5  1  0
  7  6  1  0
  7  8  1  6
  9  7  1  0
  9 10  2  0
 11 12  2  0
 12  2  1  0
 13  9  1  0
 14 15  1  6
 14 13  1  0
 16 15  1  0
 16 17  2  0
 16 20  1  0
 17 18  1  0
 18 19  1  0
 20 19  2  0
 21 14  1  0
 22 21  2  0
 23 27  1  0
 23 21  1  0
 24 23  1  0
 25 24  1  0
 25 26  1  0
 26 27  1  0
 27 28  1  1
 28 29  2  0
 28 30  1  0
M  END
$$$$
