YHP.pdb
     RDKit          3D

 30 32  0  0  1  0  0  0  0  0999 V2000
   10.9830  -14.1006   30.4984 O   0  0  0  0  0  0  0  0  0  0  0  0
   10.2927  -14.5412   29.3899 C   0  0  0  0  0  0  0  0  0  0  0  0
   10.0135  -15.8790   29.1712 C   0  0  0  0  0  0  0  0  0  0  0  0
    9.3247  -16.3093   28.0634 C   0  0  0  0  0  0  0  0  0  0  0  0
    8.9041  -15.3697   27.1484 C   0  0  0  0  0  0  0  0  0  0  0  0
    8.1607  -15.7527   25.9246 C   0  0  0  0  0  0  0  0  0  0  0  0
    8.9599  -16.7159   25.1243 C   0  0  2  0  0  0  0  0  0  0  0  0
    9.9767  -17.3783   25.9587 N   0  0  0  0  0  0  0  0  0  0  0  0
    9.6563  -16.1097   23.9648 C   0  0  0  0  0  0  0  0  0  0  0  0
   10.8295  -15.6570   24.0005 O   0  0  0  0  0  0  0  0  0  0  0  0
    9.1818  -14.0450   27.3675 C   0  0  0  0  0  0  0  0  0  0  0  0
    9.8692  -13.6100   28.4721 C   0  0  0  0  0  0  0  0  0  0  0  0
    9.0138  -15.9970   22.6836 N   0  0  0  0  0  0  0  0  0  0  0  0
    9.7488  -15.5190   21.5039 C   0  0  1  0  0  0  0  0  0  0  0  0
   10.8334  -16.5132   21.1464 C   0  0  0  0  0  0  0  0  0  0  0  0
   12.0906  -16.2462   21.8805 C   0  0  0  0  0  0  0  0  0  0  0  0
   12.9332  -15.1599   21.7809 C   0  0  0  0  0  0  0  0  0  0  0  0
   13.9776  -15.3210   22.6402 N   0  0  0  0  0  0  0  0  0  0  0  0
   13.7894  -16.4912   23.2672 C   0  0  0  0  0  0  0  0  0  0  0  0
   12.6386  -17.0513   22.8012 N   0  0  0  0  0  0  0  0  0  0  0  0
    8.8046  -15.4580   20.3646 C   0  0  0  0  0  0  0  0  0  0  0  0
    8.0104  -16.4539   20.2077 O   0  0  0  0  0  0  0  0  0  0  0  0
    8.7200  -14.3924   19.4534 N   0  0  0  0  0  0  0  0  0  0  0  0
    9.4066  -13.1216   19.5538 C   0  0  0  0  0  0  0  0  0  0  0  0
    8.3734  -12.1849   18.8980 C   0  0  0  0  0  0  0  0  0  0  0  0
    7.9866  -13.0065   17.6844 C   0  0  0  0  0  0  0  0  0  0  0  0
    7.9053  -14.4010   18.2554 C   0  0  1  0  0  0  0  0  0  0  0  0
    8.3023  -15.4461   17.3069 C   0  0  0  0  0  0  0  0  0  0  0  0
    9.4310  -15.9618   17.3490 O   0  0  0  0  0  0  0  0  0  0  0  0
    7.4097  -15.8755   16.3401 O   0  0  0  0  0  0  0  0  0  0  0  0
  2  1  1  0
  3  2  2  0
  4  3  1  0
  5  4  2  0
  5 11  1  0
  6  5  1  0
  7  6  1  0
  7  8  1  1
  9  7  1  0
  9 10  2  0
 11 12  2  0
 12  2  1  0
 13  9  1  0
 14 15  1  6
 14 13  1  0
 16 15  1  0
 16 17  2  0
 16 20  1  0
 17 18  1  0
 18 19  1  0
 20 19  2  0
 21 14  1  0
 22 21  2  0
 23 27  1  0
 23 21  1  0
 24 23  1  0
 25 24  1  0
 25 26  1  0
 26 27  1  0
 27 28  1  6
 28 29  2  0
 28 30  1  0
M  END
$$$$
