YHP.pdb
     RDKit          3D

 30 32  0  0  1  0  0  0  0  0999 V2000
    9.8206  -15.4572   30.1735 O   0  0  0  0  0  0  0  0  0  0  0  0
   10.5198  -15.7590   29.0249 C   0  0  0  0  0  0  0  0  0  0  0  0
   10.9261  -14.7888   28.1254 C   0  0  0  0  0  0  0  0  0  0  0  0
   11.6229  -15.0986   26.9827 C   0  0  0  0  0  0  0  0  0  0  0  0
   11.9201  -16.4205   26.7357 C   0  0  0  0  0  0  0  0  0  0  0  0
   12.6630  -16.8381   25.5229 C   0  0  0  0  0  0  0  0  0  0  0  0
   11.7103  -17.2228   24.4498 C   0  0  2  0  0  0  0  0  0  0  0  0
   12.4275  -17.6760   23.2460 N   0  0  0  0  0  0  0  0  0  0  0  0
   10.7876  -16.1375   24.0406 C   0  0  0  0  0  0  0  0  0  0  0  0
   11.1585  -15.0377   23.5553 O   0  0  0  0  0  0  0  0  0  0  0  0
   11.5166  -17.3798   27.6284 C   0  0  0  0  0  0  0  0  0  0  0  0
   10.8207  -17.0757   28.7709 C   0  0  0  0  0  0  0  0  0  0  0  0
    9.3633  -16.2775   24.1768 N   0  0  0  0  0  0  0  0  0  0  0  0
    8.4581  -15.1554   23.8909 C   0  0  1  0  0  0  0  0  0  0  0  0
    7.3938  -15.6009   22.9104 C   0  0  0  0  0  0  0  0  0  0  0  0
    7.8866  -15.5824   21.5148 C   0  0  0  0  0  0  0  0  0  0  0  0
    9.1418  -15.2558   21.0479 C   0  0  0  0  0  0  0  0  0  0  0  0
    9.1610  -15.3729   19.6911 N   0  0  0  0  0  0  0  0  0  0  0  0
    7.9353  -15.7670   19.3165 C   0  0  0  0  0  0  0  0  0  0  0  0
    7.1623  -15.8934   20.4309 N   0  0  0  0  0  0  0  0  0  0  0  0
    7.7763  -14.7791   25.1506 C   0  0  0  0  0  0  0  0  0  0  0  0
    7.6049  -15.7044   26.0233 O   0  0  0  0  0  0  0  0  0  0  0  0
    7.3103  -13.4887   25.4520 N   0  0  0  0  0  0  0  0  0  0  0  0
    7.5991  -12.2780   24.7122 C   0  0  0  0  0  0  0  0  0  0  0  0
    7.5993  -11.2395   25.8507 C   0  0  0  0  0  0  0  0  0  0  0  0
    6.3573  -11.6616   26.6102 C   0  0  0  0  0  0  0  0  0  0  0  0
    6.4610  -13.1668   26.5808 C   0  0  1  0  0  0  0  0  0  0  0  0
    5.1611  -13.8423   26.5235 C   0  0  0  0  0  0  0  0  0  0  0  0
    4.6977  -14.2617   25.4507 O   0  0  0  0  0  0  0  0  0  0  0  0
    4.4255  -14.0223   27.6821 O   0  0  0  0  0  0  0  0  0  0  0  0
  2  1  1  0
  3  2  2  0
  4  3  1  0
  5  4  2  0
  5 11  1  0
  6  5  1  0
  7  6  1  0
  7  8  1  6
  9  7  1  0
  9 10  2  0
 11 12  2  0
 12  2  1  0
 13  9  1  0
 14 15  1  6
 14 13  1  0
 16 15  1  0
 16 17  2  0
 16 20  1  0
 17 18  1  0
 18 19  1  0
 20 19  2  0
 21 14  1  0
 22 21  2  0
 23 27  1  0
 23 21  1  0
 24 23  1  0
 25 24  1  0
 25 26  1  0
 26 27  1  0
 27 28  1  6
 28 29  2  0
 28 30  1  0
M  END
$$$$
