YHP.pdb
     RDKit          3D

 30 32  0  0  1  0  0  0  0  0999 V2000
   10.3217  -16.0814   31.5145 O   0  0  0  0  0  0  0  0  0  0  0  0
   10.2349  -15.8855   30.1531 C   0  0  0  0  0  0  0  0  0  0  0  0
    9.7360  -16.8490   29.2938 C   0  0  0  0  0  0  0  0  0  0  0  0
    9.6531  -16.6452   27.9378 C   0  0  0  0  0  0  0  0  0  0  0  0
   10.0837  -15.4397   27.4297 C   0  0  0  0  0  0  0  0  0  0  0  0
   10.0333  -15.1439   25.9781 C   0  0  0  0  0  0  0  0  0  0  0  0
   10.8655  -16.1214   25.2304 C   0  0  2  0  0  0  0  0  0  0  0  0
   12.2355  -16.1676   25.7687 N   0  0  0  0  0  0  0  0  0  0  0  0
   10.9633  -15.8478   23.7770 C   0  0  0  0  0  0  0  0  0  0  0  0
   11.8026  -15.0676   23.2579 O   0  0  0  0  0  0  0  0  0  0  0  0
   10.5774  -14.4869   28.2831 C   0  0  0  0  0  0  0  0  0  0  0  0
   10.6622  -14.6853   29.6379 C   0  0  0  0  0  0  0  0  0  0  0  0
   10.0758  -16.4775   22.8374 N   0  0  0  0  0  0  0  0  0  0  0  0
   10.1230  -16.1450   21.4065 C   0  0  1  0  0  0  0  0  0  0  0  0
   10.6907  -17.3165   20.6333 C   0  0  0  0  0  0  0  0  0  0  0  0
   12.1511  -17.4532   20.8316 C   0  0  0  0  0  0  0  0  0  0  0  0
   13.1641  -16.6433   20.3648 C   0  0  0  0  0  0  0  0  0  0  0  0
   14.3628  -17.1371   20.7824 N   0  0  0  0  0  0  0  0  0  0  0  0
   14.1015  -18.2395   21.4996 C   0  0  0  0  0  0  0  0  0  0  0  0
   12.7529  -18.4282   21.5268 N   0  0  0  0  0  0  0  0  0  0  0  0
    8.7355  -15.9288   20.9363 C   0  0  0  0  0  0  0  0  0  0  0  0
    7.8314  -16.7147   21.3968 O   0  0  0  0  0  0  0  0  0  0  0  0
    8.3461  -14.9294   20.0293 N   0  0  0  0  0  0  0  0  0  0  0  0
    9.1736  -13.8478   19.5375 C   0  0  0  0  0  0  0  0  0  0  0  0
    8.1186  -12.7392   19.3562 C   0  0  0  0  0  0  0  0  0  0  0  0
    7.0093  -13.5210   18.6813 C   0  0  0  0  0  0  0  0  0  0  0  0
    7.0243  -14.8219   19.4458 C   0  0  1  0  0  0  0  0  0  0  0  0
    6.6688  -15.9858   18.6281 C   0  0  0  0  0  0  0  0  0  0  0  0
    7.5408  -16.7100   18.1215 O   0  0  0  0  0  0  0  0  0  0  0  0
    5.3374  -16.2942   18.4090 O   0  0  0  0  0  0  0  0  0  0  0  0
  2  1  1  0
  3  2  2  0
  4  3  1  0
  5  4  2  0
  5 11  1  0
  6  5  1  0
  7  6  1  0
  7  8  1  1
  9  7  1  0
  9 10  2  0
 11 12  2  0
 12  2  1  0
 13  9  1  0
 14 15  1  6
 14 13  1  0
 16 15  1  0
 16 17  2  0
 16 20  1  0
 17 18  1  0
 18 19  1  0
 20 19  2  0
 21 14  1  0
 22 21  2  0
 23 27  1  0
 23 21  1  0
 24 23  1  0
 25 24  1  0
 25 26  1  0
 26 27  1  0
 27 28  1  6
 28 29  2  0
 28 30  1  0
M  END
$$$$
