YHP.pdb
     RDKit          3D

 30 32  0  0  1  0  0  0  0  0999 V2000
   10.1949  -19.3441   28.5122 O   0  0  0  0  0  0  0  0  0  0  0  0
    9.2981  -18.6492   27.7299 C   0  0  0  0  0  0  0  0  0  0  0  0
    9.6683  -17.5542   26.9687 C   0  0  0  0  0  0  0  0  0  0  0  0
    8.7676  -16.8672   26.1916 C   0  0  0  0  0  0  0  0  0  0  0  0
    7.4573  -17.2915   26.1784 C   0  0  0  0  0  0  0  0  0  0  0  0
    6.4234  -16.6011   25.3713 C   0  0  0  0  0  0  0  0  0  0  0  0
    6.1978  -17.3340   24.0989 C   0  0  2  0  0  0  0  0  0  0  0  0
    5.8411  -18.7396   24.3564 N   0  0  0  0  0  0  0  0  0  0  0  0
    7.3614  -17.3273   23.1808 C   0  0  0  0  0  0  0  0  0  0  0  0
    7.8971  -18.3629   22.7085 O   0  0  0  0  0  0  0  0  0  0  0  0
    7.0932  -18.3766   26.9333 C   0  0  0  0  0  0  0  0  0  0  0  0
    7.9887  -19.0661   27.7109 C   0  0  0  0  0  0  0  0  0  0  0  0
    7.9715  -16.0961   22.7581 N   0  0  0  0  0  0  0  0  0  0  0  0
    9.0997  -16.0908   21.8160 C   0  0  1  0  0  0  0  0  0  0  0  0
    9.3266  -14.6833   21.3061 C   0  0  0  0  0  0  0  0  0  0  0  0
    8.5019  -14.3889   20.1128 C   0  0  0  0  0  0  0  0  0  0  0  0
    7.6473  -15.2257   19.4276 C   0  0  0  0  0  0  0  0  0  0  0  0
    7.0896  -14.5451   18.3880 N   0  0  0  0  0  0  0  0  0  0  0  0
    7.5890  -13.3012   18.4239 C   0  0  0  0  0  0  0  0  0  0  0  0
    8.4489  -13.2107   19.4763 N   0  0  0  0  0  0  0  0  0  0  0  0
   10.3177  -16.5019   22.5514 C   0  0  0  0  0  0  0  0  0  0  0  0
   10.3932  -16.1742   23.7900 O   0  0  0  0  0  0  0  0  0  0  0  0
   11.3855  -17.2211   21.9895 N   0  0  0  0  0  0  0  0  0  0  0  0
   11.4843  -17.6790   20.6194 C   0  0  0  0  0  0  0  0  0  0  0  0
   12.2823  -18.9835   20.8100 C   0  0  0  0  0  0  0  0  0  0  0  0
   13.3526  -18.5143   21.7753 C   0  0  0  0  0  0  0  0  0  0  0  0
   12.5696  -17.6319   22.7163 C   0  0  1  0  0  0  0  0  0  0  0  0
   13.3406  -16.4969   23.2325 C   0  0  0  0  0  0  0  0  0  0  0  0
   13.1933  -15.3531   22.7724 O   0  0  0  0  0  0  0  0  0  0  0  0
   14.2546  -16.6911   24.2537 O   0  0  0  0  0  0  0  0  0  0  0  0
  2  1  1  0
  3  2  2  0
  4  3  1  0
  5  4  2  0
  5 11  1  0
  6  5  1  0
  7  6  1  0
  7  8  1  1
  9  7  1  0
  9 10  2  0
 11 12  2  0
 12  2  1  0
 13  9  1  0
 14 15  1  1
 14 13  1  0
 16 15  1  0
 16 17  2  0
 16 20  1  0
 17 18  1  0
 18 19  1  0
 20 19  2  0
 21 14  1  0
 22 21  2  0
 23 27  1  0
 23 21  1  0
 24 23  1  0
 25 24  1  0
 25 26  1  0
 26 27  1  0
 27 28  1  6
 28 29  2  0
 28 30  1  0
M  END
$$$$
