ETV.pdb
     RDKit          3D

 24 23  0  0  1  0  0  0  0  0999 V2000
   12.3920  -11.3862   -9.9756 N   0  0  0  0  0  0  0  0  0  0  0  0
   13.7531  -11.1118  -10.4762 C   0  0  1  0  0  0  0  0  0  0  0  0
   13.8484  -11.8074  -11.7864 C   0  0  0  0  0  0  0  0  0  0  0  0
   13.8478  -13.3015  -11.6003 C   0  0  0  0  0  0  0  0  0  0  0  0
   13.8850  -13.8884  -12.9768 C   0  0  0  0  0  0  0  0  0  0  0  0
   12.8356  -13.9722  -13.6454 O   0  0  0  0  0  0  0  0  0  0  0  0
   13.9378   -9.6556  -10.5028 C   0  0  0  0  0  0  0  0  0  0  0  0
   12.9377   -8.8876  -10.7390 O   0  0  0  0  0  0  0  0  0  0  0  0
   15.0916  -14.3217  -13.4744 O   0  0  0  0  0  0  0  0  0  0  0  0
   14.7538   -7.4245   -7.8880 C   0  0  0  0  0  0  0  0  0  0  0  0
   15.8035   -7.1715   -8.9394 C   0  0  1  0  0  0  0  0  0  0  0  0
   16.8725   -8.0390   -8.5929 O   0  0  0  0  0  0  0  0  0  0  0  0
   15.3445   -7.5370  -10.3207 C   0  0  2  0  0  0  0  0  0  0  0  0
   15.1562   -8.9928  -10.2825 N   0  0  0  0  0  0  0  0  0  0  0  0
   16.2313   -7.1408  -11.4018 C   0  0  0  0  0  0  0  0  0  0  0  0
   16.8863   -8.0912  -11.9804 O   0  0  0  0  0  0  0  0  0  0  0  0
   15.2535   -5.5041  -14.4357 C   0  0  0  0  0  0  0  0  0  0  0  0
   16.6506   -6.0769  -14.3356 C   0  0  1  0  0  0  0  0  0  0  0  0
   17.4286   -5.6740  -15.5529 C   0  0  0  0  0  0  0  0  0  0  0  0
   17.2475   -5.5057  -13.0735 C   0  0  2  0  0  0  0  0  0  0  0  0
   16.4708   -5.8563  -11.9033 N   0  0  0  0  0  0  0  0  0  0  0  0
   17.2893   -4.0039  -13.1419 C   0  0  0  0  0  0  0  0  0  0  0  0
   16.3756   -3.2771  -12.4208 O   0  0  0  0  0  0  0  0  0  0  0  0
   18.1359   -3.4050  -13.8385 O   0  0  0  0  0  0  0  0  0  0  0  0
  2  1  1  6
  3  2  1  0
  4  3  1  0
  4  5  1  0
  5  6  2  0
  7  2  1  0
  7  8  2  0
  9  5  1  0
 11 10  1  1
 11 12  1  0
 11 13  1  0
 13 14  1  1
 14  7  1  0
 15 21  1  0
 15 13  1  0
 16 15  2  0
 18 17  1  6
 18 20  1  0
 19 18  1  0
 20 21  1  1
 20 22  1  0
 22 23  1  0
 24 22  2  0
M  END
$$$$
