ETV.pdb
     RDKit          3D

 24 23  0  0  1  0  0  0  0  0999 V2000
   20.0182  -19.8470  -17.3154 N   0  0  0  0  0  0  0  0  0  0  0  0
   20.4883  -19.6578  -15.9291 C   0  0  1  0  0  0  0  0  0  0  0  0
   19.3900  -20.1551  -15.0598 C   0  0  0  0  0  0  0  0  0  0  0  0
   18.0678  -19.5706  -15.4808 C   0  0  0  0  0  0  0  0  0  0  0  0
   17.0580  -20.6600  -15.2968 C   0  0  0  0  0  0  0  0  0  0  0  0
   16.1451  -20.8092  -16.1333 O   0  0  0  0  0  0  0  0  0  0  0  0
   21.7797  -20.3430  -15.7944 C   0  0  0  0  0  0  0  0  0  0  0  0
   22.0595  -21.3371  -16.5555 O   0  0  0  0  0  0  0  0  0  0  0  0
   17.1678  -21.4796  -14.1979 O   0  0  0  0  0  0  0  0  0  0  0  0
   26.1759  -20.8476  -16.1722 C   0  0  0  0  0  0  0  0  0  0  0  0
   24.7319  -20.4187  -16.1260 C   0  0  1  0  0  0  0  0  0  0  0  0
   24.0777  -21.2655  -17.0588 O   0  0  0  0  0  0  0  0  0  0  0  0
   24.1009  -20.6406  -14.7826 C   0  0  2  0  0  0  0  0  0  0  0  0
   22.7834  -19.9988  -14.8742 N   0  0  0  0  0  0  0  0  0  0  0  0
   24.8581  -20.1467  -13.6446 C   0  0  0  0  0  0  0  0  0  0  0  0
   24.2346  -19.3431  -12.8493 O   0  0  0  0  0  0  0  0  0  0  0  0
   26.3089  -22.2883  -11.1064 C   0  0  0  0  0  0  0  0  0  0  0  0
   26.1614  -20.8003  -10.8729 C   0  0  1  0  0  0  0  0  0  0  0  0
   26.8121  -20.4470   -9.5685 C   0  0  0  0  0  0  0  0  0  0  0  0
   26.8387  -20.1248  -12.0392 C   0  0  2  0  0  0  0  0  0  0  0  0
   26.1831  -20.4291  -13.2934 N   0  0  0  0  0  0  0  0  0  0  0  0
   28.2643  -20.5878  -12.1625 C   0  0  0  0  0  0  0  0  0  0  0  0
   29.2459  -19.9165  -11.4776 O   0  0  0  0  0  0  0  0  0  0  0  0
   28.5737  -21.5682  -12.8724 O   0  0  0  0  0  0  0  0  0  0  0  0
  2  1  1  6
  3  2  1  0
  4  3  1  0
  4  5  1  0
  5  6  2  0
  7  2  1  0
  7  8  2  0
  9  5  1  0
 11 10  1  1
 11 12  1  0
 11 13  1  0
 13 14  1  6
 14  7  1  0
 15 21  1  0
 15 13  1  0
 16 15  2  0
 18 17  1  6
 18 20  1  0
 19 18  1  0
 20 21  1  6
 20 22  1  0
 22 23  1  0
 24 22  2  0
M  END
$$$$
