ETV.pdb
     RDKit          3D

 24 23  0  0  1  0  0  0  0  0999 V2000
   20.4927  -13.0006  -17.3411 N   0  0  0  0  0  0  0  0  0  0  0  0
   20.0748  -11.5945  -17.5047 C   0  0  1  0  0  0  0  0  0  0  0  0
   18.6608  -11.5389  -17.0497 C   0  0  0  0  0  0  0  0  0  0  0  0
   17.7761  -12.3590  -17.9508 C   0  0  0  0  0  0  0  0  0  0  0  0
   16.4000  -12.2709  -17.3686 C   0  0  0  0  0  0  0  0  0  0  0  0
   15.5794  -11.4548  -17.8335 O   0  0  0  0  0  0  0  0  0  0  0  0
   21.0248  -10.7537  -16.7657 C   0  0  0  0  0  0  0  0  0  0  0  0
   21.4297  -11.1149  -15.6032 O   0  0  0  0  0  0  0  0  0  0  0  0
   16.0726  -13.1055  -16.3257 O   0  0  0  0  0  0  0  0  0  0  0  0
   24.3676   -9.6229  -17.7609 C   0  0  0  0  0  0  0  0  0  0  0  0
   23.6010   -8.3809  -17.3855 C   0  0  1  0  0  0  0  0  0  0  0  0
   23.0675   -7.9058  -18.6122 O   0  0  0  0  0  0  0  0  0  0  0  0
   22.4515   -8.6625  -16.4628 C   0  0  2  0  0  0  0  0  0  0  0  0
   21.5587   -9.5405  -17.2299 N   0  0  0  0  0  0  0  0  0  0  0  0
   21.7492   -7.4933  -15.9606 C   0  0  0  0  0  0  0  0  0  0  0  0
   20.6942   -7.1365  -16.6137 O   0  0  0  0  0  0  0  0  0  0  0  0
   19.4234   -7.0674  -13.9055 C   0  0  0  0  0  0  0  0  0  0  0  0
   20.3340   -6.0531  -13.2480 C   0  0  1  0  0  0  0  0  0  0  0  0
   21.0461   -6.7106  -12.1034 C   0  0  0  0  0  0  0  0  0  0  0  0
   21.2938   -5.5968  -14.3185 C   0  0  2  0  0  0  0  0  0  0  0  0
   22.0668   -6.6973  -14.8541 N   0  0  0  0  0  0  0  0  0  0  0  0
   22.2722   -4.6003  -13.7605 C   0  0  0  0  0  0  0  0  0  0  0  0
   21.8407   -3.3297  -13.4733 O   0  0  0  0  0  0  0  0  0  0  0  0
   23.4663   -4.9033  -13.5525 O   0  0  0  0  0  0  0  0  0  0  0  0
  2  1  1  1
  3  2  1  0
  4  3  1  0
  4  5  1  0
  5  6  2  0
  7  2  1  0
  7  8  2  0
  9  5  1  0
 11 10  1  6
 11 12  1  0
 11 13  1  0
 13 14  1  6
 14  7  1  0
 15 21  1  0
 15 13  1  0
 16 15  2  0
 18 17  1  6
 18 20  1  0
 19 18  1  0
 20 21  1  1
 20 22  1  0
 22 23  1  0
 24 22  2  0
M  END
$$$$
