ETV.pdb
     RDKit          3D

 24 23  0  0  1  0  0  0  0  0999 V2000
   19.2351  -15.5923  -18.7967 N   0  0  0  0  0  0  0  0  0  0  0  0
   18.6461  -14.6154  -17.8601 C   0  0  1  0  0  0  0  0  0  0  0  0
   18.5785  -15.3071  -16.5462 C   0  0  0  0  0  0  0  0  0  0  0  0
   17.5048  -16.3627  -16.5517 C   0  0  0  0  0  0  0  0  0  0  0  0
   16.3191  -15.7483  -15.8757 C   0  0  0  0  0  0  0  0  0  0  0  0
   15.2376  -15.6468  -16.4885 O   0  0  0  0  0  0  0  0  0  0  0  0
   19.4637  -13.3970  -17.9076 C   0  0  0  0  0  0  0  0  0  0  0  0
   20.7329  -13.4837  -18.0737 O   0  0  0  0  0  0  0  0  0  0  0  0
   16.4553  -15.3098  -14.5794 O   0  0  0  0  0  0  0  0  0  0  0  0
   18.7812  -10.4466  -20.0737 C   0  0  0  0  0  0  0  0  0  0  0  0
   19.0215   -9.9135  -18.6847 C   0  0  1  0  0  0  0  0  0  0  0  0
   17.7235   -9.7674  -18.1287 O   0  0  0  0  0  0  0  0  0  0  0  0
   19.7877  -10.8696  -17.8182 C   0  0  2  0  0  0  0  0  0  0  0  0
   18.9689  -12.0882  -17.7860 N   0  0  0  0  0  0  0  0  0  0  0  0
   20.0932  -10.3955  -16.4788 C   0  0  0  0  0  0  0  0  0  0  0  0
   19.1989  -10.6208  -15.5753 O   0  0  0  0  0  0  0  0  0  0  0  0
   22.8156  -11.3343  -14.2804 C   0  0  0  0  0  0  0  0  0  0  0  0
   22.8947   -9.8237  -14.2348 C   0  0  1  0  0  0  0  0  0  0  0  0
   23.9892   -9.3672  -15.1530 C   0  0  0  0  0  0  0  0  0  0  0  0
   21.5436   -9.3205  -14.6782 C   0  0  2  0  0  0  0  0  0  0  0  0
   21.2373   -9.7226  -16.0348 N   0  0  0  0  0  0  0  0  0  0  0  0
   21.5023   -7.8176  -14.6432 C   0  0  0  0  0  0  0  0  0  0  0  0
   21.4214   -7.1800  -13.4308 O   0  0  0  0  0  0  0  0  0  0  0  0
   21.5405   -7.1384  -15.6911 O   0  0  0  0  0  0  0  0  0  0  0  0
  2  1  1  6
  3  2  1  0
  4  3  1  0
  4  5  1  0
  5  6  2  0
  7  2  1  0
  7  8  2  0
  9  5  1  0
 11 10  1  6
 11 12  1  0
 11 13  1  0
 13 14  1  1
 14  7  1  0
 15 21  1  0
 15 13  1  0
 16 15  2  0
 18 17  1  6
 18 20  1  0
 19 18  1  0
 20 21  1  6
 20 22  1  0
 22 23  1  0
 24 22  2  0
M  END
$$$$
