ETV.pdb
     RDKit          3D

 24 23  0  0  1  0  0  0  0  0999 V2000
   14.6352  -11.2320  -15.8510 N   0  0  0  0  0  0  0  0  0  0  0  0
   15.8800  -11.0360  -15.0824 C   0  0  1  0  0  0  0  0  0  0  0  0
   16.7157  -12.2342  -15.3566 C   0  0  0  0  0  0  0  0  0  0  0  0
   16.1523  -13.4487  -14.6676 C   0  0  0  0  0  0  0  0  0  0  0  0
   17.0707  -14.5800  -15.0097 C   0  0  0  0  0  0  0  0  0  0  0  0
   18.1018  -14.3635  -15.6772 O   0  0  0  0  0  0  0  0  0  0  0  0
   16.4539   -9.7437  -15.4775 C   0  0  0  0  0  0  0  0  0  0  0  0
   15.9870   -9.1206  -16.4970 O   0  0  0  0  0  0  0  0  0  0  0  0
   16.7503  -15.8430  -14.5701 O   0  0  0  0  0  0  0  0  0  0  0  0
   17.3070   -5.4008  -15.1860 C   0  0  0  0  0  0  0  0  0  0  0  0
   16.8951   -6.8504  -15.1762 C   0  0  1  0  0  0  0  0  0  0  0  0
   16.1780   -7.0262  -16.3887 O   0  0  0  0  0  0  0  0  0  0  0  0
   18.0661   -7.7889  -15.1947 C   0  0  2  0  0  0  0  0  0  0  0  0
   17.5093   -9.0940  -14.8167 N   0  0  0  0  0  0  0  0  0  0  0  0
   19.1820   -7.4165  -14.3413 C   0  0  0  0  0  0  0  0  0  0  0  0
   18.9320   -7.3355  -13.0772 O   0  0  0  0  0  0  0  0  0  0  0  0
   22.3005   -9.2564  -14.0319 C   0  0  0  0  0  0  0  0  0  0  0  0
   22.7923   -7.8355  -14.2038 C   0  0  1  0  0  0  0  0  0  0  0  0
   23.2113   -7.6364  -15.6301 C   0  0  0  0  0  0  0  0  0  0  0  0
   21.6346   -6.9440  -13.8292 C   0  0  2  0  0  0  0  0  0  0  0  0
   20.5018   -7.1326  -14.7105 N   0  0  0  0  0  0  0  0  0  0  0  0
   22.0310   -5.4963  -13.9233 C   0  0  0  0  0  0  0  0  0  0  0  0
   22.7973   -4.9477  -12.9259 O   0  0  0  0  0  0  0  0  0  0  0  0
   21.6793   -4.7841  -14.8876 O   0  0  0  0  0  0  0  0  0  0  0  0
  2  1  1  6
  3  2  1  0
  4  3  1  0
  4  5  1  0
  5  6  2  0
  7  2  1  0
  7  8  2  0
  9  5  1  0
 11 10  1  6
 11 12  1  0
 11 13  1  0
 13 14  1  1
 14  7  1  0
 15 21  1  0
 15 13  1  0
 16 15  2  0
 18 17  1  6
 18 20  1  0
 19 18  1  0
 20 21  1  6
 20 22  1  0
 22 23  1  0
 24 22  2  0
M  END
$$$$
