ETV.pdb
     RDKit          3D

 24 23  0  0  1  0  0  0  0  0999 V2000
   17.2559  -11.9790  -16.5823 N   0  0  0  0  0  0  0  0  0  0  0  0
   17.9532  -10.8228  -17.1786 C   0  0  1  0  0  0  0  0  0  0  0  0
   16.9097   -9.7839  -17.3817 C   0  0  0  0  0  0  0  0  0  0  0  0
   16.3971   -9.8097  -18.7972 C   0  0  0  0  0  0  0  0  0  0  0  0
   17.0540   -8.6597  -19.4946 C   0  0  0  0  0  0  0  0  0  0  0  0
   17.6403   -8.8437  -20.5799 O   0  0  0  0  0  0  0  0  0  0  0  0
   19.0629  -10.4588  -16.2891 C   0  0  0  0  0  0  0  0  0  0  0  0
   18.9757  -10.6879  -15.0298 O   0  0  0  0  0  0  0  0  0  0  0  0
   16.9896   -7.4148  -18.9137 O   0  0  0  0  0  0  0  0  0  0  0  0
   23.7929   -9.6898  -15.4886 C   0  0  0  0  0  0  0  0  0  0  0  0
   22.5784  -10.0399  -16.3093 C   0  0  1  0  0  0  0  0  0  0  0  0
   22.4329  -11.4432  -16.1515 O   0  0  0  0  0  0  0  0  0  0  0  0
   21.3251   -9.3882  -15.8025 C   0  0  2  0  0  0  0  0  0  0  0  0
   20.2646   -9.8602  -16.7017 N   0  0  0  0  0  0  0  0  0  0  0  0
   21.3579   -7.9370  -15.7301 C   0  0  0  0  0  0  0  0  0  0  0  0
   21.5260   -7.3131  -16.8479 O   0  0  0  0  0  0  0  0  0  0  0  0
   19.3617   -5.2664  -15.7739 C   0  0  0  0  0  0  0  0  0  0  0  0
   20.0682   -4.9680  -14.4693 C   0  0  1  0  0  0  0  0  0  0  0  0
   19.2236   -5.4676  -13.3350 C   0  0  0  0  0  0  0  0  0  0  0  0
   21.3945   -5.6830  -14.5388 C   0  0  2  0  0  0  0  0  0  0  0  0
   21.2297   -7.1199  -14.6011 N   0  0  0  0  0  0  0  0  0  0  0  0
   22.2194   -5.3858  -13.3170 C   0  0  0  0  0  0  0  0  0  0  0  0
   22.8479   -4.1701  -13.2153 O   0  0  0  0  0  0  0  0  0  0  0  0
   22.3441   -6.2189  -12.3944 O   0  0  0  0  0  0  0  0  0  0  0  0
  2  1  1  1
  3  2  1  0
  4  3  1  0
  4  5  1  0
  5  6  2  0
  7  2  1  0
  7  8  2  0
  9  5  1  0
 11 10  1  1
 11 12  1  0
 11 13  1  0
 13 14  1  6
 14  7  1  0
 15 21  1  0
 15 13  1  0
 16 15  2  0
 18 17  1  6
 18 20  1  0
 19 18  1  0
 20 21  1  1
 20 22  1  0
 22 23  1  0
 24 22  2  0
M  END
$$$$
