ETV.pdb
     RDKit          3D

 24 23  0  0  1  0  0  0  0  0999 V2000
   15.0640  -13.3906  -14.7952 N   0  0  0  0  0  0  0  0  0  0  0  0
   16.2056  -14.0563  -15.4526 C   0  0  1  0  0  0  0  0  0  0  0  0
   15.6105  -15.0019  -16.4330 C   0  0  0  0  0  0  0  0  0  0  0  0
   14.6784  -15.9662  -15.7486 C   0  0  0  0  0  0  0  0  0  0  0  0
   14.0950  -16.8161  -16.8338 C   0  0  0  0  0  0  0  0  0  0  0  0
   12.9464  -16.5800  -17.2587 O   0  0  0  0  0  0  0  0  0  0  0  0
   17.0762  -13.0128  -16.0079 C   0  0  0  0  0  0  0  0  0  0  0  0
   17.9734  -13.3202  -16.8718 O   0  0  0  0  0  0  0  0  0  0  0  0
   14.8524  -17.8455  -17.3417 O   0  0  0  0  0  0  0  0  0  0  0  0
   15.9027  -10.0128  -17.7650 C   0  0  0  0  0  0  0  0  0  0  0  0
   16.8553   -9.5382  -16.6979 C   0  0  1  0  0  0  0  0  0  0  0  0
   16.0267   -9.2501  -15.5818 O   0  0  0  0  0  0  0  0  0  0  0  0
   17.8365  -10.5946  -16.2812 C   0  0  2  0  0  0  0  0  0  0  0  0
   17.0177  -11.6503  -15.6720 N   0  0  0  0  0  0  0  0  0  0  0  0
   18.8916  -10.1523  -15.3849 C   0  0  0  0  0  0  0  0  0  0  0  0
   18.5770  -10.0552  -14.1365 O   0  0  0  0  0  0  0  0  0  0  0  0
   23.5846   -9.4808  -14.1368 C   0  0  0  0  0  0  0  0  0  0  0  0
   22.6007   -9.9749  -15.1751 C   0  0  1  0  0  0  0  0  0  0  0  0
   22.6078  -11.4748  -15.1751 C   0  0  0  0  0  0  0  0  0  0  0  0
   21.2564   -9.4200  -14.7750 C   0  0  2  0  0  0  0  0  0  0  0  0
   20.2136   -9.8157  -15.6977 N   0  0  0  0  0  0  0  0  0  0  0  0
   21.2881   -7.9165  -14.7631 C   0  0  0  0  0  0  0  0  0  0  0  0
   21.6647   -7.2657  -13.6150 O   0  0  0  0  0  0  0  0  0  0  0  0
   20.9806   -7.2485  -15.7731 O   0  0  0  0  0  0  0  0  0  0  0  0
  2  1  1  6
  3  2  1  0
  4  3  1  0
  4  5  1  0
  5  6  2  0
  7  2  1  0
  7  8  2  0
  9  5  1  0
 11 10  1  6
 11 12  1  0
 11 13  1  0
 13 14  1  1
 14  7  1  0
 15 21  1  0
 15 13  1  0
 16 15  2  0
 18 17  1  1
 18 20  1  0
 19 18  1  0
 20 21  1  6
 20 22  1  0
 22 23  1  0
 24 22  2  0
M  END
$$$$
