WMY.pdb
     RDKit          3D

 35 37  0  0  1  0  0  0  0  0999 V2000
   25.5588  -20.6525  -17.3011 N   0  0  0  0  0  0  0  0  0  0  0  0
   26.4020  -19.8257  -16.4692 C   0  0  1  0  0  0  0  0  0  0  0  0
   25.6990  -18.5153  -16.1865 C   0  0  0  0  0  0  0  0  0  0  0  0
   25.7815  -17.5427  -17.2961 C   0  0  0  0  0  0  0  0  0  0  0  0
   24.6613  -16.9832  -17.9256 C   0  0  0  0  0  0  0  0  0  0  0  0
   25.0814  -16.1214  -18.8635 N   0  0  0  0  0  0  0  0  0  0  0  0
   26.4330  -16.0700  -18.9004 C   0  0  0  0  0  0  0  0  0  0  0  0
   27.3137  -15.3550  -19.6798 C   0  0  0  0  0  0  0  0  0  0  0  0
   28.6549  -15.5551  -19.4527 C   0  0  0  0  0  0  0  0  0  0  0  0
   29.1312  -16.4205  -18.5009 C   0  0  0  0  0  0  0  0  0  0  0  0
   28.2070  -17.1221  -17.7359 C   0  0  0  0  0  0  0  0  0  0  0  0
   26.8656  -16.9673  -17.9120 C   0  0  0  0  0  0  0  0  0  0  0  0
   26.5536  -20.5063  -15.1564 C   0  0  0  0  0  0  0  0  0  0  0  0
   25.6474  -21.2470  -14.7416 O   0  0  0  0  0  0  0  0  0  0  0  0
   31.0601  -22.2530   -8.9554 C   0  0  0  0  0  0  0  0  0  0  0  0
   30.9910  -21.5876  -10.6567 S   0  0  0  0  0  0  0  0  0  0  0  0
   29.2382  -21.4688  -11.1713 C   0  0  0  0  0  0  0  0  0  0  0  0
   29.2535  -20.8543  -12.5743 C   0  0  0  0  0  0  0  0  0  0  0  0
   27.8022  -20.9449  -13.0679 C   0  0  2  0  0  0  0  0  0  0  0  0
   27.7349  -20.3221  -14.3567 N   0  0  0  0  0  0  0  0  0  0  0  0
   26.8796  -20.3011  -12.1153 C   0  0  0  0  0  0  0  0  0  0  0  0
   26.7267  -19.0329  -12.1845 O   0  0  0  0  0  0  0  0  0  0  0  0
   20.6662  -22.5447  -13.8235 O   0  0  0  0  0  0  0  0  0  0  0  0
   21.5498  -21.7821  -13.0785 C   0  0  0  0  0  0  0  0  0  0  0  0
   21.4568  -21.7080  -11.6971 C   0  0  0  0  0  0  0  0  0  0  0  0
   22.3296  -20.9536  -10.9484 C   0  0  0  0  0  0  0  0  0  0  0  0
   23.3185  -20.2591  -11.6161 C   0  0  0  0  0  0  0  0  0  0  0  0
   24.2930  -19.3953  -10.9160 C   0  0  0  0  0  0  0  0  0  0  0  0
   25.3038  -20.2249  -10.2074 C   0  0  2  0  0  0  0  0  0  0  0  0
   26.1427  -20.9768  -11.1223 N   0  0  0  0  0  0  0  0  0  0  0  0
   24.7288  -21.1090   -9.1787 C   0  0  0  0  0  0  0  0  0  0  0  0
   23.9463  -20.7065   -8.2992 O   0  0  0  0  0  0  0  0  0  0  0  0
   23.4007  -20.3414  -12.9973 C   0  0  0  0  0  0  0  0  0  0  0  0
   22.5274  -21.0960  -13.7431 C   0  0  0  0  0  0  0  0  0  0  0  0
   25.0745  -22.4512   -9.1896 O   0  0  0  0  0  0  0  0  0  0  0  0
  2  1  1  6
  2  3  1  0
  4  3  1  0
  5  4  2  0
  6  5  1  0
  7  6  1  0
  7 12  2  0
  8  9  2  0
  8  7  1  0
  9 10  1  0
 10 11  2  0
 12 11  1  0
 12  4  1  0
 13 14  2  0
 13  2  1  0
 15 16  1  0
 16 17  1  0
 17 18  1  0
 19 18  1  1
 19 20  1  0
 20 13  1  0
 21 19  1  0
 22 21  2  0
 23 24  1  0
 24 34  2  0
 25 24  1  0
 25 26  2  0
 26 27  1  0
 27 33  2  0
 27 28  1  0
 29 28  1  6
 29 30  1  0
 30 21  1  0
 31 29  1  0
 32 31  2  0
 34 33  1  0
 35 31  1  0
M  END
$$$$
