WMY.pdb
     RDKit          3D

 35 37  0  0  1  0  0  0  0  0999 V2000
   25.8930  -21.5410  -13.8185 N   0  0  0  0  0  0  0  0  0  0  0  0
   25.6394  -20.4795  -12.8723 C   0  0  1  0  0  0  0  0  0  0  0  0
   24.5177  -19.6038  -13.3882 C   0  0  0  0  0  0  0  0  0  0  0  0
   24.7887  -19.0055  -14.7120 C   0  0  0  0  0  0  0  0  0  0  0  0
   23.8683  -19.0044  -15.7688 C   0  0  0  0  0  0  0  0  0  0  0  0
   24.4119  -18.3587  -16.8112 N   0  0  0  0  0  0  0  0  0  0  0  0
   25.6572  -17.9224  -16.5120 C   0  0  0  0  0  0  0  0  0  0  0  0
   26.5979  -17.2296  -17.2398 C   0  0  0  0  0  0  0  0  0  0  0  0
   27.7910  -16.9512  -16.6158 C   0  0  0  0  0  0  0  0  0  0  0  0
   28.0673  -17.3309  -15.3269 C   0  0  0  0  0  0  0  0  0  0  0  0
   27.0891  -18.0284  -14.6282 C   0  0  0  0  0  0  0  0  0  0  0  0
   25.8869  -18.3337  -15.1901 C   0  0  0  0  0  0  0  0  0  0  0  0
   25.1380  -21.0988  -11.6174 C   0  0  0  0  0  0  0  0  0  0  0  0
   24.4423  -22.1257  -11.6760 O   0  0  0  0  0  0  0  0  0  0  0  0
   29.8310  -20.4698   -7.0384 C   0  0  0  0  0  0  0  0  0  0  0  0
   28.0413  -20.2382   -6.7461 S   0  0  0  0  0  0  0  0  0  0  0  0
   27.1160  -20.9904   -8.1349 C   0  0  0  0  0  0  0  0  0  0  0  0
   25.6553  -20.5719   -7.9416 C   0  0  0  0  0  0  0  0  0  0  0  0
   24.9097  -21.1443   -9.1559 C   0  0  2  0  0  0  0  0  0  0  0  0
   25.4461  -20.5284  -10.3334 N   0  0  0  0  0  0  0  0  0  0  0  0
   23.4590  -20.9082   -9.0438 C   0  0  0  0  0  0  0  0  0  0  0  0
   22.9500  -19.9423   -9.7105 O   0  0  0  0  0  0  0  0  0  0  0  0
   18.8043  -26.3542  -11.0388 O   0  0  0  0  0  0  0  0  0  0  0  0
   19.2532  -25.0893  -10.6985 C   0  0  0  0  0  0  0  0  0  0  0  0
   20.3072  -24.4893  -11.3704 C   0  0  0  0  0  0  0  0  0  0  0  0
   20.7602  -23.2335  -11.0400 C   0  0  0  0  0  0  0  0  0  0  0  0
   20.1300  -22.5720  -10.0049 C   0  0  0  0  0  0  0  0  0  0  0  0
   20.5510  -21.2309   -9.5465 C   0  0  0  0  0  0  0  0  0  0  0  0
   21.1689  -21.3163   -8.1964 C   0  0  2  0  0  0  0  0  0  0  0  0
   22.5756  -21.6692   -8.2526 N   0  0  0  0  0  0  0  0  0  0  0  0
   20.4444  -22.2018   -7.2682 C   0  0  0  0  0  0  0  0  0  0  0  0
   20.9872  -23.1499   -6.6729 O   0  0  0  0  0  0  0  0  0  0  0  0
   19.0775  -23.1828   -9.3412 C   0  0  0  0  0  0  0  0  0  0  0  0
   18.6267  -24.4376   -9.6733 C   0  0  0  0  0  0  0  0  0  0  0  0
   19.0960  -21.9698   -7.0471 O   0  0  0  0  0  0  0  0  0  0  0  0
  2  1  1  6
  2  3  1  0
  4  3  1  0
  5  4  2  0
  6  5  1  0
  7  6  1  0
  7 12  2  0
  8  9  2  0
  8  7  1  0
  9 10  1  0
 10 11  2  0
 12 11  1  0
 12  4  1  0
 13 14  2  0
 13  2  1  0
 15 16  1  0
 16 17  1  0
 17 18  1  0
 19 18  1  1
 19 20  1  0
 20 13  1  0
 21 19  1  0
 22 21  2  0
 23 24  1  0
 24 34  2  0
 25 24  1  0
 25 26  2  0
 26 27  1  0
 27 33  2  0
 27 28  1  0
 29 28  1  6
 29 30  1  0
 30 21  1  0
 31 29  1  0
 32 31  2  0
 34 33  1  0
 35 31  1  0
M  END
$$$$
