WMY.pdb
     RDKit          3D

 35 37  0  0  1  0  0  0  0  0999 V2000
   27.1448  -20.4711  -11.3319 N   0  0  0  0  0  0  0  0  0  0  0  0
   26.3139  -21.6450  -11.1970 C   0  0  1  0  0  0  0  0  0  0  0  0
   25.5733  -21.5877   -9.8782 C   0  0  0  0  0  0  0  0  0  0  0  0
   26.1894  -20.6811   -8.8870 C   0  0  0  0  0  0  0  0  0  0  0  0
   25.8159  -19.3407   -8.7204 C   0  0  0  0  0  0  0  0  0  0  0  0
   26.5428  -18.8130   -7.7243 N   0  0  0  0  0  0  0  0  0  0  0  0
   27.3917  -19.7313   -7.2078 C   0  0  0  0  0  0  0  0  0  0  0  0
   28.3244  -19.6685   -6.1977 C   0  0  0  0  0  0  0  0  0  0  0  0
   29.0376  -20.8137   -5.9327 C   0  0  0  0  0  0  0  0  0  0  0  0
   28.8553  -21.9849   -6.6232 C   0  0  0  0  0  0  0  0  0  0  0  0
   27.9028  -22.0042   -7.6352 C   0  0  0  0  0  0  0  0  0  0  0  0
   27.1636  -20.9034   -7.9450 C   0  0  0  0  0  0  0  0  0  0  0  0
   25.2748  -21.5912  -12.2586 C   0  0  0  0  0  0  0  0  0  0  0  0
   25.4268  -20.8294  -13.2273 O   0  0  0  0  0  0  0  0  0  0  0  0
   23.5579  -25.4166  -18.0556 C   0  0  0  0  0  0  0  0  0  0  0  0
   24.5359  -24.8662  -16.6125 S   0  0  0  0  0  0  0  0  0  0  0  0
   23.4875  -23.7893  -15.5673 C   0  0  0  0  0  0  0  0  0  0  0  0
   24.3292  -23.4555  -14.3319 C   0  0  0  0  0  0  0  0  0  0  0  0
   23.3782  -22.7034  -13.3896 C   0  0  2  0  0  0  0  0  0  0  0  0
   24.0938  -22.4090  -12.1835 N   0  0  0  0  0  0  0  0  0  0  0  0
   22.1701  -23.5013  -13.1121 C   0  0  0  0  0  0  0  0  0  0  0  0
   22.2835  -24.7748  -13.0670 O   0  0  0  0  0  0  0  0  0  0  0  0
   16.9035  -24.4376   -6.4620 O   0  0  0  0  0  0  0  0  0  0  0  0
   17.6261  -23.9133   -7.5203 C   0  0  0  0  0  0  0  0  0  0  0  0
   17.0066  -23.2141   -8.5449 C   0  0  0  0  0  0  0  0  0  0  0  0
   17.7156  -22.6895   -9.6003 C   0  0  0  0  0  0  0  0  0  0  0  0
   19.0831  -22.8786   -9.6164 C   0  0  0  0  0  0  0  0  0  0  0  0
   19.9403  -22.3832  -10.7144 C   0  0  0  0  0  0  0  0  0  0  0  0
   20.0977  -23.4294  -11.7597 C   0  0  2  0  0  0  0  0  0  0  0  0
   20.8844  -22.9695  -12.8892 N   0  0  0  0  0  0  0  0  0  0  0  0
   18.8221  -24.0106  -12.2130 C   0  0  0  0  0  0  0  0  0  0  0  0
   18.0495  -24.6244  -11.4553 O   0  0  0  0  0  0  0  0  0  0  0  0
   19.6903  -23.5795   -8.5861 C   0  0  0  0  0  0  0  0  0  0  0  0
   18.9797  -24.1026   -7.5327 C   0  0  0  0  0  0  0  0  0  0  0  0
   18.4648  -23.8683  -13.5446 O   0  0  0  0  0  0  0  0  0  0  0  0
  2  1  1  6
  2  3  1  0
  4  3  1  0
  5  4  2  0
  6  5  1  0
  7  6  1  0
  7 12  2  0
  8  9  2  0
  8  7  1  0
  9 10  1  0
 10 11  2  0
 12 11  1  0
 12  4  1  0
 13 14  2  0
 13  2  1  0
 15 16  1  0
 16 17  1  0
 17 18  1  0
 19 18  1  6
 19 20  1  0
 20 13  1  0
 21 19  1  0
 22 21  2  0
 23 24  1  0
 24 34  2  0
 25 24  1  0
 25 26  2  0
 26 27  1  0
 27 33  2  0
 27 28  1  0
 29 28  1  1
 29 30  1  0
 30 21  1  0
 31 29  1  0
 32 31  2  0
 34 33  1  0
 35 31  1  0
M  END
$$$$
