WMY.pdb
     RDKit          3D

 35 37  0  0  1  0  0  0  0  0999 V2000
   27.3421  -20.8156  -13.2975 N   0  0  0  0  0  0  0  0  0  0  0  0
   26.5917  -21.7820  -12.5297 C   0  0  1  0  0  0  0  0  0  0  0  0
   26.2504  -21.1938  -11.1775 C   0  0  0  0  0  0  0  0  0  0  0  0
   27.3977  -21.1293  -10.2483 C   0  0  0  0  0  0  0  0  0  0  0  0
   28.7076  -21.4787  -10.6035 C   0  0  0  0  0  0  0  0  0  0  0  0
   29.5075  -21.2778   -9.5458 N   0  0  0  0  0  0  0  0  0  0  0  0
   28.8027  -20.8095   -8.4901 C   0  0  0  0  0  0  0  0  0  0  0  0
   29.1688  -20.4652   -7.2088 C   0  0  0  0  0  0  0  0  0  0  0  0
   28.1723  -20.0235   -6.3707 C   0  0  0  0  0  0  0  0  0  0  0  0
   26.8609  -19.9179   -6.7589 C   0  0  0  0  0  0  0  0  0  0  0  0
   26.5351  -20.2758   -8.0617 C   0  0  0  0  0  0  0  0  0  0  0  0
   27.4765  -20.7195   -8.9400 C   0  0  0  0  0  0  0  0  0  0  0  0
   25.2960  -22.0067  -13.2229 C   0  0  0  0  0  0  0  0  0  0  0  0
   24.6286  -21.0321  -13.6059 O   0  0  0  0  0  0  0  0  0  0  0  0
   21.1095  -26.3677  -18.0549 C   0  0  0  0  0  0  0  0  0  0  0  0
   22.6584  -26.1721  -17.1038 S   0  0  0  0  0  0  0  0  0  0  0  0
   22.4980  -24.7116  -16.0119 C   0  0  0  0  0  0  0  0  0  0  0  0
   23.7806  -24.6700  -15.1756 C   0  0  0  0  0  0  0  0  0  0  0  0
   23.5852  -23.5011  -14.1990 C   0  0  2  0  0  0  0  0  0  0  0  0
   24.8013  -23.3365  -13.4591 N   0  0  0  0  0  0  0  0  0  0  0  0
   22.4432  -23.7493  -13.3006 C   0  0  0  0  0  0  0  0  0  0  0  0
   22.6867  -24.1318  -12.1043 O   0  0  0  0  0  0  0  0  0  0  0  0
   16.2640  -24.3303   -7.6632 O   0  0  0  0  0  0  0  0  0  0  0  0
   17.2554  -24.0386   -8.5849 C   0  0  0  0  0  0  0  0  0  0  0  0
   18.5073  -24.6303   -8.5143 C   0  0  0  0  0  0  0  0  0  0  0  0
   19.4983  -24.3474   -9.4250 C   0  0  0  0  0  0  0  0  0  0  0  0
   19.2128  -23.4440  -10.4292 C   0  0  0  0  0  0  0  0  0  0  0  0
   20.2102  -23.0444  -11.4449 C   0  0  0  0  0  0  0  0  0  0  0  0
   20.0501  -23.8623  -12.6766 C   0  0  2  0  0  0  0  0  0  0  0  0
   21.0881  -23.5976  -13.6558 N   0  0  0  0  0  0  0  0  0  0  0  0
   18.7144  -23.7561  -13.2889 C   0  0  0  0  0  0  0  0  0  0  0  0
   18.3472  -22.7665  -13.9475 O   0  0  0  0  0  0  0  0  0  0  0  0
   17.9574  -22.8594  -10.4887 C   0  0  0  0  0  0  0  0  0  0  0  0
   16.9688  -23.1438   -9.5777 C   0  0  0  0  0  0  0  0  0  0  0  0
   17.8244  -24.8059  -13.1247 O   0  0  0  0  0  0  0  0  0  0  0  0
  2  1  1  6
  2  3  1  0
  4  3  1  0
  5  4  2  0
  6  5  1  0
  7  6  1  0
  7 12  2  0
  8  9  2  0
  8  7  1  0
  9 10  1  0
 10 11  2  0
 12 11  1  0
 12  4  1  0
 13 14  2  0
 13  2  1  0
 15 16  1  0
 16 17  1  0
 17 18  1  0
 19 18  1  6
 19 20  1  0
 20 13  1  0
 21 19  1  0
 22 21  2  0
 23 24  1  0
 24 34  2  0
 25 24  1  0
 25 26  2  0
 26 27  1  0
 27 33  2  0
 27 28  1  0
 29 28  1  1
 29 30  1  0
 30 21  1  0
 31 29  1  0
 32 31  2  0
 34 33  1  0
 35 31  1  0
M  END
$$$$
