WMY.pdb
     RDKit          3D

 35 37  0  0  1  0  0  0  0  0999 V2000
   27.1992  -22.2653  -15.5931 N   0  0  0  0  0  0  0  0  0  0  0  0
   27.2053  -21.0728  -14.7780 C   0  0  1  0  0  0  0  0  0  0  0  0
   26.2203  -20.0723  -15.3437 C   0  0  0  0  0  0  0  0  0  0  0  0
   26.6656  -19.4449  -16.6055 C   0  0  0  0  0  0  0  0  0  0  0  0
   26.2716  -19.8868  -17.8758 C   0  0  0  0  0  0  0  0  0  0  0  0
   26.8247  -19.0868  -18.7994 N   0  0  0  0  0  0  0  0  0  0  0  0
   27.5754  -18.1239  -18.2162 C   0  0  0  0  0  0  0  0  0  0  0  0
   28.3286  -17.0941  -18.7325 C   0  0  0  0  0  0  0  0  0  0  0  0
   28.9866  -16.2885  -17.8333 C   0  0  0  0  0  0  0  0  0  0  0  0
   28.9192  -16.4724  -16.4757 C   0  0  0  0  0  0  0  0  0  0  0  0
   28.1469  -17.5242  -15.9972 C   0  0  0  0  0  0  0  0  0  0  0  0
   27.4705  -18.3565  -16.8363 C   0  0  0  0  0  0  0  0  0  0  0  0
   26.6956  -21.4399  -13.4308 C   0  0  0  0  0  0  0  0  0  0  0  0
   25.8063  -22.3000  -13.3253 O   0  0  0  0  0  0  0  0  0  0  0  0
   26.8328  -20.3107   -5.6461 C   0  0  0  0  0  0  0  0  0  0  0  0
   27.6610  -19.9822   -7.2424 S   0  0  0  0  0  0  0  0  0  0  0  0
   26.6151  -20.6382   -8.5940 C   0  0  0  0  0  0  0  0  0  0  0  0
   27.4279  -20.4565   -9.8795 C   0  0  0  0  0  0  0  0  0  0  0  0
   26.5454  -21.0315  -10.9969 C   0  0  2  0  0  0  0  0  0  0  0  0
   27.2165  -20.8153  -12.2444 N   0  0  0  0  0  0  0  0  0  0  0  0
   25.2119  -20.4031  -10.9923 C   0  0  0  0  0  0  0  0  0  0  0  0
   25.0794  -19.2613  -11.5540 O   0  0  0  0  0  0  0  0  0  0  0  0
   21.2722  -25.0109  -14.4655 O   0  0  0  0  0  0  0  0  0  0  0  0
   21.5902  -23.7980  -13.8782 C   0  0  0  0  0  0  0  0  0  0  0  0
   22.8839  -23.2997  -13.8993 C   0  0  0  0  0  0  0  0  0  0  0  0
   23.2097  -22.0961  -13.3189 C   0  0  0  0  0  0  0  0  0  0  0  0
   22.2006  -21.3825  -12.7036 C   0  0  0  0  0  0  0  0  0  0  0  0
   22.4414  -20.0918  -12.0240 C   0  0  0  0  0  0  0  0  0  0  0  0
   22.7705  -20.3154  -10.5909 C   0  0  2  0  0  0  0  0  0  0  0  0
   24.0565  -20.9642  -10.4129 N   0  0  0  0  0  0  0  0  0  0  0  0
   21.7181  -21.0275   -9.8455 C   0  0  0  0  0  0  0  0  0  0  0  0
   20.5251  -20.6744   -9.8526 O   0  0  0  0  0  0  0  0  0  0  0  0
   20.9115  -21.8917  -12.6894 C   0  0  0  0  0  0  0  0  0  0  0  0
   20.5885  -23.0945  -13.2700 C   0  0  0  0  0  0  0  0  0  0  0  0
   22.0713  -22.1421   -9.1012 O   0  0  0  0  0  0  0  0  0  0  0  0
  2  1  1  6
  2  3  1  0
  4  3  1  0
  5  4  2  0
  6  5  1  0
  7  6  1  0
  7 12  2  0
  8  9  2  0
  8  7  1  0
  9 10  1  0
 10 11  2  0
 12 11  1  0
 12  4  1  0
 13 14  2  0
 13  2  1  0
 15 16  1  0
 16 17  1  0
 17 18  1  0
 19 18  1  1
 19 20  1  0
 20 13  1  0
 21 19  1  0
 22 21  2  0
 23 24  1  0
 24 34  2  0
 25 24  1  0
 25 26  2  0
 26 27  1  0
 27 33  2  0
 27 28  1  0
 29 28  1  6
 29 30  1  0
 30 21  1  0
 31 29  1  0
 32 31  2  0
 34 33  1  0
 35 31  1  0
M  END
$$$$
