WMY.pdb
     RDKit          3D

 35 37  0  0  1  0  0  0  0  0999 V2000
   26.7351  -21.3413  -15.5999 N   0  0  0  0  0  0  0  0  0  0  0  0
   27.0329  -20.5249  -14.4460 C   0  0  1  0  0  0  0  0  0  0  0  0
   26.2880  -19.2117  -14.5537 C   0  0  0  0  0  0  0  0  0  0  0  0
   26.6805  -18.3973  -15.7227 C   0  0  0  0  0  0  0  0  0  0  0  0
   25.7657  -17.7337  -16.5515 C   0  0  0  0  0  0  0  0  0  0  0  0
   26.4466  -17.0648  -17.4937 N   0  0  0  0  0  0  0  0  0  0  0  0
   27.7794  -17.2435  -17.3439 C   0  0  0  0  0  0  0  0  0  0  0  0
   28.8638  -16.7771  -18.0517 C   0  0  0  0  0  0  0  0  0  0  0  0
   30.1086  -17.1707  -17.6205 C   0  0  0  0  0  0  0  0  0  0  0  0
   30.3002  -17.9907  -16.5376 C   0  0  0  0  0  0  0  0  0  0  0  0
   29.1775  -18.4383  -15.8513 C   0  0  0  0  0  0  0  0  0  0  0  0
   27.9181  -18.0832  -16.2282 C   0  0  0  0  0  0  0  0  0  0  0  0
   26.4866  -21.2143  -13.2477 C   0  0  0  0  0  0  0  0  0  0  0  0
   25.5209  -21.9851  -13.3710 O   0  0  0  0  0  0  0  0  0  0  0  0
   25.9468  -20.4202   -5.4351 C   0  0  0  0  0  0  0  0  0  0  0  0
   26.9334  -20.0906   -6.9384 S   0  0  0  0  0  0  0  0  0  0  0  0
   26.0775  -20.8300   -8.3778 C   0  0  0  0  0  0  0  0  0  0  0  0
   26.9921  -20.5843   -9.5816 C   0  0  0  0  0  0  0  0  0  0  0  0
   26.2176  -21.1269  -10.7915 C   0  0  2  0  0  0  0  0  0  0  0  0
   27.0590  -21.0042  -11.9450 N   0  0  0  0  0  0  0  0  0  0  0  0
   24.9494  -20.3985  -10.9761 C   0  0  0  0  0  0  0  0  0  0  0  0
   24.9788  -19.2806  -11.5974 O   0  0  0  0  0  0  0  0  0  0  0  0
   17.8096  -18.9013  -15.1213 O   0  0  0  0  0  0  0  0  0  0  0  0
   18.9559  -19.3779  -14.5080 C   0  0  0  0  0  0  0  0  0  0  0  0
   18.9526  -20.5612  -13.7854 C   0  0  0  0  0  0  0  0  0  0  0  0
   20.0859  -21.0429  -13.1728 C   0  0  0  0  0  0  0  0  0  0  0  0
   21.2479  -20.3077  -13.2962 C   0  0  0  0  0  0  0  0  0  0  0  0
   22.5171  -20.7155  -12.6567 C   0  0  0  0  0  0  0  0  0  0  0  0
   22.4840  -20.4110  -11.2013 C   0  0  2  0  0  0  0  0  0  0  0  0
   23.6913  -20.8383  -10.5186 N   0  0  0  0  0  0  0  0  0  0  0  0
   21.2857  -20.9252  -10.5156 C   0  0  0  0  0  0  0  0  0  0  0  0
   21.1947  -22.0917  -10.0929 O   0  0  0  0  0  0  0  0  0  0  0  0
   21.2380  -19.1265  -14.0213 C   0  0  0  0  0  0  0  0  0  0  0  0
   20.1044  -18.6473  -14.6325 C   0  0  0  0  0  0  0  0  0  0  0  0
   20.2093  -20.0715  -10.3323 O   0  0  0  0  0  0  0  0  0  0  0  0
  2  1  1  6
  2  3  1  0
  4  3  1  0
  5  4  2  0
  6  5  1  0
  7  6  1  0
  7 12  2  0
  8  9  2  0
  8  7  1  0
  9 10  1  0
 10 11  2  0
 12 11  1  0
 12  4  1  0
 13 14  2  0
 13  2  1  0
 15 16  1  0
 16 17  1  0
 17 18  1  0
 19 18  1  1
 19 20  1  0
 20 13  1  0
 21 19  1  0
 22 21  2  0
 23 24  1  0
 24 34  2  0
 25 24  1  0
 25 26  2  0
 26 27  1  0
 27 33  2  0
 27 28  1  0
 29 28  1  6
 29 30  1  0
 30 21  1  0
 31 29  1  0
 32 31  2  0
 34 33  1  0
 35 31  1  0
M  END
$$$$
