WMY.pdb
     RDKit          3D

 35 37  0  0  1  0  0  0  0  0999 V2000
   26.9598  -19.9088  -11.7329 N   0  0  0  0  0  0  0  0  0  0  0  0
   26.5233  -21.2818  -11.8374 C   0  0  1  0  0  0  0  0  0  0  0  0
   25.6434  -21.6210  -10.6534 C   0  0  0  0  0  0  0  0  0  0  0  0
   25.9908  -20.8826   -9.4212 C   0  0  0  0  0  0  0  0  0  0  0  0
   25.1958  -19.8674   -8.8720 C   0  0  0  0  0  0  0  0  0  0  0  0
   25.7769  -19.4291   -7.7454 N   0  0  0  0  0  0  0  0  0  0  0  0
   26.9281  -20.0981   -7.5047 C   0  0  0  0  0  0  0  0  0  0  0  0
   27.8622  -20.0058   -6.4980 C   0  0  0  0  0  0  0  0  0  0  0  0
   28.9435  -20.8521   -6.5684 C   0  0  0  0  0  0  0  0  0  0  0  0
   29.1174  -21.7606   -7.5814 C   0  0  0  0  0  0  0  0  0  0  0  0
   28.1498  -21.8206   -8.5773 C   0  0  0  0  0  0  0  0  0  0  0  0
   27.0557  -21.0100   -8.5636 C   0  0  0  0  0  0  0  0  0  0  0  0
   25.6591  -21.3940  -13.0416 C   0  0  0  0  0  0  0  0  0  0  0  0
   25.5509  -20.4254  -13.8109 O   0  0  0  0  0  0  0  0  0  0  0  0
   28.5165  -23.7352  -17.3712 C   0  0  0  0  0  0  0  0  0  0  0  0
   27.2054  -24.6628  -16.4980 S   0  0  0  0  0  0  0  0  0  0  0  0
   26.6115  -23.6566  -15.0887 C   0  0  0  0  0  0  0  0  0  0  0  0
   25.5292  -22.7344  -15.6581 C   0  0  0  0  0  0  0  0  0  0  0  0
   24.3822  -22.7843  -14.6384 C   0  0  2  0  0  0  0  0  0  0  0  0
   24.9450  -22.6084  -13.3324 N   0  0  0  0  0  0  0  0  0  0  0  0
   23.6453  -24.0574  -14.7348 C   0  0  0  0  0  0  0  0  0  0  0  0
   24.2284  -25.1252  -14.3394 O   0  0  0  0  0  0  0  0  0  0  0  0
   17.0161  -23.3223   -9.7548 O   0  0  0  0  0  0  0  0  0  0  0  0
   18.0670  -23.2171  -10.6503 C   0  0  0  0  0  0  0  0  0  0  0  0
   18.1157  -22.2030  -11.5946 C   0  0  0  0  0  0  0  0  0  0  0  0
   19.1551  -22.0900  -12.4881 C   0  0  0  0  0  0  0  0  0  0  0  0
   20.1673  -23.0266  -12.4221 C   0  0  0  0  0  0  0  0  0  0  0  0
   21.3181  -23.0187  -13.3502 C   0  0  0  0  0  0  0  0  0  0  0  0
   21.2054  -24.1379  -14.3232 C   0  0  2  0  0  0  0  0  0  0  0  0
   22.3346  -24.1964  -15.2330 N   0  0  0  0  0  0  0  0  0  0  0  0
   19.9337  -24.1507  -15.0668 C   0  0  0  0  0  0  0  0  0  0  0  0
   19.6822  -23.3597  -15.9936 O   0  0  0  0  0  0  0  0  0  0  0  0
   20.1068  -24.0355  -11.4735 C   0  0  0  0  0  0  0  0  0  0  0  0
   19.0672  -24.1462  -10.5817 C   0  0  0  0  0  0  0  0  0  0  0  0
   18.9717  -25.0860  -14.7190 O   0  0  0  0  0  0  0  0  0  0  0  0
  2  1  1  1
  2  3  1  0
  4  3  1  0
  5  4  2  0
  6  5  1  0
  7  6  1  0
  7 12  2  0
  8  9  2  0
  8  7  1  0
  9 10  1  0
 10 11  2  0
 12 11  1  0
 12  4  1  0
 13 14  2  0
 13  2  1  0
 15 16  1  0
 16 17  1  0
 17 18  1  0
 19 18  1  6
 19 20  1  0
 20 13  1  0
 21 19  1  0
 22 21  2  0
 23 24  1  0
 24 34  2  0
 25 24  1  0
 25 26  2  0
 26 27  1  0
 27 33  2  0
 27 28  1  0
 29 28  1  6
 29 30  1  0
 30 21  1  0
 31 29  1  0
 32 31  2  0
 34 33  1  0
 35 31  1  0
M  END
$$$$
