WMY.pdb
     RDKit          3D

 35 37  0  0  1  0  0  0  0  0999 V2000
   27.6550  -17.7107  -17.6486 N   0  0  0  0  0  0  0  0  0  0  0  0
   27.0085  -18.8839  -17.1078 C   0  0  1  0  0  0  0  0  0  0  0  0
   27.7392  -19.3299  -15.8595 C   0  0  0  0  0  0  0  0  0  0  0  0
   27.9982  -20.7839  -15.8074 C   0  0  0  0  0  0  0  0  0  0  0  0
   29.1347  -21.3923  -16.3575 C   0  0  0  0  0  0  0  0  0  0  0  0
   29.0780  -22.7096  -16.1118 N   0  0  0  0  0  0  0  0  0  0  0  0
   27.9573  -23.0238  -15.4219 C   0  0  0  0  0  0  0  0  0  0  0  0
   27.4607  -24.2185  -14.9523 C   0  0  0  0  0  0  0  0  0  0  0  0
   26.2603  -24.1772  -14.2832 C   0  0  0  0  0  0  0  0  0  0  0  0
   25.5601  -23.0163  -14.0743 C   0  0  0  0  0  0  0  0  0  0  0  0
   26.0981  -21.8325  -14.5650 C   0  0  0  0  0  0  0  0  0  0  0  0
   27.2833  -21.8072  -15.2350 C   0  0  0  0  0  0  0  0  0  0  0  0
   25.6434  -18.4903  -16.6707 C   0  0  0  0  0  0  0  0  0  0  0  0
   25.4431  -17.3404  -16.2471 O   0  0  0  0  0  0  0  0  0  0  0  0
   22.7308  -14.7353  -18.1973 C   0  0  0  0  0  0  0  0  0  0  0  0
   22.2661  -16.2499  -17.2853 S   0  0  0  0  0  0  0  0  0  0  0  0
   22.7765  -17.7081  -18.2672 C   0  0  0  0  0  0  0  0  0  0  0  0
   22.3158  -18.9327  -17.4707 C   0  0  0  0  0  0  0  0  0  0  0  0
   23.2596  -19.0032  -16.2615 C   0  0  2  0  0  0  0  0  0  0  0  0
   24.5476  -19.4202  -16.7309 N   0  0  0  0  0  0  0  0  0  0  0  0
   22.7389  -19.9287  -15.2390 C   0  0  0  0  0  0  0  0  0  0  0  0
   22.6417  -21.1686  -15.5387 O   0  0  0  0  0  0  0  0  0  0  0  0
   27.7271  -22.7265  -12.6262 O   0  0  0  0  0  0  0  0  0  0  0  0
   26.4742  -22.1744  -12.4194 C   0  0  0  0  0  0  0  0  0  0  0  0
   26.2884  -20.8018  -12.3578 C   0  0  0  0  0  0  0  0  0  0  0  0
   25.0481  -20.2439  -12.1530 C   0  0  0  0  0  0  0  0  0  0  0  0
   23.9728  -21.0975  -12.0073 C   0  0  0  0  0  0  0  0  0  0  0  0
   22.6001  -20.6095  -11.7551 C   0  0  0  0  0  0  0  0  0  0  0  0
   21.8278  -20.5592  -13.0251 C   0  0  2  0  0  0  0  0  0  0  0  0
   22.3346  -19.5548  -13.9419 N   0  0  0  0  0  0  0  0  0  0  0  0
   20.3759  -20.4037  -12.8298 C   0  0  0  0  0  0  0  0  0  0  0  0
   19.7734  -19.3363  -13.0439 O   0  0  0  0  0  0  0  0  0  0  0  0
   24.1719  -22.4677  -12.0708 C   0  0  0  0  0  0  0  0  0  0  0  0
   25.4122  -23.0228  -12.2756 C   0  0  0  0  0  0  0  0  0  0  0  0
   19.6458  -21.4954  -12.3868 O   0  0  0  0  0  0  0  0  0  0  0  0
  2  1  1  1
  2  3  1  0
  4  3  1  0
  5  4  2  0
  6  5  1  0
  7  6  1  0
  7 12  2  0
  8  9  2  0
  8  7  1  0
  9 10  1  0
 10 11  2  0
 12 11  1  0
 12  4  1  0
 13 14  2  0
 13  2  1  0
 15 16  1  0
 16 17  1  0
 17 18  1  0
 19 18  1  6
 19 20  1  0
 20 13  1  0
 21 19  1  0
 22 21  2  0
 23 24  1  0
 24 34  2  0
 25 24  1  0
 25 26  2  0
 26 27  1  0
 27 33  2  0
 27 28  1  0
 29 28  1  1
 29 30  1  0
 30 21  1  0
 31 29  1  0
 32 31  2  0
 34 33  1  0
 35 31  1  0
M  END
$$$$
