WMY.pdb
     RDKit          3D

 35 37  0  0  1  0  0  0  0  0999 V2000
   24.8556  -11.2889  -16.0401 N   0  0  0  0  0  0  0  0  0  0  0  0
   23.5750  -11.0095  -16.6471 C   0  0  1  0  0  0  0  0  0  0  0  0
   22.4693  -11.4865  -15.7300 C   0  0  0  0  0  0  0  0  0  0  0  0
   22.3659  -12.9577  -15.6354 C   0  0  0  0  0  0  0  0  0  0  0  0
   22.5604  -13.6770  -14.4484 C   0  0  0  0  0  0  0  0  0  0  0  0
   22.3646  -14.9800  -14.6989 N   0  0  0  0  0  0  0  0  0  0  0  0
   22.0472  -15.1788  -15.9990 C   0  0  0  0  0  0  0  0  0  0  0  0
   21.7674  -16.3156  -16.7228 C   0  0  0  0  0  0  0  0  0  0  0  0
   21.4879  -16.1534  -18.0592 C   0  0  0  0  0  0  0  0  0  0  0  0
   21.4791  -14.9293  -18.6781 C   0  0  0  0  0  0  0  0  0  0  0  0
   21.7668  -13.8075  -17.9097 C   0  0  0  0  0  0  0  0  0  0  0  0
   22.0507  -13.9021  -16.5813 C   0  0  0  0  0  0  0  0  0  0  0  0
   23.4281   -9.5332  -16.7402 C   0  0  0  0  0  0  0  0  0  0  0  0
   24.0124   -8.8061  -15.9207 O   0  0  0  0  0  0  0  0  0  0  0  0
   22.1940   -3.4081  -21.3821 C   0  0  0  0  0  0  0  0  0  0  0  0
   21.7842   -5.1650  -21.0870 S   0  0  0  0  0  0  0  0  0  0  0  0
   22.3374   -5.6235  -19.4032 C   0  0  0  0  0  0  0  0  0  0  0  0
   22.1822   -7.1445  -19.3102 C   0  0  0  0  0  0  0  0  0  0  0  0
   22.5887   -7.5022  -17.8732 C   0  0  2  0  0  0  0  0  0  0  0  0
   22.6197   -8.9309  -17.7662 N   0  0  0  0  0  0  0  0  0  0  0  0
   21.6526   -6.9142  -16.8981 C   0  0  0  0  0  0  0  0  0  0  0  0
   20.5637   -7.5390  -16.6522 O   0  0  0  0  0  0  0  0  0  0  0  0
   18.6087   -5.5649   -9.2480 O   0  0  0  0  0  0  0  0  0  0  0  0
   19.3298   -5.8334  -10.3992 C   0  0  0  0  0  0  0  0  0  0  0  0
   20.7132   -5.9245  -10.3831 C   0  0  0  0  0  0  0  0  0  0  0  0
   21.4382   -6.1908  -11.5210 C   0  0  0  0  0  0  0  0  0  0  0  0
   20.7443   -6.3685  -12.7013 C   0  0  0  0  0  0  0  0  0  0  0  0
   21.4218   -6.6313  -13.9889 C   0  0  0  0  0  0  0  0  0  0  0  0
   21.2238   -5.4886  -14.9200 C   0  0  2  0  0  0  0  0  0  0  0  0
   21.8616   -5.7050  -16.2055 N   0  0  0  0  0  0  0  0  0  0  0  0
   21.6182   -4.1872  -14.3531 C   0  0  0  0  0  0  0  0  0  0  0  0
   21.2071   -3.7739  -13.2540 O   0  0  0  0  0  0  0  0  0  0  0  0
   19.3614   -6.2748  -12.7040 C   0  0  0  0  0  0  0  0  0  0  0  0
   18.6392   -6.0086  -11.5657 C   0  0  0  0  0  0  0  0  0  0  0  0
   22.4870   -3.3851  -15.0761 O   0  0  0  0  0  0  0  0  0  0  0  0
  2  1  1  1
  2  3  1  0
  4  3  1  0
  5  4  2  0
  6  5  1  0
  7  6  1  0
  7 12  2  0
  8  9  2  0
  8  7  1  0
  9 10  1  0
 10 11  2  0
 12 11  1  0
 12  4  1  0
 13 14  2  0
 13  2  1  0
 15 16  1  0
 16 17  1  0
 17 18  1  0
 19 18  1  6
 19 20  1  0
 20 13  1  0
 21 19  1  0
 22 21  2  0
 23 24  1  0
 24 34  2  0
 25 24  1  0
 25 26  2  0
 26 27  1  0
 27 33  2  0
 27 28  1  0
 29 28  1  1
 29 30  1  0
 30 21  1  0
 31 29  1  0
 32 31  2  0
 34 33  1  0
 35 31  1  0
M  END
$$$$
