WMY.pdb
     RDKit          3D

 35 37  0  0  1  0  0  0  0  0999 V2000
   25.5785  -19.6135  -17.4576 N   0  0  0  0  0  0  0  0  0  0  0  0
   26.1264  -18.8688  -16.3477 C   0  0  1  0  0  0  0  0  0  0  0  0
   25.1014  -17.8678  -15.8592 C   0  0  0  0  0  0  0  0  0  0  0  0
   25.0646  -16.6186  -16.6479 C   0  0  0  0  0  0  0  0  0  0  0  0
   24.0130  -16.2708  -17.5065 C   0  0  0  0  0  0  0  0  0  0  0  0
   24.2746  -15.0689  -18.0411 N   0  0  0  0  0  0  0  0  0  0  0  0
   25.4537  -14.5852  -17.5866 C   0  0  0  0  0  0  0  0  0  0  0  0
   26.1397  -13.4199  -17.8433 C   0  0  0  0  0  0  0  0  0  0  0  0
   27.3437  -13.2485  -17.2018 C   0  0  0  0  0  0  0  0  0  0  0  0
   27.8694  -14.1755  -16.3381 C   0  0  0  0  0  0  0  0  0  0  0  0
   27.1434  -15.3379  -16.1073 C   0  0  0  0  0  0  0  0  0  0  0  0
   25.9445  -15.5661  -16.7113 C   0  0  0  0  0  0  0  0  0  0  0  0
   26.3451  -19.8191  -15.2258 C   0  0  0  0  0  0  0  0  0  0  0  0
   25.5988  -20.8037  -15.1022 O   0  0  0  0  0  0  0  0  0  0  0  0
   30.9234  -22.5560   -9.4982 C   0  0  0  0  0  0  0  0  0  0  0  0
   30.6895  -21.2463  -10.7520 S   0  0  0  0  0  0  0  0  0  0  0  0
   29.0059  -21.3979  -11.4544 C   0  0  0  0  0  0  0  0  0  0  0  0
   28.9006  -20.3124  -12.5300 C   0  0  0  0  0  0  0  0  0  0  0  0
   27.5097  -20.4988  -13.1534 C   0  0  2  0  0  0  0  0  0  0  0  0
   27.4092  -19.6179  -14.2792 N   0  0  0  0  0  0  0  0  0  0  0  0
   26.4485  -20.2272  -12.1669 C   0  0  0  0  0  0  0  0  0  0  0  0
   26.1366  -19.0086  -11.9341 O   0  0  0  0  0  0  0  0  0  0  0  0
   20.2574  -18.0722  -13.9694 O   0  0  0  0  0  0  0  0  0  0  0  0
   21.0196  -18.8940  -13.1565 C   0  0  0  0  0  0  0  0  0  0  0  0
   21.1078  -18.6808  -11.7893 C   0  0  0  0  0  0  0  0  0  0  0  0
   21.8620  -19.4914  -10.9735 C   0  0  0  0  0  0  0  0  0  0  0  0
   22.5418  -20.5415  -11.5578 C   0  0  0  0  0  0  0  0  0  0  0  0
   23.4040  -21.4587  -10.7825 C   0  0  0  0  0  0  0  0  0  0  0  0
   24.7167  -20.8193  -10.4998 C   0  0  2  0  0  0  0  0  0  0  0  0
   25.7403  -21.2125  -11.4505 N   0  0  0  0  0  0  0  0  0  0  0  0
   25.1851  -21.0143   -9.1167 C   0  0  0  0  0  0  0  0  0  0  0  0
   26.1714  -21.7153   -8.8274 O   0  0  0  0  0  0  0  0  0  0  0  0
   22.4454  -20.7439  -12.9257 C   0  0  0  0  0  0  0  0  0  0  0  0
   21.6911  -19.9325  -13.7387 C   0  0  0  0  0  0  0  0  0  0  0  0
   24.4964  -20.3891   -8.0891 O   0  0  0  0  0  0  0  0  0  0  0  0
  2  1  1  6
  2  3  1  0
  4  3  1  0
  5  4  2  0
  6  5  1  0
  7  6  1  0
  7 12  2  0
  8  9  2  0
  8  7  1  0
  9 10  1  0
 10 11  2  0
 12 11  1  0
 12  4  1  0
 13 14  2  0
 13  2  1  0
 15 16  1  0
 16 17  1  0
 17 18  1  0
 19 18  1  1
 19 20  1  0
 20 13  1  0
 21 19  1  0
 22 21  2  0
 23 24  1  0
 24 34  2  0
 25 24  1  0
 25 26  2  0
 26 27  1  0
 27 33  2  0
 27 28  1  0
 29 28  1  6
 29 30  1  0
 30 21  1  0
 31 29  1  0
 32 31  2  0
 34 33  1  0
 35 31  1  0
M  END
$$$$
