LYK.pdb
     RDKit          3D

 30 30  0  0  1  0  0  0  0  0999 V2000
    7.9506  -11.9426   19.4864 C   0  0  0  0  0  0  0  0  0  0  0  0
    7.8079  -13.4137   19.6973 C   0  0  1  0  0  0  0  0  0  0  0  0
    7.2867  -14.0364   18.4166 C   0  0  0  0  0  0  0  0  0  0  0  0
    9.0570  -14.1140   20.1394 C   0  0  0  0  0  0  0  0  0  0  0  0
    8.7429  -15.3978   20.8622 C   0  0  2  0  0  0  0  0  0  0  0  0
    7.3397  -15.6486   21.0141 N   0  0  0  0  0  0  0  0  0  0  0  0
    9.4256  -15.3744   22.1726 C   0  0  0  0  0  0  0  0  0  0  0  0
   10.6893  -15.2716   22.2001 O   0  0  0  0  0  0  0  0  0  0  0  0
   11.0646  -14.9902   30.7741 O   0  0  0  0  0  0  0  0  0  0  0  0
   10.4052  -14.9982   29.5472 C   0  0  0  0  0  0  0  0  0  0  0  0
    9.6627  -16.0771   29.1169 C   0  0  0  0  0  0  0  0  0  0  0  0
    9.0175  -16.0550   27.8906 C   0  0  0  0  0  0  0  0  0  0  0  0
    9.0796  -14.9699   27.0432 C   0  0  0  0  0  0  0  0  0  0  0  0
    8.3878  -14.9362   25.7292 C   0  0  0  0  0  0  0  0  0  0  0  0
    9.3024  -15.4509   24.6245 C   0  0  2  0  0  0  0  0  0  0  0  0
    8.6385  -15.4687   23.3546 N   0  0  0  0  0  0  0  0  0  0  0  0
    9.7104  -16.8694   24.9367 C   0  0  0  0  0  0  0  0  0  0  0  0
    8.8749  -17.8027   25.0097 O   0  0  0  0  0  0  0  0  0  0  0  0
    9.8261  -13.8836   27.4737 C   0  0  0  0  0  0  0  0  0  0  0  0
   10.4729  -13.9078   28.7047 C   0  0  0  0  0  0  0  0  0  0  0  0
   11.0800  -17.1781   25.1579 N   0  0  0  0  0  0  0  0  0  0  0  0
   11.4819  -18.5448   25.3772 C   0  0  1  0  0  0  0  0  0  0  0  0
   12.4983  -18.9219   24.3134 C   0  0  0  0  0  0  0  0  0  0  0  0
   11.8763  -18.6947   22.9627 C   0  0  0  0  0  0  0  0  0  0  0  0
   12.8281  -19.0778   21.8335 C   0  0  0  0  0  0  0  0  0  0  0  0
   12.2125  -18.7759   20.4923 C   0  0  0  0  0  0  0  0  0  0  0  0
   13.1669  -19.0768   19.4585 N   0  0  0  0  0  0  0  0  0  0  0  0
   12.0361  -18.7243   26.7390 C   0  0  0  0  0  0  0  0  0  0  0  0
   12.4010  -17.7556   27.4374 O   0  0  0  0  0  0  0  0  0  0  0  0
   12.1530  -20.0011   27.2518 O   0  0  0  0  0  0  0  0  0  0  0  0
  2  1  1  6
  2  3  1  0
  4  2  1  0
  5  4  1  0
  5  6  1  1
  7  5  1  0
  7  8  2  0
  9 10  1  0
 10 20  2  0
 11 10  1  0
 11 12  2  0
 12 13  1  0
 13 19  2  0
 13 14  1  0
 15 14  1  1
 15 16  1  0
 16  7  1  0
 17 15  1  0
 18 17  2  0
 20 19  1  0
 21 17  1  0
 22 23  1  6
 22 21  1  0
 23 24  1  0
 24 25  1  0
 25 26  1  0
 26 27  1  0
 28 30  1  0
 28 22  1  0
 29 28  2  0
M  END
$$$$
