LYK.pdb
     RDKit          3D

 30 30  0  0  1  0  0  0  0  0999 V2000
    7.5453  -11.8969   19.1095 C   0  0  0  0  0  0  0  0  0  0  0  0
    7.5184  -13.3299   19.5278 C   0  0  1  0  0  0  0  0  0  0  0  0
    7.3368  -14.1900   18.2921 C   0  0  0  0  0  0  0  0  0  0  0  0
    8.7183  -13.7862   20.3013 C   0  0  0  0  0  0  0  0  0  0  0  0
    8.5468  -15.1959   20.8039 C   0  0  2  0  0  0  0  0  0  0  0  0
    7.1781  -15.5957   20.9517 N   0  0  0  0  0  0  0  0  0  0  0  0
    9.2823  -15.3294   22.0786 C   0  0  0  0  0  0  0  0  0  0  0  0
   10.5502  -15.3282   22.0541 O   0  0  0  0  0  0  0  0  0  0  0  0
   11.1651  -15.3250   30.6518 O   0  0  0  0  0  0  0  0  0  0  0  0
   10.4731  -15.2829   29.4437 C   0  0  0  0  0  0  0  0  0  0  0  0
    9.8471  -16.3912   28.9144 C   0  0  0  0  0  0  0  0  0  0  0  0
    9.1658  -16.3178   27.7097 C   0  0  0  0  0  0  0  0  0  0  0  0
    9.0758  -15.1506   26.9825 C   0  0  0  0  0  0  0  0  0  0  0  0
    8.3441  -15.0621   25.6928 C   0  0  0  0  0  0  0  0  0  0  0  0
    9.2484  -15.4558   24.5314 C   0  0  2  0  0  0  0  0  0  0  0  0
    8.5392  -15.4547   23.2860 N   0  0  0  0  0  0  0  0  0  0  0  0
    9.7620  -16.8569   24.7532 C   0  0  0  0  0  0  0  0  0  0  0  0
    9.0283  -17.8655   24.6160 O   0  0  0  0  0  0  0  0  0  0  0  0
    9.7049  -14.0345   27.5128 C   0  0  0  0  0  0  0  0  0  0  0  0
   10.3882  -14.1103   28.7218 C   0  0  0  0  0  0  0  0  0  0  0  0
   11.1172  -17.0611   25.1296 N   0  0  0  0  0  0  0  0  0  0  0  0
   11.6370  -18.4006   25.2436 C   0  0  1  0  0  0  0  0  0  0  0  0
   12.6580  -18.6139   24.1395 C   0  0  0  0  0  0  0  0  0  0  0  0
   13.2184  -20.0034   24.2749 C   0  0  0  0  0  0  0  0  0  0  0  0
   14.2821  -20.2864   23.2183 C   0  0  0  0  0  0  0  0  0  0  0  0
   14.8330  -21.6794   23.3767 C   0  0  0  0  0  0  0  0  0  0  0  0
   15.8783  -21.8843   22.4095 N   0  0  0  0  0  0  0  0  0  0  0  0
   12.2339  -18.6277   26.5799 C   0  0  0  0  0  0  0  0  0  0  0  0
   12.8119  -17.7172   27.2094 O   0  0  0  0  0  0  0  0  0  0  0  0
   12.1489  -19.8840   27.1469 O   0  0  0  0  0  0  0  0  0  0  0  0
  2  1  1  6
  2  3  1  0
  4  2  1  0
  5  4  1  0
  5  6  1  1
  7  5  1  0
  7  8  2  0
  9 10  1  0
 10 20  2  0
 11 10  1  0
 11 12  2  0
 12 13  1  0
 13 19  2  0
 13 14  1  0
 15 14  1  1
 15 16  1  0
 16  7  1  0
 17 15  1  0
 18 17  2  0
 20 19  1  0
 21 17  1  0
 22 23  1  6
 22 21  1  0
 23 24  1  0
 24 25  1  0
 25 26  1  0
 26 27  1  0
 28 30  1  0
 28 22  1  0
 29 28  2  0
M  END
$$$$
