LYK.pdb
     RDKit          3D

 30 30  0  0  1  0  0  0  0  0999 V2000
    7.7101  -11.6235   19.5629 C   0  0  0  0  0  0  0  0  0  0  0  0
    7.7728  -13.1110   19.6747 C   0  0  1  0  0  0  0  0  0  0  0  0
    7.5447  -13.7083   18.2996 C   0  0  0  0  0  0  0  0  0  0  0  0
    9.0409  -13.6485   20.2658 C   0  0  0  0  0  0  0  0  0  0  0  0
    8.8394  -15.0247   20.8444 C   0  0  2  0  0  0  0  0  0  0  0  0
    7.4640  -15.4171   20.9400 N   0  0  0  0  0  0  0  0  0  0  0  0
    9.5023  -15.0775   22.1640 C   0  0  0  0  0  0  0  0  0  0  0  0
   10.7639  -14.9602   22.2179 O   0  0  0  0  0  0  0  0  0  0  0  0
   10.9831  -15.1619   30.7983 O   0  0  0  0  0  0  0  0  0  0  0  0
   10.3608  -15.0544   29.5568 C   0  0  0  0  0  0  0  0  0  0  0  0
   10.3862  -13.8905   28.8184 C   0  0  0  0  0  0  0  0  0  0  0  0
    9.7577  -13.8144   27.5856 C   0  0  0  0  0  0  0  0  0  0  0  0
    9.0814  -14.8815   27.0347 C   0  0  0  0  0  0  0  0  0  0  0  0
    8.4087  -14.8098   25.7123 C   0  0  0  0  0  0  0  0  0  0  0  0
    9.3412  -15.2875   24.6060 C   0  0  2  0  0  0  0  0  0  0  0  0
    8.6992  -15.2586   23.3250 N   0  0  0  0  0  0  0  0  0  0  0  0
    9.7410  -16.7172   24.8747 C   0  0  0  0  0  0  0  0  0  0  0  0
    8.9205  -17.6637   24.8023 O   0  0  0  0  0  0  0  0  0  0  0  0
    9.0543  -16.0532   27.7756 C   0  0  0  0  0  0  0  0  0  0  0  0
    9.6856  -16.1274   29.0127 C   0  0  0  0  0  0  0  0  0  0  0  0
   11.0852  -17.0214   25.2220 N   0  0  0  0  0  0  0  0  0  0  0  0
   11.5078  -18.3958   25.3214 C   0  0  1  0  0  0  0  0  0  0  0  0
   12.3961  -18.7113   24.1304 C   0  0  0  0  0  0  0  0  0  0  0  0
   12.7967  -20.1592   24.2090 C   0  0  0  0  0  0  0  0  0  0  0  0
   13.6575  -20.5701   23.0181 C   0  0  0  0  0  0  0  0  0  0  0  0
   14.0122  -22.0319   23.0964 C   0  0  0  0  0  0  0  0  0  0  0  0
   14.8349  -22.3771   21.9676 N   0  0  0  0  0  0  0  0  0  0  0  0
   12.2133  -18.6442   26.5998 C   0  0  0  0  0  0  0  0  0  0  0  0
   12.9535  -17.7860   27.1242 O   0  0  0  0  0  0  0  0  0  0  0  0
   12.0479  -19.8613   27.2307 O   0  0  0  0  0  0  0  0  0  0  0  0
  2  1  1  6
  2  3  1  0
  4  2  1  0
  5  4  1  0
  5  6  1  1
  7  5  1  0
  7  8  2  0
  9 10  1  0
 10 20  2  0
 11 10  1  0
 11 12  2  0
 12 13  1  0
 13 19  2  0
 13 14  1  0
 15 14  1  1
 15 16  1  0
 16  7  1  0
 17 15  1  0
 18 17  2  0
 20 19  1  0
 21 17  1  0
 22 23  1  6
 22 21  1  0
 23 24  1  0
 24 25  1  0
 25 26  1  0
 26 27  1  0
 28 30  1  0
 28 22  1  0
 29 28  2  0
M  END
$$$$
