LYK.pdb
     RDKit          3D

 30 30  0  0  1  0  0  0  0  0999 V2000
    5.9130  -14.9434   18.6136 C   0  0  0  0  0  0  0  0  0  0  0  0
    7.0095  -14.0816   19.1465 C   0  0  1  0  0  0  0  0  0  0  0  0
    6.4577  -12.6887   19.3812 C   0  0  0  0  0  0  0  0  0  0  0  0
    7.6669  -14.5920   20.3930 C   0  0  0  0  0  0  0  0  0  0  0  0
    8.7011  -13.6246   20.9065 C   0  0  2  0  0  0  0  0  0  0  0  0
    9.7565  -13.3561   19.9744 N   0  0  0  0  0  0  0  0  0  0  0  0
    9.2354  -14.1463   22.1817 C   0  0  0  0  0  0  0  0  0  0  0  0
   10.3142  -14.8127   22.1638 O   0  0  0  0  0  0  0  0  0  0  0  0
   10.3617  -15.9347   30.7015 O   0  0  0  0  0  0  0  0  0  0  0  0
    9.8500  -15.4304   29.5082 C   0  0  0  0  0  0  0  0  0  0  0  0
    8.8662  -16.0815   28.7950 C   0  0  0  0  0  0  0  0  0  0  0  0
    8.3768  -15.5541   27.6105 C   0  0  0  0  0  0  0  0  0  0  0  0
    8.8380  -14.3664   27.0850 C   0  0  0  0  0  0  0  0  0  0  0  0
    8.3162  -13.7921   25.8185 C   0  0  0  0  0  0  0  0  0  0  0  0
    9.0326  -14.3956   24.6168 C   0  0  2  0  0  0  0  0  0  0  0  0
    8.5181  -13.8812   23.3821 N   0  0  0  0  0  0  0  0  0  0  0  0
    8.8148  -15.8884   24.6057 C   0  0  0  0  0  0  0  0  0  0  0  0
    7.6859  -16.3960   24.4003 O   0  0  0  0  0  0  0  0  0  0  0  0
    9.8278  -13.7099   27.8004 C   0  0  0  0  0  0  0  0  0  0  0  0
   10.3176  -14.2408   28.9889 C   0  0  0  0  0  0  0  0  0  0  0  0
    9.9112  -16.7639   24.8327 N   0  0  0  0  0  0  0  0  0  0  0  0
    9.6901  -18.1860   24.9127 C   0  0  1  0  0  0  0  0  0  0  0  0
   10.8016  -18.8872   24.1512 C   0  0  0  0  0  0  0  0  0  0  0  0
   10.5802  -20.3719   24.2509 C   0  0  0  0  0  0  0  0  0  0  0  0
   11.6257  -21.1510   23.4587 C   0  0  0  0  0  0  0  0  0  0  0  0
   11.4269  -22.6344   23.6292 C   0  0  0  0  0  0  0  0  0  0  0  0
   12.4270  -23.3334   22.8668 N   0  0  0  0  0  0  0  0  0  0  0  0
    9.6355  -18.6373   26.3223 C   0  0  0  0  0  0  0  0  0  0  0  0
    8.6572  -19.2654   26.7781 O   0  0  0  0  0  0  0  0  0  0  0  0
   10.6981  -18.3548   27.1578 O   0  0  0  0  0  0  0  0  0  0  0  0
  2  1  1  1
  2  3  1  0
  4  2  1  0
  5  4  1  0
  5  6  1  6
  7  5  1  0
  7  8  2  0
  9 10  1  0
 10 20  2  0
 11 10  1  0
 11 12  2  0
 12 13  1  0
 13 19  2  0
 13 14  1  0
 15 14  1  1
 15 16  1  0
 16  7  1  0
 17 15  1  0
 18 17  2  0
 20 19  1  0
 21 17  1  0
 22 23  1  6
 22 21  1  0
 23 24  1  0
 24 25  1  0
 25 26  1  0
 26 27  1  0
 28 30  1  0
 28 22  1  0
 29 28  2  0
M  END
$$$$
