LYK.pdb
     RDKit          3D

 30 30  0  0  1  0  0  0  0  0999 V2000
    7.0302  -15.5430   16.9491 C   0  0  0  0  0  0  0  0  0  0  0  0
    8.4854  -15.2152   16.8853 C   0  0  1  0  0  0  0  0  0  0  0  0
    8.7261  -14.3198   15.6853 C   0  0  0  0  0  0  0  0  0  0  0  0
    9.0463  -14.5812   18.1220 C   0  0  0  0  0  0  0  0  0  0  0  0
    9.2679  -15.5982   19.2110 C   0  0  2  0  0  0  0  0  0  0  0  0
    8.3124  -16.6668   19.2086 N   0  0  0  0  0  0  0  0  0  0  0  0
    9.2790  -14.8951   20.5107 C   0  0  0  0  0  0  0  0  0  0  0  0
   10.1860  -14.0370   20.7321 O   0  0  0  0  0  0  0  0  0  0  0  0
    7.1305  -12.1555   28.5748 O   0  0  0  0  0  0  0  0  0  0  0  0
    7.0916  -12.7691   27.3250 C   0  0  0  0  0  0  0  0  0  0  0  0
    7.0628  -12.0476   26.1507 C   0  0  0  0  0  0  0  0  0  0  0  0
    7.0246  -12.6870   24.9217 C   0  0  0  0  0  0  0  0  0  0  0  0
    7.0135  -14.0601   24.8041 C   0  0  0  0  0  0  0  0  0  0  0  0
    6.9768  -14.7535   23.4910 C   0  0  0  0  0  0  0  0  0  0  0  0
    8.2604  -14.4989   22.7103 C   0  0  2  0  0  0  0  0  0  0  0  0
    8.2708  -15.2083   21.4652 N   0  0  0  0  0  0  0  0  0  0  0  0
    9.4382  -14.9895   23.5154 C   0  0  0  0  0  0  0  0  0  0  0  0
   10.0486  -14.2484   24.3232 O   0  0  0  0  0  0  0  0  0  0  0  0
    7.0421  -14.7880   25.9838 C   0  0  0  0  0  0  0  0  0  0  0  0
    7.0804  -14.1444   27.2162 C   0  0  0  0  0  0  0  0  0  0  0  0
    9.8851  -16.3306   23.3681 N   0  0  0  0  0  0  0  0  0  0  0  0
   10.8313  -16.8795   24.3065 C   0  0  1  0  0  0  0  0  0  0  0  0
   10.1497  -17.0012   25.6584 C   0  0  0  0  0  0  0  0  0  0  0  0
   11.1060  -17.6630   26.6128 C   0  0  0  0  0  0  0  0  0  0  0  0
   10.5141  -17.7751   28.0146 C   0  0  0  0  0  0  0  0  0  0  0  0
   11.5101  -18.3848   28.9661 C   0  0  0  0  0  0  0  0  0  0  0  0
   10.8842  -18.5667   30.2488 N   0  0  0  0  0  0  0  0  0  0  0  0
   11.3426  -18.1895   23.8416 C   0  0  0  0  0  0  0  0  0  0  0  0
   12.3777  -18.7017   24.3166 O   0  0  0  0  0  0  0  0  0  0  0  0
   10.6544  -18.8648   22.8531 O   0  0  0  0  0  0  0  0  0  0  0  0
  2  1  1  1
  2  3  1  0
  4  2  1  0
  5  4  1  0
  5  6  1  1
  7  5  1  0
  7  8  2  0
  9 10  1  0
 10 20  2  0
 11 10  1  0
 11 12  2  0
 12 13  1  0
 13 19  2  0
 13 14  1  0
 15 14  1  1
 15 16  1  0
 16  7  1  0
 17 15  1  0
 18 17  2  0
 20 19  1  0
 21 17  1  0
 22 23  1  1
 22 21  1  0
 23 24  1  0
 24 25  1  0
 25 26  1  0
 26 27  1  0
 28 30  1  0
 28 22  1  0
 29 28  2  0
M  END
$$$$
