LYK.pdb
     RDKit          3D

 30 30  0  0  1  0  0  0  0  0999 V2000
    7.7139  -11.7229   19.3904 C   0  0  0  0  0  0  0  0  0  0  0  0
    7.6957  -13.1997   19.6090 C   0  0  1  0  0  0  0  0  0  0  0  0
    7.4234  -13.8807   18.2817 C   0  0  0  0  0  0  0  0  0  0  0  0
    8.9373  -13.7628   20.2317 C   0  0  0  0  0  0  0  0  0  0  0  0
    8.7034  -15.1498   20.7708 C   0  0  2  0  0  0  0  0  0  0  0  0
    7.3209  -15.5247   20.8249 N   0  0  0  0  0  0  0  0  0  0  0  0
    9.3346  -15.2449   22.1035 C   0  0  0  0  0  0  0  0  0  0  0  0
   10.5988  -15.3143   22.1760 O   0  0  0  0  0  0  0  0  0  0  0  0
   10.7269  -14.8135   30.7414 O   0  0  0  0  0  0  0  0  0  0  0  0
   10.1060  -14.8065   29.4946 C   0  0  0  0  0  0  0  0  0  0  0  0
    9.4332  -15.9036   29.0005 C   0  0  0  0  0  0  0  0  0  0  0  0
    8.8249  -15.8660   27.7558 C   0  0  0  0  0  0  0  0  0  0  0  0
    8.8566  -14.7467   26.9523 C   0  0  0  0  0  0  0  0  0  0  0  0
    8.2037  -14.6964   25.6190 C   0  0  0  0  0  0  0  0  0  0  0  0
    9.1148  -15.2861   24.5495 C   0  0  2  0  0  0  0  0  0  0  0  0
    8.4992  -15.2554   23.2557 N   0  0  0  0  0  0  0  0  0  0  0  0
    9.3966  -16.7315   24.8775 C   0  0  0  0  0  0  0  0  0  0  0  0
    8.5320  -17.6290   24.7316 O   0  0  0  0  0  0  0  0  0  0  0  0
    9.5328  -13.6420   27.4470 C   0  0  0  0  0  0  0  0  0  0  0  0
   10.1428  -13.6818   28.6963 C   0  0  0  0  0  0  0  0  0  0  0  0
   10.6763  -17.1080   25.3681 N   0  0  0  0  0  0  0  0  0  0  0  0
   10.9727  -18.4978   25.6089 C   0  0  1  0  0  0  0  0  0  0  0  0
   11.9727  -18.9624   24.5643 C   0  0  0  0  0  0  0  0  0  0  0  0
   12.2793  -20.4137   24.8150 C   0  0  0  0  0  0  0  0  0  0  0  0
   13.2753  -20.9621   23.7976 C   0  0  0  0  0  0  0  0  0  0  0  0
   13.5656  -22.4156   24.0664 C   0  0  0  0  0  0  0  0  0  0  0  0
   14.4420  -22.9172   23.0414 N   0  0  0  0  0  0  0  0  0  0  0  0
   11.4936  -18.7006   26.9805 C   0  0  0  0  0  0  0  0  0  0  0  0
   12.2953  -17.9018   27.5082 O   0  0  0  0  0  0  0  0  0  0  0  0
   11.0806  -19.8063   27.6973 O   0  0  0  0  0  0  0  0  0  0  0  0
  2  1  1  6
  2  3  1  0
  4  2  1  0
  5  4  1  0
  5  6  1  1
  7  5  1  0
  7  8  2  0
  9 10  1  0
 10 20  2  0
 11 10  1  0
 11 12  2  0
 12 13  1  0
 13 19  2  0
 13 14  1  0
 15 14  1  1
 15 16  1  0
 16  7  1  0
 17 15  1  0
 18 17  2  0
 20 19  1  0
 21 17  1  0
 22 23  1  6
 22 21  1  0
 23 24  1  0
 24 25  1  0
 25 26  1  0
 26 27  1  0
 28 30  1  0
 28 22  1  0
 29 28  2  0
M  END
$$$$
