LYK.pdb
     RDKit          3D

 30 30  0  0  1  0  0  0  0  0999 V2000
    7.6510  -13.2582   20.1183 C   0  0  0  0  0  0  0  0  0  0  0  0
    7.7080  -14.1465   18.9197 C   0  0  1  0  0  0  0  0  0  0  0  0
    7.5097  -13.2968   17.6794 C   0  0  0  0  0  0  0  0  0  0  0  0
    8.9613  -14.9587   18.7927 C   0  0  0  0  0  0  0  0  0  0  0  0
    9.0855  -15.9593   19.9119 C   0  0  2  0  0  0  0  0  0  0  0  0
    7.8935  -16.7215   20.1423 N   0  0  0  0  0  0  0  0  0  0  0  0
    9.5050  -15.2424   21.1341 C   0  0  0  0  0  0  0  0  0  0  0  0
   10.2092  -14.1945   21.0151 O   0  0  0  0  0  0  0  0  0  0  0  0
    6.5567  -12.9723   28.9268 O   0  0  0  0  0  0  0  0  0  0  0  0
    7.0942  -13.1499   27.6541 C   0  0  0  0  0  0  0  0  0  0  0  0
    8.4532  -13.1548   27.4226 C   0  0  0  0  0  0  0  0  0  0  0  0
    8.9580  -13.3343   26.1444 C   0  0  0  0  0  0  0  0  0  0  0  0
    8.1433  -13.5156   25.0477 C   0  0  0  0  0  0  0  0  0  0  0  0
    8.6760  -13.7128   23.6752 C   0  0  0  0  0  0  0  0  0  0  0  0
    9.4502  -15.0217   23.5798 C   0  0  2  0  0  0  0  0  0  0  0  0
    9.1028  -15.7559   22.3991 N   0  0  0  0  0  0  0  0  0  0  0  0
    9.1073  -15.8903   24.7647 C   0  0  0  0  0  0  0  0  0  0  0  0
    7.9267  -16.2245   25.0269 O   0  0  0  0  0  0  0  0  0  0  0  0
    6.7760  -13.5108   25.2780 C   0  0  0  0  0  0  0  0  0  0  0  0
    6.2714  -13.3304   26.5615 C   0  0  0  0  0  0  0  0  0  0  0  0
   10.1409  -16.3548   25.6226 N   0  0  0  0  0  0  0  0  0  0  0  0
    9.9978  -17.6188   26.3004 C   0  0  1  0  0  0  0  0  0  0  0  0
   11.0350  -18.5799   25.7460 C   0  0  0  0  0  0  0  0  0  0  0  0
   10.7985  -18.7306   24.2680 C   0  0  0  0  0  0  0  0  0  0  0  0
   11.8469  -19.6296   23.6194 C   0  0  0  0  0  0  0  0  0  0  0  0
   11.5871  -19.7710   22.1424 C   0  0  0  0  0  0  0  0  0  0  0  0
   12.6197  -20.5859   21.5595 N   0  0  0  0  0  0  0  0  0  0  0  0
   10.1432  -17.4562   27.7654 C   0  0  0  0  0  0  0  0  0  0  0  0
   10.0074  -18.4149   28.5539 O   0  0  0  0  0  0  0  0  0  0  0  0
   10.4377  -16.2069   28.2748 O   0  0  0  0  0  0  0  0  0  0  0  0
  2  1  1  1
  2  3  1  0
  4  2  1  0
  5  4  1  0
  5  6  1  1
  7  5  1  0
  7  8  2  0
  9 10  1  0
 10 20  2  0
 11 10  1  0
 11 12  2  0
 12 13  1  0
 13 19  2  0
 13 14  1  0
 15 14  1  1
 15 16  1  0
 16  7  1  0
 17 15  1  0
 18 17  2  0
 20 19  1  0
 21 17  1  0
 22 23  1  6
 22 21  1  0
 23 24  1  0
 24 25  1  0
 25 26  1  0
 26 27  1  0
 28 30  1  0
 28 22  1  0
 29 28  2  0
M  END
$$$$
