SWM.pdb
     RDKit          3D

 29 30  0  0  1  0  0  0  0  0999 V2000
   26.9386  -23.3305  -18.7035 O   0  0  0  0  0  0  0  0  0  0  0  0
   27.8105  -22.2645  -18.4076 C   0  0  0  0  0  0  0  0  0  0  0  0
   28.5673  -22.6660  -17.1570 C   0  0  2  0  0  0  0  0  0  0  0  0
   29.3359  -23.8544  -17.3675 N   0  0  0  0  0  0  0  0  0  0  0  0
   27.6867  -22.8433  -15.9989 C   0  0  0  0  0  0  0  0  0  0  0  0
   27.4874  -23.9737  -15.4817 O   0  0  0  0  0  0  0  0  0  0  0  0
   27.0324  -21.7431  -15.4264 N   0  0  0  0  0  0  0  0  0  0  0  0
   26.0955  -21.8157  -14.3113 C   0  0  1  0  0  0  0  0  0  0  0  0
   26.1026  -20.5831  -13.4987 C   0  0  0  0  0  0  0  0  0  0  0  0
   25.3047  -20.5801  -12.2550 C   0  0  0  0  0  0  0  0  0  0  0  0
   25.7314  -21.0383  -11.0005 C   0  0  0  0  0  0  0  0  0  0  0  0
   24.7477  -20.9188  -10.1120 N   0  0  0  0  0  0  0  0  0  0  0  0
   23.6780  -20.3958  -10.7276 C   0  0  0  0  0  0  0  0  0  0  0  0
   22.4123  -20.0596  -10.2467 C   0  0  0  0  0  0  0  0  0  0  0  0
   21.4650  -19.5033  -11.0897 C   0  0  0  0  0  0  0  0  0  0  0  0
   21.8023  -19.2877  -12.4235 C   0  0  0  0  0  0  0  0  0  0  0  0
   23.0514  -19.6208  -12.8963 C   0  0  0  0  0  0  0  0  0  0  0  0
   23.9890  -20.1764  -12.0451 C   0  0  0  0  0  0  0  0  0  0  0  0
   24.8037  -22.2678  -14.8262 C   0  0  0  0  0  0  0  0  0  0  0  0
   24.3911  -21.8373  -15.9278 O   0  0  0  0  0  0  0  0  0  0  0  0
   24.6388  -26.3175  -18.1401 C   0  0  0  0  0  0  0  0  0  0  0  0
   23.4859  -25.5011  -17.0865 S   0  0  0  0  0  0  0  0  0  0  0  0
   23.5159  -25.8723  -15.3479 C   0  0  0  0  0  0  0  0  0  0  0  0
   22.5620  -25.0955  -14.4980 C   0  0  0  0  0  0  0  0  0  0  0  0
   22.7214  -23.6304  -14.6560 C   0  0  2  0  0  0  0  0  0  0  0  0
   24.0087  -23.1799  -14.1092 N   0  0  0  0  0  0  0  0  0  0  0  0
   21.6869  -22.8027  -14.0306 C   0  0  0  0  0  0  0  0  0  0  0  0
   21.8077  -22.4605  -12.8277 O   0  0  0  0  0  0  0  0  0  0  0  0
   20.5750  -22.3724  -14.6926 O   0  0  0  0  0  0  0  0  0  0  0  0
  2  3  1  0
  2  1  1  0
  3  5  1  0
  3  4  1  6
  5  6  2  0
  7  8  1  0
  7  5  1  0
  8 19  1  0
  8  9  1  6
 10  9  1  0
 10 18  1  0
 11 12  1  0
 11 10  2  0
 12 13  1  0
 13 18  2  0
 13 14  1  0
 14 15  2  0
 15 16  1  0
 17 16  2  0
 18 17  1  0
 19 20  2  0
 22 23  1  0
 22 21  1  0
 23 24  1  0
 25 24  1  1
 25 27  1  0
 26 25  1  0
 26 19  1  0
 27 28  2  0
 27 29  1  0
M  END
$$$$
