SWM.pdb
     RDKit          3D

 29 30  0  0  1  0  0  0  0  0999 V2000
   27.3443  -18.2227  -14.5102 O   0  0  0  0  0  0  0  0  0  0  0  0
   27.6896  -19.2547  -15.4047 C   0  0  0  0  0  0  0  0  0  0  0  0
   28.4140  -20.3050  -14.5862 C   0  0  2  0  0  0  0  0  0  0  0  0
   28.7925  -21.4272  -15.3893 N   0  0  0  0  0  0  0  0  0  0  0  0
   27.6298  -20.7610  -13.4349 C   0  0  0  0  0  0  0  0  0  0  0  0
   26.7221  -21.6258  -13.5488 O   0  0  0  0  0  0  0  0  0  0  0  0
   27.8725  -20.2392  -12.1561 N   0  0  0  0  0  0  0  0  0  0  0  0
   27.2013  -20.6720  -10.9360 C   0  0  1  0  0  0  0  0  0  0  0  0
   27.9474  -20.2817   -9.7233 C   0  0  0  0  0  0  0  0  0  0  0  0
   27.2554  -20.4114   -8.4241 C   0  0  0  0  0  0  0  0  0  0  0  0
   25.9591  -20.9076   -8.2261 C   0  0  0  0  0  0  0  0  0  0  0  0
   25.6410  -20.8514   -6.9350 N   0  0  0  0  0  0  0  0  0  0  0  0
   26.6791  -20.3359   -6.2619 C   0  0  0  0  0  0  0  0  0  0  0  0
   26.8612  -20.0857   -4.9015 C   0  0  0  0  0  0  0  0  0  0  0  0
   28.0538  -19.5569   -4.4375 C   0  0  0  0  0  0  0  0  0  0  0  0
   29.0641  -19.2812   -5.3555 C   0  0  0  0  0  0  0  0  0  0  0  0
   28.8824  -19.5280   -6.6974 C   0  0  0  0  0  0  0  0  0  0  0  0
   27.6866  -20.0556   -7.1491 C   0  0  0  0  0  0  0  0  0  0  0  0
   25.7986  -20.2664  -11.0156 C   0  0  0  0  0  0  0  0  0  0  0  0
   25.5121  -19.0626  -11.2100 O   0  0  0  0  0  0  0  0  0  0  0  0
   22.5411  -24.8583  -14.2838 C   0  0  0  0  0  0  0  0  0  0  0  0
   21.3775  -23.5525  -14.0679 S   0  0  0  0  0  0  0  0  0  0  0  0
   21.8626  -22.1341  -13.1118 C   0  0  0  0  0  0  0  0  0  0  0  0
   23.1762  -22.2412  -12.4055 C   0  0  0  0  0  0  0  0  0  0  0  0
   23.5012  -21.0270  -11.6200 C   0  0  2  0  0  0  0  0  0  0  0  0
   24.7574  -21.2018  -10.8780 N   0  0  0  0  0  0  0  0  0  0  0  0
   22.4924  -20.6065  -10.6444 C   0  0  0  0  0  0  0  0  0  0  0  0
   22.3953  -21.2147   -9.5494 O   0  0  0  0  0  0  0  0  0  0  0  0
   21.6327  -19.5701  -10.8605 O   0  0  0  0  0  0  0  0  0  0  0  0
  2  3  1  0
  2  1  1  0
  3  5  1  0
  3  4  1  6
  5  6  2  0
  7  8  1  0
  7  5  1  0
  8 19  1  0
  8  9  1  1
 10  9  1  0
 10 18  1  0
 11 12  1  0
 11 10  2  0
 12 13  1  0
 13 18  2  0
 13 14  1  0
 14 15  2  0
 15 16  1  0
 17 16  2  0
 18 17  1  0
 19 20  2  0
 22 23  1  0
 22 21  1  0
 23 24  1  0
 25 24  1  1
 25 27  1  0
 26 25  1  0
 26 19  1  0
 27 28  2  0
 27 29  1  0
M  END
$$$$
