SWM.pdb
     RDKit          3D

 29 30  0  0  1  0  0  0  0  0999 V2000
   29.8821  -24.9337  -17.2541 O   0  0  0  0  0  0  0  0  0  0  0  0
   29.7686  -23.8968  -16.3073 C   0  0  0  0  0  0  0  0  0  0  0  0
   28.8465  -22.8599  -16.9175 C   0  0  2  0  0  0  0  0  0  0  0  0
   29.3913  -22.3187  -18.1249 N   0  0  0  0  0  0  0  0  0  0  0  0
   28.5271  -21.7736  -15.9869 C   0  0  0  0  0  0  0  0  0  0  0  0
   29.3048  -20.7997  -15.8091 O   0  0  0  0  0  0  0  0  0  0  0  0
   27.3290  -21.7889  -15.2584 N   0  0  0  0  0  0  0  0  0  0  0  0
   26.7819  -20.6528  -14.5259 C   0  0  1  0  0  0  0  0  0  0  0  0
   25.9572  -19.7820  -15.3868 C   0  0  0  0  0  0  0  0  0  0  0  0
   26.1559  -18.3223  -15.2723 C   0  0  0  0  0  0  0  0  0  0  0  0
   27.3861  -17.6668  -15.1216 C   0  0  0  0  0  0  0  0  0  0  0  0
   27.1941  -16.3540  -15.0164 N   0  0  0  0  0  0  0  0  0  0  0  0
   25.8787  -16.1078  -15.0922 C   0  0  0  0  0  0  0  0  0  0  0  0
   25.1625  -14.9112  -15.0533 C   0  0  0  0  0  0  0  0  0  0  0  0
   23.7831  -14.9132  -15.1743 C   0  0  0  0  0  0  0  0  0  0  0  0
   23.1287  -16.1319  -15.3351 C   0  0  0  0  0  0  0  0  0  0  0  0
   23.8369  -17.3116  -15.3725 C   0  0  0  0  0  0  0  0  0  0  0  0
   25.2143  -17.2970  -15.2499 C   0  0  0  0  0  0  0  0  0  0  0  0
   26.1660  -21.1526  -13.2974 C   0  0  0  0  0  0  0  0  0  0  0  0
   25.4194  -22.1573  -13.3433 O   0  0  0  0  0  0  0  0  0  0  0  0
   27.3321  -18.8455   -6.8319 C   0  0  0  0  0  0  0  0  0  0  0  0
   26.5004  -20.3991   -6.8531 S   0  0  0  0  0  0  0  0  0  0  0  0
   25.7320  -20.9287   -8.3665 C   0  0  0  0  0  0  0  0  0  0  0  0
   26.4402  -20.5466   -9.6268 C   0  0  0  0  0  0  0  0  0  0  0  0
   25.7467  -21.0377  -10.8412 C   0  0  2  0  0  0  0  0  0  0  0  0
   26.3935  -20.5277  -12.0581 N   0  0  0  0  0  0  0  0  0  0  0  0
   24.3253  -20.6990  -10.9479 C   0  0  0  0  0  0  0  0  0  0  0  0
   23.9782  -19.6619  -11.5662 O   0  0  0  0  0  0  0  0  0  0  0  0
   23.3344  -21.4609  -10.4024 O   0  0  0  0  0  0  0  0  0  0  0  0
  2  3  1  0
  2  1  1  0
  3  5  1  0
  3  4  1  6
  5  6  2  0
  7  8  1  0
  7  5  1  0
  8 19  1  0
  8  9  1  6
 10  9  1  0
 10 18  1  0
 11 12  1  0
 11 10  2  0
 12 13  1  0
 13 18  2  0
 13 14  1  0
 14 15  2  0
 15 16  1  0
 17 16  2  0
 18 17  1  0
 19 20  2  0
 22 23  1  0
 22 21  1  0
 23 24  1  0
 25 24  1  1
 25 27  1  0
 26 25  1  0
 26 19  1  0
 27 28  2  0
 27 29  1  0
M  END
$$$$
