SWM.pdb
     RDKit          3D

 29 30  0  0  1  0  0  0  0  0999 V2000
   28.6261  -18.5003  -15.3270 O   0  0  0  0  0  0  0  0  0  0  0  0
   27.4821  -19.2481  -14.9859 C   0  0  0  0  0  0  0  0  0  0  0  0
   27.9818  -20.5870  -14.4803 C   0  0  2  0  0  0  0  0  0  0  0  0
   27.8885  -21.5970  -15.4895 N   0  0  0  0  0  0  0  0  0  0  0  0
   27.2821  -21.0285  -13.2705 C   0  0  0  0  0  0  0  0  0  0  0  0
   26.2489  -21.7457  -13.3239 O   0  0  0  0  0  0  0  0  0  0  0  0
   27.7510  -20.6592  -12.0016 N   0  0  0  0  0  0  0  0  0  0  0  0
   27.0349  -20.8773  -10.7502 C   0  0  1  0  0  0  0  0  0  0  0  0
   27.8665  -20.5614   -9.5719 C   0  0  0  0  0  0  0  0  0  0  0  0
   27.2100  -20.5775   -8.2482 C   0  0  0  0  0  0  0  0  0  0  0  0
   25.9034  -21.0100   -7.9809 C   0  0  0  0  0  0  0  0  0  0  0  0
   25.6268  -20.8556   -6.6882 N   0  0  0  0  0  0  0  0  0  0  0  0
   26.7027  -20.3358   -6.0809 C   0  0  0  0  0  0  0  0  0  0  0  0
   26.9349  -20.0022   -4.7462 C   0  0  0  0  0  0  0  0  0  0  0  0
   28.1592  -19.4889   -4.3527 C   0  0  0  0  0  0  0  0  0  0  0  0
   29.1504  -19.3137   -5.3150 C   0  0  0  0  0  0  0  0  0  0  0  0
   28.9193  -19.6427   -6.6315 C   0  0  0  0  0  0  0  0  0  0  0  0
   27.6922  -20.1538   -7.0128 C   0  0  0  0  0  0  0  0  0  0  0  0
   25.7339  -20.2164  -10.8449 C   0  0  0  0  0  0  0  0  0  0  0  0
   25.6759  -19.0055  -11.1603 O   0  0  0  0  0  0  0  0  0  0  0  0
   19.7933  -20.6480  -15.4137 C   0  0  0  0  0  0  0  0  0  0  0  0
   21.2782  -21.1987  -14.6408 S   0  0  0  0  0  0  0  0  0  0  0  0
   21.6868  -20.5553  -13.0344 C   0  0  0  0  0  0  0  0  0  0  0  0
   22.9871  -21.0165  -12.4578 C   0  0  0  0  0  0  0  0  0  0  0  0
   23.2642  -20.4208  -11.1292 C   0  0  2  0  0  0  0  0  0  0  0  0
   24.5390  -20.9125  -10.5885 N   0  0  0  0  0  0  0  0  0  0  0  0
   22.2514  -20.6577  -10.0975 C   0  0  0  0  0  0  0  0  0  0  0  0
   22.3920  -21.6156   -9.2968 O   0  0  0  0  0  0  0  0  0  0  0  0
   21.1394  -19.8817   -9.9523 O   0  0  0  0  0  0  0  0  0  0  0  0
  2  3  1  0
  2  1  1  0
  3  5  1  0
  3  4  1  6
  5  6  2  0
  7  8  1  0
  7  5  1  0
  8 19  1  0
  8  9  1  1
 10  9  1  0
 10 18  1  0
 11 12  1  0
 11 10  2  0
 12 13  1  0
 13 18  2  0
 13 14  1  0
 14 15  2  0
 15 16  1  0
 17 16  2  0
 18 17  1  0
 19 20  2  0
 22 23  1  0
 22 21  1  0
 23 24  1  0
 25 24  1  6
 25 27  1  0
 26 25  1  0
 26 19  1  0
 27 28  2  0
 27 29  1  0
M  END
$$$$
