SWM.pdb
     RDKit          3D

 29 30  0  0  1  0  0  0  0  0999 V2000
   31.1593  -17.7150  -17.7644 O   0  0  0  0  0  0  0  0  0  0  0  0
   30.3366  -17.9609  -16.6478 C   0  0  0  0  0  0  0  0  0  0  0  0
   28.9665  -18.3093  -17.1949 C   0  0  2  0  0  0  0  0  0  0  0  0
   28.6107  -17.4661  -18.2948 N   0  0  0  0  0  0  0  0  0  0  0  0
   27.9205  -18.2549  -16.1696 C   0  0  0  0  0  0  0  0  0  0  0  0
   27.3638  -17.1738  -15.8440 O   0  0  0  0  0  0  0  0  0  0  0  0
   27.5047  -19.4225  -15.5136 N   0  0  0  0  0  0  0  0  0  0  0  0
   26.3134  -19.5332  -14.6800 C   0  0  1  0  0  0  0  0  0  0  0  0
   25.1521  -20.0431  -15.4357 C   0  0  0  0  0  0  0  0  0  0  0  0
   23.8091  -19.6046  -15.0027 C   0  0  0  0  0  0  0  0  0  0  0  0
   23.3488  -18.2811  -14.9567 C   0  0  0  0  0  0  0  0  0  0  0  0
   22.1042  -18.2466  -14.4863 N   0  0  0  0  0  0  0  0  0  0  0  0
   21.7151  -19.5006  -14.2168 C   0  0  0  0  0  0  0  0  0  0  0  0
   20.5102  -20.0054  -13.7270 C   0  0  0  0  0  0  0  0  0  0  0  0
   20.3394  -21.3679  -13.5490 C   0  0  0  0  0  0  0  0  0  0  0  0
   21.3932  -22.2205  -13.8684 C   0  0  0  0  0  0  0  0  0  0  0  0
   22.5816  -21.7206  -14.3508 C   0  0  0  0  0  0  0  0  0  0  0  0
   22.7406  -20.3578  -14.5238 C   0  0  0  0  0  0  0  0  0  0  0  0
   26.6756  -20.2436  -13.4542 C   0  0  0  0  0  0  0  0  0  0  0  0
   27.2482  -21.3551  -13.5288 O   0  0  0  0  0  0  0  0  0  0  0  0
   28.6317  -18.8182   -6.8969 C   0  0  0  0  0  0  0  0  0  0  0  0
   27.0604  -19.6062   -7.0220 S   0  0  0  0  0  0  0  0  0  0  0  0
   26.6744  -20.4958   -8.5123 C   0  0  0  0  0  0  0  0  0  0  0  0
   26.7650  -19.7119   -9.7825 C   0  0  0  0  0  0  0  0  0  0  0  0
   26.5080  -20.5418  -10.9834 C   0  0  2  0  0  0  0  0  0  0  0  0
   26.3942  -19.7049  -12.1859 N   0  0  0  0  0  0  0  0  0  0  0  0
   25.3058  -21.3778  -10.9386 C   0  0  0  0  0  0  0  0  0  0  0  0
   24.2297  -20.9456  -11.4221 O   0  0  0  0  0  0  0  0  0  0  0  0
   25.2858  -22.6262  -10.3900 O   0  0  0  0  0  0  0  0  0  0  0  0
  2  3  1  0
  2  1  1  0
  3  5  1  0
  3  4  1  6
  5  6  2  0
  7  8  1  0
  7  5  1  0
  8 19  1  0
  8  9  1  6
 10  9  1  0
 10 18  1  0
 11 12  1  0
 11 10  2  0
 12 13  1  0
 13 18  2  0
 13 14  1  0
 14 15  2  0
 15 16  1  0
 17 16  2  0
 18 17  1  0
 19 20  2  0
 22 23  1  0
 22 21  1  0
 23 24  1  0
 25 24  1  1
 25 27  1  0
 26 25  1  0
 26 19  1  0
 27 28  2  0
 27 29  1  0
M  END
$$$$
