SWM.pdb
     RDKit          3D

 29 30  0  0  1  0  0  0  0  0999 V2000
   29.7643  -24.3014  -16.5125 O   0  0  0  0  0  0  0  0  0  0  0  0
   29.8454  -22.9999  -15.9797 C   0  0  0  0  0  0  0  0  0  0  0  0
   28.9223  -22.1371  -16.8171 C   0  0  2  0  0  0  0  0  0  0  0  0
   29.6528  -21.3562  -17.7679 N   0  0  0  0  0  0  0  0  0  0  0  0
   28.0765  -21.2613  -16.0010 C   0  0  0  0  0  0  0  0  0  0  0  0
   28.4198  -20.0848  -15.7132 O   0  0  0  0  0  0  0  0  0  0  0  0
   26.8436  -21.7159  -15.5115 N   0  0  0  0  0  0  0  0  0  0  0  0
   25.8604  -20.8867  -14.8244 C   0  0  1  0  0  0  0  0  0  0  0  0
   24.6436  -20.6811  -15.6347 C   0  0  0  0  0  0  0  0  0  0  0  0
   23.5305  -19.9303  -15.0175 C   0  0  0  0  0  0  0  0  0  0  0  0
   23.6235  -18.6721  -14.4060 C   0  0  0  0  0  0  0  0  0  0  0  0
   22.4361  -18.3080  -13.9278 N   0  0  0  0  0  0  0  0  0  0  0  0
   21.5515  -19.2779  -14.1984 C   0  0  0  0  0  0  0  0  0  0  0  0
   20.1861  -19.3796  -13.9302 C   0  0  0  0  0  0  0  0  0  0  0  0
   19.4711  -20.4938  -14.3360 C   0  0  0  0  0  0  0  0  0  0  0  0
   20.1424  -21.5072  -15.0154 C   0  0  0  0  0  0  0  0  0  0  0  0
   21.4897  -21.4055  -15.2785 C   0  0  0  0  0  0  0  0  0  0  0  0
   22.1934  -20.2882  -14.8676 C   0  0  0  0  0  0  0  0  0  0  0  0
   25.6803  -21.4139  -13.4723 C   0  0  0  0  0  0  0  0  0  0  0  0
   25.2523  -22.5805  -13.3145 O   0  0  0  0  0  0  0  0  0  0  0  0
   27.1045  -18.0981   -7.5674 C   0  0  0  0  0  0  0  0  0  0  0  0
   26.6378  -19.7670   -7.2469 S   0  0  0  0  0  0  0  0  0  0  0  0
   25.9149  -20.7136   -8.5669 C   0  0  0  0  0  0  0  0  0  0  0  0
   26.3120  -20.3122   -9.9515 C   0  0  0  0  0  0  0  0  0  0  0  0
   25.6510  -21.1325  -10.9941 C   0  0  2  0  0  0  0  0  0  0  0  0
   25.9780  -20.6372  -12.3383 N   0  0  0  0  0  0  0  0  0  0  0  0
   24.1898  -21.2080  -10.9185 C   0  0  0  0  0  0  0  0  0  0  0  0
   23.6495  -22.0260  -10.1327 O   0  0  0  0  0  0  0  0  0  0  0  0
   23.3630  -20.4247  -11.6686 O   0  0  0  0  0  0  0  0  0  0  0  0
  2  3  1  0
  2  1  1  0
  3  5  1  0
  3  4  1  6
  5  6  2  0
  7  8  1  0
  7  5  1  0
  8 19  1  0
  8  9  1  6
 10  9  1  0
 10 18  1  0
 11 12  1  0
 11 10  2  0
 12 13  1  0
 13 18  2  0
 13 14  1  0
 14 15  2  0
 15 16  1  0
 17 16  2  0
 18 17  1  0
 19 20  2  0
 22 23  1  0
 22 21  1  0
 23 24  1  0
 25 24  1  1
 25 27  1  0
 26 25  1  0
 26 19  1  0
 27 28  2  0
 27 29  1  0
M  END
$$$$
