SWM.pdb
     RDKit          3D

 29 30  0  0  1  0  0  0  0  0999 V2000
   27.2374  -18.7016  -15.0700 O   0  0  0  0  0  0  0  0  0  0  0  0
   28.5234  -19.0510  -14.6134 C   0  0  0  0  0  0  0  0  0  0  0  0
   28.4865  -20.5398  -14.3305 C   0  0  2  0  0  0  0  0  0  0  0  0
   28.1212  -21.2865  -15.4952 N   0  0  0  0  0  0  0  0  0  0  0  0
   27.5901  -20.8800  -13.2219 C   0  0  0  0  0  0  0  0  0  0  0  0
   26.4811  -21.4443  -13.4124 O   0  0  0  0  0  0  0  0  0  0  0  0
   27.9482  -20.5822  -11.8992 N   0  0  0  0  0  0  0  0  0  0  0  0
   27.1453  -20.9007  -10.7244 C   0  0  1  0  0  0  0  0  0  0  0  0
   27.8790  -20.6553   -9.4670 C   0  0  0  0  0  0  0  0  0  0  0  0
   27.1166  -20.7379   -8.2039 C   0  0  0  0  0  0  0  0  0  0  0  0
   25.8033  -21.2080   -8.0625 C   0  0  0  0  0  0  0  0  0  0  0  0
   25.4179  -21.1109   -6.7924 N   0  0  0  0  0  0  0  0  0  0  0  0
   26.4273  -20.5934   -6.0785 C   0  0  0  0  0  0  0  0  0  0  0  0
   26.5410  -20.3084   -4.7175 C   0  0  0  0  0  0  0  0  0  0  0  0
   27.7161  -19.7858   -4.2045 C   0  0  0  0  0  0  0  0  0  0  0  0
   28.7785  -19.5516   -5.0739 C   0  0  0  0  0  0  0  0  0  0  0  0
   28.6642  -19.8326   -6.4166 C   0  0  0  0  0  0  0  0  0  0  0  0
   27.4853  -20.3537   -6.9175 C   0  0  0  0  0  0  0  0  0  0  0  0
   25.8407  -20.2567  -10.8720 C   0  0  0  0  0  0  0  0  0  0  0  0
   25.7788  -19.0223  -11.0751 O   0  0  0  0  0  0  0  0  0  0  0  0
   21.9111  -22.6729  -15.2046 C   0  0  0  0  0  0  0  0  0  0  0  0
   21.0014  -21.3409  -14.4948 S   0  0  0  0  0  0  0  0  0  0  0  0
   21.6155  -20.5953  -13.0020 C   0  0  0  0  0  0  0  0  0  0  0  0
   22.9421  -21.0914  -12.5225 C   0  0  0  0  0  0  0  0  0  0  0  0
   23.3849  -20.4204  -11.2773 C   0  0  2  0  0  0  0  0  0  0  0  0
   24.6466  -20.9954  -10.7907 N   0  0  0  0  0  0  0  0  0  0  0  0
   22.4431  -20.4654  -10.1560 C   0  0  0  0  0  0  0  0  0  0  0  0
   22.5636  -21.3564   -9.2784 O   0  0  0  0  0  0  0  0  0  0  0  0
   21.4196  -19.5767  -10.0059 O   0  0  0  0  0  0  0  0  0  0  0  0
  2  3  1  0
  2  1  1  0
  3  5  1  0
  3  4  1  6
  5  6  2  0
  7  8  1  0
  7  5  1  0
  8 19  1  0
  8  9  1  1
 10  9  1  0
 10 18  1  0
 11 12  1  0
 11 10  2  0
 12 13  1  0
 13 18  2  0
 13 14  1  0
 14 15  2  0
 15 16  1  0
 17 16  2  0
 18 17  1  0
 19 20  2  0
 22 23  1  0
 22 21  1  0
 23 24  1  0
 25 24  1  6
 25 27  1  0
 26 25  1  0
 26 19  1  0
 27 28  2  0
 27 29  1  0
M  END
$$$$
