SWM.pdb
     RDKit          3D

 29 30  0  0  1  0  0  0  0  0999 V2000
   26.3459  -20.6485  -17.0258 O   0  0  0  0  0  0  0  0  0  0  0  0
   27.7540  -20.6870  -17.0230 C   0  0  0  0  0  0  0  0  0  0  0  0
   28.1454  -21.9513  -16.2840 C   0  0  2  0  0  0  0  0  0  0  0  0
   27.9758  -23.1120  -17.1034 N   0  0  0  0  0  0  0  0  0  0  0  0
   27.4098  -22.1194  -15.0275 C   0  0  0  0  0  0  0  0  0  0  0  0
   26.4520  -22.9293  -14.9206 O   0  0  0  0  0  0  0  0  0  0  0  0
   27.7576  -21.3721  -13.8930 N   0  0  0  0  0  0  0  0  0  0  0  0
   27.0615  -21.4240  -12.6127 C   0  0  1  0  0  0  0  0  0  0  0  0
   27.8728  -20.8596  -11.5160 C   0  0  0  0  0  0  0  0  0  0  0  0
   27.2150  -20.6720  -10.2062 C   0  0  0  0  0  0  0  0  0  0  0  0
   25.8333  -20.5966   -9.9806 C   0  0  0  0  0  0  0  0  0  0  0  0
   25.5924  -20.3906   -8.6880 N   0  0  0  0  0  0  0  0  0  0  0  0
   26.7642  -20.3264   -8.0405 C   0  0  0  0  0  0  0  0  0  0  0  0
   27.0605  -20.1443   -6.6894 C   0  0  0  0  0  0  0  0  0  0  0  0
   28.3746  -20.1346   -6.2530 C   0  0  0  0  0  0  0  0  0  0  0  0
   29.3905  -20.3101   -7.1892 C   0  0  0  0  0  0  0  0  0  0  0  0
   29.0962  -20.4889   -8.5220 C   0  0  0  0  0  0  0  0  0  0  0  0
   27.7800  -20.4960   -8.9460 C   0  0  0  0  0  0  0  0  0  0  0  0
   25.7182  -20.8767  -12.7984 C   0  0  0  0  0  0  0  0  0  0  0  0
   25.5759  -19.7511  -13.3293 O   0  0  0  0  0  0  0  0  0  0  0  0
   18.3109  -23.0305  -14.5235 C   0  0  0  0  0  0  0  0  0  0  0  0
   19.9272  -23.3812  -13.9149 S   0  0  0  0  0  0  0  0  0  0  0  0
   21.0069  -22.0186  -13.5425 C   0  0  0  0  0  0  0  0  0  0  0  0
   22.3937  -22.3819  -13.1173 C   0  0  0  0  0  0  0  0  0  0  0  0
   23.2451  -21.1930  -12.8753 C   0  0  2  0  0  0  0  0  0  0  0  0
   24.5753  -21.5888  -12.3924 N   0  0  0  0  0  0  0  0  0  0  0  0
   22.7235  -20.2166  -11.9157 C   0  0  0  0  0  0  0  0  0  0  0  0
   22.3472  -19.0880  -12.3197 O   0  0  0  0  0  0  0  0  0  0  0  0
   22.6205  -20.4666  -10.5790 O   0  0  0  0  0  0  0  0  0  0  0  0
  2  3  1  0
  2  1  1  0
  3  5  1  0
  3  4  1  6
  5  6  2  0
  7  8  1  0
  7  5  1  0
  8 19  1  0
  8  9  1  1
 10  9  1  0
 10 18  1  0
 11 12  1  0
 11 10  2  0
 12 13  1  0
 13 18  2  0
 13 14  1  0
 14 15  2  0
 15 16  1  0
 17 16  2  0
 18 17  1  0
 19 20  2  0
 22 23  1  0
 22 21  1  0
 23 24  1  0
 25 24  1  1
 25 27  1  0
 26 25  1  0
 26 19  1  0
 27 28  2  0
 27 29  1  0
M  END
$$$$
