GNC.pdb
     RDKit          3D

 19 18  0  0  1  0  0  0  0  0999 V2000
   12.3538  -11.6002   -9.4102 N   0  0  0  0  0  0  0  0  0  0  0  0
   13.4002  -11.1729  -10.3011 C   0  0  0  0  0  0  0  0  0  0  0  0
   13.6005   -9.6911  -10.1639 C   0  0  0  0  0  0  0  0  0  0  0  0
   12.6296   -8.8972  -10.1221 O   0  0  0  0  0  0  0  0  0  0  0  0
   15.8093   -4.9993   -9.3285 N   0  0  0  0  0  0  0  0  0  0  0  0
   16.1104   -6.0171   -8.3670 C   0  0  0  0  0  0  0  0  0  0  0  0
   16.5997   -5.6180   -7.2873 O   0  0  0  0  0  0  0  0  0  0  0  0
   15.8542   -7.4354   -8.6473 C   0  0  0  0  0  0  0  0  0  0  0  0
   15.1318   -7.7109   -9.9333 C   0  0  2  0  0  0  0  0  0  0  0  0
   14.8982   -9.1647  -10.0791 N   0  0  0  0  0  0  0  0  0  0  0  0
   16.0613   -7.3692  -11.0702 C   0  0  0  0  0  0  0  0  0  0  0  0
   17.1731   -7.9383  -11.2380 O   0  0  0  0  0  0  0  0  0  0  0  0
   15.7320   -6.3722  -12.0300 N   0  0  0  0  0  0  0  0  0  0  0  0
   16.6302   -6.0606  -13.1123 C   0  0  1  0  0  0  0  0  0  0  0  0
   15.8851   -5.9785  -14.4447 C   0  0  0  0  0  0  0  0  0  0  0  0
   15.1072   -7.5860  -14.7626 S   0  0  0  0  0  0  0  0  0  0  0  0
   17.3856   -4.8071  -12.8753 C   0  0  0  0  0  0  0  0  0  0  0  0
   18.4947   -4.4552  -13.6326 O   0  0  0  0  0  0  0  0  0  0  0  0
   17.0383   -4.0120  -11.9661 O   0  0  0  0  0  0  0  0  0  0  0  0
  1  2  1  0
  2  3  1  0
  3  4  2  0
  5  6  1  0
  6  7  2  0
  8  6  1  0
  9  8  1  1
 10  3  1  0
 10  9  1  0
 11  9  1  0
 11 13  1  0
 12 11  2  0
 14 13  1  0
 14 15  1  6
 16 15  1  0
 17 14  1  0
 18 17  1  0
 19 17  2  0
M  END
$$$$
