GNC.pdb
     RDKit          3D

 19 18  0  0  1  0  0  0  0  0999 V2000
   16.9414  -11.5659  -15.8334 N   0  0  0  0  0  0  0  0  0  0  0  0
   16.7898  -10.1521  -15.6105 C   0  0  0  0  0  0  0  0  0  0  0  0
   17.3270   -9.7990  -14.2534 C   0  0  0  0  0  0  0  0  0  0  0  0
   17.2104  -10.5782  -13.2767 O   0  0  0  0  0  0  0  0  0  0  0  0
   21.0819   -8.9822  -13.6668 N   0  0  0  0  0  0  0  0  0  0  0  0
   20.8702   -7.6099  -13.3159 C   0  0  0  0  0  0  0  0  0  0  0  0
   21.8713   -6.8653  -13.4032 O   0  0  0  0  0  0  0  0  0  0  0  0
   19.5539   -7.1243  -12.8831 C   0  0  0  0  0  0  0  0  0  0  0  0
   18.5029   -8.1839  -12.7276 C   0  0  2  0  0  0  0  0  0  0  0  0
   17.9777   -8.5719  -14.0554 N   0  0  0  0  0  0  0  0  0  0  0  0
   17.3196   -7.5648  -12.0276 C   0  0  0  0  0  0  0  0  0  0  0  0
   16.5375   -6.7553  -12.5945 O   0  0  0  0  0  0  0  0  0  0  0  0
   17.0150   -7.8629  -10.6704 N   0  0  0  0  0  0  0  0  0  0  0  0
   15.8453   -7.3117  -10.0354 C   0  0  1  0  0  0  0  0  0  0  0  0
   15.0373   -8.3973   -9.3243 C   0  0  0  0  0  0  0  0  0  0  0  0
   13.6877   -7.5983   -8.4130 S   0  0  0  0  0  0  0  0  0  0  0  0
   16.1791   -6.2234   -9.0856 C   0  0  0  0  0  0  0  0  0  0  0  0
   15.2974   -5.1887   -8.8038 O   0  0  0  0  0  0  0  0  0  0  0  0
   17.2893   -6.2049   -8.4970 O   0  0  0  0  0  0  0  0  0  0  0  0
  1  2  1  0
  2  3  1  0
  3  4  2  0
  5  6  1  0
  6  7  2  0
  8  6  1  0
  9  8  1  6
 10  3  1  0
 10  9  1  0
 11  9  1  0
 11 13  1  0
 12 11  2  0
 14 13  1  0
 14 15  1  1
 16 15  1  0
 17 14  1  0
 18 17  1  0
 19 17  2  0
M  END
$$$$
