GNC.pdb
     RDKit          3D

 19 18  0  0  1  0  0  0  0  0999 V2000
   16.6810  -13.5888  -16.7416 N   0  0  0  0  0  0  0  0  0  0  0  0
   17.9298  -13.2280  -17.3595 C   0  0  0  0  0  0  0  0  0  0  0  0
   18.5439  -12.0787  -16.6133 C   0  0  0  0  0  0  0  0  0  0  0  0
   18.6672  -12.0959  -15.3647 O   0  0  0  0  0  0  0  0  0  0  0  0
   22.3826   -9.4467  -15.4794 N   0  0  0  0  0  0  0  0  0  0  0  0
   22.0257   -9.6161  -16.8560 C   0  0  0  0  0  0  0  0  0  0  0  0
   22.9035  -10.1254  -17.5870 O   0  0  0  0  0  0  0  0  0  0  0  0
   20.7075   -9.2118  -17.3608 C   0  0  0  0  0  0  0  0  0  0  0  0
   19.5370   -9.7694  -16.6056 C   0  0  2  0  0  0  0  0  0  0  0  0
   18.9961  -10.9504  -17.3139 N   0  0  0  0  0  0  0  0  0  0  0  0
   18.4208   -8.7576  -16.6662 C   0  0  0  0  0  0  0  0  0  0  0  0
   17.6879   -8.6093  -17.6806 O   0  0  0  0  0  0  0  0  0  0  0  0
   18.1281   -7.9019  -15.5681 N   0  0  0  0  0  0  0  0  0  0  0  0
   17.1391   -6.8609  -15.6834 C   0  0  1  0  0  0  0  0  0  0  0  0
   16.1128   -6.9440  -14.5534 C   0  0  0  0  0  0  0  0  0  0  0  0
   15.1730   -5.3928  -14.5219 S   0  0  0  0  0  0  0  0  0  0  0  0
   17.7453   -5.5085  -15.7198 C   0  0  0  0  0  0  0  0  0  0  0  0
   17.3281   -4.5327  -16.6149 O   0  0  0  0  0  0  0  0  0  0  0  0
   18.6709   -5.1998  -14.9278 O   0  0  0  0  0  0  0  0  0  0  0  0
  1  2  1  0
  2  3  1  0
  3  4  2  0
  5  6  1  0
  6  7  2  0
  8  6  1  0
  9  8  1  6
 10  3  1  0
 10  9  1  0
 11  9  1  0
 11 13  1  0
 12 11  2  0
 14 13  1  0
 14 15  1  1
 16 15  1  0
 17 14  1  0
 18 17  1  0
 19 17  2  0
M  END
$$$$
