GNC.pdb
     RDKit          3D

 19 18  0  0  1  0  0  0  0  0999 V2000
   11.2338  -11.8079   -9.8717 N   0  0  0  0  0  0  0  0  0  0  0  0
   11.7424  -11.0571  -10.9893 C   0  0  0  0  0  0  0  0  0  0  0  0
   13.1520  -10.6260  -10.7027 C   0  0  0  0  0  0  0  0  0  0  0  0
   13.5891  -10.5440   -9.5294 O   0  0  0  0  0  0  0  0  0  0  0  0
   16.1883  -12.6656  -12.0638 N   0  0  0  0  0  0  0  0  0  0  0  0
   16.6008  -11.6404  -12.9747 C   0  0  0  0  0  0  0  0  0  0  0  0
   17.2797  -12.0227  -13.9530 O   0  0  0  0  0  0  0  0  0  0  0  0
   16.2403  -10.2335  -12.7586 C   0  0  0  0  0  0  0  0  0  0  0  0
   15.4347   -9.9643  -11.5217 C   0  0  2  0  0  0  0  0  0  0  0  0
   14.0145  -10.3033  -11.7612 N   0  0  0  0  0  0  0  0  0  0  0  0
   15.4258   -8.4748  -11.2885 C   0  0  0  0  0  0  0  0  0  0  0  0
   14.7227   -7.6811  -11.9696 O   0  0  0  0  0  0  0  0  0  0  0  0
   16.2207   -7.8730  -10.2738 N   0  0  0  0  0  0  0  0  0  0  0  0
   16.1586   -6.4551  -10.0276 C   0  0  1  0  0  0  0  0  0  0  0  0
   16.5874   -6.1214   -8.5986 C   0  0  0  0  0  0  0  0  0  0  0  0
   15.5946   -7.1224   -7.4572 S   0  0  0  0  0  0  0  0  0  0  0  0
   16.9701   -5.6784  -10.9952 C   0  0  0  0  0  0  0  0  0  0  0  0
   16.9190   -4.2927  -11.0619 O   0  0  0  0  0  0  0  0  0  0  0  0
   17.7417   -6.2615  -11.7976 O   0  0  0  0  0  0  0  0  0  0  0  0
  1  2  1  0
  2  3  1  0
  3  4  2  0
  5  6  1  0
  6  7  2  0
  8  6  1  0
  9  8  1  6
 10  3  1  0
 10  9  1  0
 11  9  1  0
 11 13  1  0
 12 11  2  0
 14 13  1  0
 14 15  1  1
 16 15  1  0
 17 14  1  0
 18 17  1  0
 19 17  2  0
M  END
$$$$
