GNC.pdb
     RDKit          3D

 19 18  0  0  1  0  0  0  0  0999 V2000
   15.8966   -8.8459   -9.7819 N   0  0  0  0  0  0  0  0  0  0  0  0
   16.2478   -9.6419  -10.9284 C   0  0  0  0  0  0  0  0  0  0  0  0
   16.7146   -8.7436  -12.0375 C   0  0  0  0  0  0  0  0  0  0  0  0
   16.8634   -9.1677  -13.2090 O   0  0  0  0  0  0  0  0  0  0  0  0
   17.7073   -4.4272  -14.8462 N   0  0  0  0  0  0  0  0  0  0  0  0
   16.8045   -4.1847  -13.7613 C   0  0  0  0  0  0  0  0  0  0  0  0
   16.1699   -3.1081  -13.8117 O   0  0  0  0  0  0  0  0  0  0  0  0
   16.6457   -5.1503  -12.6665 C   0  0  0  0  0  0  0  0  0  0  0  0
   17.3573   -6.4570  -12.8606 C   0  0  2  0  0  0  0  0  0  0  0  0
   16.9956   -7.3944  -11.7745 N   0  0  0  0  0  0  0  0  0  0  0  0
   18.8328   -6.2155  -12.6655 C   0  0  0  0  0  0  0  0  0  0  0  0
   19.3092   -5.7135  -11.6124 O   0  0  0  0  0  0  0  0  0  0  0  0
   19.7828   -6.5445  -13.6720 N   0  0  0  0  0  0  0  0  0  0  0  0
   21.1780   -6.2268  -13.5058 C   0  0  1  0  0  0  0  0  0  0  0  0
   22.0603   -7.1482  -14.3483 C   0  0  0  0  0  0  0  0  0  0  0  0
   21.9456   -8.8258  -13.6679 S   0  0  0  0  0  0  0  0  0  0  0  0
   21.4755   -4.8096  -13.8236 C   0  0  0  0  0  0  0  0  0  0  0  0
   20.5319   -3.9625  -14.3889 O   0  0  0  0  0  0  0  0  0  0  0  0
   22.6102   -4.3245  -13.5864 O   0  0  0  0  0  0  0  0  0  0  0  0
  1  2  1  0
  2  3  1  0
  3  4  2  0
  5  6  1  0
  6  7  2  0
  8  6  1  0
  9  8  1  1
 10  3  1  0
 10  9  1  0
 11  9  1  0
 11 13  1  0
 12 11  2  0
 14 13  1  0
 14 15  1  6
 16 15  1  0
 17 14  1  0
 18 17  1  0
 19 17  2  0
M  END
$$$$
