GNC.pdb
     RDKit          3D

 19 18  0  0  1  0  0  0  0  0999 V2000
   25.4971  -25.0215  -15.5849 N   0  0  0  0  0  0  0  0  0  0  0  0
   25.7600  -23.6247  -15.3588 C   0  0  0  0  0  0  0  0  0  0  0  0
   24.6897  -23.0503  -14.4759 C   0  0  0  0  0  0  0  0  0  0  0  0
   23.5988  -23.6432  -14.2940 O   0  0  0  0  0  0  0  0  0  0  0  0
   26.4941  -21.9008  -10.8134 N   0  0  0  0  0  0  0  0  0  0  0  0
   25.1205  -21.4990  -10.7616 C   0  0  0  0  0  0  0  0  0  0  0  0
   24.4488  -21.9771   -9.8211 O   0  0  0  0  0  0  0  0  0  0  0  0
   24.5526  -20.5822  -11.7580 C   0  0  0  0  0  0  0  0  0  0  0  0
   23.8810  -21.2451  -12.9247 C   0  0  2  0  0  0  0  0  0  0  0  0
   24.8983  -21.8218  -13.8312 N   0  0  0  0  0  0  0  0  0  0  0  0
   23.2163  -20.1717  -13.7489 C   0  0  0  0  0  0  0  0  0  0  0  0
   23.8560  -19.4115  -14.5242 O   0  0  0  0  0  0  0  0  0  0  0  0
   21.8116  -19.9530  -13.6974 N   0  0  0  0  0  0  0  0  0  0  0  0
   21.0603  -19.6777  -14.8953 C   0  0  1  0  0  0  0  0  0  0  0  0
   21.4209  -20.6567  -16.0128 C   0  0  0  0  0  0  0  0  0  0  0  0
   20.4500  -20.2257  -17.4832 S   0  0  0  0  0  0  0  0  0  0  0  0
   19.5968  -19.6936  -14.6594 C   0  0  0  0  0  0  0  0  0  0  0  0
   18.9940  -20.6015  -13.7993 O   0  0  0  0  0  0  0  0  0  0  0  0
   18.8452  -18.8714  -15.2411 O   0  0  0  0  0  0  0  0  0  0  0  0
  1  2  1  0
  2  3  1  0
  3  4  2  0
  5  6  1  0
  6  7  2  0
  8  6  1  0
  9  8  1  1
 10  3  1  0
 10  9  1  0
 11  9  1  0
 11 13  1  0
 12 11  2  0
 14 13  1  0
 14 15  1  6
 16 15  1  0
 17 14  1  0
 18 17  1  0
 19 17  2  0
M  END
$$$$
