LTV.pdb
     RDKit          3D

 23 22  0  0  1  0  0  0  0  0999 V2000
    9.8143  -13.1093   19.1983 C   0  0  0  0  0  0  0  0  0  0  0  0
    8.3345  -13.3750   19.0194 C   0  0  2  0  0  0  0  0  0  0  0  0
    7.6816  -12.0540   18.7298 C   0  0  0  0  0  0  0  0  0  0  0  0
    7.7516  -14.0916   20.2151 C   0  0  0  0  0  0  0  0  0  0  0  0
    8.4795  -15.3644   20.5205 C   0  0  2  0  0  0  0  0  0  0  0  0
    8.1278  -16.3628   19.5612 N   0  0  0  0  0  0  0  0  0  0  0  0
    8.2297  -15.8400   21.9067 C   0  0  0  0  0  0  0  0  0  0  0  0
    7.0474  -16.0427   22.2878 O   0  0  0  0  0  0  0  0  0  0  0  0
    8.4344  -18.9609   23.2425 C   0  0  0  0  0  0  0  0  0  0  0  0
    9.2571  -18.1534   24.2051 C   0  0  1  0  0  0  0  0  0  0  0  0
   10.5983  -18.3768   23.9105 O   0  0  0  0  0  0  0  0  0  0  0  0
    8.9759  -16.6890   24.1697 C   0  0  2  0  0  0  0  0  0  0  0  0
    9.2168  -16.0941   22.8659 N   0  0  0  0  0  0  0  0  0  0  0  0
    9.7181  -15.8755   25.1486 C   0  0  0  0  0  0  0  0  0  0  0  0
   10.8333  -15.3169   24.8414 O   0  0  0  0  0  0  0  0  0  0  0  0
    8.8100  -12.8740   26.9249 C   0  0  0  0  0  0  0  0  0  0  0  0
    9.3626  -13.7218   28.0504 C   0  0  1  0  0  0  0  0  0  0  0  0
    8.2108  -14.1622   28.9063 C   0  0  0  0  0  0  0  0  0  0  0  0
   10.1243  -14.8544   27.4388 C   0  0  2  0  0  0  0  0  0  0  0  0
    9.3134  -15.6184   26.4892 N   0  0  0  0  0  0  0  0  0  0  0  0
   10.6442  -15.7327   28.4854 C   0  0  0  0  0  0  0  0  0  0  0  0
   11.6004  -15.3141   29.3938 O   0  0  0  0  0  0  0  0  0  0  0  0
   10.2179  -16.9093   28.5749 O   0  0  0  0  0  0  0  0  0  0  0  0
  2  3  1  1
  2  1  1  0
  4  2  1  0
  5  7  1  0
  5  4  1  0
  5  6  1  6
  7 13  1  0
  7  8  2  0
 10  9  1  6
 11 10  1  0
 12 10  1  0
 12 13  1  6
 14 20  1  0
 14 12  1  0
 15 14  2  0
 17 16  1  6
 17 19  1  0
 18 17  1  0
 19 21  1  0
 19 20  1  6
 21 22  1  0
 23 21  2  0
M  END
$$$$
