LTV.pdb
     RDKit          3D

 23 22  0  0  1  0  0  0  0  0999 V2000
   10.0273  -13.0585   19.1920 C   0  0  0  0  0  0  0  0  0  0  0  0
    8.7483  -13.3987   18.4565 C   0  0  2  0  0  0  0  0  0  0  0  0
    8.1302  -12.1002   18.0240 C   0  0  0  0  0  0  0  0  0  0  0  0
    7.8341  -14.2550   19.3016 C   0  0  0  0  0  0  0  0  0  0  0  0
    8.5405  -15.4494   19.8648 C   0  0  2  0  0  0  0  0  0  0  0  0
    8.4971  -16.5233   18.9237 N   0  0  0  0  0  0  0  0  0  0  0  0
    7.9869  -15.8655   21.1803 C   0  0  0  0  0  0  0  0  0  0  0  0
    6.8005  -16.2803   21.2492 O   0  0  0  0  0  0  0  0  0  0  0  0
    7.8967  -18.6553   23.1106 C   0  0  0  0  0  0  0  0  0  0  0  0
    8.4311  -17.6258   24.0647 C   0  0  1  0  0  0  0  0  0  0  0  0
    9.8102  -17.7924   24.1423 O   0  0  0  0  0  0  0  0  0  0  0  0
    8.1196  -16.2183   23.6817 C   0  0  2  0  0  0  0  0  0  0  0  0
    8.6809  -15.8404   22.3956 N   0  0  0  0  0  0  0  0  0  0  0  0
    8.5437  -15.1884   24.6462 C   0  0  0  0  0  0  0  0  0  0  0  0
    9.7188  -14.6720   24.5958 O   0  0  0  0  0  0  0  0  0  0  0  0
    7.4221  -11.6680   25.7286 C   0  0  0  0  0  0  0  0  0  0  0  0
    7.3342  -12.5777   26.9352 C   0  0  1  0  0  0  0  0  0  0  0  0
    5.8986  -12.9807   27.1071 C   0  0  0  0  0  0  0  0  0  0  0  0
    8.2590  -13.7308   26.7071 C   0  0  2  0  0  0  0  0  0  0  0  0
    7.7455  -14.6623   25.7013 N   0  0  0  0  0  0  0  0  0  0  0  0
    8.5098  -14.4297   27.9664 C   0  0  0  0  0  0  0  0  0  0  0  0
    8.1617  -15.7552   28.1580 O   0  0  0  0  0  0  0  0  0  0  0  0
    9.0587  -13.8189   28.9150 O   0  0  0  0  0  0  0  0  0  0  0  0
  2  3  1  1
  2  1  1  0
  4  2  1  0
  5  7  1  0
  5  4  1  0
  5  6  1  6
  7 13  1  0
  7  8  2  0
 10  9  1  6
 11 10  1  0
 12 10  1  0
 12 13  1  6
 14 20  1  0
 14 12  1  0
 15 14  2  0
 17 16  1  6
 17 19  1  0
 18 17  1  0
 19 21  1  0
 19 20  1  6
 21 22  1  0
 23 21  2  0
M  END
$$$$
