LTV.pdb
     RDKit          3D

 23 22  0  0  1  0  0  0  0  0999 V2000
    9.9550  -12.6983   19.1353 C   0  0  0  0  0  0  0  0  0  0  0  0
    8.5319  -13.2087   19.2163 C   0  0  2  0  0  0  0  0  0  0  0  0
    7.6364  -12.0059   19.2982 C   0  0  0  0  0  0  0  0  0  0  0  0
    8.3549  -14.1769   20.3628 C   0  0  0  0  0  0  0  0  0  0  0  0
    9.1751  -15.4175   20.1857 C   0  0  2  0  0  0  0  0  0  0  0  0
    8.7540  -16.1100   19.0094 N   0  0  0  0  0  0  0  0  0  0  0  0
    9.1242  -16.3040   21.3780 C   0  0  0  0  0  0  0  0  0  0  0  0
    8.4749  -17.3808   21.3213 O   0  0  0  0  0  0  0  0  0  0  0  0
    9.5948  -19.0354   22.3354 C   0  0  0  0  0  0  0  0  0  0  0  0
   10.3307  -18.2949   23.4151 C   0  0  1  0  0  0  0  0  0  0  0  0
   11.6520  -18.1468   23.0053 O   0  0  0  0  0  0  0  0  0  0  0  0
    9.7560  -16.9571   23.7388 C   0  0  2  0  0  0  0  0  0  0  0  0
    9.7506  -16.0498   22.6036 N   0  0  0  0  0  0  0  0  0  0  0  0
   10.4041  -16.2389   24.8501 C   0  0  0  0  0  0  0  0  0  0  0  0
   11.4664  -15.5413   24.6629 O   0  0  0  0  0  0  0  0  0  0  0  0
    8.4503  -14.4852   27.8097 C   0  0  0  0  0  0  0  0  0  0  0  0
    9.9033  -14.1635   27.5337 C   0  0  1  0  0  0  0  0  0  0  0  0
   10.4459  -13.4198   28.7193 C   0  0  0  0  0  0  0  0  0  0  0  0
   10.6123  -15.4509   27.2560 C   0  0  2  0  0  0  0  0  0  0  0  0
    9.9575  -16.2276   26.2019 N   0  0  0  0  0  0  0  0  0  0  0  0
   10.7150  -16.2417   28.4812 C   0  0  0  0  0  0  0  0  0  0  0  0
   11.5817  -15.9068   29.5065 O   0  0  0  0  0  0  0  0  0  0  0  0
    9.9985  -17.2621   28.6215 O   0  0  0  0  0  0  0  0  0  0  0  0
  2  3  1  1
  2  1  1  0
  4  2  1  0
  5  7  1  0
  5  4  1  0
  5  6  1  6
  7 13  1  0
  7  8  2  0
 10  9  1  6
 11 10  1  0
 12 10  1  0
 12 13  1  6
 14 20  1  0
 14 12  1  0
 15 14  2  0
 17 16  1  1
 17 19  1  0
 18 17  1  0
 19 21  1  0
 19 20  1  6
 21 22  1  0
 23 21  2  0
M  END
$$$$
