LTV.pdb
     RDKit          3D

 23 22  0  0  1  0  0  0  0  0999 V2000
    9.7668  -12.6230   19.2972 C   0  0  0  0  0  0  0  0  0  0  0  0
    8.4084  -13.2768   19.1562 C   0  0  2  0  0  0  0  0  0  0  0  0
    7.3951  -12.1721   19.0650 C   0  0  0  0  0  0  0  0  0  0  0  0
    8.1439  -14.2526   20.2791 C   0  0  0  0  0  0  0  0  0  0  0  0
    9.1520  -15.3596   20.3142 C   0  0  2  0  0  0  0  0  0  0  0  0
    9.0116  -16.1765   19.1507 N   0  0  0  0  0  0  0  0  0  0  0  0
    9.0566  -16.1721   21.5555 C   0  0  0  0  0  0  0  0  0  0  0  0
    8.0352  -16.8801   21.7547 O   0  0  0  0  0  0  0  0  0  0  0  0
    9.9170  -19.2580   22.5631 C   0  0  0  0  0  0  0  0  0  0  0  0
   10.5690  -18.3894   23.6004 C   0  0  1  0  0  0  0  0  0  0  0  0
   11.9055  -18.2337   23.2463 O   0  0  0  0  0  0  0  0  0  0  0  0
    9.9358  -17.0483   23.7596 C   0  0  2  0  0  0  0  0  0  0  0  0
   10.0270  -16.2296   22.5625 N   0  0  0  0  0  0  0  0  0  0  0  0
   10.4514  -16.2300   24.8710 C   0  0  0  0  0  0  0  0  0  0  0  0
   11.3850  -15.3673   24.6858 O   0  0  0  0  0  0  0  0  0  0  0  0
    8.4030  -14.4834   27.6868 C   0  0  0  0  0  0  0  0  0  0  0  0
    9.8712  -14.1807   27.4769 C   0  0  1  0  0  0  0  0  0  0  0  0
   10.3534  -13.3880   28.6567 C   0  0  0  0  0  0  0  0  0  0  0  0
   10.5852  -15.4824   27.2951 C   0  0  2  0  0  0  0  0  0  0  0  0
   10.0026  -16.2885   26.2210 N   0  0  0  0  0  0  0  0  0  0  0  0
   10.5881  -16.2327   28.5497 C   0  0  0  0  0  0  0  0  0  0  0  0
   11.3034  -15.8159   29.6584 O   0  0  0  0  0  0  0  0  0  0  0  0
    9.9236  -17.2933   28.6386 O   0  0  0  0  0  0  0  0  0  0  0  0
  2  3  1  1
  2  1  1  0
  4  2  1  0
  5  7  1  0
  5  4  1  0
  5  6  1  6
  7 13  1  0
  7  8  2  0
 10  9  1  6
 11 10  1  0
 12 10  1  0
 12 13  1  6
 14 20  1  0
 14 12  1  0
 15 14  2  0
 17 16  1  1
 17 19  1  0
 18 17  1  0
 19 21  1  0
 19 20  1  6
 21 22  1  0
 23 21  2  0
M  END
$$$$
