LTV.pdb
     RDKit          3D

 23 22  0  0  1  0  0  0  0  0999 V2000
    9.5079  -13.4567   19.3293 C   0  0  0  0  0  0  0  0  0  0  0  0
    8.0064  -13.6019   19.2000 C   0  0  2  0  0  0  0  0  0  0  0  0
    7.4765  -12.2836   18.7136 C   0  0  0  0  0  0  0  0  0  0  0  0
    7.3812  -14.0675   20.4945 C   0  0  0  0  0  0  0  0  0  0  0  0
    7.9355  -15.3828   20.9480 C   0  0  2  0  0  0  0  0  0  0  0  0
    7.4541  -16.4269   20.1003 N   0  0  0  0  0  0  0  0  0  0  0  0
    7.6274  -15.6645   22.3749 C   0  0  0  0  0  0  0  0  0  0  0  0
    6.4516  -15.5090   22.7964 O   0  0  0  0  0  0  0  0  0  0  0  0
    6.6351  -18.3444   23.8432 C   0  0  0  0  0  0  0  0  0  0  0  0
    7.8198  -18.0057   24.7019 C   0  0  1  0  0  0  0  0  0  0  0  0
    8.8899  -18.7874   24.2785 O   0  0  0  0  0  0  0  0  0  0  0  0
    8.2086  -16.5661   24.6657 C   0  0  2  0  0  0  0  0  0  0  0  0
    8.5504  -16.1019   23.3317 N   0  0  0  0  0  0  0  0  0  0  0  0
    9.3294  -16.1882   25.5442 C   0  0  0  0  0  0  0  0  0  0  0  0
   10.4948  -15.9360   25.0663 O   0  0  0  0  0  0  0  0  0  0  0  0
    9.7010  -13.3075   27.7050 C   0  0  0  0  0  0  0  0  0  0  0  0
   10.0745  -14.4474   28.6281 C   0  0  1  0  0  0  0  0  0  0  0  0
    8.9272  -14.6761   29.5686 C   0  0  0  0  0  0  0  0  0  0  0  0
   10.4018  -15.6349   27.7795 C   0  0  2  0  0  0  0  0  0  0  0  0
    9.2655  -16.0608   26.9609 N   0  0  0  0  0  0  0  0  0  0  0  0
   10.8663  -16.7384   28.6183 C   0  0  0  0  0  0  0  0  0  0  0  0
   12.0336  -16.6641   29.3576 O   0  0  0  0  0  0  0  0  0  0  0  0
   10.1933  -17.7956   28.6795 O   0  0  0  0  0  0  0  0  0  0  0  0
  2  3  1  1
  2  1  1  0
  4  2  1  0
  5  7  1  0
  5  4  1  0
  5  6  1  6
  7 13  1  0
  7  8  2  0
 10  9  1  6
 11 10  1  0
 12 10  1  0
 12 13  1  6
 14 20  1  0
 14 12  1  0
 15 14  2  0
 17 16  1  6
 17 19  1  0
 18 17  1  0
 19 21  1  0
 19 20  1  1
 21 22  1  0
 23 21  2  0
M  END
$$$$
