LTV.pdb
     RDKit          3D

 23 22  0  0  1  0  0  0  0  0999 V2000
    7.7265  -12.4888   18.7680 C   0  0  0  0  0  0  0  0  0  0  0  0
    8.2416  -13.5974   19.6614 C   0  0  2  0  0  0  0  0  0  0  0  0
    9.6838  -13.2953   19.9514 C   0  0  0  0  0  0  0  0  0  0  0  0
    8.0185  -14.9573   19.0416 C   0  0  0  0  0  0  0  0  0  0  0  0
    8.3449  -16.0700   19.9894 C   0  0  2  0  0  0  0  0  0  0  0  0
    8.1285  -17.3282   19.3485 N   0  0  0  0  0  0  0  0  0  0  0  0
    7.5771  -15.9750   21.2590 C   0  0  0  0  0  0  0  0  0  0  0  0
    6.3191  -15.9931   21.2241 O   0  0  0  0  0  0  0  0  0  0  0  0
    6.6100  -18.2907   23.3204 C   0  0  0  0  0  0  0  0  0  0  0  0
    7.2563  -17.3428   24.2897 C   0  0  1  0  0  0  0  0  0  0  0  0
    8.5148  -17.8466   24.6030 O   0  0  0  0  0  0  0  0  0  0  0  0
    7.3903  -15.9469   23.7815 C   0  0  2  0  0  0  0  0  0  0  0  0
    8.1363  -15.8629   22.5372 N   0  0  0  0  0  0  0  0  0  0  0  0
    8.0122  -14.9887   24.7120 C   0  0  0  0  0  0  0  0  0  0  0  0
    9.2347  -14.6205   24.5704 O   0  0  0  0  0  0  0  0  0  0  0  0
    6.8494  -11.4987   26.2712 C   0  0  0  0  0  0  0  0  0  0  0  0
    7.1836  -12.4803   27.3738 C   0  0  1  0  0  0  0  0  0  0  0  0
    5.8935  -13.0146   27.9245 C   0  0  0  0  0  0  0  0  0  0  0  0
    8.0720  -13.5347   26.7940 C   0  0  2  0  0  0  0  0  0  0  0  0
    7.3697  -14.3808   25.8276 N   0  0  0  0  0  0  0  0  0  0  0  0
    8.6452  -14.3512   27.8626 C   0  0  0  0  0  0  0  0  0  0  0  0
    9.4930  -13.8247   28.8211 O   0  0  0  0  0  0  0  0  0  0  0  0
    8.3677  -15.5733   27.9249 O   0  0  0  0  0  0  0  0  0  0  0  0
  2  3  1  6
  2  1  1  0
  4  2  1  0
  5  7  1  0
  5  4  1  0
  5  6  1  6
  7 13  1  0
  7  8  2  0
 10  9  1  6
 11 10  1  0
 12 10  1  0
 12 13  1  6
 14 20  1  0
 14 12  1  0
 15 14  2  0
 17 16  1  6
 17 19  1  0
 18 17  1  0
 19 21  1  0
 19 20  1  6
 21 22  1  0
 23 21  2  0
M  END
$$$$
