LTV.pdb
     RDKit          3D

 23 22  0  0  1  0  0  0  0  0999 V2000
    9.8307  -13.0788   19.8185 C   0  0  0  0  0  0  0  0  0  0  0  0
    8.9720  -13.3008   18.5914 C   0  0  2  0  0  0  0  0  0  0  0  0
    8.1571  -12.0551   18.3927 C   0  0  0  0  0  0  0  0  0  0  0  0
    8.1412  -14.5567   18.7162 C   0  0  0  0  0  0  0  0  0  0  0  0
    8.8788  -15.6538   19.4200 C   0  0  2  0  0  0  0  0  0  0  0  0
    9.0534  -16.7618   18.5354 N   0  0  0  0  0  0  0  0  0  0  0  0
    8.2052  -16.0718   20.6777 C   0  0  0  0  0  0  0  0  0  0  0  0
    7.3661  -17.0094   20.6482 O   0  0  0  0  0  0  0  0  0  0  0  0
    7.6866  -18.3761   22.3223 C   0  0  0  0  0  0  0  0  0  0  0  0
    8.2053  -17.4675   23.3998 C   0  0  1  0  0  0  0  0  0  0  0  0
    9.5845  -17.6357   23.4712 O   0  0  0  0  0  0  0  0  0  0  0  0
    7.8892  -16.0254   23.1870 C   0  0  2  0  0  0  0  0  0  0  0  0
    8.4202  -15.5040   21.9388 N   0  0  0  0  0  0  0  0  0  0  0  0
    8.3399  -15.1121   24.2517 C   0  0  0  0  0  0  0  0  0  0  0  0
    9.5728  -14.7662   24.3549 O   0  0  0  0  0  0  0  0  0  0  0  0
    5.7145  -13.0867   26.9934 C   0  0  0  0  0  0  0  0  0  0  0  0
    6.9195  -12.4196   26.3657 C   0  0  1  0  0  0  0  0  0  0  0  0
    7.3584  -11.3081   27.2739 C   0  0  0  0  0  0  0  0  0  0  0  0
    7.9637  -13.4688   26.1518 C   0  0  2  0  0  0  0  0  0  0  0  0
    7.5088  -14.5273   25.2488 N   0  0  0  0  0  0  0  0  0  0  0  0
    8.3746  -14.0367   27.4348 C   0  0  0  0  0  0  0  0  0  0  0  0
    8.1478  -15.3616   27.7631 O   0  0  0  0  0  0  0  0  0  0  0  0
    8.9539  -13.3091   28.2770 O   0  0  0  0  0  0  0  0  0  0  0  0
  2  3  1  1
  2  1  1  0
  4  2  1  0
  5  7  1  0
  5  4  1  0
  5  6  1  6
  7 13  1  0
  7  8  2  0
 10  9  1  6
 11 10  1  0
 12 10  1  0
 12 13  1  6
 14 20  1  0
 14 12  1  0
 15 14  2  0
 17 16  1  1
 17 19  1  0
 18 17  1  0
 19 21  1  0
 19 20  1  6
 21 22  1  0
 23 21  2  0
M  END
$$$$
