LTV.pdb
     RDKit          3D

 23 22  0  0  1  0  0  0  0  0999 V2000
    9.8059  -12.9541   19.4009 C   0  0  0  0  0  0  0  0  0  0  0  0
    8.3457  -13.2870   19.1788 C   0  0  2  0  0  0  0  0  0  0  0  0
    7.6181  -11.9846   19.0065 C   0  0  0  0  0  0  0  0  0  0  0  0
    7.7973  -14.1462   20.2942 C   0  0  0  0  0  0  0  0  0  0  0  0
    8.5439  -15.4372   20.4315 C   0  0  2  0  0  0  0  0  0  0  0  0
    8.1481  -16.3355   19.3936 N   0  0  0  0  0  0  0  0  0  0  0  0
    8.3654  -16.0539   21.7724 C   0  0  0  0  0  0  0  0  0  0  0  0
    7.2089  -16.3595   22.1639 O   0  0  0  0  0  0  0  0  0  0  0  0
    8.9310  -19.2979   22.8974 C   0  0  0  0  0  0  0  0  0  0  0  0
    9.6695  -18.4536   23.8961 C   0  0  1  0  0  0  0  0  0  0  0  0
   11.0232  -18.5059   23.5796 O   0  0  0  0  0  0  0  0  0  0  0  0
    9.2227  -17.0312   23.9423 C   0  0  2  0  0  0  0  0  0  0  0  0
    9.3952  -16.3387   22.6764 N   0  0  0  0  0  0  0  0  0  0  0  0
    9.8661  -16.1961   24.9715 C   0  0  0  0  0  0  0  0  0  0  0  0
   10.9476  -15.5486   24.7236 O   0  0  0  0  0  0  0  0  0  0  0  0
    9.9149  -13.3240   28.8788 C   0  0  0  0  0  0  0  0  0  0  0  0
    9.1126  -14.2093   27.9495 C   0  0  1  0  0  0  0  0  0  0  0  0
    8.3645  -13.3227   26.9971 C   0  0  0  0  0  0  0  0  0  0  0  0
   10.0639  -15.1470   27.2765 C   0  0  2  0  0  0  0  0  0  0  0  0
    9.3945  -16.0102   26.3019 N   0  0  0  0  0  0  0  0  0  0  0  0
   10.7635  -15.9542   28.2746 C   0  0  0  0  0  0  0  0  0  0  0  0
   11.7653  -15.4343   29.0751 O   0  0  0  0  0  0  0  0  0  0  0  0
   10.4555  -17.1616   28.4212 O   0  0  0  0  0  0  0  0  0  0  0  0
  2  3  1  1
  2  1  1  0
  4  2  1  0
  5  7  1  0
  5  4  1  0
  5  6  1  6
  7 13  1  0
  7  8  2  0
 10  9  1  6
 11 10  1  0
 12 10  1  0
 12 13  1  6
 14 20  1  0
 14 12  1  0
 15 14  2  0
 17 16  1  1
 17 19  1  0
 18 17  1  0
 19 21  1  0
 19 20  1  6
 21 22  1  0
 23 21  2  0
M  END
$$$$
