LTV.pdb
     RDKit          3D

 23 22  0  0  1  0  0  0  0  0999 V2000
    9.5361  -12.7999   18.4114 C   0  0  0  0  0  0  0  0  0  0  0  0
    8.2755  -13.5910   18.1330 C   0  0  2  0  0  0  0  0  0  0  0  0
    7.4030  -12.7364   17.2591 C   0  0  0  0  0  0  0  0  0  0  0  0
    7.6054  -14.0341   19.4127 C   0  0  0  0  0  0  0  0  0  0  0  0
    8.5573  -14.7282   20.3373 C   0  0  2  0  0  0  0  0  0  0  0  0
    9.0362  -15.9269   19.7252 N   0  0  0  0  0  0  0  0  0  0  0  0
    7.9520  -15.0086   21.6660 C   0  0  0  0  0  0  0  0  0  0  0  0
    6.9662  -14.3283   22.0528 O   0  0  0  0  0  0  0  0  0  0  0  0
    7.1794  -18.6635   23.2240 C   0  0  0  0  0  0  0  0  0  0  0  0
    7.8422  -17.7373   24.2031 C   0  0  1  0  0  0  0  0  0  0  0  0
    9.1787  -18.1102   24.3042 O   0  0  0  0  0  0  0  0  0  0  0  0
    7.7534  -16.2946   23.8351 C   0  0  2  0  0  0  0  0  0  0  0  0
    8.3867  -15.9912   22.5629 N   0  0  0  0  0  0  0  0  0  0  0  0
    8.3120  -15.3520   24.8201 C   0  0  0  0  0  0  0  0  0  0  0  0
    9.5314  -14.9550   24.7451 O   0  0  0  0  0  0  0  0  0  0  0  0
    7.1111  -11.8910   26.0410 C   0  0  0  0  0  0  0  0  0  0  0  0
    7.3138  -12.7551   27.2671 C   0  0  1  0  0  0  0  0  0  0  0  0
    5.9637  -13.2057   27.7439 C   0  0  0  0  0  0  0  0  0  0  0  0
    8.2237  -13.8802   26.8887 C   0  0  2  0  0  0  0  0  0  0  0  0
    7.6069  -14.7904   25.9223 N   0  0  0  0  0  0  0  0  0  0  0  0
    8.6398  -14.6127   28.0834 C   0  0  0  0  0  0  0  0  0  0  0  0
    8.3818  -15.9619   28.2503 O   0  0  0  0  0  0  0  0  0  0  0  0
    9.2527  -14.0099   28.9974 O   0  0  0  0  0  0  0  0  0  0  0  0
  2  3  1  1
  2  1  1  0
  4  2  1  0
  5  7  1  0
  5  4  1  0
  5  6  1  6
  7 13  1  0
  7  8  2  0
 10  9  1  6
 11 10  1  0
 12 10  1  0
 12 13  1  6
 14 20  1  0
 14 12  1  0
 15 14  2  0
 17 16  1  6
 17 19  1  0
 18 17  1  0
 19 21  1  0
 19 20  1  6
 21 22  1  0
 23 21  2  0
M  END
$$$$
