LTV.pdb
     RDKit          3D

 23 22  0  0  1  0  0  0  0  0999 V2000
    8.0382  -13.1012   25.2935 C   0  0  0  0  0  0  0  0  0  0  0  0
    7.1071  -12.3752   24.3457 C   0  0  2  0  0  0  0  0  0  0  0  0
    6.2785  -11.4365   25.1749 C   0  0  0  0  0  0  0  0  0  0  0  0
    6.2886  -13.3429   23.5232 C   0  0  0  0  0  0  0  0  0  0  0  0
    7.1464  -14.2177   22.6618 C   0  0  2  0  0  0  0  0  0  0  0  0
    6.3319  -14.9046   21.7102 N   0  0  0  0  0  0  0  0  0  0  0  0
    7.9613  -15.1719   23.4591 C   0  0  0  0  0  0  0  0  0  0  0  0
    7.4107  -15.8477   24.3671 O   0  0  0  0  0  0  0  0  0  0  0  0
   11.7833  -18.3067   23.4911 C   0  0  0  0  0  0  0  0  0  0  0  0
   11.0283  -17.1394   22.9229 C   0  0  1  0  0  0  0  0  0  0  0  0
   10.3460  -17.5823   21.7943 O   0  0  0  0  0  0  0  0  0  0  0  0
   10.0651  -16.5135   23.8744 C   0  0  2  0  0  0  0  0  0  0  0  0
    9.3321  -15.4013   23.2937 N   0  0  0  0  0  0  0  0  0  0  0  0
   10.6463  -16.0231   25.1364 C   0  0  0  0  0  0  0  0  0  0  0  0
   11.4806  -15.0465   25.1504 O   0  0  0  0  0  0  0  0  0  0  0  0
    9.0463  -15.3030   28.6029 C   0  0  0  0  0  0  0  0  0  0  0  0
   10.4924  -14.9639   28.3118 C   0  0  1  0  0  0  0  0  0  0  0  0
   11.1532  -14.6022   29.6101 C   0  0  0  0  0  0  0  0  0  0  0  0
   11.1108  -16.1433   27.6308 C   0  0  2  0  0  0  0  0  0  0  0  0
   10.3702  -16.5425   26.4329 N   0  0  0  0  0  0  0  0  0  0  0  0
   11.2125  -17.2647   28.5632 C   0  0  0  0  0  0  0  0  0  0  0  0
   12.1243  -17.2803   29.6038 O   0  0  0  0  0  0  0  0  0  0  0  0
   10.4530  -18.2542   28.4269 O   0  0  0  0  0  0  0  0  0  0  0  0
  2  3  1  1
  2  1  1  0
  4  2  1  0
  5  7  1  0
  5  4  1  0
  5  6  1  6
  7 13  1  0
  7  8  2  0
 10  9  1  1
 11 10  1  0
 12 10  1  0
 12 13  1  6
 14 20  1  0
 14 12  1  0
 15 14  2  0
 17 16  1  1
 17 19  1  0
 18 17  1  0
 19 21  1  0
 19 20  1  6
 21 22  1  0
 23 21  2  0
M  END
$$$$
