PST.pdb
     RDKit          3D

 21 21  0  0  1  0  0  0  0  0999 V2000
   21.5756  -12.6030  -18.0583 N   0  0  0  0  0  0  0  0  0  0  0  0
   21.3509  -13.6355  -19.0537 C   0  0  0  0  0  0  0  0  0  0  0  0
   19.9650  -13.2208  -19.5662 C   0  0  0  0  0  0  0  0  0  0  0  0
   20.2179  -11.7359  -19.8151 C   0  0  0  0  0  0  0  0  0  0  0  0
   21.2458  -11.3995  -18.7562 C   0  0  1  0  0  0  0  0  0  0  0  0
   20.6382  -10.3731  -17.8733 C   0  0  0  0  0  0  0  0  0  0  0  0
   19.6163   -9.7767  -18.2922 O   0  0  0  0  0  0  0  0  0  0  0  0
   19.5000   -8.7531  -13.6404 O   0  0  0  0  0  0  0  0  0  0  0  0
   20.1929   -9.7054  -14.3860 C   0  0  0  0  0  0  0  0  0  0  0  0
   20.6175   -9.0947  -15.7040 C   0  0  2  0  0  0  0  0  0  0  0  0
   21.1625  -10.0573  -16.6106 N   0  0  0  0  0  0  0  0  0  0  0  0
   21.6468   -8.0754  -15.4048 C   0  0  0  0  0  0  0  0  0  0  0  0
   22.8398   -8.4224  -15.2537 O   0  0  0  0  0  0  0  0  0  0  0  0
   22.3983   -5.2882  -17.5178 C   0  0  0  0  0  0  0  0  0  0  0  0
   22.0562   -4.6883  -16.1936 C   0  0  1  0  0  0  0  0  0  0  0  0
   20.7223   -4.3055  -16.2027 O   0  0  0  0  0  0  0  0  0  0  0  0
   22.2250   -5.7110  -15.0807 C   0  0  2  0  0  0  0  0  0  0  0  0
   21.2174   -6.7252  -15.3024 N   0  0  0  0  0  0  0  0  0  0  0  0
   21.9301   -5.0948  -13.7505 C   0  0  0  0  0  0  0  0  0  0  0  0
   22.6121   -4.1701  -13.2429 O   0  0  0  0  0  0  0  0  0  0  0  0
   20.8439   -5.5668  -13.0323 O   0  0  0  0  0  0  0  0  0  0  0  0
  1  2  1  0
  3  2  1  0
  4  5  1  0
  4  3  1  0
  5  1  1  0
  6 11  1  0
  5  6  1  1
  7  6  2  0
 10  9  1  1
  9  8  1  0
 10 12  1  0
 10 11  1  0
 12 18  1  0
 13 12  2  0
 15 16  1  0
 15 14  1  6
 17 19  1  0
 17 15  1  0
 17 18  1  6
 19 21  1  0
 20 19  2  0
M  END
$$$$
