PST.pdb
     RDKit          3D

 21 21  0  0  1  0  0  0  0  0999 V2000
   14.8196  -10.3891  -12.6947 N   0  0  0  0  0  0  0  0  0  0  0  0
   13.9419  -11.5395  -12.5783 C   0  0  0  0  0  0  0  0  0  0  0  0
   14.5627  -12.4622  -13.6359 C   0  0  0  0  0  0  0  0  0  0  0  0
   16.0299  -12.3732  -13.2238 C   0  0  0  0  0  0  0  0  0  0  0  0
   16.1254  -10.9704  -12.6634 C   0  0  1  0  0  0  0  0  0  0  0  0
   17.1012  -10.2335  -13.5043 C   0  0  0  0  0  0  0  0  0  0  0  0
   18.2764  -10.6721  -13.5516 O   0  0  0  0  0  0  0  0  0  0  0  0
   15.8358   -6.9025  -15.6342 O   0  0  0  0  0  0  0  0  0  0  0  0
   16.8944   -7.6176  -16.1918 C   0  0  0  0  0  0  0  0  0  0  0  0
   17.6314   -8.3544  -15.0945 C   0  0  2  0  0  0  0  0  0  0  0  0
   16.7548   -9.0850  -14.2323 N   0  0  0  0  0  0  0  0  0  0  0  0
   18.3600   -7.3429  -14.2984 C   0  0  0  0  0  0  0  0  0  0  0  0
   17.8629   -6.9146  -13.2326 O   0  0  0  0  0  0  0  0  0  0  0  0
   22.6306   -5.0924  -13.6036 C   0  0  0  0  0  0  0  0  0  0  0  0
   21.7977   -6.0607  -14.3778 C   0  0  1  0  0  0  0  0  0  0  0  0
   22.1578   -7.3524  -14.0200 O   0  0  0  0  0  0  0  0  0  0  0  0
   20.3246   -5.8925  -14.0397 C   0  0  2  0  0  0  0  0  0  0  0  0
   19.6145   -6.9004  -14.7968 N   0  0  0  0  0  0  0  0  0  0  0  0
   19.8238   -4.5657  -14.5141 C   0  0  0  0  0  0  0  0  0  0  0  0
   19.6485   -3.5758  -13.7609 O   0  0  0  0  0  0  0  0  0  0  0  0
   19.5350   -4.4136  -15.8602 O   0  0  0  0  0  0  0  0  0  0  0  0
  1  2  1  0
  3  2  1  0
  4  5  1  0
  4  3  1  0
  5  1  1  0
  6 11  1  0
  5  6  1  6
  7  6  2  0
 10  9  1  6
  9  8  1  0
 10 12  1  0
 10 11  1  0
 12 18  1  0
 13 12  2  0
 15 16  1  0
 15 14  1  1
 17 19  1  0
 17 15  1  0
 17 18  1  6
 19 21  1  0
 20 19  2  0
M  END
$$$$
