PST.pdb
     RDKit          3D

 21 21  0  0  1  0  0  0  0  0999 V2000
   22.1108  -11.7853  -17.9063 N   0  0  0  0  0  0  0  0  0  0  0  0
   21.8811  -13.0456  -18.5891 C   0  0  0  0  0  0  0  0  0  0  0  0
   20.3953  -12.8954  -18.9429 C   0  0  0  0  0  0  0  0  0  0  0  0
   20.4194  -11.4997  -19.5613 C   0  0  0  0  0  0  0  0  0  0  0  0
   21.5352  -10.8236  -18.7940 C   0  0  1  0  0  0  0  0  0  0  0  0
   20.9327   -9.6716  -18.0783 C   0  0  0  0  0  0  0  0  0  0  0  0
   20.5358   -8.7011  -18.7684 O   0  0  0  0  0  0  0  0  0  0  0  0
   20.2088   -9.8097  -13.9225 O   0  0  0  0  0  0  0  0  0  0  0  0
   19.4329   -8.9973  -14.7477 C   0  0  0  0  0  0  0  0  0  0  0  0
   20.2655   -8.5447  -15.9275 C   0  0  2  0  0  0  0  0  0  0  0  0
   20.7971   -9.6373  -16.6821 N   0  0  0  0  0  0  0  0  0  0  0  0
   21.3837   -7.7374  -15.3927 C   0  0  0  0  0  0  0  0  0  0  0  0
   22.4955   -8.2741  -15.1876 O   0  0  0  0  0  0  0  0  0  0  0  0
   21.0828   -3.6358  -15.8215 C   0  0  0  0  0  0  0  0  0  0  0  0
   22.3499   -4.4246  -15.7670 C   0  0  1  0  0  0  0  0  0  0  0  0
   23.3851   -3.5887  -15.3725 O   0  0  0  0  0  0  0  0  0  0  0  0
   22.2473   -5.5353  -14.7333 C   0  0  2  0  0  0  0  0  0  0  0  0
   21.1309   -6.3637  -15.1339 N   0  0  0  0  0  0  0  0  0  0  0  0
   21.9066   -4.9741  -13.3898 C   0  0  0  0  0  0  0  0  0  0  0  0
   20.8261   -5.2025  -12.7914 O   0  0  0  0  0  0  0  0  0  0  0  0
   22.8318   -4.1545  -12.7644 O   0  0  0  0  0  0  0  0  0  0  0  0
  1  2  1  0
  3  2  1  0
  4  5  1  0
  4  3  1  0
  5  1  1  0
  6 11  1  0
  5  6  1  1
  7  6  2  0
 10  9  1  1
  9  8  1  0
 10 12  1  0
 10 11  1  0
 12 18  1  0
 13 12  2  0
 15 16  1  0
 15 14  1  1
 17 19  1  0
 17 15  1  0
 17 18  1  6
 19 21  1  0
 20 19  2  0
M  END
$$$$
