PST.pdb
     RDKit          3D

 21 21  0  0  1  0  0  0  0  0999 V2000
   24.8278  -14.6414  -15.0703 N   0  0  0  0  0  0  0  0  0  0  0  0
   25.3485  -15.9756  -15.3071 C   0  0  0  0  0  0  0  0  0  0  0  0
   24.8619  -16.2053  -16.7444 C   0  0  0  0  0  0  0  0  0  0  0  0
   25.3323  -14.9019  -17.3853 C   0  0  0  0  0  0  0  0  0  0  0  0
   25.2333  -13.9210  -16.2368 C   0  0  1  0  0  0  0  0  0  0  0  0
   24.2531  -12.8816  -16.6381 C   0  0  0  0  0  0  0  0  0  0  0  0
   24.5418  -12.1591  -17.6231 O   0  0  0  0  0  0  0  0  0  0  0  0
   20.5701  -12.4910  -14.6119 O   0  0  0  0  0  0  0  0  0  0  0  0
   20.6302  -12.2285  -15.9796 C   0  0  0  0  0  0  0  0  0  0  0  0
   22.0223  -11.7535  -16.3355 C   0  0  2  0  0  0  0  0  0  0  0  0
   23.0387  -12.6878  -15.9622 N   0  0  0  0  0  0  0  0  0  0  0  0
   22.2491  -10.4801  -15.6179 C   0  0  0  0  0  0  0  0  0  0  0  0
   22.8906  -10.4778  -14.5432 O   0  0  0  0  0  0  0  0  0  0  0  0
   23.6021   -7.3302  -17.2447 C   0  0  0  0  0  0  0  0  0  0  0  0
   22.2819   -7.0294  -16.6145 C   0  0  1  0  0  0  0  0  0  0  0  0
   21.2882   -7.1320  -17.5779 O   0  0  0  0  0  0  0  0  0  0  0  0
   21.9626   -8.0430  -15.5266 C   0  0  2  0  0  0  0  0  0  0  0  0
   21.7146   -9.2994  -16.1996 N   0  0  0  0  0  0  0  0  0  0  0  0
   20.6967   -7.6758  -14.8204 C   0  0  0  0  0  0  0  0  0  0  0  0
   19.6286   -8.3299  -14.9167 O   0  0  0  0  0  0  0  0  0  0  0  0
   20.6958   -6.5510  -14.0121 O   0  0  0  0  0  0  0  0  0  0  0  0
  1  2  1  0
  3  2  1  0
  4  5  1  0
  4  3  1  0
  5  1  1  0
  6 11  1  0
  5  6  1  6
  7  6  2  0
 10  9  1  1
  9  8  1  0
 10 12  1  0
 10 11  1  0
 12 18  1  0
 13 12  2  0
 15 16  1  0
 15 14  1  6
 17 19  1  0
 17 15  1  0
 17 18  1  6
 19 21  1  0
 20 19  2  0
M  END
$$$$
