PST.pdb
     RDKit          3D

 21 21  0  0  1  0  0  0  0  0999 V2000
   22.9991  -10.9804  -17.9634 N   0  0  0  0  0  0  0  0  0  0  0  0
   22.9659  -12.2574  -18.6530 C   0  0  0  0  0  0  0  0  0  0  0  0
   21.4575  -12.5393  -18.6291 C   0  0  0  0  0  0  0  0  0  0  0  0
   20.9384  -11.1982  -19.1415 C   0  0  0  0  0  0  0  0  0  0  0  0
   21.9770  -10.2277  -18.6214 C   0  0  1  0  0  0  0  0  0  0  0  0
   21.2762   -9.2918  -17.7075 C   0  0  0  0  0  0  0  0  0  0  0  0
   20.3625   -8.5804  -18.1920 O   0  0  0  0  0  0  0  0  0  0  0  0
   21.9300   -9.4452  -13.5611 O   0  0  0  0  0  0  0  0  0  0  0  0
   20.7112   -8.9974  -14.0681 C   0  0  0  0  0  0  0  0  0  0  0  0
   20.9432   -8.3277  -15.4052 C   0  0  2  0  0  0  0  0  0  0  0  0
   21.5990   -9.1820  -16.3463 N   0  0  0  0  0  0  0  0  0  0  0  0
   21.7888   -7.1389  -15.1606 C   0  0  0  0  0  0  0  0  0  0  0  0
   23.0346   -7.2562  -15.1375 O   0  0  0  0  0  0  0  0  0  0  0  0
   20.9421   -3.7200  -16.8604 C   0  0  0  0  0  0  0  0  0  0  0  0
   21.1280   -3.5603  -15.3871 C   0  0  1  0  0  0  0  0  0  0  0  0
   19.8856   -3.5922  -14.7695 O   0  0  0  0  0  0  0  0  0  0  0  0
   21.9438   -4.7119  -14.8206 C   0  0  2  0  0  0  0  0  0  0  0  0
   21.1271   -5.8979  -14.9602 N   0  0  0  0  0  0  0  0  0  0  0  0
   22.1780   -4.5206  -13.3561 C   0  0  0  0  0  0  0  0  0  0  0  0
   21.6477   -5.2305  -12.4657 O   0  0  0  0  0  0  0  0  0  0  0  0
   23.0276   -3.5039  -12.9522 O   0  0  0  0  0  0  0  0  0  0  0  0
  1  2  1  0
  3  2  1  0
  4  5  1  0
  4  3  1  0
  5  1  1  0
  6 11  1  0
  5  6  1  1
  7  6  2  0
 10  9  1  1
  9  8  1  0
 10 12  1  0
 10 11  1  0
 12 18  1  0
 13 12  2  0
 15 16  1  0
 15 14  1  6
 17 19  1  0
 17 15  1  0
 17 18  1  1
 19 21  1  0
 20 19  2  0
M  END
$$$$
