PST.pdb
     RDKit          3D

 21 21  0  0  1  0  0  0  0  0999 V2000
   18.4815  -12.5606  -15.5848 N   0  0  0  0  0  0  0  0  0  0  0  0
   17.8055  -13.7640  -16.0343 C   0  0  0  0  0  0  0  0  0  0  0  0
   17.0514  -13.2127  -17.2520 C   0  0  0  0  0  0  0  0  0  0  0  0
   18.1938  -12.4786  -17.9496 C   0  0  0  0  0  0  0  0  0  0  0  0
   19.0580  -12.0421  -16.7861 C   0  0  1  0  0  0  0  0  0  0  0  0
   19.0982  -10.5589  -16.8087 C   0  0  0  0  0  0  0  0  0  0  0  0
   19.6966  -10.0077  -17.7646 O   0  0  0  0  0  0  0  0  0  0  0  0
   16.7394   -8.3908  -14.1701 O   0  0  0  0  0  0  0  0  0  0  0  0
   17.1215   -7.7926  -15.3698 C   0  0  0  0  0  0  0  0  0  0  0  0
   18.4658   -8.3422  -15.7951 C   0  0  2  0  0  0  0  0  0  0  0  0
   18.4991   -9.7719  -15.8133 N   0  0  0  0  0  0  0  0  0  0  0  0
   19.4692   -7.8476  -14.8273 C   0  0  0  0  0  0  0  0  0  0  0  0
   19.4383   -8.2463  -13.6414 O   0  0  0  0  0  0  0  0  0  0  0  0
   22.9988   -8.3527  -15.0786 C   0  0  0  0  0  0  0  0  0  0  0  0
   22.8010   -6.8724  -15.0664 C   0  0  1  0  0  0  0  0  0  0  0  0
   22.7364   -6.4150  -16.3751 O   0  0  0  0  0  0  0  0  0  0  0  0
   21.4842   -6.5119  -14.3965 C   0  0  2  0  0  0  0  0  0  0  0  0
   20.4373   -6.9247  -15.3058 N   0  0  0  0  0  0  0  0  0  0  0  0
   21.3605   -5.0296  -14.2424 C   0  0  0  0  0  0  0  0  0  0  0  0
   20.5676   -4.3219  -14.9119 O   0  0  0  0  0  0  0  0  0  0  0  0
   22.1638   -4.3951  -13.3093 O   0  0  0  0  0  0  0  0  0  0  0  0
  1  2  1  0
  3  2  1  0
  4  5  1  0
  4  3  1  0
  5  1  1  0
  6 11  1  0
  5  6  1  1
  7  6  2  0
 10  9  1  1
  9  8  1  0
 10 12  1  0
 10 11  1  0
 12 18  1  0
 13 12  2  0
 15 16  1  0
 15 14  1  6
 17 19  1  0
 17 15  1  0
 17 18  1  6
 19 21  1  0
 20 19  2  0
M  END
$$$$
