PST.pdb
     RDKit          3D

 21 21  0  0  1  0  0  0  0  0999 V2000
   24.3282  -12.3397  -15.5255 N   0  0  0  0  0  0  0  0  0  0  0  0
   24.4952  -13.7711  -15.7003 C   0  0  0  0  0  0  0  0  0  0  0  0
   23.1929  -14.1078  -16.4393 C   0  0  0  0  0  0  0  0  0  0  0  0
   23.2289  -13.0335  -17.5234 C   0  0  0  0  0  0  0  0  0  0  0  0
   23.9437  -11.8946  -16.8286 C   0  0  1  0  0  0  0  0  0  0  0  0
   22.9991  -10.7508  -16.7879 C   0  0  0  0  0  0  0  0  0  0  0  0
   22.6708  -10.2283  -17.8810 O   0  0  0  0  0  0  0  0  0  0  0  0
   20.7334  -10.1333  -13.4597 O   0  0  0  0  0  0  0  0  0  0  0  0
   20.3152   -9.5519  -14.6556 C   0  0  0  0  0  0  0  0  0  0  0  0
   21.5284   -9.1798  -15.4802 C   0  0  2  0  0  0  0  0  0  0  0  0
   22.4737  -10.2477  -15.5879 N   0  0  0  0  0  0  0  0  0  0  0  0
   22.1748   -8.0271  -14.8158 C   0  0  0  0  0  0  0  0  0  0  0  0
   23.0534   -8.2233  -13.9464 O   0  0  0  0  0  0  0  0  0  0  0  0
   24.2874   -5.5706  -16.2109 C   0  0  0  0  0  0  0  0  0  0  0  0
   23.0882   -4.8286  -15.7192 C   0  0  1  0  0  0  0  0  0  0  0  0
   22.1711   -4.7164  -16.7548 O   0  0  0  0  0  0  0  0  0  0  0  0
   22.4076   -5.5927  -14.5941 C   0  0  2  0  0  0  0  0  0  0  0  0
   21.7548   -6.7282  -15.2087 N   0  0  0  0  0  0  0  0  0  0  0  0
   21.3312   -4.7630  -13.9703 C   0  0  0  0  0  0  0  0  0  0  0  0
   20.1048   -5.0087  -14.0863 O   0  0  0  0  0  0  0  0  0  0  0  0
   21.7017   -3.6590  -13.2204 O   0  0  0  0  0  0  0  0  0  0  0  0
  1  2  1  0
  3  2  1  0
  4  5  1  0
  4  3  1  0
  5  1  1  0
  6 11  1  0
  5  6  1  1
  7  6  2  0
 10  9  1  1
  9  8  1  0
 10 12  1  0
 10 11  1  0
 12 18  1  0
 13 12  2  0
 15 16  1  0
 15 14  1  6
 17 19  1  0
 17 15  1  0
 17 18  1  6
 19 21  1  0
 20 19  2  0
M  END
$$$$
