PST.pdb
     RDKit          3D

 21 21  0  0  1  0  0  0  0  0999 V2000
   28.2990  -20.2808  -15.5089 N   0  0  0  0  0  0  0  0  0  0  0  0
   28.6681  -19.0475  -16.1798 C   0  0  0  0  0  0  0  0  0  0  0  0
   27.4814  -18.1582  -15.7845 C   0  0  0  0  0  0  0  0  0  0  0  0
   27.4547  -18.4206  -14.2808 C   0  0  0  0  0  0  0  0  0  0  0  0
   27.9572  -19.8455  -14.1906 C   0  0  1  0  0  0  0  0  0  0  0  0
   26.8680  -20.6514  -13.5854 C   0  0  0  0  0  0  0  0  0  0  0  0
   26.2920  -21.4934  -14.3167 O   0  0  0  0  0  0  0  0  0  0  0  0
   25.6100  -19.7495   -9.7494 O   0  0  0  0  0  0  0  0  0  0  0  0
   25.4031  -21.0780  -10.1173 C   0  0  0  0  0  0  0  0  0  0  0  0
   25.3756  -21.1790  -11.6269 C   0  0  2  0  0  0  0  0  0  0  0  0
   26.4722  -20.5021  -12.2474 N   0  0  0  0  0  0  0  0  0  0  0  0
   24.1088  -20.5683  -12.0854 C   0  0  0  0  0  0  0  0  0  0  0  0
   24.0568  -19.3379  -12.3085 O   0  0  0  0  0  0  0  0  0  0  0  0
   21.5159  -23.0695  -14.0140 C   0  0  0  0  0  0  0  0  0  0  0  0
   21.6591  -21.5962  -14.2126 C   0  0  1  0  0  0  0  0  0  0  0  0
   20.5078  -21.1081  -14.8147 O   0  0  0  0  0  0  0  0  0  0  0  0
   21.8057  -20.8857  -12.8760 C   0  0  2  0  0  0  0  0  0  0  0  0
   22.9921  -21.4304  -12.2524 N   0  0  0  0  0  0  0  0  0  0  0  0
   20.6572  -21.2141  -11.9765 C   0  0  0  0  0  0  0  0  0  0  0  0
   20.7623  -21.9093  -10.9356 O   0  0  0  0  0  0  0  0  0  0  0  0
   19.4030  -20.7264  -12.3049 O   0  0  0  0  0  0  0  0  0  0  0  0
  1  2  1  0
  3  2  1  0
  4  5  1  0
  4  3  1  0
  5  1  1  0
  6 11  1  0
  5  6  1  6
  7  6  2  0
 10  9  1  1
  9  8  1  0
 10 12  1  0
 10 11  1  0
 12 18  1  0
 13 12  2  0
 15 16  1  0
 15 14  1  1
 17 19  1  0
 17 15  1  0
 17 18  1  1
 19 21  1  0
 20 19  2  0
M  END
$$$$
