PST.pdb
     RDKit          3D

 21 21  0  0  1  0  0  0  0  0999 V2000
   19.0003  -13.6468  -15.2442 N   0  0  0  0  0  0  0  0  0  0  0  0
   18.8740  -14.9954  -15.7663 C   0  0  0  0  0  0  0  0  0  0  0  0
   18.6010  -14.6892  -17.2452 C   0  0  0  0  0  0  0  0  0  0  0  0
   19.7289  -13.6958  -17.5133 C   0  0  0  0  0  0  0  0  0  0  0  0
   19.8945  -13.0216  -16.1683 C   0  0  1  0  0  0  0  0  0  0  0  0
   19.5988  -11.5810  -16.3665 C   0  0  0  0  0  0  0  0  0  0  0  0
   20.3687  -10.9262  -17.1109 O   0  0  0  0  0  0  0  0  0  0  0  0
   15.8536  -10.1317  -16.4601 O   0  0  0  0  0  0  0  0  0  0  0  0
   16.6564   -9.3387  -15.6417 C   0  0  0  0  0  0  0  0  0  0  0  0
   18.1107   -9.5870  -15.9784 C   0  0  2  0  0  0  0  0  0  0  0  0
   18.5064  -10.9437  -15.7585 N   0  0  0  0  0  0  0  0  0  0  0  0
   18.9197   -8.7012  -15.1130 C   0  0  0  0  0  0  0  0  0  0  0  0
   19.0975   -9.0001  -13.9107 O   0  0  0  0  0  0  0  0  0  0  0  0
   22.3900   -7.7081  -15.5054 C   0  0  0  0  0  0  0  0  0  0  0  0
   21.5790   -6.4553  -15.5639 C   0  0  1  0  0  0  0  0  0  0  0  0
   21.3097   -6.1539  -16.8916 O   0  0  0  0  0  0  0  0  0  0  0  0
   20.2425   -6.6473  -14.8643 C   0  0  2  0  0  0  0  0  0  0  0  0
   19.4648   -7.5309  -15.7056 N   0  0  0  0  0  0  0  0  0  0  0  0
   19.4956   -5.3539  -14.7921 C   0  0  0  0  0  0  0  0  0  0  0  0
   18.4578   -5.1090  -15.4562 O   0  0  0  0  0  0  0  0  0  0  0  0
   19.9706   -4.3653  -13.9461 O   0  0  0  0  0  0  0  0  0  0  0  0
  1  2  1  0
  3  2  1  0
  4  5  1  0
  4  3  1  0
  5  1  1  0
  6 11  1  0
  5  6  1  6
  7  6  2  0
 10  9  1  1
  9  8  1  0
 10 12  1  0
 10 11  1  0
 12 18  1  0
 13 12  2  0
 15 16  1  0
 15 14  1  6
 17 19  1  0
 17 15  1  0
 17 18  1  6
 19 21  1  0
 20 19  2  0
M  END
$$$$
