PST.pdb
     RDKit          3D

 21 21  0  0  1  0  0  0  0  0999 V2000
   14.0087  -12.5348  -11.2265 N   0  0  0  0  0  0  0  0  0  0  0  0
   12.8708  -12.2605  -10.3679 C   0  0  0  0  0  0  0  0  0  0  0  0
   13.0914  -10.7666  -10.0943 C   0  0  0  0  0  0  0  0  0  0  0  0
   13.3117  -10.2747  -11.5227 C   0  0  0  0  0  0  0  0  0  0  0  0
   13.9594  -11.4729  -12.1827 C   0  0  1  0  0  0  0  0  0  0  0  0
   15.3069  -11.0440  -12.6327 C   0  0  0  0  0  0  0  0  0  0  0  0
   16.2253  -11.0191  -11.7774 O   0  0  0  0  0  0  0  0  0  0  0  0
   16.7615  -11.6032  -16.5359 O   0  0  0  0  0  0  0  0  0  0  0  0
   16.8799  -10.3194  -16.0060 C   0  0  0  0  0  0  0  0  0  0  0  0
   16.8754  -10.4012  -14.4949 C   0  0  2  0  0  0  0  0  0  0  0  0
   15.5776  -10.6733  -13.9588 N   0  0  0  0  0  0  0  0  0  0  0  0
   17.3460   -9.0959  -13.9825 C   0  0  0  0  0  0  0  0  0  0  0  0
   16.5174   -8.1949  -13.7218 O   0  0  0  0  0  0  0  0  0  0  0  0
   19.2483   -8.6623  -10.9315 C   0  0  0  0  0  0  0  0  0  0  0  0
   20.0814   -8.0908  -12.0315 C   0  0  1  0  0  0  0  0  0  0  0  0
   20.9672   -9.0616  -12.4775 O   0  0  0  0  0  0  0  0  0  0  0  0
   19.2113   -7.6955  -13.2145 C   0  0  2  0  0  0  0  0  0  0  0  0
   18.7462   -8.9296  -13.8093 N   0  0  0  0  0  0  0  0  0  0  0  0
   20.0250   -6.9958  -14.2558 C   0  0  0  0  0  0  0  0  0  0  0  0
   20.5764   -5.8811  -14.0785 O   0  0  0  0  0  0  0  0  0  0  0  0
   20.1834   -7.6070  -15.4887 O   0  0  0  0  0  0  0  0  0  0  0  0
  1  2  1  0
  3  2  1  0
  4  5  1  0
  4  3  1  0
  5  1  1  0
  6 11  1  0
  5  6  1  1
  7  6  2  0
 10  9  1  6
  9  8  1  0
 10 12  1  0
 10 11  1  0
 12 18  1  0
 13 12  2  0
 15 16  1  0
 15 14  1  1
 17 19  1  0
 17 15  1  0
 17 18  1  6
 19 21  1  0
 20 19  2  0
M  END
$$$$
