VYM.pdb
     RDKit          3D

 28 28  0  0  1  0  0  0  0  0999 V2000
   22.1861  -18.7522  -18.7923 C   0  0  0  0  0  0  0  0  0  0  0  0
   23.1367  -17.8449  -18.0863 C   0  0  2  0  0  0  0  0  0  0  0  0
   23.3669  -16.6214  -18.9108 C   0  0  0  0  0  0  0  0  0  0  0  0
   24.4001  -18.5092  -17.6202 C   0  0  2  0  0  0  0  0  0  0  0  0
   25.2132  -18.7865  -18.7662 N   0  0  0  0  0  0  0  0  0  0  0  0
   24.1545  -19.7600  -16.8591 C   0  0  0  0  0  0  0  0  0  0  0  0
   23.8603  -20.8478  -17.4150 O   0  0  0  0  0  0  0  0  0  0  0  0
   29.5520  -23.1559  -16.9518 O   0  0  0  0  0  0  0  0  0  0  0  0
   28.4927  -22.6829  -16.1772 C   0  0  0  0  0  0  0  0  0  0  0  0
   27.4675  -23.5185  -15.7620 C   0  0  0  0  0  0  0  0  0  0  0  0
   26.4176  -23.0486  -14.9939 C   0  0  0  0  0  0  0  0  0  0  0  0
   26.3453  -21.7253  -14.6071 C   0  0  0  0  0  0  0  0  0  0  0  0
   25.2076  -21.2855  -13.7892 C   0  0  0  0  0  0  0  0  0  0  0  0
   23.9815  -20.9066  -14.6129 C   0  0  2  0  0  0  0  0  0  0  0  0
   24.2500  -19.7560  -15.4340 N   0  0  0  0  0  0  0  0  0  0  0  0
   22.7906  -20.6258  -13.7828 C   0  0  0  0  0  0  0  0  0  0  0  0
   22.5928  -19.4786  -13.3054 O   0  0  0  0  0  0  0  0  0  0  0  0
   27.3584  -20.8913  -15.0153 C   0  0  0  0  0  0  0  0  0  0  0  0
   28.4212  -21.3620  -15.7915 C   0  0  0  0  0  0  0  0  0  0  0  0
   18.7529  -17.6195  -14.8419 C   0  0  0  0  0  0  0  0  0  0  0  0
   17.5648  -18.8032  -14.1160 S   0  0  0  0  0  0  0  0  0  0  0  0
   18.4769  -19.9517  -13.0647 C   0  0  0  0  0  0  0  0  0  0  0  0
   19.8254  -20.3209  -13.6351 C   0  0  0  0  0  0  0  0  0  0  0  0
   20.5712  -21.3296  -12.7675 C   0  0  2  0  0  0  0  0  0  0  0  0
   21.8056  -21.6279  -13.4796 N   0  0  0  0  0  0  0  0  0  0  0  0
   19.6778  -22.5095  -12.6550 C   0  0  0  0  0  0  0  0  0  0  0  0
   18.7674  -22.6148  -11.6256 O   0  0  0  0  0  0  0  0  0  0  0  0
   19.7322  -23.4313  -13.4889 O   0  0  0  0  0  0  0  0  0  0  0  0
  2  1  1  6
  3  2  1  0
  4  5  1  6
  4  2  1  0
  6  4  1  0
  7  6  2  0
  9 10  2  0
  9  8  1  0
 11 10  1  0
 12 11  2  0
 14 13  1  1
 13 12  1  0
 14 15  1  0
 15  6  1  0
 16 17  2  0
 16 14  1  0
 18 12  1  0
 18 19  2  0
 19  9  1  0
 20 21  1  0
 21 22  1  0
 24 23  1  6
 23 22  1  0
 24 25  1  0
 25 16  1  0
 26 24  1  0
 27 26  1  0
 28 26  2  0
M  END
$$$$
