VYM.pdb
     RDKit          3D

 28 28  0  0  1  0  0  0  0  0999 V2000
   28.1046  -17.7938  -16.0095 C   0  0  0  0  0  0  0  0  0  0  0  0
   28.2318  -19.2800  -15.9887 C   0  0  2  0  0  0  0  0  0  0  0  0
   29.0632  -19.7275  -17.1456 C   0  0  0  0  0  0  0  0  0  0  0  0
   26.9282  -20.0136  -15.8584 C   0  0  2  0  0  0  0  0  0  0  0  0
   26.1604  -19.7834  -17.0453 N   0  0  0  0  0  0  0  0  0  0  0  0
   26.1471  -19.6066  -14.6633 C   0  0  0  0  0  0  0  0  0  0  0  0
   26.0801  -18.4159  -14.2676 O   0  0  0  0  0  0  0  0  0  0  0  0
   20.7092  -17.0207  -16.7132 O   0  0  0  0  0  0  0  0  0  0  0  0
   21.3158  -17.9034  -15.8197 C   0  0  0  0  0  0  0  0  0  0  0  0
   21.2253  -17.7241  -14.4480 C   0  0  0  0  0  0  0  0  0  0  0  0
   21.8270  -18.5999  -13.5628 C   0  0  0  0  0  0  0  0  0  0  0  0
   22.5449  -19.6921  -14.0076 C   0  0  0  0  0  0  0  0  0  0  0  0
   23.1591  -20.5886  -13.0197 C   0  0  0  0  0  0  0  0  0  0  0  0
   24.6299  -20.2827  -12.7578 C   0  0  2  0  0  0  0  0  0  0  0  0
   25.4317  -20.5889  -13.9127 N   0  0  0  0  0  0  0  0  0  0  0  0
   25.1760  -21.0173  -11.5966 C   0  0  0  0  0  0  0  0  0  0  0  0
   25.1722  -22.2752  -11.5690 O   0  0  0  0  0  0  0  0  0  0  0  0
   22.6387  -19.8760  -15.3663 C   0  0  0  0  0  0  0  0  0  0  0  0
   22.0321  -18.9933  -16.2643 C   0  0  0  0  0  0  0  0  0  0  0  0
   27.8562  -17.7904   -6.5751 C   0  0  0  0  0  0  0  0  0  0  0  0
   28.1048  -19.4987   -5.9759 S   0  0  0  0  0  0  0  0  0  0  0  0
   27.0652  -20.6017   -6.9551 C   0  0  0  0  0  0  0  0  0  0  0  0
   26.7790  -20.0619   -8.3360 C   0  0  0  0  0  0  0  0  0  0  0  0
   25.9217  -21.0098   -9.1685 C   0  0  2  0  0  0  0  0  0  0  0  0
   25.7353  -20.3500  -10.4529 N   0  0  0  0  0  0  0  0  0  0  0  0
   24.6501  -21.1725   -8.4205 C   0  0  0  0  0  0  0  0  0  0  0  0
   24.5111  -22.1529   -7.4619 O   0  0  0  0  0  0  0  0  0  0  0  0
   23.6800  -20.4262   -8.6438 O   0  0  0  0  0  0  0  0  0  0  0  0
  2  1  1  6
  3  2  1  0
  4  5  1  6
  4  2  1  0
  6  4  1  0
  7  6  2  0
  9 10  2  0
  9  8  1  0
 11 10  1  0
 12 11  2  0
 14 13  1  6
 13 12  1  0
 14 15  1  0
 15  6  1  0
 16 17  2  0
 16 14  1  0
 18 12  1  0
 18 19  2  0
 19  9  1  0
 20 21  1  0
 21 22  1  0
 24 23  1  1
 23 22  1  0
 24 25  1  0
 25 16  1  0
 26 24  1  0
 27 26  1  0
 28 26  2  0
M  END
$$$$
