VYM.pdb
     RDKit          3D

 28 28  0  0  1  0  0  0  0  0999 V2000
   18.8789  -11.4484  -17.1302 C   0  0  0  0  0  0  0  0  0  0  0  0
   19.2648  -10.7689  -18.4010 C   0  0  2  0  0  0  0  0  0  0  0  0
   19.6785  -11.7900  -19.4090 C   0  0  0  0  0  0  0  0  0  0  0  0
   20.2501   -9.6485  -18.2324 C   0  0  2  0  0  0  0  0  0  0  0  0
   21.5349  -10.2160  -17.9524 N   0  0  0  0  0  0  0  0  0  0  0  0
   19.8721   -8.6965  -17.1578 C   0  0  0  0  0  0  0  0  0  0  0  0
   18.7807   -8.0736  -17.1538 O   0  0  0  0  0  0  0  0  0  0  0  0
   19.0073   -5.1006   -9.2394 O   0  0  0  0  0  0  0  0  0  0  0  0
   19.5275   -5.7854  -10.3377 C   0  0  0  0  0  0  0  0  0  0  0  0
   19.1424   -7.0842  -10.6320 C   0  0  0  0  0  0  0  0  0  0  0  0
   19.6587   -7.7624  -11.7212 C   0  0  0  0  0  0  0  0  0  0  0  0
   20.5810   -7.1743  -12.5636 C   0  0  0  0  0  0  0  0  0  0  0  0
   21.0913   -7.9433  -13.7059 C   0  0  0  0  0  0  0  0  0  0  0  0
   20.5359   -7.4750  -15.0466 C   0  0  2  0  0  0  0  0  0  0  0  0
   20.7672   -8.4591  -16.0704 N   0  0  0  0  0  0  0  0  0  0  0  0
   21.1093   -6.1871  -15.4926 C   0  0  0  0  0  0  0  0  0  0  0  0
   22.2972   -6.1168  -15.9014 O   0  0  0  0  0  0  0  0  0  0  0  0
   20.9672   -5.8867  -12.2777 C   0  0  0  0  0  0  0  0  0  0  0  0
   20.4480   -5.1978  -11.1780 C   0  0  0  0  0  0  0  0  0  0  0  0
   19.6496    0.4264  -19.3327 C   0  0  0  0  0  0  0  0  0  0  0  0
   19.1342   -1.2505  -18.8210 S   0  0  0  0  0  0  0  0  0  0  0  0
   20.2919   -1.8444  -17.5707 C   0  0  0  0  0  0  0  0  0  0  0  0
   19.8892   -3.1778  -16.9879 C   0  0  0  0  0  0  0  0  0  0  0  0
   20.8997   -3.7016  -15.9725 C   0  0  2  0  0  0  0  0  0  0  0  0
   20.3565   -4.9625  -15.4879 N   0  0  0  0  0  0  0  0  0  0  0  0
   20.9816   -2.6693  -14.9093 C   0  0  0  0  0  0  0  0  0  0  0  0
   21.9842   -1.7236  -14.9141 O   0  0  0  0  0  0  0  0  0  0  0  0
   20.1456   -2.6357  -13.9885 O   0  0  0  0  0  0  0  0  0  0  0  0
  2  1  1  1
  3  2  1  0
  4  5  1  1
  4  2  1  0
  6  4  1  0
  7  6  2  0
  9 10  2  0
  9  8  1  0
 11 10  1  0
 12 11  2  0
 14 13  1  1
 13 12  1  0
 14 15  1  0
 15  6  1  0
 16 17  2  0
 16 14  1  0
 18 12  1  0
 18 19  2  0
 19  9  1  0
 20 21  1  0
 21 22  1  0
 24 23  1  6
 23 22  1  0
 24 25  1  0
 25 16  1  0
 26 24  1  0
 27 26  1  0
 28 26  2  0
M  END
$$$$
