VYM.pdb
     RDKit          3D

 28 28  0  0  1  0  0  0  0  0999 V2000
   22.3875  -10.0921  -15.4958 C   0  0  0  0  0  0  0  0  0  0  0  0
   21.0579  -10.5573  -15.9870 C   0  0  2  0  0  0  0  0  0  0  0  0
   21.1164  -10.7700  -17.4639 C   0  0  0  0  0  0  0  0  0  0  0  0
   19.8999   -9.7120  -15.5410 C   0  0  2  0  0  0  0  0  0  0  0  0
   19.9392   -8.4758  -16.2631 N   0  0  0  0  0  0  0  0  0  0  0  0
   19.9010   -9.4455  -14.0806 C   0  0  0  0  0  0  0  0  0  0  0  0
   19.8038  -10.3582  -13.2224 O   0  0  0  0  0  0  0  0  0  0  0  0
   22.1381   -2.5548  -15.3680 O   0  0  0  0  0  0  0  0  0  0  0  0
   21.8976   -3.6136  -14.4923 C   0  0  0  0  0  0  0  0  0  0  0  0
   22.4645   -4.8630  -14.6911 C   0  0  0  0  0  0  0  0  0  0  0  0
   22.2256   -5.9122  -13.8223 C   0  0  0  0  0  0  0  0  0  0  0  0
   21.4110   -5.7604  -12.7179 C   0  0  0  0  0  0  0  0  0  0  0  0
   21.1969   -6.9102  -11.8297 C   0  0  0  0  0  0  0  0  0  0  0  0
   19.9808   -7.7486  -12.2086 C   0  0  2  0  0  0  0  0  0  0  0  0
   20.0164   -8.1046  -13.6022 N   0  0  0  0  0  0  0  0  0  0  0  0
   18.6984   -7.0679  -11.9285 C   0  0  0  0  0  0  0  0  0  0  0  0
   18.0318   -6.5406  -12.8562 O   0  0  0  0  0  0  0  0  0  0  0  0
   20.8456   -4.5243  -12.5148 C   0  0  0  0  0  0  0  0  0  0  0  0
   21.0845   -3.4614  -13.3904 C   0  0  0  0  0  0  0  0  0  0  0  0
   12.8694   -7.8257   -7.5885 C   0  0  0  0  0  0  0  0  0  0  0  0
   13.2324   -7.8079   -9.3794 S   0  0  0  0  0  0  0  0  0  0  0  0
   14.5324   -6.5939   -9.6839 C   0  0  0  0  0  0  0  0  0  0  0  0
   15.8346   -7.2272  -10.1119 C   0  0  0  0  0  0  0  0  0  0  0  0
   16.9481   -6.2025  -10.3039 C   0  0  2  0  0  0  0  0  0  0  0  0
   18.1467   -6.9723  -10.6046 N   0  0  0  0  0  0  0  0  0  0  0  0
   17.0500   -5.4660   -9.0194 C   0  0  0  0  0  0  0  0  0  0  0  0
   16.2755   -4.3521   -8.7766 O   0  0  0  0  0  0  0  0  0  0  0  0
   17.8390   -5.8387   -8.1325 O   0  0  0  0  0  0  0  0  0  0  0  0
  2  1  1  6
  3  2  1  0
  4  5  1  6
  4  2  1  0
  6  4  1  0
  7  6  2  0
  9 10  2  0
  9  8  1  0
 11 10  1  0
 12 11  2  0
 14 13  1  6
 13 12  1  0
 14 15  1  0
 15  6  1  0
 16 17  2  0
 16 14  1  0
 18 12  1  0
 18 19  2  0
 19  9  1  0
 20 21  1  0
 21 22  1  0
 24 23  1  1
 23 22  1  0
 24 25  1  0
 25 16  1  0
 26 24  1  0
 27 26  1  0
 28 26  2  0
M  END
$$$$
