VYM.pdb
     RDKit          3D

 28 28  0  0  1  0  0  0  0  0999 V2000
   28.3981  -18.0240  -19.1582 C   0  0  0  0  0  0  0  0  0  0  0  0
   28.1752  -17.3554  -17.8434 C   0  0  2  0  0  0  0  0  0  0  0  0
   28.8279  -16.0124  -17.8478 C   0  0  0  0  0  0  0  0  0  0  0  0
   28.5266  -18.1971  -16.6506 C   0  0  2  0  0  0  0  0  0  0  0  0
   28.7603  -19.5376  -17.0974 N   0  0  0  0  0  0  0  0  0  0  0  0
   27.4762  -18.1890  -15.6016 C   0  0  0  0  0  0  0  0  0  0  0  0
   27.1661  -17.1556  -14.9574 O   0  0  0  0  0  0  0  0  0  0  0  0
   20.1270  -20.4912  -11.2670 O   0  0  0  0  0  0  0  0  0  0  0  0
   21.1809  -20.3699  -12.1726 C   0  0  0  0  0  0  0  0  0  0  0  0
   22.1612  -21.3443  -12.2802 C   0  0  0  0  0  0  0  0  0  0  0  0
   23.2058  -21.2232  -13.1785 C   0  0  0  0  0  0  0  0  0  0  0  0
   23.3176  -20.1252  -14.0080 C   0  0  0  0  0  0  0  0  0  0  0  0
   24.4474  -20.0538  -14.9435 C   0  0  0  0  0  0  0  0  0  0  0  0
   25.7108  -19.4681  -14.3220 C   0  0  2  0  0  0  0  0  0  0  0  0
   26.7720  -19.3921  -15.2907 N   0  0  0  0  0  0  0  0  0  0  0  0
   26.1921  -20.2377  -13.1549 C   0  0  0  0  0  0  0  0  0  0  0  0
   26.8339  -21.3090  -13.3086 O   0  0  0  0  0  0  0  0  0  0  0  0
   22.3491  -19.1554  -13.9066 C   0  0  0  0  0  0  0  0  0  0  0  0
   21.2918  -19.2738  -13.0002 C   0  0  0  0  0  0  0  0  0  0  0  0
   27.6232  -20.0062   -5.3559 C   0  0  0  0  0  0  0  0  0  0  0  0
   27.0800  -19.0892   -6.8403 S   0  0  0  0  0  0  0  0  0  0  0  0
   26.8635  -20.2681   -8.1892 C   0  0  0  0  0  0  0  0  0  0  0  0
   26.4796  -19.6038   -9.4897 C   0  0  0  0  0  0  0  0  0  0  0  0
   26.3899  -20.5927  -10.6476 C   0  0  2  0  0  0  0  0  0  0  0  0
   25.9615  -19.8141  -11.8008 N   0  0  0  0  0  0  0  0  0  0  0  0
   25.3868  -21.6078  -10.2397 C   0  0  0  0  0  0  0  0  0  0  0  0
   25.7756  -22.7994   -9.6666 O   0  0  0  0  0  0  0  0  0  0  0  0
   24.1708  -21.4046  -10.4074 O   0  0  0  0  0  0  0  0  0  0  0  0
  2  1  1  6
  3  2  1  0
  4  5  1  6
  4  2  1  0
  6  4  1  0
  7  6  2  0
  9 10  2  0
  9  8  1  0
 11 10  1  0
 12 11  2  0
 14 13  1  6
 13 12  1  0
 14 15  1  0
 15  6  1  0
 16 17  2  0
 16 14  1  0
 18 12  1  0
 18 19  2  0
 19  9  1  0
 20 21  1  0
 21 22  1  0
 24 23  1  1
 23 22  1  0
 24 25  1  0
 25 16  1  0
 26 24  1  0
 27 26  1  0
 28 26  2  0
M  END
$$$$
