VYM.pdb
     RDKit          3D

 28 28  0  0  1  0  0  0  0  0999 V2000
   28.6112  -20.1546  -18.4598 C   0  0  0  0  0  0  0  0  0  0  0  0
   28.2292  -21.4821  -17.8965 C   0  0  2  0  0  0  0  0  0  0  0  0
   26.8083  -21.7828  -18.2431 C   0  0  0  0  0  0  0  0  0  0  0  0
   28.5479  -21.6540  -16.4393 C   0  0  2  0  0  0  0  0  0  0  0  0
   28.3460  -23.0289  -16.0925 N   0  0  0  0  0  0  0  0  0  0  0  0
   27.7302  -20.7840  -15.5571 C   0  0  0  0  0  0  0  0  0  0  0  0
   27.3449  -19.6381  -15.8996 O   0  0  0  0  0  0  0  0  0  0  0  0
   20.0342  -19.7526  -11.8958 O   0  0  0  0  0  0  0  0  0  0  0  0
   21.2262  -20.1583  -12.4959 C   0  0  0  0  0  0  0  0  0  0  0  0
   22.1275  -19.2406  -13.0131 C   0  0  0  0  0  0  0  0  0  0  0  0
   23.3092  -19.6438  -13.6079 C   0  0  0  0  0  0  0  0  0  0  0  0
   23.6428  -20.9795  -13.7123 C   0  0  0  0  0  0  0  0  0  0  0  0
   24.9129  -21.3465  -14.3517 C   0  0  0  0  0  0  0  0  0  0  0  0
   26.1380  -20.8452  -13.5946 C   0  0  2  0  0  0  0  0  0  0  0  0
   27.3506  -21.2432  -14.2589 N   0  0  0  0  0  0  0  0  0  0  0  0
   26.1888  -21.3213  -12.1957 C   0  0  0  0  0  0  0  0  0  0  0  0
   26.2450  -22.5508  -11.9342 O   0  0  0  0  0  0  0  0  0  0  0  0
   22.7538  -21.8947  -13.2016 C   0  0  0  0  0  0  0  0  0  0  0  0
   21.5585  -21.4915  -12.5997 C   0  0  0  0  0  0  0  0  0  0  0  0
   29.5370  -19.4523   -6.7038 C   0  0  0  0  0  0  0  0  0  0  0  0
   27.7857  -19.0298   -6.3970 S   0  0  0  0  0  0  0  0  0  0  0  0
   26.7534  -20.1358   -7.3806 C   0  0  0  0  0  0  0  0  0  0  0  0
   26.8753  -19.8833   -8.8643 C   0  0  0  0  0  0  0  0  0  0  0  0
   26.0815  -20.8861   -9.6955 C   0  0  2  0  0  0  0  0  0  0  0  0
   26.1794  -20.4240  -11.0727 N   0  0  0  0  0  0  0  0  0  0  0  0
   24.6925  -20.8380   -9.1748 C   0  0  0  0  0  0  0  0  0  0  0  0
   24.3143  -21.6003   -8.0906 O   0  0  0  0  0  0  0  0  0  0  0  0
   23.8377  -20.1076   -9.7074 O   0  0  0  0  0  0  0  0  0  0  0  0
  2  1  1  1
  3  2  1  0
  4  5  1  1
  4  2  1  0
  6  4  1  0
  7  6  2  0
  9 10  2  0
  9  8  1  0
 11 10  1  0
 12 11  2  0
 14 13  1  6
 13 12  1  0
 14 15  1  0
 15  6  1  0
 16 17  2  0
 16 14  1  0
 18 12  1  0
 18 19  2  0
 19  9  1  0
 20 21  1  0
 21 22  1  0
 24 23  1  1
 23 22  1  0
 24 25  1  0
 25 16  1  0
 26 24  1  0
 27 26  1  0
 28 26  2  0
M  END
$$$$
