VYM.pdb
     RDKit          3D

 28 28  0  0  1  0  0  0  0  0999 V2000
   22.2080  -28.7911  -15.4344 C   0  0  0  0  0  0  0  0  0  0  0  0
   21.8713  -27.9535  -16.6221 C   0  0  2  0  0  0  0  0  0  0  0  0
   22.9956  -28.0018  -17.6036 C   0  0  0  0  0  0  0  0  0  0  0  0
   21.4134  -26.5621  -16.2918 C   0  0  2  0  0  0  0  0  0  0  0  0
   22.5562  -25.7915  -15.9029 N   0  0  0  0  0  0  0  0  0  0  0  0
   20.3887  -26.5251  -15.2182 C   0  0  0  0  0  0  0  0  0  0  0  0
   19.2026  -26.8997  -15.3968 O   0  0  0  0  0  0  0  0  0  0  0  0
   17.0412  -25.7160   -7.0069 O   0  0  0  0  0  0  0  0  0  0  0  0
   17.9004  -25.7875   -8.1035 C   0  0  0  0  0  0  0  0  0  0  0  0
   18.1763  -26.9920   -8.7320 C   0  0  0  0  0  0  0  0  0  0  0  0
   19.0282  -27.0620   -9.8192 C   0  0  0  0  0  0  0  0  0  0  0  0
   19.6415  -25.9338  -10.3263 C   0  0  0  0  0  0  0  0  0  0  0  0
   20.5339  -26.0702  -11.4847 C   0  0  0  0  0  0  0  0  0  0  0  0
   19.8087  -25.9662  -12.8221 C   0  0  2  0  0  0  0  0  0  0  0  0
   20.7377  -26.0485  -13.9178 N   0  0  0  0  0  0  0  0  0  0  0  0
   19.0257  -24.7197  -12.9606 C   0  0  0  0  0  0  0  0  0  0  0  0
   18.0044  -24.5174  -12.2540 O   0  0  0  0  0  0  0  0  0  0  0  0
   19.3724  -24.7362   -9.7080 C   0  0  0  0  0  0  0  0  0  0  0  0
   18.5121  -24.6611   -8.6090 C   0  0  0  0  0  0  0  0  0  0  0  0
   20.5749  -18.8403  -11.0608 C   0  0  0  0  0  0  0  0  0  0  0  0
   20.5715  -18.7907  -12.8875 S   0  0  0  0  0  0  0  0  0  0  0  0
   19.3296  -19.9554  -13.4856 C   0  0  0  0  0  0  0  0  0  0  0  0
   19.8313  -21.3792  -13.5175 C   0  0  0  0  0  0  0  0  0  0  0  0
   18.7402  -22.3755  -13.8963 C   0  0  2  0  0  0  0  0  0  0  0  0
   19.3797  -23.6835  -13.8918 N   0  0  0  0  0  0  0  0  0  0  0  0
   18.2721  -21.9737  -15.2461 C   0  0  0  0  0  0  0  0  0  0  0  0
   17.5369  -20.8223  -15.4287 O   0  0  0  0  0  0  0  0  0  0  0  0
   18.5334  -22.6693  -16.2440 O   0  0  0  0  0  0  0  0  0  0  0  0
  2  1  1  1
  3  2  1  0
  4  5  1  1
  4  2  1  0
  6  4  1  0
  7  6  2  0
  9 10  2  0
  9  8  1  0
 11 10  1  0
 12 11  2  0
 14 13  1  1
 13 12  1  0
 14 15  1  0
 15  6  1  0
 16 17  2  0
 16 14  1  0
 18 12  1  0
 18 19  2  0
 19  9  1  0
 20 21  1  0
 21 22  1  0
 24 23  1  6
 23 22  1  0
 24 25  1  0
 25 16  1  0
 26 24  1  0
 27 26  1  0
 28 26  2  0
M  END
$$$$
