RHI.pdb
     RDKit          3D

 30 30  0  0  1  0  0  0  0  0999 V2000
   33.2096  -17.9953  -18.7848 N   0  0  0  0  0  0  0  0  0  0  0  0
   32.2581  -17.9264  -19.8313 C   0  0  0  0  0  0  0  0  0  0  0  0
   32.6245  -17.8345  -21.0773 N   0  0  0  0  0  0  0  0  0  0  0  0
   30.8803  -17.9575  -19.5250 N   0  0  0  0  0  0  0  0  0  0  0  0
   30.3763  -18.0848  -18.1761 C   0  0  0  0  0  0  0  0  0  0  0  0
   28.8797  -18.3235  -18.1905 C   0  0  0  0  0  0  0  0  0  0  0  0
   28.3120  -18.2578  -16.8034 C   0  0  0  0  0  0  0  0  0  0  0  0
   26.8610  -18.6366  -16.7522 C   0  0  2  0  0  0  0  0  0  0  0  0
   26.5777  -19.7688  -17.6036 N   0  0  0  0  0  0  0  0  0  0  0  0
   26.0914  -17.4317  -17.2143 C   0  0  0  0  0  0  0  0  0  0  0  0
   25.8488  -17.2537  -18.4163 O   0  0  0  0  0  0  0  0  0  0  0  0
   31.9171  -17.7810  -21.8412 N   0  0  0  0  0  0  0  0  0  0  0  0
   25.6477  -16.5001  -16.2421 C   0  0  1  0  0  0  0  0  0  0  0  0
   24.8672  -15.2942  -16.6312 C   0  0  0  0  0  0  0  0  0  0  0  0
   23.5551  -15.3910  -15.9495 C   0  0  0  0  0  0  0  0  0  0  0  0
   22.6402  -14.2555  -16.0973 C   0  0  0  0  0  0  0  0  0  0  0  0
   22.8826  -13.0993  -16.8475 N   0  0  0  0  0  0  0  0  0  0  0  0
   21.8068  -12.3073  -16.7272 C   0  0  0  0  0  0  0  0  0  0  0  0
   20.8921  -12.8982  -15.9400 N   0  0  0  0  0  0  0  0  0  0  0  0
   21.4196  -14.0692  -15.5750 C   0  0  0  0  0  0  0  0  0  0  0  0
   25.7229  -14.1564  -16.3254 O   0  0  0  0  0  0  0  0  0  0  0  0
   26.2691  -14.0491  -15.1634 C   0  0  0  0  0  0  0  0  0  0  0  0
   30.3966  -13.3427  -17.5114 C   0  0  0  0  0  0  0  0  0  0  0  0
   28.9886  -13.2793  -16.8971 C   0  0  2  0  0  0  0  0  0  0  0  0
   28.2683  -12.0489  -17.3656 C   0  0  0  0  0  0  0  0  0  0  0  0
   29.1421  -10.8668  -16.9901 C   0  0  2  0  0  0  0  0  0  0  0  0
   26.9092  -11.9701  -16.7859 N   0  0  0  0  0  0  0  0  0  0  0  0
   26.0652  -13.0821  -17.1879 C   0  0  0  0  0  0  0  0  0  0  0  0
   26.2376  -10.7154  -17.1348 O   0  0  0  0  0  0  0  0  0  0  0  0
   26.4212   -9.4924  -16.4942 O   0  0  0  0  0  0  0  0  0  0  0  0
  1  2  1  0
  2  3  2  0
  4  5  1  0
  4  2  1  0
  6  5  1  0
  7  6  1  0
  8  9  1  6
  8  7  1  0
 10  8  1  0
 10 11  2  0
 12 10  1  0
 13 12  1  0
 13 20  1  0
 13 14  1  1
 15 19  1  0
 15 14  1  0
 16 15  2  0
 17 16  1  0
 17 18  1  0
 18 19  2  0
 20 27  1  0
 21 20  2  0
 22 23  1  0
 23 24  1  0
 24 26  1  0
 24 25  1  6
 26 28  1  0
 26 27  1  1
 28 30  2  0
 28 29  1  0
M  END
$$$$
