RHI.pdb
     RDKit          3D

 30 30  0  0  1  0  0  0  0  0999 V2000
   28.6188  -22.5857  -15.9717 N   0  0  0  0  0  0  0  0  0  0  0  0
   27.4978  -21.7247  -15.8865 C   0  0  0  0  0  0  0  0  0  0  0  0
   26.5522  -21.9253  -15.0141 N   0  0  0  0  0  0  0  0  0  0  0  0
   27.3958  -20.6229  -16.7631 N   0  0  0  0  0  0  0  0  0  0  0  0
   28.4594  -20.2286  -17.6592 C   0  0  0  0  0  0  0  0  0  0  0  0
   28.0901  -18.9535  -18.3905 C   0  0  0  0  0  0  0  0  0  0  0  0
   27.2254  -18.0751  -17.5353 C   0  0  0  0  0  0  0  0  0  0  0  0
   25.9167  -17.7381  -18.1873 C   0  0  2  0  0  0  0  0  0  0  0  0
   25.9854  -16.4817  -18.8969 N   0  0  0  0  0  0  0  0  0  0  0  0
   24.9008  -17.6582  -17.0832 C   0  0  0  0  0  0  0  0  0  0  0  0
   24.8482  -16.6706  -16.3368 O   0  0  0  0  0  0  0  0  0  0  0  0
   25.7060  -21.3169  -14.9918 N   0  0  0  0  0  0  0  0  0  0  0  0
   24.0011  -18.7407  -16.9136 C   0  0  2  0  0  0  0  0  0  0  0  0
   22.9708  -18.7245  -15.8398 C   0  0  0  0  0  0  0  0  0  0  0  0
   21.6493  -18.7271  -16.5098 C   0  0  0  0  0  0  0  0  0  0  0  0
   21.1171  -17.4319  -16.9426 C   0  0  0  0  0  0  0  0  0  0  0  0
   21.6910  -16.1819  -16.6844 N   0  0  0  0  0  0  0  0  0  0  0  0
   20.9040  -15.2527  -17.2469 C   0  0  0  0  0  0  0  0  0  0  0  0
   19.8593  -15.8450  -17.8496 N   0  0  0  0  0  0  0  0  0  0  0  0
   20.0126  -17.1564  -17.6510 C   0  0  0  0  0  0  0  0  0  0  0  0
   23.3022  -19.8364  -14.9600 O   0  0  0  0  0  0  0  0  0  0  0  0
   23.4304  -21.0260  -15.4380 C   0  0  0  0  0  0  0  0  0  0  0  0
   26.8362  -19.6628  -10.8019 C   0  0  0  0  0  0  0  0  0  0  0  0
   25.9652  -19.9961  -12.0242 C   0  0  2  0  0  0  0  0  0  0  0  0
   24.6834  -20.6459  -11.5916 C   0  0  0  0  0  0  0  0  0  0  0  0
   25.0705  -21.8762  -10.7924 C   0  0  2  0  0  0  0  0  0  0  0  0
   23.8224  -20.9589  -12.7536 N   0  0  0  0  0  0  0  0  0  0  0  0
   23.5232  -19.7873  -13.5586 C   0  0  0  0  0  0  0  0  0  0  0  0
   22.5633  -21.5888  -12.3474 O   0  0  0  0  0  0  0  0  0  0  0  0
   22.2792  -22.9505  -12.4157 O   0  0  0  0  0  0  0  0  0  0  0  0
  1  2  1  0
  2  3  2  0
  4  5  1  0
  4  2  1  0
  6  5  1  0
  7  6  1  0
  8  9  1  1
  8  7  1  0
 10  8  1  0
 10 11  2  0
 12 10  1  0
 13 12  1  0
 13 20  1  0
 13 14  1  6
 15 19  1  0
 15 14  1  0
 16 15  2  0
 17 16  1  0
 17 18  1  0
 18 19  2  0
 20 27  1  0
 21 20  2  0
 22 23  1  0
 23 24  1  0
 24 26  1  0
 24 25  1  1
 26 28  1  0
 26 27  1  6
 28 30  2  0
 28 29  1  0
M  END
$$$$
