RHI.pdb
     RDKit          3D

 30 30  0  0  1  0  0  0  0  0999 V2000
   15.3036  -19.1241  -12.1326 N   0  0  0  0  0  0  0  0  0  0  0  0
   14.7124  -19.7927  -13.2319 C   0  0  0  0  0  0  0  0  0  0  0  0
   13.5561  -19.4279  -13.7066 N   0  0  0  0  0  0  0  0  0  0  0  0
   15.3848  -20.8795  -13.8315 N   0  0  0  0  0  0  0  0  0  0  0  0
   16.6176  -21.4265  -13.3112 C   0  0  0  0  0  0  0  0  0  0  0  0
   17.0880  -22.5830  -14.1706 C   0  0  0  0  0  0  0  0  0  0  0  0
   18.2085  -23.3259  -13.5048 C   0  0  0  0  0  0  0  0  0  0  0  0
   19.3528  -22.4320  -13.1267 C   0  0  2  0  0  0  0  0  0  0  0  0
   20.4121  -22.4823  -14.1076 N   0  0  0  0  0  0  0  0  0  0  0  0
   19.8511  -22.9207  -11.7961 C   0  0  0  0  0  0  0  0  0  0  0  0
   20.5509  -23.9398  -11.7136 O   0  0  0  0  0  0  0  0  0  0  0  0
   13.1301  -19.9232  -14.5191 N   0  0  0  0  0  0  0  0  0  0  0  0
   19.5018  -22.1881  -10.6337 C   0  0  2  0  0  0  0  0  0  0  0  0
   20.0219  -22.5756   -9.2942 C   0  0  0  0  0  0  0  0  0  0  0  0
   20.7135  -21.3882   -8.7398 C   0  0  0  0  0  0  0  0  0  0  0  0
   22.0634  -21.1085   -9.2375 C   0  0  0  0  0  0  0  0  0  0  0  0
   22.3773  -20.4707  -10.4429 N   0  0  0  0  0  0  0  0  0  0  0  0
   23.7143  -20.4072  -10.5296 C   0  0  0  0  0  0  0  0  0  0  0  0
   24.2684  -20.9709   -9.4429 N   0  0  0  0  0  0  0  0  0  0  0  0
   23.2521  -21.3844   -8.6821 C   0  0  0  0  0  0  0  0  0  0  0  0
   18.8790  -23.1115   -8.5685 O   0  0  0  0  0  0  0  0  0  0  0  0
   17.7158  -22.5737   -8.7016 C   0  0  0  0  0  0  0  0  0  0  0  0
   16.8808  -27.7271   -9.1643 C   0  0  0  0  0  0  0  0  0  0  0  0
   17.1651  -26.2552   -8.8233 C   0  0  2  0  0  0  0  0  0  0  0  0
   17.3301  -26.0839   -7.3415 C   0  0  0  0  0  0  0  0  0  0  0  0
   16.0340  -26.5498   -6.7052 C   0  0  2  0  0  0  0  0  0  0  0  0
   17.6724  -24.6857   -6.9984 N   0  0  0  0  0  0  0  0  0  0  0  0
   18.8669  -24.2195   -7.6812 C   0  0  0  0  0  0  0  0  0  0  0  0
   17.8505  -24.5046   -5.5553 O   0  0  0  0  0  0  0  0  0  0  0  0
   16.8342  -24.2425   -4.6398 O   0  0  0  0  0  0  0  0  0  0  0  0
  1  2  1  0
  2  3  2  0
  4  5  1  0
  4  2  1  0
  6  5  1  0
  7  6  1  0
  8  9  1  6
  8  7  1  0
 10  8  1  0
 10 11  2  0
 12 10  1  0
 13 12  1  0
 13 20  1  0
 13 14  1  6
 15 19  1  0
 15 14  1  0
 16 15  2  0
 17 16  1  0
 17 18  1  0
 18 19  2  0
 20 27  1  0
 21 20  2  0
 22 23  1  0
 23 24  1  0
 24 26  1  0
 24 25  1  1
 26 28  1  0
 26 27  1  6
 28 30  2  0
 28 29  1  0
M  END
$$$$
