RHI.pdb
     RDKit          3D

 30 30  0  0  1  0  0  0  0  0999 V2000
   31.4986  -23.8708  -14.8478 N   0  0  0  0  0  0  0  0  0  0  0  0
   31.1078  -23.8414  -16.2085 C   0  0  0  0  0  0  0  0  0  0  0  0
   31.7879  -24.4694  -17.1241 N   0  0  0  0  0  0  0  0  0  0  0  0
   29.9569  -23.1176  -16.5886 N   0  0  0  0  0  0  0  0  0  0  0  0
   29.0125  -22.5823  -15.6339 C   0  0  0  0  0  0  0  0  0  0  0  0
   29.1197  -21.0717  -15.5733 C   0  0  0  0  0  0  0  0  0  0  0  0
   28.1520  -20.5042  -14.5773 C   0  0  0  0  0  0  0  0  0  0  0  0
   26.9599  -21.3887  -14.3581 C   0  0  2  0  0  0  0  0  0  0  0  0
   26.1646  -21.5144  -15.5575 N   0  0  0  0  0  0  0  0  0  0  0  0
   26.1536  -20.7503  -13.2627 C   0  0  0  0  0  0  0  0  0  0  0  0
   25.2670  -19.9248  -13.5232 O   0  0  0  0  0  0  0  0  0  0  0  0
   31.5541  -24.3607  -18.1342 N   0  0  0  0  0  0  0  0  0  0  0  0
   26.4303  -21.1140  -11.9206 C   0  0  2  0  0  0  0  0  0  0  0  0
   25.5210  -20.7156  -10.8119 C   0  0  0  0  0  0  0  0  0  0  0  0
   24.2092  -21.3500  -11.0806 C   0  0  0  0  0  0  0  0  0  0  0  0
   23.3329  -20.6874  -12.0508 C   0  0  0  0  0  0  0  0  0  0  0  0
   22.7098  -19.4461  -11.8790 N   0  0  0  0  0  0  0  0  0  0  0  0
   21.9983  -19.1950  -12.9880 C   0  0  0  0  0  0  0  0  0  0  0  0
   22.1354  -20.2108  -13.8568 N   0  0  0  0  0  0  0  0  0  0  0  0
   22.9437  -21.0950  -13.2673 C   0  0  0  0  0  0  0  0  0  0  0  0
   26.2204  -21.0670   -9.5841 O   0  0  0  0  0  0  0  0  0  0  0  0
   26.7931  -22.2155   -9.4697 C   0  0  0  0  0  0  0  0  0  0  0  0
   29.3106  -19.3493   -4.5645 C   0  0  0  0  0  0  0  0  0  0  0  0
   28.3753  -20.3680   -5.2360 C   0  0  2  0  0  0  0  0  0  0  0  0
   27.8225  -19.8078   -6.5138 C   0  0  0  0  0  0  0  0  0  0  0  0
   27.1498  -18.4959   -6.1556 C   0  0  2  0  0  0  0  0  0  0  0  0
   26.9057  -20.7678   -7.1675 N   0  0  0  0  0  0  0  0  0  0  0  0
   26.3732  -20.2657   -8.4224 C   0  0  0  0  0  0  0  0  0  0  0  0
   25.7894  -21.1393   -6.2941 O   0  0  0  0  0  0  0  0  0  0  0  0
   25.8540  -22.0424   -5.2358 O   0  0  0  0  0  0  0  0  0  0  0  0
  1  2  1  0
  2  3  2  0
  4  5  1  0
  4  2  1  0
  6  5  1  0
  7  6  1  0
  8  9  1  6
  8  7  1  0
 10  8  1  0
 10 11  2  0
 12 10  1  0
 13 12  1  0
 13 20  1  0
 13 14  1  6
 15 19  1  0
 15 14  1  0
 16 15  2  0
 17 16  1  0
 17 18  1  0
 18 19  2  0
 20 27  1  0
 21 20  2  0
 22 23  1  0
 23 24  1  0
 24 26  1  0
 24 25  1  6
 26 28  1  0
 26 27  1  1
 28 30  2  0
 28 29  1  0
M  END
$$$$
