RHI.pdb
     RDKit          3D

 30 30  0  0  1  0  0  0  0  0999 V2000
   31.0702  -27.2704  -17.0641 N   0  0  0  0  0  0  0  0  0  0  0  0
   32.3015  -26.7688  -17.5514 C   0  0  0  0  0  0  0  0  0  0  0  0
   33.2766  -27.5660  -17.8816 N   0  0  0  0  0  0  0  0  0  0  0  0
   32.4835  -25.3752  -17.6850 N   0  0  0  0  0  0  0  0  0  0  0  0
   31.5579  -24.4049  -17.1450 C   0  0  0  0  0  0  0  0  0  0  0  0
   30.3814  -24.2172  -18.0820 C   0  0  0  0  0  0  0  0  0  0  0  0
   29.5168  -23.0752  -17.6361 C   0  0  0  0  0  0  0  0  0  0  0  0
   28.6436  -23.4304  -16.4687 C   0  0  2  0  0  0  0  0  0  0  0  0
   27.7449  -24.5151  -16.7889 N   0  0  0  0  0  0  0  0  0  0  0  0
   27.8645  -22.1912  -16.1292 C   0  0  0  0  0  0  0  0  0  0  0  0
   28.4378  -21.1068  -15.9543 O   0  0  0  0  0  0  0  0  0  0  0  0
   34.1805  -27.1879  -18.2378 N   0  0  0  0  0  0  0  0  0  0  0  0
   26.4551  -22.2904  -16.0128 C   0  0  1  0  0  0  0  0  0  0  0  0
   25.6263  -21.1052  -15.6616 C   0  0  0  0  0  0  0  0  0  0  0  0
   24.7544  -20.8278  -16.8271 C   0  0  0  0  0  0  0  0  0  0  0  0
   23.6888  -19.8383  -16.6436 C   0  0  0  0  0  0  0  0  0  0  0  0
   23.3906  -19.1654  -15.4534 N   0  0  0  0  0  0  0  0  0  0  0  0
   22.3541  -18.3503  -15.6995 C   0  0  0  0  0  0  0  0  0  0  0  0
   21.9767  -18.4687  -16.9836 N   0  0  0  0  0  0  0  0  0  0  0  0
   22.7967  -19.3705  -17.5284 C   0  0  0  0  0  0  0  0  0  0  0  0
   24.9971  -21.4284  -14.3888 O   0  0  0  0  0  0  0  0  0  0  0  0
   24.3564  -22.5369  -14.2448 C   0  0  0  0  0  0  0  0  0  0  0  0
   27.0954  -20.4559   -9.4534 C   0  0  0  0  0  0  0  0  0  0  0  0
   26.3765  -21.0659  -10.6677 C   0  0  2  0  0  0  0  0  0  0  0  0
   24.9771  -20.5334  -10.7691 C   0  0  0  0  0  0  0  0  0  0  0  0
   24.2657  -20.9408   -9.4924 C   0  0  2  0  0  0  0  0  0  0  0  0
   24.3024  -21.0281  -11.9896 N   0  0  0  0  0  0  0  0  0  0  0  0
   24.9963  -20.6430  -13.2064 C   0  0  0  0  0  0  0  0  0  0  0  0
   22.9133  -20.5690  -12.0709 O   0  0  0  0  0  0  0  0  0  0  0  0
   21.7848  -21.3625  -11.8798 O   0  0  0  0  0  0  0  0  0  0  0  0
  1  2  1  0
  2  3  2  0
  4  5  1  0
  4  2  1  0
  6  5  1  0
  7  6  1  0
  8  9  1  6
  8  7  1  0
 10  8  1  0
 10 11  2  0
 12 10  1  0
 13 12  1  0
 13 20  1  0
 13 14  1  1
 15 19  1  0
 15 14  1  0
 16 15  2  0
 17 16  1  0
 17 18  1  0
 18 19  2  0
 20 27  1  0
 21 20  2  0
 22 23  1  0
 23 24  1  0
 24 26  1  0
 24 25  1  6
 26 28  1  0
 26 27  1  6
 28 30  2  0
 28 29  1  0
M  END
$$$$
