RHI.pdb
     RDKit          3D

 30 30  0  0  1  0  0  0  0  0999 V2000
   28.8094  -20.1233  -19.3916 N   0  0  0  0  0  0  0  0  0  0  0  0
   29.1283  -18.7540  -19.2228 C   0  0  0  0  0  0  0  0  0  0  0  0
   29.3246  -17.9714  -20.2447 N   0  0  0  0  0  0  0  0  0  0  0  0
   29.2375  -18.2182  -17.9212 N   0  0  0  0  0  0  0  0  0  0  0  0
   29.0496  -19.0092  -16.7259 C   0  0  0  0  0  0  0  0  0  0  0  0
   27.5741  -19.1432  -16.4064 C   0  0  0  0  0  0  0  0  0  0  0  0
   27.3007  -18.7913  -14.9739 C   0  0  0  0  0  0  0  0  0  0  0  0
   27.5702  -19.9305  -14.0353 C   0  0  2  0  0  0  0  0  0  0  0  0
   27.1458  -21.1923  -14.5965 N   0  0  0  0  0  0  0  0  0  0  0  0
   26.8026  -19.6350  -12.7779 C   0  0  0  0  0  0  0  0  0  0  0  0
   26.8520  -18.5149  -12.2503 O   0  0  0  0  0  0  0  0  0  0  0  0
   29.5572  -16.9640  -20.1111 N   0  0  0  0  0  0  0  0  0  0  0  0
   26.0185  -20.6687  -12.2066 C   0  0  1  0  0  0  0  0  0  0  0  0
   25.1797  -20.4227  -11.0021 C   0  0  0  0  0  0  0  0  0  0  0  0
   23.9163  -21.1723  -11.1957 C   0  0  0  0  0  0  0  0  0  0  0  0
   22.9353  -20.5999  -12.1221 C   0  0  0  0  0  0  0  0  0  0  0  0
   23.0551  -19.3762  -12.7903 N   0  0  0  0  0  0  0  0  0  0  0  0
   21.9538  -19.2159  -13.5391 C   0  0  0  0  0  0  0  0  0  0  0  0
   21.1391  -20.2729  -13.3829 N   0  0  0  0  0  0  0  0  0  0  0  0
   21.7543  -21.0903  -12.5251 C   0  0  0  0  0  0  0  0  0  0  0  0
   26.0187  -20.7645   -9.8621 O   0  0  0  0  0  0  0  0  0  0  0  0
   26.6056  -21.9103   -9.8089 C   0  0  0  0  0  0  0  0  0  0  0  0
   29.5073  -20.1964   -7.1245 C   0  0  0  0  0  0  0  0  0  0  0  0
   28.5166  -19.0243   -7.0345 C   0  0  1  0  0  0  0  0  0  0  0  0
   27.1937  -19.4968   -6.5062 C   0  0  0  0  0  0  0  0  0  0  0  0
   27.4531  -20.0396   -5.1133 C   0  0  2  0  0  0  0  0  0  0  0  0
   26.5811  -20.4949   -7.4106 N   0  0  0  0  0  0  0  0  0  0  0  0
   26.3022  -19.9559   -8.7305 C   0  0  0  0  0  0  0  0  0  0  0  0
   25.3442  -21.0503   -6.8547 O   0  0  0  0  0  0  0  0  0  0  0  0
   25.2556  -22.1773   -6.0413 O   0  0  0  0  0  0  0  0  0  0  0  0
  1  2  1  0
  2  3  2  0
  4  5  1  0
  4  2  1  0
  6  5  1  0
  7  6  1  0
  8  9  1  6
  8  7  1  0
 10  8  1  0
 10 11  2  0
 12 10  1  0
 13 12  1  0
 13 20  1  0
 13 14  1  1
 15 19  1  0
 15 14  1  0
 16 15  2  0
 17 16  1  0
 17 18  1  0
 18 19  2  0
 20 27  1  0
 21 20  2  0
 22 23  1  0
 23 24  1  0
 24 26  1  0
 24 25  1  1
 26 28  1  0
 26 27  1  6
 28 30  2  0
 28 29  1  0
M  END
$$$$
