RHI.pdb
     RDKit          3D

 30 30  0  0  1  0  0  0  0  0999 V2000
   25.2012  -26.3582  -15.5479 N   0  0  0  0  0  0  0  0  0  0  0  0
   25.3315  -26.1944  -16.9484 C   0  0  0  0  0  0  0  0  0  0  0  0
   24.4332  -26.6524  -17.7722 N   0  0  0  0  0  0  0  0  0  0  0  0
   26.4570  -25.5209  -17.4705 N   0  0  0  0  0  0  0  0  0  0  0  0
   27.4729  -24.9208  -16.6354 C   0  0  0  0  0  0  0  0  0  0  0  0
   27.4751  -23.4145  -16.8042 C   0  0  0  0  0  0  0  0  0  0  0  0
   27.8499  -23.0317  -18.2055 C   0  0  0  0  0  0  0  0  0  0  0  0
   27.7206  -21.5584  -18.4584 C   0  0  2  0  0  0  0  0  0  0  0  0
   28.9945  -20.9628  -18.7891 N   0  0  0  0  0  0  0  0  0  0  0  0
   27.1769  -20.9569  -17.1934 C   0  0  0  0  0  0  0  0  0  0  0  0
   27.9245  -20.3841  -16.3882 O   0  0  0  0  0  0  0  0  0  0  0  0
   24.4920  -26.4533  -18.7938 N   0  0  0  0  0  0  0  0  0  0  0  0
   25.7857  -21.0595  -16.9403 C   0  0  2  0  0  0  0  0  0  0  0  0
   25.0778  -20.0483  -16.1090 C   0  0  0  0  0  0  0  0  0  0  0  0
   23.9467  -19.5390  -16.9195 C   0  0  0  0  0  0  0  0  0  0  0  0
   22.9621  -18.6951  -16.2363 C   0  0  0  0  0  0  0  0  0  0  0  0
   22.9960  -18.3229  -14.8877 N   0  0  0  0  0  0  0  0  0  0  0  0
   21.9229  -17.5527  -14.6546 C   0  0  0  0  0  0  0  0  0  0  0  0
   21.2075  -17.4148  -15.7836 N   0  0  0  0  0  0  0  0  0  0  0  0
   21.8555  -18.1124  -16.7195 C   0  0  0  0  0  0  0  0  0  0  0  0
   24.7806  -20.7137  -14.8484 O   0  0  0  0  0  0  0  0  0  0  0  0
   24.2943  -21.9068  -14.8435 C   0  0  0  0  0  0  0  0  0  0  0  0
   26.0417  -20.9849   -8.7869 C   0  0  0  0  0  0  0  0  0  0  0  0
   25.1915  -21.4277   -9.9888 C   0  0  2  0  0  0  0  0  0  0  0  0
   25.5057  -20.5854  -11.1905 C   0  0  0  0  0  0  0  0  0  0  0  0
   25.3618  -19.1392  -10.7547 C   0  0  2  0  0  0  0  0  0  0  0  0
   24.6323  -20.9344  -12.3328 N   0  0  0  0  0  0  0  0  0  0  0  0
   24.9698  -20.1988  -13.5392 C   0  0  0  0  0  0  0  0  0  0  0  0
   23.2163  -20.7160  -12.0254 O   0  0  0  0  0  0  0  0  0  0  0  0
   22.3909  -21.6006  -11.3356 O   0  0  0  0  0  0  0  0  0  0  0  0
  1  2  1  0
  2  3  2  0
  4  5  1  0
  4  2  1  0
  6  5  1  0
  7  6  1  0
  8  9  1  1
  8  7  1  0
 10  8  1  0
 10 11  2  0
 12 10  1  0
 13 12  1  0
 13 20  1  0
 13 14  1  6
 15 19  1  0
 15 14  1  0
 16 15  2  0
 17 16  1  0
 17 18  1  0
 18 19  2  0
 20 27  1  0
 21 20  2  0
 22 23  1  0
 23 24  1  0
 24 26  1  0
 24 25  1  6
 26 28  1  0
 26 27  1  1
 28 30  2  0
 28 29  1  0
M  END
$$$$
