RHI.pdb
     RDKit          3D

 30 30  0  0  1  0  0  0  0  0999 V2000
   18.3375  -27.4113   -1.4978 N   0  0  0  0  0  0  0  0  0  0  0  0
   17.9324  -27.3025   -2.8504 C   0  0  0  0  0  0  0  0  0  0  0  0
   18.6415  -27.8147   -3.8149 N   0  0  0  0  0  0  0  0  0  0  0  0
   16.7351  -26.6254   -3.1680 N   0  0  0  0  0  0  0  0  0  0  0  0
   15.9832  -25.8592   -2.1998 C   0  0  0  0  0  0  0  0  0  0  0  0
   14.6781  -25.3793   -2.8029 C   0  0  0  0  0  0  0  0  0  0  0  0
   13.9353  -24.4974   -1.8431 C   0  0  0  0  0  0  0  0  0  0  0  0
   14.0309  -23.0429   -2.1992 C   0  0  2  0  0  0  0  0  0  0  0  0
   14.4170  -22.8586   -3.5791 N   0  0  0  0  0  0  0  0  0  0  0  0
   15.0651  -22.4493   -1.2850 C   0  0  0  0  0  0  0  0  0  0  0  0
   16.0982  -21.9378   -1.7395 O   0  0  0  0  0  0  0  0  0  0  0  0
   18.3306  -27.7386   -4.8071 N   0  0  0  0  0  0  0  0  0  0  0  0
   14.8325  -22.4876    0.1129 C   0  0  1  0  0  0  0  0  0  0  0  0
   15.5997  -21.6175    1.0452 C   0  0  0  0  0  0  0  0  0  0  0  0
   14.6486  -20.6161    1.5821 C   0  0  0  0  0  0  0  0  0  0  0  0
   15.1997  -19.5662    2.4436 C   0  0  0  0  0  0  0  0  0  0  0  0
   16.5421  -19.4307    2.8150 N   0  0  0  0  0  0  0  0  0  0  0  0
   16.6352  -18.3503    3.6044 C   0  0  0  0  0  0  0  0  0  0  0  0
   15.4230  -17.7907    3.7553 N   0  0  0  0  0  0  0  0  0  0  0  0
   14.5778  -18.5426    3.0461 C   0  0  0  0  0  0  0  0  0  0  0  0
   16.2522  -22.5225    1.9808 O   0  0  0  0  0  0  0  0  0  0  0  0
   15.6629  -23.6061    2.3533 C   0  0  0  0  0  0  0  0  0  0  0  0
   20.8132  -24.8270    1.3216 C   0  0  0  0  0  0  0  0  0  0  0  0
   19.3931  -24.4550    1.7782 C   0  0  2  0  0  0  0  0  0  0  0  0
   19.4326  -23.7968    3.1264 C   0  0  0  0  0  0  0  0  0  0  0  0
   20.0050  -24.8193    4.0902 C   0  0  2  0  0  0  0  0  0  0  0  0
   18.0926  -23.3127    3.5259 N   0  0  0  0  0  0  0  0  0  0  0  0
   17.5328  -22.3692    2.5737 C   0  0  0  0  0  0  0  0  0  0  0  0
   18.1085  -22.6928    4.8536 O   0  0  0  0  0  0  0  0  0  0  0  0
   17.8509  -23.3461    6.0563 O   0  0  0  0  0  0  0  0  0  0  0  0
  1  2  1  0
  2  3  2  0
  4  5  1  0
  4  2  1  0
  6  5  1  0
  7  6  1  0
  8  9  1  6
  8  7  1  0
 10  8  1  0
 10 11  2  0
 12 10  1  0
 13 12  1  0
 13 20  1  0
 13 14  1  1
 15 19  1  0
 15 14  1  0
 16 15  2  0
 17 16  1  0
 17 18  1  0
 18 19  2  0
 20 27  1  0
 21 20  2  0
 22 23  1  0
 23 24  1  0
 24 26  1  0
 24 25  1  1
 26 28  1  0
 26 27  1  1
 28 30  2  0
 28 29  1  0
M  END
$$$$
