RHI.pdb
     RDKit          3D

 30 30  0  0  1  0  0  0  0  0999 V2000
   21.9264  -17.1499  -18.6971 N   0  0  0  0  0  0  0  0  0  0  0  0
   23.1068  -16.7708  -19.3812 C   0  0  0  0  0  0  0  0  0  0  0  0
   23.1034  -15.8104  -20.2604 N   0  0  0  0  0  0  0  0  0  0  0  0
   24.3176  -17.4439  -19.1097 N   0  0  0  0  0  0  0  0  0  0  0  0
   24.4718  -18.3765  -18.0159 C   0  0  0  0  0  0  0  0  0  0  0  0
   23.7298  -17.8822  -16.7902 C   0  0  0  0  0  0  0  0  0  0  0  0
   24.0114  -18.7556  -15.6035 C   0  0  0  0  0  0  0  0  0  0  0  0
   24.5743  -20.0923  -15.9878 C   0  0  2  0  0  0  0  0  0  0  0  0
   23.5526  -20.9665  -16.5159 N   0  0  0  0  0  0  0  0  0  0  0  0
   25.1665  -20.6787  -14.7375 C   0  0  0  0  0  0  0  0  0  0  0  0
   24.4984  -21.4212  -14.0043 O   0  0  0  0  0  0  0  0  0  0  0  0
   23.9875  -15.4984  -20.7165 N   0  0  0  0  0  0  0  0  0  0  0  0
   26.5102  -20.3627  -14.4141 C   0  0  2  0  0  0  0  0  0  0  0  0
   27.1745  -20.9545  -13.2211 C   0  0  0  0  0  0  0  0  0  0  0  0
   28.6343  -20.7898  -13.4142 C   0  0  0  0  0  0  0  0  0  0  0  0
   29.5009  -21.1359  -12.2839 C   0  0  0  0  0  0  0  0  0  0  0  0
   29.0711  -21.5275  -11.0109 N   0  0  0  0  0  0  0  0  0  0  0  0
   30.1646  -21.7543  -10.2680 C   0  0  0  0  0  0  0  0  0  0  0  0
   31.2679  -21.5277  -11.0006 N   0  0  0  0  0  0  0  0  0  0  0  0
   30.8393  -21.1570  -12.2095 C   0  0  0  0  0  0  0  0  0  0  0  0
   26.5533  -20.3173  -12.0686 O   0  0  0  0  0  0  0  0  0  0  0  0
   26.3750  -19.0414  -12.0504 C   0  0  0  0  0  0  0  0  0  0  0  0
   21.7354  -20.8079   -9.5353 C   0  0  0  0  0  0  0  0  0  0  0  0
   23.0425  -20.0649   -9.8563 C   0  0  2  0  0  0  0  0  0  0  0  0
   24.2205  -20.8211   -9.3153 C   0  0  0  0  0  0  0  0  0  0  0  0
   24.0759  -20.8243   -7.8050 C   0  0  2  0  0  0  0  0  0  0  0  0
   25.4956  -20.2255   -9.7725 N   0  0  0  0  0  0  0  0  0  0  0  0
   26.0816  -20.9486  -10.8879 C   0  0  0  0  0  0  0  0  0  0  0  0
   26.4804  -20.1446   -8.6906 O   0  0  0  0  0  0  0  0  0  0  0  0
   27.5718  -20.9934   -8.5228 O   0  0  0  0  0  0  0  0  0  0  0  0
  1  2  1  0
  2  3  2  0
  4  5  1  0
  4  2  1  0
  6  5  1  0
  7  6  1  0
  8  9  1  1
  8  7  1  0
 10  8  1  0
 10 11  2  0
 12 10  1  0
 13 12  1  0
 13 20  1  0
 13 14  1  6
 15 19  1  0
 15 14  1  0
 16 15  2  0
 17 16  1  0
 17 18  1  0
 18 19  2  0
 20 27  1  0
 21 20  2  0
 22 23  1  0
 23 24  1  0
 24 26  1  0
 24 25  1  6
 26 28  1  0
 26 27  1  1
 28 30  2  0
 28 29  1  0
M  END
$$$$
