RHI.pdb
     RDKit          3D

 30 30  0  0  1  0  0  0  0  0999 V2000
   16.5638  -23.2453   -9.9138 N   0  0  0  0  0  0  0  0  0  0  0  0
   15.6644  -22.8878  -10.9475 C   0  0  0  0  0  0  0  0  0  0  0  0
   14.5527  -22.2594  -10.6932 N   0  0  0  0  0  0  0  0  0  0  0  0
   15.9725  -23.2164  -12.2854 N   0  0  0  0  0  0  0  0  0  0  0  0
   17.3050  -23.5664  -12.7233 C   0  0  0  0  0  0  0  0  0  0  0  0
   18.2976  -22.5012  -12.3020 C   0  0  0  0  0  0  0  0  0  0  0  0
   19.6848  -22.8513  -12.7531 C   0  0  0  0  0  0  0  0  0  0  0  0
   20.1805  -21.9571  -13.8513 C   0  0  2  0  0  0  0  0  0  0  0  0
   19.5117  -22.2317  -15.1019 N   0  0  0  0  0  0  0  0  0  0  0  0
   21.6543  -22.2200  -13.9798 C   0  0  0  0  0  0  0  0  0  0  0  0
   22.0719  -23.2858  -14.4540 O   0  0  0  0  0  0  0  0  0  0  0  0
   13.8693  -22.0510  -11.4524 N   0  0  0  0  0  0  0  0  0  0  0  0
   22.5593  -21.2190  -13.5452 C   0  0  1  0  0  0  0  0  0  0  0  0
   24.0292  -21.3883  -13.7046 C   0  0  0  0  0  0  0  0  0  0  0  0
   24.3811  -20.8639  -15.0450 C   0  0  0  0  0  0  0  0  0  0  0  0
   25.0720  -21.7774  -15.9595 C   0  0  0  0  0  0  0  0  0  0  0  0
   25.4212  -23.1044  -15.6844 N   0  0  0  0  0  0  0  0  0  0  0  0
   26.0352  -23.5937  -16.7719 C   0  0  0  0  0  0  0  0  0  0  0  0
   26.0956  -22.6484  -17.7249 N   0  0  0  0  0  0  0  0  0  0  0  0
   25.5086  -21.5657  -17.2093 C   0  0  0  0  0  0  0  0  0  0  0  0
   24.6268  -20.7570  -12.5364 O   0  0  0  0  0  0  0  0  0  0  0  0
   24.1565  -19.6443  -12.0884 C   0  0  0  0  0  0  0  0  0  0  0  0
   26.1412  -19.4366   -7.1930 C   0  0  0  0  0  0  0  0  0  0  0  0
   26.7648  -19.4927   -8.5971 C   0  0  2  0  0  0  0  0  0  0  0  0
   25.9541  -20.3815   -9.4944 C   0  0  0  0  0  0  0  0  0  0  0  0
   25.9482  -21.7557   -8.8514 C   0  0  2  0  0  0  0  0  0  0  0  0
   26.4956  -20.3901  -10.8715 N   0  0  0  0  0  0  0  0  0  0  0  0
   25.7236  -21.2310  -11.7700 C   0  0  0  0  0  0  0  0  0  0  0  0
   27.8958  -20.8206  -10.9058 O   0  0  0  0  0  0  0  0  0  0  0  0
   28.3893  -21.9189  -11.6059 O   0  0  0  0  0  0  0  0  0  0  0  0
  1  2  1  0
  2  3  2  0
  4  5  1  0
  4  2  1  0
  6  5  1  0
  7  6  1  0
  8  9  1  6
  8  7  1  0
 10  8  1  0
 10 11  2  0
 12 10  1  0
 13 12  1  0
 13 20  1  0
 13 14  1  1
 15 19  1  0
 15 14  1  0
 16 15  2  0
 17 16  1  0
 17 18  1  0
 18 19  2  0
 20 27  1  0
 21 20  2  0
 22 23  1  0
 23 24  1  0
 24 26  1  0
 24 25  1  6
 26 28  1  0
 26 27  1  6
 28 30  2  0
 28 29  1  0
M  END
$$$$
