RHI.pdb
     RDKit          3D

 30 30  0  0  1  0  0  0  0  0999 V2000
   23.4271  -16.0737  -16.4066 N   0  0  0  0  0  0  0  0  0  0  0  0
   23.1720  -16.9026  -17.5260 C   0  0  0  0  0  0  0  0  0  0  0  0
   21.9705  -17.3233  -17.7998 N   0  0  0  0  0  0  0  0  0  0  0  0
   24.2382  -17.2857  -18.3682 N   0  0  0  0  0  0  0  0  0  0  0  0
   25.3048  -18.1619  -17.9390 C   0  0  0  0  0  0  0  0  0  0  0  0
   24.7916  -19.5782  -17.7720 C   0  0  0  0  0  0  0  0  0  0  0  0
   25.2089  -20.1481  -16.4485 C   0  0  0  0  0  0  0  0  0  0  0  0
   26.6803  -20.4332  -16.3779 C   0  0  2  0  0  0  0  0  0  0  0  0
   27.0692  -21.4534  -17.3239 N   0  0  0  0  0  0  0  0  0  0  0  0
   26.9568  -20.8918  -14.9740 C   0  0  0  0  0  0  0  0  0  0  0  0
   26.3487  -21.8557  -14.4878 O   0  0  0  0  0  0  0  0  0  0  0  0
   21.7620  -17.7969  -18.7047 N   0  0  0  0  0  0  0  0  0  0  0  0
   27.9313  -20.1954  -14.2156 C   0  0  2  0  0  0  0  0  0  0  0  0
   28.2672  -20.6108  -12.8266 C   0  0  0  0  0  0  0  0  0  0  0  0
   29.6404  -20.1267  -12.5516 C   0  0  0  0  0  0  0  0  0  0  0  0
   30.7025  -21.1343  -12.4819 C   0  0  0  0  0  0  0  0  0  0  0  0
   30.5318  -22.5165  -12.6188 N   0  0  0  0  0  0  0  0  0  0  0  0
   31.7394  -23.0866  -12.4927 C   0  0  0  0  0  0  0  0  0  0  0  0
   32.6700  -22.1403  -12.2827 N   0  0  0  0  0  0  0  0  0  0  0  0
   32.0184  -20.9750  -12.2809 C   0  0  0  0  0  0  0  0  0  0  0  0
   27.1799  -20.1157  -11.9942 O   0  0  0  0  0  0  0  0  0  0  0  0
   26.7530  -18.9082  -12.1351 C   0  0  0  0  0  0  0  0  0  0  0  0
   21.6461  -20.2288  -10.2286 C   0  0  0  0  0  0  0  0  0  0  0  0
   23.0560  -19.9486   -9.6834 C   0  0  2  0  0  0  0  0  0  0  0  0
   24.0882  -20.6495  -10.5174 C   0  0  0  0  0  0  0  0  0  0  0  0
   23.8585  -22.1374  -10.3295 C   0  0  2  0  0  0  0  0  0  0  0  0
   25.4561  -20.2245  -10.1460 N   0  0  0  0  0  0  0  0  0  0  0  0
   26.4759  -20.8267  -10.9873 C   0  0  0  0  0  0  0  0  0  0  0  0
   25.7604  -20.5244   -8.7444 O   0  0  0  0  0  0  0  0  0  0  0  0
   26.7304  -21.4191   -8.2991 O   0  0  0  0  0  0  0  0  0  0  0  0
  1  2  1  0
  2  3  2  0
  4  5  1  0
  4  2  1  0
  6  5  1  0
  7  6  1  0
  8  9  1  6
  8  7  1  0
 10  8  1  0
 10 11  2  0
 12 10  1  0
 13 12  1  0
 13 20  1  0
 13 14  1  6
 15 19  1  0
 15 14  1  0
 16 15  2  0
 17 16  1  0
 17 18  1  0
 18 19  2  0
 20 27  1  0
 21 20  2  0
 22 23  1  0
 23 24  1  0
 24 26  1  0
 24 25  1  6
 26 28  1  0
 26 27  1  1
 28 30  2  0
 28 29  1  0
M  END
$$$$
