NLI.pdb
     RDKit          3D

 25 24  0  0  1  0  0  0  0  0999 V2000
   12.5729  -21.1010   22.6822 N   0  0  0  0  0  0  0  0  0  0  0  0
   12.2525  -20.0605   21.7172 C   0  0  0  0  0  0  0  0  0  0  0  0
   12.2531  -20.3928   20.5132 O   0  0  0  0  0  0  0  0  0  0  0  0
   11.9538  -18.7085   22.2024 C   0  0  0  0  0  0  0  0  0  0  0  0
   11.4646  -17.7759   21.1389 C   0  0  2  0  0  0  0  0  0  0  0  0
   12.7125  -17.1755   20.5205 N   0  0  0  0  0  0  0  0  0  0  0  0
   10.7641  -16.5729   21.6382 C   0  0  0  0  0  0  0  0  0  0  0  0
   11.3969  -15.7498   22.3719 O   0  0  0  0  0  0  0  0  0  0  0  0
    8.8151  -12.8439   19.7813 C   0  0  0  0  0  0  0  0  0  0  0  0
    7.8652  -13.9819   19.8510 C   0  0  2  0  0  0  0  0  0  0  0  0
    6.5832  -13.6034   19.1221 C   0  0  0  0  0  0  0  0  0  0  0  0
    7.6152  -14.5457   21.1942 C   0  0  0  0  0  0  0  0  0  0  0  0
    8.8152  -15.0326   21.9381 C   0  0  2  0  0  0  0  0  0  0  0  0
    9.4211  -16.2258   21.3706 N   0  0  0  0  0  0  0  0  0  0  0  0
    8.4624  -15.1959   23.3696 C   0  0  0  0  0  0  0  0  0  0  0  0
    8.7126  -16.3183   23.9304 O   0  0  0  0  0  0  0  0  0  0  0  0
    6.6550  -10.8181   26.3017 C   0  0  0  0  0  0  0  0  0  0  0  0
    7.5031  -12.0247   26.0947 C   0  0  0  0  0  0  0  0  0  0  0  0
    6.7694  -13.3210   26.1323 C   0  0  2  0  0  0  0  0  0  0  0  0
    6.3645  -13.5695   27.5664 C   0  0  0  0  0  0  0  0  0  0  0  0
    7.5148  -14.4964   25.5578 C   0  0  2  0  0  0  0  0  0  0  0  0
    7.8665  -14.2057   24.1805 N   0  0  0  0  0  0  0  0  0  0  0  0
    6.6741  -15.7057   25.5830 C   0  0  0  0  0  0  0  0  0  0  0  0
    5.8537  -15.9047   24.6658 O   0  0  0  0  0  0  0  0  0  0  0  0
    6.8011  -16.6068   26.6183 O   0  0  0  0  0  0  0  0  0  0  0  0
  1  2  1  0
  2  4  1  0
  3  2  2  0
  5  4  1  0
  5  6  1  1
  7  8  2  0
  7  5  1  0
 10  9  1  1
 10 11  1  0
 10 12  1  0
 13 12  1  6
 13 14  1  0
 14  7  1  0
 15 13  1  0
 15 22  1  0
 16 15  2  0
 17 18  1  0
 18 19  1  0
 19 21  1  0
 19 20  1  1
 21 22  1  6
 21 23  1  0
 23 24  2  0
 23 25  1  0
M  END
$$$$
