NLI.pdb
     RDKit          3D

 25 24  0  0  1  0  0  0  0  0999 V2000
   15.3930  -18.0502   19.4168 N   0  0  0  0  0  0  0  0  0  0  0  0
   14.0784  -17.8251   18.8358 C   0  0  0  0  0  0  0  0  0  0  0  0
   13.8669  -18.3319   17.7139 O   0  0  0  0  0  0  0  0  0  0  0  0
   13.0966  -17.0323   19.5841 C   0  0  0  0  0  0  0  0  0  0  0  0
   12.5190  -17.7419   20.7686 C   0  0  2  0  0  0  0  0  0  0  0  0
   11.4869  -18.6992   20.2045 N   0  0  0  0  0  0  0  0  0  0  0  0
   11.6950  -16.8978   21.6606 C   0  0  0  0  0  0  0  0  0  0  0  0
   12.2399  -15.9185   22.2611 O   0  0  0  0  0  0  0  0  0  0  0  0
    5.9676  -14.8729   22.6079 C   0  0  0  0  0  0  0  0  0  0  0  0
    7.4410  -14.8759   22.7851 C   0  0  2  0  0  0  0  0  0  0  0  0
    8.0478  -13.7846   21.9141 C   0  0  0  0  0  0  0  0  0  0  0  0
    8.1178  -16.1800   22.6238 C   0  0  0  0  0  0  0  0  0  0  0  0
    9.5978  -16.1834   22.8234 C   0  0  2  0  0  0  0  0  0  0  0  0
   10.3163  -17.0659   21.9192 N   0  0  0  0  0  0  0  0  0  0  0  0
    9.8920  -16.4636   24.2501 C   0  0  0  0  0  0  0  0  0  0  0  0
   10.4459  -17.5782   24.5462 O   0  0  0  0  0  0  0  0  0  0  0  0
    9.9423  -12.3037   27.9330 C   0  0  0  0  0  0  0  0  0  0  0  0
   10.3336  -13.4968   27.1322 C   0  0  0  0  0  0  0  0  0  0  0  0
    9.7361  -14.7828   27.5896 C   0  0  2  0  0  0  0  0  0  0  0  0
   10.2474  -15.0469   28.9864 C   0  0  0  0  0  0  0  0  0  0  0  0
    9.9765  -15.9601   26.6821 C   0  0  2  0  0  0  0  0  0  0  0  0
    9.6110  -15.5943   25.3265 N   0  0  0  0  0  0  0  0  0  0  0  0
    9.1546  -17.1101   27.0965 C   0  0  0  0  0  0  0  0  0  0  0  0
    7.9587  -17.1692   26.7498 O   0  0  0  0  0  0  0  0  0  0  0  0
    9.7132  -18.1108   27.8624 O   0  0  0  0  0  0  0  0  0  0  0  0
  1  2  1  0
  2  4  1  0
  3  2  2  0
  5  4  1  0
  5  6  1  6
  7  8  2  0
  7  5  1  0
 10  9  1  6
 10 11  1  0
 10 12  1  0
 13 12  1  1
 13 14  1  0
 14  7  1  0
 15 13  1  0
 15 22  1  0
 16 15  2  0
 17 18  1  0
 18 19  1  0
 19 21  1  0
 19 20  1  1
 21 22  1  6
 21 23  1  0
 23 24  2  0
 23 25  1  0
M  END
$$$$
