NLI.pdb
     RDKit          3D

 25 24  0  0  1  0  0  0  0  0999 V2000
   13.7069  -18.6143   17.8117 N   0  0  0  0  0  0  0  0  0  0  0  0
   13.7118  -18.3210   19.2367 C   0  0  0  0  0  0  0  0  0  0  0  0
   14.4988  -18.9855   19.9432 O   0  0  0  0  0  0  0  0  0  0  0  0
   12.8112  -17.2839   19.7521 C   0  0  0  0  0  0  0  0  0  0  0  0
   12.1682  -17.6323   21.0580 C   0  0  2  0  0  0  0  0  0  0  0  0
   11.1667  -18.7253   20.7384 N   0  0  0  0  0  0  0  0  0  0  0  0
   11.2983  -16.5795   21.6254 C   0  0  0  0  0  0  0  0  0  0  0  0
   11.8336  -15.5686   22.1803 O   0  0  0  0  0  0  0  0  0  0  0  0
    6.3227  -13.3164   20.5694 C   0  0  0  0  0  0  0  0  0  0  0  0
    7.5683  -13.6677   21.2959 C   0  0  2  0  0  0  0  0  0  0  0  0
    8.7075  -12.8028   20.7744 C   0  0  0  0  0  0  0  0  0  0  0  0
    7.9154  -15.1036   21.3451 C   0  0  0  0  0  0  0  0  0  0  0  0
    9.1214  -15.4626   22.1495 C   0  0  2  0  0  0  0  0  0  0  0  0
    9.8856  -16.5746   21.6087 N   0  0  0  0  0  0  0  0  0  0  0  0
    8.7143  -15.6803   23.5592 C   0  0  0  0  0  0  0  0  0  0  0  0
    8.7504  -16.8724   24.0224 O   0  0  0  0  0  0  0  0  0  0  0  0
    5.5918  -12.0389   26.6735 C   0  0  0  0  0  0  0  0  0  0  0  0
    6.1835  -13.1659   25.9004 C   0  0  0  0  0  0  0  0  0  0  0  0
    7.4113  -13.7609   26.4990 C   0  0  2  0  0  0  0  0  0  0  0  0
    8.4640  -12.6780   26.5404 C   0  0  0  0  0  0  0  0  0  0  0  0
    7.9220  -15.0010   25.8145 C   0  0  2  0  0  0  0  0  0  0  0  0
    8.2849  -14.6717   24.4488 N   0  0  0  0  0  0  0  0  0  0  0  0
    6.8814  -16.0431   25.7861 C   0  0  0  0  0  0  0  0  0  0  0  0
    6.6413  -16.7020   26.8167 O   0  0  0  0  0  0  0  0  0  0  0  0
    6.1816  -16.2809   24.6226 O   0  0  0  0  0  0  0  0  0  0  0  0
  1  2  1  0
  2  4  1  0
  3  2  2  0
  5  4  1  0
  5  6  1  6
  7  8  2  0
  7  5  1  0
 10  9  1  6
 10 11  1  0
 10 12  1  0
 13 12  1  6
 13 14  1  0
 14  7  1  0
 15 13  1  0
 15 22  1  0
 16 15  2  0
 17 18  1  0
 18 19  1  0
 19 21  1  0
 19 20  1  6
 21 22  1  6
 21 23  1  0
 23 24  2  0
 23 25  1  0
M  END
$$$$
