NLI.pdb
     RDKit          3D

 25 24  0  0  1  0  0  0  0  0999 V2000
   11.0494  -18.6242   19.1522 N   0  0  0  0  0  0  0  0  0  0  0  0
   11.1216  -17.2052   18.8394 C   0  0  0  0  0  0  0  0  0  0  0  0
   11.7217  -16.8923   17.7896 O   0  0  0  0  0  0  0  0  0  0  0  0
   10.4993  -16.2427   19.7553 C   0  0  0  0  0  0  0  0  0  0  0  0
    9.9139  -16.8651   20.9842 C   0  0  2  0  0  0  0  0  0  0  0  0
    8.4733  -17.1819   20.6315 N   0  0  0  0  0  0  0  0  0  0  0  0
    9.7508  -15.9462   22.1314 C   0  0  0  0  0  0  0  0  0  0  0  0
   10.7505  -15.2664   22.5251 O   0  0  0  0  0  0  0  0  0  0  0  0
    5.7311  -13.2892   26.1551 C   0  0  0  0  0  0  0  0  0  0  0  0
    7.0796  -13.4993   25.5720 C   0  0  2  0  0  0  0  0  0  0  0  0
    7.7153  -12.1447   25.2913 C   0  0  0  0  0  0  0  0  0  0  0  0
    7.1585  -14.4194   24.4179 C   0  0  0  0  0  0  0  0  0  0  0  0
    8.5263  -14.8815   24.0361 C   0  0  2  0  0  0  0  0  0  0  0  0
    8.5578  -15.7308   22.8569 N   0  0  0  0  0  0  0  0  0  0  0  0
    9.1685  -15.5144   25.2141 C   0  0  0  0  0  0  0  0  0  0  0  0
    9.1252  -16.7891   25.3149 O   0  0  0  0  0  0  0  0  0  0  0  0
   11.0526  -14.4179   30.9766 C   0  0  0  0  0  0  0  0  0  0  0  0
   11.1504  -15.2619   29.7535 C   0  0  0  0  0  0  0  0  0  0  0  0
   10.6450  -14.6209   28.5070 C   0  0  2  0  0  0  0  0  0  0  0  0
    9.3612  -13.9049   28.8557 C   0  0  0  0  0  0  0  0  0  0  0  0
   10.4579  -15.5514   27.3381 C   0  0  2  0  0  0  0  0  0  0  0  0
    9.8346  -14.8229   26.2491 N   0  0  0  0  0  0  0  0  0  0  0  0
    9.5864  -16.6798   27.7083 C   0  0  0  0  0  0  0  0  0  0  0  0
    8.3483  -16.5402   27.6696 O   0  0  0  0  0  0  0  0  0  0  0  0
   10.1454  -17.8795   28.0932 O   0  0  0  0  0  0  0  0  0  0  0  0
  1  2  1  0
  2  4  1  0
  3  2  2  0
  5  4  1  0
  5  6  1  6
  7  8  2  0
  7  5  1  0
 10  9  1  6
 10 11  1  0
 10 12  1  0
 13 12  1  1
 13 14  1  0
 14  7  1  0
 15 13  1  0
 15 22  1  0
 16 15  2  0
 17 18  1  0
 18 19  1  0
 19 21  1  0
 19 20  1  1
 21 22  1  6
 21 23  1  0
 23 24  2  0
 23 25  1  0
M  END
$$$$
