NLI.pdb
     RDKit          3D

 25 24  0  0  1  0  0  0  0  0999 V2000
   14.6560  -17.5719   18.5977 N   0  0  0  0  0  0  0  0  0  0  0  0
   14.1627  -17.6002   19.9661 C   0  0  0  0  0  0  0  0  0  0  0  0
   14.6549  -18.4643   20.7218 O   0  0  0  0  0  0  0  0  0  0  0  0
   13.1367  -16.6333   20.3720 C   0  0  0  0  0  0  0  0  0  0  0  0
   12.1277  -17.1849   21.3300 C   0  0  2  0  0  0  0  0  0  0  0  0
   11.2226  -18.0737   20.4989 N   0  0  0  0  0  0  0  0  0  0  0  0
   11.1704  -16.1937   21.8669 C   0  0  0  0  0  0  0  0  0  0  0  0
   11.5602  -15.3820   22.7645 O   0  0  0  0  0  0  0  0  0  0  0  0
    8.6995  -12.7378   20.0457 C   0  0  0  0  0  0  0  0  0  0  0  0
    7.9302  -14.0046   19.9685 C   0  0  2  0  0  0  0  0  0  0  0  0
    6.6223  -13.7468   19.2331 C   0  0  0  0  0  0  0  0  0  0  0  0
    7.7384  -14.7334   21.2400 C   0  0  0  0  0  0  0  0  0  0  0  0
    8.9728  -15.0091   22.0341 C   0  0  2  0  0  0  0  0  0  0  0  0
    9.8234  -16.0432   21.4684 N   0  0  0  0  0  0  0  0  0  0  0  0
    8.5902  -15.2888   23.4398 C   0  0  0  0  0  0  0  0  0  0  0  0
    8.8410  -16.4495   23.9158 O   0  0  0  0  0  0  0  0  0  0  0  0
    6.9422  -11.1628   26.8632 C   0  0  0  0  0  0  0  0  0  0  0  0
    7.6984  -12.3576   26.3957 C   0  0  0  0  0  0  0  0  0  0  0  0
    6.9067  -13.6185   26.3393 C   0  0  2  0  0  0  0  0  0  0  0  0
    6.5129  -13.9684   27.7553 C   0  0  0  0  0  0  0  0  0  0  0  0
    7.5883  -14.7735   25.6548 C   0  0  2  0  0  0  0  0  0  0  0  0
    7.9648  -14.3719   24.3124 N   0  0  0  0  0  0  0  0  0  0  0  0
    6.6807  -15.9299   25.5623 C   0  0  0  0  0  0  0  0  0  0  0  0
    5.8461  -15.9855   24.6380 O   0  0  0  0  0  0  0  0  0  0  0  0
    6.7613  -16.9405   26.4963 O   0  0  0  0  0  0  0  0  0  0  0  0
  1  2  1  0
  2  4  1  0
  3  2  2  0
  5  4  1  0
  5  6  1  6
  7  8  2  0
  7  5  1  0
 10  9  1  1
 10 11  1  0
 10 12  1  0
 13 12  1  6
 13 14  1  0
 14  7  1  0
 15 13  1  0
 15 22  1  0
 16 15  2  0
 17 18  1  0
 18 19  1  0
 19 21  1  0
 19 20  1  1
 21 22  1  6
 21 23  1  0
 23 24  2  0
 23 25  1  0
M  END
$$$$
