NLI.pdb
     RDKit          3D

 25 24  0  0  1  0  0  0  0  0999 V2000
   14.1228  -17.5163   20.7659 N   0  0  0  0  0  0  0  0  0  0  0  0
   13.4400  -17.5581   19.4819 C   0  0  0  0  0  0  0  0  0  0  0  0
   14.1394  -17.3511   18.4680 O   0  0  0  0  0  0  0  0  0  0  0  0
   11.9995  -17.8346   19.4513 C   0  0  0  0  0  0  0  0  0  0  0  0
   11.3781  -17.9693   20.8063 C   0  0  2  0  0  0  0  0  0  0  0  0
   10.1608  -18.8519   20.6085 N   0  0  0  0  0  0  0  0  0  0  0  0
   10.7719  -16.7306   21.3403 C   0  0  0  0  0  0  0  0  0  0  0  0
   11.5281  -15.8373   21.8369 O   0  0  0  0  0  0  0  0  0  0  0  0
    8.2229  -13.2263   19.6181 C   0  0  0  0  0  0  0  0  0  0  0  0
    7.4095  -14.3945   20.0378 C   0  0  2  0  0  0  0  0  0  0  0  0
    5.9662  -14.1749   19.6058 C   0  0  0  0  0  0  0  0  0  0  0  0
    7.5281  -14.8009   21.4539 C   0  0  0  0  0  0  0  0  0  0  0  0
    8.8962  -15.1788   21.9185 C   0  0  2  0  0  0  0  0  0  0  0  0
    9.3935  -16.4209   21.3505 N   0  0  0  0  0  0  0  0  0  0  0  0
    8.9196  -15.1784   23.4018 C   0  0  0  0  0  0  0  0  0  0  0  0
    9.6972  -16.0031   23.9949 O   0  0  0  0  0  0  0  0  0  0  0  0
    6.5700  -10.9649   26.0053 C   0  0  0  0  0  0  0  0  0  0  0  0
    7.6838  -11.9249   25.7691 C   0  0  0  0  0  0  0  0  0  0  0  0
    7.4460  -13.3014   26.2875 C   0  0  2  0  0  0  0  0  0  0  0  0
    7.6123  -13.2539   27.7883 C   0  0  0  0  0  0  0  0  0  0  0  0
    8.3026  -14.3754   25.6711 C   0  0  2  0  0  0  0  0  0  0  0  0
    8.1480  -14.3338   24.2291 N   0  0  0  0  0  0  0  0  0  0  0  0
    7.8898  -15.7059   26.1499 C   0  0  0  0  0  0  0  0  0  0  0  0
    8.4726  -16.2174   27.1258 O   0  0  0  0  0  0  0  0  0  0  0  0
    6.8635  -16.3737   25.5168 O   0  0  0  0  0  0  0  0  0  0  0  0
  1  2  1  0
  2  4  1  0
  3  2  2  0
  5  4  1  0
  5  6  1  6
  7  8  2  0
  7  5  1  0
 10  9  1  1
 10 11  1  0
 10 12  1  0
 13 12  1  1
 13 14  1  0
 14  7  1  0
 15 13  1  0
 15 22  1  0
 16 15  2  0
 17 18  1  0
 18 19  1  0
 19 21  1  0
 19 20  1  1
 21 22  1  6
 21 23  1  0
 23 24  2  0
 23 25  1  0
M  END
$$$$
