NLI.pdb
     RDKit          3D

 25 24  0  0  1  0  0  0  0  0999 V2000
   11.7591  -20.3712   17.9764 N   0  0  0  0  0  0  0  0  0  0  0  0
   11.3964  -20.0663   19.3520 C   0  0  0  0  0  0  0  0  0  0  0  0
   11.3930  -21.0221   20.1560 O   0  0  0  0  0  0  0  0  0  0  0  0
   11.0617  -18.6832   19.7090 C   0  0  0  0  0  0  0  0  0  0  0  0
   10.7690  -18.4853   21.1634 C   0  0  2  0  0  0  0  0  0  0  0  0
    9.3992  -19.0963   21.3883 N   0  0  0  0  0  0  0  0  0  0  0  0
   10.5456  -17.0809   21.5693 C   0  0  0  0  0  0  0  0  0  0  0  0
   11.5215  -16.2665   21.5385 O   0  0  0  0  0  0  0  0  0  0  0  0
    8.5345  -12.9993   20.1895 C   0  0  0  0  0  0  0  0  0  0  0  0
    7.5970  -14.0431   20.6733 C   0  0  2  0  0  0  0  0  0  0  0  0
    6.1678  -13.5641   20.4587 C   0  0  0  0  0  0  0  0  0  0  0  0
    7.8314  -14.5515   22.0412 C   0  0  0  0  0  0  0  0  0  0  0  0
    9.1881  -15.1144   22.3114 C   0  0  2  0  0  0  0  0  0  0  0  0
    9.3177  -16.5273   21.9955 N   0  0  0  0  0  0  0  0  0  0  0  0
    9.5698  -14.8038   23.7107 C   0  0  0  0  0  0  0  0  0  0  0  0
   10.4767  -13.9235   23.9095 O   0  0  0  0  0  0  0  0  0  0  0  0
    6.7469  -12.2262   26.5279 C   0  0  0  0  0  0  0  0  0  0  0  0
    7.9029  -12.9838   25.9732 C   0  0  0  0  0  0  0  0  0  0  0  0
    8.3506  -14.1393   26.8004 C   0  0  2  0  0  0  0  0  0  0  0  0
    8.7715  -13.5957   28.1457 C   0  0  0  0  0  0  0  0  0  0  0  0
    9.4321  -14.9874   26.1851 C   0  0  2  0  0  0  0  0  0  0  0  0
    9.0107  -15.4028   24.8604 N   0  0  0  0  0  0  0  0  0  0  0  0
    9.6740  -16.1903   27.0002 C   0  0  0  0  0  0  0  0  0  0  0  0
    9.0035  -17.2203   26.7921 O   0  0  0  0  0  0  0  0  0  0  0  0
   10.6387  -16.1682   27.9845 O   0  0  0  0  0  0  0  0  0  0  0  0
  1  2  1  0
  2  4  1  0
  3  2  2  0
  5  4  1  0
  5  6  1  6
  7  8  2  0
  7  5  1  0
 10  9  1  1
 10 11  1  0
 10 12  1  0
 13 12  1  1
 13 14  1  0
 14  7  1  0
 15 13  1  0
 15 22  1  0
 16 15  2  0
 17 18  1  0
 18 19  1  0
 19 21  1  0
 19 20  1  1
 21 22  1  6
 21 23  1  0
 23 24  2  0
 23 25  1  0
M  END
$$$$
