NLI.pdb
     RDKit          3D

 25 24  0  0  1  0  0  0  0  0999 V2000
   11.6881  -16.3885   17.4906 N   0  0  0  0  0  0  0  0  0  0  0  0
   10.9458  -16.9778   18.5943 C   0  0  0  0  0  0  0  0  0  0  0  0
   10.6643  -18.1908   18.4965 O   0  0  0  0  0  0  0  0  0  0  0  0
   10.5774  -16.1321   19.7352 C   0  0  0  0  0  0  0  0  0  0  0  0
    9.8490  -16.8606   20.8210 C   0  0  2  0  0  0  0  0  0  0  0  0
    8.4066  -16.9401   20.3593 N   0  0  0  0  0  0  0  0  0  0  0  0
    9.7204  -16.1174   22.0931 C   0  0  0  0  0  0  0  0  0  0  0  0
   10.7421  -15.5318   22.5721 O   0  0  0  0  0  0  0  0  0  0  0  0
    5.7668  -13.6970   26.3152 C   0  0  0  0  0  0  0  0  0  0  0  0
    7.0939  -13.8589   25.6710 C   0  0  2  0  0  0  0  0  0  0  0  0
    7.6649  -12.4826   25.3586 C   0  0  0  0  0  0  0  0  0  0  0  0
    7.1539  -14.7796   24.5163 C   0  0  0  0  0  0  0  0  0  0  0  0
    8.5173  -15.2202   24.0951 C   0  0  2  0  0  0  0  0  0  0  0  0
    8.5390  -15.9783   22.8551 N   0  0  0  0  0  0  0  0  0  0  0  0
    9.1596  -15.9441   25.2194 C   0  0  0  0  0  0  0  0  0  0  0  0
    9.2959  -17.2125   25.1233 O   0  0  0  0  0  0  0  0  0  0  0  0
   10.8208  -12.9629   29.4816 C   0  0  0  0  0  0  0  0  0  0  0  0
   11.1271  -13.9387   28.3991 C   0  0  0  0  0  0  0  0  0  0  0  0
   10.5857  -15.3094   28.6185 C   0  0  2  0  0  0  0  0  0  0  0  0
   11.5004  -16.0047   29.5995 C   0  0  0  0  0  0  0  0  0  0  0  0
   10.3900  -16.1288   27.3705 C   0  0  2  0  0  0  0  0  0  0  0  0
    9.6421  -15.3467   26.4040 N   0  0  0  0  0  0  0  0  0  0  0  0
    9.6318  -17.3558   27.6698 C   0  0  0  0  0  0  0  0  0  0  0  0
    8.3915  -17.3014   27.7819 O   0  0  0  0  0  0  0  0  0  0  0  0
   10.2982  -18.5526   27.8227 O   0  0  0  0  0  0  0  0  0  0  0  0
  1  2  1  0
  2  4  1  0
  3  2  2  0
  5  4  1  0
  5  6  1  6
  7  8  2  0
  7  5  1  0
 10  9  1  6
 10 11  1  0
 10 12  1  0
 13 12  1  1
 13 14  1  0
 14  7  1  0
 15 13  1  0
 15 22  1  0
 16 15  2  0
 17 18  1  0
 18 19  1  0
 19 21  1  0
 19 20  1  1
 21 22  1  6
 21 23  1  0
 23 24  2  0
 23 25  1  0
M  END
$$$$
