NLI.pdb
     RDKit          3D

 25 24  0  0  1  0  0  0  0  0999 V2000
    7.8825  -19.5002   22.0917 N   0  0  0  0  0  0  0  0  0  0  0  0
    9.2710  -19.1701   21.8095 C   0  0  0  0  0  0  0  0  0  0  0  0
   10.1387  -19.8087   22.4415 O   0  0  0  0  0  0  0  0  0  0  0  0
    9.5671  -18.1279   20.8202 C   0  0  0  0  0  0  0  0  0  0  0  0
    8.7452  -16.8874   20.9806 C   0  0  2  0  0  0  0  0  0  0  0  0
    9.2471  -15.9281   19.9186 N   0  0  0  0  0  0  0  0  0  0  0  0
    9.0005  -16.1263   22.2226 C   0  0  0  0  0  0  0  0  0  0  0  0
   10.0925  -15.4862   22.3412 O   0  0  0  0  0  0  0  0  0  0  0  0
    8.0200  -12.2662   24.8403 C   0  0  0  0  0  0  0  0  0  0  0  0
    6.9030  -13.2433   24.8441 C   0  0  2  0  0  0  0  0  0  0  0  0
    5.7693  -12.6976   25.7014 C   0  0  0  0  0  0  0  0  0  0  0  0
    7.2544  -14.6391   25.1800 C   0  0  0  0  0  0  0  0  0  0  0  0
    8.4475  -15.2044   24.4820 C   0  0  2  0  0  0  0  0  0  0  0  0
    8.1252  -16.0258   23.3270 N   0  0  0  0  0  0  0  0  0  0  0  0
    9.2937  -15.9155   25.4714 C   0  0  0  0  0  0  0  0  0  0  0  0
    9.0310  -17.1424   25.7216 O   0  0  0  0  0  0  0  0  0  0  0  0
   10.0764  -13.3808   29.8922 C   0  0  0  0  0  0  0  0  0  0  0  0
   10.5290  -13.9721   28.6024 C   0  0  0  0  0  0  0  0  0  0  0  0
   10.5540  -15.4614   28.5697 C   0  0  2  0  0  0  0  0  0  0  0  0
   11.4141  -15.9242   29.7222 C   0  0  0  0  0  0  0  0  0  0  0  0
   11.0052  -16.0665   27.2667 C   0  0  2  0  0  0  0  0  0  0  0  0
   10.3811  -15.3488   26.1711 N   0  0  0  0  0  0  0  0  0  0  0  0
   10.6076  -17.4827   27.1879 C   0  0  0  0  0  0  0  0  0  0  0  0
   11.4526  -18.3727   27.4068 O   0  0  0  0  0  0  0  0  0  0  0  0
    9.3066  -17.8126   26.8742 O   0  0  0  0  0  0  0  0  0  0  0  0
  1  2  1  0
  2  4  1  0
  3  2  2  0
  5  4  1  0
  5  6  1  6
  7  8  2  0
  7  5  1  0
 10  9  1  1
 10 11  1  0
 10 12  1  0
 13 12  1  1
 13 14  1  0
 14  7  1  0
 15 13  1  0
 15 22  1  0
 16 15  2  0
 17 18  1  0
 18 19  1  0
 19 21  1  0
 19 20  1  1
 21 22  1  6
 21 23  1  0
 23 24  2  0
 23 25  1  0
M  END
$$$$
