NLI.pdb
     RDKit          3D

 25 24  0  0  1  0  0  0  0  0999 V2000
    9.9364  -19.0150   18.7706 N   0  0  0  0  0  0  0  0  0  0  0  0
   10.4731  -19.3750   20.0740 C   0  0  0  0  0  0  0  0  0  0  0  0
   10.6827  -20.5893   20.2782 O   0  0  0  0  0  0  0  0  0  0  0  0
   10.7318  -18.3143   21.0540 C   0  0  0  0  0  0  0  0  0  0  0  0
    9.9158  -17.0779   20.8402 C   0  0  2  0  0  0  0  0  0  0  0  0
   10.7394  -16.2032   19.9147 N   0  0  0  0  0  0  0  0  0  0  0  0
    9.7730  -16.2114   22.0301 C   0  0  0  0  0  0  0  0  0  0  0  0
   10.7932  -15.5932   22.4699 O   0  0  0  0  0  0  0  0  0  0  0  0
    5.8139  -13.4852   26.0642 C   0  0  0  0  0  0  0  0  0  0  0  0
    7.1493  -13.7220   25.4615 C   0  0  2  0  0  0  0  0  0  0  0  0
    7.7802  -12.3815   25.1111 C   0  0  0  0  0  0  0  0  0  0  0  0
    7.2023  -14.6893   24.3451 C   0  0  0  0  0  0  0  0  0  0  0  0
    8.5605  -15.1744   23.9576 C   0  0  2  0  0  0  0  0  0  0  0  0
    8.5792  -15.9839   22.7505 N   0  0  0  0  0  0  0  0  0  0  0  0
    9.1765  -15.8633   25.1180 C   0  0  0  0  0  0  0  0  0  0  0  0
    9.2859  -17.1373   25.0770 O   0  0  0  0  0  0  0  0  0  0  0  0
   10.3452  -12.9461   29.6561 C   0  0  0  0  0  0  0  0  0  0  0  0
   10.7606  -13.8052   28.5127 C   0  0  0  0  0  0  0  0  0  0  0  0
   10.3127  -15.2236   28.5986 C   0  0  2  0  0  0  0  0  0  0  0  0
   11.1444  -15.8962   29.6656 C   0  0  0  0  0  0  0  0  0  0  0  0
   10.3544  -15.9888   27.3024 C   0  0  2  0  0  0  0  0  0  0  0  0
    9.6610  -15.2265   26.2811 N   0  0  0  0  0  0  0  0  0  0  0  0
    9.6870  -17.2937   27.4493 C   0  0  0  0  0  0  0  0  0  0  0  0
    8.4422  -17.3546   27.4285 O   0  0  0  0  0  0  0  0  0  0  0  0
   10.4427  -18.4356   27.6075 O   0  0  0  0  0  0  0  0  0  0  0  0
  1  2  1  0
  2  4  1  0
  3  2  2  0
  5  4  1  0
  5  6  1  6
  7  8  2  0
  7  5  1  0
 10  9  1  6
 10 11  1  0
 10 12  1  0
 13 12  1  1
 13 14  1  0
 14  7  1  0
 15 13  1  0
 15 22  1  0
 16 15  2  0
 17 18  1  0
 18 19  1  0
 19 21  1  0
 19 20  1  1
 21 22  1  6
 21 23  1  0
 23 24  2  0
 23 25  1  0
M  END
$$$$
