NLI.pdb
     RDKit          3D

 25 24  0  0  1  0  0  0  0  0999 V2000
   11.4518  -18.6065   18.8428 N   0  0  0  0  0  0  0  0  0  0  0  0
   11.5260  -17.1609   18.6969 C   0  0  0  0  0  0  0  0  0  0  0  0
   12.0587  -16.7294   17.6528 O   0  0  0  0  0  0  0  0  0  0  0  0
   10.9832  -16.3101   19.7617 C   0  0  0  0  0  0  0  0  0  0  0  0
   10.4785  -17.0700   20.9483 C   0  0  2  0  0  0  0  0  0  0  0  0
    9.0802  -17.5231   20.5751 N   0  0  0  0  0  0  0  0  0  0  0  0
   10.2210  -16.2491   22.1512 C   0  0  0  0  0  0  0  0  0  0  0  0
   11.1930  -15.6482   22.7084 O   0  0  0  0  0  0  0  0  0  0  0  0
    5.8807  -13.8215   25.9844 C   0  0  0  0  0  0  0  0  0  0  0  0
    7.2413  -13.9038   25.3975 C   0  0  2  0  0  0  0  0  0  0  0  0
    7.7174  -12.5001   25.0499 C   0  0  0  0  0  0  0  0  0  0  0  0
    7.4183  -14.8606   24.2849 C   0  0  0  0  0  0  0  0  0  0  0  0
    8.8240  -15.2587   23.9756 C   0  0  2  0  0  0  0  0  0  0  0  0
    8.9637  -16.0491   22.7637 N   0  0  0  0  0  0  0  0  0  0  0  0
    9.4096  -15.9257   25.1641 C   0  0  0  0  0  0  0  0  0  0  0  0
    9.6753  -17.1749   25.0875 O   0  0  0  0  0  0  0  0  0  0  0  0
   10.2801  -12.9431   29.7653 C   0  0  0  0  0  0  0  0  0  0  0  0
   10.7028  -13.7918   28.6168 C   0  0  0  0  0  0  0  0  0  0  0  0
   10.3127  -15.2260   28.7197 C   0  0  2  0  0  0  0  0  0  0  0  0
   11.1527  -15.8455   29.8119 C   0  0  0  0  0  0  0  0  0  0  0  0
   10.4089  -16.0101   27.4378 C   0  0  2  0  0  0  0  0  0  0  0  0
    9.7050  -15.2931   26.3912 N   0  0  0  0  0  0  0  0  0  0  0  0
    9.7913  -17.3381   27.5950 C   0  0  0  0  0  0  0  0  0  0  0  0
    8.5551  -17.4588   27.4890 O   0  0  0  0  0  0  0  0  0  0  0  0
   10.5834  -18.4353   27.8569 O   0  0  0  0  0  0  0  0  0  0  0  0
  1  2  1  0
  2  4  1  0
  3  2  2  0
  5  4  1  0
  5  6  1  6
  7  8  2  0
  7  5  1  0
 10  9  1  6
 10 11  1  0
 10 12  1  0
 13 12  1  1
 13 14  1  0
 14  7  1  0
 15 13  1  0
 15 22  1  0
 16 15  2  0
 17 18  1  0
 18 19  1  0
 19 21  1  0
 19 20  1  1
 21 22  1  6
 21 23  1  0
 23 24  2  0
 23 25  1  0
M  END
$$$$
