NLI.pdb
     RDKit          3D

 25 24  0  0  1  0  0  0  0  0999 V2000
   14.1827  -18.9653   21.0351 N   0  0  0  0  0  0  0  0  0  0  0  0
   14.0623  -17.8389   20.1223 C   0  0  0  0  0  0  0  0  0  0  0  0
   14.8182  -17.8396   19.1280 O   0  0  0  0  0  0  0  0  0  0  0  0
   13.0812  -16.7882   20.4153 C   0  0  0  0  0  0  0  0  0  0  0  0
   11.9511  -17.2385   21.2873 C   0  0  2  0  0  0  0  0  0  0  0  0
   11.0102  -17.9980   20.3721 N   0  0  0  0  0  0  0  0  0  0  0  0
   11.0789  -16.1541   21.7876 C   0  0  0  0  0  0  0  0  0  0  0  0
   11.5804  -15.2498   22.5274 O   0  0  0  0  0  0  0  0  0  0  0  0
    8.5655  -12.6746   20.0406 C   0  0  0  0  0  0  0  0  0  0  0  0
    7.8105  -13.9523   20.0416 C   0  0  2  0  0  0  0  0  0  0  0  0
    6.4822  -13.7442   19.3273 C   0  0  0  0  0  0  0  0  0  0  0  0
    7.6584  -14.6226   21.3501 C   0  0  0  0  0  0  0  0  0  0  0  0
    8.9219  -14.9220   22.0878 C   0  0  2  0  0  0  0  0  0  0  0  0
    9.7006  -16.0074   21.5147 N   0  0  0  0  0  0  0  0  0  0  0  0
    8.6045  -15.1402   23.5204 C   0  0  0  0  0  0  0  0  0  0  0  0
    8.9338  -16.2574   24.0498 O   0  0  0  0  0  0  0  0  0  0  0  0
    6.7834  -10.9270   26.7186 C   0  0  0  0  0  0  0  0  0  0  0  0
    7.6187  -12.1070   26.3608 C   0  0  0  0  0  0  0  0  0  0  0  0
    6.8990  -13.4115   26.3718 C   0  0  2  0  0  0  0  0  0  0  0  0
    6.5368  -13.7156   27.8067 C   0  0  0  0  0  0  0  0  0  0  0  0
    7.6393  -14.5576   25.7349 C   0  0  2  0  0  0  0  0  0  0  0  0
    7.9619  -14.2084   24.3642 N   0  0  0  0  0  0  0  0  0  0  0  0
    6.8061  -15.7722   25.7269 C   0  0  0  0  0  0  0  0  0  0  0  0
    5.9578  -15.9313   24.8275 O   0  0  0  0  0  0  0  0  0  0  0  0
    6.9708  -16.7225   26.7117 O   0  0  0  0  0  0  0  0  0  0  0  0
  1  2  1  0
  2  4  1  0
  3  2  2  0
  5  4  1  0
  5  6  1  6
  7  8  2  0
  7  5  1  0
 10  9  1  1
 10 11  1  0
 10 12  1  0
 13 12  1  6
 13 14  1  0
 14  7  1  0
 15 13  1  0
 15 22  1  0
 16 15  2  0
 17 18  1  0
 18 19  1  0
 19 21  1  0
 19 20  1  1
 21 22  1  6
 21 23  1  0
 23 24  2  0
 23 25  1  0
M  END
$$$$
