DSG.pdb
     RDKit          3D

 19 18  0  0  1  0  0  0  0  0999 V2000
   13.4474  -10.0337  -12.7930 N   0  0  0  0  0  0  0  0  0  0  0  0
   14.5739  -10.3920  -11.8514 C   0  0  1  0  0  0  0  0  0  0  0  0
   15.3165  -11.4630  -12.6173 C   0  0  0  0  0  0  0  0  0  0  0  0
   14.7858  -12.8135  -12.4582 C   0  0  0  0  0  0  0  0  0  0  0  0
   13.7914  -13.1404  -11.7873 O   0  0  0  0  0  0  0  0  0  0  0  0
   15.4268   -9.1838  -11.7865 C   0  0  0  0  0  0  0  0  0  0  0  0
   15.5044   -8.4482  -12.8389 O   0  0  0  0  0  0  0  0  0  0  0  0
   15.4432  -13.8672  -13.1164 O   0  0  0  0  0  0  0  0  0  0  0  0
   15.7685   -6.7484   -8.7565 O   0  0  0  0  0  0  0  0  0  0  0  0
   17.0285   -7.0522   -9.2542 C   0  0  0  0  0  0  0  0  0  0  0  0
   16.9098   -7.4511  -10.7381 C   0  0  2  0  0  0  0  0  0  0  0  0
   16.1785   -8.7164  -10.7015 N   0  0  0  0  0  0  0  0  0  0  0  0
   18.2410   -7.5390  -11.3200 C   0  0  0  0  0  0  0  0  0  0  0  0
   18.8658   -8.6257  -11.1554 O   0  0  0  0  0  0  0  0  0  0  0  0
   18.9105   -6.5311  -12.0535 N   0  0  0  0  0  0  0  0  0  0  0  0
   20.2798   -6.7075  -12.5130 C   0  0  0  0  0  0  0  0  0  0  0  0
   20.7638   -5.4933  -13.1765 C   0  0  0  0  0  0  0  0  0  0  0  0
   19.9548   -4.5772  -13.4558 O   0  0  0  0  0  0  0  0  0  0  0  0
   22.1029   -5.3036  -13.5175 O   0  0  0  0  0  0  0  0  0  0  0  0
  2  1  1  6
  2  3  1  0
  3  4  1  0
  4  5  2  0
  6  7  2  0
  6  2  1  0
  8  4  1  0
  9 10  1  0
 11 10  1  1
 11 12  1  0
 12  6  1  0
 13 11  1  0
 13 15  1  0
 14 13  2  0
 16 15  1  0
 16 17  1  0
 17 19  1  0
 18 17  2  0
M  END
$$$$
