DSG.pdb
     RDKit          3D

 19 18  0  0  1  0  0  0  0  0999 V2000
   17.8196  -12.0622  -15.5823 N   0  0  0  0  0  0  0  0  0  0  0  0
   18.8678  -11.3846  -16.4346 C   0  0  1  0  0  0  0  0  0  0  0  0
   18.0343  -10.6216  -17.4387 C   0  0  0  0  0  0  0  0  0  0  0  0
   17.4449  -11.4373  -18.4960 C   0  0  0  0  0  0  0  0  0  0  0  0
   16.6682  -11.0443  -19.3837 O   0  0  0  0  0  0  0  0  0  0  0  0
   19.5301  -10.4112  -15.5372 C   0  0  0  0  0  0  0  0  0  0  0  0
   18.8053   -9.8231  -14.6520 O   0  0  0  0  0  0  0  0  0  0  0  0
   17.7694  -12.8042  -18.5392 O   0  0  0  0  0  0  0  0  0  0  0  0
   23.5482   -9.8201  -15.3040 O   0  0  0  0  0  0  0  0  0  0  0  0
   22.7742   -9.6057  -14.1716 C   0  0  0  0  0  0  0  0  0  0  0  0
   21.4040   -9.0366  -14.5887 C   0  0  2  0  0  0  0  0  0  0  0  0
   20.8792  -10.0366  -15.5170 N   0  0  0  0  0  0  0  0  0  0  0  0
   21.5891   -7.7137  -15.1668 C   0  0  0  0  0  0  0  0  0  0  0  0
   21.7017   -7.6504  -16.4244 O   0  0  0  0  0  0  0  0  0  0  0  0
   21.6558   -6.4869  -14.4647 N   0  0  0  0  0  0  0  0  0  0  0  0
   21.8875   -5.2273  -15.1552 C   0  0  0  0  0  0  0  0  0  0  0  0
   21.8114   -4.1019  -14.2190 C   0  0  0  0  0  0  0  0  0  0  0  0
   21.5520   -4.3187  -13.0117 O   0  0  0  0  0  0  0  0  0  0  0  0
   22.0173   -2.7795  -14.6118 O   0  0  0  0  0  0  0  0  0  0  0  0
  2  1  1  1
  2  3  1  0
  3  4  1  0
  4  5  2  0
  6  7  2  0
  6  2  1  0
  8  4  1  0
  9 10  1  0
 11 10  1  6
 11 12  1  0
 12  6  1  0
 13 11  1  0
 13 15  1  0
 14 13  2  0
 16 15  1  0
 16 17  1  0
 17 19  1  0
 18 17  2  0
M  END
$$$$
