DSG.pdb
     RDKit          3D

 19 18  0  0  1  0  0  0  0  0999 V2000
   15.2867  -10.4492  -10.6702 N   0  0  0  0  0  0  0  0  0  0  0  0
   15.5286   -9.1087  -11.3249 C   0  0  1  0  0  0  0  0  0  0  0  0
   15.4103   -8.1479  -10.1639 C   0  0  0  0  0  0  0  0  0  0  0  0
   14.0429   -7.8024   -9.7876 C   0  0  0  0  0  0  0  0  0  0  0  0
   13.4611   -8.1323   -8.7395 O   0  0  0  0  0  0  0  0  0  0  0  0
   16.9411   -9.1401  -11.7669 C   0  0  0  0  0  0  0  0  0  0  0  0
   17.7832   -9.7817  -11.0362 O   0  0  0  0  0  0  0  0  0  0  0  0
   13.2863   -7.0213  -10.6781 O   0  0  0  0  0  0  0  0  0  0  0  0
   20.1536   -9.5992  -15.1085 O   0  0  0  0  0  0  0  0  0  0  0  0
   18.8598   -9.3525  -14.6693 C   0  0  0  0  0  0  0  0  0  0  0  0
   18.9085   -8.7155  -13.2668 C   0  0  2  0  0  0  0  0  0  0  0  0
   17.5004   -8.5533  -12.9086 N   0  0  0  0  0  0  0  0  0  0  0  0
   19.6631   -7.4725  -13.3296 C   0  0  0  0  0  0  0  0  0  0  0  0
   19.0372   -6.4428  -13.7122 O   0  0  0  0  0  0  0  0  0  0  0  0
   21.0291   -7.2964  -13.0053 N   0  0  0  0  0  0  0  0  0  0  0  0
   21.6694   -5.9927  -13.0924 C   0  0  0  0  0  0  0  0  0  0  0  0
   21.7686   -5.5567  -14.4885 C   0  0  0  0  0  0  0  0  0  0  0  0
   22.3056   -4.4558  -14.7555 O   0  0  0  0  0  0  0  0  0  0  0  0
   21.2871   -6.3196  -15.5523 O   0  0  0  0  0  0  0  0  0  0  0  0
  2  1  1  1
  2  3  1  0
  3  4  1  0
  4  5  2  0
  6  7  2  0
  6  2  1  0
  8  4  1  0
  9 10  1  0
 11 10  1  6
 11 12  1  0
 12  6  1  0
 13 11  1  0
 13 15  1  0
 14 13  2  0
 16 15  1  0
 16 17  1  0
 17 19  1  0
 18 17  2  0
M  END
$$$$
