DSG.pdb
     RDKit          3D

 19 18  0  0  1  0  0  0  0  0999 V2000
   18.8305  -12.2718  -15.9983 N   0  0  0  0  0  0  0  0  0  0  0  0
   19.2113  -11.0441  -16.7931 C   0  0  1  0  0  0  0  0  0  0  0  0
   17.9246  -10.7016  -17.5087 C   0  0  0  0  0  0  0  0  0  0  0  0
   17.6291  -11.5298  -18.6738 C   0  0  0  0  0  0  0  0  0  0  0  0
   18.4374  -11.8872  -19.5483 O   0  0  0  0  0  0  0  0  0  0  0  0
   19.4814   -9.9950  -15.7840 C   0  0  0  0  0  0  0  0  0  0  0  0
   18.6299   -9.8469  -14.8313 O   0  0  0  0  0  0  0  0  0  0  0  0
   16.3099  -11.9818  -18.8500 O   0  0  0  0  0  0  0  0  0  0  0  0
   21.7693   -8.0322  -12.5047 O   0  0  0  0  0  0  0  0  0  0  0  0
   21.6358   -8.8351  -13.6294 C   0  0  0  0  0  0  0  0  0  0  0  0
   20.7273   -8.1307  -14.6558 C   0  0  2  0  0  0  0  0  0  0  0  0
   20.5726   -9.1198  -15.7212 N   0  0  0  0  0  0  0  0  0  0  0  0
   21.3515   -6.8843  -15.0744 C   0  0  0  0  0  0  0  0  0  0  0  0
   22.3123   -6.9727  -15.8915 O   0  0  0  0  0  0  0  0  0  0  0  0
   20.9932   -5.5795  -14.6606 N   0  0  0  0  0  0  0  0  0  0  0  0
   21.6252   -4.4000  -15.2321 C   0  0  0  0  0  0  0  0  0  0  0  0
   21.0912   -3.1791  -14.6213 C   0  0  0  0  0  0  0  0  0  0  0  0
   20.1933   -3.2653  -13.7507 O   0  0  0  0  0  0  0  0  0  0  0  0
   21.5410   -1.9048  -14.9666 O   0  0  0  0  0  0  0  0  0  0  0  0
  2  1  1  1
  2  3  1  0
  3  4  1  0
  4  5  2  0
  6  7  2  0
  6  2  1  0
  8  4  1  0
  9 10  1  0
 11 10  1  1
 11 12  1  0
 12  6  1  0
 13 11  1  0
 13 15  1  0
 14 13  2  0
 16 15  1  0
 16 17  1  0
 17 19  1  0
 18 17  2  0
M  END
$$$$
