DSG.pdb
     RDKit          3D

 19 18  0  0  1  0  0  0  0  0999 V2000
   15.0348  -16.1794    6.6969 N   0  0  0  0  0  0  0  0  0  0  0  0
   16.0721  -16.4578    5.6337 C   0  0  1  0  0  0  0  0  0  0  0  0
   16.9374  -15.2194    5.6840 C   0  0  0  0  0  0  0  0  0  0  0  0
   16.3908  -14.0578    4.9892 C   0  0  0  0  0  0  0  0  0  0  0  0
   16.3650  -12.8896    5.4140 O   0  0  0  0  0  0  0  0  0  0  0  0
   16.8588  -17.6020    6.1468 C   0  0  0  0  0  0  0  0  0  0  0  0
   17.0633  -17.6675    7.4152 O   0  0  0  0  0  0  0  0  0  0  0  0
   15.8325  -14.2490    3.7135 O   0  0  0  0  0  0  0  0  0  0  0  0
   18.8928  -20.3486    3.8529 O   0  0  0  0  0  0  0  0  0  0  0  0
   18.2305  -20.8327    4.9729 C   0  0  0  0  0  0  0  0  0  0  0  0
   18.1805  -19.7339    6.0524 C   0  0  2  0  0  0  0  0  0  0  0  0
   17.4227  -18.6565    5.4183 N   0  0  0  0  0  0  0  0  0  0  0  0
   19.5380  -19.3740    6.4349 C   0  0  0  0  0  0  0  0  0  0  0  0
   20.0874  -18.4415    5.7815 O   0  0  0  0  0  0  0  0  0  0  0  0
   20.3089  -19.9613    7.4659 N   0  0  0  0  0  0  0  0  0  0  0  0
   21.6644  -19.5152    7.7501 C   0  0  0  0  0  0  0  0  0  0  0  0
   21.6530  -18.3892    8.6885 C   0  0  0  0  0  0  0  0  0  0  0  0
   20.5575  -17.9303    9.0901 O   0  0  0  0  0  0  0  0  0  0  0  0
   22.8206  -17.7934    9.1651 O   0  0  0  0  0  0  0  0  0  0  0  0
  2  1  1  1
  2  3  1  0
  3  4  1  0
  4  5  2  0
  6  7  2  0
  6  2  1  0
  8  4  1  0
  9 10  1  0
 11 10  1  6
 11 12  1  0
 12  6  1  0
 13 11  1  0
 13 15  1  0
 14 13  2  0
 16 15  1  0
 16 17  1  0
 17 19  1  0
 18 17  2  0
M  END
$$$$
