DSG.pdb
     RDKit          3D

 19 18  0  0  1  0  0  0  0  0999 V2000
   18.8296   -9.8418  -17.4116 N   0  0  0  0  0  0  0  0  0  0  0  0
   19.9114   -8.9129  -17.9123 C   0  0  1  0  0  0  0  0  0  0  0  0
   19.2748   -8.2933  -19.1354 C   0  0  0  0  0  0  0  0  0  0  0  0
   19.2009   -9.1687  -20.3011 C   0  0  0  0  0  0  0  0  0  0  0  0
   18.1897   -9.3997  -20.9865 O   0  0  0  0  0  0  0  0  0  0  0  0
   20.0417   -7.8691  -16.8706 C   0  0  0  0  0  0  0  0  0  0  0  0
   18.9618   -7.4153  -16.3390 O   0  0  0  0  0  0  0  0  0  0  0  0
   20.3723   -9.8281  -20.7119 O   0  0  0  0  0  0  0  0  0  0  0  0
   22.1456   -6.2252  -13.0559 O   0  0  0  0  0  0  0  0  0  0  0  0
   22.0981   -7.0231  -14.1912 C   0  0  0  0  0  0  0  0  0  0  0  0
   21.2130   -6.3458  -15.2556 C   0  0  2  0  0  0  0  0  0  0  0  0
   21.2156   -7.2956  -16.3669 N   0  0  0  0  0  0  0  0  0  0  0  0
   21.7642   -5.0377  -15.5774 C   0  0  0  0  0  0  0  0  0  0  0  0
   22.7821   -5.0153  -16.3268 O   0  0  0  0  0  0  0  0  0  0  0  0
   21.2770   -3.7843  -15.1372 N   0  0  0  0  0  0  0  0  0  0  0  0
   21.9803   -2.5466  -15.4387 C   0  0  0  0  0  0  0  0  0  0  0  0
   21.6277   -2.0635  -16.7770 C   0  0  0  0  0  0  0  0  0  0  0  0
   22.0842   -0.9670  -17.1785 O   0  0  0  0  0  0  0  0  0  0  0  0
   20.7957   -2.7759  -17.6405 O   0  0  0  0  0  0  0  0  0  0  0  0
  2  1  1  1
  2  3  1  0
  3  4  1  0
  4  5  2  0
  6  7  2  0
  6  2  1  0
  8  4  1  0
  9 10  1  0
 11 10  1  1
 11 12  1  0
 12  6  1  0
 13 11  1  0
 13 15  1  0
 14 13  2  0
 16 15  1  0
 16 17  1  0
 17 19  1  0
 18 17  2  0
M  END
$$$$
