DSG.pdb
     RDKit          3D

 19 18  0  0  1  0  0  0  0  0999 V2000
   16.8915  -11.8213  -16.8248 N   0  0  0  0  0  0  0  0  0  0  0  0
   16.8629  -11.2899  -15.4103 C   0  0  1  0  0  0  0  0  0  0  0  0
   17.8304  -12.2043  -14.6943 C   0  0  0  0  0  0  0  0  0  0  0  0
   17.2820  -13.5014  -14.3101 C   0  0  0  0  0  0  0  0  0  0  0  0
   16.0843  -13.7631  -14.1030 O   0  0  0  0  0  0  0  0  0  0  0  0
   17.4635   -9.9392  -15.4892 C   0  0  0  0  0  0  0  0  0  0  0  0
   18.4068   -9.7521  -16.3436 O   0  0  0  0  0  0  0  0  0  0  0  0
   18.1716  -14.5780  -14.1513 O   0  0  0  0  0  0  0  0  0  0  0  0
   17.0126   -5.2153  -15.0356 O   0  0  0  0  0  0  0  0  0  0  0  0
   16.5746   -6.5057  -14.7703 C   0  0  0  0  0  0  0  0  0  0  0  0
   17.7364   -7.4949  -14.9873 C   0  0  2  0  0  0  0  0  0  0  0  0
   17.1311   -8.8028  -14.7417 N   0  0  0  0  0  0  0  0  0  0  0  0
   18.8298   -7.1567  -14.0881 C   0  0  0  0  0  0  0  0  0  0  0  0
   18.7345   -7.5628  -12.8946 O   0  0  0  0  0  0  0  0  0  0  0  0
   19.9924   -6.4183  -14.4124 N   0  0  0  0  0  0  0  0  0  0  0  0
   21.0021   -6.1109  -13.4108 C   0  0  0  0  0  0  0  0  0  0  0  0
   22.0983   -5.3370  -14.0010 C   0  0  0  0  0  0  0  0  0  0  0  0
   22.1426   -5.1766  -15.2436 O   0  0  0  0  0  0  0  0  0  0  0  0
   23.1112   -4.7602  -13.2351 O   0  0  0  0  0  0  0  0  0  0  0  0
  2  1  1  6
  2  3  1  0
  3  4  1  0
  4  5  2  0
  6  7  2  0
  6  2  1  0
  8  4  1  0
  9 10  1  0
 11 10  1  1
 11 12  1  0
 12  6  1  0
 13 11  1  0
 13 15  1  0
 14 13  2  0
 16 15  1  0
 16 17  1  0
 17 19  1  0
 18 17  2  0
M  END
$$$$
