DSG.pdb
     RDKit          3D

 19 18  0  0  1  0  0  0  0  0999 V2000
   18.0333  -12.5894  -17.6524 N   0  0  0  0  0  0  0  0  0  0  0  0
   18.6532  -12.3616  -16.2931 C   0  0  1  0  0  0  0  0  0  0  0  0
   19.9681  -13.0993  -16.4018 C   0  0  0  0  0  0  0  0  0  0  0  0
   19.8759  -14.5478  -16.2464 C   0  0  0  0  0  0  0  0  0  0  0  0
   20.4723  -15.4014  -16.9257 O   0  0  0  0  0  0  0  0  0  0  0  0
   18.9328  -10.9092  -16.2308 C   0  0  0  0  0  0  0  0  0  0  0  0
   19.5415  -10.3731  -17.2292 O   0  0  0  0  0  0  0  0  0  0  0  0
   19.0386  -15.0556  -15.2381 O   0  0  0  0  0  0  0  0  0  0  0  0
   17.4612   -8.4175  -13.3721 O   0  0  0  0  0  0  0  0  0  0  0  0
   17.6016   -7.9432  -14.6694 C   0  0  0  0  0  0  0  0  0  0  0  0
   18.8519   -8.5746  -15.3123 C   0  0  2  0  0  0  0  0  0  0  0  0
   18.6107  -10.0125  -15.2048 N   0  0  0  0  0  0  0  0  0  0  0  0
   20.0398   -8.1072  -14.6131 C   0  0  0  0  0  0  0  0  0  0  0  0
   20.6142   -8.9331  -13.8473 O   0  0  0  0  0  0  0  0  0  0  0  0
   20.6206   -6.8200  -14.7021 N   0  0  0  0  0  0  0  0  0  0  0  0
   21.7906   -6.4577  -13.9164 C   0  0  0  0  0  0  0  0  0  0  0  0
   22.1763   -5.0669  -14.1731 C   0  0  0  0  0  0  0  0  0  0  0  0
   21.6077   -4.4268  -15.0890 O   0  0  0  0  0  0  0  0  0  0  0  0
   23.1610   -4.4095  -13.4358 O   0  0  0  0  0  0  0  0  0  0  0  0
  2  1  1  6
  2  3  1  0
  3  4  1  0
  4  5  2  0
  6  7  2  0
  6  2  1  0
  8  4  1  0
  9 10  1  0
 11 10  1  1
 11 12  1  0
 12  6  1  0
 13 11  1  0
 13 15  1  0
 14 13  2  0
 16 15  1  0
 16 17  1  0
 17 19  1  0
 18 17  2  0
M  END
$$$$
