DSG.pdb
     RDKit          3D

 19 18  0  0  1  0  0  0  0  0999 V2000
   22.0956  -12.6652  -16.9860 N   0  0  0  0  0  0  0  0  0  0  0  0
   22.9618  -11.6086  -16.3401 C   0  0  1  0  0  0  0  0  0  0  0  0
   24.1303  -11.5110  -17.2939 C   0  0  0  0  0  0  0  0  0  0  0  0
   25.0916  -12.6057  -17.2038 C   0  0  0  0  0  0  0  0  0  0  0  0
   25.3740  -13.4147  -18.1047 O   0  0  0  0  0  0  0  0  0  0  0  0
   22.1781  -10.3556  -16.4270 C   0  0  0  0  0  0  0  0  0  0  0  0
   21.6108  -10.0807  -17.5483 O   0  0  0  0  0  0  0  0  0  0  0  0
   25.7802  -12.7869  -15.9919 O   0  0  0  0  0  0  0  0  0  0  0  0
   19.0910   -9.6424  -15.3420 O   0  0  0  0  0  0  0  0  0  0  0  0
   19.8347   -8.6550  -14.7098 C   0  0  0  0  0  0  0  0  0  0  0  0
   21.0410   -8.2794  -15.5923 C   0  0  2  0  0  0  0  0  0  0  0  0
   21.9599   -9.4038  -15.4235 N   0  0  0  0  0  0  0  0  0  0  0  0
   21.5717   -6.9951  -15.1593 C   0  0  0  0  0  0  0  0  0  0  0  0
   22.2536   -6.9882  -14.0948 O   0  0  0  0  0  0  0  0  0  0  0  0
   21.4032   -5.7493  -15.8088 N   0  0  0  0  0  0  0  0  0  0  0  0
   22.0716   -4.5474  -15.3335 C   0  0  0  0  0  0  0  0  0  0  0  0
   21.3767   -3.9955  -14.1667 C   0  0  0  0  0  0  0  0  0  0  0  0
   20.3569   -4.5747  -13.7235 O   0  0  0  0  0  0  0  0  0  0  0  0
   21.8018   -2.8385  -13.5140 O   0  0  0  0  0  0  0  0  0  0  0  0
  2  1  1  6
  2  3  1  0
  3  4  1  0
  4  5  2  0
  6  7  2  0
  6  2  1  0
  8  4  1  0
  9 10  1  0
 11 10  1  1
 11 12  1  0
 12  6  1  0
 13 11  1  0
 13 15  1  0
 14 13  2  0
 16 15  1  0
 16 17  1  0
 17 19  1  0
 18 17  2  0
M  END
$$$$
