QGH.pdb
     RDKit          3D

 24 24  0  0  1  0  0  0  0  0999 V2000
    8.7639  -17.7064   15.4001 N   0  0  0  0  0  0  0  0  0  0  0  0
    7.5808  -18.4745   15.7019 C   0  0  0  0  0  0  0  0  0  0  0  0
    7.2428  -19.3415   14.8919 O   0  0  0  0  0  0  0  0  0  0  0  0
    6.8118  -18.2193   16.9392 C   0  0  0  0  0  0  0  0  0  0  0  0
    7.4243  -17.1471   17.7911 C   0  0  0  0  0  0  0  0  0  0  0  0
    8.4287  -17.6486   18.7906 C   0  0  2  0  0  0  0  0  0  0  0  0
    7.7144  -18.4572   19.7930 N   0  0  0  0  0  0  0  0  0  0  0  0
    9.2097  -16.5880   19.4433 C   0  0  0  0  0  0  0  0  0  0  0  0
    9.9007  -15.7940   18.7636 O   0  0  0  0  0  0  0  0  0  0  0  0
    9.1991  -16.4363   20.8791 N   0  0  0  0  0  0  0  0  0  0  0  0
    9.9767  -15.3729   21.4262 C   0  0  0  0  0  0  0  0  0  0  0  0
    9.9510  -15.3407   22.9100 C   0  0  0  0  0  0  0  0  0  0  0  0
   10.6145  -14.4374   23.4638 O   0  0  0  0  0  0  0  0  0  0  0  0
    9.2319  -16.2583   23.6917 N   0  0  0  0  0  0  0  0  0  0  0  0
    9.1294  -16.2738   25.1306 C   0  0  1  0  0  0  0  0  0  0  0  0
    7.7521  -16.0591   25.6293 C   0  0  0  0  0  0  0  0  0  0  0  0
    7.3346  -14.6451   25.5448 C   0  0  0  0  0  0  0  0  0  0  0  0
    8.1651  -13.6267   25.0844 C   0  0  0  0  0  0  0  0  0  0  0  0
    7.4797  -12.4799   25.1386 N   0  0  0  0  0  0  0  0  0  0  0  0
    6.2492  -12.7361   25.6152 C   0  0  0  0  0  0  0  0  0  0  0  0
    6.1788  -14.0510   25.8557 N   0  0  0  0  0  0  0  0  0  0  0  0
    9.8801  -17.3845   25.7699 C   0  0  0  0  0  0  0  0  0  0  0  0
    9.9448  -17.4877   27.1447 O   0  0  0  0  0  0  0  0  0  0  0  0
   10.4772  -18.2676   25.1034 O   0  0  0  0  0  0  0  0  0  0  0  0
  2  4  1  0
  2  1  1  0
  3  2  2  0
  5  6  1  0
  5  4  1  0
  6  7  1  1
  6  8  1  0
  8  9  2  0
  8 10  1  0
 10 11  1  0
 12 11  1  0
 12 14  1  0
 13 12  2  0
 15 14  1  0
 15 16  1  6
 15 22  1  0
 16 17  1  0
 17 18  2  0
 17 21  1  0
 18 19  1  0
 19 20  1  0
 21 20  2  0
 22 23  1  0
 24 22  2  0
M  END
$$$$
