QGH.pdb
     RDKit          3D

 24 24  0  0  1  0  0  0  0  0999 V2000
   11.4806  -14.8183   12.4811 N   0  0  0  0  0  0  0  0  0  0  0  0
   11.1269  -15.8172   13.4599 C   0  0  0  0  0  0  0  0  0  0  0  0
   11.2186  -17.0008   13.1241 O   0  0  0  0  0  0  0  0  0  0  0  0
   10.6720  -15.4214   14.8103 C   0  0  0  0  0  0  0  0  0  0  0  0
   10.1926  -16.5865   15.6246 C   0  0  0  0  0  0  0  0  0  0  0  0
   11.2870  -17.3526   16.3138 C   0  0  2  0  0  0  0  0  0  0  0  0
   11.2348  -18.7481   15.8463 N   0  0  0  0  0  0  0  0  0  0  0  0
   11.2288  -17.2966   17.7815 C   0  0  0  0  0  0  0  0  0  0  0  0
   10.2628  -17.7988   18.4016 O   0  0  0  0  0  0  0  0  0  0  0  0
   12.2805  -16.6632   18.5414 N   0  0  0  0  0  0  0  0  0  0  0  0
   12.1309  -16.6347   19.9598 C   0  0  0  0  0  0  0  0  0  0  0  0
   13.2369  -15.9194   20.6444 C   0  0  0  0  0  0  0  0  0  0  0  0
   14.1761  -15.5169   19.9243 O   0  0  0  0  0  0  0  0  0  0  0  0
   13.2674  -15.6846   22.0279 N   0  0  0  0  0  0  0  0  0  0  0  0
   14.0907  -16.3602   23.0009 C   0  0  1  0  0  0  0  0  0  0  0  0
   13.7486  -17.7899   23.1767 C   0  0  0  0  0  0  0  0  0  0  0  0
   12.5449  -17.9844   24.0097 C   0  0  0  0  0  0  0  0  0  0  0  0
   11.4999  -17.0664   24.0734 C   0  0  0  0  0  0  0  0  0  0  0  0
   10.5783  -17.5486   24.9136 N   0  0  0  0  0  0  0  0  0  0  0  0
   11.0020  -18.7351   25.3821 C   0  0  0  0  0  0  0  0  0  0  0  0
   12.1935  -18.9833   24.8248 N   0  0  0  0  0  0  0  0  0  0  0  0
   15.5386  -16.0556   22.8714 C   0  0  0  0  0  0  0  0  0  0  0  0
   16.3262  -16.7567   21.9808 O   0  0  0  0  0  0  0  0  0  0  0  0
   16.1038  -15.1608   23.5500 O   0  0  0  0  0  0  0  0  0  0  0  0
  2  4  1  0
  2  1  1  0
  3  2  2  0
  5  6  1  0
  5  4  1  0
  6  7  1  1
  6  8  1  0
  8  9  2  0
  8 10  1  0
 10 11  1  0
 12 11  1  0
 12 14  1  0
 13 12  2  0
 15 14  1  0
 15 16  1  6
 15 22  1  0
 16 17  1  0
 17 18  2  0
 17 21  1  0
 18 19  1  0
 19 20  1  0
 21 20  2  0
 22 23  1  0
 24 22  2  0
M  END
$$$$
