QGH.pdb
     RDKit          3D

 24 24  0  0  1  0  0  0  0  0999 V2000
   13.1213  -20.5438   12.0069 N   0  0  0  0  0  0  0  0  0  0  0  0
   12.4695  -19.2672   11.8443 C   0  0  0  0  0  0  0  0  0  0  0  0
   11.7091  -19.1347   10.8819 O   0  0  0  0  0  0  0  0  0  0  0  0
   12.7150  -18.1681   12.8030 C   0  0  0  0  0  0  0  0  0  0  0  0
   11.6243  -18.0359   13.8245 C   0  0  0  0  0  0  0  0  0  0  0  0
   11.7978  -16.8802   14.7698 C   0  0  2  0  0  0  0  0  0  0  0  0
   13.2158  -16.4831   14.7538 N   0  0  0  0  0  0  0  0  0  0  0  0
   11.3532  -17.1544   16.1438 C   0  0  0  0  0  0  0  0  0  0  0  0
   10.1388  -17.3283   16.3990 O   0  0  0  0  0  0  0  0  0  0  0  0
   12.3025  -17.2295   17.2290 N   0  0  0  0  0  0  0  0  0  0  0  0
   11.7955  -17.5915   18.5123 C   0  0  0  0  0  0  0  0  0  0  0  0
   11.7829  -16.4580   19.4707 C   0  0  0  0  0  0  0  0  0  0  0  0
   12.8129  -15.7513   19.5183 O   0  0  0  0  0  0  0  0  0  0  0  0
   10.6913  -16.1582   20.3007 N   0  0  0  0  0  0  0  0  0  0  0  0
   10.6418  -15.1522   21.3334 C   0  0  1  0  0  0  0  0  0  0  0  0
    9.3512  -14.4296   21.3958 C   0  0  0  0  0  0  0  0  0  0  0  0
    8.8591  -14.0358   20.0603 C   0  0  0  0  0  0  0  0  0  0  0  0
    9.1736  -12.8223   19.4544 C   0  0  0  0  0  0  0  0  0  0  0  0
    8.5692  -12.7881   18.2621 N   0  0  0  0  0  0  0  0  0  0  0  0
    7.8858  -13.9332   18.0933 C   0  0  0  0  0  0  0  0  0  0  0  0
    8.0722  -14.6764   19.1908 N   0  0  0  0  0  0  0  0  0  0  0  0
   11.1883  -15.6084   22.6369 C   0  0  0  0  0  0  0  0  0  0  0  0
   11.5099  -14.6957   23.6210 O   0  0  0  0  0  0  0  0  0  0  0  0
   11.3771  -16.8227   22.9023 O   0  0  0  0  0  0  0  0  0  0  0  0
  2  4  1  0
  2  1  1  0
  3  2  2  0
  5  6  1  0
  5  4  1  0
  6  7  1  1
  6  8  1  0
  8  9  2  0
  8 10  1  0
 10 11  1  0
 12 11  1  0
 12 14  1  0
 13 12  2  0
 15 14  1  0
 15 16  1  1
 15 22  1  0
 16 17  1  0
 17 18  2  0
 17 21  1  0
 18 19  1  0
 19 20  1  0
 21 20  2  0
 22 23  1  0
 24 22  2  0
M  END
$$$$
