QGH.pdb
     RDKit          3D

 24 24  0  0  1  0  0  0  0  0999 V2000
    8.2679  -12.4721   16.5145 N   0  0  0  0  0  0  0  0  0  0  0  0
    7.7543  -13.7064   17.0562 C   0  0  0  0  0  0  0  0  0  0  0  0
    7.4744  -14.6053   16.2589 O   0  0  0  0  0  0  0  0  0  0  0  0
    7.5742  -13.8721   18.5148 C   0  0  0  0  0  0  0  0  0  0  0  0
    8.8482  -14.2366   19.2180 C   0  0  0  0  0  0  0  0  0  0  0  0
    9.1844  -15.7010   19.1712 C   0  0  2  0  0  0  0  0  0  0  0  0
    7.9260  -16.4631   19.2383 N   0  0  0  0  0  0  0  0  0  0  0  0
   10.1113  -16.1398   20.2242 C   0  0  0  0  0  0  0  0  0  0  0  0
   11.2326  -15.5960   20.3548 O   0  0  0  0  0  0  0  0  0  0  0  0
    9.7529  -17.2050   21.1306 N   0  0  0  0  0  0  0  0  0  0  0  0
   10.7480  -17.6299   22.0603 C   0  0  0  0  0  0  0  0  0  0  0  0
   10.6116  -16.9841   23.3899 C   0  0  0  0  0  0  0  0  0  0  0  0
   11.2801  -15.9451   23.5808 O   0  0  0  0  0  0  0  0  0  0  0  0
    9.7856  -17.4805   24.4104 N   0  0  0  0  0  0  0  0  0  0  0  0
    9.6657  -16.9651   25.7524 C   0  0  1  0  0  0  0  0  0  0  0  0
    8.2922  -16.5378   26.1029 C   0  0  0  0  0  0  0  0  0  0  0  0
    7.8397  -15.3807   25.3047 C   0  0  0  0  0  0  0  0  0  0  0  0
    8.6268  -14.7614   24.3375 C   0  0  0  0  0  0  0  0  0  0  0  0
    7.9184  -13.7572   23.8106 N   0  0  0  0  0  0  0  0  0  0  0  0
    6.7151  -13.7196   24.4084 C   0  0  0  0  0  0  0  0  0  0  0  0
    6.6846  -14.7087   25.3096 N   0  0  0  0  0  0  0  0  0  0  0  0
   10.3639  -17.7889   26.7721 C   0  0  0  0  0  0  0  0  0  0  0  0
   10.9375  -18.9957   26.4264 O   0  0  0  0  0  0  0  0  0  0  0  0
   10.4669  -17.4323   27.9733 O   0  0  0  0  0  0  0  0  0  0  0  0
  2  4  1  0
  2  1  1  0
  3  2  2  0
  5  6  1  0
  5  4  1  0
  6  7  1  1
  6  8  1  0
  8  9  2  0
  8 10  1  0
 10 11  1  0
 12 11  1  0
 12 14  1  0
 13 12  2  0
 15 14  1  0
 15 16  1  1
 15 22  1  0
 16 17  1  0
 17 18  2  0
 17 21  1  0
 18 19  1  0
 19 20  1  0
 21 20  2  0
 22 23  1  0
 24 22  2  0
M  END
$$$$
