QGH.pdb
     RDKit          3D

 24 24  0  0  1  0  0  0  0  0999 V2000
    8.7213  -12.6379   17.2396 N   0  0  0  0  0  0  0  0  0  0  0  0
    7.8700  -13.6425   16.6504 C   0  0  0  0  0  0  0  0  0  0  0  0
    7.1773  -13.3074   15.6861 O   0  0  0  0  0  0  0  0  0  0  0  0
    7.8389  -15.0175   17.1943 C   0  0  0  0  0  0  0  0  0  0  0  0
    7.4391  -15.0598   18.6395 C   0  0  0  0  0  0  0  0  0  0  0  0
    8.5928  -15.0253   19.6025 C   0  0  2  0  0  0  0  0  0  0  0  0
    9.7569  -15.6442   18.9464 N   0  0  0  0  0  0  0  0  0  0  0  0
    8.3200  -15.6756   20.8923 C   0  0  0  0  0  0  0  0  0  0  0  0
    7.4604  -15.2069   21.6742 O   0  0  0  0  0  0  0  0  0  0  0  0
    9.0342  -16.8664   21.2878 N   0  0  0  0  0  0  0  0  0  0  0  0
    8.6622  -17.4658   22.5277 C   0  0  0  0  0  0  0  0  0  0  0  0
    9.1968  -16.7382   23.7060 C   0  0  0  0  0  0  0  0  0  0  0  0
   10.3440  -16.2543   23.5942 O   0  0  0  0  0  0  0  0  0  0  0  0
    8.4848  -16.5775   24.9049 N   0  0  0  0  0  0  0  0  0  0  0  0
    8.9969  -16.0631   26.1515 C   0  0  1  0  0  0  0  0  0  0  0  0
    7.9902  -15.3234   26.9459 C   0  0  0  0  0  0  0  0  0  0  0  0
    7.4322  -14.1676   26.2155 C   0  0  0  0  0  0  0  0  0  0  0  0
    8.0267  -13.6164   25.0835 C   0  0  0  0  0  0  0  0  0  0  0  0
    7.2687  -12.5926   24.6769 N   0  0  0  0  0  0  0  0  0  0  0  0
    6.2194  -12.4773   25.5090 C   0  0  0  0  0  0  0  0  0  0  0  0
    6.3342  -13.4380   26.4339 N   0  0  0  0  0  0  0  0  0  0  0  0
    9.8212  -17.0411   26.9064 C   0  0  0  0  0  0  0  0  0  0  0  0
   10.0375  -18.3096   26.4074 O   0  0  0  0  0  0  0  0  0  0  0  0
   10.3534  -16.7651   28.0115 O   0  0  0  0  0  0  0  0  0  0  0  0
  2  4  1  0
  2  1  1  0
  3  2  2  0
  5  6  1  0
  5  4  1  0
  6  7  1  6
  6  8  1  0
  8  9  2  0
  8 10  1  0
 10 11  1  0
 12 11  1  0
 12 14  1  0
 13 12  2  0
 15 14  1  0
 15 16  1  1
 15 22  1  0
 16 17  1  0
 17 18  2  0
 17 21  1  0
 18 19  1  0
 19 20  1  0
 21 20  2  0
 22 23  1  0
 24 22  2  0
M  END
$$$$
