QGH.pdb
     RDKit          3D

 24 24  0  0  1  0  0  0  0  0999 V2000
   13.2230  -13.9335   20.1045 N   0  0  0  0  0  0  0  0  0  0  0  0
   13.5598  -13.9545   18.7020 C   0  0  0  0  0  0  0  0  0  0  0  0
   14.6336  -13.4478   18.3668 O   0  0  0  0  0  0  0  0  0  0  0  0
   12.6414  -14.5630   17.7153 C   0  0  0  0  0  0  0  0  0  0  0  0
   11.4885  -15.2748   18.3592 C   0  0  0  0  0  0  0  0  0  0  0  0
   10.1578  -14.6045   18.1605 C   0  0  2  0  0  0  0  0  0  0  0  0
   10.3738  -13.1477   18.1568 N   0  0  0  0  0  0  0  0  0  0  0  0
    9.1427  -14.9741   19.1574 C   0  0  0  0  0  0  0  0  0  0  0  0
    8.6964  -16.1437   19.2104 O   0  0  0  0  0  0  0  0  0  0  0  0
    8.6373  -14.0009   20.0966 N   0  0  0  0  0  0  0  0  0  0  0  0
    7.5594  -14.4081   20.9377 C   0  0  0  0  0  0  0  0  0  0  0  0
    7.9918  -15.3021   22.0410 C   0  0  0  0  0  0  0  0  0  0  0  0
    7.1087  -15.6670   22.8470 O   0  0  0  0  0  0  0  0  0  0  0  0
    9.3147  -15.7402   22.2090 N   0  0  0  0  0  0  0  0  0  0  0  0
    9.8302  -16.5345   23.2972 C   0  0  1  0  0  0  0  0  0  0  0  0
   11.1390  -17.1619   23.0054 C   0  0  0  0  0  0  0  0  0  0  0  0
   11.0771  -18.0907   21.8589 C   0  0  0  0  0  0  0  0  0  0  0  0
    9.8848  -18.5807   21.3326 C   0  0  0  0  0  0  0  0  0  0  0  0
   10.1867  -19.3889   20.3111 N   0  0  0  0  0  0  0  0  0  0  0  0
   11.5232  -19.4273   20.1732 C   0  0  0  0  0  0  0  0  0  0  0  0
   12.0461  -18.6362   21.1178 N   0  0  0  0  0  0  0  0  0  0  0  0
    9.7128  -15.8765   24.6235 C   0  0  0  0  0  0  0  0  0  0  0  0
    9.3508  -14.5480   24.7181 O   0  0  0  0  0  0  0  0  0  0  0  0
    9.9296  -16.4861   25.7015 O   0  0  0  0  0  0  0  0  0  0  0  0
  2  4  1  0
  2  1  1  0
  3  2  2  0
  5  6  1  0
  5  4  1  0
  6  7  1  1
  6  8  1  0
  8  9  2  0
  8 10  1  0
 10 11  1  0
 12 11  1  0
 12 14  1  0
 13 12  2  0
 15 14  1  0
 15 16  1  6
 15 22  1  0
 16 17  1  0
 17 18  2  0
 17 21  1  0
 18 19  1  0
 19 20  1  0
 21 20  2  0
 22 23  1  0
 24 22  2  0
M  END
$$$$
