QGH.pdb
     RDKit          3D

 24 24  0  0  1  0  0  0  0  0999 V2000
    6.8976  -18.4344   14.7688 N   0  0  0  0  0  0  0  0  0  0  0  0
    8.0626  -18.4779   15.6185 C   0  0  0  0  0  0  0  0  0  0  0  0
    9.0387  -17.8029   15.2813 O   0  0  0  0  0  0  0  0  0  0  0  0
    8.0714  -19.3064   16.8436 C   0  0  0  0  0  0  0  0  0  0  0  0
    7.4605  -18.6057   18.0210 C   0  0  0  0  0  0  0  0  0  0  0  0
    8.3078  -17.5047   18.5947 C   0  0  2  0  0  0  0  0  0  0  0  0
    9.5777  -18.0937   19.0520 N   0  0  0  0  0  0  0  0  0  0  0  0
    7.6644  -16.7545   19.6827 C   0  0  0  0  0  0  0  0  0  0  0  0
    6.5468  -16.2144   19.5118 O   0  0  0  0  0  0  0  0  0  0  0  0
    8.3032  -16.6224   20.9708 N   0  0  0  0  0  0  0  0  0  0  0  0
    7.5518  -15.9935   22.0076 C   0  0  0  0  0  0  0  0  0  0  0  0
    8.3101  -15.8676   23.2775 C   0  0  0  0  0  0  0  0  0  0  0  0
    9.5009  -16.2476   23.2606 O   0  0  0  0  0  0  0  0  0  0  0  0
    7.7578  -15.3536   24.4611 N   0  0  0  0  0  0  0  0  0  0  0  0
    8.4342  -15.1711   25.7221 C   0  0  1  0  0  0  0  0  0  0  0  0
    7.6187  -14.4645   26.7356 C   0  0  0  0  0  0  0  0  0  0  0  0
    7.0459  -13.2042   26.2213 C   0  0  0  0  0  0  0  0  0  0  0  0
    5.8327  -12.6789   26.6581 C   0  0  0  0  0  0  0  0  0  0  0  0
    5.6137  -11.5396   25.9933 N   0  0  0  0  0  0  0  0  0  0  0  0
    6.6421  -11.3265   25.1544 C   0  0  0  0  0  0  0  0  0  0  0  0
    7.4994  -12.3433   25.3054 N   0  0  0  0  0  0  0  0  0  0  0  0
    9.1441  -16.3854   26.1990 C   0  0  0  0  0  0  0  0  0  0  0  0
   10.3671  -16.2808   26.8301 O   0  0  0  0  0  0  0  0  0  0  0  0
    8.6733  -17.5425   26.0569 O   0  0  0  0  0  0  0  0  0  0  0  0
  2  4  1  0
  2  1  1  0
  3  2  2  0
  5  6  1  0
  5  4  1  0
  6  7  1  1
  6  8  1  0
  8  9  2  0
  8 10  1  0
 10 11  1  0
 12 11  1  0
 12 14  1  0
 13 12  2  0
 15 14  1  0
 15 16  1  1
 15 22  1  0
 16 17  1  0
 17 18  2  0
 17 21  1  0
 18 19  1  0
 19 20  1  0
 21 20  2  0
 22 23  1  0
 24 22  2  0
M  END
$$$$
