QGH.pdb
     RDKit          3D

 24 24  0  0  1  0  0  0  0  0999 V2000
   11.3148  -17.2309   12.4982 N   0  0  0  0  0  0  0  0  0  0  0  0
    9.8746  -17.2215   12.4172 C   0  0  0  0  0  0  0  0  0  0  0  0
    9.3433  -18.0113   11.6324 O   0  0  0  0  0  0  0  0  0  0  0  0
    9.0790  -16.2930   13.2493 C   0  0  0  0  0  0  0  0  0  0  0  0
    9.9328  -15.4162   14.1168 C   0  0  0  0  0  0  0  0  0  0  0  0
   10.2989  -16.0242   15.4419 C   0  0  2  0  0  0  0  0  0  0  0  0
    9.0770  -16.5854   16.0426 N   0  0  0  0  0  0  0  0  0  0  0  0
   10.9512  -15.0918   16.3724 C   0  0  0  0  0  0  0  0  0  0  0  0
   10.3368  -14.0905   16.8082 O   0  0  0  0  0  0  0  0  0  0  0  0
   12.3117  -15.3069   16.8052 N   0  0  0  0  0  0  0  0  0  0  0  0
   12.8889  -14.3149   17.6525 C   0  0  0  0  0  0  0  0  0  0  0  0
   12.4465  -14.4310   19.0647 C   0  0  0  0  0  0  0  0  0  0  0  0
   13.0312  -13.7053   19.8978 O   0  0  0  0  0  0  0  0  0  0  0  0
   11.4273  -15.2985   19.4877 N   0  0  0  0  0  0  0  0  0  0  0  0
   11.0359  -15.5729   20.8487 C   0  0  1  0  0  0  0  0  0  0  0  0
    9.5714  -15.5399   21.0627 C   0  0  0  0  0  0  0  0  0  0  0  0
    8.9822  -14.2258   20.7362 C   0  0  0  0  0  0  0  0  0  0  0  0
    9.7392  -13.1153   20.3719 C   0  0  0  0  0  0  0  0  0  0  0  0
    8.8991  -12.0997   20.1469 N   0  0  0  0  0  0  0  0  0  0  0  0
    7.6419  -12.5271   20.3552 C   0  0  0  0  0  0  0  0  0  0  0  0
    7.7107  -13.8156   20.7111 N   0  0  0  0  0  0  0  0  0  0  0  0
   11.7493  -16.7270   21.4531 C   0  0  0  0  0  0  0  0  0  0  0  0
   11.7173  -16.9355   22.8170 O   0  0  0  0  0  0  0  0  0  0  0  0
   12.4001  -17.5541   20.7653 O   0  0  0  0  0  0  0  0  0  0  0  0
  2  4  1  0
  2  1  1  0
  3  2  2  0
  5  6  1  0
  5  4  1  0
  6  7  1  1
  6  8  1  0
  8  9  2  0
  8 10  1  0
 10 11  1  0
 12 11  1  0
 12 14  1  0
 13 12  2  0
 15 14  1  0
 15 16  1  6
 15 22  1  0
 16 17  1  0
 17 18  2  0
 17 21  1  0
 18 19  1  0
 19 20  1  0
 21 20  2  0
 22 23  1  0
 24 22  2  0
M  END
$$$$
