QGH.pdb
     RDKit          3D

 24 24  0  0  1  0  0  0  0  0999 V2000
    8.0357  -12.4790   17.7839 N   0  0  0  0  0  0  0  0  0  0  0  0
    8.2478  -13.6893   17.0282 C   0  0  0  0  0  0  0  0  0  0  0  0
    7.2491  -14.2905   16.6240 O   0  0  0  0  0  0  0  0  0  0  0  0
    9.6169  -14.1788   16.7577 C   0  0  0  0  0  0  0  0  0  0  0  0
   10.5231  -14.0514   17.9464 C   0  0  0  0  0  0  0  0  0  0  0  0
   11.7449  -14.9251   17.8902 C   0  0  2  0  0  0  0  0  0  0  0  0
   11.3088  -16.3081   17.6338 N   0  0  0  0  0  0  0  0  0  0  0  0
   12.5854  -14.8629   19.0946 C   0  0  0  0  0  0  0  0  0  0  0  0
   13.1288  -13.7876   19.4389 O   0  0  0  0  0  0  0  0  0  0  0  0
   12.8041  -16.0361   19.9073 N   0  0  0  0  0  0  0  0  0  0  0  0
   13.5893  -15.8725   21.0870 C   0  0  0  0  0  0  0  0  0  0  0  0
   12.7836  -15.9358   22.3321 C   0  0  0  0  0  0  0  0  0  0  0  0
   13.4055  -15.8177   23.4101 O   0  0  0  0  0  0  0  0  0  0  0  0
   11.3919  -16.1177   22.3451 N   0  0  0  0  0  0  0  0  0  0  0  0
   10.5780  -16.4763   23.4809 C   0  0  1  0  0  0  0  0  0  0  0  0
    9.1729  -16.7835   23.1301 C   0  0  0  0  0  0  0  0  0  0  0  0
    8.5863  -15.7811   22.2180 C   0  0  0  0  0  0  0  0  0  0  0  0
    9.1870  -14.5572   21.9353 C   0  0  0  0  0  0  0  0  0  0  0  0
    8.3974  -13.8982   21.0809 N   0  0  0  0  0  0  0  0  0  0  0  0
    7.3221  -14.6594   20.8141 C   0  0  0  0  0  0  0  0  0  0  0  0
    7.4528  -15.7950   21.5104 N   0  0  0  0  0  0  0  0  0  0  0  0
   11.2349  -17.4342   24.4065 C   0  0  0  0  0  0  0  0  0  0  0  0
   11.7952  -18.6010   23.9272 O   0  0  0  0  0  0  0  0  0  0  0  0
   11.3138  -17.2309   25.6447 O   0  0  0  0  0  0  0  0  0  0  0  0
  2  4  1  0
  2  1  1  0
  3  2  2  0
  5  6  1  0
  5  4  1  0
  6  7  1  1
  6  8  1  0
  8  9  2  0
  8 10  1  0
 10 11  1  0
 12 11  1  0
 12 14  1  0
 13 12  2  0
 15 14  1  0
 15 16  1  6
 15 22  1  0
 16 17  1  0
 17 18  2  0
 17 21  1  0
 18 19  1  0
 19 20  1  0
 21 20  2  0
 22 23  1  0
 24 22  2  0
M  END
$$$$
