WRG.pdb
     RDKit          3D

 30 31  0  0  1  0  0  0  0  0999 V2000
    6.7075  -17.3330   25.8895 N   0  0  0  0  0  0  0  0  0  0  0  0
    7.3857  -16.3362   25.1292 C   0  0  1  0  0  0  0  0  0  0  0  0
    8.5232  -15.6938   25.8494 C   0  0  0  0  0  0  0  0  0  0  0  0
    8.1447  -14.6555   26.8210 C   0  0  0  0  0  0  0  0  0  0  0  0
    8.3916  -14.6967   28.1750 C   0  0  0  0  0  0  0  0  0  0  0  0
    7.9180  -13.5749   28.7132 N   0  0  0  0  0  0  0  0  0  0  0  0
    7.3698  -12.7928   27.7849 C   0  0  0  0  0  0  0  0  0  0  0  0
    6.7565  -11.5610   27.8471 C   0  0  0  0  0  0  0  0  0  0  0  0
    6.2550  -10.9507   26.7169 C   0  0  0  0  0  0  0  0  0  0  0  0
    6.3874  -11.6153   25.5186 C   0  0  0  0  0  0  0  0  0  0  0  0
    6.9996  -12.8430   25.4611 C   0  0  0  0  0  0  0  0  0  0  0  0
    7.5051  -13.4666   26.5713 C   0  0  0  0  0  0  0  0  0  0  0  0
    7.9565  -16.9118   23.8620 C   0  0  0  0  0  0  0  0  0  0  0  0
    7.9797  -18.1458   23.7298 O   0  0  0  0  0  0  0  0  0  0  0  0
    8.5610  -13.9802   16.7501 N   0  0  0  0  0  0  0  0  0  0  0  0
    8.4207  -13.2248   17.9467 C   0  0  0  0  0  0  0  0  0  0  0  0
    8.9855  -12.0578   17.9927 N   0  0  0  0  0  0  0  0  0  0  0  0
    7.6924  -13.7205   19.0537 N   0  0  0  0  0  0  0  0  0  0  0  0
    7.0190  -14.9687   18.9417 C   0  0  0  0  0  0  0  0  0  0  0  0
    7.2609  -15.8812   20.1262 C   0  0  0  0  0  0  0  0  0  0  0  0
    8.7366  -15.8091   20.4357 C   0  0  0  0  0  0  0  0  0  0  0  0
    9.1177  -16.6457   21.6316 C   0  0  2  0  0  0  0  0  0  0  0  0
    8.4663  -16.0977   22.8191 N   0  0  0  0  0  0  0  0  0  0  0  0
   10.5828  -16.4969   21.8350 C   0  0  0  0  0  0  0  0  0  0  0  0
   11.0901  -15.4613   22.3872 O   0  0  0  0  0  0  0  0  0  0  0  0
    8.8884  -11.4340   18.8379 N   0  0  0  0  0  0  0  0  0  0  0  0
   11.5240  -17.4867   21.4344 C   0  0  0  0  0  0  0  0  0  0  0  0
   12.9612  -17.3155   21.6910 C   0  0  0  0  0  0  0  0  0  0  0  0
   13.6248  -16.8385   20.4731 O   0  0  0  0  0  0  0  0  0  0  0  0
   12.9605  -16.6329   19.4312 O   0  0  0  0  0  0  0  0  0  0  0  0
  2  1  1  1
  2  3  1  0
  3  4  1  0
  4  5  2  0
  5  6  1  0
  7  8  2  0
  7  6  1  0
  9  8  1  0
 10  9  2  0
 11 10  1  0
 11 12  2  0
 12  4  1  0
 12  7  1  0
 13  2  1  0
 14 13  2  0
 16 15  1  0
 16 18  1  0
 17 16  2  0
 19 18  1  0
 20 21  1  0
 20 19  1  0
 22 23  1  0
 22 21  1  6
 23 13  1  0
 24 22  1  0
 25 24  2  0
 26 24  1  0
 27 26  1  0
 28 27  1  0
 28 30  1  0
 29 28  2  0
M  END
$$$$
