WRG.pdb
     RDKit          3D

 30 31  0  0  1  0  0  0  0  0999 V2000
    7.4430  -17.3609   26.4526 N   0  0  0  0  0  0  0  0  0  0  0  0
    7.7367  -16.5490   25.3184 C   0  0  1  0  0  0  0  0  0  0  0  0
    8.7489  -15.4851   25.5802 C   0  0  0  0  0  0  0  0  0  0  0  0
    8.3657  -14.4901   26.5943 C   0  0  0  0  0  0  0  0  0  0  0  0
    8.7317  -14.5166   27.9215 C   0  0  0  0  0  0  0  0  0  0  0  0
    8.2092  -13.4446   28.5132 N   0  0  0  0  0  0  0  0  0  0  0  0
    7.5155  -12.7094   27.6458 C   0  0  0  0  0  0  0  0  0  0  0  0
    6.8033  -11.5377   27.7768 C   0  0  0  0  0  0  0  0  0  0  0  0
    6.1536  -10.9684   26.7020 C   0  0  0  0  0  0  0  0  0  0  0  0
    6.2400  -11.6118   25.4881 C   0  0  0  0  0  0  0  0  0  0  0  0
    6.9511  -12.7795   25.3619 C   0  0  0  0  0  0  0  0  0  0  0  0
    7.6041  -13.3617   26.4162 C   0  0  0  0  0  0  0  0  0  0  0  0
    8.2733  -17.3749   24.1814 C   0  0  0  0  0  0  0  0  0  0  0  0
    8.9037  -18.4105   24.4474 O   0  0  0  0  0  0  0  0  0  0  0  0
    9.8370  -13.9026   18.7449 N   0  0  0  0  0  0  0  0  0  0  0  0
    8.5668  -13.3233   18.4743 C   0  0  0  0  0  0  0  0  0  0  0  0
    8.5436  -12.1191   17.9924 N   0  0  0  0  0  0  0  0  0  0  0  0
    7.3647  -14.0282   18.7187 N   0  0  0  0  0  0  0  0  0  0  0  0
    7.4183  -15.4245   18.9863 C   0  0  0  0  0  0  0  0  0  0  0  0
    8.1310  -15.7527   20.2819 C   0  0  0  0  0  0  0  0  0  0  0  0
    8.1110  -17.2558   20.4199 C   0  0  0  0  0  0  0  0  0  0  0  0
    8.7206  -17.7250   21.7174 C   0  0  2  0  0  0  0  0  0  0  0  0
    8.0848  -17.0130   22.8235 N   0  0  0  0  0  0  0  0  0  0  0  0
   10.1522  -17.3242   21.7116 C   0  0  0  0  0  0  0  0  0  0  0  0
   10.5269  -16.1393   22.0120 O   0  0  0  0  0  0  0  0  0  0  0  0
    7.6338  -11.6370   17.7629 N   0  0  0  0  0  0  0  0  0  0  0  0
   11.2052  -18.2205   21.3745 C   0  0  0  0  0  0  0  0  0  0  0  0
   12.6082  -17.7823   21.3871 C   0  0  0  0  0  0  0  0  0  0  0  0
   13.2012  -17.9927   20.0622 O   0  0  0  0  0  0  0  0  0  0  0  0
   12.5141  -18.4749   19.1323 O   0  0  0  0  0  0  0  0  0  0  0  0
  2  1  1  1
  2  3  1  0
  3  4  1  0
  4  5  2  0
  5  6  1  0
  7  8  2  0
  7  6  1  0
  9  8  1  0
 10  9  2  0
 11 10  1  0
 11 12  2  0
 12  4  1  0
 12  7  1  0
 13  2  1  0
 14 13  2  0
 16 15  1  0
 16 18  1  0
 17 16  2  0
 19 18  1  0
 20 21  1  0
 20 19  1  0
 22 23  1  0
 22 21  1  6
 23 13  1  0
 24 22  1  0
 25 24  2  0
 26 24  1  0
 27 26  1  0
 28 27  1  0
 28 30  1  0
 29 28  2  0
M  END
$$$$
