WRG.pdb
     RDKit          3D

 30 31  0  0  1  0  0  0  0  0999 V2000
    6.5757  -18.5093   24.6829 N   0  0  0  0  0  0  0  0  0  0  0  0
    6.7282  -17.1085   24.4683 C   0  0  1  0  0  0  0  0  0  0  0  0
    7.3687  -16.3870   25.6060 C   0  0  0  0  0  0  0  0  0  0  0  0
    6.6825  -15.1584   26.0361 C   0  0  0  0  0  0  0  0  0  0  0  0
    5.3377  -15.0454   26.3099 C   0  0  0  0  0  0  0  0  0  0  0  0
    5.0987  -13.7903   26.6837 N   0  0  0  0  0  0  0  0  0  0  0  0
    6.2163  -13.0659   26.6712 C   0  0  0  0  0  0  0  0  0  0  0  0
    6.4752  -11.7458   26.9671 C   0  0  0  0  0  0  0  0  0  0  0  0
    7.7476  -11.2238   26.8679 C   0  0  0  0  0  0  0  0  0  0  0  0
    8.7558  -12.0685   26.4615 C   0  0  0  0  0  0  0  0  0  0  0  0
    8.4934  -13.3838   26.1676 C   0  0  0  0  0  0  0  0  0  0  0  0
    7.2372  -13.9227   26.2601 C   0  0  0  0  0  0  0  0  0  0  0  0
    7.5778  -16.8318   23.2581 C   0  0  0  0  0  0  0  0  0  0  0  0
    8.4957  -17.6217   22.9856 O   0  0  0  0  0  0  0  0  0  0  0  0
    7.7002  -15.6131   16.8076 N   0  0  0  0  0  0  0  0  0  0  0  0
    8.3917  -14.4600   16.3446 C   0  0  0  0  0  0  0  0  0  0  0  0
    8.9710  -14.5291   15.1859 N   0  0  0  0  0  0  0  0  0  0  0  0
    8.4511  -13.2741   17.1139 N   0  0  0  0  0  0  0  0  0  0  0  0
    7.7784  -13.2221   18.3664 C   0  0  0  0  0  0  0  0  0  0  0  0
    8.6464  -13.6692   19.5244 C   0  0  0  0  0  0  0  0  0  0  0  0
    7.7114  -14.1475   20.6087 C   0  0  0  0  0  0  0  0  0  0  0  0
    8.1520  -15.4562   21.2156 C   0  0  2  0  0  0  0  0  0  0  0  0
    7.3673  -15.7059   22.4225 N   0  0  0  0  0  0  0  0  0  0  0  0
    9.5665  -15.2982   21.6450 C   0  0  0  0  0  0  0  0  0  0  0  0
    9.8919  -14.6069   22.6700 O   0  0  0  0  0  0  0  0  0  0  0  0
    9.4709  -13.6976   14.7717 N   0  0  0  0  0  0  0  0  0  0  0  0
   10.6564  -15.8990   20.9542 C   0  0  0  0  0  0  0  0  0  0  0  0
   12.0402  -15.7167   21.4151 C   0  0  0  0  0  0  0  0  0  0  0  0
   12.9608  -16.3684   20.4775 O   0  0  0  0  0  0  0  0  0  0  0  0
   12.5281  -17.1874   19.6342 O   0  0  0  0  0  0  0  0  0  0  0  0
  2  1  1  1
  2  3  1  0
  3  4  1  0
  4  5  2  0
  5  6  1  0
  7  8  2  0
  7  6  1  0
  9  8  1  0
 10  9  2  0
 11 10  1  0
 11 12  2  0
 12  4  1  0
 12  7  1  0
 13  2  1  0
 14 13  2  0
 16 15  1  0
 16 18  1  0
 17 16  2  0
 19 18  1  0
 20 21  1  0
 20 19  1  0
 22 23  1  0
 22 21  1  1
 23 13  1  0
 24 22  1  0
 25 24  2  0
 26 24  1  0
 27 26  1  0
 28 27  1  0
 28 30  1  0
 29 28  2  0
M  END
$$$$
