WRG.pdb
     RDKit          3D

 30 31  0  0  1  0  0  0  0  0999 V2000
    6.8943  -17.5567   25.6891 N   0  0  0  0  0  0  0  0  0  0  0  0
    7.2776  -16.3523   25.0301 C   0  0  1  0  0  0  0  0  0  0  0  0
    8.4603  -15.6777   25.6397 C   0  0  0  0  0  0  0  0  0  0  0  0
    8.1469  -14.6347   26.6293 C   0  0  0  0  0  0  0  0  0  0  0  0
    8.4667  -14.6780   27.9679 C   0  0  0  0  0  0  0  0  0  0  0  0
    8.0357  -13.5506   28.5298 N   0  0  0  0  0  0  0  0  0  0  0  0
    7.4465  -12.7630   27.6319 C   0  0  0  0  0  0  0  0  0  0  0  0
    6.8513  -11.5243   27.7260 C   0  0  0  0  0  0  0  0  0  0  0  0
    6.2958  -10.9090   26.6241 C   0  0  0  0  0  0  0  0  0  0  0  0
    6.3553  -11.5756   25.4212 C   0  0  0  0  0  0  0  0  0  0  0  0
    6.9497  -12.8101   25.3318 C   0  0  0  0  0  0  0  0  0  0  0  0
    7.5079  -13.4388   26.4134 C   0  0  0  0  0  0  0  0  0  0  0  0
    7.6300  -16.6073   23.5901 C   0  0  0  0  0  0  0  0  0  0  0  0
    8.0310  -17.7374   23.2696 O   0  0  0  0  0  0  0  0  0  0  0  0
    7.7334  -15.5210   16.6182 N   0  0  0  0  0  0  0  0  0  0  0  0
    8.2189  -14.2409   16.2339 C   0  0  0  0  0  0  0  0  0  0  0  0
    8.7454  -14.1251   15.0539 N   0  0  0  0  0  0  0  0  0  0  0  0
    8.1350  -13.1264   17.1015 N   0  0  0  0  0  0  0  0  0  0  0  0
    7.5680  -13.2926   18.3957 C   0  0  0  0  0  0  0  0  0  0  0  0
    8.3320  -14.2781   19.2555 C   0  0  0  0  0  0  0  0  0  0  0  0
    7.3889  -14.7253   20.3460 C   0  0  0  0  0  0  0  0  0  0  0  0
    7.9848  -15.8006   21.2201 C   0  0  2  0  0  0  0  0  0  0  0  0
    7.5203  -15.6066   22.5917 N   0  0  0  0  0  0  0  0  0  0  0  0
    9.4584  -15.6047   21.2311 C   0  0  0  0  0  0  0  0  0  0  0  0
   10.0083  -14.6221   21.8366 O   0  0  0  0  0  0  0  0  0  0  0  0
    9.1253  -13.2028   14.7104 N   0  0  0  0  0  0  0  0  0  0  0  0
   10.3612  -16.4879   20.5748 C   0  0  0  0  0  0  0  0  0  0  0  0
   11.7899  -16.1630   20.4566 C   0  0  0  0  0  0  0  0  0  0  0  0
   12.4990  -17.2835   19.8299 O   0  0  0  0  0  0  0  0  0  0  0  0
   11.8730  -18.3107   19.4805 O   0  0  0  0  0  0  0  0  0  0  0  0
  2  1  1  1
  2  3  1  0
  3  4  1  0
  4  5  2  0
  5  6  1  0
  7  8  2  0
  7  6  1  0
  9  8  1  0
 10  9  2  0
 11 10  1  0
 11 12  2  0
 12  4  1  0
 12  7  1  0
 13  2  1  0
 14 13  2  0
 16 15  1  0
 16 18  1  0
 17 16  2  0
 19 18  1  0
 20 21  1  0
 20 19  1  0
 22 23  1  0
 22 21  1  6
 23 13  1  0
 24 22  1  0
 25 24  2  0
 26 24  1  0
 27 26  1  0
 28 27  1  0
 28 30  1  0
 29 28  2  0
M  END
$$$$
