WRG.pdb
     RDKit          3D

 30 31  0  0  1  0  0  0  0  0999 V2000
    8.7708  -16.7759   25.1441 N   0  0  0  0  0  0  0  0  0  0  0  0
    7.4188  -16.8151   24.6941 C   0  0  1  0  0  0  0  0  0  0  0  0
    6.4992  -15.9238   25.4591 C   0  0  0  0  0  0  0  0  0  0  0  0
    7.1603  -14.9341   26.3245 C   0  0  0  0  0  0  0  0  0  0  0  0
    8.2001  -15.1932   27.1892 C   0  0  0  0  0  0  0  0  0  0  0  0
    8.5372  -14.0491   27.7806 N   0  0  0  0  0  0  0  0  0  0  0  0
    7.7737  -13.0455   27.3521 C   0  0  0  0  0  0  0  0  0  0  0  0
    7.7354  -11.7042   27.6635 C   0  0  0  0  0  0  0  0  0  0  0  0
    6.8246  -10.8552   27.0711 C   0  0  0  0  0  0  0  0  0  0  0  0
    5.9505  -11.3937   26.1540 C   0  0  0  0  0  0  0  0  0  0  0  0
    5.9922  -12.7312   25.8464 C   0  0  0  0  0  0  0  0  0  0  0  0
    6.8890  -13.5918   26.4226 C   0  0  0  0  0  0  0  0  0  0  0  0
    7.3120  -16.3984   23.2526 C   0  0  0  0  0  0  0  0  0  0  0  0
    6.2058  -16.4739   22.6946 O   0  0  0  0  0  0  0  0  0  0  0  0
    8.8104  -14.8072   15.3848 N   0  0  0  0  0  0  0  0  0  0  0  0
    8.1502  -13.9799   16.3344 C   0  0  0  0  0  0  0  0  0  0  0  0
    8.3980  -12.7069   16.3004 N   0  0  0  0  0  0  0  0  0  0  0  0
    7.2528  -14.5173   17.2870 N   0  0  0  0  0  0  0  0  0  0  0  0
    7.2074  -13.9577   18.5942 C   0  0  0  0  0  0  0  0  0  0  0  0
    8.5503  -13.9781   19.2947 C   0  0  0  0  0  0  0  0  0  0  0  0
    8.2776  -14.2825   20.7478 C   0  0  0  0  0  0  0  0  0  0  0  0
    8.3988  -15.7527   21.0628 C   0  0  2  0  0  0  0  0  0  0  0  0
    8.4254  -15.9251   22.5134 N   0  0  0  0  0  0  0  0  0  0  0  0
    9.7149  -16.2148   20.5485 C   0  0  0  0  0  0  0  0  0  0  0  0
   10.7954  -16.0641   21.2151 O   0  0  0  0  0  0  0  0  0  0  0  0
    8.0436  -12.0584   17.0533 N   0  0  0  0  0  0  0  0  0  0  0  0
    9.8711  -16.8546   19.2866 C   0  0  0  0  0  0  0  0  0  0  0  0
   11.1897  -17.3126   18.8259 C   0  0  0  0  0  0  0  0  0  0  0  0
   11.0851  -17.8071   17.4490 O   0  0  0  0  0  0  0  0  0  0  0  0
    9.9658  -18.0900   16.9630 O   0  0  0  0  0  0  0  0  0  0  0  0
  2  1  1  1
  2  3  1  0
  3  4  1  0
  4  5  2  0
  5  6  1  0
  7  8  2  0
  7  6  1  0
  9  8  1  0
 10  9  2  0
 11 10  1  0
 11 12  2  0
 12  4  1  0
 12  7  1  0
 13  2  1  0
 14 13  2  0
 16 15  1  0
 16 18  1  0
 17 16  2  0
 19 18  1  0
 20 21  1  0
 20 19  1  0
 22 23  1  0
 22 21  1  1
 23 13  1  0
 24 22  1  0
 25 24  2  0
 26 24  1  0
 27 26  1  0
 28 27  1  0
 28 30  1  0
 29 28  2  0
M  END
$$$$
