WRG.pdb
     RDKit          3D

 30 31  0  0  1  0  0  0  0  0999 V2000
    6.3013  -17.3079   24.8371 N   0  0  0  0  0  0  0  0  0  0  0  0
    7.1636  -16.2323   24.4747 C   0  0  1  0  0  0  0  0  0  0  0  0
    8.2554  -15.9731   25.4576 C   0  0  0  0  0  0  0  0  0  0  0  0
    7.9357  -14.9916   26.5063 C   0  0  0  0  0  0  0  0  0  0  0  0
    7.9527  -15.2329   27.8619 C   0  0  0  0  0  0  0  0  0  0  0  0
    7.6256  -14.1025   28.4845 N   0  0  0  0  0  0  0  0  0  0  0  0
    7.3924  -13.1248   27.6106 C   0  0  0  0  0  0  0  0  0  0  0  0
    7.0265  -11.8056   27.7630 C   0  0  0  0  0  0  0  0  0  0  0  0
    6.8373  -10.9825   26.6730 C   0  0  0  0  0  0  0  0  0  0  0  0
    7.0267  -11.5240   25.4217 C   0  0  0  0  0  0  0  0  0  0  0  0
    7.3916  -12.8394   25.2743 C   0  0  0  0  0  0  0  0  0  0  0  0
    7.5853  -13.6742   26.3432 C   0  0  0  0  0  0  0  0  0  0  0  0
    7.8347  -16.4931   23.1539 C   0  0  0  0  0  0  0  0  0  0  0  0
    7.8872  -17.6608   22.7365 O   0  0  0  0  0  0  0  0  0  0  0  0
    8.0289  -14.2028   14.9226 N   0  0  0  0  0  0  0  0  0  0  0  0
    7.5493  -14.0491   16.2525 C   0  0  0  0  0  0  0  0  0  0  0  0
    7.1343  -12.8737   16.6117 N   0  0  0  0  0  0  0  0  0  0  0  0
    7.5216  -15.1347   17.1594 N   0  0  0  0  0  0  0  0  0  0  0  0
    8.4891  -15.1970   18.2006 C   0  0  0  0  0  0  0  0  0  0  0  0
    8.1512  -14.3058   19.3778 C   0  0  0  0  0  0  0  0  0  0  0  0
    9.2851  -14.4416   20.3650 C   0  0  0  0  0  0  0  0  0  0  0  0
    9.1986  -15.7124   21.1730 C   0  0  2  0  0  0  0  0  0  0  0  0
    8.4062  -15.4564   22.3736 N   0  0  0  0  0  0  0  0  0  0  0  0
   10.5734  -16.0504   21.6265 C   0  0  0  0  0  0  0  0  0  0  0  0
   11.0498  -15.6174   22.7312 O   0  0  0  0  0  0  0  0  0  0  0  0
    6.8871  -12.6617   17.6151 N   0  0  0  0  0  0  0  0  0  0  0  0
   11.4561  -16.8742   20.8728 C   0  0  0  0  0  0  0  0  0  0  0  0
   12.7652  -17.2734   21.4089 C   0  0  0  0  0  0  0  0  0  0  0  0
   13.4768  -18.0848   20.4157 O   0  0  0  0  0  0  0  0  0  0  0  0
   12.8392  -18.7090   19.5365 O   0  0  0  0  0  0  0  0  0  0  0  0
  2  1  1  1
  2  3  1  0
  3  4  1  0
  4  5  2  0
  5  6  1  0
  7  8  2  0
  7  6  1  0
  9  8  1  0
 10  9  2  0
 11 10  1  0
 11 12  2  0
 12  4  1  0
 12  7  1  0
 13  2  1  0
 14 13  2  0
 16 15  1  0
 16 18  1  0
 17 16  2  0
 19 18  1  0
 20 21  1  0
 20 19  1  0
 22 23  1  0
 22 21  1  6
 23 13  1  0
 24 22  1  0
 25 24  2  0
 26 24  1  0
 27 26  1  0
 28 27  1  0
 28 30  1  0
 29 28  2  0
M  END
$$$$
