WRG.pdb
     RDKit          3D

 30 31  0  0  1  0  0  0  0  0999 V2000
    9.7936  -16.5732   25.7170 N   0  0  0  0  0  0  0  0  0  0  0  0
    8.6481  -17.3302   25.3344 C   0  0  1  0  0  0  0  0  0  0  0  0
    7.4185  -17.0052   26.1140 C   0  0  0  0  0  0  0  0  0  0  0  0
    7.1505  -15.5696   26.2936 C   0  0  0  0  0  0  0  0  0  0  0  0
    6.0145  -14.9088   25.8825 C   0  0  0  0  0  0  0  0  0  0  0  0
    6.1319  -13.6308   26.2364 N   0  0  0  0  0  0  0  0  0  0  0  0
    7.2877  -13.4111   26.8606 C   0  0  0  0  0  0  0  0  0  0  0  0
    7.8557  -12.2778   27.3997 C   0  0  0  0  0  0  0  0  0  0  0  0
    9.0960  -12.3128   28.0011 C   0  0  0  0  0  0  0  0  0  0  0  0
    9.7517  -13.5223   28.0456 C   0  0  0  0  0  0  0  0  0  0  0  0
    9.1819  -14.6496   27.5072 C   0  0  0  0  0  0  0  0  0  0  0  0
    7.9510  -14.6372   26.9059 C   0  0  0  0  0  0  0  0  0  0  0  0
    8.3048  -17.1053   23.8871 C   0  0  0  0  0  0  0  0  0  0  0  0
    7.3746  -17.7599   23.3903 O   0  0  0  0  0  0  0  0  0  0  0  0
    8.3000  -12.3850   17.5620 N   0  0  0  0  0  0  0  0  0  0  0  0
    7.9472  -13.6941   17.1332 C   0  0  0  0  0  0  0  0  0  0  0  0
    8.4410  -14.1140   16.0094 N   0  0  0  0  0  0  0  0  0  0  0  0
    7.0883  -14.5174   17.8988 N   0  0  0  0  0  0  0  0  0  0  0  0
    7.2419  -14.5595   19.3125 C   0  0  0  0  0  0  0  0  0  0  0  0
    8.6825  -14.4127   19.7569 C   0  0  0  0  0  0  0  0  0  0  0  0
    8.6991  -14.6207   21.2520 C   0  0  0  0  0  0  0  0  0  0  0  0
    8.8032  -16.0769   21.6316 C   0  0  2  0  0  0  0  0  0  0  0  0
    9.0034  -16.1761   23.0754 N   0  0  0  0  0  0  0  0  0  0  0  0
   10.0268  -16.6223   20.9871 C   0  0  0  0  0  0  0  0  0  0  0  0
   10.1883  -16.6125   19.7189 O   0  0  0  0  0  0  0  0  0  0  0  0
    8.2644  -15.0953   15.6647 N   0  0  0  0  0  0  0  0  0  0  0  0
   11.1021  -17.1917   21.7258 C   0  0  0  0  0  0  0  0  0  0  0  0
   12.3831  -16.4850   21.8683 C   0  0  0  0  0  0  0  0  0  0  0  0
   13.2312  -16.7648   20.7049 O   0  0  0  0  0  0  0  0  0  0  0  0
   14.4097  -16.3419   20.6663 O   0  0  0  0  0  0  0  0  0  0  0  0
  2  1  1  1
  2  3  1  0
  3  4  1  0
  4  5  2  0
  5  6  1  0
  7  8  2  0
  7  6  1  0
  9  8  1  0
 10  9  2  0
 11 10  1  0
 11 12  2  0
 12  4  1  0
 12  7  1  0
 13  2  1  0
 14 13  2  0
 16 15  1  0
 16 18  1  0
 17 16  2  0
 19 18  1  0
 20 21  1  0
 20 19  1  0
 22 23  1  0
 22 21  1  1
 23 13  1  0
 24 22  1  0
 25 24  2  0
 26 24  1  0
 27 26  1  0
 28 27  1  0
 28 30  1  0
 29 28  2  0
M  END
$$$$
