WRG.pdb
     RDKit          3D

 30 31  0  0  1  0  0  0  0  0999 V2000
    6.9326  -18.5563   24.7524 N   0  0  0  0  0  0  0  0  0  0  0  0
    7.1271  -17.1831   24.4236 C   0  0  1  0  0  0  0  0  0  0  0  0
    7.7026  -16.3695   25.5336 C   0  0  0  0  0  0  0  0  0  0  0  0
    6.8529  -15.2661   26.0088 C   0  0  0  0  0  0  0  0  0  0  0  0
    5.5153  -15.3619   26.3213 C   0  0  0  0  0  0  0  0  0  0  0  0
    5.1019  -14.1638   26.7287 N   0  0  0  0  0  0  0  0  0  0  0  0
    6.0971  -13.2791   26.7016 C   0  0  0  0  0  0  0  0  0  0  0  0
    6.1636  -11.9404   27.0191 C   0  0  0  0  0  0  0  0  0  0  0  0
    7.3396  -11.2310   26.8967 C   0  0  0  0  0  0  0  0  0  0  0  0
    8.4505  -11.9068   26.4448 C   0  0  0  0  0  0  0  0  0  0  0  0
    8.3799  -13.2413   26.1296 C   0  0  0  0  0  0  0  0  0  0  0  0
    7.2222  -13.9649   26.2444 C   0  0  0  0  0  0  0  0  0  0  0  0
    8.0628  -17.0296   23.2557 C   0  0  0  0  0  0  0  0  0  0  0  0
    8.8706  -17.9420   23.0199 O   0  0  0  0  0  0  0  0  0  0  0  0
    7.2747  -13.9295   14.9601 N   0  0  0  0  0  0  0  0  0  0  0  0
    8.0294  -13.8974   16.1649 C   0  0  0  0  0  0  0  0  0  0  0  0
    9.1895  -14.4778   16.1652 N   0  0  0  0  0  0  0  0  0  0  0  0
    7.5402  -13.2571   17.3278 N   0  0  0  0  0  0  0  0  0  0  0  0
    8.3005  -13.3185   18.5287 C   0  0  0  0  0  0  0  0  0  0  0  0
    7.8726  -14.4468   19.4441 C   0  0  0  0  0  0  0  0  0  0  0  0
    8.7404  -14.3594   20.6762 C   0  0  0  0  0  0  0  0  0  0  0  0
    8.9848  -15.7073   21.3075 C   0  0  2  0  0  0  0  0  0  0  0  0
    8.0537  -15.8846   22.4194 N   0  0  0  0  0  0  0  0  0  0  0  0
   10.3532  -15.6894   21.8884 C   0  0  0  0  0  0  0  0  0  0  0  0
   10.5988  -15.1726   23.0318 O   0  0  0  0  0  0  0  0  0  0  0  0
    9.8221  -14.4399   17.0087 N   0  0  0  0  0  0  0  0  0  0  0  0
   11.4836  -16.2412   21.2225 C   0  0  0  0  0  0  0  0  0  0  0  0
   12.8296  -16.1449   21.8053 C   0  0  0  0  0  0  0  0  0  0  0  0
   13.7853  -16.8658   20.9579 O   0  0  0  0  0  0  0  0  0  0  0  0
   13.3875  -17.4892   19.9468 O   0  0  0  0  0  0  0  0  0  0  0  0
  2  1  1  1
  2  3  1  0
  3  4  1  0
  4  5  2  0
  5  6  1  0
  7  8  2  0
  7  6  1  0
  9  8  1  0
 10  9  2  0
 11 10  1  0
 11 12  2  0
 12  4  1  0
 12  7  1  0
 13  2  1  0
 14 13  2  0
 16 15  1  0
 16 18  1  0
 17 16  2  0
 19 18  1  0
 20 21  1  0
 20 19  1  0
 22 23  1  0
 22 21  1  1
 23 13  1  0
 24 22  1  0
 25 24  2  0
 26 24  1  0
 27 26  1  0
 28 27  1  0
 28 30  1  0
 29 28  2  0
M  END
$$$$
