WRG.pdb
     RDKit          3D

 30 31  0  0  1  0  0  0  0  0999 V2000
    6.5210  -18.2984   24.4160 N   0  0  0  0  0  0  0  0  0  0  0  0
    7.1748  -17.0438   24.2422 C   0  0  1  0  0  0  0  0  0  0  0  0
    7.6318  -16.4167   25.5163 C   0  0  0  0  0  0  0  0  0  0  0  0
    6.8607  -15.2403   25.9486 C   0  0  0  0  0  0  0  0  0  0  0  0
    5.5208  -15.2326   26.2661 C   0  0  0  0  0  0  0  0  0  0  0  0
    5.1912  -13.9942   26.6265 N   0  0  0  0  0  0  0  0  0  0  0  0
    6.2441  -13.1810   26.5636 C   0  0  0  0  0  0  0  0  0  0  0  0
    6.4024  -11.8384   26.8281 C   0  0  0  0  0  0  0  0  0  0  0  0
    7.6234  -11.2159   26.6767 C   0  0  0  0  0  0  0  0  0  0  0  0
    8.6841  -11.9828   26.2505 C   0  0  0  0  0  0  0  0  0  0  0  0
    8.5220  -13.3208   25.9882 C   0  0  0  0  0  0  0  0  0  0  0  0
    7.3183  -13.9590   26.1325 C   0  0  0  0  0  0  0  0  0  0  0  0
    8.3962  -17.1812   23.3749 C   0  0  0  0  0  0  0  0  0  0  0  0
    9.0633  -18.2251   23.4523 O   0  0  0  0  0  0  0  0  0  0  0  0
    6.8668  -13.8568   16.1352 N   0  0  0  0  0  0  0  0  0  0  0  0
    7.5105  -13.8609   17.4032 C   0  0  0  0  0  0  0  0  0  0  0  0
    6.7630  -13.7638   18.4590 N   0  0  0  0  0  0  0  0  0  0  0  0
    8.9165  -13.9670   17.5191 N   0  0  0  0  0  0  0  0  0  0  0  0
    9.5163  -13.8960   18.8072 C   0  0  0  0  0  0  0  0  0  0  0  0
    9.3750  -15.1798   19.5985 C   0  0  0  0  0  0  0  0  0  0  0  0
   10.1801  -15.0015   20.8629 C   0  0  0  0  0  0  0  0  0  0  0  0
   10.0918  -16.1977   21.7776 C   0  0  2  0  0  0  0  0  0  0  0  0
    8.8093  -16.1648   22.4768 N   0  0  0  0  0  0  0  0  0  0  0  0
   11.1510  -16.0521   22.8105 C   0  0  0  0  0  0  0  0  0  0  0  0
   11.1149  -15.1295   23.6948 O   0  0  0  0  0  0  0  0  0  0  0  0
    7.1708  -13.8388   19.4291 N   0  0  0  0  0  0  0  0  0  0  0  0
   12.2755  -16.9207   22.8932 C   0  0  0  0  0  0  0  0  0  0  0  0
   13.6164  -16.3998   23.1956 C   0  0  0  0  0  0  0  0  0  0  0  0
   14.6269  -17.3931   22.8171 O   0  0  0  0  0  0  0  0  0  0  0  0
   14.7300  -17.7666   21.6258 O   0  0  0  0  0  0  0  0  0  0  0  0
  2  1  1  1
  2  3  1  0
  3  4  1  0
  4  5  2  0
  5  6  1  0
  7  8  2  0
  7  6  1  0
  9  8  1  0
 10  9  2  0
 11 10  1  0
 11 12  2  0
 12  4  1  0
 12  7  1  0
 13  2  1  0
 14 13  2  0
 16 15  1  0
 16 18  1  0
 17 16  2  0
 19 18  1  0
 20 21  1  0
 20 19  1  0
 22 23  1  0
 22 21  1  6
 23 13  1  0
 24 22  1  0
 25 24  2  0
 26 24  1  0
 27 26  1  0
 28 27  1  0
 28 30  1  0
 29 28  2  0
M  END
$$$$
