WRG.pdb
     RDKit          3D

 30 31  0  0  1  0  0  0  0  0999 V2000
    6.0783  -18.0696   24.5516 N   0  0  0  0  0  0  0  0  0  0  0  0
    6.7786  -16.8476   24.3320 C   0  0  1  0  0  0  0  0  0  0  0  0
    7.4273  -16.2923   25.5551 C   0  0  0  0  0  0  0  0  0  0  0  0
    6.7746  -15.1041   26.1272 C   0  0  0  0  0  0  0  0  0  0  0  0
    5.6217  -15.1074   26.8802 C   0  0  0  0  0  0  0  0  0  0  0  0
    5.3557  -13.8506   27.2297 N   0  0  0  0  0  0  0  0  0  0  0  0
    6.2733  -13.0149   26.7463 C   0  0  0  0  0  0  0  0  0  0  0  0
    6.4271  -11.6487   26.8313 C   0  0  0  0  0  0  0  0  0  0  0  0
    7.4848  -11.0060   26.2232 C   0  0  0  0  0  0  0  0  0  0  0  0
    8.3862  -11.7773   25.5250 C   0  0  0  0  0  0  0  0  0  0  0  0
    8.2292  -13.1389   25.4430 C   0  0  0  0  0  0  0  0  0  0  0  0
    7.1864  -13.7973   26.0398 C   0  0  0  0  0  0  0  0  0  0  0  0
    7.8719  -17.0215   23.3134 C   0  0  0  0  0  0  0  0  0  0  0  0
    8.4439  -18.1206   23.2402 O   0  0  0  0  0  0  0  0  0  0  0  0
    7.7144  -13.4888   16.0609 N   0  0  0  0  0  0  0  0  0  0  0  0
    8.5687  -13.7901   17.1571 C   0  0  0  0  0  0  0  0  0  0  0  0
    9.2883  -12.8264   17.6432 N   0  0  0  0  0  0  0  0  0  0  0  0
    8.6380  -15.0925   17.7052 N   0  0  0  0  0  0  0  0  0  0  0  0
    7.7201  -15.4687   18.7250 C   0  0  0  0  0  0  0  0  0  0  0  0
    7.9000  -14.6792   20.0051 C   0  0  0  0  0  0  0  0  0  0  0  0
    9.2966  -14.9671   20.5003 C   0  0  0  0  0  0  0  0  0  0  0  0
    9.3414  -16.1314   21.4582 C   0  0  2  0  0  0  0  0  0  0  0  0
    8.2693  -15.9786   22.4389 N   0  0  0  0  0  0  0  0  0  0  0  0
   10.6246  -16.0496   22.2045 C   0  0  0  0  0  0  0  0  0  0  0  0
   10.9103  -15.0564   22.9572 O   0  0  0  0  0  0  0  0  0  0  0  0
   10.0434  -13.0110   18.3564 N   0  0  0  0  0  0  0  0  0  0  0  0
   11.6237  -17.0612   22.1387 C   0  0  0  0  0  0  0  0  0  0  0  0
   12.9016  -16.9133   22.8498 C   0  0  0  0  0  0  0  0  0  0  0  0
   13.8699  -16.2315   21.9846 O   0  0  0  0  0  0  0  0  0  0  0  0
   13.5423  -15.8734   20.8298 O   0  0  0  0  0  0  0  0  0  0  0  0
  2  1  1  1
  2  3  1  0
  3  4  1  0
  4  5  2  0
  5  6  1  0
  7  8  2  0
  7  6  1  0
  9  8  1  0
 10  9  2  0
 11 10  1  0
 11 12  2  0
 12  4  1  0
 12  7  1  0
 13  2  1  0
 14 13  2  0
 16 15  1  0
 16 18  1  0
 17 16  2  0
 19 18  1  0
 20 21  1  0
 20 19  1  0
 22 23  1  0
 22 21  1  6
 23 13  1  0
 24 22  1  0
 25 24  2  0
 26 24  1  0
 27 26  1  0
 28 27  1  0
 28 30  1  0
 29 28  2  0
M  END
$$$$
