EIN.pdb
     RDKit          3D

 26 25  0  0  1  0  0  0  0  0999 V2000
   19.9759  -20.8213  -12.3468 N   0  0  0  0  0  0  0  0  0  0  0  0
   20.9580  -21.6502  -12.9586 C   0  0  1  0  0  0  0  0  0  0  0  0
   20.5963  -22.2719  -14.2487 C   0  0  0  0  0  0  0  0  0  0  0  0
   19.3978  -23.1500  -14.1513 C   0  0  0  0  0  0  0  0  0  0  0  0
   18.1137  -22.4653  -14.0880 C   0  0  0  0  0  0  0  0  0  0  0  0
   17.6980  -21.7113  -14.9733 O   0  0  0  0  0  0  0  0  0  0  0  0
   22.3174  -21.0357  -12.9606 C   0  0  0  0  0  0  0  0  0  0  0  0
   22.4702  -19.8313  -13.2812 O   0  0  0  0  0  0  0  0  0  0  0  0
   17.2469  -22.6267  -12.9818 O   0  0  0  0  0  0  0  0  0  0  0  0
   25.6621  -20.9939   -8.8565 C   0  0  0  0  0  0  0  0  0  0  0  0
   24.8841  -20.7152  -10.1529 C   0  0  0  0  0  0  0  0  0  0  0  0
   25.5648  -21.2041  -11.3649 C   0  0  2  0  0  0  0  0  0  0  0  0
   26.9022  -20.5081  -11.4974 C   0  0  0  0  0  0  0  0  0  0  0  0
   24.8125  -21.1500  -12.6479 C   0  0  2  0  0  0  0  0  0  0  0  0
   23.5114  -21.7355  -12.6133 N   0  0  0  0  0  0  0  0  0  0  0  0
   25.6155  -21.5016  -13.8519 C   0  0  0  0  0  0  0  0  0  0  0  0
   26.2165  -22.5894  -14.0247 O   0  0  0  0  0  0  0  0  0  0  0  0
   26.0332  -20.6599  -19.7404 N   0  0  0  0  0  0  0  0  0  0  0  0
   26.1254  -21.4073  -18.5395 C   0  0  0  0  0  0  0  0  0  0  0  0
   26.8936  -22.4190  -18.5376 O   0  0  0  0  0  0  0  0  0  0  0  0
   25.3712  -21.0612  -17.3091 C   0  0  0  0  0  0  0  0  0  0  0  0
   26.4023  -20.9066  -16.2024 C   0  0  2  0  0  0  0  0  0  0  0  0
   25.7606  -20.5885  -14.9361 N   0  0  0  0  0  0  0  0  0  0  0  0
   27.2590  -19.7563  -16.5485 C   0  0  0  0  0  0  0  0  0  0  0  0
   28.5255  -19.8476  -17.0997 O   0  0  0  0  0  0  0  0  0  0  0  0
   26.8104  -18.6054  -16.3305 O   0  0  0  0  0  0  0  0  0  0  0  0
  2  1  1  6
  3  2  1  0
  4  3  1  0
  5  4  1  0
  5  6  2  0
  7  2  1  0
  7  8  2  0
  9  5  1  0
 10 11  1  0
 11 12  1  0
 12 14  1  0
 12 13  1  6
 14 15  1  1
 15  7  1  0
 16 14  1  0
 17 16  2  0
 18 19  1  0
 19 20  2  0
 19 21  1  0
 22 21  1  6
 22 24  1  0
 22 23  1  0
 23 16  1  0
 24 25  1  0
 26 24  2  0
M  END
$$$$
