EIN.pdb
     RDKit          3D

 26 25  0  0  1  0  0  0  0  0999 V2000
   21.5211  -13.8933  -16.1196 N   0  0  0  0  0  0  0  0  0  0  0  0
   21.4174  -12.6304  -16.7678 C   0  0  1  0  0  0  0  0  0  0  0  0
   20.0825  -12.2457  -17.2693 C   0  0  0  0  0  0  0  0  0  0  0  0
   19.4834  -13.2732  -18.1652 C   0  0  0  0  0  0  0  0  0  0  0  0
   18.1665  -12.9566  -18.7011 C   0  0  0  0  0  0  0  0  0  0  0  0
   17.3824  -13.8078  -19.1319 O   0  0  0  0  0  0  0  0  0  0  0  0
   22.1049  -11.5364  -16.0219 C   0  0  0  0  0  0  0  0  0  0  0  0
   21.8460  -11.3327  -14.8102 O   0  0  0  0  0  0  0  0  0  0  0  0
   17.6973  -11.6235  -18.7621 O   0  0  0  0  0  0  0  0  0  0  0  0
   27.5380   -9.7392  -16.5510 C   0  0  0  0  0  0  0  0  0  0  0  0
   26.0362   -9.7010  -16.8775 C   0  0  0  0  0  0  0  0  0  0  0  0
   25.1727   -9.7555  -15.6849 C   0  0  2  0  0  0  0  0  0  0  0  0
   25.4755  -11.0202  -14.9108 C   0  0  0  0  0  0  0  0  0  0  0  0
   23.7064   -9.5991  -15.8871 C   0  0  2  0  0  0  0  0  0  0  0  0
   23.0752  -10.6633  -16.5983 N   0  0  0  0  0  0  0  0  0  0  0  0
   23.2818   -8.2361  -16.3117 C   0  0  0  0  0  0  0  0  0  0  0  0
   23.1635   -7.8563  -17.5016 O   0  0  0  0  0  0  0  0  0  0  0  0
   20.6629   -3.4708  -15.7322 N   0  0  0  0  0  0  0  0  0  0  0  0
   21.7830   -3.7379  -14.9056 C   0  0  0  0  0  0  0  0  0  0  0  0
   22.4965   -2.7490  -14.5497 O   0  0  0  0  0  0  0  0  0  0  0  0
   22.1482   -5.1026  -14.4510 C   0  0  0  0  0  0  0  0  0  0  0  0
   22.6114   -5.8574  -15.6869 C   0  0  2  0  0  0  0  0  0  0  0  0
   22.9661   -7.2288  -15.3547 N   0  0  0  0  0  0  0  0  0  0  0  0
   23.8412   -5.2037  -16.1739 C   0  0  0  0  0  0  0  0  0  0  0  0
   25.0994   -5.3673  -15.6204 O   0  0  0  0  0  0  0  0  0  0  0  0
   23.7460   -4.4418  -17.1659 O   0  0  0  0  0  0  0  0  0  0  0  0
  2  1  1  1
  3  2  1  0
  4  3  1  0
  5  4  1  0
  5  6  2  0
  7  2  1  0
  7  8  2  0
  9  5  1  0
 10 11  1  0
 11 12  1  0
 12 14  1  0
 12 13  1  6
 14 15  1  6
 15  7  1  0
 16 14  1  0
 17 16  2  0
 18 19  1  0
 19 20  2  0
 19 21  1  0
 22 21  1  1
 22 24  1  0
 22 23  1  0
 23 16  1  0
 24 25  1  0
 26 24  2  0
M  END
$$$$
