EIN.pdb
     RDKit          3D

 26 25  0  0  1  0  0  0  0  0999 V2000
   18.4853  -24.3087   -6.7423 N   0  0  0  0  0  0  0  0  0  0  0  0
   18.9158  -24.4712   -8.0892 C   0  0  1  0  0  0  0  0  0  0  0  0
   18.1857  -25.4600   -8.9082 C   0  0  0  0  0  0  0  0  0  0  0  0
   18.2461  -26.8362   -8.3429 C   0  0  0  0  0  0  0  0  0  0  0  0
   17.0741  -27.2648   -7.5915 C   0  0  0  0  0  0  0  0  0  0  0  0
   15.9641  -27.4439   -8.1022 O   0  0  0  0  0  0  0  0  0  0  0  0
   19.1355  -23.1724   -8.7896 C   0  0  0  0  0  0  0  0  0  0  0  0
   18.3162  -22.2305   -8.6542 O   0  0  0  0  0  0  0  0  0  0  0  0
   17.1397  -27.5060   -6.1992 O   0  0  0  0  0  0  0  0  0  0  0  0
   23.7514  -20.5706   -8.4366 C   0  0  0  0  0  0  0  0  0  0  0  0
   22.2736  -20.9660   -8.5892 C   0  0  0  0  0  0  0  0  0  0  0  0
   21.8267  -21.0445   -9.9910 C   0  0  2  0  0  0  0  0  0  0  0  0
   21.9441  -19.6759  -10.6263 C   0  0  0  0  0  0  0  0  0  0  0  0
   20.4867  -21.6358  -10.2557 C   0  0  2  0  0  0  0  0  0  0  0  0
   20.2493  -22.9008   -9.6391 N   0  0  0  0  0  0  0  0  0  0  0  0
   20.0398  -21.5470  -11.6736 C   0  0  0  0  0  0  0  0  0  0  0  0
   20.3743  -22.3411  -12.5856 O   0  0  0  0  0  0  0  0  0  0  0  0
   16.3271  -20.6488  -15.6034 N   0  0  0  0  0  0  0  0  0  0  0  0
   16.9223  -19.5629  -14.9135 C   0  0  0  0  0  0  0  0  0  0  0  0
   17.1014  -18.4854  -15.5620 O   0  0  0  0  0  0  0  0  0  0  0  0
   17.3384  -19.6364  -13.4908 C   0  0  0  0  0  0  0  0  0  0  0  0
   18.6739  -20.3627  -13.4708 C   0  0  2  0  0  0  0  0  0  0  0  0
   19.1635  -20.5112  -12.1089 N   0  0  0  0  0  0  0  0  0  0  0  0
   19.6507  -19.5200  -14.1868 C   0  0  0  0  0  0  0  0  0  0  0  0
   20.0581  -19.7147  -15.4954 O   0  0  0  0  0  0  0  0  0  0  0  0
   20.1525  -18.5508  -13.5685 O   0  0  0  0  0  0  0  0  0  0  0  0
  2  1  1  1
  3  2  1  0
  4  3  1  0
  5  4  1  0
  5  6  2  0
  7  2  1  0
  7  8  2  0
  9  5  1  0
 10 11  1  0
 11 12  1  0
 12 14  1  0
 12 13  1  1
 14 15  1  6
 15  7  1  0
 16 14  1  0
 17 16  2  0
 18 19  1  0
 19 20  2  0
 19 21  1  0
 22 21  1  1
 22 24  1  0
 22 23  1  0
 23 16  1  0
 24 25  1  0
 26 24  2  0
M  END
$$$$
