EIN.pdb
     RDKit          3D

 26 25  0  0  1  0  0  0  0  0999 V2000
   17.5851  -11.8909  -17.8159 N   0  0  0  0  0  0  0  0  0  0  0  0
   18.8926  -11.4773  -18.1970 C   0  0  1  0  0  0  0  0  0  0  0  0
   19.0139  -10.7385  -19.4702 C   0  0  0  0  0  0  0  0  0  0  0  0
   17.9833   -9.6745  -19.6215 C   0  0  0  0  0  0  0  0  0  0  0  0
   18.4240   -8.4550  -20.2851 C   0  0  0  0  0  0  0  0  0  0  0  0
   18.5797   -7.3783  -19.7009 O   0  0  0  0  0  0  0  0  0  0  0  0
   19.6532  -10.8508  -17.0768 C   0  0  0  0  0  0  0  0  0  0  0  0
   19.0572  -10.4643  -16.0414 O   0  0  0  0  0  0  0  0  0  0  0  0
   18.7054   -8.4315  -21.6712 O   0  0  0  0  0  0  0  0  0  0  0  0
   24.1072  -12.9551  -14.8545 C   0  0  0  0  0  0  0  0  0  0  0  0
   22.7956  -12.2282  -15.1934 C   0  0  0  0  0  0  0  0  0  0  0  0
   22.9832  -10.8116  -15.5529 C   0  0  2  0  0  0  0  0  0  0  0  0
   23.6704  -10.0968  -14.4096 C   0  0  0  0  0  0  0  0  0  0  0  0
   21.7874  -10.0512  -16.0079 C   0  0  2  0  0  0  0  0  0  0  0  0
   21.0652  -10.6450  -17.0862 N   0  0  0  0  0  0  0  0  0  0  0  0
   22.0012   -8.5835  -16.1426 C   0  0  0  0  0  0  0  0  0  0  0  0
   22.6159   -8.0284  -17.0851 O   0  0  0  0  0  0  0  0  0  0  0  0
   21.8952   -3.5472  -15.5060 N   0  0  0  0  0  0  0  0  0  0  0  0
   20.6485   -4.1228  -15.8579 C   0  0  0  0  0  0  0  0  0  0  0  0
   19.7262   -3.3352  -16.2355 O   0  0  0  0  0  0  0  0  0  0  0  0
   20.3842   -5.5821  -15.8006 C   0  0  0  0  0  0  0  0  0  0  0  0
   21.6439   -6.2253  -15.2430 C   0  0  2  0  0  0  0  0  0  0  0  0
   21.4995   -7.6712  -15.1699 N   0  0  0  0  0  0  0  0  0  0  0  0
   21.8165   -5.7424  -13.8596 C   0  0  0  0  0  0  0  0  0  0  0  0
   21.5975   -6.4996  -12.7217 O   0  0  0  0  0  0  0  0  0  0  0  0
   22.1916   -4.5567  -13.6956 O   0  0  0  0  0  0  0  0  0  0  0  0
  2  1  1  1
  3  2  1  0
  4  3  1  0
  5  4  1  0
  5  6  2  0
  7  2  1  0
  7  8  2  0
  9  5  1  0
 10 11  1  0
 11 12  1  0
 12 14  1  0
 12 13  1  1
 14 15  1  6
 15  7  1  0
 16 14  1  0
 17 16  2  0
 18 19  1  0
 19 20  2  0
 19 21  1  0
 22 21  1  1
 22 24  1  0
 22 23  1  0
 23 16  1  0
 24 25  1  0
 26 24  2  0
M  END
$$$$
