EIN.pdb
     RDKit          3D

 26 25  0  0  1  0  0  0  0  0999 V2000
   21.6121  -23.3903  -10.7057 N   0  0  0  0  0  0  0  0  0  0  0  0
   21.3599  -22.0270  -10.3835 C   0  0  1  0  0  0  0  0  0  0  0  0
   21.0634  -21.7197   -8.9696 C   0  0  0  0  0  0  0  0  0  0  0  0
   20.2667  -22.7853   -8.3012 C   0  0  0  0  0  0  0  0  0  0  0  0
   18.8606  -22.8543   -8.6753 C   0  0  0  0  0  0  0  0  0  0  0  0
   18.0847  -23.7190   -8.2565 O   0  0  0  0  0  0  0  0  0  0  0  0
   22.3494  -21.0930  -10.9951 C   0  0  0  0  0  0  0  0  0  0  0  0
   22.2569  -19.8551  -10.8054 O   0  0  0  0  0  0  0  0  0  0  0  0
   18.2875  -21.9130   -9.5621 O   0  0  0  0  0  0  0  0  0  0  0  0
   27.6284  -21.0203  -10.3379 C   0  0  0  0  0  0  0  0  0  0  0  0
   26.1323  -20.8016  -10.6161 C   0  0  0  0  0  0  0  0  0  0  0  0
   25.7912  -20.8185  -12.0495 C   0  0  2  0  0  0  0  0  0  0  0  0
   26.6872  -19.8447  -12.7839 C   0  0  0  0  0  0  0  0  0  0  0  0
   24.3657  -20.6076  -12.4218 C   0  0  2  0  0  0  0  0  0  0  0  0
   23.4405  -21.5091  -11.8151 N   0  0  0  0  0  0  0  0  0  0  0  0
   24.1336  -20.3697  -13.8736 C   0  0  0  0  0  0  0  0  0  0  0  0
   24.3498  -21.2052  -14.7843 O   0  0  0  0  0  0  0  0  0  0  0  0
   21.9895  -18.3888  -18.0966 N   0  0  0  0  0  0  0  0  0  0  0  0
   21.3942  -17.7537  -16.9779 C   0  0  0  0  0  0  0  0  0  0  0  0
   20.3761  -17.0248  -17.1922 O   0  0  0  0  0  0  0  0  0  0  0  0
   21.9067  -17.9029  -15.5931 C   0  0  0  0  0  0  0  0  0  0  0  0
   23.0340  -18.9209  -15.6596 C   0  0  2  0  0  0  0  0  0  0  0  0
   23.6270  -19.1248  -14.3468 N   0  0  0  0  0  0  0  0  0  0  0  0
   24.0906  -18.3605  -16.5237 C   0  0  0  0  0  0  0  0  0  0  0  0
   25.3602  -18.0093  -16.0983 O   0  0  0  0  0  0  0  0  0  0  0  0
   23.8248  -18.1885  -17.7374 O   0  0  0  0  0  0  0  0  0  0  0  0
  2  1  1  1
  3  2  1  0
  4  3  1  0
  5  4  1  0
  5  6  2  0
  7  2  1  0
  7  8  2  0
  9  5  1  0
 10 11  1  0
 11 12  1  0
 12 14  1  0
 12 13  1  6
 14 15  1  6
 15  7  1  0
 16 14  1  0
 17 16  2  0
 18 19  1  0
 19 20  2  0
 19 21  1  0
 22 21  1  1
 22 24  1  0
 22 23  1  0
 23 16  1  0
 24 25  1  0
 26 24  2  0
M  END
$$$$
