EIN.pdb
     RDKit          3D

 26 25  0  0  1  0  0  0  0  0999 V2000
   28.3432  -21.7460  -15.3841 N   0  0  0  0  0  0  0  0  0  0  0  0
   27.9385  -20.6621  -14.5551 C   0  0  1  0  0  0  0  0  0  0  0  0
   27.8726  -19.3282  -15.1861 C   0  0  0  0  0  0  0  0  0  0  0  0
   27.0391  -19.3130  -16.4198 C   0  0  0  0  0  0  0  0  0  0  0  0
   26.1137  -18.1951  -16.5458 C   0  0  0  0  0  0  0  0  0  0  0  0
   24.9261  -18.3243  -16.8584 O   0  0  0  0  0  0  0  0  0  0  0  0
   26.7410  -20.9815  -13.7247 C   0  0  0  0  0  0  0  0  0  0  0  0
   25.8092  -21.6798  -14.1947 O   0  0  0  0  0  0  0  0  0  0  0  0
   26.5312  -16.8638  -16.3127 O   0  0  0  0  0  0  0  0  0  0  0  0
   27.2292  -20.5632   -8.2459 C   0  0  0  0  0  0  0  0  0  0  0  0
   26.7428  -21.2896   -9.5105 C   0  0  0  0  0  0  0  0  0  0  0  0
   25.5637  -20.6626  -10.1331 C   0  0  2  0  0  0  0  0  0  0  0  0
   24.3182  -21.1116   -9.3999 C   0  0  0  0  0  0  0  0  0  0  0  0
   25.3952  -20.8186  -11.6037 C   0  0  2  0  0  0  0  0  0  0  0  0
   26.5591  -20.5382  -12.3807 N   0  0  0  0  0  0  0  0  0  0  0  0
   24.1358  -20.2388  -12.1476 C   0  0  0  0  0  0  0  0  0  0  0  0
   24.0008  -19.0578  -12.5491 O   0  0  0  0  0  0  0  0  0  0  0  0
   19.6721  -19.9814  -14.5955 N   0  0  0  0  0  0  0  0  0  0  0  0
   20.6707  -20.8012  -15.1786 C   0  0  0  0  0  0  0  0  0  0  0  0
   20.5259  -21.1207  -16.3995 O   0  0  0  0  0  0  0  0  0  0  0  0
   21.8544  -21.2933  -14.4308 C   0  0  0  0  0  0  0  0  0  0  0  0
   21.7893  -20.6524  -13.0535 C   0  0  2  0  0  0  0  0  0  0  0  0
   22.9488  -21.0196  -12.2551 N   0  0  0  0  0  0  0  0  0  0  0  0
   20.6048  -21.1979  -12.3633 C   0  0  0  0  0  0  0  0  0  0  0  0
   20.6385  -22.1656  -11.3739 O   0  0  0  0  0  0  0  0  0  0  0  0
   19.4788  -20.7539  -12.6926 O   0  0  0  0  0  0  0  0  0  0  0  0
  2  1  1  6
  3  2  1  0
  4  3  1  0
  5  4  1  0
  5  6  2  0
  7  2  1  0
  7  8  2  0
  9  5  1  0
 10 11  1  0
 11 12  1  0
 12 14  1  0
 12 13  1  1
 14 15  1  6
 15  7  1  0
 16 14  1  0
 17 16  2  0
 18 19  1  0
 19 20  2  0
 19 21  1  0
 22 21  1  6
 22 24  1  0
 22 23  1  0
 23 16  1  0
 24 25  1  0
 26 24  2  0
M  END
$$$$
