EIN.pdb
     RDKit          3D

 26 25  0  0  1  0  0  0  0  0999 V2000
   21.1481  -13.8773  -17.4399 N   0  0  0  0  0  0  0  0  0  0  0  0
   21.4609  -12.5911  -17.9632 C   0  0  1  0  0  0  0  0  0  0  0  0
   20.4293  -11.9412  -18.7968 C   0  0  0  0  0  0  0  0  0  0  0  0
   20.0102  -12.7781  -19.9548 C   0  0  0  0  0  0  0  0  0  0  0  0
   20.8906  -12.7420  -21.1146 C   0  0  0  0  0  0  0  0  0  0  0  0
   20.7660  -11.9350  -22.0411 O   0  0  0  0  0  0  0  0  0  0  0  0
   22.0568  -11.6787  -16.9443 C   0  0  0  0  0  0  0  0  0  0  0  0
   21.5219  -11.5502  -15.8155 O   0  0  0  0  0  0  0  0  0  0  0  0
   21.9654  -13.6514  -21.2518 O   0  0  0  0  0  0  0  0  0  0  0  0
   27.2433  -11.6122  -15.4969 C   0  0  0  0  0  0  0  0  0  0  0  0
   25.7150  -11.5265  -15.6407 C   0  0  0  0  0  0  0  0  0  0  0  0
   25.2242  -10.1633  -15.9089 C   0  0  2  0  0  0  0  0  0  0  0  0
   25.6568   -9.2499  -14.7824 C   0  0  0  0  0  0  0  0  0  0  0  0
   23.7734   -9.9966  -16.1959 C   0  0  2  0  0  0  0  0  0  0  0  0
   23.2367  -10.9051  -17.1569 N   0  0  0  0  0  0  0  0  0  0  0  0
   23.3350   -8.5839  -16.3702 C   0  0  0  0  0  0  0  0  0  0  0  0
   23.6812   -7.8333  -17.3141 O   0  0  0  0  0  0  0  0  0  0  0  0
   20.2349   -4.4054  -17.0483 N   0  0  0  0  0  0  0  0  0  0  0  0
   20.0380   -5.1773  -15.8759 C   0  0  0  0  0  0  0  0  0  0  0  0
   19.4892   -4.6045  -14.8836 O   0  0  0  0  0  0  0  0  0  0  0  0
   20.4430   -6.6007  -15.7646 C   0  0  0  0  0  0  0  0  0  0  0  0
   21.9495   -6.6038  -15.5593 C   0  0  2  0  0  0  0  0  0  0  0  0
   22.4539   -7.9631  -15.4384 N   0  0  0  0  0  0  0  0  0  0  0  0
   22.2263   -5.9294  -14.2766 C   0  0  0  0  0  0  0  0  0  0  0  0
   22.4199   -4.5674  -14.1217 O   0  0  0  0  0  0  0  0  0  0  0  0
   22.2906   -6.6385  -13.2439 O   0  0  0  0  0  0  0  0  0  0  0  0
  2  1  1  1
  3  2  1  0
  4  3  1  0
  5  4  1  0
  5  6  2  0
  7  2  1  0
  7  8  2  0
  9  5  1  0
 10 11  1  0
 11 12  1  0
 12 14  1  0
 12 13  1  1
 14 15  1  6
 15  7  1  0
 16 14  1  0
 17 16  2  0
 18 19  1  0
 19 20  2  0
 19 21  1  0
 22 21  1  1
 22 24  1  0
 22 23  1  0
 23 16  1  0
 24 25  1  0
 26 24  2  0
M  END
$$$$
