EIN.pdb
     RDKit          3D

 26 25  0  0  1  0  0  0  0  0999 V2000
   24.1194  -17.0035  -16.9903 N   0  0  0  0  0  0  0  0  0  0  0  0
   23.9001  -15.7436  -17.6154 C   0  0  1  0  0  0  0  0  0  0  0  0
   22.6042  -15.5544  -18.2983 C   0  0  0  0  0  0  0  0  0  0  0  0
   22.3079  -16.6301  -19.2843 C   0  0  0  0  0  0  0  0  0  0  0  0
   21.0338  -16.5177  -19.9812 C   0  0  0  0  0  0  0  0  0  0  0  0
   20.0419  -17.1991  -19.7038 O   0  0  0  0  0  0  0  0  0  0  0  0
   24.2844  -14.5910  -16.7496 C   0  0  0  0  0  0  0  0  0  0  0  0
   23.9447  -14.5624  -15.5411 O   0  0  0  0  0  0  0  0  0  0  0  0
   20.8535  -15.6003  -21.0427 O   0  0  0  0  0  0  0  0  0  0  0  0
   29.1574  -12.9791  -15.7648 C   0  0  0  0  0  0  0  0  0  0  0  0
   27.6481  -13.2713  -15.7662 C   0  0  0  0  0  0  0  0  0  0  0  0
   26.8257  -12.1202  -16.1782 C   0  0  2  0  0  0  0  0  0  0  0  0
   27.0606  -10.9741  -15.2180 C   0  0  0  0  0  0  0  0  0  0  0  0
   25.3690  -12.3498  -16.3793 C   0  0  2  0  0  0  0  0  0  0  0  0
   25.0392  -13.4680  -17.2026 N   0  0  0  0  0  0  0  0  0  0  0  0
   24.5819  -11.1186  -16.6667 C   0  0  0  0  0  0  0  0  0  0  0  0
   24.5462  -10.5281  -17.7731 O   0  0  0  0  0  0  0  0  0  0  0  0
   21.0634   -7.4207  -16.2999 N   0  0  0  0  0  0  0  0  0  0  0  0
   20.9703   -8.1451  -15.0851 C   0  0  0  0  0  0  0  0  0  0  0  0
   20.0359   -7.8281  -14.2850 O   0  0  0  0  0  0  0  0  0  0  0  0
   21.9062   -9.2369  -14.7183 C   0  0  0  0  0  0  0  0  0  0  0  0
   22.8340   -9.4253  -15.9080 C   0  0  2  0  0  0  0  0  0  0  0  0
   23.7806  -10.5025  -15.6624 N   0  0  0  0  0  0  0  0  0  0  0  0
   23.6237   -8.1880  -16.0580 C   0  0  0  0  0  0  0  0  0  0  0  0
   23.2913   -7.1301  -16.8866 O   0  0  0  0  0  0  0  0  0  0  0  0
   24.6767   -8.0800  -15.3850 O   0  0  0  0  0  0  0  0  0  0  0  0
  2  1  1  1
  3  2  1  0
  4  3  1  0
  5  4  1  0
  5  6  2  0
  7  2  1  0
  7  8  2  0
  9  5  1  0
 10 11  1  0
 11 12  1  0
 12 14  1  0
 12 13  1  1
 14 15  1  6
 15  7  1  0
 16 14  1  0
 17 16  2  0
 18 19  1  0
 19 20  2  0
 19 21  1  0
 22 21  1  1
 22 24  1  0
 22 23  1  0
 23 16  1  0
 24 25  1  0
 26 24  2  0
M  END
$$$$
