EIN.pdb
     RDKit          3D

 26 25  0  0  1  0  0  0  0  0999 V2000
   19.1826  -13.4566  -16.1676 N   0  0  0  0  0  0  0  0  0  0  0  0
   19.2400  -12.1001  -16.5947 C   0  0  1  0  0  0  0  0  0  0  0  0
   17.9509  -11.4001  -16.7673 C   0  0  0  0  0  0  0  0  0  0  0  0
   17.0009  -12.1447  -17.6390 C   0  0  0  0  0  0  0  0  0  0  0  0
   15.7019  -11.5178  -17.8417 C   0  0  0  0  0  0  0  0  0  0  0  0
   15.4874  -10.6532  -18.6969 O   0  0  0  0  0  0  0  0  0  0  0  0
   20.2512  -11.2978  -15.8466 C   0  0  0  0  0  0  0  0  0  0  0  0
   20.1673  -11.1718  -14.6001 O   0  0  0  0  0  0  0  0  0  0  0  0
   14.5829  -11.8700  -17.0512 O   0  0  0  0  0  0  0  0  0  0  0  0
   25.4714  -11.9827  -15.6579 C   0  0  0  0  0  0  0  0  0  0  0  0
   23.9881  -11.6186  -15.4821 C   0  0  0  0  0  0  0  0  0  0  0  0
   23.6865  -10.2103  -15.7934 C   0  0  2  0  0  0  0  0  0  0  0  0
   24.5385   -9.3158  -14.9192 C   0  0  0  0  0  0  0  0  0  0  0  0
   22.2608   -9.7849  -15.7527 C   0  0  2  0  0  0  0  0  0  0  0  0
   21.3547  -10.6317  -16.4588 N   0  0  0  0  0  0  0  0  0  0  0  0
   22.0428   -8.3282  -15.9727 C   0  0  0  0  0  0  0  0  0  0  0  0
   21.9002   -7.7821  -17.0933 O   0  0  0  0  0  0  0  0  0  0  0  0
   20.9045   -3.4183  -15.2556 N   0  0  0  0  0  0  0  0  0  0  0  0
   19.8721   -4.3883  -15.3057 C   0  0  0  0  0  0  0  0  0  0  0  0
   18.6878   -3.9726  -15.5017 O   0  0  0  0  0  0  0  0  0  0  0  0
   20.1169   -5.8425  -15.1384 C   0  0  0  0  0  0  0  0  0  0  0  0
   21.6212   -6.0114  -14.9967 C   0  0  2  0  0  0  0  0  0  0  0  0
   21.9767   -7.4172  -14.8791 N   0  0  0  0  0  0  0  0  0  0  0  0
   22.0263   -5.3610  -13.7359 C   0  0  0  0  0  0  0  0  0  0  0  0
   22.3266   -4.0167  -13.5972 O   0  0  0  0  0  0  0  0  0  0  0  0
   22.1048   -6.0748  -12.7075 O   0  0  0  0  0  0  0  0  0  0  0  0
  2  1  1  1
  3  2  1  0
  4  3  1  0
  5  4  1  0
  5  6  2  0
  7  2  1  0
  7  8  2  0
  9  5  1  0
 10 11  1  0
 11 12  1  0
 12 14  1  0
 12 13  1  1
 14 15  1  6
 15  7  1  0
 16 14  1  0
 17 16  2  0
 18 19  1  0
 19 20  2  0
 19 21  1  0
 22 21  1  1
 22 24  1  0
 22 23  1  0
 23 16  1  0
 24 25  1  0
 26 24  2  0
M  END
$$$$
