EIN.pdb
     RDKit          3D

 26 25  0  0  1  0  0  0  0  0999 V2000
   14.3701  -14.8717  -16.3197 N   0  0  0  0  0  0  0  0  0  0  0  0
   15.2292  -14.2075  -15.3995 C   0  0  1  0  0  0  0  0  0  0  0  0
   16.5810  -14.7750  -15.2203 C   0  0  0  0  0  0  0  0  0  0  0  0
   16.5571  -16.1950  -14.7731 C   0  0  0  0  0  0  0  0  0  0  0  0
   17.8337  -16.7433  -14.3356 C   0  0  0  0  0  0  0  0  0  0  0  0
   17.9662  -17.8826  -13.8781 O   0  0  0  0  0  0  0  0  0  0  0  0
   15.2297  -12.7255  -15.5712 C   0  0  0  0  0  0  0  0  0  0  0  0
   15.2793  -12.2183  -16.7188 O   0  0  0  0  0  0  0  0  0  0  0  0
   19.0253  -15.9845  -14.4099 O   0  0  0  0  0  0  0  0  0  0  0  0
   11.4281   -9.8511  -14.0868 C   0  0  0  0  0  0  0  0  0  0  0  0
   12.6882  -10.0766  -14.9382 C   0  0  0  0  0  0  0  0  0  0  0  0
   13.9356   -9.6829  -14.2598 C   0  0  2  0  0  0  0  0  0  0  0  0
   14.1007   -8.1817  -14.3576 C   0  0  0  0  0  0  0  0  0  0  0  0
   15.1884  -10.3789  -14.6613 C   0  0  2  0  0  0  0  0  0  0  0  0
   15.1769  -11.7957  -14.4901 N   0  0  0  0  0  0  0  0  0  0  0  0
   16.4401   -9.7125  -14.2058 C   0  0  0  0  0  0  0  0  0  0  0  0
   16.9842   -9.8875  -13.0889 O   0  0  0  0  0  0  0  0  0  0  0  0
   21.7465   -8.5126  -14.6160 N   0  0  0  0  0  0  0  0  0  0  0  0
   20.7147   -7.8460  -15.3233 C   0  0  0  0  0  0  0  0  0  0  0  0
   20.8872   -6.6155  -15.5875 O   0  0  0  0  0  0  0  0  0  0  0  0
   19.4638   -8.5172  -15.7561 C   0  0  0  0  0  0  0  0  0  0  0  0
   18.4111   -8.1776  -14.7130 C   0  0  2  0  0  0  0  0  0  0  0  0
   17.1352   -8.7935  -15.0439 N   0  0  0  0  0  0  0  0  0  0  0  0
   18.2029   -6.7174  -14.7484 C   0  0  0  0  0  0  0  0  0  0  0  0
   17.5043   -6.0390  -15.7323 O   0  0  0  0  0  0  0  0  0  0  0  0
   18.6925   -6.0332  -13.8179 O   0  0  0  0  0  0  0  0  0  0  0  0
  2  1  1  6
  3  2  1  0
  4  3  1  0
  5  4  1  0
  5  6  2  0
  7  2  1  0
  7  8  2  0
  9  5  1  0
 10 11  1  0
 11 12  1  0
 12 14  1  0
 12 13  1  6
 14 15  1  1
 15  7  1  0
 16 14  1  0
 17 16  2  0
 18 19  1  0
 19 20  2  0
 19 21  1  0
 22 21  1  6
 22 24  1  0
 22 23  1  0
 23 16  1  0
 24 25  1  0
 26 24  2  0
M  END
$$$$
