EIN.pdb
     RDKit          3D

 26 25  0  0  1  0  0  0  0  0999 V2000
   18.8123  -13.3593  -15.9748 N   0  0  0  0  0  0  0  0  0  0  0  0
   18.7561  -12.0175  -16.4464 C   0  0  1  0  0  0  0  0  0  0  0  0
   17.4131  -11.4312  -16.6314 C   0  0  0  0  0  0  0  0  0  0  0  0
   16.5385  -12.2557  -17.5101 C   0  0  0  0  0  0  0  0  0  0  0  0
   16.0509  -13.5002  -16.9310 C   0  0  0  0  0  0  0  0  0  0  0  0
   16.4614  -14.6156  -17.2660 O   0  0  0  0  0  0  0  0  0  0  0  0
   19.7023  -11.1110  -15.7332 C   0  0  0  0  0  0  0  0  0  0  0  0
   19.4902  -10.7817  -14.5402 O   0  0  0  0  0  0  0  0  0  0  0  0
   15.0539  -13.5045  -15.9275 O   0  0  0  0  0  0  0  0  0  0  0  0
   24.9444  -11.9254  -15.3659 C   0  0  0  0  0  0  0  0  0  0  0  0
   23.4649  -11.5291  -15.2343 C   0  0  0  0  0  0  0  0  0  0  0  0
   23.1950  -10.1289  -15.6053 C   0  0  2  0  0  0  0  0  0  0  0  0
   24.0226   -9.2150  -14.7276 C   0  0  0  0  0  0  0  0  0  0  0  0
   21.7747   -9.6853  -15.6377 C   0  0  2  0  0  0  0  0  0  0  0  0
   20.8807  -10.5625  -16.3220 N   0  0  0  0  0  0  0  0  0  0  0  0
   21.5837   -8.2420  -15.9514 C   0  0  0  0  0  0  0  0  0  0  0  0
   21.8451   -7.7036  -17.0542 O   0  0  0  0  0  0  0  0  0  0  0  0
   17.3158   -6.4589  -15.4042 N   0  0  0  0  0  0  0  0  0  0  0  0
   18.5836   -5.9236  -15.7436 C   0  0  0  0  0  0  0  0  0  0  0  0
   18.8883   -5.8774  -16.9759 O   0  0  0  0  0  0  0  0  0  0  0  0
   19.5509   -5.4272  -14.7334 C   0  0  0  0  0  0  0  0  0  0  0  0
   20.9233   -5.9030  -15.1827 C   0  0  2  0  0  0  0  0  0  0  0  0
   21.0676   -7.3364  -14.9799 N   0  0  0  0  0  0  0  0  0  0  0  0
   21.9266   -5.2464  -14.3228 C   0  0  0  0  0  0  0  0  0  0  0  0
   22.2171   -3.8930  -14.3337 O   0  0  0  0  0  0  0  0  0  0  0  0
   22.5671   -5.9637  -13.5174 O   0  0  0  0  0  0  0  0  0  0  0  0
  2  1  1  1
  3  2  1  0
  4  3  1  0
  5  4  1  0
  5  6  2  0
  7  2  1  0
  7  8  2  0
  9  5  1  0
 10 11  1  0
 11 12  1  0
 12 14  1  0
 12 13  1  1
 14 15  1  6
 15  7  1  0
 16 14  1  0
 17 16  2  0
 18 19  1  0
 19 20  2  0
 19 21  1  0
 22 21  1  1
 22 24  1  0
 22 23  1  0
 23 16  1  0
 24 25  1  0
 26 24  2  0
M  END
$$$$
