EIN.pdb
     RDKit          3D

 26 25  0  0  1  0  0  0  0  0999 V2000
   17.6132  -11.2964  -17.8340 N   0  0  0  0  0  0  0  0  0  0  0  0
   18.6271  -10.3487  -18.1499 C   0  0  1  0  0  0  0  0  0  0  0  0
   18.2590   -9.2639  -19.0822 C   0  0  0  0  0  0  0  0  0  0  0  0
   17.9760   -9.7559  -20.4587 C   0  0  0  0  0  0  0  0  0  0  0  0
   18.8444   -9.2387  -21.5076 C   0  0  0  0  0  0  0  0  0  0  0  0
   19.8494   -9.8298  -21.9146 O   0  0  0  0  0  0  0  0  0  0  0  0
   19.3671   -9.8671  -16.9473 C   0  0  0  0  0  0  0  0  0  0  0  0
   18.7516   -9.6051  -15.8846 O   0  0  0  0  0  0  0  0  0  0  0  0
   18.5820   -7.9989  -22.1362 O   0  0  0  0  0  0  0  0  0  0  0  0
   23.6339  -12.1838  -14.6866 C   0  0  0  0  0  0  0  0  0  0  0  0
   22.3648  -11.3938  -15.0453 C   0  0  0  0  0  0  0  0  0  0  0  0
   22.6112   -9.9611  -15.2856 C   0  0  2  0  0  0  0  0  0  0  0  0
   23.2216   -9.3479  -14.0439 C   0  0  0  0  0  0  0  0  0  0  0  0
   21.4719   -9.1378  -15.7751 C   0  0  2  0  0  0  0  0  0  0  0  0
   20.7797   -9.6703  -16.9038 N   0  0  0  0  0  0  0  0  0  0  0  0
   21.7531   -7.6775  -15.8563 C   0  0  0  0  0  0  0  0  0  0  0  0
   22.4881   -7.1319  -16.7143 O   0  0  0  0  0  0  0  0  0  0  0  0
   21.7615   -2.6506  -15.1017 N   0  0  0  0  0  0  0  0  0  0  0  0
   20.4276   -3.1302  -15.0998 C   0  0  0  0  0  0  0  0  0  0  0  0
   19.4959   -2.2680  -15.1471 O   0  0  0  0  0  0  0  0  0  0  0  0
   20.0847   -4.5730  -15.0430 C   0  0  0  0  0  0  0  0  0  0  0  0
   21.4028   -5.3241  -14.9416 C   0  0  2  0  0  0  0  0  0  0  0  0
   21.1808   -6.7619  -14.9266 N   0  0  0  0  0  0  0  0  0  0  0  0
   22.0179   -4.9729  -13.6473 C   0  0  0  0  0  0  0  0  0  0  0  0
   22.0834   -5.8100  -12.5467 O   0  0  0  0  0  0  0  0  0  0  0  0
   22.5230   -3.8308  -13.5296 O   0  0  0  0  0  0  0  0  0  0  0  0
  2  1  1  1
  3  2  1  0
  4  3  1  0
  5  4  1  0
  5  6  2  0
  7  2  1  0
  7  8  2  0
  9  5  1  0
 10 11  1  0
 11 12  1  0
 12 14  1  0
 12 13  1  1
 14 15  1  6
 15  7  1  0
 16 14  1  0
 17 16  2  0
 18 19  1  0
 19 20  2  0
 19 21  1  0
 22 21  1  1
 22 24  1  0
 22 23  1  0
 23 16  1  0
 24 25  1  0
 26 24  2  0
M  END
$$$$
