NER.pdb
     RDKit          3D

 29 28  0  0  1  0  0  0  0  0999 V2000
    7.7473  -12.2994   16.4881 N   0  0  0  0  0  0  0  0  0  0  0  0
    7.6519  -13.6929   16.2157 C   0  0  0  0  0  0  0  0  0  0  0  0
    7.5309  -14.1106   15.0471 O   0  0  0  0  0  0  0  0  0  0  0  0
    7.7030  -14.6147   17.3786 C   0  0  0  0  0  0  0  0  0  0  0  0
    9.1508  -14.8373   17.7327 C   0  0  2  0  0  0  0  0  0  0  0  0
    9.8666  -15.4826   16.6537 N   0  0  0  0  0  0  0  0  0  0  0  0
    9.2849  -15.6831   18.9446 C   0  0  0  0  0  0  0  0  0  0  0  0
    8.6992  -15.3815   20.0288 O   0  0  0  0  0  0  0  0  0  0  0  0
   10.0692  -16.8580   18.9428 N   0  0  0  0  0  0  0  0  0  0  0  0
   10.2433  -17.6336   20.1480 C   0  0  1  0  0  0  0  0  0  0  0  0
   11.0625  -18.8451   19.7601 C   0  0  0  0  0  0  0  0  0  0  0  0
   11.2471  -19.8057   20.8944 C   0  0  0  0  0  0  0  0  0  0  0  0
   11.9925  -21.0196   20.5758 C   0  0  0  0  0  0  0  0  0  0  0  0
   11.6471  -22.1446   20.9523 O   0  0  0  0  0  0  0  0  0  0  0  0
   10.9537  -16.7923   21.1417 C   0  0  0  0  0  0  0  0  0  0  0  0
   11.3282  -15.6464   20.7985 O   0  0  0  0  0  0  0  0  0  0  0  0
   13.1518  -20.9342   19.8125 O   0  0  0  0  0  0  0  0  0  0  0  0
    5.3558  -13.8865   26.2703 N   0  0  0  0  0  0  0  0  0  0  0  0
    6.5094  -13.0795   26.3160 C   0  0  0  0  0  0  0  0  0  0  0  0
    6.3832  -11.8005   26.5506 N   0  0  0  0  0  0  0  0  0  0  0  0
    7.8159  -13.6107   26.1149 N   0  0  0  0  0  0  0  0  0  0  0  0
    8.0359  -14.3953   24.9420 C   0  0  0  0  0  0  0  0  0  0  0  0
    9.4002  -14.9910   24.8302 C   0  0  0  0  0  0  0  0  0  0  0  0
    9.6076  -15.8419   23.6222 C   0  0  0  0  0  0  0  0  0  0  0  0
   11.0555  -16.3482   23.5929 C   0  0  2  0  0  0  0  0  0  0  0  0
   11.2233  -17.2389   22.4650 N   0  0  0  0  0  0  0  0  0  0  0  0
   11.3874  -17.0676   24.8444 C   0  0  0  0  0  0  0  0  0  0  0  0
   12.1668  -16.4298   25.7937 O   0  0  0  0  0  0  0  0  0  0  0  0
   10.9978  -18.2326   25.0932 O   0  0  0  0  0  0  0  0  0  0  0  0
  1  2  1  0
  2  3  2  0
  4  5  1  0
  4  2  1  0
  5  6  1  6
  7  8  2  0
  7  5  1  0
  9  7  1  0
 10  9  1  0
 11 12  1  0
 10 11  1  6
 12 13  1  0
 13 14  2  0
 15 16  2  0
 15 10  1  0
 17 13  1  0
 19 18  1  0
 20 19  2  0
 21 19  1  0
 22 21  1  0
 23 22  1  0
 23 24  1  0
 25 24  1  1
 25 26  1  0
 26 15  1  0
 27 25  1  0
 28 27  1  0
 29 27  2  0
M  END
$$$$
