NER.pdb
     RDKit          3D

 29 28  0  0  1  0  0  0  0  0999 V2000
   11.7838  -12.8729   19.2959 N   0  0  0  0  0  0  0  0  0  0  0  0
   10.6311  -13.6300   18.9444 C   0  0  0  0  0  0  0  0  0  0  0  0
    9.8504  -13.2336   18.0566 O   0  0  0  0  0  0  0  0  0  0  0  0
   10.4065  -14.9008   19.6786 C   0  0  0  0  0  0  0  0  0  0  0  0
   11.4725  -15.0214   20.7370 C   0  0  2  0  0  0  0  0  0  0  0  0
   12.7985  -14.9828   20.1598 N   0  0  0  0  0  0  0  0  0  0  0  0
   11.3373  -16.2898   21.4954 C   0  0  0  0  0  0  0  0  0  0  0  0
   10.2665  -16.5810   22.1101 O   0  0  0  0  0  0  0  0  0  0  0  0
   12.3935  -17.2252   21.5652 N   0  0  0  0  0  0  0  0  0  0  0  0
   12.2073  -18.5053   22.2065 C   0  0  1  0  0  0  0  0  0  0  0  0
   12.9941  -19.5083   21.3914 C   0  0  0  0  0  0  0  0  0  0  0  0
   12.9738  -20.8817   21.9884 C   0  0  0  0  0  0  0  0  0  0  0  0
   13.6993  -21.9037   21.2402 C   0  0  0  0  0  0  0  0  0  0  0  0
   14.8108  -21.7122   20.7355 O   0  0  0  0  0  0  0  0  0  0  0  0
   12.7232  -18.4078   23.5938 C   0  0  0  0  0  0  0  0  0  0  0  0
   13.7317  -17.6956   23.8096 O   0  0  0  0  0  0  0  0  0  0  0  0
   13.1348  -23.1635   21.0722 O   0  0  0  0  0  0  0  0  0  0  0  0
   11.2398  -20.1786   31.5545 N   0  0  0  0  0  0  0  0  0  0  0  0
   12.4663  -20.8652   31.4627 C   0  0  0  0  0  0  0  0  0  0  0  0
   13.2764  -20.8618   32.4877 N   0  0  0  0  0  0  0  0  0  0  0  0
   12.8571  -21.5674   30.2863 N   0  0  0  0  0  0  0  0  0  0  0  0
   12.1189  -21.3134   29.0905 C   0  0  0  0  0  0  0  0  0  0  0  0
   12.7836  -20.3888   28.1250 C   0  0  0  0  0  0  0  0  0  0  0  0
   12.0979  -20.2738   26.8049 C   0  0  0  0  0  0  0  0  0  0  0  0
   12.7948  -19.2032   25.9555 C   0  0  2  0  0  0  0  0  0  0  0  0
   12.1154  -19.0915   24.6829 N   0  0  0  0  0  0  0  0  0  0  0  0
   14.2157  -19.5539   25.7279 C   0  0  0  0  0  0  0  0  0  0  0  0
   15.1975  -18.7693   26.3076 O   0  0  0  0  0  0  0  0  0  0  0  0
   14.5813  -20.5309   25.0330 O   0  0  0  0  0  0  0  0  0  0  0  0
  1  2  1  0
  2  3  2  0
  4  5  1  0
  4  2  1  0
  5  6  1  6
  7  8  2  0
  7  5  1  0
  9  7  1  0
 10  9  1  0
 11 12  1  0
 10 11  1  6
 12 13  1  0
 13 14  2  0
 15 16  2  0
 15 10  1  0
 17 13  1  0
 19 18  1  0
 20 19  2  0
 21 19  1  0
 22 21  1  0
 23 22  1  0
 23 24  1  0
 25 24  1  1
 25 26  1  0
 26 15  1  0
 27 25  1  0
 28 27  1  0
 29 27  2  0
M  END
$$$$
