NER.pdb
     RDKit          3D

 29 28  0  0  1  0  0  0  0  0999 V2000
   16.1760  -14.1458   16.9943 N   0  0  0  0  0  0  0  0  0  0  0  0
   16.6345  -14.1625   18.3415 C   0  0  0  0  0  0  0  0  0  0  0  0
   17.7227  -13.6404   18.6545 O   0  0  0  0  0  0  0  0  0  0  0  0
   15.7631  -14.8249   19.3447 C   0  0  0  0  0  0  0  0  0  0  0  0
   14.6024  -15.4486   18.6132 C   0  0  2  0  0  0  0  0  0  0  0  0
   13.7566  -14.4433   18.0074 N   0  0  0  0  0  0  0  0  0  0  0  0
   13.7652  -16.2642   19.5276 C   0  0  0  0  0  0  0  0  0  0  0  0
   12.6623  -16.7617   19.1462 O   0  0  0  0  0  0  0  0  0  0  0  0
   14.1599  -16.5207   20.8596 N   0  0  0  0  0  0  0  0  0  0  0  0
   13.3479  -17.3406   21.7272 C   0  0  1  0  0  0  0  0  0  0  0  0
   14.2999  -18.0094   22.6946 C   0  0  0  0  0  0  0  0  0  0  0  0
   13.5931  -18.8461   23.7162 C   0  0  0  0  0  0  0  0  0  0  0  0
   14.4516  -19.4864   24.7080 C   0  0  0  0  0  0  0  0  0  0  0  0
   14.7095  -18.9827   25.8065 O   0  0  0  0  0  0  0  0  0  0  0  0
   12.3869  -16.4580   22.4327 C   0  0  0  0  0  0  0  0  0  0  0  0
   12.8327  -15.4772   23.0732 O   0  0  0  0  0  0  0  0  0  0  0  0
   15.0200  -20.7245   24.4287 O   0  0  0  0  0  0  0  0  0  0  0  0
    8.5854  -13.3769   18.0966 N   0  0  0  0  0  0  0  0  0  0  0  0
    7.8618  -13.1939   19.2912 C   0  0  0  0  0  0  0  0  0  0  0  0
    7.7832  -11.9980   19.8114 N   0  0  0  0  0  0  0  0  0  0  0  0
    7.2088  -14.2715   19.9560 N   0  0  0  0  0  0  0  0  0  0  0  0
    6.9089  -14.1067   21.3425 C   0  0  0  0  0  0  0  0  0  0  0  0
    8.0487  -14.3738   22.2689 C   0  0  0  0  0  0  0  0  0  0  0  0
    8.9597  -15.4709   21.8302 C   0  0  0  0  0  0  0  0  0  0  0  0
   10.0630  -15.6719   22.8770 C   0  0  2  0  0  0  0  0  0  0  0  0
   10.9830  -16.6852   22.4073 N   0  0  0  0  0  0  0  0  0  0  0  0
    9.4870  -16.0913   24.1756 C   0  0  0  0  0  0  0  0  0  0  0  0
    8.8193  -15.1529   24.9432 O   0  0  0  0  0  0  0  0  0  0  0  0
    9.5718  -17.2596   24.6216 O   0  0  0  0  0  0  0  0  0  0  0  0
  1  2  1  0
  2  3  2  0
  4  5  1  0
  4  2  1  0
  5  6  1  1
  7  8  2  0
  7  5  1  0
  9  7  1  0
 10  9  1  0
 11 12  1  0
 10 11  1  1
 12 13  1  0
 13 14  2  0
 15 16  2  0
 15 10  1  0
 17 13  1  0
 19 18  1  0
 20 19  2  0
 21 19  1  0
 22 21  1  0
 23 22  1  0
 23 24  1  0
 25 24  1  6
 25 26  1  0
 26 15  1  0
 27 25  1  0
 28 27  1  0
 29 27  2  0
M  END
$$$$
