NER.pdb
     RDKit          3D

 29 28  0  0  1  0  0  0  0  0999 V2000
   10.1006  -16.6999   14.6142 N   0  0  0  0  0  0  0  0  0  0  0  0
    9.5470  -15.7377   15.5048 C   0  0  0  0  0  0  0  0  0  0  0  0
    9.0917  -14.6578   15.0790 O   0  0  0  0  0  0  0  0  0  0  0  0
    9.5385  -16.0792   16.9497 C   0  0  0  0  0  0  0  0  0  0  0  0
   10.2649  -17.3883   17.1227 C   0  0  2  0  0  0  0  0  0  0  0  0
    9.5406  -18.4807   16.5104 N   0  0  0  0  0  0  0  0  0  0  0  0
   10.4579  -17.7114   18.5582 C   0  0  0  0  0  0  0  0  0  0  0  0
    9.4700  -17.8868   19.3344 O   0  0  0  0  0  0  0  0  0  0  0  0
   11.7478  -17.8368   19.1205 N   0  0  0  0  0  0  0  0  0  0  0  0
   11.9188  -18.2165   20.5029 C   0  0  1  0  0  0  0  0  0  0  0  0
   13.4009  -18.4480   20.7007 C   0  0  0  0  0  0  0  0  0  0  0  0
   13.7298  -18.9498   22.0729 C   0  0  0  0  0  0  0  0  0  0  0  0
   15.1449  -19.1995   22.3291 C   0  0  0  0  0  0  0  0  0  0  0  0
   15.6767  -19.0152   23.4291 O   0  0  0  0  0  0  0  0  0  0  0  0
   11.4236  -17.1064   21.3529 C   0  0  0  0  0  0  0  0  0  0  0  0
   11.8810  -15.9552   21.1617 O   0  0  0  0  0  0  0  0  0  0  0  0
   15.9574  -19.6681   21.3023 O   0  0  0  0  0  0  0  0  0  0  0  0
    7.6651  -14.1103   18.7598 N   0  0  0  0  0  0  0  0  0  0  0  0
    7.7433  -12.8686   19.4202 C   0  0  0  0  0  0  0  0  0  0  0  0
    8.0055  -11.7934   18.7259 N   0  0  0  0  0  0  0  0  0  0  0  0
    7.5454  -12.7422   20.8253 N   0  0  0  0  0  0  0  0  0  0  0  0
    7.4596  -13.9451   21.5904 C   0  0  0  0  0  0  0  0  0  0  0  0
    8.7678  -14.4778   22.0740 C   0  0  0  0  0  0  0  0  0  0  0  0
    8.6676  -15.7321   22.8758 C   0  0  0  0  0  0  0  0  0  0  0  0
   10.0744  -16.2158   23.2508 C   0  0  2  0  0  0  0  0  0  0  0  0
   10.4517  -17.3022   22.3728 N   0  0  0  0  0  0  0  0  0  0  0  0
   10.1143  -16.6800   24.6568 C   0  0  0  0  0  0  0  0  0  0  0  0
    9.9635  -15.7501   25.6708 O   0  0  0  0  0  0  0  0  0  0  0  0
   10.2789  -17.8793   24.9818 O   0  0  0  0  0  0  0  0  0  0  0  0
  1  2  1  0
  2  3  2  0
  4  5  1  0
  4  2  1  0
  5  6  1  1
  7  8  2  0
  7  5  1  0
  9  7  1  0
 10  9  1  0
 11 12  1  0
 10 11  1  6
 12 13  1  0
 13 14  2  0
 15 16  2  0
 15 10  1  0
 17 13  1  0
 19 18  1  0
 20 19  2  0
 21 19  1  0
 22 21  1  0
 23 22  1  0
 23 24  1  0
 25 24  1  6
 25 26  1  0
 26 15  1  0
 27 25  1  0
 28 27  1  0
 29 27  2  0
M  END
$$$$
