NER.pdb
     RDKit          3D

 29 28  0  0  1  0  0  0  0  0999 V2000
    7.1625  -12.2209   17.8545 N   0  0  0  0  0  0  0  0  0  0  0  0
    7.7544  -13.4816   17.5619 C   0  0  0  0  0  0  0  0  0  0  0  0
    7.9490  -13.8401   16.3837 O   0  0  0  0  0  0  0  0  0  0  0  0
    8.1246  -14.3394   18.7159 C   0  0  0  0  0  0  0  0  0  0  0  0
    8.6959  -15.6250   18.1756 C   0  0  2  0  0  0  0  0  0  0  0  0
    7.6783  -16.4278   17.5330 N   0  0  0  0  0  0  0  0  0  0  0  0
    9.3094  -16.4375   19.2554 C   0  0  0  0  0  0  0  0  0  0  0  0
    8.5979  -17.0177   20.1308 O   0  0  0  0  0  0  0  0  0  0  0  0
   10.7093  -16.5988   19.3544 N   0  0  0  0  0  0  0  0  0  0  0  0
   11.2886  -17.4122   20.3971 C   0  0  1  0  0  0  0  0  0  0  0  0
   12.6997  -17.7311   19.9538 C   0  0  0  0  0  0  0  0  0  0  0  0
   13.4707  -18.4963   20.9849 C   0  0  0  0  0  0  0  0  0  0  0  0
   14.8500  -18.8163   20.6299 C   0  0  0  0  0  0  0  0  0  0  0  0
   15.8066  -18.6219   21.3874 O   0  0  0  0  0  0  0  0  0  0  0  0
   11.2783  -16.6279   21.6560 C   0  0  0  0  0  0  0  0  0  0  0  0
   11.7715  -15.4756   21.6484 O   0  0  0  0  0  0  0  0  0  0  0  0
   15.1290  -19.3680   19.3842 O   0  0  0  0  0  0  0  0  0  0  0  0
    6.2249  -19.9100   27.3514 N   0  0  0  0  0  0  0  0  0  0  0  0
    7.5187  -20.4587   27.4476 C   0  0  0  0  0  0  0  0  0  0  0  0
    7.7021  -21.5359   28.1638 N   0  0  0  0  0  0  0  0  0  0  0  0
    8.6403  -19.8786   26.7881 N   0  0  0  0  0  0  0  0  0  0  0  0
    8.4546  -18.6066   26.1660 C   0  0  0  0  0  0  0  0  0  0  0  0
    9.6671  -18.0513   25.4949 C   0  0  0  0  0  0  0  0  0  0  0  0
    9.4807  -16.6948   24.9022 C   0  0  0  0  0  0  0  0  0  0  0  0
   10.7124  -16.3262   24.0652 C   0  0  2  0  0  0  0  0  0  0  0  0
   10.7302  -17.1359   22.8662 N   0  0  0  0  0  0  0  0  0  0  0  0
   11.9583  -16.5531   24.8333 C   0  0  0  0  0  0  0  0  0  0  0  0
   12.3309  -15.6244   25.7896 O   0  0  0  0  0  0  0  0  0  0  0  0
   12.7006  -17.5487   24.6635 O   0  0  0  0  0  0  0  0  0  0  0  0
  1  2  1  0
  2  3  2  0
  4  5  1  0
  4  2  1  0
  5  6  1  1
  7  8  2  0
  7  5  1  0
  9  7  1  0
 10  9  1  0
 11 12  1  0
 10 11  1  6
 12 13  1  0
 13 14  2  0
 15 16  2  0
 15 10  1  0
 17 13  1  0
 19 18  1  0
 20 19  2  0
 21 19  1  0
 22 21  1  0
 23 22  1  0
 23 24  1  0
 25 24  1  1
 25 26  1  0
 26 15  1  0
 27 25  1  0
 28 27  1  0
 29 27  2  0
M  END
$$$$
