NER.pdb
     RDKit          3D

 29 28  0  0  1  0  0  0  0  0999 V2000
    8.0607  -12.5743   18.8073 N   0  0  0  0  0  0  0  0  0  0  0  0
    7.7189  -13.3184   17.6433 C   0  0  0  0  0  0  0  0  0  0  0  0
    6.6667  -13.0817   17.0176 O   0  0  0  0  0  0  0  0  0  0  0  0
    8.6663  -14.3786   17.2155 C   0  0  0  0  0  0  0  0  0  0  0  0
    9.7748  -14.4506   18.2340 C   0  0  2  0  0  0  0  0  0  0  0  0
   10.9508  -15.0956   17.6919 N   0  0  0  0  0  0  0  0  0  0  0  0
    9.3503  -15.2052   19.4393 C   0  0  0  0  0  0  0  0  0  0  0  0
    8.3348  -14.8551   20.1142 O   0  0  0  0  0  0  0  0  0  0  0  0
   10.0580  -16.3433   19.8859 N   0  0  0  0  0  0  0  0  0  0  0  0
    9.6010  -17.0976   21.0290 C   0  0  1  0  0  0  0  0  0  0  0  0
   10.3044  -18.4357   20.9651 C   0  0  0  0  0  0  0  0  0  0  0  0
    9.9701  -19.3208   22.1261 C   0  0  0  0  0  0  0  0  0  0  0  0
   10.5662  -20.6528   22.0938 C   0  0  0  0  0  0  0  0  0  0  0  0
   11.6346  -20.9302   22.6491 O   0  0  0  0  0  0  0  0  0  0  0  0
    9.9682  -16.3483   22.2553 C   0  0  0  0  0  0  0  0  0  0  0  0
   11.0493  -15.7142   22.2691 O   0  0  0  0  0  0  0  0  0  0  0  0
    9.9208  -21.6786   21.4117 O   0  0  0  0  0  0  0  0  0  0  0  0
    6.2215  -10.2688   26.1245 N   0  0  0  0  0  0  0  0  0  0  0  0
    6.0001  -11.5910   26.5568 C   0  0  0  0  0  0  0  0  0  0  0  0
    5.2381  -11.8019   27.5969 N   0  0  0  0  0  0  0  0  0  0  0  0
    6.5799  -12.7126   25.8970 N   0  0  0  0  0  0  0  0  0  0  0  0
    7.3721  -12.4583   24.7363 C   0  0  0  0  0  0  0  0  0  0  0  0
    7.9846  -13.6697   24.1147 C   0  0  0  0  0  0  0  0  0  0  0  0
    8.3001  -14.7667   25.0754 C   0  0  0  0  0  0  0  0  0  0  0  0
    9.5185  -15.5532   24.5751 C   0  0  2  0  0  0  0  0  0  0  0  0
    9.1393  -16.3244   23.4110 N   0  0  0  0  0  0  0  0  0  0  0  0
   10.0260  -16.4639   25.6273 C   0  0  0  0  0  0  0  0  0  0  0  0
   10.6998  -15.9236   26.7088 O   0  0  0  0  0  0  0  0  0  0  0  0
    9.8776  -17.7080   25.5918 O   0  0  0  0  0  0  0  0  0  0  0  0
  1  2  1  0
  2  3  2  0
  4  5  1  0
  4  2  1  0
  5  6  1  6
  7  8  2  0
  7  5  1  0
  9  7  1  0
 10  9  1  0
 11 12  1  0
 10 11  1  1
 12 13  1  0
 13 14  2  0
 15 16  2  0
 15 10  1  0
 17 13  1  0
 19 18  1  0
 20 19  2  0
 21 19  1  0
 22 21  1  0
 23 22  1  0
 23 24  1  0
 25 24  1  1
 25 26  1  0
 26 15  1  0
 27 25  1  0
 28 27  1  0
 29 27  2  0
M  END
$$$$
