GWF.pdb
     RDKit          3D

 30 32  0  0  1  0  0  0  0  0999 V2000
    6.9601  -15.4073   19.0920 N   0  0  0  0  0  0  0  0  0  0  0  0
    7.7815  -16.4931   19.6155 C   0  0  0  0  0  0  0  0  0  0  0  0
    8.3304  -16.1514   20.9572 C   0  0  0  0  0  0  0  0  0  0  0  0
    9.0835  -15.1659   21.0456 O   0  0  0  0  0  0  0  0  0  0  0  0
    8.0265  -16.9022   22.1195 N   0  0  0  0  0  0  0  0  0  0  0  0
    8.4765  -16.6438   23.4431 C   0  0  1  0  0  0  0  0  0  0  0  0
    7.5625  -17.1374   24.5530 C   0  0  0  0  0  0  0  0  0  0  0  0
    6.7927  -15.9775   25.0939 C   0  0  0  0  0  0  0  0  0  0  0  0
    5.5745  -15.9125   25.7194 C   0  0  0  0  0  0  0  0  0  0  0  0
    5.2968  -14.6116   26.0249 N   0  0  0  0  0  0  0  0  0  0  0  0
    6.2904  -13.8334   25.6210 C   0  0  0  0  0  0  0  0  0  0  0  0
    6.5477  -12.4709   25.6696 C   0  0  0  0  0  0  0  0  0  0  0  0
    7.7160  -11.9587   25.1500 C   0  0  0  0  0  0  0  0  0  0  0  0
    8.6567  -12.7815   24.5708 C   0  0  0  0  0  0  0  0  0  0  0  0
    8.3891  -14.1402   24.5276 C   0  0  0  0  0  0  0  0  0  0  0  0
    7.2372  -14.6424   25.0394 C   0  0  0  0  0  0  0  0  0  0  0  0
    9.9048  -16.8763   23.6960 C   0  0  0  0  0  0  0  0  0  0  0  0
   10.6057  -17.6494   23.0043 O   0  0  0  0  0  0  0  0  0  0  0  0
   10.5117  -16.1884   24.7775 N   0  0  0  0  0  0  0  0  0  0  0  0
   11.9014  -16.4366   25.1211 C   0  0  1  0  0  0  0  0  0  0  0  0
   12.4790  -15.3419   25.9506 C   0  0  0  0  0  0  0  0  0  0  0  0
   11.5867  -15.0124   27.0657 C   0  0  0  0  0  0  0  0  0  0  0  0
   10.6784  -13.9713   26.9448 C   0  0  0  0  0  0  0  0  0  0  0  0
    9.8311  -13.6585   27.9593 C   0  0  0  0  0  0  0  0  0  0  0  0
    9.8959  -14.4034   29.1169 C   0  0  0  0  0  0  0  0  0  0  0  0
   10.7912  -15.4433   29.2593 C   0  0  0  0  0  0  0  0  0  0  0  0
   11.6502  -15.7610   28.2312 C   0  0  0  0  0  0  0  0  0  0  0  0
   11.9919  -17.7777   25.7094 C   0  0  0  0  0  0  0  0  0  0  0  0
   13.0870  -18.3683   25.9797 O   0  0  0  0  0  0  0  0  0  0  0  0
   10.8225  -18.5005   26.0143 O   0  0  0  0  0  0  0  0  0  0  0  0
  2  1  1  0
  3  2  1  0
  4  3  2  0
  5  3  1  0
  6 17  1  0
  6  5  1  0
  6  7  1  1
  8  7  1  0
  8 16  1  0
  9  8  2  0
 10  9  1  0
 10 11  1  0
 11 12  1  0
 11 16  2  0
 12 13  2  0
 13 14  1  0
 15 14  2  0
 16 15  1  0
 17 18  2  0
 19 20  1  0
 19 17  1  0
 21 22  1  0
 20 21  1  1
 22 23  2  0
 23 24  1  0
 25 24  2  0
 26 25  1  0
 27 26  2  0
 27 22  1  0
 28 20  1  0
 29 28  2  0
 30 28  1  0
M  END
$$$$
