GWF.pdb
     RDKit          3D

 30 32  0  0  1  0  0  0  0  0999 V2000
    8.4520  -17.0501   18.2971 N   0  0  0  0  0  0  0  0  0  0  0  0
    8.0444  -17.8968   19.4127 C   0  0  0  0  0  0  0  0  0  0  0  0
    8.2940  -17.2224   20.7170 C   0  0  0  0  0  0  0  0  0  0  0  0
    8.9589  -16.1717   20.7124 O   0  0  0  0  0  0  0  0  0  0  0  0
    7.8052  -17.7319   21.9452 N   0  0  0  0  0  0  0  0  0  0  0  0
    8.0501  -17.2072   23.2435 C   0  0  1  0  0  0  0  0  0  0  0  0
    6.9274  -17.4009   24.2500 C   0  0  0  0  0  0  0  0  0  0  0  0
    6.6978  -16.1119   24.9686 C   0  0  0  0  0  0  0  0  0  0  0  0
    6.0200  -15.8296   26.1263 C   0  0  0  0  0  0  0  0  0  0  0  0
    6.0916  -14.4889   26.3716 N   0  0  0  0  0  0  0  0  0  0  0  0
    6.7912  -13.8942   25.4162 C   0  0  0  0  0  0  0  0  0  0  0  0
    7.1798  -12.5877   25.1571 C   0  0  0  0  0  0  0  0  0  0  0  0
    7.9349  -12.2880   24.0448 C   0  0  0  0  0  0  0  0  0  0  0  0
    8.3235  -13.2727   23.1634 C   0  0  0  0  0  0  0  0  0  0  0  0
    7.9296  -14.5736   23.4320 C   0  0  0  0  0  0  0  0  0  0  0  0
    7.1850  -14.8664   24.5279 C   0  0  0  0  0  0  0  0  0  0  0  0
    9.3926  -17.4420   23.7919 C   0  0  0  0  0  0  0  0  0  0  0  0
   10.0555  -18.4784   23.5596 O   0  0  0  0  0  0  0  0  0  0  0  0
    9.9582  -16.4423   24.6234 N   0  0  0  0  0  0  0  0  0  0  0  0
   11.2762  -16.6278   25.2060 C   0  0  1  0  0  0  0  0  0  0  0  0
   11.8167  -15.3663   25.7859 C   0  0  0  0  0  0  0  0  0  0  0  0
   10.9170  -14.8452   26.8191 C   0  0  0  0  0  0  0  0  0  0  0  0
    9.9371  -13.9219   26.4862 C   0  0  0  0  0  0  0  0  0  0  0  0
    9.0824  -13.4375   27.4243 C   0  0  0  0  0  0  0  0  0  0  0  0
    9.2127  -13.8872   28.7204 C   0  0  0  0  0  0  0  0  0  0  0  0
   10.1799  -14.8052   29.0742 C   0  0  0  0  0  0  0  0  0  0  0  0
   11.0466  -15.2967   28.1238 C   0  0  0  0  0  0  0  0  0  0  0  0
   11.2071  -17.7609   26.1356 C   0  0  0  0  0  0  0  0  0  0  0  0
   10.1221  -18.2543   26.5833 O   0  0  0  0  0  0  0  0  0  0  0  0
   12.3873  -18.3788   26.5922 O   0  0  0  0  0  0  0  0  0  0  0  0
  2  1  1  0
  3  2  1  0
  4  3  2  0
  5  3  1  0
  6 17  1  0
  6  5  1  0
  6  7  1  1
  8  7  1  0
  8 16  1  0
  9  8  2  0
 10  9  1  0
 10 11  1  0
 11 12  1  0
 11 16  2  0
 12 13  2  0
 13 14  1  0
 15 14  2  0
 16 15  1  0
 17 18  2  0
 19 20  1  0
 19 17  1  0
 21 22  1  0
 20 21  1  1
 22 23  2  0
 23 24  1  0
 25 24  2  0
 26 25  1  0
 27 26  2  0
 27 22  1  0
 28 20  1  0
 29 28  2  0
 30 28  1  0
M  END
$$$$
