GWF.pdb
     RDKit          3D

 30 32  0  0  1  0  0  0  0  0999 V2000
   13.0945  -15.1625   20.4934 N   0  0  0  0  0  0  0  0  0  0  0  0
   12.0312  -16.1520   20.6275 C   0  0  0  0  0  0  0  0  0  0  0  0
   11.3217  -16.0037   21.9285 C   0  0  0  0  0  0  0  0  0  0  0  0
   11.9348  -15.4706   22.8698 O   0  0  0  0  0  0  0  0  0  0  0  0
    9.9898  -16.4442   22.1256 N   0  0  0  0  0  0  0  0  0  0  0  0
    9.2420  -16.3842   23.3333 C   0  0  1  0  0  0  0  0  0  0  0  0
    7.7590  -16.0917   23.1707 C   0  0  0  0  0  0  0  0  0  0  0  0
    7.2421  -15.5053   24.4433 C   0  0  0  0  0  0  0  0  0  0  0  0
    6.5369  -16.0656   25.4769 C   0  0  0  0  0  0  0  0  0  0  0  0
    6.2918  -15.1110   26.4211 N   0  0  0  0  0  0  0  0  0  0  0  0
    6.8131  -13.9549   26.0368 C   0  0  0  0  0  0  0  0  0  0  0  0
    6.8752  -12.6804   26.5818 C   0  0  0  0  0  0  0  0  0  0  0  0
    7.5178  -11.6621   25.9130 C   0  0  0  0  0  0  0  0  0  0  0  0
    8.1139  -11.8802   24.6904 C   0  0  0  0  0  0  0  0  0  0  0  0
    8.0455  -13.1566   24.1558 C   0  0  0  0  0  0  0  0  0  0  0  0
    7.4112  -14.1580   24.8161 C   0  0  0  0  0  0  0  0  0  0  0  0
    9.5419  -17.4206   24.3302 C   0  0  0  0  0  0  0  0  0  0  0  0
    9.9938  -18.5490   24.0302 O   0  0  0  0  0  0  0  0  0  0  0  0
    9.3055  -17.1212   25.6960 N   0  0  0  0  0  0  0  0  0  0  0  0
    9.8197  -17.9907   26.7403 C   0  0  1  0  0  0  0  0  0  0  0  0
    9.5109  -17.4748   28.1035 C   0  0  0  0  0  0  0  0  0  0  0  0
    9.4268  -16.0115   28.0957 C   0  0  0  0  0  0  0  0  0  0  0  0
   10.5826  -15.2494   28.0130 C   0  0  0  0  0  0  0  0  0  0  0  0
   10.5274  -13.8924   27.9884 C   0  0  0  0  0  0  0  0  0  0  0  0
    9.2903  -13.2882   28.0479 C   0  0  0  0  0  0  0  0  0  0  0  0
    8.1276  -14.0263   28.1304 C   0  0  0  0  0  0  0  0  0  0  0  0
    8.1828  -15.4018   28.1553 C   0  0  0  0  0  0  0  0  0  0  0  0
    9.3499  -19.3540   26.4693 C   0  0  0  0  0  0  0  0  0  0  0  0
    8.5291  -19.6577   25.5446 O   0  0  0  0  0  0  0  0  0  0  0  0
    9.8059  -20.4319   27.2526 O   0  0  0  0  0  0  0  0  0  0  0  0
  2  1  1  0
  3  2  1  0
  4  3  2  0
  5  3  1  0
  6 17  1  0
  6  5  1  0
  6  7  1  6
  8  7  1  0
  8 16  1  0
  9  8  2  0
 10  9  1  0
 10 11  1  0
 11 12  1  0
 11 16  2  0
 12 13  2  0
 13 14  1  0
 15 14  2  0
 16 15  1  0
 17 18  2  0
 19 20  1  0
 19 17  1  0
 21 22  1  0
 20 21  1  1
 22 23  2  0
 23 24  1  0
 25 24  2  0
 26 25  1  0
 27 26  2  0
 27 22  1  0
 28 20  1  0
 29 28  2  0
 30 28  1  0
M  END
$$$$
