GWF.pdb
     RDKit          3D

 30 32  0  0  1  0  0  0  0  0999 V2000
    7.4618  -22.2488   21.5899 N   0  0  0  0  0  0  0  0  0  0  0  0
    6.8396  -21.5398   22.7024 C   0  0  0  0  0  0  0  0  0  0  0  0
    7.3586  -20.1479   22.8088 C   0  0  0  0  0  0  0  0  0  0  0  0
    8.4972  -19.9146   22.3669 O   0  0  0  0  0  0  0  0  0  0  0  0
    6.6076  -19.0959   23.3889 N   0  0  0  0  0  0  0  0  0  0  0  0
    7.0611  -17.7775   23.6668 C   0  0  1  0  0  0  0  0  0  0  0  0
    6.0557  -16.6695   23.3977 C   0  0  0  0  0  0  0  0  0  0  0  0
    6.7921  -15.3798   23.2391 C   0  0  0  0  0  0  0  0  0  0  0  0
    7.6225  -14.9282   22.2461 C   0  0  0  0  0  0  0  0  0  0  0  0
    8.0569  -13.6735   22.5617 N   0  0  0  0  0  0  0  0  0  0  0  0
    7.5376  -13.2968   23.7212 C   0  0  0  0  0  0  0  0  0  0  0  0
    7.6219  -12.1560   24.5064 C   0  0  0  0  0  0  0  0  0  0  0  0
    6.9320  -12.0703   25.6954 C   0  0  0  0  0  0  0  0  0  0  0  0
    6.1427  -13.1101   26.1354 C   0  0  0  0  0  0  0  0  0  0  0  0
    6.0662  -14.2442   25.3434 C   0  0  0  0  0  0  0  0  0  0  0  0
    6.7474  -14.3267   24.1728 C   0  0  0  0  0  0  0  0  0  0  0  0
    7.8223  -17.6058   24.9115 C   0  0  0  0  0  0  0  0  0  0  0  0
    7.3031  -17.6847   26.0480 O   0  0  0  0  0  0  0  0  0  0  0  0
    9.2113  -17.3379   24.8128 N   0  0  0  0  0  0  0  0  0  0  0  0
    9.8608  -16.4557   25.7672 C   0  0  1  0  0  0  0  0  0  0  0  0
    9.1640  -16.4423   27.0841 C   0  0  0  0  0  0  0  0  0  0  0  0
    9.8576  -15.5601   28.0270 C   0  0  0  0  0  0  0  0  0  0  0  0
   10.6475  -16.0996   29.0312 C   0  0  0  0  0  0  0  0  0  0  0  0
   11.3119  -15.3009   29.9062 C   0  0  0  0  0  0  0  0  0  0  0  0
   11.1817  -13.9355   29.7719 C   0  0  0  0  0  0  0  0  0  0  0  0
   10.4016  -13.3769   28.7807 C   0  0  0  0  0  0  0  0  0  0  0  0
    9.7279  -14.1860   27.8933 C   0  0  0  0  0  0  0  0  0  0  0  0
   11.2836  -16.8105   25.8192 C   0  0  0  0  0  0  0  0  0  0  0  0
   11.7264  -18.0029   25.7645 O   0  0  0  0  0  0  0  0  0  0  0  0
   12.2630  -15.8053   25.9362 O   0  0  0  0  0  0  0  0  0  0  0  0
  2  1  1  0
  3  2  1  0
  4  3  2  0
  5  3  1  0
  6 17  1  0
  6  5  1  0
  6  7  1  1
  8  7  1  0
  8 16  1  0
  9  8  2  0
 10  9  1  0
 10 11  1  0
 11 12  1  0
 11 16  2  0
 12 13  2  0
 13 14  1  0
 15 14  2  0
 16 15  1  0
 17 18  2  0
 19 20  1  0
 19 17  1  0
 21 22  1  0
 20 21  1  1
 22 23  2  0
 23 24  1  0
 25 24  2  0
 26 25  1  0
 27 26  2  0
 27 22  1  0
 28 20  1  0
 29 28  2  0
 30 28  1  0
M  END
$$$$
