GWF.pdb
     RDKit          3D

 30 32  0  0  1  0  0  0  0  0999 V2000
   12.2568  -15.4454   19.7866 N   0  0  0  0  0  0  0  0  0  0  0  0
   12.0557  -16.5113   20.7618 C   0  0  0  0  0  0  0  0  0  0  0  0
   11.2519  -16.0331   21.9209 C   0  0  0  0  0  0  0  0  0  0  0  0
   11.6007  -14.9767   22.4763 O   0  0  0  0  0  0  0  0  0  0  0  0
   10.1189  -16.7329   22.4042 N   0  0  0  0  0  0  0  0  0  0  0  0
    9.2826  -16.3547   23.4899 C   0  0  1  0  0  0  0  0  0  0  0  0
    7.8797  -16.9398   23.4698 C   0  0  0  0  0  0  0  0  0  0  0  0
    7.0901  -16.2596   22.4000 C   0  0  0  0  0  0  0  0  0  0  0  0
    5.8897  -16.5789   21.8197 C   0  0  0  0  0  0  0  0  0  0  0  0
    5.5840  -15.6399   20.8776 N   0  0  0  0  0  0  0  0  0  0  0  0
    6.5414  -14.7251   20.8280 C   0  0  0  0  0  0  0  0  0  0  0  0
    6.7553  -13.5721   20.0864 C   0  0  0  0  0  0  0  0  0  0  0  0
    7.8860  -12.8107   20.2840 C   0  0  0  0  0  0  0  0  0  0  0  0
    8.8309  -13.1713   21.2193 C   0  0  0  0  0  0  0  0  0  0  0  0
    8.6069  -14.3244   21.9538 C   0  0  0  0  0  0  0  0  0  0  0  0
    7.4927  -15.0734   21.7569 C   0  0  0  0  0  0  0  0  0  0  0  0
    9.9109  -16.3516   24.8178 C   0  0  0  0  0  0  0  0  0  0  0  0
   11.0557  -16.8097   25.0348 O   0  0  0  0  0  0  0  0  0  0  0  0
    9.1793  -15.8018   25.9011 N   0  0  0  0  0  0  0  0  0  0  0  0
    9.7438  -15.7886   27.2397 C   0  0  1  0  0  0  0  0  0  0  0  0
    8.9513  -14.9421   28.1753 C   0  0  0  0  0  0  0  0  0  0  0  0
    8.4391  -13.7527   27.4885 C   0  0  0  0  0  0  0  0  0  0  0  0
    7.1444  -13.7406   26.9916 C   0  0  0  0  0  0  0  0  0  0  0  0
    6.6437  -12.6439   26.3657 C   0  0  0  0  0  0  0  0  0  0  0  0
    7.4565  -11.5387   26.2356 C   0  0  0  0  0  0  0  0  0  0  0  0
    8.7474  -11.5283   26.7223 C   0  0  0  0  0  0  0  0  0  0  0  0
    9.2555  -12.6396   27.3569 C   0  0  0  0  0  0  0  0  0  0  0  0
    9.9333  -17.1794   27.6671 C   0  0  0  0  0  0  0  0  0  0  0  0
    9.4173  -18.1849   27.0809 O   0  0  0  0  0  0  0  0  0  0  0  0
   10.7280  -17.4756   28.7913 O   0  0  0  0  0  0  0  0  0  0  0  0
  2  1  1  0
  3  2  1  0
  4  3  2  0
  5  3  1  0
  6 17  1  0
  6  5  1  0
  6  7  1  1
  8  7  1  0
  8 16  1  0
  9  8  2  0
 10  9  1  0
 10 11  1  0
 11 12  1  0
 11 16  2  0
 12 13  2  0
 13 14  1  0
 15 14  2  0
 16 15  1  0
 17 18  2  0
 19 20  1  0
 19 17  1  0
 21 22  1  0
 20 21  1  1
 22 23  2  0
 23 24  1  0
 25 24  2  0
 26 25  1  0
 27 26  2  0
 27 22  1  0
 28 20  1  0
 29 28  2  0
 30 28  1  0
M  END
$$$$
