GWF.pdb
     RDKit          3D

 30 32  0  0  1  0  0  0  0  0999 V2000
    6.6305  -22.2539   24.5047 N   0  0  0  0  0  0  0  0  0  0  0  0
    6.6591  -21.1083   25.4071 C   0  0  0  0  0  0  0  0  0  0  0  0
    7.1975  -19.8999   24.7228 C   0  0  0  0  0  0  0  0  0  0  0  0
    8.1134  -20.0570   23.8967 O   0  0  0  0  0  0  0  0  0  0  0  0
    6.7067  -18.5959   24.9791 N   0  0  0  0  0  0  0  0  0  0  0  0
    7.2837  -17.3688   24.5521 C   0  0  1  0  0  0  0  0  0  0  0  0
    6.2952  -16.2779   24.1729 C   0  0  0  0  0  0  0  0  0  0  0  0
    6.7055  -15.6915   22.8620 C   0  0  0  0  0  0  0  0  0  0  0  0
    6.7631  -16.2364   21.6053 C   0  0  0  0  0  0  0  0  0  0  0  0
    7.2096  -15.2915   20.7275 N   0  0  0  0  0  0  0  0  0  0  0  0
    7.4418  -14.1559   21.3697 C   0  0  0  0  0  0  0  0  0  0  0  0
    7.8883  -12.8957   20.9984 C   0  0  0  0  0  0  0  0  0  0  0  0
    8.0207  -11.8945   21.9350 C   0  0  0  0  0  0  0  0  0  0  0  0
    7.7146  -12.1157   23.2597 C   0  0  0  0  0  0  0  0  0  0  0  0
    7.2699  -13.3777   23.6189 C   0  0  0  0  0  0  0  0  0  0  0  0
    7.1410  -14.3628   22.6947 C   0  0  0  0  0  0  0  0  0  0  0  0
    8.4331  -16.8903   25.3320 C   0  0  0  0  0  0  0  0  0  0  0  0
    8.4066  -16.7517   26.5760 O   0  0  0  0  0  0  0  0  0  0  0  0
    9.6265  -16.5720   24.6351 N   0  0  0  0  0  0  0  0  0  0  0  0
   10.7617  -16.0025   25.3407 C   0  0  1  0  0  0  0  0  0  0  0  0
   10.6624  -16.1974   26.8145 C   0  0  0  0  0  0  0  0  0  0  0  0
    9.7890  -15.1835   27.4124 C   0  0  0  0  0  0  0  0  0  0  0  0
    9.5074  -14.0141   26.7220 C   0  0  0  0  0  0  0  0  0  0  0  0
    8.6882  -13.0679   27.2499 C   0  0  0  0  0  0  0  0  0  0  0  0
    8.1410  -13.2986   28.4935 C   0  0  0  0  0  0  0  0  0  0  0  0
    8.4071  -14.4544   29.1982 C   0  0  0  0  0  0  0  0  0  0  0  0
    9.2373  -15.4139   28.6636 C   0  0  0  0  0  0  0  0  0  0  0  0
   11.9875  -16.5229   24.7250 C   0  0  0  0  0  0  0  0  0  0  0  0
   13.1618  -16.1383   25.0319 O   0  0  0  0  0  0  0  0  0  0  0  0
   11.9162  -17.5128   23.7258 O   0  0  0  0  0  0  0  0  0  0  0  0
  2  1  1  0
  3  2  1  0
  4  3  2  0
  5  3  1  0
  6 17  1  0
  6  5  1  0
  6  7  1  1
  8  7  1  0
  8 16  1  0
  9  8  2  0
 10  9  1  0
 10 11  1  0
 11 12  1  0
 11 16  2  0
 12 13  2  0
 13 14  1  0
 15 14  2  0
 16 15  1  0
 17 18  2  0
 19 20  1  0
 19 17  1  0
 21 22  1  0
 20 21  1  1
 22 23  2  0
 23 24  1  0
 25 24  2  0
 26 25  1  0
 27 26  2  0
 27 22  1  0
 28 20  1  0
 29 28  2  0
 30 28  1  0
M  END
$$$$
