GWF.pdb
     RDKit          3D

 30 32  0  0  1  0  0  0  0  0999 V2000
   10.3298  -19.5681   20.1223 N   0  0  0  0  0  0  0  0  0  0  0  0
   10.0784  -19.6476   21.5569 C   0  0  0  0  0  0  0  0  0  0  0  0
    9.8619  -18.2940   22.1393 C   0  0  0  0  0  0  0  0  0  0  0  0
   10.7560  -17.4435   21.9863 O   0  0  0  0  0  0  0  0  0  0  0  0
    8.6870  -17.9490   22.8517 N   0  0  0  0  0  0  0  0  0  0  0  0
    8.4249  -16.7221   23.5203 C   0  0  1  0  0  0  0  0  0  0  0  0
    7.0627  -16.1055   23.2460 C   0  0  0  0  0  0  0  0  0  0  0  0
    6.9996  -15.6976   21.8107 C   0  0  0  0  0  0  0  0  0  0  0  0
    6.5811  -16.3753   20.6949 C   0  0  0  0  0  0  0  0  0  0  0  0
    6.7213  -15.5693   19.6025 N   0  0  0  0  0  0  0  0  0  0  0  0
    7.2139  -14.3955   19.9706 C   0  0  0  0  0  0  0  0  0  0  0  0
    7.5484  -13.2236   19.3075 C   0  0  0  0  0  0  0  0  0  0  0  0
    8.0479  -12.1434   20.0010 C   0  0  0  0  0  0  0  0  0  0  0  0
    8.2280  -12.1968   21.3656 C   0  0  0  0  0  0  0  0  0  0  0  0
    7.8908  -13.3721   22.0172 C   0  0  0  0  0  0  0  0  0  0  0  0
    7.3996  -14.4352   21.3319 C   0  0  0  0  0  0  0  0  0  0  0  0
    8.8411  -16.6522   24.9275 C   0  0  0  0  0  0  0  0  0  0  0  0
    8.4965  -17.4956   25.7862 O   0  0  0  0  0  0  0  0  0  0  0  0
    9.6731  -15.5747   25.3246 N   0  0  0  0  0  0  0  0  0  0  0  0
    9.9409  -15.3308   26.7316 C   0  0  1  0  0  0  0  0  0  0  0  0
    8.6985  -15.0252   27.4951 C   0  0  0  0  0  0  0  0  0  0  0  0
    8.0470  -13.8247   26.9633 C   0  0  0  0  0  0  0  0  0  0  0  0
    8.7380  -12.6233   26.9132 C   0  0  0  0  0  0  0  0  0  0  0  0
    8.1596  -11.5021   26.4099 C   0  0  0  0  0  0  0  0  0  0  0  0
    6.8639  -11.5870   25.9483 C   0  0  0  0  0  0  0  0  0  0  0  0
    6.1575  -12.7714   25.9883 C   0  0  0  0  0  0  0  0  0  0  0  0
    6.7433  -13.9083   26.4982 C   0  0  0  0  0  0  0  0  0  0  0  0
   10.7271  -16.4574   27.2469 C   0  0  0  0  0  0  0  0  0  0  0  0
   11.0857  -16.5836   28.4620 O   0  0  0  0  0  0  0  0  0  0  0  0
   11.1362  -17.4924   26.3839 O   0  0  0  0  0  0  0  0  0  0  0  0
  2  1  1  0
  3  2  1  0
  4  3  2  0
  5  3  1  0
  6 17  1  0
  6  5  1  0
  6  7  1  1
  8  7  1  0
  8 16  1  0
  9  8  2  0
 10  9  1  0
 10 11  1  0
 11 12  1  0
 11 16  2  0
 12 13  2  0
 13 14  1  0
 15 14  2  0
 16 15  1  0
 17 18  2  0
 19 20  1  0
 19 17  1  0
 21 22  1  0
 20 21  1  1
 22 23  2  0
 23 24  1  0
 25 24  2  0
 26 25  1  0
 27 26  2  0
 27 22  1  0
 28 20  1  0
 29 28  2  0
 30 28  1  0
M  END
$$$$
