GWF.pdb
     RDKit          3D

 30 32  0  0  1  0  0  0  0  0999 V2000
   10.2735  -17.3135   18.5494 N   0  0  0  0  0  0  0  0  0  0  0  0
    9.9620  -18.1825   19.6787 C   0  0  0  0  0  0  0  0  0  0  0  0
    9.8929  -17.4074   20.9487 C   0  0  0  0  0  0  0  0  0  0  0  0
   10.8141  -16.6098   21.1960 O   0  0  0  0  0  0  0  0  0  0  0  0
    8.8265  -17.5475   21.8708 N   0  0  0  0  0  0  0  0  0  0  0  0
    8.7452  -16.9814   23.1723 C   0  0  1  0  0  0  0  0  0  0  0  0
    7.3625  -16.5141   23.5974 C   0  0  0  0  0  0  0  0  0  0  0  0
    7.3427  -15.0208   23.6116 C   0  0  0  0  0  0  0  0  0  0  0  0
    7.6371  -14.1027   22.6370 C   0  0  0  0  0  0  0  0  0  0  0  0
    7.4710  -12.8454   23.1413 N   0  0  0  0  0  0  0  0  0  0  0  0
    7.0794  -12.9165   24.4052 C   0  0  0  0  0  0  0  0  0  0  0  0
    6.7629  -11.9867   25.3852 C   0  0  0  0  0  0  0  0  0  0  0  0
    6.3707  -12.3964   26.6404 C   0  0  0  0  0  0  0  0  0  0  0  0
    6.2821  -13.7344   26.9556 C   0  0  0  0  0  0  0  0  0  0  0  0
    6.6008  -14.6539   25.9695 C   0  0  0  0  0  0  0  0  0  0  0  0
    6.9877  -14.2480   24.7339 C   0  0  0  0  0  0  0  0  0  0  0  0
    9.4917  -17.6797   24.2276 C   0  0  0  0  0  0  0  0  0  0  0  0
    9.4657  -18.9225   24.3769 O   0  0  0  0  0  0  0  0  0  0  0  0
   10.2770  -16.9018   25.1159 N   0  0  0  0  0  0  0  0  0  0  0  0
   11.1286  -17.5450   26.1019 C   0  0  1  0  0  0  0  0  0  0  0  0
   12.0880  -16.5898   26.7241 C   0  0  0  0  0  0  0  0  0  0  0  0
   11.3718  -15.5377   27.4511 C   0  0  0  0  0  0  0  0  0  0  0  0
   11.0701  -15.7031   28.7946 C   0  0  0  0  0  0  0  0  0  0  0  0
   10.4212  -14.7347   29.4919 C   0  0  0  0  0  0  0  0  0  0  0  0
   10.0680  -13.5789   28.8297 C   0  0  0  0  0  0  0  0  0  0  0  0
   10.3580  -13.3927   27.4939 C   0  0  0  0  0  0  0  0  0  0  0  0
   11.0159  -14.3738   26.7864 C   0  0  0  0  0  0  0  0  0  0  0  0
   10.2671  -18.2658   27.0458 C   0  0  0  0  0  0  0  0  0  0  0  0
    9.0099  -18.0907   27.1448 O   0  0  0  0  0  0  0  0  0  0  0  0
   10.8160  -19.2237   27.9201 O   0  0  0  0  0  0  0  0  0  0  0  0
  2  1  1  0
  3  2  1  0
  4  3  2  0
  5  3  1  0
  6 17  1  0
  6  5  1  0
  6  7  1  1
  8  7  1  0
  8 16  1  0
  9  8  2  0
 10  9  1  0
 10 11  1  0
 11 12  1  0
 11 16  2  0
 12 13  2  0
 13 14  1  0
 15 14  2  0
 16 15  1  0
 17 18  2  0
 19 20  1  0
 19 17  1  0
 21 22  1  0
 20 21  1  1
 22 23  2  0
 23 24  1  0
 25 24  2  0
 26 25  1  0
 27 26  2  0
 27 22  1  0
 28 20  1  0
 29 28  2  0
 30 28  1  0
M  END
$$$$
