GWF.pdb
     RDKit          3D

 30 32  0  0  1  0  0  0  0  0999 V2000
    7.9029  -21.1625   22.3566 N   0  0  0  0  0  0  0  0  0  0  0  0
    7.1570  -20.2603   23.2268 C   0  0  0  0  0  0  0  0  0  0  0  0
    7.6787  -18.8686   23.1300 C   0  0  0  0  0  0  0  0  0  0  0  0
    8.8262  -18.7059   22.6797 O   0  0  0  0  0  0  0  0  0  0  0  0
    6.9205  -17.7403   23.5286 N   0  0  0  0  0  0  0  0  0  0  0  0
    7.4183  -16.4455   23.8400 C   0  0  1  0  0  0  0  0  0  0  0  0
    6.6731  -15.2863   23.1982 C   0  0  0  0  0  0  0  0  0  0  0  0
    6.9148  -15.3158   21.7247 C   0  0  0  0  0  0  0  0  0  0  0  0
    6.5519  -16.2264   20.7663 C   0  0  0  0  0  0  0  0  0  0  0  0
    7.0143  -15.8074   19.5525 N   0  0  0  0  0  0  0  0  0  0  0  0
    7.6618  -14.6595   19.6904 C   0  0  0  0  0  0  0  0  0  0  0  0
    8.3166  -13.7955   18.8244 C   0  0  0  0  0  0  0  0  0  0  0  0
    8.9019  -12.6409   19.2952 C   0  0  0  0  0  0  0  0  0  0  0  0
    8.8532  -12.3138   20.6324 C   0  0  0  0  0  0  0  0  0  0  0  0
    8.1971  -13.1840   21.4878 C   0  0  0  0  0  0  0  0  0  0  0  0
    7.6219  -14.3212   21.0220 C   0  0  0  0  0  0  0  0  0  0  0  0
    7.7874  -16.2163   25.2433 C   0  0  0  0  0  0  0  0  0  0  0  0
    7.0374  -15.6396   26.0632 O   0  0  0  0  0  0  0  0  0  0  0  0
    9.0560  -16.6729   25.6829 N   0  0  0  0  0  0  0  0  0  0  0  0
    9.9234  -15.8033   26.4588 C   0  0  1  0  0  0  0  0  0  0  0  0
    9.2591  -15.3065   27.6965 C   0  0  0  0  0  0  0  0  0  0  0  0
    8.3249  -14.2218   27.3821 C   0  0  0  0  0  0  0  0  0  0  0  0
    6.9696  -14.4868   27.2547 C   0  0  0  0  0  0  0  0  0  0  0  0
    6.0838  -13.4945   26.9792 C   0  0  0  0  0  0  0  0  0  0  0  0
    6.5661  -12.2124   26.8286 C   0  0  0  0  0  0  0  0  0  0  0  0
    7.9100  -11.9256   26.9511 C   0  0  0  0  0  0  0  0  0  0  0  0
    8.8084  -12.9309   27.2303 C   0  0  0  0  0  0  0  0  0  0  0  0
   11.1953  -16.5029   26.6727 C   0  0  0  0  0  0  0  0  0  0  0  0
   12.1840  -16.0126   27.3076 O   0  0  0  0  0  0  0  0  0  0  0  0
   11.3861  -17.8022   26.1642 O   0  0  0  0  0  0  0  0  0  0  0  0
  2  1  1  0
  3  2  1  0
  4  3  2  0
  5  3  1  0
  6 17  1  0
  6  5  1  0
  6  7  1  1
  8  7  1  0
  8 16  1  0
  9  8  2  0
 10  9  1  0
 10 11  1  0
 11 12  1  0
 11 16  2  0
 12 13  2  0
 13 14  1  0
 15 14  2  0
 16 15  1  0
 17 18  2  0
 19 20  1  0
 19 17  1  0
 21 22  1  0
 20 21  1  1
 22 23  2  0
 23 24  1  0
 25 24  2  0
 26 25  1  0
 27 26  2  0
 27 22  1  0
 28 20  1  0
 29 28  2  0
 30 28  1  0
M  END
$$$$
