GWF.pdb
     RDKit          3D

 30 32  0  0  1  0  0  0  0  0999 V2000
    6.7170  -15.8776   19.0634 N   0  0  0  0  0  0  0  0  0  0  0  0
    7.0609  -16.6436   20.2562 C   0  0  0  0  0  0  0  0  0  0  0  0
    7.9768  -15.8731   21.1426 C   0  0  0  0  0  0  0  0  0  0  0  0
    8.7926  -15.1014   20.6089 O   0  0  0  0  0  0  0  0  0  0  0  0
    7.9489  -15.9894   22.5543 N   0  0  0  0  0  0  0  0  0  0  0  0
    9.0592  -15.9074   23.4384 C   0  0  1  0  0  0  0  0  0  0  0  0
    8.7261  -16.0084   24.9182 C   0  0  0  0  0  0  0  0  0  0  0  0
    7.4175  -15.3318   25.1639 C   0  0  0  0  0  0  0  0  0  0  0  0
    6.1528  -15.8373   25.3206 C   0  0  0  0  0  0  0  0  0  0  0  0
    5.2804  -14.8070   25.5209 N   0  0  0  0  0  0  0  0  0  0  0  0
    5.9341  -13.6545   25.5003 C   0  0  0  0  0  0  0  0  0  0  0  0
    5.5740  -12.3228   25.6492 C   0  0  0  0  0  0  0  0  0  0  0  0
    6.5236  -11.3275   25.5794 C   0  0  0  0  0  0  0  0  0  0  0  0
    7.8506  -11.6256   25.3612 C   0  0  0  0  0  0  0  0  0  0  0  0
    8.1985  -12.9586   25.2138 C   0  0  0  0  0  0  0  0  0  0  0  0
    7.2613  -13.9374   25.2821 C   0  0  0  0  0  0  0  0  0  0  0  0
   10.2569  -16.6599   23.0418 C   0  0  0  0  0  0  0  0  0  0  0  0
   10.2171  -17.6728   22.3069 O   0  0  0  0  0  0  0  0  0  0  0  0
   11.5151  -16.2115   23.5182 N   0  0  0  0  0  0  0  0  0  0  0  0
   11.7438  -16.0377   24.9424 C   0  0  1  0  0  0  0  0  0  0  0  0
   10.5149  -15.5944   25.6588 C   0  0  0  0  0  0  0  0  0  0  0  0
   10.7956  -15.3763   27.0807 C   0  0  0  0  0  0  0  0  0  0  0  0
   10.9282  -14.0866   27.5732 C   0  0  0  0  0  0  0  0  0  0  0  0
   11.1727  -13.8605   28.8901 C   0  0  0  0  0  0  0  0  0  0  0  0
   11.2866  -14.9479   29.7289 C   0  0  0  0  0  0  0  0  0  0  0  0
   11.1582  -16.2394   29.2611 C   0  0  0  0  0  0  0  0  0  0  0  0
   10.9103  -16.4694   27.9264 C   0  0  0  0  0  0  0  0  0  0  0  0
   12.3558  -17.2674   25.4582 C   0  0  0  0  0  0  0  0  0  0  0  0
   13.4820  -17.3127   26.0504 O   0  0  0  0  0  0  0  0  0  0  0  0
   11.6965  -18.5036   25.3152 O   0  0  0  0  0  0  0  0  0  0  0  0
  2  1  1  0
  3  2  1  0
  4  3  2  0
  5  3  1  0
  6 17  1  0
  6  5  1  0
  6  7  1  1
  8  7  1  0
  8 16  1  0
  9  8  2  0
 10  9  1  0
 10 11  1  0
 11 12  1  0
 11 16  2  0
 12 13  2  0
 13 14  1  0
 15 14  2  0
 16 15  1  0
 17 18  2  0
 19 20  1  0
 19 17  1  0
 21 22  1  0
 20 21  1  1
 22 23  2  0
 23 24  1  0
 25 24  2  0
 26 25  1  0
 27 26  2  0
 27 22  1  0
 28 20  1  0
 29 28  2  0
 30 28  1  0
M  END
$$$$
