LQH.pdb
     RDKit          3D

 28 28  0  0  1  0  0  0  0  0999 V2000
    6.6114  -11.8007   26.9756 C   0  0  0  0  0  0  0  0  0  0  0  0
    6.0842  -12.8993   26.1074 C   0  0  1  0  0  0  0  0  0  0  0  0
    5.8496  -12.4337   24.6777 C   0  0  0  0  0  0  0  0  0  0  0  0
    7.0418  -14.0387   26.0617 C   0  0  0  0  0  0  0  0  0  0  0  0
    6.5419  -15.1592   25.1885 C   0  0  2  0  0  0  0  0  0  0  0  0
    5.5829  -15.9905   25.8395 N   0  0  0  0  0  0  0  0  0  0  0  0
    7.7301  -15.9098   24.7089 C   0  0  0  0  0  0  0  0  0  0  0  0
    8.1535  -16.8617   25.4095 O   0  0  0  0  0  0  0  0  0  0  0  0
    9.8286  -17.9393   19.2371 N   0  0  0  0  0  0  0  0  0  0  0  0
    8.8078  -17.0055   19.4315 C   0  0  0  0  0  0  0  0  0  0  0  0
    8.2237  -16.4537   18.4862 O   0  0  0  0  0  0  0  0  0  0  0  0
    8.4165  -16.6698   20.8523 C   0  0  0  0  0  0  0  0  0  0  0  0
    9.6654  -16.2909   21.5824 C   0  0  0  0  0  0  0  0  0  0  0  0
    9.4962  -16.4726   23.0739 C   0  0  2  0  0  0  0  0  0  0  0  0
    8.3909  -15.5960   23.5109 N   0  0  0  0  0  0  0  0  0  0  0  0
   10.6824  -15.9993   23.7884 C   0  0  0  0  0  0  0  0  0  0  0  0
   10.7641  -14.8192   24.2736 O   0  0  0  0  0  0  0  0  0  0  0  0
   11.8073  -16.8436   23.9843 N   0  0  0  0  0  0  0  0  0  0  0  0
   12.4922  -16.8340   25.2860 C   0  0  1  0  0  0  0  0  0  0  0  0
   11.4881  -17.4430   26.2520 C   0  0  0  0  0  0  0  0  0  0  0  0
   10.9698  -16.4387   27.2166 C   0  0  0  0  0  0  0  0  0  0  0  0
   11.0969  -15.0615   27.1797 C   0  0  0  0  0  0  0  0  0  0  0  0
   10.4861  -14.5115   28.2387 N   0  0  0  0  0  0  0  0  0  0  0  0
    9.9658  -15.5150   28.9600 C   0  0  0  0  0  0  0  0  0  0  0  0
   10.2610  -16.6876   28.3367 N   0  0  0  0  0  0  0  0  0  0  0  0
   13.7386  -17.5790   25.2231 C   0  0  0  0  0  0  0  0  0  0  0  0
   14.5999  -17.3985   26.1222 O   0  0  0  0  0  0  0  0  0  0  0  0
   14.0417  -18.4851   24.2265 O   0  0  0  0  0  0  0  0  0  0  0  0
  2  1  1  1
  2  4  1  0
  3  2  1  0
  5  6  1  1
  5  4  1  0
  7  5  1  0
  8  7  2  0
  9 10  1  0
 10 12  1  0
 11 10  2  0
 12 13  1  0
 14 13  1  6
 14 15  1  0
 15  7  1  0
 16 14  1  0
 16 17  2  0
 18 16  1  0
 19 20  1  1
 19 18  1  0
 20 21  1  0
 21 22  2  0
 21 25  1  0
 22 23  1  0
 23 24  1  0
 25 24  2  0
 26 19  1  0
 27 26  2  0
 28 26  1  0
M  END
$$$$
