LQH.pdb
     RDKit          3D

 28 28  0  0  1  0  0  0  0  0999 V2000
    7.1865  -13.3276   20.8860 C   0  0  0  0  0  0  0  0  0  0  0  0
    7.7860  -13.5552   19.5341 C   0  0  1  0  0  0  0  0  0  0  0  0
    8.2900  -12.2627   18.9087 C   0  0  0  0  0  0  0  0  0  0  0  0
    8.9372  -14.4957   19.6211 C   0  0  0  0  0  0  0  0  0  0  0  0
    9.5528  -14.7580   18.2720 C   0  0  2  0  0  0  0  0  0  0  0  0
    8.7563  -15.6088   17.4497 N   0  0  0  0  0  0  0  0  0  0  0  0
   10.9194  -15.2901   18.5054 C   0  0  0  0  0  0  0  0  0  0  0  0
   11.0559  -16.5286   18.6595 O   0  0  0  0  0  0  0  0  0  0  0  0
   16.6144  -13.9503   16.0356 N   0  0  0  0  0  0  0  0  0  0  0  0
   16.7189  -13.9001   17.4279 C   0  0  0  0  0  0  0  0  0  0  0  0
   17.5484  -13.1810   18.0061 O   0  0  0  0  0  0  0  0  0  0  0  0
   15.7783  -14.7604   18.2400 C   0  0  0  0  0  0  0  0  0  0  0  0
   14.3886  -14.2750   17.9770 C   0  0  0  0  0  0  0  0  0  0  0  0
   13.3740  -15.1054   18.7300 C   0  0  2  0  0  0  0  0  0  0  0  0
   12.0540  -14.4653   18.5595 N   0  0  0  0  0  0  0  0  0  0  0  0
   13.6464  -15.0730   20.1674 C   0  0  0  0  0  0  0  0  0  0  0  0
   13.6658  -13.9835   20.8364 O   0  0  0  0  0  0  0  0  0  0  0  0
   13.8966  -16.2669   20.8946 N   0  0  0  0  0  0  0  0  0  0  0  0
   14.2171  -16.1792   22.3274 C   0  0  1  0  0  0  0  0  0  0  0  0
   13.5043  -17.3678   22.9531 C   0  0  0  0  0  0  0  0  0  0  0  0
   12.0564  -17.1011   23.1537 C   0  0  0  0  0  0  0  0  0  0  0  0
   11.3649  -15.9159   22.9763 C   0  0  0  0  0  0  0  0  0  0  0  0
   10.0669  -16.0898   23.2628 N   0  0  0  0  0  0  0  0  0  0  0  0
    9.9100  -17.3718   23.6231 C   0  0  0  0  0  0  0  0  0  0  0  0
   11.1218  -17.9863   23.5563 N   0  0  0  0  0  0  0  0  0  0  0  0
   15.6545  -16.2064   22.5412 C   0  0  0  0  0  0  0  0  0  0  0  0
   16.0945  -16.1463   23.7183 O   0  0  0  0  0  0  0  0  0  0  0  0
   16.5806  -16.2957   21.5213 O   0  0  0  0  0  0  0  0  0  0  0  0
  2  1  1  1
  2  4  1  0
  3  2  1  0
  5  6  1  1
  5  4  1  0
  7  5  1  0
  8  7  2  0
  9 10  1  0
 10 12  1  0
 11 10  2  0
 12 13  1  0
 14 13  1  6
 14 15  1  0
 15  7  1  0
 16 14  1  0
 16 17  2  0
 18 16  1  0
 19 20  1  1
 19 18  1  0
 20 21  1  0
 21 22  2  0
 21 25  1  0
 22 23  1  0
 23 24  1  0
 25 24  2  0
 26 19  1  0
 27 26  2  0
 28 26  1  0
M  END
$$$$
