LQH.pdb
     RDKit          3D

 28 28  0  0  1  0  0  0  0  0999 V2000
    7.9730  -12.4521   22.0568 C   0  0  0  0  0  0  0  0  0  0  0  0
    7.5746  -13.5005   21.0665 C   0  0  1  0  0  0  0  0  0  0  0  0
    7.9140  -13.0955   19.6394 C   0  0  0  0  0  0  0  0  0  0  0  0
    8.2721  -14.7849   21.3513 C   0  0  0  0  0  0  0  0  0  0  0  0
    7.7605  -15.9069   20.4869 C   0  0  2  0  0  0  0  0  0  0  0  0
    6.3630  -16.1432   20.6465 N   0  0  0  0  0  0  0  0  0  0  0  0
    8.5887  -17.1041   20.7802 C   0  0  0  0  0  0  0  0  0  0  0  0
    8.1402  -17.9523   21.5898 O   0  0  0  0  0  0  0  0  0  0  0  0
   12.9362  -19.6386   17.3382 N   0  0  0  0  0  0  0  0  0  0  0  0
   13.0009  -20.5238   18.4172 C   0  0  0  0  0  0  0  0  0  0  0  0
   13.6766  -21.5638   18.3834 O   0  0  0  0  0  0  0  0  0  0  0  0
   12.2118  -20.1833   19.6605 C   0  0  0  0  0  0  0  0  0  0  0  0
   11.3986  -18.9662   19.3548 C   0  0  0  0  0  0  0  0  0  0  0  0
   10.5872  -18.5414   20.5578 C   0  0  2  0  0  0  0  0  0  0  0  0
    9.8439  -17.3194   20.1899 N   0  0  0  0  0  0  0  0  0  0  0  0
   11.4666  -18.1522   21.6609 C   0  0  0  0  0  0  0  0  0  0  0  0
   12.6854  -17.8120   21.4778 O   0  0  0  0  0  0  0  0  0  0  0  0
   10.9967  -18.1270   23.0008 N   0  0  0  0  0  0  0  0  0  0  0  0
   11.9358  -17.7955   24.0832 C   0  0  1  0  0  0  0  0  0  0  0  0
   12.4399  -16.4025   23.7402 C   0  0  0  0  0  0  0  0  0  0  0  0
   13.8860  -16.4065   23.3986 C   0  0  0  0  0  0  0  0  0  0  0  0
   14.7760  -17.4654   23.4267 C   0  0  0  0  0  0  0  0  0  0  0  0
   15.9945  -17.0564   23.0460 N   0  0  0  0  0  0  0  0  0  0  0  0
   15.9042  -15.7469   22.7720 C   0  0  0  0  0  0  0  0  0  0  0  0
   14.6201  -15.3526   22.9870 N   0  0  0  0  0  0  0  0  0  0  0  0
   11.2785  -17.8549   25.3782 C   0  0  0  0  0  0  0  0  0  0  0  0
   11.1859  -18.9656   25.9617 O   0  0  0  0  0  0  0  0  0  0  0  0
   10.7424  -16.7553   26.0180 O   0  0  0  0  0  0  0  0  0  0  0  0
  2  1  1  1
  2  4  1  0
  3  2  1  0
  5  6  1  1
  5  4  1  0
  7  5  1  0
  8  7  2  0
  9 10  1  0
 10 12  1  0
 11 10  2  0
 12 13  1  0
 14 13  1  6
 14 15  1  0
 15  7  1  0
 16 14  1  0
 16 17  2  0
 18 16  1  0
 19 20  1  6
 19 18  1  0
 20 21  1  0
 21 22  2  0
 21 25  1  0
 22 23  1  0
 23 24  1  0
 25 24  2  0
 26 19  1  0
 27 26  2  0
 28 26  1  0
M  END
$$$$
