LQH.pdb
     RDKit          3D

 28 28  0  0  1  0  0  0  0  0999 V2000
    6.6255  -12.8166   18.2950 C   0  0  0  0  0  0  0  0  0  0  0  0
    7.9471  -13.2922   18.8104 C   0  0  1  0  0  0  0  0  0  0  0  0
    8.9911  -12.1850   18.8109 C   0  0  0  0  0  0  0  0  0  0  0  0
    7.8174  -13.7936   20.2066 C   0  0  0  0  0  0  0  0  0  0  0  0
    9.1489  -14.1888   20.7886 C   0  0  2  0  0  0  0  0  0  0  0  0
   10.1444  -14.4283   19.7956 N   0  0  0  0  0  0  0  0  0  0  0  0
    8.9156  -15.3603   21.6708 C   0  0  0  0  0  0  0  0  0  0  0  0
    7.8149  -15.4434   22.2688 O   0  0  0  0  0  0  0  0  0  0  0  0
   12.1526  -20.5933   22.0716 N   0  0  0  0  0  0  0  0  0  0  0  0
   11.3623  -20.7648   23.2108 C   0  0  0  0  0  0  0  0  0  0  0  0
   11.4590  -21.7623   23.9421 O   0  0  0  0  0  0  0  0  0  0  0  0
   10.3600  -19.6844   23.5464 C   0  0  0  0  0  0  0  0  0  0  0  0
   10.5329  -18.5874   22.5449 C   0  0  0  0  0  0  0  0  0  0  0  0
    9.5632  -17.4575   22.8076 C   0  0  2  0  0  0  0  0  0  0  0  0
    9.8733  -16.3694   21.8583 N   0  0  0  0  0  0  0  0  0  0  0  0
    9.7789  -16.8928   24.1404 C   0  0  0  0  0  0  0  0  0  0  0  0
   10.7104  -16.0519   24.3854 O   0  0  0  0  0  0  0  0  0  0  0  0
    8.9469  -17.2523   25.2337 N   0  0  0  0  0  0  0  0  0  0  0  0
    9.2565  -16.7275   26.5724 C   0  0  1  0  0  0  0  0  0  0  0  0
    7.9151  -16.2718   27.1251 C   0  0  0  0  0  0  0  0  0  0  0  0
    7.5388  -14.9251   26.6225 C   0  0  0  0  0  0  0  0  0  0  0  0
    8.2673  -14.0721   25.8127 C   0  0  0  0  0  0  0  0  0  0  0  0
    7.5755  -12.9468   25.5846 N   0  0  0  0  0  0  0  0  0  0  0  0
    6.4092  -13.0609   26.2363 C   0  0  0  0  0  0  0  0  0  0  0  0
    6.3882  -14.2656   26.8677 N   0  0  0  0  0  0  0  0  0  0  0  0
    9.8903  -17.7440   27.3955 C   0  0  0  0  0  0  0  0  0  0  0  0
   10.1927  -17.4617   28.5835 O   0  0  0  0  0  0  0  0  0  0  0  0
   10.1854  -19.0173   26.9509 O   0  0  0  0  0  0  0  0  0  0  0  0
  2  1  1  1
  2  4  1  0
  3  2  1  0
  5  6  1  6
  5  4  1  0
  7  5  1  0
  8  7  2  0
  9 10  1  0
 10 12  1  0
 11 10  2  0
 12 13  1  0
 14 13  1  6
 14 15  1  0
 15  7  1  0
 16 14  1  0
 16 17  2  0
 18 16  1  0
 19 20  1  1
 19 18  1  0
 20 21  1  0
 21 22  2  0
 21 25  1  0
 22 23  1  0
 23 24  1  0
 25 24  2  0
 26 19  1  0
 27 26  2  0
 28 26  1  0
M  END
$$$$
