LQH.pdb
     RDKit          3D

 28 28  0  0  1  0  0  0  0  0999 V2000
    7.4542  -11.9583   19.4928 C   0  0  0  0  0  0  0  0  0  0  0  0
    7.9490  -13.3059   19.0710 C   0  0  1  0  0  0  0  0  0  0  0  0
    9.2897  -13.2231   18.3559 C   0  0  0  0  0  0  0  0  0  0  0  0
    8.1193  -14.1967   20.2520 C   0  0  0  0  0  0  0  0  0  0  0  0
    8.4817  -15.6018   19.8493 C   0  0  2  0  0  0  0  0  0  0  0  0
    7.4735  -16.2366   19.0651 N   0  0  0  0  0  0  0  0  0  0  0  0
    8.8062  -16.3480   21.0915 C   0  0  0  0  0  0  0  0  0  0  0  0
    7.8573  -16.8066   21.7737 O   0  0  0  0  0  0  0  0  0  0  0  0
   10.1143  -21.1728   21.6105 N   0  0  0  0  0  0  0  0  0  0  0  0
   11.1397  -20.4241   22.1936 C   0  0  0  0  0  0  0  0  0  0  0  0
   11.7429  -20.8024   23.2097 O   0  0  0  0  0  0  0  0  0  0  0  0
   11.5119  -19.1094   21.5475 C   0  0  0  0  0  0  0  0  0  0  0  0
   11.6213  -18.0909   22.6370 C   0  0  0  0  0  0  0  0  0  0  0  0
   10.3341  -17.3106   22.7793 C   0  0  2  0  0  0  0  0  0  0  0  0
   10.1244  -16.5572   21.5265 N   0  0  0  0  0  0  0  0  0  0  0  0
   10.4571  -16.3013   23.8318 C   0  0  0  0  0  0  0  0  0  0  0  0
   10.6185  -15.0594   23.5741 O   0  0  0  0  0  0  0  0  0  0  0  0
   10.3936  -16.6600   25.2044 N   0  0  0  0  0  0  0  0  0  0  0  0
    9.7769  -15.7281   26.1607 C   0  0  1  0  0  0  0  0  0  0  0  0
    8.3521  -15.5518   25.6596 C   0  0  0  0  0  0  0  0  0  0  0  0
    7.7339  -14.3043   26.1786 C   0  0  0  0  0  0  0  0  0  0  0  0
    8.3137  -13.3080   26.9438 C   0  0  0  0  0  0  0  0  0  0  0  0
    7.4180  -12.3460   27.2071 N   0  0  0  0  0  0  0  0  0  0  0  0
    6.2666  -12.7071   26.6223 C   0  0  0  0  0  0  0  0  0  0  0  0
    6.4603  -13.8994   25.9966 N   0  0  0  0  0  0  0  0  0  0  0  0
    9.8384  -16.2553   27.5138 C   0  0  0  0  0  0  0  0  0  0  0  0
    9.6382  -17.4838   27.6964 O   0  0  0  0  0  0  0  0  0  0  0  0
   10.1067  -15.4836   28.6266 O   0  0  0  0  0  0  0  0  0  0  0  0
  2  1  1  1
  2  4  1  0
  3  2  1  0
  5  6  1  1
  5  4  1  0
  7  5  1  0
  8  7  2  0
  9 10  1  0
 10 12  1  0
 11 10  2  0
 12 13  1  0
 14 13  1  6
 14 15  1  0
 15  7  1  0
 16 14  1  0
 16 17  2  0
 18 16  1  0
 19 20  1  6
 19 18  1  0
 20 21  1  0
 21 22  2  0
 21 25  1  0
 22 23  1  0
 23 24  1  0
 25 24  2  0
 26 19  1  0
 27 26  2  0
 28 26  1  0
M  END
$$$$
