LQH.pdb
     RDKit          3D

 28 28  0  0  1  0  0  0  0  0999 V2000
    7.6775  -11.9819   20.8235 C   0  0  0  0  0  0  0  0  0  0  0  0
    7.8006  -13.2738   20.0790 C   0  0  1  0  0  0  0  0  0  0  0  0
    8.8168  -13.1868   18.9497 C   0  0  0  0  0  0  0  0  0  0  0  0
    8.2306  -14.3683   20.9926 C   0  0  0  0  0  0  0  0  0  0  0  0
    8.2371  -15.7070   20.3030 C   0  0  2  0  0  0  0  0  0  0  0  0
    6.9355  -16.1426   19.9149 N   0  0  0  0  0  0  0  0  0  0  0  0
    8.9248  -16.6657   21.2048 C   0  0  0  0  0  0  0  0  0  0  0  0
    8.2296  -17.3089   22.0288 O   0  0  0  0  0  0  0  0  0  0  0  0
   13.9608  -19.7743   20.2678 N   0  0  0  0  0  0  0  0  0  0  0  0
   13.8212  -20.1229   21.6135 C   0  0  0  0  0  0  0  0  0  0  0  0
   14.4646  -21.0498   22.1296 O   0  0  0  0  0  0  0  0  0  0  0  0
   12.8460  -19.3299   22.4528 C   0  0  0  0  0  0  0  0  0  0  0  0
   12.2149  -18.3092   21.5605 C   0  0  0  0  0  0  0  0  0  0  0  0
   10.8968  -17.8345   22.1292 C   0  0  2  0  0  0  0  0  0  0  0  0
   10.3122  -16.8765   21.1693 N   0  0  0  0  0  0  0  0  0  0  0  0
   11.1109  -17.0772   23.3630 C   0  0  0  0  0  0  0  0  0  0  0  0
   11.3281  -15.8172   23.3641 O   0  0  0  0  0  0  0  0  0  0  0  0
   11.0784  -17.7151   24.6313 N   0  0  0  0  0  0  0  0  0  0  0  0
   11.2112  -16.8987   25.8475 C   0  0  1  0  0  0  0  0  0  0  0  0
   10.0621  -15.9057   25.7700 C   0  0  0  0  0  0  0  0  0  0  0  0
    9.9862  -15.0522   26.9840 C   0  0  0  0  0  0  0  0  0  0  0  0
   10.7589  -15.1120   28.1301 C   0  0  0  0  0  0  0  0  0  0  0  0
   10.3751  -14.1645   28.9973 N   0  0  0  0  0  0  0  0  0  0  0  0
    9.3644  -13.4927   28.4269 C   0  0  0  0  0  0  0  0  0  0  0  0
    9.1288  -14.0341   27.2014 N   0  0  0  0  0  0  0  0  0  0  0  0
   11.1603  -17.7291   27.0393 C   0  0  0  0  0  0  0  0  0  0  0  0
   10.6672  -18.8834   26.9545 O   0  0  0  0  0  0  0  0  0  0  0  0
   11.6253  -17.3269   28.2754 O   0  0  0  0  0  0  0  0  0  0  0  0
  2  1  1  1
  2  4  1  0
  3  2  1  0
  5  6  1  1
  5  4  1  0
  7  5  1  0
  8  7  2  0
  9 10  1  0
 10 12  1  0
 11 10  2  0
 12 13  1  0
 14 13  1  6
 14 15  1  0
 15  7  1  0
 16 14  1  0
 16 17  2  0
 18 16  1  0
 19 20  1  1
 19 18  1  0
 20 21  1  0
 21 22  2  0
 21 25  1  0
 22 23  1  0
 23 24  1  0
 25 24  2  0
 26 19  1  0
 27 26  2  0
 28 26  1  0
M  END
$$$$
