LQH.pdb
     RDKit          3D

 28 28  0  0  1  0  0  0  0  0999 V2000
    7.2589  -13.0855   20.9536 C   0  0  0  0  0  0  0  0  0  0  0  0
    7.8910  -13.3736   19.6285 C   0  0  1  0  0  0  0  0  0  0  0  0
    8.3042  -12.1004   18.9047 C   0  0  0  0  0  0  0  0  0  0  0  0
    9.1085  -14.2140   19.7983 C   0  0  0  0  0  0  0  0  0  0  0  0
    9.7289  -14.5795   18.4757 C   0  0  2  0  0  0  0  0  0  0  0  0
    8.8694  -15.3662   17.6531 N   0  0  0  0  0  0  0  0  0  0  0  0
   11.0248  -15.2449   18.7641 C   0  0  0  0  0  0  0  0  0  0  0  0
   11.0226  -16.4824   18.9760 O   0  0  0  0  0  0  0  0  0  0  0  0
   17.1292  -14.1034   17.9289 N   0  0  0  0  0  0  0  0  0  0  0  0
   16.1929  -13.9888   16.8983 C   0  0  0  0  0  0  0  0  0  0  0  0
   16.5213  -13.7460   15.7267 O   0  0  0  0  0  0  0  0  0  0  0  0
   14.7330  -14.1706   17.2446 C   0  0  0  0  0  0  0  0  0  0  0  0
   14.6501  -14.4183   18.7170 C   0  0  0  0  0  0  0  0  0  0  0  0
   13.4790  -15.3149   19.0496 C   0  0  2  0  0  0  0  0  0  0  0  0
   12.2414  -14.5461   18.8077 N   0  0  0  0  0  0  0  0  0  0  0  0
   13.4691  -15.6416   20.4760 C   0  0  0  0  0  0  0  0  0  0  0  0
   13.1418  -14.7896   21.3715 O   0  0  0  0  0  0  0  0  0  0  0  0
   13.8194  -16.9392   20.9348 N   0  0  0  0  0  0  0  0  0  0  0  0
   13.7481  -17.2337   22.3740 C   0  0  1  0  0  0  0  0  0  0  0  0
   12.9718  -18.5383   22.4604 C   0  0  0  0  0  0  0  0  0  0  0  0
   12.8695  -19.0292   23.8591 C   0  0  0  0  0  0  0  0  0  0  0  0
   13.3570  -18.4468   25.0155 C   0  0  0  0  0  0  0  0  0  0  0  0
   13.0560  -19.2057   26.0787 N   0  0  0  0  0  0  0  0  0  0  0  0
   12.3801  -20.2713   25.6250 C   0  0  0  0  0  0  0  0  0  0  0  0
   12.2673  -20.1626   24.2737 N   0  0  0  0  0  0  0  0  0  0  0  0
   15.0784  -17.3290   22.9517 C   0  0  0  0  0  0  0  0  0  0  0  0
   15.1904  -17.5500   24.1851 O   0  0  0  0  0  0  0  0  0  0  0  0
   16.2431  -17.1913   22.2233 O   0  0  0  0  0  0  0  0  0  0  0  0
  2  1  1  1
  2  4  1  0
  3  2  1  0
  5  6  1  1
  5  4  1  0
  7  5  1  0
  8  7  2  0
  9 10  1  0
 10 12  1  0
 11 10  2  0
 12 13  1  0
 14 13  1  1
 14 15  1  0
 15  7  1  0
 16 14  1  0
 16 17  2  0
 18 16  1  0
 19 20  1  6
 19 18  1  0
 20 21  1  0
 21 22  2  0
 21 25  1  0
 22 23  1  0
 23 24  1  0
 25 24  2  0
 26 19  1  0
 27 26  2  0
 28 26  1  0
M  END
$$$$
