PCE.pdb
     RDKit          3D

 23 23  0  0  1  0  0  0  0  0999 V2000
   25.3368  -34.2002  -13.9480 N   0  0  0  0  0  0  0  0  0  0  0  0
   26.7333  -34.0342  -13.7005 C   0  0  0  0  0  0  0  0  0  0  0  0
   27.0517  -34.8423  -12.4368 C   0  0  0  0  0  0  0  0  0  0  0  0
   25.9208  -35.8617  -12.4876 C   0  0  0  0  0  0  0  0  0  0  0  0
   24.7631  -34.9149  -12.8240 C   0  0  1  0  0  0  0  0  0  0  0  0
   24.5261  -33.9542  -11.7371 C   0  0  0  0  0  0  0  0  0  0  0  0
   24.3634  -32.7292  -11.9764 O   0  0  0  0  0  0  0  0  0  0  0  0
   24.4636  -34.3267  -10.3625 N   0  0  0  0  0  0  0  0  0  0  0  0
   23.8835  -33.4448   -9.3710 C   0  0  1  0  0  0  0  0  0  0  0  0
   22.4400  -33.1926   -9.7271 C   0  0  0  0  0  0  0  0  0  0  0  0
   21.5977  -32.1967   -8.4853 S   0  0  0  0  0  0  0  0  0  0  0  0
   23.9006  -34.1406   -8.0367 C   0  0  0  0  0  0  0  0  0  0  0  0
   23.4227  -35.2950   -7.9151 O   0  0  0  0  0  0  0  0  0  0  0  0
   24.4529  -33.5164   -6.8887 N   0  0  0  0  0  0  0  0  0  0  0  0
   24.6758  -34.2476   -5.6302 C   0  0  1  0  0  0  0  0  0  0  0  0
   25.9572  -33.7304   -5.0709 C   0  0  0  0  0  0  0  0  0  0  0  0
   26.4007  -34.3365   -3.7833 C   0  0  0  0  0  0  0  0  0  0  0  0
   27.6546  -33.6662   -3.3777 C   0  0  0  0  0  0  0  0  0  0  0  0
   28.0869  -32.7009   -4.0375 O   0  0  0  0  0  0  0  0  0  0  0  0
   23.5211  -34.1102   -4.7355 C   0  0  0  0  0  0  0  0  0  0  0  0
   23.3864  -34.8554   -3.5617 O   0  0  0  0  0  0  0  0  0  0  0  0
   28.3504  -34.1019   -2.2730 O   0  0  0  0  0  0  0  0  0  0  0  0
   22.6034  -33.2995   -5.0099 O   0  0  0  0  0  0  0  0  0  0  0  0
  1  2  1  0
  2  3  1  0
  4  3  1  0
  5  4  1  0
  5  6  1  1
  5  1  1  0
  6  7  2  0
  8  9  1  0
  8  6  1  0
  9 12  1  0
  9 10  1  6
 11 10  1  0
 12 13  2  0
 12 14  1  0
 14 15  1  0
 15 16  1  1
 16 17  1  0
 17 18  1  0
 18 22  1  0
 19 18  2  0
 20 21  1  0
 20 15  1  0
 23 20  2  0
M  END
$$$$
