PCE.pdb
     RDKit          3D

 23 23  0  0  1  0  0  0  0  0999 V2000
   20.2275  -12.2632  -17.9360 N   0  0  0  0  0  0  0  0  0  0  0  0
   18.9780  -11.9622  -18.5584 C   0  0  0  0  0  0  0  0  0  0  0  0
   19.0800  -10.5189  -19.0663 C   0  0  0  0  0  0  0  0  0  0  0  0
   20.5916  -10.4009  -19.2140 C   0  0  0  0  0  0  0  0  0  0  0  0
   21.0104  -11.0435  -17.8868 C   0  0  1  0  0  0  0  0  0  0  0  0
   20.5531  -10.2461  -16.7398 C   0  0  0  0  0  0  0  0  0  0  0  0
   19.3301  -10.1586  -16.4553 O   0  0  0  0  0  0  0  0  0  0  0  0
   21.4376   -9.5285  -15.8826 N   0  0  0  0  0  0  0  0  0  0  0  0
   20.9383   -8.7631  -14.7590 C   0  0  1  0  0  0  0  0  0  0  0  0
   21.5814   -9.2757  -13.4950 C   0  0  0  0  0  0  0  0  0  0  0  0
   21.0282   -8.3745  -12.0373 S   0  0  0  0  0  0  0  0  0  0  0  0
   21.3604   -7.3284  -14.9263 C   0  0  0  0  0  0  0  0  0  0  0  0
   22.5409   -7.0458  -15.2463 O   0  0  0  0  0  0  0  0  0  0  0  0
   20.4435   -6.2641  -14.7287 N   0  0  0  0  0  0  0  0  0  0  0  0
   20.8252   -4.8551  -14.9216 C   0  0  1  0  0  0  0  0  0  0  0  0
   19.5546   -4.1070  -15.1410 C   0  0  0  0  0  0  0  0  0  0  0  0
   19.6923   -2.6452  -15.3978 C   0  0  0  0  0  0  0  0  0  0  0  0
   18.3369   -2.0960  -15.6154 C   0  0  0  0  0  0  0  0  0  0  0  0
   17.3450   -2.8500  -15.5748 O   0  0  0  0  0  0  0  0  0  0  0  0
   21.6287   -4.3731  -13.7925 C   0  0  0  0  0  0  0  0  0  0  0  0
   21.5288   -4.9196  -12.5109 O   0  0  0  0  0  0  0  0  0  0  0  0
   18.1618   -0.7535  -15.8632 O   0  0  0  0  0  0  0  0  0  0  0  0
   22.4459   -3.4346  -13.9548 O   0  0  0  0  0  0  0  0  0  0  0  0
  1  2  1  0
  2  3  1  0
  4  3  1  0
  5  4  1  0
  5  6  1  1
  5  1  1  0
  6  7  2  0
  8  9  1  0
  8  6  1  0
  9 12  1  0
  9 10  1  1
 11 10  1  0
 12 13  2  0
 12 14  1  0
 14 15  1  0
 15 16  1  1
 16 17  1  0
 17 18  1  0
 18 22  1  0
 19 18  2  0
 20 21  1  0
 20 15  1  0
 23 20  2  0
M  END
$$$$
