PCE.pdb
     RDKit          3D

 23 23  0  0  1  0  0  0  0  0999 V2000
   21.3710  -11.5585  -18.2526 N   0  0  0  0  0  0  0  0  0  0  0  0
   20.8240  -12.6765  -17.5526 C   0  0  0  0  0  0  0  0  0  0  0  0
   19.2997  -12.5661  -17.6771 C   0  0  0  0  0  0  0  0  0  0  0  0
   19.2016  -11.7431  -18.9553 C   0  0  0  0  0  0  0  0  0  0  0  0
   20.2748  -10.6936  -18.6445 C   0  0  1  0  0  0  0  0  0  0  0  0
   19.8975   -9.8711  -17.4861 C   0  0  0  0  0  0  0  0  0  0  0  0
   18.8335   -9.1986  -17.4854 O   0  0  0  0  0  0  0  0  0  0  0  0
   20.6879   -9.7744  -16.3037 N   0  0  0  0  0  0  0  0  0  0  0  0
   20.2857   -8.9293  -15.1984 C   0  0  1  0  0  0  0  0  0  0  0  0
   20.6316   -9.6215  -13.9041 C   0  0  0  0  0  0  0  0  0  0  0  0
   20.2205   -8.6183  -12.4661 S   0  0  0  0  0  0  0  0  0  0  0  0
   21.0825   -7.6537  -15.2510 C   0  0  0  0  0  0  0  0  0  0  0  0
   22.3152   -7.6829  -15.4866 O   0  0  0  0  0  0  0  0  0  0  0  0
   20.4677   -6.3932  -15.0377 N   0  0  0  0  0  0  0  0  0  0  0  0
   21.2305   -5.1341  -15.0688 C   0  0  1  0  0  0  0  0  0  0  0  0
   20.3518   -4.1327  -15.7376 C   0  0  0  0  0  0  0  0  0  0  0  0
   20.5293   -2.7164  -15.3080 C   0  0  0  0  0  0  0  0  0  0  0  0
   19.4942   -1.9067  -15.9855 C   0  0  0  0  0  0  0  0  0  0  0  0
   18.4082   -1.6811  -15.4166 O   0  0  0  0  0  0  0  0  0  0  0  0
   21.6686   -4.7561  -13.7205 C   0  0  0  0  0  0  0  0  0  0  0  0
   22.6207   -3.7602  -13.4907 O   0  0  0  0  0  0  0  0  0  0  0  0
   19.7221   -1.3983  -17.2440 O   0  0  0  0  0  0  0  0  0  0  0  0
   21.1864   -5.3329  -12.7156 O   0  0  0  0  0  0  0  0  0  0  0  0
  1  2  1  0
  2  3  1  0
  4  3  1  0
  5  4  1  0
  5  6  1  1
  5  1  1  0
  6  7  2  0
  8  9  1  0
  8  6  1  0
  9 12  1  0
  9 10  1  1
 11 10  1  0
 12 13  2  0
 12 14  1  0
 14 15  1  0
 15 16  1  1
 16 17  1  0
 17 18  1  0
 18 22  1  0
 19 18  2  0
 20 21  1  0
 20 15  1  0
 23 20  2  0
M  END
$$$$
