PCE.pdb
     RDKit          3D

 23 23  0  0  1  0  0  0  0  0999 V2000
   23.9332  -14.4184  -16.5552 N   0  0  0  0  0  0  0  0  0  0  0  0
   25.0899  -13.5995  -16.7301 C   0  0  0  0  0  0  0  0  0  0  0  0
   25.0713  -12.5698  -15.5941 C   0  0  0  0  0  0  0  0  0  0  0  0
   24.2423  -13.3300  -14.5668 C   0  0  0  0  0  0  0  0  0  0  0  0
   23.1327  -13.8441  -15.4910 C   0  0  1  0  0  0  0  0  0  0  0  0
   22.3471  -12.7347  -16.0503 C   0  0  0  0  0  0  0  0  0  0  0  0
   22.6892  -12.1720  -17.1229 O   0  0  0  0  0  0  0  0  0  0  0  0
   21.1665  -12.2236  -15.4361 N   0  0  0  0  0  0  0  0  0  0  0  0
   20.3143  -11.2739  -16.1212 C   0  0  1  0  0  0  0  0  0  0  0  0
   18.9897  -11.9315  -16.4166 C   0  0  0  0  0  0  0  0  0  0  0  0
   17.7744  -10.7600  -17.0441 S   0  0  0  0  0  0  0  0  0  0  0  0
   20.0435  -10.1155  -15.1995 C   0  0  0  0  0  0  0  0  0  0  0  0
   19.8547  -10.3087  -13.9736 O   0  0  0  0  0  0  0  0  0  0  0  0
   19.9946   -8.7840  -15.6865 N   0  0  0  0  0  0  0  0  0  0  0  0
   19.7837   -7.6311  -14.7952 C   0  0  1  0  0  0  0  0  0  0  0  0
   20.9793   -6.7558  -14.9585 C   0  0  0  0  0  0  0  0  0  0  0  0
   20.9964   -5.5120  -14.1373 C   0  0  0  0  0  0  0  0  0  0  0  0
   22.2392   -4.7776  -14.4570 C   0  0  0  0  0  0  0  0  0  0  0  0
   23.3412   -5.2257  -14.0846 O   0  0  0  0  0  0  0  0  0  0  0  0
   18.5039   -6.9746  -15.0853 C   0  0  0  0  0  0  0  0  0  0  0  0
   17.8065   -6.2313  -14.1302 O   0  0  0  0  0  0  0  0  0  0  0  0
   22.1879   -3.5988  -15.1656 O   0  0  0  0  0  0  0  0  0  0  0  0
   17.9919   -7.0674  -16.2272 O   0  0  0  0  0  0  0  0  0  0  0  0
  1  2  1  0
  2  3  1  0
  4  3  1  0
  5  4  1  0
  5  6  1  6
  5  1  1  0
  6  7  2  0
  8  9  1  0
  8  6  1  0
  9 12  1  0
  9 10  1  1
 11 10  1  0
 12 13  2  0
 12 14  1  0
 14 15  1  0
 15 16  1  6
 16 17  1  0
 17 18  1  0
 18 22  1  0
 19 18  2  0
 20 21  1  0
 20 15  1  0
 23 20  2  0
M  END
$$$$
