PCE.pdb
     RDKit          3D

 23 23  0  0  1  0  0  0  0  0999 V2000
   17.1404  -14.4609    4.7028 N   0  0  0  0  0  0  0  0  0  0  0  0
   18.3401  -13.6924    4.7983 C   0  0  0  0  0  0  0  0  0  0  0  0
   19.1535  -13.9943    3.5340 C   0  0  0  0  0  0  0  0  0  0  0  0
   18.0298  -14.4150    2.5955 C   0  0  0  0  0  0  0  0  0  0  0  0
   17.2553  -15.3319    3.5490 C   0  0  1  0  0  0  0  0  0  0  0  0
   18.0566  -16.5034    3.9317 C   0  0  0  0  0  0  0  0  0  0  0  0
   18.4632  -17.3231    3.0674 O   0  0  0  0  0  0  0  0  0  0  0  0
   18.4257  -16.7938    5.2776 N   0  0  0  0  0  0  0  0  0  0  0  0
   19.1602  -17.9963    5.6122 C   0  0  1  0  0  0  0  0  0  0  0  0
   20.5362  -17.6097    6.0930 C   0  0  0  0  0  0  0  0  0  0  0  0
   21.5486  -19.0473    6.4825 S   0  0  0  0  0  0  0  0  0  0  0  0
   18.4638  -18.6854    6.7545 C   0  0  0  0  0  0  0  0  0  0  0  0
   18.1933  -18.0568    7.8069 O   0  0  0  0  0  0  0  0  0  0  0  0
   18.0965  -20.0533    6.6743 N   0  0  0  0  0  0  0  0  0  0  0  0
   17.2867  -20.7094    7.7145 C   0  0  1  0  0  0  0  0  0  0  0  0
   15.8662  -20.3813    7.4033 C   0  0  0  0  0  0  0  0  0  0  0  0
   14.8447  -20.9626    8.3202 C   0  0  0  0  0  0  0  0  0  0  0  0
   13.5105  -20.5936    7.8007 C   0  0  0  0  0  0  0  0  0  0  0  0
   13.3746  -20.2734    6.6036 O   0  0  0  0  0  0  0  0  0  0  0  0
   17.5809  -22.1455    7.7762 C   0  0  0  0  0  0  0  0  0  0  0  0
   17.2241  -22.9400    8.8684 O   0  0  0  0  0  0  0  0  0  0  0  0
   12.4138  -20.6013    8.6322 O   0  0  0  0  0  0  0  0  0  0  0  0
   18.1751  -22.7092    6.8254 O   0  0  0  0  0  0  0  0  0  0  0  0
  1  2  1  0
  2  3  1  0
  4  3  1  0
  5  4  1  0
  5  6  1  1
  5  1  1  0
  6  7  2  0
  8  9  1  0
  8  6  1  0
  9 12  1  0
  9 10  1  1
 11 10  1  0
 12 13  2  0
 12 14  1  0
 14 15  1  0
 15 16  1  6
 16 17  1  0
 17 18  1  0
 18 22  1  0
 19 18  2  0
 20 21  1  0
 20 15  1  0
 23 20  2  0
M  END
$$$$
