PCE.pdb
     RDKit          3D

 23 23  0  0  1  0  0  0  0  0999 V2000
   12.8883  -21.2765    1.7351 N   0  0  0  0  0  0  0  0  0  0  0  0
   12.9349  -20.3271    0.6695 C   0  0  0  0  0  0  0  0  0  0  0  0
   13.7390  -20.9796   -0.4615 C   0  0  0  0  0  0  0  0  0  0  0  0
   13.5134  -22.4487   -0.1275 C   0  0  0  0  0  0  0  0  0  0  0  0
   13.7525  -22.3874    1.3854 C   0  0  1  0  0  0  0  0  0  0  0  0
   15.1395  -22.0088    1.6917 C   0  0  0  0  0  0  0  0  0  0  0  0
   16.1076  -22.7016    1.2832 O   0  0  0  0  0  0  0  0  0  0  0  0
   15.4860  -20.8565    2.4560 N   0  0  0  0  0  0  0  0  0  0  0  0
   16.8628  -20.5720    2.8039 C   0  0  1  0  0  0  0  0  0  0  0  0
   17.0796  -19.0804    2.7574 C   0  0  0  0  0  0  0  0  0  0  0  0
   18.6538  -18.5995    3.4880 S   0  0  0  0  0  0  0  0  0  0  0  0
   17.1043  -21.0157    4.2215 C   0  0  0  0  0  0  0  0  0  0  0  0
   16.3296  -20.6560    5.1413 O   0  0  0  0  0  0  0  0  0  0  0  0
   18.2051  -21.8461    4.5548 N   0  0  0  0  0  0  0  0  0  0  0  0
   18.4821  -22.2613    5.9401 C   0  0  1  0  0  0  0  0  0  0  0  0
   18.9189  -23.6847    5.8675 C   0  0  0  0  0  0  0  0  0  0  0  0
   19.2724  -24.3274    7.1652 C   0  0  0  0  0  0  0  0  0  0  0  0
   19.6872  -25.7179    6.8815 C   0  0  0  0  0  0  0  0  0  0  0  0
   19.0346  -26.6709    7.3503 O   0  0  0  0  0  0  0  0  0  0  0  0
   19.4509  -21.3582    6.5715 C   0  0  0  0  0  0  0  0  0  0  0  0
   19.5230  -21.1811    7.9552 O   0  0  0  0  0  0  0  0  0  0  0  0
   20.7926  -25.9684    6.1006 O   0  0  0  0  0  0  0  0  0  0  0  0
   20.2586  -20.7065    5.8660 O   0  0  0  0  0  0  0  0  0  0  0  0
  1  2  1  0
  2  3  1  0
  4  3  1  0
  5  4  1  0
  5  6  1  6
  5  1  1  0
  6  7  2  0
  8  9  1  0
  8  6  1  0
  9 12  1  0
  9 10  1  1
 11 10  1  0
 12 13  2  0
 12 14  1  0
 14 15  1  0
 15 16  1  6
 16 17  1  0
 17 18  1  0
 18 22  1  0
 19 18  2  0
 20 21  1  0
 20 15  1  0
 23 20  2  0
M  END
$$$$
