PCE.pdb
     RDKit          3D

 23 23  0  0  1  0  0  0  0  0999 V2000
   16.7165  -10.9358  -12.5915 N   0  0  0  0  0  0  0  0  0  0  0  0
   17.0399  -10.2479  -13.8003 C   0  0  0  0  0  0  0  0  0  0  0  0
   18.0420   -9.1503  -13.4231 C   0  0  0  0  0  0  0  0  0  0  0  0
   18.6282   -9.7574  -12.1549 C   0  0  0  0  0  0  0  0  0  0  0  0
   17.3267  -10.2180  -11.4889 C   0  0  1  0  0  0  0  0  0  0  0  0
   16.4673   -9.0749  -11.1490 C   0  0  0  0  0  0  0  0  0  0  0  0
   15.7566   -8.5135  -12.0231 O   0  0  0  0  0  0  0  0  0  0  0  0
   16.3749   -8.5280   -9.8358 N   0  0  0  0  0  0  0  0  0  0  0  0
   15.3432   -7.5718   -9.4913 C   0  0  1  0  0  0  0  0  0  0  0  0
   14.7406   -7.9608   -8.1648 C   0  0  0  0  0  0  0  0  0  0  0  0
   13.6180   -9.3611   -8.3129 S   0  0  0  0  0  0  0  0  0  0  0  0
   15.9780   -6.2187   -9.3153 C   0  0  0  0  0  0  0  0  0  0  0  0
   16.9745   -6.0763   -8.5652 O   0  0  0  0  0  0  0  0  0  0  0  0
   15.4723   -5.0761   -9.9868 N   0  0  0  0  0  0  0  0  0  0  0  0
   16.0814   -3.7442   -9.8342 C   0  0  1  0  0  0  0  0  0  0  0  0
   16.3229   -3.2374  -11.2152 C   0  0  0  0  0  0  0  0  0  0  0  0
   17.4894   -3.8256  -11.9331 C   0  0  0  0  0  0  0  0  0  0  0  0
   17.4888   -3.2882  -13.3105 C   0  0  0  0  0  0  0  0  0  0  0  0
   16.4610   -3.3703  -14.0110 O   0  0  0  0  0  0  0  0  0  0  0  0
   15.2371   -2.8762   -9.0057 C   0  0  0  0  0  0  0  0  0  0  0  0
   15.7206   -1.7155   -8.3972 O   0  0  0  0  0  0  0  0  0  0  0  0
   18.6190   -2.6959  -13.8266 O   0  0  0  0  0  0  0  0  0  0  0  0
   14.0296   -3.1625   -8.8191 O   0  0  0  0  0  0  0  0  0  0  0  0
  1  2  1  0
  2  3  1  0
  4  3  1  0
  5  4  1  0
  5  6  1  6
  5  1  1  0
  6  7  2  0
  8  9  1  0
  8  6  1  0
  9 12  1  0
  9 10  1  1
 11 10  1  0
 12 13  2  0
 12 14  1  0
 14 15  1  0
 15 16  1  6
 16 17  1  0
 17 18  1  0
 18 22  1  0
 19 18  2  0
 20 21  1  0
 20 15  1  0
 23 20  2  0
M  END
$$$$
