PCE.pdb
     RDKit          3D

 23 23  0  0  1  0  0  0  0  0999 V2000
   22.2894  -11.8863  -19.2310 N   0  0  0  0  0  0  0  0  0  0  0  0
   22.9339  -13.0804  -18.7861 C   0  0  0  0  0  0  0  0  0  0  0  0
   22.1336  -13.5845  -17.5791 C   0  0  0  0  0  0  0  0  0  0  0  0
   20.7810  -12.9521  -17.8809 C   0  0  0  0  0  0  0  0  0  0  0  0
   21.2573  -11.5480  -18.2700 C   0  0  1  0  0  0  0  0  0  0  0  0
   21.8899  -10.8645  -17.1328 C   0  0  0  0  0  0  0  0  0  0  0  0
   21.3289  -10.8207  -16.0070 O   0  0  0  0  0  0  0  0  0  0  0  0
   23.1562  -10.2150  -17.2155 N   0  0  0  0  0  0  0  0  0  0  0  0
   23.6739   -9.4352  -16.1105 C   0  0  1  0  0  0  0  0  0  0  0  0
   25.1809   -9.4508  -16.1660 C   0  0  0  0  0  0  0  0  0  0  0  0
   25.8774  -10.8766  -15.3145 S   0  0  0  0  0  0  0  0  0  0  0  0
   23.2344   -8.0059  -16.2802 C   0  0  0  0  0  0  0  0  0  0  0  0
   23.3563   -7.4303  -17.3891 O   0  0  0  0  0  0  0  0  0  0  0  0
   22.6745   -7.2755  -15.2007 N   0  0  0  0  0  0  0  0  0  0  0  0
   22.1688   -5.9021  -15.3627 C   0  0  1  0  0  0  0  0  0  0  0  0
   20.7429   -6.0310  -15.7780 C   0  0  0  0  0  0  0  0  0  0  0  0
   19.9870   -4.7548  -15.9265 C   0  0  0  0  0  0  0  0  0  0  0  0
   18.6062   -5.0933  -16.3326 C   0  0  0  0  0  0  0  0  0  0  0  0
   17.6643   -4.9339  -15.5317 O   0  0  0  0  0  0  0  0  0  0  0  0
   22.3785   -5.1212  -14.1384 C   0  0  0  0  0  0  0  0  0  0  0  0
   22.3735   -3.7244  -14.1273 O   0  0  0  0  0  0  0  0  0  0  0  0
   18.3524   -5.5846  -17.5929 O   0  0  0  0  0  0  0  0  0  0  0  0
   22.5724   -5.7038  -13.0439 O   0  0  0  0  0  0  0  0  0  0  0  0
  1  2  1  0
  2  3  1  0
  4  3  1  0
  5  4  1  0
  5  6  1  1
  5  1  1  0
  6  7  2  0
  8  9  1  0
  8  6  1  0
  9 12  1  0
  9 10  1  6
 11 10  1  0
 12 13  2  0
 12 14  1  0
 14 15  1  0
 15 16  1  1
 16 17  1  0
 17 18  1  0
 18 22  1  0
 19 18  2  0
 20 21  1  0
 20 15  1  0
 23 20  2  0
M  END
$$$$
