EMT.pdb
     RDKit          3D

 25 24  0  0  1  0  0  0  0  0999 V2000
   26.3992  -24.0232  -16.2741 N   0  0  0  0  0  0  0  0  0  0  0  0
   26.9752  -22.9533  -15.4645 C   0  0  1  0  0  0  0  0  0  0  0  0
   27.3794  -21.8015  -16.3254 C   0  0  0  0  0  0  0  0  0  0  0  0
   26.4961  -21.5440  -17.4998 C   0  0  0  0  0  0  0  0  0  0  0  0
   26.0885  -20.1463  -17.6806 C   0  0  0  0  0  0  0  0  0  0  0  0
   26.8492  -19.1811  -17.9226 O   0  0  0  0  0  0  0  0  0  0  0  0
   25.9778  -22.5194  -14.4510 C   0  0  0  0  0  0  0  0  0  0  0  0
   24.8033  -22.9498  -14.3723 O   0  0  0  0  0  0  0  0  0  0  0  0
   24.7292  -19.8648  -17.5737 O   0  0  0  0  0  0  0  0  0  0  0  0
   24.0158  -21.7983   -8.2605 C   0  0  0  0  0  0  0  0  0  0  0  0
   25.4844  -20.8720   -8.7612 S   0  0  0  0  0  0  0  0  0  0  0  0
   25.1754  -19.9049  -10.2550 C   0  0  0  0  0  0  0  0  0  0  0  0
   26.1106  -20.3195  -11.3436 C   0  0  0  0  0  0  0  0  0  0  0  0
   25.4211  -21.1257  -12.4248 C   0  0  2  0  0  0  0  0  0  0  0  0
   26.3350  -21.5318  -13.4603 N   0  0  0  0  0  0  0  0  0  0  0  0
   24.2803  -20.3834  -13.0179 C   0  0  0  0  0  0  0  0  0  0  0  0
   24.4417  -19.1818  -13.3861 O   0  0  0  0  0  0  0  0  0  0  0  0
   22.3284  -20.5348  -16.1261 C   0  0  0  0  0  0  0  0  0  0  0  0
   21.3422  -20.6607  -14.9979 C   0  0  1  0  0  0  0  0  0  0  0  0
   20.7729  -21.9298  -14.9169 O   0  0  0  0  0  0  0  0  0  0  0  0
   21.8701  -20.1866  -13.6787 C   0  0  2  0  0  0  0  0  0  0  0  0
   22.9974  -20.9395  -13.2033 N   0  0  0  0  0  0  0  0  0  0  0  0
   20.7787  -20.0932  -12.6932 C   0  0  0  0  0  0  0  0  0  0  0  0
   19.8088  -19.3258  -12.8590 O   0  0  0  0  0  0  0  0  0  0  0  0
   20.8337  -20.8774  -11.5565 O   0  0  0  0  0  0  0  0  0  0  0  0
  2  1  1  6
  2  7  1  0
  3  2  1  0
  3  4  1  0
  5  4  1  0
  6  5  2  0
  7  8  2  0
  9  5  1  0
 10 11  1  0
 11 12  1  0
 13 12  1  0
 14 13  1  1
 14 16  1  0
 15  7  1  0
 15 14  1  0
 16 17  2  0
 19 18  1  6
 19 21  1  0
 20 19  1  0
 21 23  1  0
 22 16  1  0
 21 22  1  1
 23 24  2  0
 23 25  1  0
M  END
$$$$
