EMT.pdb
     RDKit          3D

 25 24  0  0  1  0  0  0  0  0999 V2000
   21.6232  -20.2701  -16.4678 N   0  0  0  0  0  0  0  0  0  0  0  0
   21.9785  -20.5520  -15.0799 C   0  0  1  0  0  0  0  0  0  0  0  0
   22.5262  -21.9355  -14.9477 C   0  0  0  0  0  0  0  0  0  0  0  0
   23.5571  -22.3110  -15.9585 C   0  0  0  0  0  0  0  0  0  0  0  0
   24.0632  -23.6842  -15.8546 C   0  0  0  0  0  0  0  0  0  0  0  0
   23.4927  -24.7151  -16.2796 O   0  0  0  0  0  0  0  0  0  0  0  0
   22.9777  -19.5517  -14.6207 C   0  0  0  0  0  0  0  0  0  0  0  0
   23.2993  -19.3577  -13.4249 O   0  0  0  0  0  0  0  0  0  0  0  0
   25.2925  -23.8594  -15.2250 O   0  0  0  0  0  0  0  0  0  0  0  0
   28.2078  -20.9367  -14.8942 C   0  0  0  0  0  0  0  0  0  0  0  0
   28.1098  -19.5988  -13.6834 S   0  0  0  0  0  0  0  0  0  0  0  0
   26.4881  -18.8040  -13.7102 C   0  0  0  0  0  0  0  0  0  0  0  0
   26.0583  -18.5506  -15.1182 C   0  0  0  0  0  0  0  0  0  0  0  0
   24.7279  -17.8308  -15.1979 C   0  0  2  0  0  0  0  0  0  0  0  0
   23.6584  -18.7151  -15.5805 N   0  0  0  0  0  0  0  0  0  0  0  0
   24.7860  -16.6738  -16.1265 C   0  0  0  0  0  0  0  0  0  0  0  0
   24.3339  -16.7956  -17.3039 O   0  0  0  0  0  0  0  0  0  0  0  0
   26.8290  -12.9943  -15.1197 C   0  0  0  0  0  0  0  0  0  0  0  0
   25.5801  -12.9803  -15.9572 C   0  0  1  0  0  0  0  0  0  0  0  0
   25.5229  -11.8911  -16.8241 O   0  0  0  0  0  0  0  0  0  0  0  0
   25.3047  -14.2782  -16.6524 C   0  0  2  0  0  0  0  0  0  0  0  0
   25.3240  -15.4175  -15.7776 N   0  0  0  0  0  0  0  0  0  0  0  0
   26.1877  -14.4310  -17.8220 C   0  0  0  0  0  0  0  0  0  0  0  0
   27.0603  -15.3215  -17.8735 O   0  0  0  0  0  0  0  0  0  0  0  0
   26.0430  -13.5637  -18.8884 O   0  0  0  0  0  0  0  0  0  0  0  0
  2  1  1  6
  2  7  1  0
  3  2  1  0
  3  4  1  0
  5  4  1  0
  6  5  2  0
  7  8  2  0
  9  5  1  0
 10 11  1  0
 11 12  1  0
 13 12  1  0
 14 13  1  6
 14 16  1  0
 15  7  1  0
 15 14  1  0
 16 17  2  0
 19 18  1  6
 19 21  1  0
 20 19  1  0
 21 23  1  0
 22 16  1  0
 21 22  1  1
 23 24  2  0
 23 25  1  0
M  END
$$$$
