EMT.pdb
     RDKit          3D

 25 24  0  0  1  0  0  0  0  0999 V2000
   19.8128  -14.4075  -18.6668 N   0  0  0  0  0  0  0  0  0  0  0  0
   19.0698  -14.1795  -17.4307 C   0  0  1  0  0  0  0  0  0  0  0  0
   18.8173  -15.4706  -16.7230 C   0  0  0  0  0  0  0  0  0  0  0  0
   18.3455  -16.5895  -17.5895 C   0  0  0  0  0  0  0  0  0  0  0  0
   18.2389  -17.8929  -16.9243 C   0  0  0  0  0  0  0  0  0  0  0  0
   18.4616  -18.1240  -15.7136 O   0  0  0  0  0  0  0  0  0  0  0  0
   19.8432  -13.2536  -16.5620 C   0  0  0  0  0  0  0  0  0  0  0  0
   19.5193  -12.9272  -15.3960 O   0  0  0  0  0  0  0  0  0  0  0  0
   17.8541  -18.9751  -17.7112 O   0  0  0  0  0  0  0  0  0  0  0  0
   26.9651  -10.2614  -14.9231 C   0  0  0  0  0  0  0  0  0  0  0  0
   25.9302  -11.4005  -15.8702 S   0  0  0  0  0  0  0  0  0  0  0  0
   24.1744  -11.0824  -15.5905 C   0  0  0  0  0  0  0  0  0  0  0  0
   23.3419  -12.0073  -16.4171 C   0  0  0  0  0  0  0  0  0  0  0  0
   21.8569  -11.7722  -16.2328 C   0  0  2  0  0  0  0  0  0  0  0  0
   21.0657  -12.6575  -17.0466 N   0  0  0  0  0  0  0  0  0  0  0  0
   21.4871  -10.3615  -16.5111 C   0  0  0  0  0  0  0  0  0  0  0  0
   21.6622   -9.8884  -17.6734 O   0  0  0  0  0  0  0  0  0  0  0  0
   18.1417   -8.3826  -16.2184 C   0  0  0  0  0  0  0  0  0  0  0  0
   19.2222   -7.7419  -15.3916 C   0  0  1  0  0  0  0  0  0  0  0  0
   19.0212   -7.9020  -14.0223 O   0  0  0  0  0  0  0  0  0  0  0  0
   20.6090   -8.1196  -15.8131 C   0  0  2  0  0  0  0  0  0  0  0  0
   20.9409   -9.4913  -15.5448 N   0  0  0  0  0  0  0  0  0  0  0  0
   21.5896   -7.1678  -15.2621 C   0  0  0  0  0  0  0  0  0  0  0  0
   22.5051   -7.5372  -14.4989 O   0  0  0  0  0  0  0  0  0  0  0  0
   21.4899   -5.8317  -15.6013 O   0  0  0  0  0  0  0  0  0  0  0  0
  2  1  1  6
  2  7  1  0
  3  2  1  0
  3  4  1  0
  5  4  1  0
  6  5  2  0
  7  8  2  0
  9  5  1  0
 10 11  1  0
 11 12  1  0
 13 12  1  0
 14 13  1  6
 14 16  1  0
 15  7  1  0
 15 14  1  0
 16 17  2  0
 19 18  1  6
 19 21  1  0
 20 19  1  0
 21 23  1  0
 22 16  1  0
 21 22  1  1
 23 24  2  0
 23 25  1  0
M  END
$$$$
