EMT.pdb
     RDKit          3D

 25 24  0  0  1  0  0  0  0  0999 V2000
   17.9442  -11.7516  -18.1886 N   0  0  0  0  0  0  0  0  0  0  0  0
   18.3306  -10.3468  -18.2834 C   0  0  1  0  0  0  0  0  0  0  0  0
   17.1337   -9.4874  -18.5292 C   0  0  0  0  0  0  0  0  0  0  0  0
   16.4710   -9.6825  -19.8514 C   0  0  0  0  0  0  0  0  0  0  0  0
   15.3162   -8.8140  -20.1058 C   0  0  0  0  0  0  0  0  0  0  0  0
   15.3589   -7.6256  -20.4990 O   0  0  0  0  0  0  0  0  0  0  0  0
   19.0102   -9.9431  -17.0243 C   0  0  0  0  0  0  0  0  0  0  0  0
   18.6370  -10.2690  -15.8730 O   0  0  0  0  0  0  0  0  0  0  0  0
   14.0539   -9.3607  -19.8905 O   0  0  0  0  0  0  0  0  0  0  0  0
   22.8147   -9.5430  -11.4572 C   0  0  0  0  0  0  0  0  0  0  0  0
   21.9641   -9.8917  -13.0130 S   0  0  0  0  0  0  0  0  0  0  0  0
   22.8819   -9.2403  -14.4256 C   0  0  0  0  0  0  0  0  0  0  0  0
   22.1702   -9.5618  -15.6991 C   0  0  0  0  0  0  0  0  0  0  0  0
   20.9102   -8.7414  -15.8825 C   0  0  2  0  0  0  0  0  0  0  0  0
   20.1919   -9.1150  -17.0727 N   0  0  0  0  0  0  0  0  0  0  0  0
   21.2024   -7.2859  -15.9024 C   0  0  0  0  0  0  0  0  0  0  0  0
   21.8998   -6.8025  -16.8434 O   0  0  0  0  0  0  0  0  0  0  0  0
   18.8451   -4.2620  -16.0337 C   0  0  0  0  0  0  0  0  0  0  0  0
   19.7720   -4.1276  -14.8571 C   0  0  1  0  0  0  0  0  0  0  0  0
   19.1211   -4.2866  -13.6356 O   0  0  0  0  0  0  0  0  0  0  0  0
   21.0055   -4.9710  -14.9607 C   0  0  2  0  0  0  0  0  0  0  0  0
   20.7449   -6.3831  -14.9201 N   0  0  0  0  0  0  0  0  0  0  0  0
   22.0074   -4.5381  -13.9709 C   0  0  0  0  0  0  0  0  0  0  0  0
   22.4525   -5.3174  -13.1039 O   0  0  0  0  0  0  0  0  0  0  0  0
   22.4641   -3.2340  -14.0063 O   0  0  0  0  0  0  0  0  0  0  0  0
  2  1  1  1
  2  7  1  0
  3  2  1  0
  3  4  1  0
  5  4  1  0
  6  5  2  0
  7  8  2  0
  9  5  1  0
 10 11  1  0
 11 12  1  0
 13 12  1  0
 14 13  1  6
 14 16  1  0
 15  7  1  0
 15 14  1  0
 16 17  2  0
 19 18  1  6
 19 21  1  0
 20 19  1  0
 21 23  1  0
 22 16  1  0
 21 22  1  1
 23 24  2  0
 23 25  1  0
M  END
$$$$
