EMT.pdb
     RDKit          3D

 25 24  0  0  1  0  0  0  0  0999 V2000
   28.0583  -22.0855  -15.9705 N   0  0  0  0  0  0  0  0  0  0  0  0
   28.0664  -21.1404  -14.8576 C   0  0  1  0  0  0  0  0  0  0  0  0
   28.0294  -19.7345  -15.3611 C   0  0  0  0  0  0  0  0  0  0  0  0
   27.0039  -19.4608  -16.4094 C   0  0  0  0  0  0  0  0  0  0  0  0
   26.0582  -18.3848  -16.0927 C   0  0  0  0  0  0  0  0  0  0  0  0
   26.0513  -17.6915  -15.0496 O   0  0  0  0  0  0  0  0  0  0  0  0
   26.8955  -21.4097  -13.9821 C   0  0  0  0  0  0  0  0  0  0  0  0
   25.9525  -22.1850  -14.2659 O   0  0  0  0  0  0  0  0  0  0  0  0
   25.0759  -18.1069  -17.0395 O   0  0  0  0  0  0  0  0  0  0  0  0
   26.9342  -19.4654   -7.7328 C   0  0  0  0  0  0  0  0  0  0  0  0
   25.4913  -20.5531   -7.7078 S   0  0  0  0  0  0  0  0  0  0  0  0
   25.0129  -21.0507   -9.3769 C   0  0  0  0  0  0  0  0  0  0  0  0
   26.0945  -20.7101  -10.3494 C   0  0  0  0  0  0  0  0  0  0  0  0
   25.7260  -21.0659  -11.7748 C   0  0  2  0  0  0  0  0  0  0  0  0
   26.7856  -20.7569  -12.6989 N   0  0  0  0  0  0  0  0  0  0  0  0
   24.4711  -20.3957  -12.1996 C   0  0  0  0  0  0  0  0  0  0  0  0
   24.4156  -19.1300  -12.2188 O   0  0  0  0  0  0  0  0  0  0  0  0
   22.7201  -20.2126  -15.4330 C   0  0  0  0  0  0  0  0  0  0  0  0
   21.7194  -20.7153  -14.4293 C   0  0  1  0  0  0  0  0  0  0  0  0
   21.3716  -22.0487  -14.6343 O   0  0  0  0  0  0  0  0  0  0  0  0
   22.0983  -20.4363  -13.0073 C   0  0  2  0  0  0  0  0  0  0  0  0
   23.3082  -21.0903  -12.5928 N   0  0  0  0  0  0  0  0  0  0  0  0
   20.9594  -20.7031  -12.1113 C   0  0  0  0  0  0  0  0  0  0  0  0
   21.0101  -21.5857  -11.2306 O   0  0  0  0  0  0  0  0  0  0  0  0
   19.8062  -19.9545  -12.2526 O   0  0  0  0  0  0  0  0  0  0  0  0
  2  1  1  6
  2  7  1  0
  3  2  1  0
  3  4  1  0
  5  4  1  0
  6  5  2  0
  7  8  2  0
  9  5  1  0
 10 11  1  0
 11 12  1  0
 13 12  1  0
 14 13  1  1
 14 16  1  0
 15  7  1  0
 15 14  1  0
 16 17  2  0
 19 18  1  6
 19 21  1  0
 20 19  1  0
 21 23  1  0
 22 16  1  0
 21 22  1  1
 23 24  2  0
 23 25  1  0
M  END
$$$$
