EMT.pdb
     RDKit          3D

 25 24  0  0  1  0  0  0  0  0999 V2000
   19.7024  -12.3556  -20.2300 N   0  0  0  0  0  0  0  0  0  0  0  0
   18.9008  -12.5175  -19.0204 C   0  0  1  0  0  0  0  0  0  0  0  0
   18.5456  -13.9535  -18.8130 C   0  0  0  0  0  0  0  0  0  0  0  0
   19.5185  -14.9368  -19.3717 C   0  0  0  0  0  0  0  0  0  0  0  0
   20.6121  -15.3153  -18.4699 C   0  0  0  0  0  0  0  0  0  0  0  0
   20.4917  -15.8992  -17.3684 O   0  0  0  0  0  0  0  0  0  0  0  0
   19.6661  -11.9984  -17.8564 C   0  0  0  0  0  0  0  0  0  0  0  0
   19.2692  -12.0275  -16.6679 O   0  0  0  0  0  0  0  0  0  0  0  0
   21.9053  -14.9963  -18.8751 O   0  0  0  0  0  0  0  0  0  0  0  0
   26.6754  -10.6750  -14.6005 C   0  0  0  0  0  0  0  0  0  0  0  0
   25.7099  -11.2163  -16.0290 S   0  0  0  0  0  0  0  0  0  0  0  0
   23.9827  -10.7075  -15.8873 C   0  0  0  0  0  0  0  0  0  0  0  0
   23.1972  -11.2087  -17.0550 C   0  0  0  0  0  0  0  0  0  0  0  0
   21.7273  -10.8558  -16.9598 C   0  0  2  0  0  0  0  0  0  0  0  0
   20.9686  -11.4067  -18.0520 N   0  0  0  0  0  0  0  0  0  0  0  0
   21.5202   -9.3874  -16.8883 C   0  0  0  0  0  0  0  0  0  0  0  0
   21.9862   -8.6464  -17.8044 O   0  0  0  0  0  0  0  0  0  0  0  0
   18.4799   -7.3056  -17.2283 C   0  0  0  0  0  0  0  0  0  0  0  0
   19.1050   -6.9898  -15.8975 C   0  0  1  0  0  0  0  0  0  0  0  0
   18.3786   -7.5013  -14.8243 O   0  0  0  0  0  0  0  0  0  0  0  0
   20.5606   -7.3339  -15.8174 C   0  0  2  0  0  0  0  0  0  0  0  0
   20.8227   -8.7461  -15.8435 N   0  0  0  0  0  0  0  0  0  0  0  0
   21.1871   -6.6497  -14.6726 C   0  0  0  0  0  0  0  0  0  0  0  0
   21.6698   -7.2844  -13.7128 O   0  0  0  0  0  0  0  0  0  0  0  0
   21.2399   -5.2686  -14.6648 O   0  0  0  0  0  0  0  0  0  0  0  0
  2  1  1  6
  2  7  1  0
  3  2  1  0
  3  4  1  0
  5  4  1  0
  6  5  2  0
  7  8  2  0
  9  5  1  0
 10 11  1  0
 11 12  1  0
 13 12  1  0
 14 13  1  6
 14 16  1  0
 15  7  1  0
 15 14  1  0
 16 17  2  0
 19 18  1  6
 19 21  1  0
 20 19  1  0
 21 23  1  0
 22 16  1  0
 21 22  1  1
 23 24  2  0
 23 25  1  0
M  END
$$$$
