EMT.pdb
     RDKit          3D

 25 24  0  0  1  0  0  0  0  0999 V2000
   31.4029  -32.7701  -17.3084 N   0  0  0  0  0  0  0  0  0  0  0  0
   31.5616  -32.5931  -15.8678 C   0  0  1  0  0  0  0  0  0  0  0  0
   30.3400  -33.0558  -15.1432 C   0  0  0  0  0  0  0  0  0  0  0  0
   29.2176  -32.0742  -15.0966 C   0  0  0  0  0  0  0  0  0  0  0  0
   28.4951  -31.8906  -16.3603 C   0  0  0  0  0  0  0  0  0  0  0  0
   27.8890  -32.7807  -17.0000 O   0  0  0  0  0  0  0  0  0  0  0  0
   32.7550  -33.3540  -15.4127 C   0  0  0  0  0  0  0  0  0  0  0  0
   33.2672  -34.3179  -16.0286 O   0  0  0  0  0  0  0  0  0  0  0  0
   28.4807  -30.6073  -16.9001 O   0  0  0  0  0  0  0  0  0  0  0  0
   38.1929  -32.0486  -13.9722 C   0  0  0  0  0  0  0  0  0  0  0  0
   37.8600  -33.7160  -13.3601 S   0  0  0  0  0  0  0  0  0  0  0  0
   36.5177  -33.7180  -12.1516 C   0  0  0  0  0  0  0  0  0  0  0  0
   35.3471  -32.9522  -12.6758 C   0  0  0  0  0  0  0  0  0  0  0  0
   34.5213  -33.7560  -13.6588 C   0  0  2  0  0  0  0  0  0  0  0  0
   33.4122  -32.9989  -14.1772 N   0  0  0  0  0  0  0  0  0  0  0  0
   34.0336  -35.0227  -13.0572 C   0  0  0  0  0  0  0  0  0  0  0  0
   33.1842  -34.9806  -12.1179 O   0  0  0  0  0  0  0  0  0  0  0  0
   33.5873  -38.5526  -15.1528 C   0  0  0  0  0  0  0  0  0  0  0  0
   33.0377  -38.2786  -13.7801 C   0  0  1  0  0  0  0  0  0  0  0  0
   32.5276  -39.4197  -13.1646 O   0  0  0  0  0  0  0  0  0  0  0  0
   33.9788  -37.5235  -12.8926 C   0  0  2  0  0  0  0  0  0  0  0  0
   34.4628  -36.3009  -13.4710 N   0  0  0  0  0  0  0  0  0  0  0  0
   35.0584  -38.4078  -12.4196 C   0  0  0  0  0  0  0  0  0  0  0  0
   36.2590  -38.1604  -12.6534 O   0  0  0  0  0  0  0  0  0  0  0  0
   34.7294  -39.5399  -11.6983 O   0  0  0  0  0  0  0  0  0  0  0  0
  2  1  1  6
  2  7  1  0
  3  2  1  0
  3  4  1  0
  5  4  1  0
  6  5  2  0
  7  8  2  0
  9  5  1  0
 10 11  1  0
 11 12  1  0
 13 12  1  0
 14 13  1  1
 14 16  1  0
 15  7  1  0
 15 14  1  0
 16 17  2  0
 19 18  1  6
 19 21  1  0
 20 19  1  0
 21 23  1  0
 22 16  1  0
 21 22  1  6
 23 24  2  0
 23 25  1  0
M  END
$$$$
