EMT.pdb
     RDKit          3D

 25 24  0  0  1  0  0  0  0  0999 V2000
   27.7293  -18.4974  -15.5023 N   0  0  0  0  0  0  0  0  0  0  0  0
   26.3468  -18.5078  -15.9721 C   0  0  1  0  0  0  0  0  0  0  0  0
   26.2892  -18.8273  -17.4302 C   0  0  0  0  0  0  0  0  0  0  0  0
   27.5148  -19.4673  -17.9903 C   0  0  0  0  0  0  0  0  0  0  0  0
   28.0635  -18.8240  -19.1894 C   0  0  0  0  0  0  0  0  0  0  0  0
   28.1154  -19.3236  -20.3367 O   0  0  0  0  0  0  0  0  0  0  0  0
   25.5748  -19.5090  -15.1900 C   0  0  0  0  0  0  0  0  0  0  0  0
   25.3425  -20.6833  -15.5615 O   0  0  0  0  0  0  0  0  0  0  0  0
   28.5745  -17.5376  -19.0394 O   0  0  0  0  0  0  0  0  0  0  0  0
   27.0672  -21.8270  -10.4091 C   0  0  0  0  0  0  0  0  0  0  0  0
   25.5400  -21.4528   -9.5185 S   0  0  0  0  0  0  0  0  0  0  0  0
   24.2408  -20.8974  -10.6437 C   0  0  0  0  0  0  0  0  0  0  0  0
   24.7674  -19.8457  -11.5647 C   0  0  0  0  0  0  0  0  0  0  0  0
   24.4604  -20.1411  -13.0182 C   0  0  2  0  0  0  0  0  0  0  0  0
   25.0295  -19.1562  -13.9005 N   0  0  0  0  0  0  0  0  0  0  0  0
   22.9994  -20.2525  -13.2577 C   0  0  0  0  0  0  0  0  0  0  0  0
   22.2678  -19.2247  -13.1398 O   0  0  0  0  0  0  0  0  0  0  0  0
   21.1352  -22.3017  -16.2813 C   0  0  0  0  0  0  0  0  0  0  0  0
   20.5998  -22.5916  -14.9062 C   0  0  1  0  0  0  0  0  0  0  0  0
   20.9019  -23.8795  -14.4692 O   0  0  0  0  0  0  0  0  0  0  0  0
   20.9483  -21.5476  -13.8902 C   0  0  2  0  0  0  0  0  0  0  0  0
   22.3554  -21.4550  -13.6162 N   0  0  0  0  0  0  0  0  0  0  0  0
   20.1319  -21.7210  -12.6759 C   0  0  0  0  0  0  0  0  0  0  0  0
   18.8876  -21.6303  -12.7034 O   0  0  0  0  0  0  0  0  0  0  0  0
   20.7638  -21.9910  -11.4768 O   0  0  0  0  0  0  0  0  0  0  0  0
  2  1  1  1
  2  7  1  0
  3  2  1  0
  3  4  1  0
  5  4  1  0
  6  5  2  0
  7  8  2  0
  9  5  1  0
 10 11  1  0
 11 12  1  0
 13 12  1  0
 14 13  1  1
 14 16  1  0
 15  7  1  0
 15 14  1  0
 16 17  2  0
 19 18  1  6
 19 21  1  0
 20 19  1  0
 21 23  1  0
 22 16  1  0
 21 22  1  1
 23 24  2  0
 23 25  1  0
M  END
$$$$
