YMG.pdb
     RDKit          3D

 25 25  0  0  1  0  0  0  0  0999 V2000
   11.8498  -16.1509   31.6836 O   0  0  0  0  0  0  0  0  0  0  0  0
   11.3600  -16.2031   30.3931 C   0  0  0  0  0  0  0  0  0  0  0  0
   11.4136  -17.3551   29.6263 C   0  0  0  0  0  0  0  0  0  0  0  0
   10.9201  -17.4011   28.3313 C   0  0  0  0  0  0  0  0  0  0  0  0
   10.3615  -16.2435   27.8144 C   0  0  0  0  0  0  0  0  0  0  0  0
    9.8220  -16.2261   26.4531 C   0  0  0  0  0  0  0  0  0  0  0  0
    8.3583  -16.6127   26.4005 C   0  0  2  0  0  0  0  0  0  0  0  0
    8.1443  -17.9949   26.7057 N   0  0  0  0  0  0  0  0  0  0  0  0
    7.8175  -16.2919   25.0301 C   0  0  0  0  0  0  0  0  0  0  0  0
    7.2546  -17.2103   24.4001 O   0  0  0  0  0  0  0  0  0  0  0  0
   10.3070  -15.0931   28.5778 C   0  0  0  0  0  0  0  0  0  0  0  0
   10.7981  -15.0480   29.8661 C   0  0  0  0  0  0  0  0  0  0  0  0
    5.4092  -11.6604   26.7493 C   0  0  0  0  0  0  0  0  0  0  0  0
    6.7139  -12.3867   25.7258 S   0  0  0  0  0  0  0  0  0  0  0  0
    6.1908  -12.4686   23.9779 C   0  0  0  0  0  0  0  0  0  0  0  0
    7.2727  -13.0381   23.1261 C   0  0  0  0  0  0  0  0  0  0  0  0
    7.4091  -14.5506   23.2310 C   0  0  2  0  0  0  0  0  0  0  0  0
    7.9529  -14.9875   24.4927 N   0  0  0  0  0  0  0  0  0  0  0  0
    8.1992  -15.0091   22.0880 C   0  0  0  0  0  0  0  0  0  0  0  0
    7.6792  -14.9294   20.9380 O   0  0  0  0  0  0  0  0  0  0  0  0
    9.5167  -15.5432   22.1576 N   0  0  0  0  0  0  0  0  0  0  0  0
   10.2596  -15.9582   20.9969 C   0  0  0  0  0  0  0  0  0  0  0  0
   11.6144  -16.4406   21.3302 C   0  0  0  0  0  0  0  0  0  0  0  0
   12.7092  -16.2390   20.5131 O   0  0  0  0  0  0  0  0  0  0  0  0
   11.7826  -17.0628   22.4045 O   0  0  0  0  0  0  0  0  0  0  0  0
  2  1  1  0
  3  2  2  0
  4  3  1  0
  5  4  2  0
  5 11  1  0
  6  5  1  0
  7  9  1  0
  7  6  1  0
  7  8  1  6
  9 18  1  0
 10  9  2  0
 11 12  2  0
 12  2  1  0
 14 13  1  0
 15 14  1  0
 17 16  1  1
 16 15  1  0
 17 19  1  0
 18 17  1  0
 19 20  2  0
 19 21  1  0
 21 22  1  0
 23 22  1  0
 23 24  1  0
 25 23  2  0
M  END
$$$$
