YMG.pdb
     RDKit          3D

 25 25  0  0  1  0  0  0  0  0999 V2000
    7.5825  -23.7725   29.9266 O   0  0  0  0  0  0  0  0  0  0  0  0
    7.6289  -22.6417   29.1347 C   0  0  0  0  0  0  0  0  0  0  0  0
    6.4852  -22.0275   28.6524 C   0  0  0  0  0  0  0  0  0  0  0  0
    6.5384  -20.8924   27.8578 C   0  0  0  0  0  0  0  0  0  0  0  0
    7.7884  -20.3787   27.5531 C   0  0  0  0  0  0  0  0  0  0  0  0
    7.9132  -19.1817   26.7188 C   0  0  0  0  0  0  0  0  0  0  0  0
    7.1082  -19.2758   25.4391 C   0  0  2  0  0  0  0  0  0  0  0  0
    7.3493  -20.4941   24.7271 N   0  0  0  0  0  0  0  0  0  0  0  0
    7.4358  -18.0896   24.5678 C   0  0  0  0  0  0  0  0  0  0  0  0
    8.3033  -18.2422   23.6841 O   0  0  0  0  0  0  0  0  0  0  0  0
    8.9307  -20.9900   28.0333 C   0  0  0  0  0  0  0  0  0  0  0  0
    8.8771  -22.1192   28.8237 C   0  0  0  0  0  0  0  0  0  0  0  0
    7.0437  -10.5059   27.0405 C   0  0  0  0  0  0  0  0  0  0  0  0
    6.2629  -12.1332   26.9012 S   0  0  0  0  0  0  0  0  0  0  0  0
    7.2897  -13.2560   25.8910 C   0  0  0  0  0  0  0  0  0  0  0  0
    6.6598  -14.6024   25.7873 C   0  0  0  0  0  0  0  0  0  0  0  0
    7.4237  -15.5744   24.8992 C   0  0  2  0  0  0  0  0  0  0  0  0
    6.7713  -16.8527   24.7605 N   0  0  0  0  0  0  0  0  0  0  0  0
    8.7830  -15.6902   25.4279 C   0  0  0  0  0  0  0  0  0  0  0  0
    8.9274  -15.7551   26.6825 O   0  0  0  0  0  0  0  0  0  0  0  0
    9.9710  -15.7367   24.6451 N   0  0  0  0  0  0  0  0  0  0  0  0
    9.9917  -15.4728   23.2306 C   0  0  0  0  0  0  0  0  0  0  0  0
   11.3599  -15.4407   22.6772 C   0  0  0  0  0  0  0  0  0  0  0  0
   11.6304  -15.1786   21.3486 O   0  0  0  0  0  0  0  0  0  0  0  0
   12.3239  -15.6614   23.4464 O   0  0  0  0  0  0  0  0  0  0  0  0
  2  1  1  0
  3  2  2  0
  4  3  1  0
  5  4  2  0
  5 11  1  0
  6  5  1  0
  7  9  1  0
  7  6  1  0
  7  8  1  6
  9 18  1  0
 10  9  2  0
 11 12  2  0
 12  2  1  0
 14 13  1  0
 15 14  1  0
 17 16  1  1
 16 15  1  0
 17 19  1  0
 18 17  1  0
 19 20  2  0
 19 21  1  0
 21 22  1  0
 23 22  1  0
 23 24  1  0
 25 23  2  0
M  END
$$$$
