YMG.pdb
     RDKit          3D

 25 25  0  0  1  0  0  0  0  0999 V2000
   11.6637  -15.9509   32.0796 O   0  0  0  0  0  0  0  0  0  0  0  0
   11.3843  -16.0988   30.7350 C   0  0  0  0  0  0  0  0  0  0  0  0
   10.8298  -15.0810   29.9771 C   0  0  0  0  0  0  0  0  0  0  0  0
   10.5517  -15.2357   28.6275 C   0  0  0  0  0  0  0  0  0  0  0  0
   10.8483  -16.4575   28.0458 C   0  0  0  0  0  0  0  0  0  0  0  0
   10.5792  -16.6850   26.6243 C   0  0  0  0  0  0  0  0  0  0  0  0
    9.1891  -17.2324   26.3739 C   0  0  2  0  0  0  0  0  0  0  0  0
    9.1276  -18.6564   26.5069 N   0  0  0  0  0  0  0  0  0  0  0  0
    8.7423  -16.8181   24.9948 C   0  0  0  0  0  0  0  0  0  0  0  0
    8.6404  -17.7090   24.1270 O   0  0  0  0  0  0  0  0  0  0  0  0
   11.4016  -17.4743   28.8001 C   0  0  0  0  0  0  0  0  0  0  0  0
   11.6780  -17.3197   30.1427 C   0  0  0  0  0  0  0  0  0  0  0  0
    5.4975  -11.5833   26.8461 C   0  0  0  0  0  0  0  0  0  0  0  0
    6.7967  -11.8574   25.6156 S   0  0  0  0  0  0  0  0  0  0  0  0
    6.3795  -13.2762   24.5438 C   0  0  0  0  0  0  0  0  0  0  0  0
    7.4555  -13.5191   23.5419 C   0  0  0  0  0  0  0  0  0  0  0  0
    7.9143  -14.9687   23.4683 C   0  0  2  0  0  0  0  0  0  0  0  0
    8.4526  -15.4598   24.7124 N   0  0  0  0  0  0  0  0  0  0  0  0
    8.8630  -15.0822   22.3602 C   0  0  0  0  0  0  0  0  0  0  0  0
   10.0678  -14.7646   22.5766 O   0  0  0  0  0  0  0  0  0  0  0  0
    8.5453  -15.5238   21.0448 N   0  0  0  0  0  0  0  0  0  0  0  0
    9.4845  -15.4884   19.9550 C   0  0  0  0  0  0  0  0  0  0  0  0
   10.4776  -16.5785   20.0232 C   0  0  0  0  0  0  0  0  0  0  0  0
   11.4875  -16.7382   19.0950 O   0  0  0  0  0  0  0  0  0  0  0  0
   10.4039  -17.3995   20.9667 O   0  0  0  0  0  0  0  0  0  0  0  0
  2  1  1  0
  3  2  2  0
  4  3  1  0
  5  4  2  0
  5 11  1  0
  6  5  1  0
  7  9  1  0
  7  6  1  0
  7  8  1  6
  9 18  1  0
 10  9  2  0
 11 12  2  0
 12  2  1  0
 14 13  1  0
 15 14  1  0
 17 16  1  1
 16 15  1  0
 17 19  1  0
 18 17  1  0
 19 20  2  0
 19 21  1  0
 21 22  1  0
 23 22  1  0
 23 24  1  0
 25 23  2  0
M  END
$$$$
