YMG.pdb
     RDKit          3D

 25 25  0  0  1  0  0  0  0  0999 V2000
   10.7803  -14.6520   31.0637 O   0  0  0  0  0  0  0  0  0  0  0  0
   10.5462  -14.9861   29.7440 C   0  0  0  0  0  0  0  0  0  0  0  0
    9.8442  -14.1587   28.8836 C   0  0  0  0  0  0  0  0  0  0  0  0
    9.6125  -14.4999   27.5597 C   0  0  0  0  0  0  0  0  0  0  0  0
   10.1107  -15.7123   27.1114 C   0  0  0  0  0  0  0  0  0  0  0  0
    9.9006  -16.1311   25.7239 C   0  0  0  0  0  0  0  0  0  0  0  0
    8.4713  -16.5526   25.4516 C   0  0  2  0  0  0  0  0  0  0  0  0
    8.1130  -17.7555   26.1400 N   0  0  0  0  0  0  0  0  0  0  0  0
    8.2889  -16.7287   23.9653 C   0  0  0  0  0  0  0  0  0  0  0  0
    8.5809  -17.8377   23.4735 O   0  0  0  0  0  0  0  0  0  0  0  0
   10.8113  -16.5393   27.9683 C   0  0  0  0  0  0  0  0  0  0  0  0
   11.0415  -16.1993   29.2852 C   0  0  0  0  0  0  0  0  0  0  0  0
    7.2037  -12.2189   17.4074 C   0  0  0  0  0  0  0  0  0  0  0  0
    7.0847  -12.3704   19.2074 S   0  0  0  0  0  0  0  0  0  0  0  0
    7.7617  -13.9723   19.7651 C   0  0  0  0  0  0  0  0  0  0  0  0
    7.6363  -14.1161   21.2430 C   0  0  0  0  0  0  0  0  0  0  0  0
    8.0963  -15.4670   21.7728 C   0  0  2  0  0  0  0  0  0  0  0  0
    7.8018  -15.6610   23.1708 N   0  0  0  0  0  0  0  0  0  0  0  0
    9.5219  -15.6035   21.4733 C   0  0  0  0  0  0  0  0  0  0  0  0
   10.3505  -15.1721   22.3257 O   0  0  0  0  0  0  0  0  0  0  0  0
   10.0644  -16.1857   20.2932 N   0  0  0  0  0  0  0  0  0  0  0  0
   11.4752  -16.3867   20.0921 C   0  0  0  0  0  0  0  0  0  0  0  0
   11.7766  -17.0824   18.8255 C   0  0  0  0  0  0  0  0  0  0  0  0
   12.5760  -16.5402   17.8387 O   0  0  0  0  0  0  0  0  0  0  0  0
   11.2856  -18.2189   18.6332 O   0  0  0  0  0  0  0  0  0  0  0  0
  2  1  1  0
  3  2  2  0
  4  3  1  0
  5  4  2  0
  5 11  1  0
  6  5  1  0
  7  9  1  0
  7  6  1  0
  7  8  1  1
  9 18  1  0
 10  9  2  0
 11 12  2  0
 12  2  1  0
 14 13  1  0
 15 14  1  0
 17 16  1  1
 16 15  1  0
 17 19  1  0
 18 17  1  0
 19 20  2  0
 19 21  1  0
 21 22  1  0
 23 22  1  0
 23 24  1  0
 25 23  2  0
M  END
$$$$
