YMG.pdb
     RDKit          3D

 25 25  0  0  1  0  0  0  0  0999 V2000
   11.3713  -15.3889   31.6822 O   0  0  0  0  0  0  0  0  0  0  0  0
   11.2050  -15.5343   30.3187 C   0  0  0  0  0  0  0  0  0  0  0  0
   11.5399  -16.7008   29.6517 C   0  0  0  0  0  0  0  0  0  0  0  0
   11.3704  -16.8405   28.2825 C   0  0  0  0  0  0  0  0  0  0  0  0
   10.8478  -15.7631   27.5860 C   0  0  0  0  0  0  0  0  0  0  0  0
   10.6438  -15.8467   26.1382 C   0  0  0  0  0  0  0  0  0  0  0  0
    9.5545  -16.8284   25.7581 C   0  0  2  0  0  0  0  0  0  0  0  0
    9.8998  -18.1811   26.0744 N   0  0  0  0  0  0  0  0  0  0  0  0
    9.2695  -16.6946   24.2836 C   0  0  0  0  0  0  0  0  0  0  0  0
   10.2049  -16.9228   23.4899 O   0  0  0  0  0  0  0  0  0  0  0  0
   10.5131  -14.5984   28.2496 C   0  0  0  0  0  0  0  0  0  0  0  0
   10.6819  -14.4600   29.6116 C   0  0  0  0  0  0  0  0  0  0  0  0
    6.0562  -11.8275   27.1483 C   0  0  0  0  0  0  0  0  0  0  0  0
    7.1897  -12.0310   25.7516 S   0  0  0  0  0  0  0  0  0  0  0  0
    6.8606  -13.6010   24.8785 C   0  0  0  0  0  0  0  0  0  0  0  0
    7.8853  -13.8476   23.8251 C   0  0  0  0  0  0  0  0  0  0  0  0
    7.6798  -15.1449   23.0558 C   0  0  2  0  0  0  0  0  0  0  0  0
    7.9784  -16.3217   23.8334 N   0  0  0  0  0  0  0  0  0  0  0  0
    8.4696  -15.0665   21.8267 C   0  0  0  0  0  0  0  0  0  0  0  0
    8.1009  -14.2473   20.9366 O   0  0  0  0  0  0  0  0  0  0  0  0
    9.6298  -15.8401   21.5414 N   0  0  0  0  0  0  0  0  0  0  0  0
   10.3954  -15.6931   20.3317 C   0  0  0  0  0  0  0  0  0  0  0  0
   11.6277  -16.5058   20.3351 C   0  0  0  0  0  0  0  0  0  0  0  0
   12.1986  -17.0154   19.1856 O   0  0  0  0  0  0  0  0  0  0  0  0
   12.1848  -16.7467   21.4311 O   0  0  0  0  0  0  0  0  0  0  0  0
  2  1  1  0
  3  2  2  0
  4  3  1  0
  5  4  2  0
  5 11  1  0
  6  5  1  0
  7  9  1  0
  7  6  1  0
  7  8  1  6
  9 18  1  0
 10  9  2  0
 11 12  2  0
 12  2  1  0
 14 13  1  0
 15 14  1  0
 17 16  1  1
 16 15  1  0
 17 19  1  0
 18 17  1  0
 19 20  2  0
 19 21  1  0
 21 22  1  0
 23 22  1  0
 23 24  1  0
 25 23  2  0
M  END
$$$$
