YMG.pdb
     RDKit          3D

 25 25  0  0  1  0  0  0  0  0999 V2000
   10.4594  -14.3555   31.0888 O   0  0  0  0  0  0  0  0  0  0  0  0
   10.2272  -14.7389   29.7822 C   0  0  0  0  0  0  0  0  0  0  0  0
    9.7171  -13.8680   28.8340 C   0  0  0  0  0  0  0  0  0  0  0  0
    9.4863  -14.2590   27.5239 C   0  0  0  0  0  0  0  0  0  0  0  0
    9.7846  -15.5678   27.1813 C   0  0  0  0  0  0  0  0  0  0  0  0
    9.5642  -16.0434   25.8138 C   0  0  0  0  0  0  0  0  0  0  0  0
    8.1085  -16.3525   25.5311 C   0  0  2  0  0  0  0  0  0  0  0  0
    7.6288  -17.4720   26.2834 N   0  0  0  0  0  0  0  0  0  0  0  0
    7.9414  -16.6071   24.0543 C   0  0  0  0  0  0  0  0  0  0  0  0
    7.9514  -17.7931   23.6664 O   0  0  0  0  0  0  0  0  0  0  0  0
   10.2936  -16.4383   28.1258 C   0  0  0  0  0  0  0  0  0  0  0  0
   10.5230  -16.0487   29.4290 C   0  0  0  0  0  0  0  0  0  0  0  0
    7.7224  -11.4046   19.7282 C   0  0  0  0  0  0  0  0  0  0  0  0
    7.1931  -12.8277   18.7425 S   0  0  0  0  0  0  0  0  0  0  0  0
    7.7327  -14.3882   19.5229 C   0  0  0  0  0  0  0  0  0  0  0  0
    7.6460  -14.2969   21.0078 C   0  0  0  0  0  0  0  0  0  0  0  0
    7.9671  -15.6001   21.7260 C   0  0  2  0  0  0  0  0  0  0  0  0
    7.7798  -15.5250   23.1535 N   0  0  0  0  0  0  0  0  0  0  0  0
    9.3274  -15.9917   21.3561 C   0  0  0  0  0  0  0  0  0  0  0  0
   10.2887  -15.3447   21.8626 O   0  0  0  0  0  0  0  0  0  0  0  0
    9.6679  -17.0491   20.4661 N   0  0  0  0  0  0  0  0  0  0  0  0
   11.0112  -17.2919   20.0104 C   0  0  0  0  0  0  0  0  0  0  0  0
   11.0910  -18.3983   19.0364 C   0  0  0  0  0  0  0  0  0  0  0  0
   11.4228  -19.6915   19.3892 O   0  0  0  0  0  0  0  0  0  0  0  0
   10.8468  -18.1563   17.8316 O   0  0  0  0  0  0  0  0  0  0  0  0
  2  1  1  0
  3  2  2  0
  4  3  1  0
  5  4  2  0
  5 11  1  0
  6  5  1  0
  7  9  1  0
  7  6  1  0
  7  8  1  1
  9 18  1  0
 10  9  2  0
 11 12  2  0
 12  2  1  0
 14 13  1  0
 15 14  1  0
 17 16  1  6
 16 15  1  0
 17 19  1  0
 18 17  1  0
 19 20  2  0
 19 21  1  0
 21 22  1  0
 23 22  1  0
 23 24  1  0
 25 23  2  0
M  END
$$$$
