YMG.pdb
     RDKit          3D

 25 25  0  0  1  0  0  0  0  0999 V2000
   11.8677  -18.7466   29.2956 O   0  0  0  0  0  0  0  0  0  0  0  0
   10.6030  -18.7498   28.7402 C   0  0  0  0  0  0  0  0  0  0  0  0
    9.9589  -19.9188   28.3708 C   0  0  0  0  0  0  0  0  0  0  0  0
    8.6892  -19.9152   27.8137 C   0  0  0  0  0  0  0  0  0  0  0  0
    8.0698  -18.6894   27.6326 C   0  0  0  0  0  0  0  0  0  0  0  0
    6.7283  -18.6171   27.0496 C   0  0  0  0  0  0  0  0  0  0  0  0
    6.7485  -18.6360   25.5351 C   0  0  2  0  0  0  0  0  0  0  0  0
    7.9172  -19.2740   25.0095 N   0  0  0  0  0  0  0  0  0  0  0  0
    6.6557  -17.2191   25.0279 C   0  0  0  0  0  0  0  0  0  0  0  0
    5.5778  -16.6133   25.1958 O   0  0  0  0  0  0  0  0  0  0  0  0
    8.7107  -17.5219   28.0004 C   0  0  0  0  0  0  0  0  0  0  0  0
    9.9738  -17.5261   28.5546 C   0  0  0  0  0  0  0  0  0  0  0  0
    5.3011  -11.6626   27.0320 C   0  0  0  0  0  0  0  0  0  0  0  0
    6.6474  -12.1695   25.9330 S   0  0  0  0  0  0  0  0  0  0  0  0
    6.9604  -13.9626   26.0826 C   0  0  0  0  0  0  0  0  0  0  0  0
    8.1759  -14.3552   25.3151 C   0  0  0  0  0  0  0  0  0  0  0  0
    7.8826  -15.2072   24.0882 C   0  0  2  0  0  0  0  0  0  0  0  0
    7.7642  -16.6129   24.3858 N   0  0  0  0  0  0  0  0  0  0  0  0
    8.9166  -14.9275   23.0915 C   0  0  0  0  0  0  0  0  0  0  0  0
    9.2358  -13.7203   22.8915 O   0  0  0  0  0  0  0  0  0  0  0  0
    9.6027  -15.9060   22.3183 N   0  0  0  0  0  0  0  0  0  0  0  0
   10.6466  -15.5793   21.3831 C   0  0  0  0  0  0  0  0  0  0  0  0
   11.1893  -16.7684   20.6969 C   0  0  0  0  0  0  0  0  0  0  0  0
   11.3139  -16.8561   19.3245 O   0  0  0  0  0  0  0  0  0  0  0  0
   11.5551  -17.7463   21.3894 O   0  0  0  0  0  0  0  0  0  0  0  0
  2  1  1  0
  3  2  2  0
  4  3  1  0
  5  4  2  0
  5 11  1  0
  6  5  1  0
  7  9  1  0
  7  6  1  0
  7  8  1  1
  9 18  1  0
 10  9  2  0
 11 12  2  0
 12  2  1  0
 14 13  1  0
 15 14  1  0
 17 16  1  1
 16 15  1  0
 17 19  1  0
 18 17  1  0
 19 20  2  0
 19 21  1  0
 21 22  1  0
 23 22  1  0
 23 24  1  0
 25 23  2  0
M  END
$$$$
