YMG.pdb
     RDKit          3D

 25 25  0  0  1  0  0  0  0  0999 V2000
    7.2798  -22.8019   29.5525 O   0  0  0  0  0  0  0  0  0  0  0  0
    7.4146  -21.9851   28.4467 C   0  0  0  0  0  0  0  0  0  0  0  0
    7.7200  -22.4827   27.1909 C   0  0  0  0  0  0  0  0  0  0  0  0
    7.8540  -21.6575   26.0847 C   0  0  0  0  0  0  0  0  0  0  0  0
    7.6712  -20.2970   26.2713 C   0  0  0  0  0  0  0  0  0  0  0  0
    7.7984  -19.3717   25.1434 C   0  0  0  0  0  0  0  0  0  0  0  0
    6.4616  -18.8331   24.6768 C   0  0  2  0  0  0  0  0  0  0  0  0
    5.8560  -19.6588   23.6765 N   0  0  0  0  0  0  0  0  0  0  0  0
    6.6560  -17.4339   24.1498 C   0  0  0  0  0  0  0  0  0  0  0  0
    6.6049  -17.2682   22.9141 O   0  0  0  0  0  0  0  0  0  0  0  0
    7.3665  -19.7986   27.5234 C   0  0  0  0  0  0  0  0  0  0  0  0
    7.2333  -20.6200   28.6235 C   0  0  0  0  0  0  0  0  0  0  0  0
    5.4435  -11.7424   27.4924 C   0  0  0  0  0  0  0  0  0  0  0  0
    7.0682  -11.4418   26.7527 S   0  0  0  0  0  0  0  0  0  0  0  0
    7.3698  -12.5961   25.3698 C   0  0  0  0  0  0  0  0  0  0  0  0
    7.0642  -13.9979   25.7722 C   0  0  0  0  0  0  0  0  0  0  0  0
    7.2203  -15.0110   24.6468 C   0  0  2  0  0  0  0  0  0  0  0  0
    6.8876  -16.3571   25.0417 N   0  0  0  0  0  0  0  0  0  0  0  0
    8.5835  -14.8969   24.1277 C   0  0  0  0  0  0  0  0  0  0  0  0
    8.9134  -13.8153   23.5614 O   0  0  0  0  0  0  0  0  0  0  0  0
    9.5825  -15.9078   24.2049 N   0  0  0  0  0  0  0  0  0  0  0  0
   10.5000  -16.1905   23.1328 C   0  0  0  0  0  0  0  0  0  0  0  0
   11.9013  -15.8917   23.4886 C   0  0  0  0  0  0  0  0  0  0  0  0
   12.9256  -15.8658   22.5630 O   0  0  0  0  0  0  0  0  0  0  0  0
   12.1779  -15.6498   24.6864 O   0  0  0  0  0  0  0  0  0  0  0  0
  2  1  1  0
  3  2  2  0
  4  3  1  0
  5  4  2  0
  5 11  1  0
  6  5  1  0
  7  9  1  0
  7  6  1  0
  7  8  1  6
  9 18  1  0
 10  9  2  0
 11 12  2  0
 12  2  1  0
 14 13  1  0
 15 14  1  0
 17 16  1  1
 16 15  1  0
 17 19  1  0
 18 17  1  0
 19 20  2  0
 19 21  1  0
 21 22  1  0
 23 22  1  0
 23 24  1  0
 25 23  2  0
M  END
$$$$
