YMG.pdb
     RDKit          3D

 25 25  0  0  1  0  0  0  0  0999 V2000
   11.9394  -16.7492   31.6160 O   0  0  0  0  0  0  0  0  0  0  0  0
   11.4544  -16.8274   30.3250 C   0  0  0  0  0  0  0  0  0  0  0  0
   11.7337  -17.8980   29.4922 C   0  0  0  0  0  0  0  0  0  0  0  0
   11.2438  -17.9706   28.1971 C   0  0  0  0  0  0  0  0  0  0  0  0
   10.4529  -16.9251   27.7491 C   0  0  0  0  0  0  0  0  0  0  0  0
    9.9041  -16.9415   26.3915 C   0  0  0  0  0  0  0  0  0  0  0  0
    8.3944  -17.0643   26.3738 C   0  0  2  0  0  0  0  0  0  0  0  0
    7.9481  -18.3915   26.6714 N   0  0  0  0  0  0  0  0  0  0  0  0
    7.8854  -16.6345   25.0212 C   0  0  0  0  0  0  0  0  0  0  0  0
    7.6106  -17.5283   24.1950 O   0  0  0  0  0  0  0  0  0  0  0  0
   10.1731  -15.8560   28.5784 C   0  0  0  0  0  0  0  0  0  0  0  0
   10.6608  -15.7844   29.8668 C   0  0  0  0  0  0  0  0  0  0  0  0
    5.6973  -11.8363   27.2161 C   0  0  0  0  0  0  0  0  0  0  0  0
    6.9053  -12.2696   25.9393 S   0  0  0  0  0  0  0  0  0  0  0  0
    6.0704  -12.9702   24.4739 C   0  0  0  0  0  0  0  0  0  0  0  0
    7.0546  -13.2759   23.3976 C   0  0  0  0  0  0  0  0  0  0  0  0
    7.5365  -14.7198   23.3939 C   0  0  2  0  0  0  0  0  0  0  0  0
    7.7308  -15.2589   24.7168 N   0  0  0  0  0  0  0  0  0  0  0  0
    8.7476  -14.7854   22.5754 C   0  0  0  0  0  0  0  0  0  0  0  0
    9.1955  -13.7059   22.0923 O   0  0  0  0  0  0  0  0  0  0  0  0
    9.4742  -15.9710   22.2716 N   0  0  0  0  0  0  0  0  0  0  0  0
   10.6577  -15.9802   21.4529 C   0  0  0  0  0  0  0  0  0  0  0  0
   11.3148  -17.3016   21.4164 C   0  0  0  0  0  0  0  0  0  0  0  0
   12.4257  -17.5706   20.6415 O   0  0  0  0  0  0  0  0  0  0  0  0
   10.8450  -18.2253   22.1206 O   0  0  0  0  0  0  0  0  0  0  0  0
  2  1  1  0
  3  2  2  0
  4  3  1  0
  5  4  2  0
  5 11  1  0
  6  5  1  0
  7  9  1  0
  7  6  1  0
  7  8  1  6
  9 18  1  0
 10  9  2  0
 11 12  2  0
 12  2  1  0
 14 13  1  0
 15 14  1  0
 17 16  1  1
 16 15  1  0
 17 19  1  0
 18 17  1  0
 19 20  2  0
 19 21  1  0
 21 22  1  0
 23 22  1  0
 23 24  1  0
 25 23  2  0
M  END
$$$$
