ESH.pdb
     RDKit          3D

 26 26  0  0  1  0  0  0  0  0999 V2000
   15.1826  -12.8155  -14.7993 N   0  0  0  0  0  0  0  0  0  0  0  0
   16.4425  -12.9933  -15.5423 C   0  0  1  0  0  0  0  0  0  0  0  0
   16.1978  -14.1409  -16.4821 C   0  0  0  0  0  0  0  0  0  0  0  0
   15.9015  -15.4356  -15.8118 C   0  0  0  0  0  0  0  0  0  0  0  0
   17.1613  -15.9152  -15.1384 C   0  0  0  0  0  0  0  0  0  0  0  0
   18.0529  -16.5194  -15.7905 O   0  0  0  0  0  0  0  0  0  0  0  0
   16.8508  -11.7487  -16.1861 C   0  0  0  0  0  0  0  0  0  0  0  0
   17.7701  -11.7536  -17.0300 O   0  0  0  0  0  0  0  0  0  0  0  0
   17.3865  -15.7115  -13.7841 O   0  0  0  0  0  0  0  0  0  0  0  0
   15.7088   -8.0934  -14.6510 O   0  0  0  0  0  0  0  0  0  0  0  0
   15.7856   -8.1925  -16.0306 C   0  0  0  0  0  0  0  0  0  0  0  0
   16.6956   -9.3143  -16.4805 C   0  0  2  0  0  0  0  0  0  0  0  0
   16.2221  -10.5261  -15.8720 N   0  0  0  0  0  0  0  0  0  0  0  0
   18.1168   -9.0340  -16.1727 C   0  0  0  0  0  0  0  0  0  0  0  0
   18.6253   -9.5873  -15.1640 O   0  0  0  0  0  0  0  0  0  0  0  0
   18.9402   -8.1766  -16.9501 N   0  0  0  0  0  0  0  0  0  0  0  0
   20.3409   -7.9048  -16.5892 C   0  0  1  0  0  0  0  0  0  0  0  0
   21.1801   -8.7888  -17.4803 C   0  0  0  0  0  0  0  0  0  0  0  0
   22.6217   -8.5335  -17.2283 C   0  0  0  0  0  0  0  0  0  0  0  0
   23.2170   -8.3929  -15.9719 C   0  0  0  0  0  0  0  0  0  0  0  0
   24.5348   -8.1708  -16.1133 N   0  0  0  0  0  0  0  0  0  0  0  0
   24.7787   -8.1692  -17.4341 C   0  0  0  0  0  0  0  0  0  0  0  0
   23.6337   -8.3865  -18.1103 N   0  0  0  0  0  0  0  0  0  0  0  0
   20.6491   -6.4664  -16.7321 C   0  0  0  0  0  0  0  0  0  0  0  0
   19.9887   -5.7564  -17.5226 O   0  0  0  0  0  0  0  0  0  0  0  0
   21.6607   -5.8833  -16.0045 O   0  0  0  0  0  0  0  0  0  0  0  0
  2  1  1  6
  2  7  1  0
  3  2  1  0
  4  3  1  0
  4  5  1  0
  5  9  1  0
  6  5  2  0
  7 13  1  0
  7  8  2  0
 10 11  1  0
 12 11  1  1
 12 14  1  0
 13 12  1  0
 14 15  2  0
 16 14  1  0
 16 17  1  0
 17 24  1  0
 17 18  1  6
 19 18  1  0
 20 19  2  0
 21 22  1  0
 21 20  1  0
 22 23  2  0
 23 19  1  0
 24 26  1  0
 25 24  2  0
M  END
$$$$
