ESH.pdb
     RDKit          3D

 26 26  0  0  1  0  0  0  0  0999 V2000
   23.8493  -15.7623  -16.8238 N   0  0  0  0  0  0  0  0  0  0  0  0
   24.4859  -14.5696  -17.4096 C   0  0  1  0  0  0  0  0  0  0  0  0
   23.8272  -14.3768  -18.7470 C   0  0  0  0  0  0  0  0  0  0  0  0
   22.3838  -14.7356  -18.7820 C   0  0  0  0  0  0  0  0  0  0  0  0
   21.8719  -14.4887  -20.1775 C   0  0  0  0  0  0  0  0  0  0  0  0
   21.3586  -15.4199  -20.8517 O   0  0  0  0  0  0  0  0  0  0  0  0
   24.3883  -13.4271  -16.5065 C   0  0  0  0  0  0  0  0  0  0  0  0
   23.3680  -13.2698  -15.8054 O   0  0  0  0  0  0  0  0  0  0  0  0
   21.9456  -13.2357  -20.7696 O   0  0  0  0  0  0  0  0  0  0  0  0
   27.2963  -10.3405  -16.3717 O   0  0  0  0  0  0  0  0  0  0  0  0
   26.6848  -10.8378  -15.2327 C   0  0  0  0  0  0  0  0  0  0  0  0
   25.2973  -11.3744  -15.5081 C   0  0  2  0  0  0  0  0  0  0  0  0
   25.4337  -12.4859  -16.4074 N   0  0  0  0  0  0  0  0  0  0  0  0
   24.3885  -10.3255  -16.0246 C   0  0  0  0  0  0  0  0  0  0  0  0
   24.2620  -10.2117  -17.2709 O   0  0  0  0  0  0  0  0  0  0  0  0
   23.6507   -9.4395  -15.1950 N   0  0  0  0  0  0  0  0  0  0  0  0
   22.7031   -8.4600  -15.7507 C   0  0  1  0  0  0  0  0  0  0  0  0
   21.6413   -9.2642  -16.4618 C   0  0  0  0  0  0  0  0  0  0  0  0
   20.6934   -8.3496  -17.1487 C   0  0  0  0  0  0  0  0  0  0  0  0
   20.8238   -6.9614  -17.2429 C   0  0  0  0  0  0  0  0  0  0  0  0
   19.7889   -6.4513  -17.9320 N   0  0  0  0  0  0  0  0  0  0  0  0
   19.0112   -7.4922  -18.2724 C   0  0  0  0  0  0  0  0  0  0  0  0
   19.5485   -8.6360  -17.8051 N   0  0  0  0  0  0  0  0  0  0  0  0
   22.1641   -7.5896  -14.6848 C   0  0  0  0  0  0  0  0  0  0  0  0
   22.4381   -7.8188  -13.4858 O   0  0  0  0  0  0  0  0  0  0  0  0
   21.3563   -6.5177  -14.9868 O   0  0  0  0  0  0  0  0  0  0  0  0
  2  1  1  1
  2  7  1  0
  3  2  1  0
  4  3  1  0
  4  5  1  0
  5  9  1  0
  6  5  2  0
  7 13  1  0
  7  8  2  0
 10 11  1  0
 12 11  1  6
 12 14  1  0
 13 12  1  0
 14 15  2  0
 16 14  1  0
 16 17  1  0
 17 24  1  0
 17 18  1  1
 19 18  1  0
 20 19  2  0
 21 22  1  0
 21 20  1  0
 22 23  2  0
 23 19  1  0
 24 26  1  0
 25 24  2  0
M  END
$$$$
