ESH.pdb
     RDKit          3D

 26 26  0  0  1  0  0  0  0  0999 V2000
   12.7135   -9.8840   -9.3545 N   0  0  0  0  0  0  0  0  0  0  0  0
   14.1404   -9.6271   -9.0919 C   0  0  1  0  0  0  0  0  0  0  0  0
   14.8621  -10.8686   -9.5366 C   0  0  0  0  0  0  0  0  0  0  0  0
   14.7566  -11.1561  -10.9925 C   0  0  0  0  0  0  0  0  0  0  0  0
   15.3805  -12.5030  -11.2519 C   0  0  0  0  0  0  0  0  0  0  0  0
   15.8161  -13.2069  -10.3032 O   0  0  0  0  0  0  0  0  0  0  0  0
   14.5790   -8.3958   -9.7415 C   0  0  0  0  0  0  0  0  0  0  0  0
   14.1173   -8.0786  -10.8566 O   0  0  0  0  0  0  0  0  0  0  0  0
   15.4986  -13.0162  -12.5359 O   0  0  0  0  0  0  0  0  0  0  0  0
   16.9001   -5.4673   -7.7983 O   0  0  0  0  0  0  0  0  0  0  0  0
   16.0158   -5.2368   -8.8393 C   0  0  0  0  0  0  0  0  0  0  0  0
   15.9789   -6.3786   -9.8311 C   0  0  2  0  0  0  0  0  0  0  0  0
   15.5240   -7.5466   -9.1297 N   0  0  0  0  0  0  0  0  0  0  0  0
   17.2873   -6.5803  -10.4949 C   0  0  0  0  0  0  0  0  0  0  0  0
   18.0356   -7.4953  -10.0649 O   0  0  0  0  0  0  0  0  0  0  0  0
   17.7473   -5.8006  -11.5894 N   0  0  0  0  0  0  0  0  0  0  0  0
   18.9757   -6.1403  -12.3255 C   0  0  1  0  0  0  0  0  0  0  0  0
   18.7918   -7.5580  -12.8117 C   0  0  0  0  0  0  0  0  0  0  0  0
   19.9754   -7.9745  -13.6070 C   0  0  0  0  0  0  0  0  0  0  0  0
   21.2712   -8.1440  -13.1121 C   0  0  0  0  0  0  0  0  0  0  0  0
   22.0929   -8.5255  -14.1047 N   0  0  0  0  0  0  0  0  0  0  0  0
   21.3382   -8.5988  -15.2134 C   0  0  0  0  0  0  0  0  0  0  0  0
   20.0648   -8.2690  -14.9219 N   0  0  0  0  0  0  0  0  0  0  0  0
   19.2173   -5.1729  -13.4164 C   0  0  0  0  0  0  0  0  0  0  0  0
   18.2629   -4.7500  -14.1059 O   0  0  0  0  0  0  0  0  0  0  0  0
   20.4868   -4.7210  -13.6938 O   0  0  0  0  0  0  0  0  0  0  0  0
  2  1  1  6
  2  7  1  0
  3  2  1  0
  4  3  1  0
  4  5  1  0
  5  9  1  0
  6  5  2  0
  7 13  1  0
  7  8  2  0
 10 11  1  0
 12 11  1  1
 12 14  1  0
 13 12  1  0
 14 15  2  0
 16 14  1  0
 16 17  1  0
 17 24  1  0
 17 18  1  6
 19 18  1  0
 20 19  2  0
 21 22  1  0
 21 20  1  0
 22 23  2  0
 23 19  1  0
 24 26  1  0
 25 24  2  0
M  END
$$$$
