ESH.pdb
     RDKit          3D

 26 26  0  0  1  0  0  0  0  0999 V2000
   21.5249  -11.5123  -18.8520 N   0  0  0  0  0  0  0  0  0  0  0  0
   20.2662  -10.9180  -18.3690 C   0  0  1  0  0  0  0  0  0  0  0  0
   19.2776  -12.0496  -18.3228 C   0  0  0  0  0  0  0  0  0  0  0  0
   19.4196  -13.0390  -19.4247 C   0  0  0  0  0  0  0  0  0  0  0  0
   18.3956  -14.1246  -19.2162 C   0  0  0  0  0  0  0  0  0  0  0  0
   17.5056  -14.0125  -18.3328 O   0  0  0  0  0  0  0  0  0  0  0  0
   20.4671  -10.2259  -17.0997 C   0  0  0  0  0  0  0  0  0  0  0  0
   19.4908   -9.7488  -16.4862 O   0  0  0  0  0  0  0  0  0  0  0  0
   18.3932  -15.2811  -19.9835 O   0  0  0  0  0  0  0  0  0  0  0  0
   24.2491   -9.9894  -15.3884 O   0  0  0  0  0  0  0  0  0  0  0  0
   23.1162  -10.0443  -14.5931 C   0  0  0  0  0  0  0  0  0  0  0  0
   21.9049   -9.4402  -15.2687 C   0  0  2  0  0  0  0  0  0  0  0  0
   21.7555  -10.0826  -16.5446 N   0  0  0  0  0  0  0  0  0  0  0  0
   22.0058   -7.9666  -15.3758 C   0  0  0  0  0  0  0  0  0  0  0  0
   22.6612   -7.4852  -16.3354 O   0  0  0  0  0  0  0  0  0  0  0  0
   21.4055   -7.0640  -14.4579 N   0  0  0  0  0  0  0  0  0  0  0  0
   21.6556   -5.6148  -14.5146 C   0  0  1  0  0  0  0  0  0  0  0  0
   20.3270   -4.9748  -14.8390 C   0  0  0  0  0  0  0  0  0  0  0  0
   19.9939   -5.2043  -16.2684 C   0  0  0  0  0  0  0  0  0  0  0  0
   20.8326   -4.9374  -17.3538 C   0  0  0  0  0  0  0  0  0  0  0  0
   20.2130   -5.2638  -18.5008 N   0  0  0  0  0  0  0  0  0  0  0  0
   19.0015   -5.7307  -18.1568 C   0  0  0  0  0  0  0  0  0  0  0  0
   18.8628   -5.6978  -16.8169 N   0  0  0  0  0  0  0  0  0  0  0  0
   22.2438   -5.1346  -13.2466 C   0  0  0  0  0  0  0  0  0  0  0  0
   22.4263   -5.9281  -12.2968 O   0  0  0  0  0  0  0  0  0  0  0  0
   22.6001   -3.8155  -13.0860 O   0  0  0  0  0  0  0  0  0  0  0  0
  2  1  1  1
  2  7  1  0
  3  2  1  0
  4  3  1  0
  4  5  1  0
  5  9  1  0
  6  5  2  0
  7 13  1  0
  7  8  2  0
 10 11  1  0
 12 11  1  6
 12 14  1  0
 13 12  1  0
 14 15  2  0
 16 14  1  0
 16 17  1  0
 17 24  1  0
 17 18  1  1
 19 18  1  0
 20 19  2  0
 21 22  1  0
 21 20  1  0
 22 23  2  0
 23 19  1  0
 24 26  1  0
 25 24  2  0
M  END
$$$$
