ESH.pdb
     RDKit          3D

 26 26  0  0  1  0  0  0  0  0999 V2000
   16.7576  -13.3109  -17.7126 N   0  0  0  0  0  0  0  0  0  0  0  0
   17.2503  -12.7286  -16.4519 C   0  0  1  0  0  0  0  0  0  0  0  0
   18.5264  -13.4602  -16.1415 C   0  0  0  0  0  0  0  0  0  0  0  0
   19.3954  -13.7143  -17.3220 C   0  0  0  0  0  0  0  0  0  0  0  0
   20.6403  -14.4175  -16.8463 C   0  0  0  0  0  0  0  0  0  0  0  0
   20.5807  -15.5749  -16.3543 O   0  0  0  0  0  0  0  0  0  0  0  0
   17.3844  -11.2794  -16.5618 C   0  0  0  0  0  0  0  0  0  0  0  0
   17.9529  -10.7774  -17.5527 O   0  0  0  0  0  0  0  0  0  0  0  0
   21.8911  -13.8221  -16.9311 O   0  0  0  0  0  0  0  0  0  0  0  0
   16.0970   -8.7497  -13.5056 O   0  0  0  0  0  0  0  0  0  0  0  0
   15.9562   -8.3573  -14.8267 C   0  0  0  0  0  0  0  0  0  0  0  0
   16.9812   -9.0014  -15.7340 C   0  0  2  0  0  0  0  0  0  0  0  0
   16.8798  -10.4236  -15.5610 N   0  0  0  0  0  0  0  0  0  0  0  0
   18.3472   -8.4879  -15.4817 C   0  0  0  0  0  0  0  0  0  0  0  0
   19.2693   -9.3226  -15.2946 O   0  0  0  0  0  0  0  0  0  0  0  0
   18.6776   -7.1071  -15.4383 N   0  0  0  0  0  0  0  0  0  0  0  0
   20.0677   -6.6431  -15.3030 C   0  0  1  0  0  0  0  0  0  0  0  0
   20.7783   -7.0826  -16.5607 C   0  0  0  0  0  0  0  0  0  0  0  0
   21.5209   -8.3435  -16.3043 C   0  0  0  0  0  0  0  0  0  0  0  0
   21.5876   -9.0158  -15.0811 C   0  0  0  0  0  0  0  0  0  0  0  0
   22.3439  -10.1194  -15.2072 N   0  0  0  0  0  0  0  0  0  0  0  0
   22.7535  -10.1533  -16.4860 C   0  0  0  0  0  0  0  0  0  0  0  0
   22.2628   -9.0893  -17.1512 N   0  0  0  0  0  0  0  0  0  0  0  0
   20.1134   -5.1822  -15.0837 C   0  0  0  0  0  0  0  0  0  0  0  0
   19.2084   -4.4484  -15.5393 O   0  0  0  0  0  0  0  0  0  0  0  0
   21.1440   -4.6038  -14.3794 O   0  0  0  0  0  0  0  0  0  0  0  0
  2  1  1  6
  2  7  1  0
  3  2  1  0
  4  3  1  0
  4  5  1  0
  5  9  1  0
  6  5  2  0
  7 13  1  0
  7  8  2  0
 10 11  1  0
 12 11  1  1
 12 14  1  0
 13 12  1  0
 14 15  2  0
 16 14  1  0
 16 17  1  0
 17 24  1  0
 17 18  1  6
 19 18  1  0
 20 19  2  0
 21 22  1  0
 21 20  1  0
 22 23  2  0
 23 19  1  0
 24 26  1  0
 25 24  2  0
M  END
$$$$
