ESH.pdb
     RDKit          3D

 26 26  0  0  1  0  0  0  0  0999 V2000
   17.7318  -12.1168  -17.1919 N   0  0  0  0  0  0  0  0  0  0  0  0
   18.9623  -11.5820  -16.5827 C   0  0  1  0  0  0  0  0  0  0  0  0
   20.0720  -11.9462  -17.5291 C   0  0  0  0  0  0  0  0  0  0  0  0
   20.3404  -13.4058  -17.6337 C   0  0  0  0  0  0  0  0  0  0  0  0
   21.5910  -13.5961  -18.4524 C   0  0  0  0  0  0  0  0  0  0  0  0
   22.5134  -14.3559  -18.0561 O   0  0  0  0  0  0  0  0  0  0  0  0
   18.8329  -10.1543  -16.3083 C   0  0  0  0  0  0  0  0  0  0  0  0
   18.4222   -9.3814  -17.1978 O   0  0  0  0  0  0  0  0  0  0  0  0
   21.7737  -12.9468  -19.6653 O   0  0  0  0  0  0  0  0  0  0  0  0
   18.6124   -8.8075  -12.5140 O   0  0  0  0  0  0  0  0  0  0  0  0
   18.1662   -8.0394  -13.5769 C   0  0  0  0  0  0  0  0  0  0  0  0
   19.0191   -8.2125  -14.8144 C   0  0  2  0  0  0  0  0  0  0  0  0
   19.1656   -9.6225  -15.0453 N   0  0  0  0  0  0  0  0  0  0  0  0
   20.3183   -7.5116  -14.6961 C   0  0  0  0  0  0  0  0  0  0  0  0
   21.2966   -8.1507  -14.2306 O   0  0  0  0  0  0  0  0  0  0  0  0
   20.5249   -6.1591  -15.0776 N   0  0  0  0  0  0  0  0  0  0  0  0
   21.8455   -5.5164  -14.9828 C   0  0  1  0  0  0  0  0  0  0  0  0
   21.8420   -4.4037  -16.0034 C   0  0  0  0  0  0  0  0  0  0  0  0
   21.9758   -4.9733  -17.3689 C   0  0  0  0  0  0  0  0  0  0  0  0
   22.2021   -6.3185  -17.6724 C   0  0  0  0  0  0  0  0  0  0  0  0
   22.2692   -6.4810  -19.0047 N   0  0  0  0  0  0  0  0  0  0  0  0
   22.0895   -5.2640  -19.5439 C   0  0  0  0  0  0  0  0  0  0  0  0
   21.9125   -4.3531  -18.5670 N   0  0  0  0  0  0  0  0  0  0  0  0
   22.1023   -5.0475  -13.6049 C   0  0  0  0  0  0  0  0  0  0  0  0
   21.1522   -4.8879  -12.8067 O   0  0  0  0  0  0  0  0  0  0  0  0
   23.3814   -4.7792  -13.1750 O   0  0  0  0  0  0  0  0  0  0  0  0
  2  1  1  6
  2  7  1  0
  3  2  1  0
  4  3  1  0
  4  5  1  0
  5  9  1  0
  6  5  2  0
  7 13  1  0
  7  8  2  0
 10 11  1  0
 12 11  1  1
 12 14  1  0
 13 12  1  0
 14 15  2  0
 16 14  1  0
 16 17  1  0
 17 24  1  0
 17 18  1  6
 19 18  1  0
 20 19  2  0
 21 22  1  0
 21 20  1  0
 22 23  2  0
 23 19  1  0
 24 26  1  0
 25 24  2  0
M  END
$$$$
