ESH.pdb
     RDKit          3D

 26 26  0  0  1  0  0  0  0  0999 V2000
   20.5228  -12.5268  -18.3261 N   0  0  0  0  0  0  0  0  0  0  0  0
   21.5278  -11.8515  -17.4864 C   0  0  1  0  0  0  0  0  0  0  0  0
   22.7602  -11.7439  -18.3405 C   0  0  0  0  0  0  0  0  0  0  0  0
   22.6643  -10.7467  -19.4403 C   0  0  0  0  0  0  0  0  0  0  0  0
   23.9756  -10.7383  -20.1827 C   0  0  0  0  0  0  0  0  0  0  0  0
   24.9344  -11.4637  -19.8089 O   0  0  0  0  0  0  0  0  0  0  0  0
   21.0186  -10.5807  -16.9803 C   0  0  0  0  0  0  0  0  0  0  0  0
   20.3378   -9.8409  -17.7196 O   0  0  0  0  0  0  0  0  0  0  0  0
   24.1763   -9.9374  -21.2982 O   0  0  0  0  0  0  0  0  0  0  0  0
   21.6858   -9.2587  -12.9971 O   0  0  0  0  0  0  0  0  0  0  0  0
   20.4842   -9.1245  -13.6733 C   0  0  0  0  0  0  0  0  0  0  0  0
   20.6748   -8.9608  -15.1651 C   0  0  2  0  0  0  0  0  0  0  0  0
   21.2819  -10.1653  -15.6587 N   0  0  0  0  0  0  0  0  0  0  0  0
   21.4558   -7.7467  -15.4955 C   0  0  0  0  0  0  0  0  0  0  0  0
   22.4532   -7.8708  -16.2518 O   0  0  0  0  0  0  0  0  0  0  0  0
   21.1446   -6.4492  -15.0083 N   0  0  0  0  0  0  0  0  0  0  0  0
   21.9098   -5.2601  -15.4164 C   0  0  1  0  0  0  0  0  0  0  0  0
   21.9282   -5.2741  -16.9261 C   0  0  0  0  0  0  0  0  0  0  0  0
   22.6031   -4.0513  -17.4322 C   0  0  0  0  0  0  0  0  0  0  0  0
   23.8557   -3.5841  -17.0253 C   0  0  0  0  0  0  0  0  0  0  0  0
   24.1585   -2.4540  -17.6866 N   0  0  0  0  0  0  0  0  0  0  0  0
   23.1204   -2.2025  -18.5010 C   0  0  0  0  0  0  0  0  0  0  0  0
   22.1820   -3.1581  -18.3535 N   0  0  0  0  0  0  0  0  0  0  0  0
   21.3132   -4.0329  -14.8485 C   0  0  0  0  0  0  0  0  0  0  0  0
   22.0022   -2.9957  -14.7273 O   0  0  0  0  0  0  0  0  0  0  0  0
   19.9983   -4.0061  -14.4447 O   0  0  0  0  0  0  0  0  0  0  0  0
  2  1  1  6
  2  7  1  0
  3  2  1  0
  4  3  1  0
  4  5  1  0
  5  9  1  0
  6  5  2  0
  7 13  1  0
  7  8  2  0
 10 11  1  0
 12 11  1  1
 12 14  1  0
 13 12  1  0
 14 15  2  0
 16 14  1  0
 16 17  1  0
 17 24  1  0
 17 18  1  6
 19 18  1  0
 20 19  2  0
 21 22  1  0
 21 20  1  0
 22 23  2  0
 23 19  1  0
 24 26  1  0
 25 24  2  0
M  END
$$$$
