VMC.pdb
     RDKit          3D

 22 21  0  0  1  0  0  0  0  0999 V2000
   17.2667   -9.0829  -13.3435 C   0  0  0  0  0  0  0  0  0  0  0  0
   17.8462   -9.6029  -12.0508 C   0  0  2  0  0  0  0  0  0  0  0  0
   18.6330  -10.8691  -12.4149 C   0  0  0  0  0  0  0  0  0  0  0  0
   16.7803  -10.0315  -11.0774 C   0  0  2  0  0  0  0  0  0  0  0  0
   16.1043  -11.1786  -11.6257 N   0  0  0  0  0  0  0  0  0  0  0  0
   15.8585   -8.9368  -10.7145 C   0  0  0  0  0  0  0  0  0  0  0  0
   14.8822   -8.7112  -11.4558 O   0  0  0  0  0  0  0  0  0  0  0  0
   11.7079   -7.2984   -5.8925 C   0  0  0  0  0  0  0  0  0  0  0  0
   13.1493   -6.2200   -5.7391 S   0  0  0  0  0  0  0  0  0  0  0  0
   13.9786   -5.9948   -7.3616 C   0  0  0  0  0  0  0  0  0  0  0  0
   14.7867   -7.1914   -7.7082 C   0  0  0  0  0  0  0  0  0  0  0  0
   15.3536   -7.0232   -9.1161 C   0  0  2  0  0  0  0  0  0  0  0  0
   16.1118   -8.1856   -9.5461 N   0  0  0  0  0  0  0  0  0  0  0  0
   16.1757   -5.8046   -9.2426 C   0  0  0  0  0  0  0  0  0  0  0  0
   17.3216   -5.6841   -8.7150 O   0  0  0  0  0  0  0  0  0  0  0  0
   15.6468   -4.7108   -9.9987 N   0  0  0  0  0  0  0  0  0  0  0  0
   16.3266   -3.4571  -10.1669 C   0  0  1  0  0  0  0  0  0  0  0  0
   16.6773   -3.3328  -11.6561 C   0  0  0  0  0  0  0  0  0  0  0  0
   17.4220   -1.7152  -11.9958 S   0  0  0  0  0  0  0  0  0  0  0  0
   15.5061   -2.2929   -9.8163 C   0  0  0  0  0  0  0  0  0  0  0  0
   14.2701   -2.2008  -10.0538 O   0  0  0  0  0  0  0  0  0  0  0  0
   16.1177   -1.2201   -9.1833 O   0  0  0  0  0  0  0  0  0  0  0  0
  2  1  1  6
  2  4  1  0
  2  3  1  0
  4  6  1  0
  4  5  1  6
  6  7  2  0
  8  9  1  0
 10 11  1  0
 10  9  1  0
 12 11  1  1
 12 14  1  0
 13 12  1  0
 13  6  1  0
 14 16  1  0
 14 15  2  0
 16 17  1  0
 17 20  1  0
 17 18  1  6
 19 18  1  0
 20 21  2  0
 20 22  1  0
M  END
$$$$
