VMC.pdb
     RDKit          3D

 22 21  0  0  1  0  0  0  0  0999 V2000
   21.5864  -21.4937  -15.5494 C   0  0  0  0  0  0  0  0  0  0  0  0
   21.3096  -22.2948  -14.3011 C   0  0  2  0  0  0  0  0  0  0  0  0
   19.9363  -22.9476  -14.5089 C   0  0  0  0  0  0  0  0  0  0  0  0
   21.1844  -21.4246  -13.0786 C   0  0  2  0  0  0  0  0  0  0  0  0
   20.0159  -20.5974  -13.2320 N   0  0  0  0  0  0  0  0  0  0  0  0
   22.4085  -20.6484  -12.7970 C   0  0  0  0  0  0  0  0  0  0  0  0
   22.5403  -19.5308  -13.3327 O   0  0  0  0  0  0  0  0  0  0  0  0
   26.5182  -20.0973   -7.2466 C   0  0  0  0  0  0  0  0  0  0  0  0
   27.3684  -20.9669   -8.5827 S   0  0  0  0  0  0  0  0  0  0  0  0
   26.6575  -20.5209  -10.2156 C   0  0  0  0  0  0  0  0  0  0  0  0
   25.3081  -21.1184  -10.3811 C   0  0  0  0  0  0  0  0  0  0  0  0
   24.7010  -20.6302  -11.6944 C   0  0  2  0  0  0  0  0  0  0  0  0
   23.3841  -21.1949  -11.9348 N   0  0  0  0  0  0  0  0  0  0  0  0
   25.5846  -20.8919  -12.8467 C   0  0  0  0  0  0  0  0  0  0  0  0
   25.7181  -22.0379  -13.3710 O   0  0  0  0  0  0  0  0  0  0  0  0
   26.3226  -19.7940  -13.3924 N   0  0  0  0  0  0  0  0  0  0  0  0
   27.0652  -19.8659  -14.6195 C   0  0  1  0  0  0  0  0  0  0  0  0
   27.7023  -18.4870  -14.8401 C   0  0  0  0  0  0  0  0  0  0  0  0
   28.6745  -18.4788  -16.3702 S   0  0  0  0  0  0  0  0  0  0  0  0
   28.1552  -20.8470  -14.5891 C   0  0  0  0  0  0  0  0  0  0  0  0
   28.5634  -21.4829  -15.5999 O   0  0  0  0  0  0  0  0  0  0  0  0
   28.7836  -21.0991  -13.3778 O   0  0  0  0  0  0  0  0  0  0  0  0
  2  1  1  6
  2  4  1  0
  2  3  1  0
  4  6  1  0
  4  5  1  6
  6  7  2  0
  8  9  1  0
 10 11  1  0
 10  9  1  0
 12 11  1  1
 12 14  1  0
 13 12  1  0
 13  6  1  0
 14 16  1  0
 14 15  2  0
 16 17  1  0
 17 20  1  0
 17 18  1  1
 19 18  1  0
 20 21  2  0
 20 22  1  0
M  END
$$$$
