VMC.pdb
     RDKit          3D

 22 21  0  0  1  0  0  0  0  0999 V2000
   20.6788  -14.5265  -20.0304 C   0  0  0  0  0  0  0  0  0  0  0  0
   20.7343  -13.3096  -19.1399 C   0  0  2  0  0  0  0  0  0  0  0  0
   21.1721  -12.1441  -20.0371 C   0  0  0  0  0  0  0  0  0  0  0  0
   21.7820  -13.4340  -18.0655 C   0  0  2  0  0  0  0  0  0  0  0  0
   21.5095  -14.6266  -17.3062 N   0  0  0  0  0  0  0  0  0  0  0  0
   21.8896  -12.2256  -17.2240 C   0  0  0  0  0  0  0  0  0  0  0  0
   20.9321  -11.9298  -16.4830 O   0  0  0  0  0  0  0  0  0  0  0  0
   27.9324  -11.7688  -15.9665 C   0  0  0  0  0  0  0  0  0  0  0  0
   26.9984  -10.9005  -14.6866 S   0  0  0  0  0  0  0  0  0  0  0  0
   25.1945  -10.9827  -15.0180 C   0  0  0  0  0  0  0  0  0  0  0  0
   24.8335  -10.1214  -16.1725 C   0  0  0  0  0  0  0  0  0  0  0  0
   23.3440  -10.2794  -16.4698 C   0  0  2  0  0  0  0  0  0  0  0  0
   23.0673  -11.4491  -17.2860 N   0  0  0  0  0  0  0  0  0  0  0  0
   22.7715   -9.0736  -17.0985 C   0  0  0  0  0  0  0  0  0  0  0  0
   23.0611   -8.7017  -18.2748 O   0  0  0  0  0  0  0  0  0  0  0  0
   21.8458   -8.2920  -16.3369 N   0  0  0  0  0  0  0  0  0  0  0  0
   21.2451   -7.0790  -16.8166 C   0  0  1  0  0  0  0  0  0  0  0  0
   19.7247   -7.2867  -16.7817 C   0  0  0  0  0  0  0  0  0  0  0  0
   18.8677   -5.7439  -17.1961 S   0  0  0  0  0  0  0  0  0  0  0  0
   21.5418   -5.9082  -15.9843 C   0  0  0  0  0  0  0  0  0  0  0  0
   21.6317   -5.9389  -14.7259 O   0  0  0  0  0  0  0  0  0  0  0  0
   21.7376   -4.6853  -16.6102 O   0  0  0  0  0  0  0  0  0  0  0  0
  2  1  1  6
  2  4  1  0
  2  3  1  0
  4  6  1  0
  4  5  1  1
  6  7  2  0
  8  9  1  0
 10 11  1  0
 10  9  1  0
 12 11  1  6
 12 14  1  0
 13 12  1  0
 13  6  1  0
 14 16  1  0
 14 15  2  0
 16 17  1  0
 17 20  1  0
 17 18  1  1
 19 18  1  0
 20 21  2  0
 20 22  1  0
M  END
$$$$
