VMC.pdb
     RDKit          3D

 22 21  0  0  1  0  0  0  0  0999 V2000
   20.7695  -20.2217   -9.7377 C   0  0  0  0  0  0  0  0  0  0  0  0
   20.4311  -20.1284  -11.2053 C   0  0  2  0  0  0  0  0  0  0  0  0
   19.0921  -20.8571  -11.3815 C   0  0  0  0  0  0  0  0  0  0  0  0
   21.4265  -20.8563  -12.0695 C   0  0  2  0  0  0  0  0  0  0  0  0
   21.4474  -22.2384  -11.6665 N   0  0  0  0  0  0  0  0  0  0  0  0
   22.7641  -20.2311  -12.0581 C   0  0  0  0  0  0  0  0  0  0  0  0
   22.8863  -19.0799  -12.5199 O   0  0  0  0  0  0  0  0  0  0  0  0
   26.9818  -19.4439   -6.4504 C   0  0  0  0  0  0  0  0  0  0  0  0
   27.0099  -20.6409   -7.8033 S   0  0  0  0  0  0  0  0  0  0  0  0
   26.0024  -20.0549   -9.2218 C   0  0  0  0  0  0  0  0  0  0  0  0
   26.0123  -21.0539  -10.3205 C   0  0  0  0  0  0  0  0  0  0  0  0
   25.2341  -20.4981  -11.5109 C   0  0  2  0  0  0  0  0  0  0  0  0
   23.8547  -20.9540  -11.5273 N   0  0  0  0  0  0  0  0  0  0  0  0
   25.8877  -20.8090  -12.7966 C   0  0  0  0  0  0  0  0  0  0  0  0
   25.8027  -21.9403  -13.3613 O   0  0  0  0  0  0  0  0  0  0  0  0
   26.6525  -19.7784  -13.4299 N   0  0  0  0  0  0  0  0  0  0  0  0
   27.1971  -19.8911  -14.7539 C   0  0  1  0  0  0  0  0  0  0  0  0
   27.9435  -18.5818  -15.0452 C   0  0  0  0  0  0  0  0  0  0  0  0
   28.5862  -18.5859  -16.7403 S   0  0  0  0  0  0  0  0  0  0  0  0
   28.1652  -20.9834  -14.8992 C   0  0  0  0  0  0  0  0  0  0  0  0
   28.9947  -21.3171  -14.0086 O   0  0  0  0  0  0  0  0  0  0  0  0
   28.1781  -21.7012  -16.0868 O   0  0  0  0  0  0  0  0  0  0  0  0
  2  1  1  1
  2  4  1  0
  2  3  1  0
  4  6  1  0
  4  5  1  1
  6  7  2  0
  8  9  1  0
 10 11  1  0
 10  9  1  0
 12 11  1  1
 12 14  1  0
 13 12  1  0
 13  6  1  0
 14 16  1  0
 14 15  2  0
 16 17  1  0
 17 20  1  0
 17 18  1  1
 19 18  1  0
 20 21  2  0
 20 22  1  0
M  END
$$$$
