VMC.pdb
     RDKit          3D

 22 21  0  0  1  0  0  0  0  0999 V2000
   23.5789  -19.2211  -17.6019 C   0  0  0  0  0  0  0  0  0  0  0  0
   24.4272  -18.4621  -16.6114 C   0  0  2  0  0  0  0  0  0  0  0  0
   25.3750  -17.5877  -17.4433 C   0  0  0  0  0  0  0  0  0  0  0  0
   25.3016  -19.3726  -15.7906 C   0  0  2  0  0  0  0  0  0  0  0  0
   26.2284  -20.0270  -16.6772 N   0  0  0  0  0  0  0  0  0  0  0  0
   24.5288  -20.3192  -14.9618 C   0  0  0  0  0  0  0  0  0  0  0  0
   24.0581  -21.3377  -15.5046 O   0  0  0  0  0  0  0  0  0  0  0  0
   24.4937  -20.8046   -8.1676 C   0  0  0  0  0  0  0  0  0  0  0  0
   25.9248  -20.8109   -9.2704 S   0  0  0  0  0  0  0  0  0  0  0  0
   25.4088  -21.0412  -11.0172 C   0  0  0  0  0  0  0  0  0  0  0  0
   23.9990  -20.6157  -11.2082 C   0  0  0  0  0  0  0  0  0  0  0  0
   23.5929  -20.8621  -12.6594 C   0  0  2  0  0  0  0  0  0  0  0  0
   24.3495  -20.0411  -13.5891 N   0  0  0  0  0  0  0  0  0  0  0  0
   22.1457  -20.6693  -12.8722 C   0  0  0  0  0  0  0  0  0  0  0  0
   21.5873  -19.5319  -12.8477 O   0  0  0  0  0  0  0  0  0  0  0  0
   21.3409  -21.8269  -13.1174 N   0  0  0  0  0  0  0  0  0  0  0  0
   19.9225  -21.7782  -13.3367 C   0  0  1  0  0  0  0  0  0  0  0  0
   19.5694  -22.9570  -14.2543 C   0  0  0  0  0  0  0  0  0  0  0  0
   20.4299  -22.8001  -15.8421 S   0  0  0  0  0  0  0  0  0  0  0  0
   19.1334  -21.9323  -12.1100 C   0  0  0  0  0  0  0  0  0  0  0  0
   17.8785  -21.8105  -12.0557 O   0  0  0  0  0  0  0  0  0  0  0  0
   19.7989  -22.2311  -10.9295 O   0  0  0  0  0  0  0  0  0  0  0  0
  2  1  1  6
  2  4  1  0
  2  3  1  0
  4  6  1  0
  4  5  1  6
  6  7  2  0
  8  9  1  0
 10 11  1  0
 10  9  1  0
 12 11  1  1
 12 14  1  0
 13 12  1  0
 13  6  1  0
 14 16  1  0
 14 15  2  0
 16 17  1  0
 17 20  1  0
 17 18  1  6
 19 18  1  0
 20 21  2  0
 20 22  1  0
M  END
$$$$
