VMC.pdb
     RDKit          3D

 22 21  0  0  1  0  0  0  0  0999 V2000
   24.9466  -14.8247  -16.0257 C   0  0  0  0  0  0  0  0  0  0  0  0
   24.0920  -13.6735  -16.4962 C   0  0  2  0  0  0  0  0  0  0  0  0
   24.4391  -12.4858  -15.5885 C   0  0  0  0  0  0  0  0  0  0  0  0
   22.6218  -13.9369  -16.3057 C   0  0  2  0  0  0  0  0  0  0  0  0
   22.2921  -15.1635  -16.9841 N   0  0  0  0  0  0  0  0  0  0  0  0
   21.7750  -12.8012  -16.7220 C   0  0  0  0  0  0  0  0  0  0  0  0
   21.7682  -12.4741  -17.9247 O   0  0  0  0  0  0  0  0  0  0  0  0
   16.7490  -13.8124  -14.6302 C   0  0  0  0  0  0  0  0  0  0  0  0
   16.4487  -12.6613  -15.9900 S   0  0  0  0  0  0  0  0  0  0  0  0
   18.0257  -11.9732  -16.6305 C   0  0  0  0  0  0  0  0  0  0  0  0
   18.7216  -11.1895  -15.5785 C   0  0  0  0  0  0  0  0  0  0  0  0
   20.1721  -10.9629  -15.9988 C   0  0  2  0  0  0  0  0  0  0  0  0
   21.0051  -12.1268  -15.7493 N   0  0  0  0  0  0  0  0  0  0  0  0
   20.7577   -9.7711  -15.3556 C   0  0  0  0  0  0  0  0  0  0  0  0
   21.1898   -9.7687  -14.1643 O   0  0  0  0  0  0  0  0  0  0  0  0
   20.8379   -8.5641  -16.1203 N   0  0  0  0  0  0  0  0  0  0  0  0
   21.3629   -7.3302  -15.6066 C   0  0  1  0  0  0  0  0  0  0  0  0
   21.7182   -6.4551  -16.8167 C   0  0  0  0  0  0  0  0  0  0  0  0
   23.0049   -7.2515  -17.8149 S   0  0  0  0  0  0  0  0  0  0  0  0
   20.4020   -6.5766  -14.7941 C   0  0  0  0  0  0  0  0  0  0  0  0
   20.6767   -5.5067  -14.1838 O   0  0  0  0  0  0  0  0  0  0  0  0
   19.1067   -7.0620  -14.6832 O   0  0  0  0  0  0  0  0  0  0  0  0
  2  1  1  1
  2  4  1  0
  2  3  1  0
  4  6  1  0
  4  5  1  6
  6  7  2  0
  8  9  1  0
 10 11  1  0
 10  9  1  0
 12 11  1  1
 12 14  1  0
 13 12  1  0
 13  6  1  0
 14 16  1  0
 14 15  2  0
 16 17  1  0
 17 20  1  0
 17 18  1  6
 19 18  1  0
 20 21  2  0
 20 22  1  0
M  END
$$$$
