VMC.pdb
     RDKit          3D

 22 21  0  0  1  0  0  0  0  0999 V2000
   28.3253  -17.7563  -16.5789 C   0  0  0  0  0  0  0  0  0  0  0  0
   27.2579  -18.4863  -15.8013 C   0  0  2  0  0  0  0  0  0  0  0  0
   26.7841  -17.5149  -14.7118 C   0  0  0  0  0  0  0  0  0  0  0  0
   27.7978  -19.6957  -15.0849 C   0  0  2  0  0  0  0  0  0  0  0  0
   28.3910  -20.5709  -16.0624 N   0  0  0  0  0  0  0  0  0  0  0  0
   26.7850  -20.3680  -14.2469 C   0  0  0  0  0  0  0  0  0  0  0  0
   25.9074  -21.0520  -14.8087 O   0  0  0  0  0  0  0  0  0  0  0  0
   26.4094  -19.3413   -7.4912 C   0  0  0  0  0  0  0  0  0  0  0  0
   25.8663  -21.0381   -7.7910 S   0  0  0  0  0  0  0  0  0  0  0  0
   25.3866  -21.2752   -9.5473 C   0  0  0  0  0  0  0  0  0  0  0  0
   26.3438  -20.5867  -10.4500 C   0  0  0  0  0  0  0  0  0  0  0  0
   25.9065  -20.7955  -11.8980 C   0  0  2  0  0  0  0  0  0  0  0  0
   26.8435  -20.2148  -12.8445 N   0  0  0  0  0  0  0  0  0  0  0  0
   24.5466  -20.2807  -12.1479 C   0  0  0  0  0  0  0  0  0  0  0  0
   24.2283  -19.0632  -11.9983 O   0  0  0  0  0  0  0  0  0  0  0  0
   23.5446  -21.2069  -12.5795 N   0  0  0  0  0  0  0  0  0  0  0  0
   22.1879  -20.8346  -12.8673 C   0  0  1  0  0  0  0  0  0  0  0  0
   21.6852  -21.7832  -13.9645 C   0  0  0  0  0  0  0  0  0  0  0  0
   22.4996  -21.4120  -15.5410 S   0  0  0  0  0  0  0  0  0  0  0  0
   21.2839  -20.9797  -11.7214 C   0  0  0  0  0  0  0  0  0  0  0  0
   21.6240  -21.4696  -10.6092 O   0  0  0  0  0  0  0  0  0  0  0  0
   19.9700  -20.5547  -11.8585 O   0  0  0  0  0  0  0  0  0  0  0  0
  2  1  1  1
  2  4  1  0
  2  3  1  0
  4  6  1  0
  4  5  1  6
  6  7  2  0
  8  9  1  0
 10 11  1  0
 10  9  1  0
 12 11  1  1
 12 14  1  0
 13 12  1  0
 13  6  1  0
 14 16  1  0
 14 15  2  0
 16 17  1  0
 17 20  1  0
 17 18  1  6
 19 18  1  0
 20 21  2  0
 20 22  1  0
M  END
$$$$
