VMC.pdb
     RDKit          3D

 22 21  0  0  1  0  0  0  0  0999 V2000
   18.6443  -14.5554  -18.5787 C   0  0  0  0  0  0  0  0  0  0  0  0
   19.9380  -15.2692  -18.8849 C   0  0  2  0  0  0  0  0  0  0  0  0
   19.5566  -16.5133  -19.6984 C   0  0  0  0  0  0  0  0  0  0  0  0
   20.6237  -15.7699  -17.6413 C   0  0  2  0  0  0  0  0  0  0  0  0
   19.7682  -16.7453  -17.0167 N   0  0  0  0  0  0  0  0  0  0  0  0
   21.0229  -14.6819  -16.7266 C   0  0  0  0  0  0  0  0  0  0  0  0
   20.1611  -14.1961  -15.9685 O   0  0  0  0  0  0  0  0  0  0  0  0
   27.2201  -15.1283  -16.2541 C   0  0  0  0  0  0  0  0  0  0  0  0
   26.4430  -14.8521  -14.6466 S   0  0  0  0  0  0  0  0  0  0  0  0
   24.6429  -14.5418  -14.8303 C   0  0  0  0  0  0  0  0  0  0  0  0
   24.4007  -13.3363  -15.6630 C   0  0  0  0  0  0  0  0  0  0  0  0
   22.8994  -13.1795  -15.8938 C   0  0  2  0  0  0  0  0  0  0  0  0
   22.3606  -14.2300  -16.7407 N   0  0  0  0  0  0  0  0  0  0  0  0
   22.5572  -11.8550  -16.4466 C   0  0  0  0  0  0  0  0  0  0  0  0
   22.7728  -11.5309  -17.6526 O   0  0  0  0  0  0  0  0  0  0  0  0
   21.9533  -10.8961  -15.5727 N   0  0  0  0  0  0  0  0  0  0  0  0
   21.6349   -9.5518  -15.9647 C   0  0  1  0  0  0  0  0  0  0  0  0
   20.1143   -9.4909  -16.1656 C   0  0  0  0  0  0  0  0  0  0  0  0
   19.5721   -7.7720  -16.3598 S   0  0  0  0  0  0  0  0  0  0  0  0
   21.9787   -8.5481  -14.9519 C   0  0  0  0  0  0  0  0  0  0  0  0
   22.1271   -8.8029  -13.7248 O   0  0  0  0  0  0  0  0  0  0  0  0
   22.1542   -7.2328  -15.3581 O   0  0  0  0  0  0  0  0  0  0  0  0
  2  1  1  1
  2  4  1  0
  2  3  1  0
  4  6  1  0
  4  5  1  1
  6  7  2  0
  8  9  1  0
 10 11  1  0
 10  9  1  0
 12 11  1  6
 12 14  1  0
 13 12  1  0
 13  6  1  0
 14 16  1  0
 14 15  2  0
 16 17  1  0
 17 20  1  0
 17 18  1  1
 19 18  1  0
 20 21  2  0
 20 22  1  0
M  END
$$$$
