VMC.pdb
     RDKit          3D

 22 21  0  0  1  0  0  0  0  0999 V2000
   17.6408  -22.7849  -12.5856 C   0  0  0  0  0  0  0  0  0  0  0  0
   19.0929  -23.1907  -12.6467 C   0  0  2  0  0  0  0  0  0  0  0  0
   19.6798  -22.4912  -13.8801 C   0  0  0  0  0  0  0  0  0  0  0  0
   19.2648  -24.6689  -12.8762 C   0  0  2  0  0  0  0  0  0  0  0  0
   18.7199  -24.9906  -14.1695 N   0  0  0  0  0  0  0  0  0  0  0  0
   18.6954  -25.4900  -11.7891 C   0  0  0  0  0  0  0  0  0  0  0  0
   17.4555  -25.5729  -11.6936 O   0  0  0  0  0  0  0  0  0  0  0  0
   21.7583  -30.6451   -9.2812 C   0  0  0  0  0  0  0  0  0  0  0  0
   20.7903  -30.5734  -10.8049 S   0  0  0  0  0  0  0  0  0  0  0  0
   19.7408  -29.0676  -10.8478 C   0  0  0  0  0  0  0  0  0  0  0  0
   19.9594  -28.2411   -9.6336 C   0  0  0  0  0  0  0  0  0  0  0  0
   19.1569  -26.9478   -9.7560 C   0  0  2  0  0  0  0  0  0  0  0  0
   19.5695  -26.1507  -10.8985 N   0  0  0  0  0  0  0  0  0  0  0  0
   19.2151  -26.1385   -8.5237 C   0  0  0  0  0  0  0  0  0  0  0  0
   20.2003  -25.3989   -8.2265 O   0  0  0  0  0  0  0  0  0  0  0  0
   18.1019  -26.1972   -7.6262 N   0  0  0  0  0  0  0  0  0  0  0  0
   18.0297  -25.4559   -6.3985 C   0  0  1  0  0  0  0  0  0  0  0  0
   16.6726  -24.7388   -6.3862 C   0  0  0  0  0  0  0  0  0  0  0  0
   15.3208  -25.9467   -6.3926 S   0  0  0  0  0  0  0  0  0  0  0  0
   18.0850  -26.2992   -5.1997 C   0  0  0  0  0  0  0  0  0  0  0  0
   17.9071  -27.5486   -5.2044 O   0  0  0  0  0  0  0  0  0  0  0  0
   18.3489  -25.6951   -3.9785 O   0  0  0  0  0  0  0  0  0  0  0  0
  2  1  1  6
  2  4  1  0
  2  3  1  0
  4  6  1  0
  4  5  1  6
  6  7  2  0
  8  9  1  0
 10 11  1  0
 10  9  1  0
 12 11  1  1
 12 14  1  0
 13 12  1  0
 13  6  1  0
 14 16  1  0
 14 15  2  0
 16 17  1  0
 17 20  1  0
 17 18  1  6
 19 18  1  0
 20 21  2  0
 20 22  1  0
M  END
$$$$
