VMC.pdb
     RDKit          3D

 22 21  0  0  1  0  0  0  0  0999 V2000
   18.4404  -12.7444  -20.4969 C   0  0  0  0  0  0  0  0  0  0  0  0
   19.7738  -12.8909  -21.1880 C   0  0  2  0  0  0  0  0  0  0  0  0
   19.5057  -13.6977  -22.4656 C   0  0  0  0  0  0  0  0  0  0  0  0
   20.7537  -13.6960  -20.3762 C   0  0  2  0  0  0  0  0  0  0  0  0
   20.2287  -15.0285  -20.2281 N   0  0  0  0  0  0  0  0  0  0  0  0
   21.0907  -13.0614  -19.0863 C   0  0  0  0  0  0  0  0  0  0  0  0
   20.2937  -13.1859  -18.1362 O   0  0  0  0  0  0  0  0  0  0  0  0
   26.7659  -10.3654  -14.3536 C   0  0  0  0  0  0  0  0  0  0  0  0
   26.3644  -11.0179  -15.9899 S   0  0  0  0  0  0  0  0  0  0  0  0
   24.5487  -11.0454  -16.2602 C   0  0  0  0  0  0  0  0  0  0  0  0
   24.2220  -11.6768  -17.5639 C   0  0  0  0  0  0  0  0  0  0  0  0
   22.7166  -11.5847  -17.8027 C   0  0  2  0  0  0  0  0  0  0  0  0
   22.2982  -12.3384  -18.9722 N   0  0  0  0  0  0  0  0  0  0  0  0
   22.2545  -10.1873  -17.9062 C   0  0  0  0  0  0  0  0  0  0  0  0
   22.4332   -9.4731  -18.9377 O   0  0  0  0  0  0  0  0  0  0  0  0
   21.5728   -9.6185  -16.7838 N   0  0  0  0  0  0  0  0  0  0  0  0
   21.0732   -8.2724  -16.7547 C   0  0  1  0  0  0  0  0  0  0  0  0
   19.6127   -8.3457  -16.2883 C   0  0  0  0  0  0  0  0  0  0  0  0
   18.9410   -6.6782  -16.0541 S   0  0  0  0  0  0  0  0  0  0  0  0
   21.7857   -7.4023  -15.8131 C   0  0  0  0  0  0  0  0  0  0  0  0
   22.0618   -7.7222  -14.6239 O   0  0  0  0  0  0  0  0  0  0  0  0
   22.1858   -6.1464  -16.2472 O   0  0  0  0  0  0  0  0  0  0  0  0
  2  1  1  1
  2  4  1  0
  2  3  1  0
  4  6  1  0
  4  5  1  1
  6  7  2  0
  8  9  1  0
 10 11  1  0
 10  9  1  0
 12 11  1  6
 12 14  1  0
 13 12  1  0
 13  6  1  0
 14 16  1  0
 14 15  2  0
 16 17  1  0
 17 20  1  0
 17 18  1  1
 19 18  1  0
 20 21  2  0
 20 22  1  0
M  END
$$$$
