VMC.pdb
     RDKit          3D

 22 21  0  0  1  0  0  0  0  0999 V2000
   16.5043   -9.0032  -17.3091 C   0  0  0  0  0  0  0  0  0  0  0  0
   17.2649  -10.0308  -18.1107 C   0  0  2  0  0  0  0  0  0  0  0  0
   16.2106  -10.8345  -18.8838 C   0  0  0  0  0  0  0  0  0  0  0  0
   17.9910  -11.0171  -17.2346 C   0  0  2  0  0  0  0  0  0  0  0  0
   17.0111  -11.7703  -16.4958 N   0  0  0  0  0  0  0  0  0  0  0  0
   19.0035  -10.3809  -16.3685 C   0  0  0  0  0  0  0  0  0  0  0  0
   18.6705  -10.0379  -15.2175 O   0  0  0  0  0  0  0  0  0  0  0  0
   26.6288  -10.0581  -14.6288 C   0  0  0  0  0  0  0  0  0  0  0  0
   25.4004  -10.5540  -15.8573 S   0  0  0  0  0  0  0  0  0  0  0  0
   23.7956   -9.7133  -15.5601 C   0  0  0  0  0  0  0  0  0  0  0  0
   22.7502  -10.2403  -16.4737 C   0  0  0  0  0  0  0  0  0  0  0  0
   21.4106   -9.5932  -16.1295 C   0  0  2  0  0  0  0  0  0  0  0  0
   20.3086  -10.1832  -16.8700 N   0  0  0  0  0  0  0  0  0  0  0  0
   21.4319   -8.1314  -16.3282 C   0  0  0  0  0  0  0  0  0  0  0  0
   21.4617   -7.5881  -17.4727 O   0  0  0  0  0  0  0  0  0  0  0  0
   21.4182   -7.2937  -15.1679 N   0  0  0  0  0  0  0  0  0  0  0  0
   21.5088   -5.8615  -15.2193 C   0  0  1  0  0  0  0  0  0  0  0  0
   20.2040   -5.3077  -14.6303 C   0  0  0  0  0  0  0  0  0  0  0  0
   20.2759   -3.4992  -14.5275 S   0  0  0  0  0  0  0  0  0  0  0  0
   22.6111   -5.3142  -14.4213 C   0  0  0  0  0  0  0  0  0  0  0  0
   22.9431   -5.7459  -13.2829 O   0  0  0  0  0  0  0  0  0  0  0  0
   23.3411   -4.2550  -14.9418 O   0  0  0  0  0  0  0  0  0  0  0  0
  2  1  1  1
  2  4  1  0
  2  3  1  0
  4  6  1  0
  4  5  1  1
  6  7  2  0
  8  9  1  0
 10 11  1  0
 10  9  1  0
 12 11  1  6
 12 14  1  0
 13 12  1  0
 13  6  1  0
 14 16  1  0
 14 15  2  0
 16 17  1  0
 17 20  1  0
 17 18  1  1
 19 18  1  0
 20 21  2  0
 20 22  1  0
M  END
$$$$
