ITC.pdb
     RDKit          3D

 22 21  0  0  1  0  0  0  0  0999 V2000
    7.6642  -11.6922   19.0333 C   0  0  0  0  0  0  0  0  0  0  0  0
    8.5221  -12.8814   18.7099 C   0  0  0  0  0  0  0  0  0  0  0  0
    8.3784  -14.0044   19.6787 C   0  0  2  0  0  0  0  0  0  0  0  0
    8.6772  -13.4840   21.0622 C   0  0  0  0  0  0  0  0  0  0  0  0
    9.2598  -15.1660   19.2882 C   0  0  2  0  0  0  0  0  0  0  0  0
    8.7490  -15.7075   18.0497 N   0  0  0  0  0  0  0  0  0  0  0  0
    9.1440  -16.2657   20.3120 C   0  0  0  0  0  0  0  0  0  0  0  0
    8.0611  -16.8869   20.4697 O   0  0  0  0  0  0  0  0  0  0  0  0
   10.4943  -19.4429   20.6628 C   0  0  0  0  0  0  0  0  0  0  0  0
   11.0067  -18.7584   21.9142 C   0  0  1  0  0  0  0  0  0  0  0  0
   12.2425  -18.1974   21.6951 O   0  0  0  0  0  0  0  0  0  0  0  0
   10.0091  -17.6199   22.1858 C   0  0  2  0  0  0  0  0  0  0  0  0
   10.2360  -16.6474   21.1355 N   0  0  0  0  0  0  0  0  0  0  0  0
   10.3754  -17.0961   23.5238 C   0  0  0  0  0  0  0  0  0  0  0  0
   11.2797  -16.2215   23.5703 O   0  0  0  0  0  0  0  0  0  0  0  0
    9.7894  -17.5045   24.7280 N   0  0  0  0  0  0  0  0  0  0  0  0
   10.2897  -16.9627   25.9875 C   0  0  1  0  0  0  0  0  0  0  0  0
    9.0950  -16.3472   26.6884 C   0  0  0  0  0  0  0  0  0  0  0  0
    8.1594  -15.2534   25.6096 S   0  0  0  0  0  0  0  0  0  0  0  0
   10.9624  -17.9779   26.8008 C   0  0  0  0  0  0  0  0  0  0  0  0
   11.5484  -17.6255   27.9951 O   0  0  0  0  0  0  0  0  0  0  0  0
   11.0109  -19.1643   26.4222 O   0  0  0  0  0  0  0  0  0  0  0  0
  2  1  1  0
  2  3  1  0
  3  4  1  1
  5  3  1  0
  5  7  1  0
  5  6  1  6
  7  8  2  0
 10  9  1  6
 10 12  1  0
 11 10  1  0
 12 13  1  6
 13  7  1  0
 14 12  1  0
 14 15  2  0
 16 14  1  0
 17 16  1  0
 17 20  1  0
 17 18  1  1
 19 18  1  0
 20 22  2  0
 20 21  1  0
M  END
$$$$
