ITC.pdb
     RDKit          3D

 22 21  0  0  1  0  0  0  0  0999 V2000
    7.5543  -12.1315   19.0655 C   0  0  0  0  0  0  0  0  0  0  0  0
    8.2958  -13.4263   19.2349 C   0  0  0  0  0  0  0  0  0  0  0  0
    8.1031  -14.0560   20.5716 C   0  0  2  0  0  0  0  0  0  0  0  0
    8.4943  -13.0575   21.6318 C   0  0  0  0  0  0  0  0  0  0  0  0
    8.8763  -15.3486   20.6723 C   0  0  2  0  0  0  0  0  0  0  0  0
    8.2976  -16.2805   19.7317 N   0  0  0  0  0  0  0  0  0  0  0  0
    8.6891  -15.9540   22.0395 C   0  0  0  0  0  0  0  0  0  0  0  0
    7.5561  -16.3490   22.4189 O   0  0  0  0  0  0  0  0  0  0  0  0
    9.6643  -18.8869   23.5261 C   0  0  0  0  0  0  0  0  0  0  0  0
   10.3213  -17.8737   24.4420 C   0  0  1  0  0  0  0  0  0  0  0  0
   11.6031  -17.5979   24.0289 O   0  0  0  0  0  0  0  0  0  0  0  0
    9.4857  -16.5918   24.2871 C   0  0  2  0  0  0  0  0  0  0  0  0
    9.7671  -16.1052   22.9513 N   0  0  0  0  0  0  0  0  0  0  0  0
    9.9894  -15.6732   25.3364 C   0  0  0  0  0  0  0  0  0  0  0  0
   11.0044  -14.9830   25.0564 O   0  0  0  0  0  0  0  0  0  0  0  0
    9.4182  -15.5225   26.6058 N   0  0  0  0  0  0  0  0  0  0  0  0
   10.0318  -14.6072   27.5628 C   0  0  1  0  0  0  0  0  0  0  0  0
    8.9253  -13.6872   28.0387 C   0  0  0  0  0  0  0  0  0  0  0  0
    8.0468  -12.9127   26.6733 S   0  0  0  0  0  0  0  0  0  0  0  0
   10.6929  -15.3138   28.6621 C   0  0  0  0  0  0  0  0  0  0  0  0
   11.3607  -14.6038   29.6336 O   0  0  0  0  0  0  0  0  0  0  0  0
   10.6577  -16.5578   28.7288 O   0  0  0  0  0  0  0  0  0  0  0  0
  2  1  1  0
  2  3  1  0
  3  4  1  1
  5  3  1  0
  5  7  1  0
  5  6  1  6
  7  8  2  0
 10  9  1  6
 10 12  1  0
 11 10  1  0
 12 13  1  6
 13  7  1  0
 14 12  1  0
 14 15  2  0
 16 14  1  0
 17 16  1  0
 17 20  1  0
 17 18  1  1
 19 18  1  0
 20 22  2  0
 20 21  1  0
M  END
$$$$
