ITC.pdb
     RDKit          3D

 22 21  0  0  1  0  0  0  0  0999 V2000
    7.2074  -12.2997   20.0206 C   0  0  0  0  0  0  0  0  0  0  0  0
    7.7136  -13.7098   19.9190 C   0  0  0  0  0  0  0  0  0  0  0  0
    9.1705  -13.8028   19.6200 C   0  0  2  0  0  0  0  0  0  0  0  0
    9.4328  -13.1200   18.3013 C   0  0  0  0  0  0  0  0  0  0  0  0
    9.6307  -15.2404   19.6356 C   0  0  2  0  0  0  0  0  0  0  0  0
    8.8325  -15.9672   18.6751 N   0  0  0  0  0  0  0  0  0  0  0  0
    9.3431  -15.8573   20.9801 C   0  0  0  0  0  0  0  0  0  0  0  0
    8.6519  -16.9048   21.0731 O   0  0  0  0  0  0  0  0  0  0  0  0
    9.4458  -17.9851   22.1461 C   0  0  0  0  0  0  0  0  0  0  0  0
   10.0993  -17.3483   23.3563 C   0  0  1  0  0  0  0  0  0  0  0  0
   11.4552  -17.2189   23.1701 O   0  0  0  0  0  0  0  0  0  0  0  0
    9.4944  -15.9369   23.4427 C   0  0  2  0  0  0  0  0  0  0  0  0
    9.8316  -15.2937   22.1885 N   0  0  0  0  0  0  0  0  0  0  0  0
   10.1675  -15.2982   24.5992 C   0  0  0  0  0  0  0  0  0  0  0  0
   11.3469  -14.8937   24.4257 O   0  0  0  0  0  0  0  0  0  0  0  0
    9.5858  -15.1161   25.8597 N   0  0  0  0  0  0  0  0  0  0  0  0
   10.3410  -14.4319   26.9045 C   0  0  1  0  0  0  0  0  0  0  0  0
    9.6314  -13.1146   27.1468 C   0  0  0  0  0  0  0  0  0  0  0  0
    7.8434  -13.2698   27.0251 S   0  0  0  0  0  0  0  0  0  0  0  0
   10.4658  -15.2398   28.1196 C   0  0  0  0  0  0  0  0  0  0  0  0
   11.2073  -14.7752   29.1818 O   0  0  0  0  0  0  0  0  0  0  0  0
    9.9052  -16.3497   28.2038 O   0  0  0  0  0  0  0  0  0  0  0  0
  2  1  1  0
  2  3  1  0
  3  4  1  6
  5  3  1  0
  5  7  1  0
  5  6  1  6
  7  8  2  0
 10  9  1  6
 10 12  1  0
 11 10  1  0
 12 13  1  6
 13  7  1  0
 14 12  1  0
 14 15  2  0
 16 14  1  0
 17 16  1  0
 17 20  1  0
 17 18  1  1
 19 18  1  0
 20 22  2  0
 20 21  1  0
M  END
$$$$
