ITC.pdb
     RDKit          3D

 22 21  0  0  1  0  0  0  0  0999 V2000
    6.4579  -11.7052   27.8220 C   0  0  0  0  0  0  0  0  0  0  0  0
    5.8288  -12.8027   27.0129 C   0  0  0  0  0  0  0  0  0  0  0  0
    6.7536  -13.4213   26.0218 C   0  0  2  0  0  0  0  0  0  0  0  0
    7.3416  -12.3264   25.1677 C   0  0  0  0  0  0  0  0  0  0  0  0
    6.0426  -14.4773   25.2107 C   0  0  2  0  0  0  0  0  0  0  0  0
    5.5602  -15.4843   26.1279 N   0  0  0  0  0  0  0  0  0  0  0  0
    7.0212  -15.1690   24.2971 C   0  0  0  0  0  0  0  0  0  0  0  0
    7.7544  -16.0982   24.7244 O   0  0  0  0  0  0  0  0  0  0  0  0
    8.2086  -13.6358   20.6503 C   0  0  0  0  0  0  0  0  0  0  0  0
    7.8079  -15.0975   20.6599 C   0  0  1  0  0  0  0  0  0  0  0  0
    8.6091  -15.8310   19.8174 O   0  0  0  0  0  0  0  0  0  0  0  0
    8.0675  -15.5752   22.0985 C   0  0  2  0  0  0  0  0  0  0  0  0
    7.1604  -14.8099   22.9303 N   0  0  0  0  0  0  0  0  0  0  0  0
    9.4878  -15.2436   22.3654 C   0  0  0  0  0  0  0  0  0  0  0  0
    9.7167  -14.3080   23.1760 O   0  0  0  0  0  0  0  0  0  0  0  0
   10.5819  -15.8942   21.7823 N   0  0  0  0  0  0  0  0  0  0  0  0
   11.7693  -16.1604   22.5882 C   0  0  1  0  0  0  0  0  0  0  0  0
   11.3165  -17.0499   23.7289 C   0  0  0  0  0  0  0  0  0  0  0  0
   12.2554  -16.7594   25.2355 S   0  0  0  0  0  0  0  0  0  0  0  0
   12.8526  -16.7548   21.8022 C   0  0  0  0  0  0  0  0  0  0  0  0
   14.1635  -16.4907   22.1272 O   0  0  0  0  0  0  0  0  0  0  0  0
   12.6001  -17.5013   20.8367 O   0  0  0  0  0  0  0  0  0  0  0  0
  2  1  1  0
  2  3  1  0
  3  4  1  6
  5  3  1  0
  5  7  1  0
  5  6  1  1
  7  8  2  0
 10  9  1  1
 10 12  1  0
 11 10  1  0
 12 13  1  1
 13  7  1  0
 14 12  1  0
 14 15  2  0
 16 14  1  0
 17 16  1  0
 17 20  1  0
 17 18  1  1
 19 18  1  0
 20 22  2  0
 20 21  1  0
M  END
$$$$
