ITC.pdb
     RDKit          3D

 22 21  0  0  1  0  0  0  0  0999 V2000
    7.6013  -11.9004   27.7195 C   0  0  0  0  0  0  0  0  0  0  0  0
    6.8942  -13.0468   27.0556 C   0  0  0  0  0  0  0  0  0  0  0  0
    7.0819  -13.0910   25.5780 C   0  0  2  0  0  0  0  0  0  0  0  0
    6.5329  -11.8166   24.9876 C   0  0  0  0  0  0  0  0  0  0  0  0
    6.4447  -14.3281   24.9930 C   0  0  2  0  0  0  0  0  0  0  0  0
    5.3801  -14.7353   25.8812 N   0  0  0  0  0  0  0  0  0  0  0  0
    7.4399  -15.4597   24.9764 C   0  0  0  0  0  0  0  0  0  0  0  0
    7.4345  -16.3349   25.8806 O   0  0  0  0  0  0  0  0  0  0  0  0
    8.5262  -17.1638   21.7754 C   0  0  0  0  0  0  0  0  0  0  0  0
    9.8007  -16.9336   22.5628 C   0  0  1  0  0  0  0  0  0  0  0  0
   10.4419  -15.7950   22.1357 O   0  0  0  0  0  0  0  0  0  0  0  0
    9.3408  -16.7049   24.0124 C   0  0  2  0  0  0  0  0  0  0  0  0
    8.4169  -15.5898   23.9543 N   0  0  0  0  0  0  0  0  0  0  0  0
   10.5761  -16.3713   24.7616 C   0  0  0  0  0  0  0  0  0  0  0  0
   11.0241  -15.2012   24.6385 O   0  0  0  0  0  0  0  0  0  0  0  0
   11.2719  -17.2610   25.5890 N   0  0  0  0  0  0  0  0  0  0  0  0
   11.7709  -16.7969   26.8797 C   0  0  1  0  0  0  0  0  0  0  0  0
   10.5734  -16.2354   27.6200 C   0  0  0  0  0  0  0  0  0  0  0  0
   11.0475  -15.0413   28.8791 S   0  0  0  0  0  0  0  0  0  0  0  0
   12.4520  -17.8571   27.6259 C   0  0  0  0  0  0  0  0  0  0  0  0
   13.4945  -17.5450   28.4683 O   0  0  0  0  0  0  0  0  0  0  0  0
   12.0967  -19.0457   27.5066 O   0  0  0  0  0  0  0  0  0  0  0  0
  2  1  1  0
  2  3  1  0
  3  4  1  6
  5  3  1  0
  5  7  1  0
  5  6  1  1
  7  8  2  0
 10  9  1  6
 10 12  1  0
 11 10  1  0
 12 13  1  6
 13  7  1  0
 14 12  1  0
 14 15  2  0
 16 14  1  0
 17 16  1  0
 17 20  1  0
 17 18  1  1
 19 18  1  0
 20 22  2  0
 20 21  1  0
M  END
$$$$
