ITC.pdb
     RDKit          3D

 22 21  0  0  1  0  0  0  0  0999 V2000
    7.5603  -12.1129   20.2326 C   0  0  0  0  0  0  0  0  0  0  0  0
    7.6653  -13.6018   20.3969 C   0  0  0  0  0  0  0  0  0  0  0  0
    9.0383  -14.1340   20.1685 C   0  0  2  0  0  0  0  0  0  0  0  0
    9.4840  -13.7304   18.7856 C   0  0  0  0  0  0  0  0  0  0  0  0
    9.0772  -15.6277   20.3825 C   0  0  2  0  0  0  0  0  0  0  0  0
    8.0918  -16.2221   19.5086 N   0  0  0  0  0  0  0  0  0  0  0  0
    8.6499  -15.9564   21.7898 C   0  0  0  0  0  0  0  0  0  0  0  0
    7.4358  -16.1339   22.0690 O   0  0  0  0  0  0  0  0  0  0  0  0
    8.9418  -18.7077   23.5827 C   0  0  0  0  0  0  0  0  0  0  0  0
    9.6360  -17.7571   24.5375 C   0  0  1  0  0  0  0  0  0  0  0  0
   10.9934  -17.7485   24.3205 O   0  0  0  0  0  0  0  0  0  0  0  0
    9.0893  -16.3636   24.1844 C   0  0  2  0  0  0  0  0  0  0  0  0
    9.5840  -16.0797   22.8521 N   0  0  0  0  0  0  0  0  0  0  0  0
    9.6659  -15.4530   25.2026 C   0  0  0  0  0  0  0  0  0  0  0  0
   10.7880  -14.9427   24.9472 O   0  0  0  0  0  0  0  0  0  0  0  0
    9.0528  -15.1250   26.4179 N   0  0  0  0  0  0  0  0  0  0  0  0
    9.7629  -14.2800   27.3729 C   0  0  1  0  0  0  0  0  0  0  0  0
    8.7614  -13.2485   27.8527 C   0  0  0  0  0  0  0  0  0  0  0  0
    7.6928  -12.6666   26.5279 S   0  0  0  0  0  0  0  0  0  0  0  0
   10.3495  -15.0530   28.4698 C   0  0  0  0  0  0  0  0  0  0  0  0
   11.1281  -14.4248   29.4148 O   0  0  0  0  0  0  0  0  0  0  0  0
   10.1508  -16.2802   28.5583 O   0  0  0  0  0  0  0  0  0  0  0  0
  2  1  1  0
  2  3  1  0
  3  4  1  6
  5  3  1  0
  5  7  1  0
  5  6  1  6
  7  8  2  0
 10  9  1  6
 10 12  1  0
 11 10  1  0
 12 13  1  6
 13  7  1  0
 14 12  1  0
 14 15  2  0
 16 14  1  0
 17 16  1  0
 17 20  1  0
 17 18  1  1
 19 18  1  0
 20 22  2  0
 20 21  1  0
M  END
$$$$
