ITC.pdb
     RDKit          3D

 22 21  0  0  1  0  0  0  0  0999 V2000
    6.4427  -11.1561   26.7943 C   0  0  0  0  0  0  0  0  0  0  0  0
    5.9992  -12.4024   26.0838 C   0  0  0  0  0  0  0  0  0  0  0  0
    7.0907  -13.3963   25.8807 C   0  0  2  0  0  0  0  0  0  0  0  0
    8.2236  -12.7203   25.1503 C   0  0  0  0  0  0  0  0  0  0  0  0
    6.5762  -14.6181   25.1587 C   0  0  2  0  0  0  0  0  0  0  0  0
    5.4341  -15.1131   25.8926 N   0  0  0  0  0  0  0  0  0  0  0  0
    7.6122  -15.7118   25.1973 C   0  0  0  0  0  0  0  0  0  0  0  0
    7.9969  -16.1956   26.2935 O   0  0  0  0  0  0  0  0  0  0  0  0
    7.7946  -19.0774   24.1826 C   0  0  0  0  0  0  0  0  0  0  0  0
    8.8717  -18.4195   23.3434 C   0  0  1  0  0  0  0  0  0  0  0  0
    8.3648  -17.9995   22.1366 O   0  0  0  0  0  0  0  0  0  0  0  0
    9.2963  -17.1743   24.1400 C   0  0  2  0  0  0  0  0  0  0  0  0
    8.1949  -16.2407   24.0153 N   0  0  0  0  0  0  0  0  0  0  0  0
   10.5243  -16.6859   23.4678 C   0  0  0  0  0  0  0  0  0  0  0  0
   10.4289  -15.6240   22.7982 O   0  0  0  0  0  0  0  0  0  0  0  0
   11.7715  -17.3195   23.5264 N   0  0  0  0  0  0  0  0  0  0  0  0
   12.8915  -16.7668   22.7712 C   0  0  1  0  0  0  0  0  0  0  0  0
   13.1544  -15.3906   23.3493 C   0  0  0  0  0  0  0  0  0  0  0  0
   13.8737  -15.4678   24.9962 S   0  0  0  0  0  0  0  0  0  0  0  0
   14.0713  -17.6334   22.8128 C   0  0  0  0  0  0  0  0  0  0  0  0
   14.0837  -18.7402   23.6306 O   0  0  0  0  0  0  0  0  0  0  0  0
   15.0702  -17.3792   22.1122 O   0  0  0  0  0  0  0  0  0  0  0  0
  2  1  1  0
  2  3  1  0
  3  4  1  6
  5  3  1  0
  5  7  1  0
  5  6  1  1
  7  8  2  0
 10  9  1  1
 10 12  1  0
 11 10  1  0
 12 13  1  6
 13  7  1  0
 14 12  1  0
 14 15  2  0
 16 14  1  0
 17 16  1  0
 17 20  1  0
 17 18  1  1
 19 18  1  0
 20 22  2  0
 20 21  1  0
M  END
$$$$
