ITC.pdb
     RDKit          3D

 22 21  0  0  1  0  0  0  0  0999 V2000
    6.1957  -11.7288   27.5009 C   0  0  0  0  0  0  0  0  0  0  0  0
    5.6843  -12.8355   26.6242 C   0  0  0  0  0  0  0  0  0  0  0  0
    6.7582  -13.5630   25.8909 C   0  0  2  0  0  0  0  0  0  0  0  0
    7.5597  -12.5611   25.0984 C   0  0  0  0  0  0  0  0  0  0  0  0
    6.1738  -14.6564   25.0298 C   0  0  2  0  0  0  0  0  0  0  0  0
    5.4138  -15.5338   25.8903 N   0  0  0  0  0  0  0  0  0  0  0  0
    7.2802  -15.4932   24.4409 C   0  0  0  0  0  0  0  0  0  0  0  0
    7.8981  -16.3321   25.1467 O   0  0  0  0  0  0  0  0  0  0  0  0
    7.1615  -16.3044   20.6329 C   0  0  0  0  0  0  0  0  0  0  0  0
    8.6133  -16.1210   21.0277 C   0  0  1  0  0  0  0  0  0  0  0  0
    9.0381  -14.8425   20.7540 O   0  0  0  0  0  0  0  0  0  0  0  0
    8.6418  -16.3151   22.5531 C   0  0  2  0  0  0  0  0  0  0  0  0
    7.6722  -15.3763   23.0811 N   0  0  0  0  0  0  0  0  0  0  0  0
   10.0274  -15.9785   22.9596 C   0  0  0  0  0  0  0  0  0  0  0  0
   10.3192  -14.7571   23.0483 O   0  0  0  0  0  0  0  0  0  0  0  0
   11.0243  -16.9181   23.2489 N   0  0  0  0  0  0  0  0  0  0  0  0
   12.3706  -16.4568   23.5725 C   0  0  1  0  0  0  0  0  0  0  0  0
   12.7738  -17.1823   24.8407 C   0  0  0  0  0  0  0  0  0  0  0  0
   11.6897  -16.7951   26.2230 S   0  0  0  0  0  0  0  0  0  0  0  0
   13.3121  -16.6741   22.4720 C   0  0  0  0  0  0  0  0  0  0  0  0
   12.8932  -17.3040   21.3224 O   0  0  0  0  0  0  0  0  0  0  0  0
   14.4951  -16.2932   22.5647 O   0  0  0  0  0  0  0  0  0  0  0  0
  2  1  1  0
  2  3  1  0
  3  4  1  6
  5  3  1  0
  5  7  1  0
  5  6  1  1
  7  8  2  0
 10  9  1  1
 10 12  1  0
 11 10  1  0
 12 13  1  1
 13  7  1  0
 14 12  1  0
 14 15  2  0
 16 14  1  0
 17 16  1  0
 17 20  1  0
 17 18  1  1
 19 18  1  0
 20 22  2  0
 20 21  1  0
M  END
$$$$
