HES.pdb
     RDKit          3D

 26 26  0  0  1  0  0  0  0  0999 V2000
   21.7586  -12.1417  -19.1866 N   0  0  0  0  0  0  0  0  0  0  0  0
   21.7020  -10.7090  -19.3726 C   0  0  1  0  0  0  0  0  0  0  0  0
   20.3532  -10.3135  -19.8659 C   0  0  0  0  0  0  0  0  0  0  0  0
   19.9965  -10.8938  -21.1718 C   0  0  0  0  0  0  0  0  0  0  0  0
   19.3324  -12.0809  -21.3636 C   0  0  0  0  0  0  0  0  0  0  0  0
   19.1945  -12.2640  -22.6947 N   0  0  0  0  0  0  0  0  0  0  0  0
   19.7504  -11.2304  -23.3465 C   0  0  0  0  0  0  0  0  0  0  0  0
   20.2324  -10.4085  -22.3988 N   0  0  0  0  0  0  0  0  0  0  0  0
   22.1933   -9.9979  -18.1947 C   0  0  0  0  0  0  0  0  0  0  0  0
   22.0658  -10.4406  -17.0061 O   0  0  0  0  0  0  0  0  0  0  0  0
   22.8571   -8.7464  -18.3001 N   0  0  0  0  0  0  0  0  0  0  0  0
   23.4018   -8.0235  -17.1758 C   0  0  1  0  0  0  0  0  0  0  0  0
   24.4251   -7.0378  -17.6689 C   0  0  0  0  0  0  0  0  0  0  0  0
   25.0877   -6.2128  -16.6341 C   0  0  0  0  0  0  0  0  0  0  0  0
   26.0382   -5.2117  -17.1319 C   0  0  0  0  0  0  0  0  0  0  0  0
   26.7505   -5.3666  -18.1564 O   0  0  0  0  0  0  0  0  0  0  0  0
   22.3628   -7.2209  -16.4778 C   0  0  0  0  0  0  0  0  0  0  0  0
   21.5938   -6.5280  -17.1849 O   0  0  0  0  0  0  0  0  0  0  0  0
   26.2041   -3.9946  -16.4684 O   0  0  0  0  0  0  0  0  0  0  0  0
   20.1893   -8.4227  -13.4260 O   0  0  0  0  0  0  0  0  0  0  0  0
   20.7358   -7.1828  -13.1060 C   0  0  0  0  0  0  0  0  0  0  0  0
   21.1463   -6.4933  -14.3889 C   0  0  2  0  0  0  0  0  0  0  0  0
   22.1928   -7.1933  -15.0757 N   0  0  0  0  0  0  0  0  0  0  0  0
   21.5640   -5.1149  -14.0970 C   0  0  0  0  0  0  0  0  0  0  0  0
   20.6880   -4.1088  -13.7186 O   0  0  0  0  0  0  0  0  0  0  0  0
   22.7835   -4.8258  -14.1942 O   0  0  0  0  0  0  0  0  0  0  0  0
  2  1  1  1
  2  9  1  0
  3  4  1  0
  3  2  1  0
  4  8  1  0
  5  6  1  0
  5  4  2  0
  6  7  1  0
  7  8  2  0
  9 11  1  0
  9 10  2  0
 11 12  1  0
 12 17  1  0
 12 13  1  6
 13 14  1  0
 14 15  1  0
 15 19  1  0
 16 15  2  0
 17 18  2  0
 20 21  1  0
 22 21  1  1
 22 24  1  0
 23 17  1  0
 23 22  1  0
 24 25  1  0
 26 24  2  0
M  END
$$$$
