HES.pdb
     RDKit          3D

 26 26  0  0  1  0  0  0  0  0999 V2000
   22.1914  -13.0139  -17.3822 N   0  0  0  0  0  0  0  0  0  0  0  0
   21.2740  -11.8963  -17.3903 C   0  0  1  0  0  0  0  0  0  0  0  0
   20.1055  -12.1917  -16.5149 C   0  0  0  0  0  0  0  0  0  0  0  0
   19.3827  -13.4243  -16.8723 C   0  0  0  0  0  0  0  0  0  0  0  0
   18.9622  -13.7659  -18.1346 C   0  0  0  0  0  0  0  0  0  0  0  0
   18.3426  -14.9632  -18.0512 N   0  0  0  0  0  0  0  0  0  0  0  0
   18.3597  -15.3857  -16.7771 C   0  0  0  0  0  0  0  0  0  0  0  0
   18.9982  -14.4325  -16.0773 N   0  0  0  0  0  0  0  0  0  0  0  0
   21.9671  -10.6350  -17.1390 C   0  0  0  0  0  0  0  0  0  0  0  0
   22.9015  -10.5085  -16.2811 O   0  0  0  0  0  0  0  0  0  0  0  0
   21.6395   -9.4482  -17.8476 N   0  0  0  0  0  0  0  0  0  0  0  0
   22.2569   -8.1661  -17.6055 C   0  0  1  0  0  0  0  0  0  0  0  0
   22.3424   -7.4048  -18.8997 C   0  0  0  0  0  0  0  0  0  0  0  0
   22.9979   -6.0794  -18.8348 C   0  0  0  0  0  0  0  0  0  0  0  0
   23.1169   -5.3660  -20.1116 C   0  0  0  0  0  0  0  0  0  0  0  0
   22.1692   -4.7527  -20.6654 O   0  0  0  0  0  0  0  0  0  0  0  0
   21.4438   -7.3245  -16.6881 C   0  0  0  0  0  0  0  0  0  0  0  0
   20.2250   -7.1927  -16.9501 O   0  0  0  0  0  0  0  0  0  0  0  0
   24.3319   -5.3321  -20.7984 O   0  0  0  0  0  0  0  0  0  0  0  0
   21.7643   -7.2311  -12.7655 O   0  0  0  0  0  0  0  0  0  0  0  0
   20.6713   -6.7261  -13.4646 C   0  0  0  0  0  0  0  0  0  0  0  0
   21.1831   -5.8970  -14.6225 C   0  0  2  0  0  0  0  0  0  0  0  0
   21.9600   -6.6700  -15.5476 N   0  0  0  0  0  0  0  0  0  0  0  0
   21.9761   -4.7705  -14.1108 C   0  0  0  0  0  0  0  0  0  0  0  0
   21.4500   -3.7479  -13.3359 O   0  0  0  0  0  0  0  0  0  0  0  0
   23.2013   -4.7261  -14.3881 O   0  0  0  0  0  0  0  0  0  0  0  0
  2  1  1  1
  2  9  1  0
  3  4  1  0
  3  2  1  0
  4  8  1  0
  5  6  1  0
  5  4  2  0
  6  7  1  0
  7  8  2  0
  9 11  1  0
  9 10  2  0
 11 12  1  0
 12 17  1  0
 12 13  1  6
 13 14  1  0
 14 15  1  0
 15 19  1  0
 16 15  2  0
 17 18  2  0
 20 21  1  0
 22 21  1  1
 22 24  1  0
 23 17  1  0
 23 22  1  0
 24 25  1  0
 26 24  2  0
M  END
$$$$
