HES.pdb
     RDKit          3D

 26 26  0  0  1  0  0  0  0  0999 V2000
   24.1607  -12.0898  -18.0136 N   0  0  0  0  0  0  0  0  0  0  0  0
   24.2271  -11.2103  -16.8679 C   0  0  1  0  0  0  0  0  0  0  0  0
   25.6482  -10.8991  -16.5480 C   0  0  0  0  0  0  0  0  0  0  0  0
   26.4932  -12.0882  -16.3444 C   0  0  0  0  0  0  0  0  0  0  0  0
   26.2628  -13.0839  -15.4265 C   0  0  0  0  0  0  0  0  0  0  0  0
   27.2547  -13.9924  -15.5483 N   0  0  0  0  0  0  0  0  0  0  0  0
   28.1017  -13.6005  -16.5132 C   0  0  0  0  0  0  0  0  0  0  0  0
   27.6179  -12.4384  -16.9838 N   0  0  0  0  0  0  0  0  0  0  0  0
   23.3336  -10.0647  -17.0219 C   0  0  0  0  0  0  0  0  0  0  0  0
   23.2034   -9.4203  -18.1142 O   0  0  0  0  0  0  0  0  0  0  0  0
   22.5379   -9.5876  -15.9462 N   0  0  0  0  0  0  0  0  0  0  0  0
   21.6082   -8.4887  -16.0543 C   0  0  1  0  0  0  0  0  0  0  0  0
   20.3045   -8.8775  -15.4131 C   0  0  0  0  0  0  0  0  0  0  0  0
   19.4800   -9.8582  -16.1541 C   0  0  0  0  0  0  0  0  0  0  0  0
   18.2142  -10.2360  -15.5151 C   0  0  0  0  0  0  0  0  0  0  0  0
   17.2871   -9.4264  -15.2580 O   0  0  0  0  0  0  0  0  0  0  0  0
   22.0838   -7.2868  -15.3193 C   0  0  0  0  0  0  0  0  0  0  0  0
   22.7692   -7.4729  -14.2862 O   0  0  0  0  0  0  0  0  0  0  0  0
   17.9686  -11.5605  -15.1481 O   0  0  0  0  0  0  0  0  0  0  0  0
   22.3844   -2.4310  -15.0126 O   0  0  0  0  0  0  0  0  0  0  0  0
   21.9616   -3.5136  -15.7792 C   0  0  0  0  0  0  0  0  0  0  0  0
   22.2553   -4.7867  -15.0157 C   0  0  2  0  0  0  0  0  0  0  0  0
   21.8110   -5.9581  -15.7136 N   0  0  0  0  0  0  0  0  0  0  0  0
   21.6319   -4.7205  -13.6866 C   0  0  0  0  0  0  0  0  0  0  0  0
   22.2694   -4.2202  -12.5613 O   0  0  0  0  0  0  0  0  0  0  0  0
   20.4540   -5.1397  -13.5564 O   0  0  0  0  0  0  0  0  0  0  0  0
  2  1  1  6
  2  9  1  0
  3  4  1  0
  3  2  1  0
  4  8  1  0
  5  6  1  0
  5  4  2  0
  6  7  1  0
  7  8  2  0
  9 11  1  0
  9 10  2  0
 11 12  1  0
 12 17  1  0
 12 13  1  1
 13 14  1  0
 14 15  1  0
 15 19  1  0
 16 15  2  0
 17 18  2  0
 20 21  1  0
 22 21  1  6
 22 24  1  0
 23 17  1  0
 23 22  1  0
 24 25  1  0
 26 24  2  0
M  END
$$$$
