HES.pdb
     RDKit          3D

 26 26  0  0  1  0  0  0  0  0999 V2000
   22.2132  -11.6750  -20.2830 N   0  0  0  0  0  0  0  0  0  0  0  0
   22.8304  -11.0432  -19.1382 C   0  0  1  0  0  0  0  0  0  0  0  0
   24.2379  -10.6751  -19.4583 C   0  0  0  0  0  0  0  0  0  0  0  0
   25.0954  -11.8215  -19.8045 C   0  0  0  0  0  0  0  0  0  0  0  0
   25.3989  -12.2357  -21.0786 C   0  0  0  0  0  0  0  0  0  0  0  0
   26.2079  -13.3126  -20.9786 N   0  0  0  0  0  0  0  0  0  0  0  0
   26.4232  -13.5893  -19.6828 C   0  0  0  0  0  0  0  0  0  0  0  0
   25.7358  -12.6681  -18.9863 N   0  0  0  0  0  0  0  0  0  0  0  0
   21.9900   -9.9763  -18.5997 C   0  0  0  0  0  0  0  0  0  0  0  0
   21.3330   -9.1656  -19.3321 O   0  0  0  0  0  0  0  0  0  0  0  0
   21.8476   -9.7708  -17.2013 N   0  0  0  0  0  0  0  0  0  0  0  0
   21.0281   -8.7367  -16.6160 C   0  0  1  0  0  0  0  0  0  0  0  0
   20.0357   -9.3635  -15.6758 C   0  0  0  0  0  0  0  0  0  0  0  0
   18.7993   -9.8950  -16.2918 C   0  0  0  0  0  0  0  0  0  0  0  0
   17.8060  -10.4371  -15.3576 C   0  0  0  0  0  0  0  0  0  0  0  0
   16.6589   -9.9502  -15.1902 O   0  0  0  0  0  0  0  0  0  0  0  0
   21.8311   -7.7928  -15.7943 C   0  0  0  0  0  0  0  0  0  0  0  0
   22.7691   -8.2705  -15.1134 O   0  0  0  0  0  0  0  0  0  0  0  0
   18.0966  -11.5603  -14.5811 O   0  0  0  0  0  0  0  0  0  0  0  0
   22.1569   -3.8243  -16.7240 O   0  0  0  0  0  0  0  0  0  0  0  0
   22.0580   -4.0244  -15.3498 C   0  0  0  0  0  0  0  0  0  0  0  0
   22.4331   -5.4585  -15.0451 C   0  0  2  0  0  0  0  0  0  0  0  0
   21.6010   -6.4002  -15.7362 N   0  0  0  0  0  0  0  0  0  0  0  0
   22.3654   -5.6894  -13.5954 C   0  0  0  0  0  0  0  0  0  0  0  0
   23.3380   -5.2661  -12.7022 O   0  0  0  0  0  0  0  0  0  0  0  0
   21.3717   -6.3050  -13.1330 O   0  0  0  0  0  0  0  0  0  0  0  0
  2  1  1  6
  2  9  1  0
  3  4  1  0
  3  2  1  0
  4  8  1  0
  5  6  1  0
  5  4  2  0
  6  7  1  0
  7  8  2  0
  9 11  1  0
  9 10  2  0
 11 12  1  0
 12 17  1  0
 12 13  1  1
 13 14  1  0
 14 15  1  0
 15 19  1  0
 16 15  2  0
 17 18  2  0
 20 21  1  0
 22 21  1  1
 22 24  1  0
 23 17  1  0
 23 22  1  0
 24 25  1  0
 26 24  2  0
M  END
$$$$
