HES.pdb
     RDKit          3D

 26 26  0  0  1  0  0  0  0  0999 V2000
   28.7708  -20.3723  -14.7070 N   0  0  0  0  0  0  0  0  0  0  0  0
   27.5264  -20.5781  -14.0002 C   0  0  1  0  0  0  0  0  0  0  0  0
   27.6314  -20.0340  -12.6174 C   0  0  0  0  0  0  0  0  0  0  0  0
   28.7268  -20.6165  -11.8236 C   0  0  0  0  0  0  0  0  0  0  0  0
   29.6407  -21.5359  -12.2777 C   0  0  0  0  0  0  0  0  0  0  0  0
   30.4791  -21.8202  -11.2576 N   0  0  0  0  0  0  0  0  0  0  0  0
   30.1220  -21.1092  -10.1763 C   0  0  0  0  0  0  0  0  0  0  0  0
   29.0526  -20.3834  -10.5445 N   0  0  0  0  0  0  0  0  0  0  0  0
   26.3832  -20.1235  -14.7883 C   0  0  0  0  0  0  0  0  0  0  0  0
   26.4317  -19.1264  -15.5810 O   0  0  0  0  0  0  0  0  0  0  0  0
   25.1228  -20.7754  -14.7216 N   0  0  0  0  0  0  0  0  0  0  0  0
   23.9954  -20.4420  -15.5591 C   0  0  1  0  0  0  0  0  0  0  0  0
   23.5918  -21.6540  -16.3527 C   0  0  0  0  0  0  0  0  0  0  0  0
   24.3837  -21.9283  -17.5726 C   0  0  0  0  0  0  0  0  0  0  0  0
   23.9121  -23.0457  -18.3986 C   0  0  0  0  0  0  0  0  0  0  0  0
   22.9177  -22.9826  -19.1655 O   0  0  0  0  0  0  0  0  0  0  0  0
   22.8028  -20.0621  -14.7563 C   0  0  0  0  0  0  0  0  0  0  0  0
   22.5839  -20.7061  -13.7033 O   0  0  0  0  0  0  0  0  0  0  0  0
   24.5681  -24.2779  -18.3724 O   0  0  0  0  0  0  0  0  0  0  0  0
   19.4104  -16.7463  -13.7733 O   0  0  0  0  0  0  0  0  0  0  0  0
   20.3090  -17.2095  -14.7305 C   0  0  0  0  0  0  0  0  0  0  0  0
   20.8290  -18.5598  -14.2874 C   0  0  2  0  0  0  0  0  0  0  0  0
   21.9089  -19.0263  -15.1079 N   0  0  0  0  0  0  0  0  0  0  0  0
   19.7312  -19.5366  -14.2893 C   0  0  0  0  0  0  0  0  0  0  0  0
   18.9356  -19.8028  -13.1851 O   0  0  0  0  0  0  0  0  0  0  0  0
   19.4952  -20.1699  -15.3492 O   0  0  0  0  0  0  0  0  0  0  0  0
  2  1  1  6
  2  9  1  0
  3  4  1  0
  3  2  1  0
  4  8  1  0
  5  6  1  0
  5  4  2  0
  6  7  1  0
  7  8  2  0
  9 11  1  0
  9 10  2  0
 11 12  1  0
 12 17  1  0
 12 13  1  1
 13 14  1  0
 14 15  1  0
 15 19  1  0
 16 15  2  0
 17 18  2  0
 20 21  1  0
 22 21  1  6
 22 24  1  0
 23 17  1  0
 23 22  1  0
 24 25  1  0
 26 24  2  0
M  END
$$$$
