HES.pdb
     RDKit          3D

 26 26  0  0  1  0  0  0  0  0999 V2000
   15.2816   -9.3500  -10.8883 N   0  0  0  0  0  0  0  0  0  0  0  0
   14.8787   -8.3476   -9.9273 C   0  0  1  0  0  0  0  0  0  0  0  0
   14.2582   -9.0011   -8.7412 C   0  0  0  0  0  0  0  0  0  0  0  0
   13.1290   -9.8893   -9.0661 C   0  0  0  0  0  0  0  0  0  0  0  0
   12.5898  -10.0706  -10.3163 C   0  0  0  0  0  0  0  0  0  0  0  0
   11.5777  -10.9577  -10.2025 N   0  0  0  0  0  0  0  0  0  0  0  0
   11.4628  -11.3403   -8.9208 C   0  0  0  0  0  0  0  0  0  0  0  0
   12.4179  -10.6768   -8.2472 N   0  0  0  0  0  0  0  0  0  0  0  0
   15.9611   -7.4052   -9.6533 C   0  0  0  0  0  0  0  0  0  0  0  0
   15.9052   -6.5228   -8.7350 O   0  0  0  0  0  0  0  0  0  0  0  0
   17.1665   -7.4127  -10.4048 N   0  0  0  0  0  0  0  0  0  0  0  0
   18.2132   -6.4288  -10.2629 C   0  0  1  0  0  0  0  0  0  0  0  0
   19.3020   -6.7161  -11.2597 C   0  0  0  0  0  0  0  0  0  0  0  0
   20.4448   -5.7756  -11.2668 C   0  0  0  0  0  0  0  0  0  0  0  0
   21.5061   -6.0722  -12.2357 C   0  0  0  0  0  0  0  0  0  0  0  0
   21.5060   -7.0754  -12.9937 O   0  0  0  0  0  0  0  0  0  0  0  0
   17.7285   -5.0569  -10.5697 C   0  0  0  0  0  0  0  0  0  0  0  0
   17.0070   -4.9106  -11.5844 O   0  0  0  0  0  0  0  0  0  0  0  0
   22.6076   -5.2246  -12.3680 O   0  0  0  0  0  0  0  0  0  0  0  0
   15.0561   -2.0671   -8.8040 O   0  0  0  0  0  0  0  0  0  0  0  0
   15.7952   -3.2153   -9.0760 C   0  0  0  0  0  0  0  0  0  0  0  0
   17.1540   -2.7996   -9.5965 C   0  0  2  0  0  0  0  0  0  0  0  0
   18.0308   -3.9177   -9.7910 N   0  0  0  0  0  0  0  0  0  0  0  0
   17.7621   -1.8322   -8.6724 C   0  0  0  0  0  0  0  0  0  0  0  0
   18.9235   -2.0775   -7.9556 O   0  0  0  0  0  0  0  0  0  0  0  0
   17.2020   -0.7173   -8.5191 O   0  0  0  0  0  0  0  0  0  0  0  0
  2  1  1  6
  2  9  1  0
  3  4  1  0
  3  2  1  0
  4  8  1  0
  5  6  1  0
  5  4  2  0
  6  7  1  0
  7  8  2  0
  9 11  1  0
  9 10  2  0
 11 12  1  0
 12 17  1  0
 12 13  1  6
 13 14  1  0
 14 15  1  0
 15 19  1  0
 16 15  2  0
 17 18  2  0
 20 21  1  0
 22 21  1  1
 22 24  1  0
 23 17  1  0
 23 22  1  0
 24 25  1  0
 26 24  2  0
M  END
$$$$
