HES.pdb
     RDKit          3D

 26 26  0  0  1  0  0  0  0  0999 V2000
   31.5535  -35.3951   -6.7451 N   0  0  0  0  0  0  0  0  0  0  0  0
   32.4597  -35.5741   -5.6328 C   0  0  1  0  0  0  0  0  0  0  0  0
   33.7214  -34.8214   -5.8790 C   0  0  0  0  0  0  0  0  0  0  0  0
   34.4305  -35.2214   -7.1065 C   0  0  0  0  0  0  0  0  0  0  0  0
   35.4235  -36.1674   -7.1828 C   0  0  0  0  0  0  0  0  0  0  0  0
   35.8166  -36.2473   -8.4725 N   0  0  0  0  0  0  0  0  0  0  0  0
   35.1028  -35.3821   -9.2101 C   0  0  0  0  0  0  0  0  0  0  0  0
   34.2650  -34.7684   -8.3570 N   0  0  0  0  0  0  0  0  0  0  0  0
   31.7950  -35.3212   -4.3566 C   0  0  0  0  0  0  0  0  0  0  0  0
   30.8375  -34.4909   -4.2185 O   0  0  0  0  0  0  0  0  0  0  0  0
   32.1788  -35.9966   -3.1673 N   0  0  0  0  0  0  0  0  0  0  0  0
   31.5171  -35.8317   -1.8950 C   0  0  1  0  0  0  0  0  0  0  0  0
   30.0977  -36.3156   -2.0081 C   0  0  0  0  0  0  0  0  0  0  0  0
   29.8752  -37.4845   -2.8883 C   0  0  0  0  0  0  0  0  0  0  0  0
   28.4897  -37.9601   -2.9753 C   0  0  0  0  0  0  0  0  0  0  0  0
   27.7976  -37.9216   -4.0243 O   0  0  0  0  0  0  0  0  0  0  0  0
   32.1481  -36.6576   -0.8317 C   0  0  0  0  0  0  0  0  0  0  0  0
   32.5981  -37.7805   -1.1606 O   0  0  0  0  0  0  0  0  0  0  0  0
   27.8492  -38.4978   -1.8573 O   0  0  0  0  0  0  0  0  0  0  0  0
   34.1776  -35.0746    2.1981 O   0  0  0  0  0  0  0  0  0  0  0  0
   33.3875  -36.1092    2.6919 C   0  0  0  0  0  0  0  0  0  0  0  0
   32.9669  -36.9872    1.5334 C   0  0  2  0  0  0  0  0  0  0  0  0
   32.2694  -36.2545    0.5168 N   0  0  0  0  0  0  0  0  0  0  0  0
   32.1316  -38.0906    2.0277 C   0  0  0  0  0  0  0  0  0  0  0  0
   32.5695  -39.0386    2.9400 O   0  0  0  0  0  0  0  0  0  0  0  0
   30.9524  -38.1854    1.6028 O   0  0  0  0  0  0  0  0  0  0  0  0
  2  1  1  6
  2  9  1  0
  3  4  1  0
  3  2  1  0
  4  8  1  0
  5  6  1  0
  5  4  2  0
  6  7  1  0
  7  8  2  0
  9 11  1  0
  9 10  2  0
 11 12  1  0
 12 17  1  0
 12 13  1  6
 13 14  1  0
 14 15  1  0
 15 19  1  0
 16 15  2  0
 17 18  2  0
 20 21  1  0
 22 21  1  1
 22 24  1  0
 23 17  1  0
 23 22  1  0
 24 25  1  0
 26 24  2  0
M  END
$$$$
