HES.pdb
     RDKit          3D

 26 26  0  0  1  0  0  0  0  0999 V2000
   24.2641  -11.2243  -17.9891 N   0  0  0  0  0  0  0  0  0  0  0  0
   24.1364  -10.5533  -16.7147 C   0  0  1  0  0  0  0  0  0  0  0  0
   25.4844  -10.1947  -16.1919 C   0  0  0  0  0  0  0  0  0  0  0  0
   26.3883  -11.3449  -16.0204 C   0  0  0  0  0  0  0  0  0  0  0  0
   26.0849  -12.6507  -16.3201 C   0  0  0  0  0  0  0  0  0  0  0  0
   27.1681  -13.4020  -16.0259 N   0  0  0  0  0  0  0  0  0  0  0  0
   28.1431  -12.6110  -15.5508 C   0  0  0  0  0  0  0  0  0  0  0  0
   27.6457  -11.3626  -15.5565 N   0  0  0  0  0  0  0  0  0  0  0  0
   23.1585   -9.4695  -16.7777 C   0  0  0  0  0  0  0  0  0  0  0  0
   22.9620   -8.7638  -17.8210 O   0  0  0  0  0  0  0  0  0  0  0  0
   22.3493   -9.1274  -15.6614 N   0  0  0  0  0  0  0  0  0  0  0  0
   21.3234   -8.1123  -15.6881 C   0  0  1  0  0  0  0  0  0  0  0  0
   20.0340   -8.6972  -15.1813 C   0  0  0  0  0  0  0  0  0  0  0  0
   18.8518   -7.8078  -15.2264 C   0  0  0  0  0  0  0  0  0  0  0  0
   17.5817   -8.4174  -14.8160 C   0  0  0  0  0  0  0  0  0  0  0  0
   16.4807   -7.8102  -14.8073 O   0  0  0  0  0  0  0  0  0  0  0  0
   21.6432   -6.9781  -14.7813 C   0  0  0  0  0  0  0  0  0  0  0  0
   22.2194   -7.2451  -13.7005 O   0  0  0  0  0  0  0  0  0  0  0  0
   17.5319   -9.7492  -14.4003 O   0  0  0  0  0  0  0  0  0  0  0  0
   22.8723   -3.6126  -16.1787 O   0  0  0  0  0  0  0  0  0  0  0  0
   23.0565   -3.8975  -14.8284 C   0  0  0  0  0  0  0  0  0  0  0  0
   21.7809   -4.5063  -14.2877 C   0  0  2  0  0  0  0  0  0  0  0  0
   21.3382   -5.6280  -15.0639 N   0  0  0  0  0  0  0  0  0  0  0  0
   20.7296   -3.4811  -14.2315 C   0  0  0  0  0  0  0  0  0  0  0  0
   20.7735   -2.3786  -13.3915 O   0  0  0  0  0  0  0  0  0  0  0  0
   19.7313   -3.6054  -14.9853 O   0  0  0  0  0  0  0  0  0  0  0  0
  2  1  1  6
  2  9  1  0
  3  4  1  0
  3  2  1  0
  4  8  1  0
  5  6  1  0
  5  4  2  0
  6  7  1  0
  7  8  2  0
  9 11  1  0
  9 10  2  0
 11 12  1  0
 12 17  1  0
 12 13  1  1
 13 14  1  0
 14 15  1  0
 15 19  1  0
 16 15  2  0
 17 18  2  0
 20 21  1  0
 22 21  1  6
 22 24  1  0
 23 17  1  0
 23 22  1  0
 24 25  1  0
 26 24  2  0
M  END
$$$$
