HES.pdb
     RDKit          3D

 26 26  0  0  1  0  0  0  0  0999 V2000
   23.9661  -15.1184  -17.6043 N   0  0  0  0  0  0  0  0  0  0  0  0
   23.9940  -14.0375  -16.6445 C   0  0  1  0  0  0  0  0  0  0  0  0
   25.4032  -13.6502  -16.3560 C   0  0  0  0  0  0  0  0  0  0  0  0
   26.2404  -14.7548  -15.8575 C   0  0  0  0  0  0  0  0  0  0  0  0
   26.9883  -15.6041  -16.6361 C   0  0  0  0  0  0  0  0  0  0  0  0
   27.6109  -16.4751  -15.8127 N   0  0  0  0  0  0  0  0  0  0  0  0
   27.2789  -16.2010  -14.5411 C   0  0  0  0  0  0  0  0  0  0  0  0
   26.4434  -15.1496  -14.5929 N   0  0  0  0  0  0  0  0  0  0  0  0
   23.0931  -12.9550  -17.0332 C   0  0  0  0  0  0  0  0  0  0  0  0
   22.9663  -12.5471  -18.2344 O   0  0  0  0  0  0  0  0  0  0  0  0
   22.2858  -12.2764  -16.0815 N   0  0  0  0  0  0  0  0  0  0  0  0
   21.3465  -11.2328  -16.4164 C   0  0  1  0  0  0  0  0  0  0  0  0
   19.9770  -11.6251  -15.9345 C   0  0  0  0  0  0  0  0  0  0  0  0
   19.2928  -12.6860  -16.7070 C   0  0  0  0  0  0  0  0  0  0  0  0
   17.9441  -13.0373  -16.2478 C   0  0  0  0  0  0  0  0  0  0  0  0
   16.9375  -13.0928  -16.9993 O   0  0  0  0  0  0  0  0  0  0  0  0
   21.6717   -9.9543  -15.7302 C   0  0  0  0  0  0  0  0  0  0  0  0
   22.1589  -10.0232  -14.5772 O   0  0  0  0  0  0  0  0  0  0  0  0
   17.7040  -13.3378  -14.9057 O   0  0  0  0  0  0  0  0  0  0  0  0
   22.6820   -6.6083  -17.7628 O   0  0  0  0  0  0  0  0  0  0  0  0
   21.8548   -6.2899  -16.6890 C   0  0  0  0  0  0  0  0  0  0  0  0
   21.8823   -7.4389  -15.7046 C   0  0  2  0  0  0  0  0  0  0  0  0
   21.4656   -8.6768  -16.2967 N   0  0  0  0  0  0  0  0  0  0  0  0
   21.0344   -7.1185  -14.5479 C   0  0  0  0  0  0  0  0  0  0  0  0
   21.4132   -6.2546  -13.5314 O   0  0  0  0  0  0  0  0  0  0  0  0
   19.9003   -7.6551  -14.4701 O   0  0  0  0  0  0  0  0  0  0  0  0
  2  1  1  6
  2  9  1  0
  3  4  1  0
  3  2  1  0
  4  8  1  0
  5  6  1  0
  5  4  2  0
  6  7  1  0
  7  8  2  0
  9 11  1  0
  9 10  2  0
 11 12  1  0
 12 17  1  0
 12 13  1  1
 13 14  1  0
 14 15  1  0
 15 19  1  0
 16 15  2  0
 17 18  2  0
 20 21  1  0
 22 21  1  6
 22 24  1  0
 23 17  1  0
 23 22  1  0
 24 25  1  0
 26 24  2  0
M  END
$$$$
