RDG.pdb
     RDKit          3D

 24 23  0  0  1  0  0  0  0  0999 V2000
   10.2408  -13.2858   19.4791 N   0  0  0  0  0  0  0  0  0  0  0  0
    9.0945  -13.0473   18.6760 C   0  0  0  0  0  0  0  0  0  0  0  0
    9.0183  -11.9247   18.0571 N   0  0  0  0  0  0  0  0  0  0  0  0
    8.0612  -14.0188   18.5577 N   0  0  0  0  0  0  0  0  0  0  0  0
    8.1639  -15.1995   19.3874 C   0  0  0  0  0  0  0  0  0  0  0  0
    8.0074  -14.9234   20.8399 C   0  0  0  0  0  0  0  0  0  0  0  0
    8.0074  -16.0939   21.7510 C   0  0  0  0  0  0  0  0  0  0  0  0
    7.6990  -15.7642   23.1931 C   0  0  2  0  0  0  0  0  0  0  0  0
    7.1862  -14.4351   23.2751 N   0  0  0  0  0  0  0  0  0  0  0  0
    8.9582  -15.9327   23.9876 C   0  0  0  0  0  0  0  0  0  0  0  0
    9.5071  -14.9603   24.5627 O   0  0  0  0  0  0  0  0  0  0  0  0
    8.2082  -11.6184   17.4766 N   0  0  0  0  0  0  0  0  0  0  0  0
    9.6037  -17.1988   24.1374 C   0  0  1  0  0  0  0  0  0  0  0  0
   10.8410  -17.3201   24.9087 C   0  0  0  0  0  0  0  0  0  0  0  0
   10.7882  -18.6899   25.5953 C   0  0  0  0  0  0  0  0  0  0  0  0
   12.0111  -18.9112   26.4025 O   0  0  0  0  0  0  0  0  0  0  0  0
   12.3965  -18.0968   27.2916 C   0  0  0  0  0  0  0  0  0  0  0  0
   12.0238  -17.2115   24.0445 O   0  0  0  0  0  0  0  0  0  0  0  0
   13.2076  -17.3511   24.4801 O   0  0  0  0  0  0  0  0  0  0  0  0
   12.8042  -20.0402   26.2190 N   0  0  0  0  0  0  0  0  0  0  0  0
   11.8812  -16.9430   22.6745 C   0  0  0  0  0  0  0  0  0  0  0  0
   13.0151  -16.8583   21.7602 C   0  0  0  0  0  0  0  0  0  0  0  0
   13.8448  -15.6648   22.0582 O   0  0  0  0  0  0  0  0  0  0  0  0
   14.0337  -15.2920   23.2422 O   0  0  0  0  0  0  0  0  0  0  0  0
  1  2  1  0
  2  4  1  0
  3  2  2  0
  5  6  1  0
  5  4  1  0
  7  6  1  0
  7  8  1  0
  8  9  1  6
 10  8  1  0
 10 12  1  0
 11 10  2  0
 13 12  1  0
 13 17  1  0
 13 14  1  6
 15 16  2  0
 15 14  1  0
 17 18  2  0
 19 15  1  0
 20 17  1  0
 20 21  1  0
 22 21  1  0
 22 24  1  0
 23 22  2  0
M  END
$$$$
