RDG.pdb
     RDKit          3D

 24 23  0  0  1  0  0  0  0  0999 V2000
    8.3216  -13.6195   17.0467 N   0  0  0  0  0  0  0  0  0  0  0  0
    8.2259  -13.0929   18.3617 C   0  0  0  0  0  0  0  0  0  0  0  0
    8.8471  -11.9982   18.6166 N   0  0  0  0  0  0  0  0  0  0  0  0
    7.4664  -13.7535   19.3678 N   0  0  0  0  0  0  0  0  0  0  0  0
    7.5855  -15.1930   19.4496 C   0  0  0  0  0  0  0  0  0  0  0  0
    8.7970  -15.7306   18.7760 C   0  0  0  0  0  0  0  0  0  0  0  0
    9.7788  -16.4455   19.6276 C   0  0  0  0  0  0  0  0  0  0  0  0
   10.0238  -15.8036   20.9735 C   0  0  2  0  0  0  0  0  0  0  0  0
   10.0812  -14.3863   20.8182 N   0  0  0  0  0  0  0  0  0  0  0  0
   11.2985  -16.3619   21.5291 C   0  0  0  0  0  0  0  0  0  0  0  0
   11.4333  -17.5896   21.7578 O   0  0  0  0  0  0  0  0  0  0  0  0
    8.7839  -11.4728   19.5148 N   0  0  0  0  0  0  0  0  0  0  0  0
   12.4271  -15.5381   21.8290 C   0  0  2  0  0  0  0  0  0  0  0  0
   13.6449  -16.1170   22.3967 C   0  0  0  0  0  0  0  0  0  0  0  0
   14.7957  -15.1939   21.9794 C   0  0  0  0  0  0  0  0  0  0  0  0
   14.9223  -15.1601   20.5033 O   0  0  0  0  0  0  0  0  0  0  0  0
   14.8298  -16.2005   19.7882 C   0  0  0  0  0  0  0  0  0  0  0  0
   13.5581  -16.2191   23.8594 O   0  0  0  0  0  0  0  0  0  0  0  0
   13.5660  -15.2035   24.6203 O   0  0  0  0  0  0  0  0  0  0  0  0
   15.1520  -13.9670   19.8243 N   0  0  0  0  0  0  0  0  0  0  0  0
   13.4614  -17.4740   24.4801 C   0  0  0  0  0  0  0  0  0  0  0  0
   13.2904  -17.6362   25.9200 C   0  0  0  0  0  0  0  0  0  0  0  0
   13.1853  -19.0718   26.2802 O   0  0  0  0  0  0  0  0  0  0  0  0
   13.2169  -19.9612   25.3946 O   0  0  0  0  0  0  0  0  0  0  0  0
  1  2  1  0
  2  4  1  0
  3  2  2  0
  5  6  1  0
  5  4  1  0
  7  6  1  0
  7  8  1  0
  8  9  1  6
 10  8  1  0
 10 12  1  0
 11 10  2  0
 13 12  1  0
 13 17  1  0
 13 14  1  6
 15 16  2  0
 15 14  1  0
 17 18  2  0
 19 15  1  0
 20 17  1  0
 20 21  1  0
 22 21  1  0
 22 24  1  0
 23 22  2  0
M  END
$$$$
