RDG.pdb
     RDKit          3D

 24 23  0  0  1  0  0  0  0  0999 V2000
    7.1080  -12.8373   18.5268 N   0  0  0  0  0  0  0  0  0  0  0  0
    7.3008  -13.5226   17.2984 C   0  0  0  0  0  0  0  0  0  0  0  0
    7.6499  -12.8314   16.2738 N   0  0  0  0  0  0  0  0  0  0  0  0
    7.1148  -14.9302   17.2015 N   0  0  0  0  0  0  0  0  0  0  0  0
    8.2849  -15.7657   17.3621 C   0  0  0  0  0  0  0  0  0  0  0  0
    8.7408  -15.8895   18.7718 C   0  0  0  0  0  0  0  0  0  0  0  0
   10.1653  -15.5816   19.0477 C   0  0  0  0  0  0  0  0  0  0  0  0
   11.1494  -16.4398   18.2871 C   0  0  2  0  0  0  0  0  0  0  0  0
   10.6656  -17.7812   18.2349 N   0  0  0  0  0  0  0  0  0  0  0  0
   12.4769  -16.3456   18.9756 C   0  0  0  0  0  0  0  0  0  0  0  0
   12.9671  -17.3230   19.5938 O   0  0  0  0  0  0  0  0  0  0  0  0
    7.8411  -11.8066   16.2839 N   0  0  0  0  0  0  0  0  0  0  0  0
   13.2577  -15.1487   18.9697 C   0  0  2  0  0  0  0  0  0  0  0  0
   14.4834  -15.0523   19.7627 C   0  0  0  0  0  0  0  0  0  0  0  0
   15.2263  -13.8096   19.2581 C   0  0  0  0  0  0  0  0  0  0  0  0
   15.8072  -14.0628   17.9186 O   0  0  0  0  0  0  0  0  0  0  0  0
   16.0846  -15.2269   17.5059 C   0  0  0  0  0  0  0  0  0  0  0  0
   14.1863  -14.9398   21.1968 O   0  0  0  0  0  0  0  0  0  0  0  0
   13.2917  -14.1643   21.6539 O   0  0  0  0  0  0  0  0  0  0  0  0
   16.0789  -13.0188   17.0390 N   0  0  0  0  0  0  0  0  0  0  0  0
   14.8993  -15.7046   22.1328 C   0  0  0  0  0  0  0  0  0  0  0  0
   14.5989  -15.6934   23.5606 C   0  0  0  0  0  0  0  0  0  0  0  0
   15.6155  -16.4632   24.3193 O   0  0  0  0  0  0  0  0  0  0  0  0
   16.4842  -17.1450   23.7218 O   0  0  0  0  0  0  0  0  0  0  0  0
  1  2  1  0
  2  4  1  0
  3  2  2  0
  5  6  1  0
  5  4  1  0
  7  6  1  0
  7  8  1  0
  8  9  1  1
 10  8  1  0
 10 12  1  0
 11 10  2  0
 13 12  1  0
 13 17  1  0
 13 14  1  6
 15 16  2  0
 15 14  1  0
 17 18  2  0
 19 15  1  0
 20 17  1  0
 20 21  1  0
 22 21  1  0
 22 24  1  0
 23 22  2  0
M  END
$$$$
