RDG.pdb
     RDKit          3D

 24 23  0  0  1  0  0  0  0  0999 V2000
    9.1258  -11.8456   19.4198 N   0  0  0  0  0  0  0  0  0  0  0  0
    8.2059  -12.6433   20.1499 C   0  0  0  0  0  0  0  0  0  0  0  0
    8.0429  -12.3824   21.3967 N   0  0  0  0  0  0  0  0  0  0  0  0
    7.4852  -13.6988   19.5237 N   0  0  0  0  0  0  0  0  0  0  0  0
    7.7868  -15.0489   19.9468 C   0  0  0  0  0  0  0  0  0  0  0  0
    7.0376  -15.4761   21.1579 C   0  0  0  0  0  0  0  0  0  0  0  0
    7.8370  -15.7923   22.3666 C   0  0  0  0  0  0  0  0  0  0  0  0
    8.7339  -17.0002   22.2251 C   0  0  2  0  0  0  0  0  0  0  0  0
    7.9360  -18.1538   21.9633 N   0  0  0  0  0  0  0  0  0  0  0  0
    9.5286  -17.1390   23.4879 C   0  0  0  0  0  0  0  0  0  0  0  0
    9.0683  -17.7385   24.4911 O   0  0  0  0  0  0  0  0  0  0  0  0
    7.3485  -12.8510   22.0174 N   0  0  0  0  0  0  0  0  0  0  0  0
   10.8461  -16.6028   23.6247 C   0  0  2  0  0  0  0  0  0  0  0  0
   11.5723  -16.7184   24.8896 C   0  0  0  0  0  0  0  0  0  0  0  0
   13.0564  -16.5322   24.5528 C   0  0  0  0  0  0  0  0  0  0  0  0
   13.5257  -17.6216   23.6646 O   0  0  0  0  0  0  0  0  0  0  0  0
   13.2248  -18.8357   23.8589 C   0  0  0  0  0  0  0  0  0  0  0  0
   11.1237  -15.7101   25.8589 O   0  0  0  0  0  0  0  0  0  0  0  0
   10.8460  -14.5165   25.5293 O   0  0  0  0  0  0  0  0  0  0  0  0
   14.3302  -17.3579   22.5597 N   0  0  0  0  0  0  0  0  0  0  0  0
   10.9838  -16.0408   27.2155 C   0  0  0  0  0  0  0  0  0  0  0  0
   10.5032  -15.0952   28.2175 C   0  0  0  0  0  0  0  0  0  0  0  0
   10.4414  -15.7316   29.5564 O   0  0  0  0  0  0  0  0  0  0  0  0
   10.6625  -16.9597   29.6958 O   0  0  0  0  0  0  0  0  0  0  0  0
  1  2  1  0
  2  4  1  0
  3  2  2  0
  5  6  1  0
  5  4  1  0
  7  6  1  0
  7  8  1  0
  8  9  1  1
 10  8  1  0
 10 12  1  0
 11 10  2  0
 13 12  1  0
 13 17  1  0
 13 14  1  6
 15 16  2  0
 15 14  1  0
 17 18  2  0
 19 15  1  0
 20 17  1  0
 20 21  1  0
 22 21  1  0
 22 24  1  0
 23 22  2  0
M  END
$$$$
