RDG.pdb
     RDKit          3D

 24 23  0  0  1  0  0  0  0  0999 V2000
    7.2961  -12.0324   19.8428 N   0  0  0  0  0  0  0  0  0  0  0  0
    7.8503  -13.1458   19.1581 C   0  0  0  0  0  0  0  0  0  0  0  0
    7.4279  -13.3910   17.9703 N   0  0  0  0  0  0  0  0  0  0  0  0
    8.8427  -13.9660   19.7648 N   0  0  0  0  0  0  0  0  0  0  0  0
    8.8459  -14.0428   21.2094 C   0  0  0  0  0  0  0  0  0  0  0  0
    8.9803  -15.4279   21.7330 C   0  0  0  0  0  0  0  0  0  0  0  0
    9.9198  -15.6319   22.8626 C   0  0  0  0  0  0  0  0  0  0  0  0
    9.8166  -16.9860   23.5252 C   0  0  2  0  0  0  0  0  0  0  0  0
    8.4413  -17.3230   23.7012 N   0  0  0  0  0  0  0  0  0  0  0  0
   10.5528  -16.9224   24.8288 C   0  0  0  0  0  0  0  0  0  0  0  0
   11.7727  -16.6280   24.8806 O   0  0  0  0  0  0  0  0  0  0  0  0
    7.7683  -14.1695   17.3661 N   0  0  0  0  0  0  0  0  0  0  0  0
    9.9161  -17.1903   26.0799 C   0  0  1  0  0  0  0  0  0  0  0  0
   10.6609  -17.0856   27.3348 C   0  0  0  0  0  0  0  0  0  0  0  0
    9.9200  -16.0513   28.1904 C   0  0  0  0  0  0  0  0  0  0  0  0
   10.2963  -14.6774   27.7821 O   0  0  0  0  0  0  0  0  0  0  0  0
   11.2117  -14.4444   26.9394 C   0  0  0  0  0  0  0  0  0  0  0  0
   10.7346  -18.3807   28.0238 O   0  0  0  0  0  0  0  0  0  0  0  0
    9.7579  -19.1896   28.0714 O   0  0  0  0  0  0  0  0  0  0  0  0
    9.6524  -13.5633   28.3127 N   0  0  0  0  0  0  0  0  0  0  0  0
   11.9163  -18.7768   28.6687 C   0  0  0  0  0  0  0  0  0  0  0  0
   12.0297  -20.0197   29.4245 C   0  0  0  0  0  0  0  0  0  0  0  0
   11.5893  -19.8255   30.8281 O   0  0  0  0  0  0  0  0  0  0  0  0
   11.1544  -18.7140   31.2179 O   0  0  0  0  0  0  0  0  0  0  0  0
  1  2  1  0
  2  4  1  0
  3  2  2  0
  5  6  1  0
  5  4  1  0
  7  6  1  0
  7  8  1  0
  8  9  1  1
 10  8  1  0
 10 12  1  0
 11 10  2  0
 13 12  1  0
 13 17  1  0
 13 14  1  6
 15 16  2  0
 15 14  1  0
 17 18  2  0
 19 15  1  0
 20 17  1  0
 20 21  1  0
 22 21  1  0
 22 24  1  0
 23 22  2  0
M  END
$$$$
