RDG.pdb
     RDKit          3D

 24 23  0  0  1  0  0  0  0  0999 V2000
    8.1749  -15.3795   16.8665 N   0  0  0  0  0  0  0  0  0  0  0  0
    8.2077  -13.9690   16.7075 C   0  0  0  0  0  0  0  0  0  0  0  0
    7.9764  -13.4912   15.5381 N   0  0  0  0  0  0  0  0  0  0  0  0
    8.4870  -13.1089   17.8065 N   0  0  0  0  0  0  0  0  0  0  0  0
    7.4999  -13.0408   18.8619 C   0  0  0  0  0  0  0  0  0  0  0  0
    7.3444  -14.3125   19.6163 C   0  0  0  0  0  0  0  0  0  0  0  0
    8.2874  -14.5499   20.7363 C   0  0  0  0  0  0  0  0  0  0  0  0
    9.0955  -15.8210   20.6149 C   0  0  2  0  0  0  0  0  0  0  0  0
    8.2296  -16.9469   20.7520 N   0  0  0  0  0  0  0  0  0  0  0  0
   10.1602  -15.7969   21.6689 C   0  0  0  0  0  0  0  0  0  0  0  0
   11.0648  -14.9254   21.6691 O   0  0  0  0  0  0  0  0  0  0  0  0
    8.0969  -12.4913   15.2688 N   0  0  0  0  0  0  0  0  0  0  0  0
   10.2093  -16.7554   22.7277 C   0  0  1  0  0  0  0  0  0  0  0  0
   11.3541  -16.8059   23.6375 C   0  0  0  0  0  0  0  0  0  0  0  0
   10.9495  -17.7352   24.7878 C   0  0  0  0  0  0  0  0  0  0  0  0
   11.9932  -17.7405   25.8398 O   0  0  0  0  0  0  0  0  0  0  0  0
   13.0482  -17.0460   25.7555 C   0  0  0  0  0  0  0  0  0  0  0  0
   12.5568  -17.3050   22.9579 O   0  0  0  0  0  0  0  0  0  0  0  0
   12.5532  -18.3457   22.2317 O   0  0  0  0  0  0  0  0  0  0  0  0
   11.8611  -18.5196   26.9856 N   0  0  0  0  0  0  0  0  0  0  0  0
   13.7805  -16.6314   23.0923 C   0  0  0  0  0  0  0  0  0  0  0  0
   14.9748  -16.9971   22.3380 C   0  0  0  0  0  0  0  0  0  0  0  0
   16.1180  -16.1255   22.7052 O   0  0  0  0  0  0  0  0  0  0  0  0
   15.9739  -15.1881   23.5281 O   0  0  0  0  0  0  0  0  0  0  0  0
  1  2  1  0
  2  4  1  0
  3  2  2  0
  5  6  1  0
  5  4  1  0
  7  6  1  0
  7  8  1  0
  8  9  1  1
 10  8  1  0
 10 12  1  0
 11 10  2  0
 13 12  1  0
 13 17  1  0
 13 14  1  6
 15 16  2  0
 15 14  1  0
 17 18  2  0
 19 15  1  0
 20 17  1  0
 20 21  1  0
 22 21  1  0
 22 24  1  0
 23 22  2  0
M  END
$$$$
