RDG.pdb
     RDKit          3D

 24 23  0  0  1  0  0  0  0  0999 V2000
    6.2350  -14.2601   15.2264 N   0  0  0  0  0  0  0  0  0  0  0  0
    7.3828  -13.4245   15.2370 C   0  0  0  0  0  0  0  0  0  0  0  0
    8.0114  -13.2540   14.1301 N   0  0  0  0  0  0  0  0  0  0  0  0
    7.8255  -12.7938   16.4335 N   0  0  0  0  0  0  0  0  0  0  0  0
    7.2176  -13.2249   17.6735 C   0  0  0  0  0  0  0  0  0  0  0  0
    8.1030  -14.0815   18.5059 C   0  0  0  0  0  0  0  0  0  0  0  0
    9.4771  -13.5834   18.7584 C   0  0  0  0  0  0  0  0  0  0  0  0
   10.5678  -14.5952   18.4934 C   0  0  2  0  0  0  0  0  0  0  0  0
    9.9981  -15.9024   18.4427 N   0  0  0  0  0  0  0  0  0  0  0  0
   11.5926  -14.4685   19.5792 C   0  0  0  0  0  0  0  0  0  0  0  0
   12.1774  -13.3805   19.8068 O   0  0  0  0  0  0  0  0  0  0  0  0
    8.8776  -12.6846   14.0187 N   0  0  0  0  0  0  0  0  0  0  0  0
   11.9621  -15.5684   20.4134 C   0  0  1  0  0  0  0  0  0  0  0  0
   13.0360  -15.4319   21.3976 C   0  0  0  0  0  0  0  0  0  0  0  0
   12.9188  -16.6406   22.3335 C   0  0  0  0  0  0  0  0  0  0  0  0
   13.9603  -16.5825   23.3861 O   0  0  0  0  0  0  0  0  0  0  0  0
   14.0839  -15.5945   24.1677 C   0  0  0  0  0  0  0  0  0  0  0  0
   14.3542  -15.3952   20.7506 O   0  0  0  0  0  0  0  0  0  0  0  0
   15.4288  -15.1875   21.3929 O   0  0  0  0  0  0  0  0  0  0  0  0
   14.8639  -17.6256   23.5676 N   0  0  0  0  0  0  0  0  0  0  0  0
   14.4725  -15.5931   19.3664 C   0  0  0  0  0  0  0  0  0  0  0  0
   15.7588  -15.6514   18.6801 C   0  0  0  0  0  0  0  0  0  0  0  0
   16.0750  -14.3501   18.0411 O   0  0  0  0  0  0  0  0  0  0  0  0
   15.9548  -13.2746   18.6778 O   0  0  0  0  0  0  0  0  0  0  0  0
  1  2  1  0
  2  4  1  0
  3  2  2  0
  5  6  1  0
  5  4  1  0
  7  6  1  0
  7  8  1  0
  8  9  1  1
 10  8  1  0
 10 12  1  0
 11 10  2  0
 13 12  1  0
 13 17  1  0
 13 14  1  6
 15 16  2  0
 15 14  1  0
 17 18  2  0
 19 15  1  0
 20 17  1  0
 20 21  1  0
 22 21  1  0
 22 24  1  0
 23 22  2  0
M  END
$$$$
