FPG.pdb
     RDKit          3D

 23 24  0  0  1  0  0  0  0  0999 V2000
    5.7024  -17.7593   25.3988 N   0  0  0  0  0  0  0  0  0  0  0  0
    6.4074  -16.5014   25.1503 C   0  0  1  0  0  0  0  0  0  0  0  0
    7.0152  -16.0065   26.4527 C   0  0  0  0  0  0  0  0  0  0  0  0
    6.9885  -14.5454   26.5598 C   0  0  0  0  0  0  0  0  0  0  0  0
    5.7749  -13.8911   26.5740 C   0  0  0  0  0  0  0  0  0  0  0  0
    5.6490  -12.5208   26.6718 C   0  0  0  0  0  0  0  0  0  0  0  0
    6.8291  -11.7917   26.7588 C   0  0  0  0  0  0  0  0  0  0  0  0
    8.0460  -12.4453   26.7447 C   0  0  0  0  0  0  0  0  0  0  0  0
    8.1637  -13.8143   26.6468 C   0  0  0  0  0  0  0  0  0  0  0  0
    7.4071  -16.6903   24.0805 C   0  0  0  0  0  0  0  0  0  0  0  0
    7.9815  -17.8319   24.0636 O   0  0  0  0  0  0  0  0  0  0  0  0
    7.7678  -15.7379   23.0999 N   0  0  0  0  0  0  0  0  0  0  0  0
    7.2138  -14.3690   23.1293 C   0  0  0  0  0  0  0  0  0  0  0  0
    7.7657  -13.6330   21.9665 C   0  0  0  0  0  0  0  0  0  0  0  0
    8.3795  -14.6697   21.0906 C   0  0  0  0  0  0  0  0  0  0  0  0
    8.6708  -15.8568   21.9924 C   0  0  1  0  0  0  0  0  0  0  0  0
   10.0925  -15.8810   22.4120 C   0  0  0  0  0  0  0  0  0  0  0  0
   10.4499  -15.1763   23.3882 O   0  0  0  0  0  0  0  0  0  0  0  0
   11.0758  -16.6647   21.7632 N   0  0  0  0  0  0  0  0  0  0  0  0
   12.1904  -17.2715   22.4544 C   0  0  0  0  0  0  0  0  0  0  0  0
   13.3754  -16.4090   22.2973 C   0  0  0  0  0  0  0  0  0  0  0  0
   13.3352  -15.2570   21.5350 O   0  0  0  0  0  0  0  0  0  0  0  0
   14.4427  -16.7252   22.8664 O   0  0  0  0  0  0  0  0  0  0  0  0
  2 10  1  0
  2  1  1  1
  3  2  1  0
  4  3  1  0
  5  4  2  0
  6  5  1  0
  7  6  2  0
  7  8  1  0
  8  9  2  0
  9  4  1  0
 10 12  1  0
 11 10  2  0
 12 13  1  0
 12 16  1  0
 13 14  1  0
 14 15  1  0
 16 15  1  0
 16 17  1  1
 17 19  1  0
 18 17  2  0
 20 19  1  0
 21 20  1  0
 22 21  1  0
 23 21  2  0
M  END
$$$$
