FPG.pdb
     RDKit          3D

 23 24  0  0  1  0  0  0  0  0999 V2000
    6.3816  -17.9705   25.6030 N   0  0  0  0  0  0  0  0  0  0  0  0
    6.8166  -16.6144   25.2672 C   0  0  1  0  0  0  0  0  0  0  0  0
    7.3959  -15.9563   26.5088 C   0  0  0  0  0  0  0  0  0  0  0  0
    7.0972  -14.5231   26.5701 C   0  0  0  0  0  0  0  0  0  0  0  0
    8.1333  -13.6217   26.6931 C   0  0  0  0  0  0  0  0  0  0  0  0
    7.9515  -12.2558   26.7584 C   0  0  0  0  0  0  0  0  0  0  0  0
    6.6406  -11.7984   26.6941 C   0  0  0  0  0  0  0  0  0  0  0  0
    5.6011  -12.6998   26.5709 C   0  0  0  0  0  0  0  0  0  0  0  0
    5.7906  -14.0627   26.5062 C   0  0  0  0  0  0  0  0  0  0  0  0
    7.7676  -16.6585   24.1387 C   0  0  0  0  0  0  0  0  0  0  0  0
    8.5597  -17.6615   24.1294 O   0  0  0  0  0  0  0  0  0  0  0  0
    7.8677  -15.7087   23.0963 N   0  0  0  0  0  0  0  0  0  0  0  0
    7.0336  -14.4897   23.0954 C   0  0  0  0  0  0  0  0  0  0  0  0
    7.3584  -13.7207   21.8700 C   0  0  0  0  0  0  0  0  0  0  0  0
    8.1393  -14.6513   21.0081 C   0  0  0  0  0  0  0  0  0  0  0  0
    8.7219  -15.6956   21.9447 C   0  0  1  0  0  0  0  0  0  0  0  0
   10.1336  -15.3926   22.2814 C   0  0  0  0  0  0  0  0  0  0  0  0
   10.3971  -14.8956   23.4043 O   0  0  0  0  0  0  0  0  0  0  0  0
   11.2085  -15.6371   21.3944 N   0  0  0  0  0  0  0  0  0  0  0  0
   11.9265  -16.8901   21.3439 C   0  0  0  0  0  0  0  0  0  0  0  0
   13.0278  -16.8484   22.3229 C   0  0  0  0  0  0  0  0  0  0  0  0
   12.9394  -17.4993   23.5387 O   0  0  0  0  0  0  0  0  0  0  0  0
   14.0670  -16.2098   22.0487 O   0  0  0  0  0  0  0  0  0  0  0  0
  2 10  1  0
  2  1  1  1
  3  2  1  0
  4  3  1  0
  5  4  2  0
  6  5  1  0
  7  6  2  0
  7  8  1  0
  8  9  2  0
  9  4  1  0
 10 12  1  0
 11 10  2  0
 12 13  1  0
 12 16  1  0
 13 14  1  0
 14 15  1  0
 16 15  1  0
 16 17  1  1
 17 19  1  0
 18 17  2  0
 20 19  1  0
 21 20  1  0
 22 21  1  0
 23 21  2  0
M  END
$$$$
