FPG.pdb
     RDKit          3D

 23 24  0  0  1  0  0  0  0  0999 V2000
    6.3588  -17.9594   25.6556 N   0  0  0  0  0  0  0  0  0  0  0  0
    6.7787  -16.5915   25.3498 C   0  0  1  0  0  0  0  0  0  0  0  0
    7.1804  -15.8947   26.6396 C   0  0  0  0  0  0  0  0  0  0  0  0
    6.9431  -14.4497   26.5890 C   0  0  0  0  0  0  0  0  0  0  0  0
    8.0197  -13.5893   26.5457 C   0  0  0  0  0  0  0  0  0  0  0  0
    7.8965  -12.2162   26.4964 C   0  0  0  0  0  0  0  0  0  0  0  0
    6.6033  -11.7069   26.4915 C   0  0  0  0  0  0  0  0  0  0  0  0
    5.5233  -12.5671   26.5349 C   0  0  0  0  0  0  0  0  0  0  0  0
    5.6544  -13.9375   26.5840 C   0  0  0  0  0  0  0  0  0  0  0  0
    7.8584  -16.6122   24.3431 C   0  0  0  0  0  0  0  0  0  0  0  0
    8.7175  -17.5484   24.4810 O   0  0  0  0  0  0  0  0  0  0  0  0
    8.0124  -15.7069   23.2682 N   0  0  0  0  0  0  0  0  0  0  0  0
    7.1761  -14.4933   23.1702 C   0  0  0  0  0  0  0  0  0  0  0  0
    7.5648  -13.7752   21.9326 C   0  0  0  0  0  0  0  0  0  0  0  0
    8.3942  -14.7374   21.1547 C   0  0  0  0  0  0  0  0  0  0  0  0
    8.9280  -15.7381   22.1651 C   0  0  1  0  0  0  0  0  0  0  0  0
   10.3183  -15.4139   22.5646 C   0  0  0  0  0  0  0  0  0  0  0  0
   10.5198  -14.8767   23.6818 O   0  0  0  0  0  0  0  0  0  0  0  0
   11.4397  -15.6813   21.7442 N   0  0  0  0  0  0  0  0  0  0  0  0
   12.3068  -16.8218   21.9323 C   0  0  0  0  0  0  0  0  0  0  0  0
   13.1256  -16.6044   23.1386 C   0  0  0  0  0  0  0  0  0  0  0  0
   14.2810  -15.8470   23.1012 O   0  0  0  0  0  0  0  0  0  0  0  0
   12.7683  -17.1162   24.2218 O   0  0  0  0  0  0  0  0  0  0  0  0
  2 10  1  0
  2  1  1  1
  3  2  1  0
  4  3  1  0
  5  4  2  0
  6  5  1  0
  7  6  2  0
  7  8  1  0
  8  9  2  0
  9  4  1  0
 10 12  1  0
 11 10  2  0
 12 13  1  0
 12 16  1  0
 13 14  1  0
 14 15  1  0
 16 15  1  0
 16 17  1  1
 17 19  1  0
 18 17  2  0
 20 19  1  0
 21 20  1  0
 22 21  1  0
 23 21  2  0
M  END
$$$$
