FPG.pdb
     RDKit          3D

 23 24  0  0  1  0  0  0  0  0999 V2000
    7.2836  -17.1235   26.4650 N   0  0  0  0  0  0  0  0  0  0  0  0
    6.6687  -16.7519   25.1903 C   0  0  1  0  0  0  0  0  0  0  0  0
    6.0096  -15.3899   25.3346 C   0  0  0  0  0  0  0  0  0  0  0  0
    6.8893  -14.4111   25.9788 C   0  0  0  0  0  0  0  0  0  0  0  0
    6.6830  -13.0664   25.7542 C   0  0  0  0  0  0  0  0  0  0  0  0
    7.4574  -12.0723   26.3153 C   0  0  0  0  0  0  0  0  0  0  0  0
    8.4925  -12.4840   27.1466 C   0  0  0  0  0  0  0  0  0  0  0  0
    8.7010  -13.8307   27.3729 C   0  0  0  0  0  0  0  0  0  0  0  0
    7.9231  -14.8178   26.8088 C   0  0  0  0  0  0  0  0  0  0  0  0
    7.6797  -16.7942   24.1152 C   0  0  0  0  0  0  0  0  0  0  0  0
    8.4977  -17.7747   24.1715 O   0  0  0  0  0  0  0  0  0  0  0  0
    7.8102  -15.8653   23.0575 N   0  0  0  0  0  0  0  0  0  0  0  0
    6.9841  -14.6416   23.0138 C   0  0  0  0  0  0  0  0  0  0  0  0
    7.3422  -13.8982   21.7819 C   0  0  0  0  0  0  0  0  0  0  0  0
    8.1371  -14.8498   20.9565 C   0  0  0  0  0  0  0  0  0  0  0  0
    8.6911  -15.8794   21.9262 C   0  0  1  0  0  0  0  0  0  0  0  0
   10.0964  -15.5784   22.2900 C   0  0  0  0  0  0  0  0  0  0  0  0
   10.7485  -14.7733   21.5802 O   0  0  0  0  0  0  0  0  0  0  0  0
   10.7459  -16.1569   23.4059 N   0  0  0  0  0  0  0  0  0  0  0  0
   11.9419  -16.9608   23.2994 C   0  0  0  0  0  0  0  0  0  0  0  0
   13.0965  -16.0710   23.0801 C   0  0  0  0  0  0  0  0  0  0  0  0
   13.4027  -15.0530   23.9632 O   0  0  0  0  0  0  0  0  0  0  0  0
   13.8170  -16.2396   22.0725 O   0  0  0  0  0  0  0  0  0  0  0  0
  2 10  1  0
  2  1  1  1
  3  2  1  0
  4  3  1  0
  5  4  2  0
  6  5  1  0
  7  6  2  0
  7  8  1  0
  8  9  2  0
  9  4  1  0
 10 12  1  0
 11 10  2  0
 12 13  1  0
 12 16  1  0
 13 14  1  0
 14 15  1  0
 16 15  1  0
 16 17  1  1
 17 19  1  0
 18 17  2  0
 20 19  1  0
 21 20  1  0
 22 21  1  0
 23 21  2  0
M  END
$$$$
