FPG.pdb
     RDKit          3D

 23 24  0  0  1  0  0  0  0  0999 V2000
    6.1575  -18.0109   25.5391 N   0  0  0  0  0  0  0  0  0  0  0  0
    6.5985  -16.6379   25.2910 C   0  0  1  0  0  0  0  0  0  0  0  0
    7.0828  -16.0278   26.5962 C   0  0  0  0  0  0  0  0  0  0  0  0
    7.0878  -14.5631   26.5580 C   0  0  0  0  0  0  0  0  0  0  0  0
    8.2855  -13.8950   26.4154 C   0  0  0  0  0  0  0  0  0  0  0  0
    8.3907  -12.5203   26.3689 C   0  0  0  0  0  0  0  0  0  0  0  0
    7.2058  -11.8014   26.4743 C   0  0  0  0  0  0  0  0  0  0  0  0
    6.0047  -12.4687   26.6173 C   0  0  0  0  0  0  0  0  0  0  0  0
    5.9078  -13.8420   26.6628 C   0  0  0  0  0  0  0  0  0  0  0  0
    7.6258  -16.6257   24.2306 C   0  0  0  0  0  0  0  0  0  0  0  0
    8.4802  -17.5747   24.2853 O   0  0  0  0  0  0  0  0  0  0  0  0
    7.7354  -15.6771   23.1881 N   0  0  0  0  0  0  0  0  0  0  0  0
    7.0502  -14.3713   23.2728 C   0  0  0  0  0  0  0  0  0  0  0  0
    7.3440  -13.6250   22.0258 C   0  0  0  0  0  0  0  0  0  0  0  0
    7.9283  -14.6246   21.0887 C   0  0  0  0  0  0  0  0  0  0  0  0
    8.4730  -15.7431   21.9602 C   0  0  1  0  0  0  0  0  0  0  0  0
    9.9355  -15.6079   22.1619 C   0  0  0  0  0  0  0  0  0  0  0  0
   10.6848  -15.5508   21.1557 O   0  0  0  0  0  0  0  0  0  0  0  0
   10.5353  -15.5392   23.4416 N   0  0  0  0  0  0  0  0  0  0  0  0
   11.9322  -15.2324   23.6479 C   0  0  0  0  0  0  0  0  0  0  0  0
   12.7054  -16.4870   23.6179 C   0  0  0  0  0  0  0  0  0  0  0  0
   12.2461  -17.6034   22.9450 O   0  0  0  0  0  0  0  0  0  0  0  0
   13.8025  -16.5447   24.2144 O   0  0  0  0  0  0  0  0  0  0  0  0
  2 10  1  0
  2  1  1  1
  3  2  1  0
  4  3  1  0
  5  4  2  0
  6  5  1  0
  7  6  2  0
  7  8  1  0
  8  9  2  0
  9  4  1  0
 10 12  1  0
 11 10  2  0
 12 13  1  0
 12 16  1  0
 13 14  1  0
 14 15  1  0
 16 15  1  0
 16 17  1  1
 17 19  1  0
 18 17  2  0
 20 19  1  0
 21 20  1  0
 22 21  1  0
 23 21  2  0
M  END
$$$$
