FPG.pdb
     RDKit          3D

 23 24  0  0  1  0  0  0  0  0999 V2000
    5.8108  -17.8396   25.5541 N   0  0  0  0  0  0  0  0  0  0  0  0
    6.4176  -16.5256   25.3392 C   0  0  1  0  0  0  0  0  0  0  0  0
    6.8681  -15.9613   26.6767 C   0  0  0  0  0  0  0  0  0  0  0  0
    6.9287  -14.4973   26.6714 C   0  0  0  0  0  0  0  0  0  0  0  0
    5.7558  -13.7725   26.6641 C   0  0  0  0  0  0  0  0  0  0  0  0
    5.7118  -12.3938   26.6589 C   0  0  0  0  0  0  0  0  0  0  0  0
    6.9340  -11.7318   26.6612 C   0  0  0  0  0  0  0  0  0  0  0  0
    8.1103  -12.4560   26.6685 C   0  0  0  0  0  0  0  0  0  0  0  0
    8.1461  -13.8331   26.6738 C   0  0  0  0  0  0  0  0  0  0  0  0
    7.5156  -16.6353   24.3583 C   0  0  0  0  0  0  0  0  0  0  0  0
    8.2601  -17.6666   24.4833 O   0  0  0  0  0  0  0  0  0  0  0  0
    7.7998  -15.7186   23.3203 N   0  0  0  0  0  0  0  0  0  0  0  0
    7.0025  -14.4863   23.1544 C   0  0  0  0  0  0  0  0  0  0  0  0
    7.5334  -13.7594   21.9763 C   0  0  0  0  0  0  0  0  0  0  0  0
    8.4211  -14.7281   21.2744 C   0  0  0  0  0  0  0  0  0  0  0  0
    8.8257  -15.7539   22.3190 C   0  0  1  0  0  0  0  0  0  0  0  0
   10.1723  -15.4649   22.8676 C   0  0  0  0  0  0  0  0  0  0  0  0
   10.2897  -14.5882   23.7592 O   0  0  0  0  0  0  0  0  0  0  0  0
   11.3422  -16.1323   22.4341 N   0  0  0  0  0  0  0  0  0  0  0  0
   12.6571  -15.5343   22.4715 C   0  0  0  0  0  0  0  0  0  0  0  0
   13.6627  -16.5763   22.1962 C   0  0  0  0  0  0  0  0  0  0  0  0
   13.3824  -17.9174   22.3774 O   0  0  0  0  0  0  0  0  0  0  0  0
   14.7962  -16.2412   21.7890 O   0  0  0  0  0  0  0  0  0  0  0  0
  2 10  1  0
  2  1  1  1
  3  2  1  0
  4  3  1  0
  5  4  2  0
  6  5  1  0
  7  6  2  0
  7  8  1  0
  8  9  2  0
  9  4  1  0
 10 12  1  0
 11 10  2  0
 12 13  1  0
 12 16  1  0
 13 14  1  0
 14 15  1  0
 16 15  1  0
 16 17  1  1
 17 19  1  0
 18 17  2  0
 20 19  1  0
 21 20  1  0
 22 21  1  0
 23 21  2  0
M  END
$$$$
