FPG.pdb
     RDKit          3D

 23 24  0  0  1  0  0  0  0  0999 V2000
    6.3836  -17.2766   25.5824 N   0  0  0  0  0  0  0  0  0  0  0  0
    6.8740  -16.0422   24.9686 C   0  0  1  0  0  0  0  0  0  0  0  0
    7.8499  -15.3679   25.9190 C   0  0  0  0  0  0  0  0  0  0  0  0
    7.3907  -14.0417   26.3401 C   0  0  0  0  0  0  0  0  0  0  0  0
    8.2725  -13.1904   26.9714 C   0  0  0  0  0  0  0  0  0  0  0  0
    7.9332  -11.9249   27.4034 C   0  0  0  0  0  0  0  0  0  0  0  0
    6.6240  -11.5188   27.1735 C   0  0  0  0  0  0  0  0  0  0  0  0
    5.7389  -12.3702   26.5411 C   0  0  0  0  0  0  0  0  0  0  0  0
    6.0852  -13.6327   26.1126 C   0  0  0  0  0  0  0  0  0  0  0  0
    7.4643  -16.3395   23.6484 C   0  0  0  0  0  0  0  0  0  0  0  0
    7.8255  -17.5526   23.4710 O   0  0  0  0  0  0  0  0  0  0  0  0
    7.6543  -15.4169   22.5942 N   0  0  0  0  0  0  0  0  0  0  0  0
    7.3053  -13.9911   22.7591 C   0  0  0  0  0  0  0  0  0  0  0  0
    7.5999  -13.3027   21.4794 C   0  0  0  0  0  0  0  0  0  0  0  0
    7.8123  -14.3871   20.4806 C   0  0  0  0  0  0  0  0  0  0  0  0
    8.1922  -15.6211   21.2807 C   0  0  1  0  0  0  0  0  0  0  0  0
    9.6600  -15.8298   21.2884 C   0  0  0  0  0  0  0  0  0  0  0  0
   10.2495  -16.0390   20.1994 O   0  0  0  0  0  0  0  0  0  0  0  0
   10.4373  -15.8047   22.4704 N   0  0  0  0  0  0  0  0  0  0  0  0
   11.8742  -15.9570   22.4788 C   0  0  0  0  0  0  0  0  0  0  0  0
   12.3463  -15.9497   23.8752 C   0  0  0  0  0  0  0  0  0  0  0  0
   13.4207  -15.1759   24.2711 O   0  0  0  0  0  0  0  0  0  0  0  0
   11.7623  -16.6593   24.7228 O   0  0  0  0  0  0  0  0  0  0  0  0
  2 10  1  0
  2  1  1  1
  3  2  1  0
  4  3  1  0
  5  4  2  0
  6  5  1  0
  7  6  2  0
  7  8  1  0
  8  9  2  0
  9  4  1  0
 10 12  1  0
 11 10  2  0
 12 13  1  0
 12 16  1  0
 13 14  1  0
 14 15  1  0
 16 15  1  0
 16 17  1  1
 17 19  1  0
 18 17  2  0
 20 19  1  0
 21 20  1  0
 22 21  1  0
 23 21  2  0
M  END
$$$$
