FPG.pdb
     RDKit          3D

 23 24  0  0  1  0  0  0  0  0999 V2000
    6.2818  -16.8508   25.4217 N   0  0  0  0  0  0  0  0  0  0  0  0
    6.8056  -15.6832   24.7121 C   0  0  1  0  0  0  0  0  0  0  0  0
    7.8160  -14.9743   25.5991 C   0  0  0  0  0  0  0  0  0  0  0  0
    7.2675  -13.7589   26.2066 C   0  0  0  0  0  0  0  0  0  0  0  0
    8.1150  -12.8868   26.8566 C   0  0  0  0  0  0  0  0  0  0  0  0
    7.6925  -11.7194   27.4579 C   0  0  0  0  0  0  0  0  0  0  0  0
    6.3332  -11.4383   27.3854 C   0  0  0  0  0  0  0  0  0  0  0  0
    5.4824  -12.3107   26.7347 C   0  0  0  0  0  0  0  0  0  0  0  0
    5.9120  -13.4748   26.1365 C   0  0  0  0  0  0  0  0  0  0  0  0
    7.3683  -16.0982   23.4117 C   0  0  0  0  0  0  0  0  0  0  0  0
    7.6325  -17.3439   23.3022 O   0  0  0  0  0  0  0  0  0  0  0  0
    7.6284  -15.2528   22.3089 N   0  0  0  0  0  0  0  0  0  0  0  0
    7.3020  -13.8132   22.3604 C   0  0  0  0  0  0  0  0  0  0  0  0
    7.6726  -13.2186   21.0538 C   0  0  0  0  0  0  0  0  0  0  0  0
    7.9101  -14.3719   20.1416 C   0  0  0  0  0  0  0  0  0  0  0  0
    8.2248  -15.5553   21.0404 C   0  0  1  0  0  0  0  0  0  0  0  0
    9.6858  -15.7890   21.1350 C   0  0  0  0  0  0  0  0  0  0  0  0
   10.3425  -15.1809   22.0160 O   0  0  0  0  0  0  0  0  0  0  0  0
   10.3840  -16.6701   20.2758 N   0  0  0  0  0  0  0  0  0  0  0  0
   11.7081  -17.1735   20.5611 C   0  0  0  0  0  0  0  0  0  0  0  0
   12.1274  -18.0619   19.4621 C   0  0  0  0  0  0  0  0  0  0  0  0
   13.4154  -18.0348   18.9620 O   0  0  0  0  0  0  0  0  0  0  0  0
   11.3000  -18.8593   18.9696 O   0  0  0  0  0  0  0  0  0  0  0  0
  2 10  1  0
  2  1  1  1
  3  2  1  0
  4  3  1  0
  5  4  2  0
  6  5  1  0
  7  6  2  0
  7  8  1  0
  8  9  2  0
  9  4  1  0
 10 12  1  0
 11 10  2  0
 12 13  1  0
 12 16  1  0
 13 14  1  0
 14 15  1  0
 16 15  1  0
 16 17  1  1
 17 19  1  0
 18 17  2  0
 20 19  1  0
 21 20  1  0
 22 21  1  0
 23 21  2  0
M  END
$$$$
