FPG.pdb
     RDKit          3D

 23 24  0  0  1  0  0  0  0  0999 V2000
    6.5493  -16.6336   25.5700 N   0  0  0  0  0  0  0  0  0  0  0  0
    6.9586  -15.5241   24.7083 C   0  0  1  0  0  0  0  0  0  0  0  0
    7.9523  -14.6523   25.4587 C   0  0  0  0  0  0  0  0  0  0  0  0
    7.2924  -13.6105   26.2500 C   0  0  0  0  0  0  0  0  0  0  0  0
    6.1440  -13.0203   25.7664 C   0  0  0  0  0  0  0  0  0  0  0  0
    5.4534  -12.0330   26.4382 C   0  0  0  0  0  0  0  0  0  0  0  0
    5.9710  -11.6362   27.6656 C   0  0  0  0  0  0  0  0  0  0  0  0
    7.1215  -12.2263   28.1520 C   0  0  0  0  0  0  0  0  0  0  0  0
    7.8057  -13.2118   27.4751 C   0  0  0  0  0  0  0  0  0  0  0  0
    7.4945  -16.0488   23.4366 C   0  0  0  0  0  0  0  0  0  0  0  0
    7.7092  -17.3085   23.4115 O   0  0  0  0  0  0  0  0  0  0  0  0
    7.7787  -15.2917   22.2770 N   0  0  0  0  0  0  0  0  0  0  0  0
    7.5066  -13.8406   22.2305 C   0  0  0  0  0  0  0  0  0  0  0  0
    7.8904  -13.3517   20.8844 C   0  0  0  0  0  0  0  0  0  0  0  0
    8.0788  -14.5731   20.0530 C   0  0  0  0  0  0  0  0  0  0  0  0
    8.3551  -15.7029   21.0301 C   0  0  1  0  0  0  0  0  0  0  0  0
    9.8069  -15.9843   21.1347 C   0  0  0  0  0  0  0  0  0  0  0  0
   10.4728  -15.4151   22.0346 O   0  0  0  0  0  0  0  0  0  0  0  0
   10.4864  -16.8695   20.2648 N   0  0  0  0  0  0  0  0  0  0  0  0
   11.3726  -17.9128   20.7278 C   0  0  0  0  0  0  0  0  0  0  0  0
   12.6479  -17.3039   21.1470 C   0  0  0  0  0  0  0  0  0  0  0  0
   13.4548  -16.6275   20.2518 O   0  0  0  0  0  0  0  0  0  0  0  0
   13.0097  -17.4003   22.3397 O   0  0  0  0  0  0  0  0  0  0  0  0
  2 10  1  0
  2  1  1  1
  3  2  1  0
  4  3  1  0
  5  4  2  0
  6  5  1  0
  7  6  2  0
  7  8  1  0
  8  9  2  0
  9  4  1  0
 10 12  1  0
 11 10  2  0
 12 13  1  0
 12 16  1  0
 13 14  1  0
 14 15  1  0
 16 15  1  0
 16 17  1  1
 17 19  1  0
 18 17  2  0
 20 19  1  0
 21 20  1  0
 22 21  1  0
 23 21  2  0
M  END
$$$$
