FPG.pdb
     RDKit          3D

 23 24  0  0  1  0  0  0  0  0999 V2000
    6.1959  -17.9809   25.7108 N   0  0  0  0  0  0  0  0  0  0  0  0
    6.6299  -16.6103   25.4385 C   0  0  1  0  0  0  0  0  0  0  0  0
    7.0930  -15.9684   26.7362 C   0  0  0  0  0  0  0  0  0  0  0  0
    6.9969  -14.5068   26.6997 C   0  0  0  0  0  0  0  0  0  0  0  0
    5.7532  -13.9118   26.6781 C   0  0  0  0  0  0  0  0  0  0  0  0
    5.5621  -12.5460   26.6436 C   0  0  0  0  0  0  0  0  0  0  0  0
    6.7066  -11.7574   26.6307 C   0  0  0  0  0  0  0  0  0  0  0  0
    7.9536  -12.3514   26.6522 C   0  0  0  0  0  0  0  0  0  0  0  0
    8.1363  -13.7164   26.6867 C   0  0  0  0  0  0  0  0  0  0  0  0
    7.6704  -16.6130   24.3910 C   0  0  0  0  0  0  0  0  0  0  0  0
    8.5127  -17.5719   24.4589 O   0  0  0  0  0  0  0  0  0  0  0  0
    7.8042  -15.6686   23.3476 N   0  0  0  0  0  0  0  0  0  0  0  0
    6.9405  -14.4718   23.2895 C   0  0  0  0  0  0  0  0  0  0  0  0
    7.3134  -13.7036   22.0774 C   0  0  0  0  0  0  0  0  0  0  0  0
    8.1650  -14.6198   21.2686 C   0  0  0  0  0  0  0  0  0  0  0  0
    8.7209  -15.6417   22.2452 C   0  0  1  0  0  0  0  0  0  0  0  0
   10.1033  -15.2995   22.6573 C   0  0  0  0  0  0  0  0  0  0  0  0
   10.2821  -14.3355   23.4423 O   0  0  0  0  0  0  0  0  0  0  0  0
   11.2413  -16.0099   22.2077 N   0  0  0  0  0  0  0  0  0  0  0  0
   12.5211  -15.9643   22.8771 C   0  0  0  0  0  0  0  0  0  0  0  0
   13.5001  -16.7323   22.0868 C   0  0  0  0  0  0  0  0  0  0  0  0
   14.4238  -16.1046   21.2727 O   0  0  0  0  0  0  0  0  0  0  0  0
   13.4965  -17.9807   22.1532 O   0  0  0  0  0  0  0  0  0  0  0  0
  2 10  1  0
  2  1  1  1
  3  2  1  0
  4  3  1  0
  5  4  2  0
  6  5  1  0
  7  6  2  0
  7  8  1  0
  8  9  2  0
  9  4  1  0
 10 12  1  0
 11 10  2  0
 12 13  1  0
 12 16  1  0
 13 14  1  0
 14 15  1  0
 16 15  1  0
 16 17  1  1
 17 19  1  0
 18 17  2  0
 20 19  1  0
 21 20  1  0
 22 21  1  0
 23 21  2  0
M  END
$$$$
