VSP.pdb
     RDKit          3D

 21 21  0  0  1  0  0  0  0  0999 V2000
   21.6326  -16.9405  -15.0885 C   0  0  0  0  0  0  0  0  0  0  0  0
   21.7485  -16.7609  -16.5667 C   0  0  2  0  0  0  0  0  0  0  0  0
   21.1967  -17.9667  -17.2617 C   0  0  0  0  0  0  0  0  0  0  0  0
   23.1444  -16.5107  -17.0371 C   0  0  2  0  0  0  0  0  0  0  0  0
   23.2626  -16.3281  -18.4470 N   0  0  0  0  0  0  0  0  0  0  0  0
   24.0817  -17.6021  -16.6048 C   0  0  0  0  0  0  0  0  0  0  0  0
   24.0641  -18.7292  -17.1663 O   0  0  0  0  0  0  0  0  0  0  0  0
   28.1753  -18.6724  -14.2151 O   0  0  0  0  0  0  0  0  0  0  0  0
   27.2534  -17.7587  -14.7330 C   0  0  0  0  0  0  0  0  0  0  0  0
   25.9081  -18.3503  -15.0034 C   0  0  2  0  0  0  0  0  0  0  0  0
   24.9889  -17.3700  -15.5647 N   0  0  0  0  0  0  0  0  0  0  0  0
   25.3208  -19.0404  -13.8362 C   0  0  0  0  0  0  0  0  0  0  0  0
   24.4922  -18.3699  -13.1382 O   0  0  0  0  0  0  0  0  0  0  0  0
   25.6048  -20.3460  -13.4591 N   0  0  0  0  0  0  0  0  0  0  0  0
   26.4864  -21.3616  -14.0282 C   0  0  0  0  0  0  0  0  0  0  0  0
   25.8477  -22.6868  -13.6611 C   0  0  0  0  0  0  0  0  0  0  0  0
   24.5868  -22.3025  -12.9461 C   0  0  0  0  0  0  0  0  0  0  0  0
   24.9737  -21.0007  -12.2866 C   0  0  1  0  0  0  0  0  0  0  0  0
   26.0126  -21.1312  -11.2562 C   0  0  0  0  0  0  0  0  0  0  0  0
   25.7503  -21.4859   -9.9439 O   0  0  0  0  0  0  0  0  0  0  0  0
   27.2113  -20.9120  -11.5684 O   0  0  0  0  0  0  0  0  0  0  0  0
  2  4  1  0
  2  1  1  1
  3  2  1  0
  4  5  1  6
  6  4  1  0
  7  6  2  0
 10  9  1  1
  9  8  1  0
 10 12  1  0
 10 11  1  0
 11  6  1  0
 12 14  1  0
 13 12  2  0
 14 15  1  0
 14 18  1  0
 15 16  1  0
 16 17  1  0
 18 19  1  1
 18 17  1  0
 19 20  1  0
 21 19  2  0
M  END
$$$$
