VSP.pdb
     RDKit          3D

 21 21  0  0  1  0  0  0  0  0999 V2000
   15.4085  -11.5546  -14.3372 C   0  0  0  0  0  0  0  0  0  0  0  0
   15.3618  -12.0551  -15.7436 C   0  0  2  0  0  0  0  0  0  0  0  0
   14.1629  -12.9338  -15.9220 C   0  0  0  0  0  0  0  0  0  0  0  0
   16.5894  -12.7973  -16.1616 C   0  0  2  0  0  0  0  0  0  0  0  0
   16.8288  -13.9944  -15.4236 N   0  0  0  0  0  0  0  0  0  0  0  0
   17.8138  -11.9293  -16.0968 C   0  0  0  0  0  0  0  0  0  0  0  0
   18.5836  -11.9711  -15.1010 O   0  0  0  0  0  0  0  0  0  0  0  0
   20.6417   -8.8851  -18.7384 O   0  0  0  0  0  0  0  0  0  0  0  0
   19.4948   -9.6734  -18.6115 C   0  0  0  0  0  0  0  0  0  0  0  0
   19.2498  -10.1580  -17.2193 C   0  0  2  0  0  0  0  0  0  0  0  0
   18.1087  -11.0605  -17.1535 N   0  0  0  0  0  0  0  0  0  0  0  0
   19.1404   -9.0698  -16.2258 C   0  0  0  0  0  0  0  0  0  0  0  0
   17.9608   -8.7138  -15.9015 O   0  0  0  0  0  0  0  0  0  0  0  0
   20.2167   -8.4242  -15.6322 N   0  0  0  0  0  0  0  0  0  0  0  0
   21.6602   -8.5637  -15.8040 C   0  0  0  0  0  0  0  0  0  0  0  0
   22.2549   -8.1722  -14.4653 C   0  0  0  0  0  0  0  0  0  0  0  0
   21.0623   -7.8939  -13.5997 C   0  0  0  0  0  0  0  0  0  0  0  0
   20.0544   -7.3743  -14.5964 C   0  0  1  0  0  0  0  0  0  0  0  0
   20.4240   -6.0959  -15.2184 C   0  0  0  0  0  0  0  0  0  0  0  0
   20.9261   -5.9859  -16.5040 O   0  0  0  0  0  0  0  0  0  0  0  0
   20.2817   -5.0340  -14.5593 O   0  0  0  0  0  0  0  0  0  0  0  0
  2  4  1  0
  2  1  1  1
  3  2  1  0
  4  5  1  1
  6  4  1  0
  7  6  2  0
 10  9  1  6
  9  8  1  0
 10 12  1  0
 10 11  1  0
 11  6  1  0
 12 14  1  0
 13 12  2  0
 14 15  1  0
 14 18  1  0
 15 16  1  0
 16 17  1  0
 18 19  1  6
 18 17  1  0
 19 20  1  0
 21 19  2  0
M  END
$$$$
