VSP.pdb
     RDKit          3D

 21 21  0  0  1  0  0  0  0  0999 V2000
   19.6429  -11.2784  -20.2310 C   0  0  0  0  0  0  0  0  0  0  0  0
   20.4764  -11.5927  -19.0322 C   0  0  2  0  0  0  0  0  0  0  0  0
   21.2942  -12.8179  -19.2989 C   0  0  0  0  0  0  0  0  0  0  0  0
   19.6845  -11.7858  -17.7799 C   0  0  2  0  0  0  0  0  0  0  0  0
   18.8255  -12.9246  -17.8008 N   0  0  0  0  0  0  0  0  0  0  0  0
   18.8737  -10.5675  -17.4404 C   0  0  0  0  0  0  0  0  0  0  0  0
   17.8002  -10.3156  -18.0485 O   0  0  0  0  0  0  0  0  0  0  0  0
   17.9610   -9.2369  -13.7747 O   0  0  0  0  0  0  0  0  0  0  0  0
   18.7197   -8.3194  -14.5065 C   0  0  0  0  0  0  0  0  0  0  0  0
   18.6162   -8.4989  -15.9863 C   0  0  2  0  0  0  0  0  0  0  0  0
   19.3116   -9.6968  -16.4360 N   0  0  0  0  0  0  0  0  0  0  0  0
   19.0313   -7.3079  -16.7563 C   0  0  0  0  0  0  0  0  0  0  0  0
   20.2203   -7.3141  -17.2140 O   0  0  0  0  0  0  0  0  0  0  0  0
   18.2263   -6.2058  -17.0109 N   0  0  0  0  0  0  0  0  0  0  0  0
   16.8868   -5.8436  -16.5557 C   0  0  0  0  0  0  0  0  0  0  0  0
   16.3109   -4.9903  -17.6690 C   0  0  0  0  0  0  0  0  0  0  0  0
   17.3784   -4.9894  -18.7222 C   0  0  0  0  0  0  0  0  0  0  0  0
   18.6414   -5.0941  -17.9017 C   0  0  1  0  0  0  0  0  0  0  0  0
   18.9026   -3.9305  -17.0440 C   0  0  0  0  0  0  0  0  0  0  0  0
   18.7385   -3.9394  -15.6693 O   0  0  0  0  0  0  0  0  0  0  0  0
   19.2979   -2.8601  -17.5732 O   0  0  0  0  0  0  0  0  0  0  0  0
  2  4  1  0
  2  1  1  6
  3  2  1  0
  4  5  1  6
  6  4  1  0
  7  6  2  0
 10  9  1  1
  9  8  1  0
 10 12  1  0
 10 11  1  0
 11  6  1  0
 12 14  1  0
 13 12  2  0
 14 15  1  0
 14 18  1  0
 15 16  1  0
 16 17  1  0
 18 19  1  1
 18 17  1  0
 19 20  1  0
 21 19  2  0
M  END
$$$$
