VSP.pdb
     RDKit          3D

 21 21  0  0  1  0  0  0  0  0999 V2000
   21.3343  -19.0229  -18.1062 C   0  0  0  0  0  0  0  0  0  0  0  0
   21.3505  -19.4010  -16.6614 C   0  0  2  0  0  0  0  0  0  0  0  0
   20.0947  -20.1431  -16.3247 C   0  0  0  0  0  0  0  0  0  0  0  0
   21.5059  -18.2393  -15.7348 C   0  0  2  0  0  0  0  0  0  0  0  0
   20.4164  -17.3187  -15.7632 N   0  0  0  0  0  0  0  0  0  0  0  0
   22.7844  -17.4922  -15.9879 C   0  0  0  0  0  0  0  0  0  0  0  0
   22.8162  -16.5168  -16.7837 O   0  0  0  0  0  0  0  0  0  0  0  0
   26.3426  -18.8218  -13.9844 O   0  0  0  0  0  0  0  0  0  0  0  0
   26.1674  -17.4883  -14.3639 C   0  0  0  0  0  0  0  0  0  0  0  0
   25.2826  -17.3139  -15.5553 C   0  0  2  0  0  0  0  0  0  0  0  0
   23.9593  -17.8803  -15.3339 N   0  0  0  0  0  0  0  0  0  0  0  0
   25.8815  -17.8067  -16.8130 C   0  0  0  0  0  0  0  0  0  0  0  0
   25.4200  -18.9028  -17.2701 O   0  0  0  0  0  0  0  0  0  0  0  0
   26.8919  -17.1655  -17.5169 N   0  0  0  0  0  0  0  0  0  0  0  0
   27.6676  -15.9597  -17.2394 C   0  0  0  0  0  0  0  0  0  0  0  0
   28.0385  -15.4087  -18.6025 C   0  0  0  0  0  0  0  0  0  0  0  0
   27.3712  -16.3400  -19.5702 C   0  0  0  0  0  0  0  0  0  0  0  0
   27.3964  -17.6525  -18.8246 C   0  0  1  0  0  0  0  0  0  0  0  0
   28.7438  -18.1895  -18.5926 C   0  0  0  0  0  0  0  0  0  0  0  0
   29.3335  -18.2663  -17.3423 O   0  0  0  0  0  0  0  0  0  0  0  0
   29.4107  -18.6069  -19.5741 O   0  0  0  0  0  0  0  0  0  0  0  0
  2  4  1  0
  2  1  1  6
  3  2  1  0
  4  5  1  6
  6  4  1  0
  7  6  2  0
 10  9  1  1
  9  8  1  0
 10 12  1  0
 10 11  1  0
 11  6  1  0
 12 14  1  0
 13 12  2  0
 14 15  1  0
 14 18  1  0
 15 16  1  0
 16 17  1  0
 18 19  1  1
 18 17  1  0
 19 20  1  0
 21 19  2  0
M  END
$$$$
