VSP.pdb
     RDKit          3D

 21 21  0  0  1  0  0  0  0  0999 V2000
   16.5897  -14.2422  -18.1652 C   0  0  0  0  0  0  0  0  0  0  0  0
   17.7769  -14.9365  -17.5826 C   0  0  2  0  0  0  0  0  0  0  0  0
   17.3673  -16.2819  -17.0694 C   0  0  0  0  0  0  0  0  0  0  0  0
   18.4486  -14.1703  -16.4898 C   0  0  2  0  0  0  0  0  0  0  0  0
   17.6660  -14.0338  -15.3048 N   0  0  0  0  0  0  0  0  0  0  0  0
   18.8812  -12.8073  -16.9501 C   0  0  0  0  0  0  0  0  0  0  0  0
   19.8199  -12.6729  -17.7787 O   0  0  0  0  0  0  0  0  0  0  0  0
   16.4881   -9.3342  -15.9987 O   0  0  0  0  0  0  0  0  0  0  0  0
   17.3441   -9.4844  -17.0931 C   0  0  0  0  0  0  0  0  0  0  0  0
   18.5664  -10.2901  -16.7937 C   0  0  2  0  0  0  0  0  0  0  0  0
   18.2368  -11.6678  -16.4554 N   0  0  0  0  0  0  0  0  0  0  0  0
   19.4444   -9.6756  -15.7764 C   0  0  0  0  0  0  0  0  0  0  0  0
   19.3699  -10.1549  -14.5982 O   0  0  0  0  0  0  0  0  0  0  0  0
   20.3295   -8.6330  -16.0155 N   0  0  0  0  0  0  0  0  0  0  0  0
   20.6284   -7.8560  -17.2153 C   0  0  0  0  0  0  0  0  0  0  0  0
   22.0745   -7.4287  -17.0566 C   0  0  0  0  0  0  0  0  0  0  0  0
   22.5088   -8.0686  -15.7717 C   0  0  0  0  0  0  0  0  0  0  0  0
   21.2292   -8.0849  -14.9707 C   0  0  1  0  0  0  0  0  0  0  0  0
   20.7193   -6.7526  -14.6200 C   0  0  0  0  0  0  0  0  0  0  0  0
   19.6776   -6.1307  -15.2869 O   0  0  0  0  0  0  0  0  0  0  0  0
   21.2479   -6.1305  -13.6631 O   0  0  0  0  0  0  0  0  0  0  0  0
  2  4  1  0
  2  1  1  1
  3  2  1  0
  4  5  1  1
  6  4  1  0
  7  6  2  0
 10  9  1  1
  9  8  1  0
 10 12  1  0
 10 11  1  0
 11  6  1  0
 12 14  1  0
 13 12  2  0
 14 15  1  0
 14 18  1  0
 15 16  1  0
 16 17  1  0
 18 19  1  6
 18 17  1  0
 19 20  1  0
 21 19  2  0
M  END
$$$$
