VSP.pdb
     RDKit          3D

 21 21  0  0  1  0  0  0  0  0999 V2000
   28.6849  -20.7831  -17.2438 C   0  0  0  0  0  0  0  0  0  0  0  0
   27.5578  -20.4133  -18.1513 C   0  0  2  0  0  0  0  0  0  0  0  0
   27.9599  -20.6563  -19.5727 C   0  0  0  0  0  0  0  0  0  0  0  0
   27.0985  -18.9996  -17.9987 C   0  0  2  0  0  0  0  0  0  0  0  0
   28.0528  -18.0260  -18.4192 N   0  0  0  0  0  0  0  0  0  0  0  0
   26.6820  -18.6988  -16.5871 C   0  0  0  0  0  0  0  0  0  0  0  0
   27.3068  -17.8518  -15.8955 O   0  0  0  0  0  0  0  0  0  0  0  0
   22.7702  -18.4696  -15.3862 O   0  0  0  0  0  0  0  0  0  0  0  0
   23.9537  -18.0460  -14.7757 C   0  0  0  0  0  0  0  0  0  0  0  0
   25.0100  -19.1013  -14.7157 C   0  0  2  0  0  0  0  0  0  0  0  0
   25.5862  -19.3651  -16.0269 N   0  0  0  0  0  0  0  0  0  0  0  0
   24.5640  -20.3466  -14.0573 C   0  0  0  0  0  0  0  0  0  0  0  0
   24.3388  -21.3424  -14.8196 O   0  0  0  0  0  0  0  0  0  0  0  0
   24.3803  -20.5009  -12.6898 N   0  0  0  0  0  0  0  0  0  0  0  0
   24.4638  -19.5594  -11.5767 C   0  0  0  0  0  0  0  0  0  0  0  0
   24.8741  -20.3985  -10.3823 C   0  0  0  0  0  0  0  0  0  0  0  0
   25.0550  -21.7767  -10.9450 C   0  0  0  0  0  0  0  0  0  0  0  0
   24.0426  -21.8035  -12.0647 C   0  0  1  0  0  0  0  0  0  0  0  0
   22.6458  -21.7169  -11.6181 C   0  0  0  0  0  0  0  0  0  0  0  0
   21.8855  -20.5627  -11.6991 O   0  0  0  0  0  0  0  0  0  0  0  0
   22.0966  -22.7395  -11.1336 O   0  0  0  0  0  0  0  0  0  0  0  0
  2  4  1  0
  2  1  1  1
  3  2  1  0
  4  5  1  1
  6  4  1  0
  7  6  2  0
 10  9  1  6
  9  8  1  0
 10 12  1  0
 10 11  1  0
 11  6  1  0
 12 14  1  0
 13 12  2  0
 14 15  1  0
 14 18  1  0
 15 16  1  0
 16 17  1  0
 18 19  1  1
 18 17  1  0
 19 20  1  0
 21 19  2  0
M  END
$$$$
