FAL.pdb
     RDKit          3D

 25 25  0  0  1  0  0  0  0  0999 V2000
   15.5384  -15.5759    4.7777 N   0  0  0  0  0  0  0  0  0  0  0  0
   16.5071  -16.6093    4.9615 C   0  0  1  0  0  0  0  0  0  0  0  0
   17.8707  -16.2287    4.4388 C   0  0  0  0  0  0  0  0  0  0  0  0
   17.9588  -16.1917    2.9821 C   0  0  0  0  0  0  0  0  0  0  0  0
   17.6662  -17.3327    2.2672 C   0  0  0  0  0  0  0  0  0  0  0  0
   17.7225  -17.3887    0.8903 C   0  0  0  0  0  0  0  0  0  0  0  0
   18.0860  -16.2591    0.1973 C   0  0  0  0  0  0  0  0  0  0  0  0
   18.3832  -15.1082    0.8786 C   0  0  0  0  0  0  0  0  0  0  0  0
   18.3192  -15.0773    2.2623 C   0  0  0  0  0  0  0  0  0  0  0  0
   16.6683  -16.9049    6.4058 C   0  0  0  0  0  0  0  0  0  0  0  0
   16.6005  -15.9549    7.2214 O   0  0  0  0  0  0  0  0  0  0  0  0
   16.9263  -19.7917    8.8034 C   0  0  0  0  0  0  0  0  0  0  0  0
   17.3903  -18.4694    8.2476 C   0  0  2  0  0  0  0  0  0  0  0  0
   16.8964  -18.2044    6.9286 N   0  0  0  0  0  0  0  0  0  0  0  0
   18.8729  -18.4596    8.3212 C   0  0  0  0  0  0  0  0  0  0  0  0
   19.4783  -18.9689    7.3234 O   0  0  0  0  0  0  0  0  0  0  0  0
   23.5278  -15.6200   11.0978 C   0  0  0  0  0  0  0  0  0  0  0  0
   23.1059  -16.6935   10.1005 C   0  0  2  0  0  0  0  0  0  0  0  0
   23.9659  -16.7002    8.8817 C   0  0  0  0  0  0  0  0  0  0  0  0
   21.6426  -16.6919    9.8655 C   0  0  0  0  0  0  0  0  0  0  0  0
   21.0232  -17.9854    9.4389 C   0  0  2  0  0  0  0  0  0  0  0  0
   19.5769  -17.9221    9.4239 N   0  0  0  0  0  0  0  0  0  0  0  0
   21.5266  -19.1838   10.1106 C   0  0  0  0  0  0  0  0  0  0  0  0
   22.3725  -19.9277    9.5743 O   0  0  0  0  0  0  0  0  0  0  0  0
   21.0634  -19.5127   11.3688 O   0  0  0  0  0  0  0  0  0  0  0  0
  2  3  1  0
  2  1  1  1
  2 10  1  0
  4  3  1  0
  4  9  2  0
  5  4  1  0
  6  5  2  0
  6  7  1  0
  7  8  2  0
  8  9  1  0
 10 14  1  0
 11 10  2  0
 13 12  1  6
 14 13  1  0
 15 16  2  0
 15 13  1  0
 18 20  1  0
 18 17  1  6
 18 19  1  0
 21 22  1  0
 21 20  1  1
 22 15  1  0
 23 21  1  0
 24 23  2  0
 25 23  1  0
M  END
$$$$
