FAL.pdb
     RDKit          3D

 25 25  0  0  1  0  0  0  0  0999 V2000
   23.1144  -33.1980  -14.5174 N   0  0  0  0  0  0  0  0  0  0  0  0
   22.2902  -32.7690  -13.4326 C   0  0  1  0  0  0  0  0  0  0  0  0
   21.4302  -33.8793  -12.8803 C   0  0  0  0  0  0  0  0  0  0  0  0
   20.3766  -34.3218  -13.7888 C   0  0  0  0  0  0  0  0  0  0  0  0
   19.2200  -33.5784  -13.8810 C   0  0  0  0  0  0  0  0  0  0  0  0
   18.1741  -33.9207  -14.7121 C   0  0  0  0  0  0  0  0  0  0  0  0
   18.2864  -35.0522  -15.4839 C   0  0  0  0  0  0  0  0  0  0  0  0
   19.4236  -35.8132  -15.4156 C   0  0  0  0  0  0  0  0  0  0  0  0
   20.4608  -35.4480  -14.5725 C   0  0  0  0  0  0  0  0  0  0  0  0
   23.1335  -32.2825  -12.3140 C   0  0  0  0  0  0  0  0  0  0  0  0
   24.3410  -32.6194  -12.2856 O   0  0  0  0  0  0  0  0  0  0  0  0
   22.7698  -29.9400   -9.3329 C   0  0  0  0  0  0  0  0  0  0  0  0
   23.4718  -30.9594  -10.1936 C   0  0  2  0  0  0  0  0  0  0  0  0
   22.6580  -31.4534  -11.2648 N   0  0  0  0  0  0  0  0  0  0  0  0
   23.9543  -32.0355   -9.2921 C   0  0  0  0  0  0  0  0  0  0  0  0
   23.2670  -33.1074   -9.2949 O   0  0  0  0  0  0  0  0  0  0  0  0
   28.0801  -33.4675   -5.0267 C   0  0  0  0  0  0  0  0  0  0  0  0
   27.4940  -33.9408   -6.3525 C   0  0  2  0  0  0  0  0  0  0  0  0
   28.4200  -34.8524   -7.0850 C   0  0  0  0  0  0  0  0  0  0  0  0
   26.9219  -32.8230   -7.1398 C   0  0  0  0  0  0  0  0  0  0  0  0
   25.5246  -32.9960   -7.6459 C   0  0  2  0  0  0  0  0  0  0  0  0
   25.1020  -31.8896   -8.4784 N   0  0  0  0  0  0  0  0  0  0  0  0
   24.5243  -33.3577   -6.6412 C   0  0  0  0  0  0  0  0  0  0  0  0
   23.8549  -32.4912   -6.0431 O   0  0  0  0  0  0  0  0  0  0  0  0
   24.3047  -34.6862   -6.3367 O   0  0  0  0  0  0  0  0  0  0  0  0
  2  3  1  0
  2  1  1  6
  2 10  1  0
  4  3  1  0
  4  9  2  0
  5  4  1  0
  6  5  2  0
  6  7  1  0
  7  8  2  0
  8  9  1  0
 10 14  1  0
 11 10  2  0
 13 12  1  1
 14 13  1  0
 15 16  2  0
 15 13  1  0
 18 20  1  0
 18 17  1  1
 18 19  1  0
 21 22  1  0
 21 20  1  1
 22 15  1  0
 23 21  1  0
 24 23  2  0
 25 23  1  0
M  END
$$$$
