FAL.pdb
     RDKit          3D

 25 25  0  0  1  0  0  0  0  0999 V2000
   25.7702  -19.8625  -15.6624 N   0  0  0  0  0  0  0  0  0  0  0  0
   26.2136  -20.7378  -14.6243 C   0  0  1  0  0  0  0  0  0  0  0  0
   27.7108  -20.9267  -14.6220 C   0  0  0  0  0  0  0  0  0  0  0  0
   28.2137  -21.6954  -15.7566 C   0  0  0  0  0  0  0  0  0  0  0  0
   28.9647  -21.0530  -16.7168 C   0  0  0  0  0  0  0  0  0  0  0  0
   29.4802  -21.6994  -17.8207 C   0  0  0  0  0  0  0  0  0  0  0  0
   29.2363  -23.0432  -17.9733 C   0  0  0  0  0  0  0  0  0  0  0  0
   28.4931  -23.7113  -17.0361 C   0  0  0  0  0  0  0  0  0  0  0  0
   27.9861  -23.0393  -15.9355 C   0  0  0  0  0  0  0  0  0  0  0  0
   25.8492  -20.1812  -13.2989 C   0  0  0  0  0  0  0  0  0  0  0  0
   26.1980  -19.0077  -13.0272 O   0  0  0  0  0  0  0  0  0  0  0  0
   23.3339  -20.7164  -10.6387 C   0  0  0  0  0  0  0  0  0  0  0  0
   24.7417  -20.3557  -11.0397 C   0  0  2  0  0  0  0  0  0  0  0  0
   25.1255  -20.8970  -12.3100 N   0  0  0  0  0  0  0  0  0  0  0  0
   25.6353  -20.7866   -9.9354 C   0  0  0  0  0  0  0  0  0  0  0  0
   25.9488  -22.0208   -9.9287 O   0  0  0  0  0  0  0  0  0  0  0  0
   28.4435  -18.6396   -4.8671 C   0  0  0  0  0  0  0  0  0  0  0  0
   28.2214  -19.8351   -5.7873 C   0  0  2  0  0  0  0  0  0  0  0  0
   29.4186  -20.7219   -5.8586 C   0  0  0  0  0  0  0  0  0  0  0  0
   27.6274  -19.4366   -7.0854 C   0  0  0  0  0  0  0  0  0  0  0  0
   26.7157  -20.4229   -7.7448 C   0  0  2  0  0  0  0  0  0  0  0  0
   26.1129  -19.8921   -8.9493 N   0  0  0  0  0  0  0  0  0  0  0  0
   25.7415  -21.0736   -6.8682 C   0  0  0  0  0  0  0  0  0  0  0  0
   24.5860  -20.6247   -6.7273 O   0  0  0  0  0  0  0  0  0  0  0  0
   26.0951  -22.2129   -6.1734 O   0  0  0  0  0  0  0  0  0  0  0  0
  2  3  1  0
  2  1  1  6
  2 10  1  0
  4  3  1  0
  4  9  2  0
  5  4  1  0
  6  5  2  0
  6  7  1  0
  7  8  2  0
  8  9  1  0
 10 14  1  0
 11 10  2  0
 13 12  1  1
 14 13  1  0
 15 16  2  0
 15 13  1  0
 18 20  1  0
 18 17  1  6
 18 19  1  0
 21 22  1  0
 21 20  1  1
 22 15  1  0
 23 21  1  0
 24 23  2  0
 25 23  1  0
M  END
$$$$
