FAL.pdb
     RDKit          3D

 25 25  0  0  1  0  0  0  0  0999 V2000
   23.3933  -13.0478  -20.3738 N   0  0  0  0  0  0  0  0  0  0  0  0
   22.4060  -12.0330  -20.5628 C   0  0  1  0  0  0  0  0  0  0  0  0
   21.0232  -12.4839  -20.1605 C   0  0  0  0  0  0  0  0  0  0  0  0
   20.4592  -13.5140  -21.0276 C   0  0  0  0  0  0  0  0  0  0  0  0
   20.2292  -14.7697  -20.5089 C   0  0  0  0  0  0  0  0  0  0  0  0
   19.6993  -15.8022  -21.2540 C   0  0  0  0  0  0  0  0  0  0  0  0
   19.3856  -15.5727  -22.5721 C   0  0  0  0  0  0  0  0  0  0  0  0
   19.6021  -14.3349  -23.1182 C   0  0  0  0  0  0  0  0  0  0  0  0
   20.1357  -13.3137  -22.3486 C   0  0  0  0  0  0  0  0  0  0  0  0
   22.7292  -10.8474  -19.7326 C   0  0  0  0  0  0  0  0  0  0  0  0
   23.3472  -11.0225  -18.6556 O   0  0  0  0  0  0  0  0  0  0  0  0
   22.3511   -7.0627  -19.9660 C   0  0  0  0  0  0  0  0  0  0  0  0
   22.6995   -8.3646  -19.2904 C   0  0  2  0  0  0  0  0  0  0  0  0
   22.3813   -9.5165  -20.0814 N   0  0  0  0  0  0  0  0  0  0  0  0
   22.0225   -8.3670  -17.9693 C   0  0  0  0  0  0  0  0  0  0  0  0
   20.9109   -8.9861  -17.9200 O   0  0  0  0  0  0  0  0  0  0  0  0
   22.3760   -9.7633  -12.4756 C   0  0  0  0  0  0  0  0  0  0  0  0
   21.4298   -9.1294  -13.4895 C   0  0  2  0  0  0  0  0  0  0  0  0
   20.0609   -9.7189  -13.4287 C   0  0  0  0  0  0  0  0  0  0  0  0
   22.0391   -9.0346  -14.8372 C   0  0  0  0  0  0  0  0  0  0  0  0
   21.8360   -7.7543  -15.5843 C   0  0  2  0  0  0  0  0  0  0  0  0
   22.5685   -7.7259  -16.8328 N   0  0  0  0  0  0  0  0  0  0  0  0
   22.0072   -6.5284  -14.8041 C   0  0  0  0  0  0  0  0  0  0  0  0
   23.0226   -5.8134  -14.9236 O   0  0  0  0  0  0  0  0  0  0  0  0
   21.0298   -6.1406  -13.9096 O   0  0  0  0  0  0  0  0  0  0  0  0
  2  3  1  0
  2  1  1  1
  2 10  1  0
  4  3  1  0
  4  9  2  0
  5  4  1  0
  6  5  2  0
  6  7  1  0
  7  8  2  0
  8  9  1  0
 10 14  1  0
 11 10  2  0
 13 12  1  6
 14 13  1  0
 15 16  2  0
 15 13  1  0
 18 20  1  0
 18 17  1  1
 18 19  1  0
 21 22  1  0
 21 20  1  1
 22 15  1  0
 23 21  1  0
 24 23  2  0
 25 23  1  0
M  END
$$$$
