FAL.pdb
     RDKit          3D

 25 25  0  0  1  0  0  0  0  0999 V2000
   16.4842  -10.6741  -10.3484 N   0  0  0  0  0  0  0  0  0  0  0  0
   15.5623   -9.6821  -10.8025 C   0  0  1  0  0  0  0  0  0  0  0  0
   14.1564   -9.9252  -10.3107 C   0  0  0  0  0  0  0  0  0  0  0  0
   13.5159  -11.0973  -10.8999 C   0  0  0  0  0  0  0  0  0  0  0  0
   13.1596  -12.1455  -10.0794 C   0  0  0  0  0  0  0  0  0  0  0  0
   12.5505  -13.2903  -10.5489 C   0  0  0  0  0  0  0  0  0  0  0  0
   12.2856  -13.3941  -11.8934 C   0  0  0  0  0  0  0  0  0  0  0  0
   12.6275  -12.3693  -12.7360 C   0  0  0  0  0  0  0  0  0  0  0  0
   13.2387  -11.2291  -12.2398 C   0  0  0  0  0  0  0  0  0  0  0  0
   15.9663   -8.3453  -10.3036 C   0  0  0  0  0  0  0  0  0  0  0  0
   16.4355   -8.2569   -9.1441 O   0  0  0  0  0  0  0  0  0  0  0  0
   16.5101   -4.8597  -11.6619 C   0  0  0  0  0  0  0  0  0  0  0  0
   16.1948   -5.8474  -10.5675 C   0  0  2  0  0  0  0  0  0  0  0  0
   15.8551   -7.1497  -11.0601 N   0  0  0  0  0  0  0  0  0  0  0  0
   15.1231   -5.2487   -9.7329 C   0  0  0  0  0  0  0  0  0  0  0  0
   13.9357   -5.4007  -10.1669 O   0  0  0  0  0  0  0  0  0  0  0  0
   12.0981   -4.1195   -5.4230 C   0  0  0  0  0  0  0  0  0  0  0  0
   13.4236   -3.3701   -5.5042 C   0  0  2  0  0  0  0  0  0  0  0  0
   13.2348   -1.9212   -5.8045 C   0  0  0  0  0  0  0  0  0  0  0  0
   14.4176   -4.0845   -6.3397 C   0  0  0  0  0  0  0  0  0  0  0  0
   14.3029   -3.9167   -7.8221 C   0  0  2  0  0  0  0  0  0  0  0  0
   15.3930   -4.5522   -8.5318 N   0  0  0  0  0  0  0  0  0  0  0  0
   14.0456   -2.5545   -8.2901 C   0  0  0  0  0  0  0  0  0  0  0  0
   14.9686   -1.7280   -8.4367 O   0  0  0  0  0  0  0  0  0  0  0  0
   12.7550   -2.1594   -8.5803 O   0  0  0  0  0  0  0  0  0  0  0  0
  2  3  1  0
  2  1  1  1
  2 10  1  0
  4  3  1  0
  4  9  2  0
  5  4  1  0
  6  5  2  0
  6  7  1  0
  7  8  2  0
  8  9  1  0
 10 14  1  0
 11 10  2  0
 13 12  1  6
 14 13  1  0
 15 16  2  0
 15 13  1  0
 18 20  1  0
 18 17  1  6
 18 19  1  0
 21 22  1  0
 21 20  1  1
 22 15  1  0
 23 21  1  0
 24 23  2  0
 25 23  1  0
M  END
$$$$
