FAL.pdb
     RDKit          3D

 25 25  0  0  1  0  0  0  0  0999 V2000
   18.3458  -14.8843  -18.7921 N   0  0  0  0  0  0  0  0  0  0  0  0
   17.5205  -13.7615  -18.4782 C   0  0  1  0  0  0  0  0  0  0  0  0
   16.8160  -13.9095  -17.1518 C   0  0  0  0  0  0  0  0  0  0  0  0
   15.7227  -14.8768  -17.1652 C   0  0  0  0  0  0  0  0  0  0  0  0
   15.9318  -16.1268  -16.6244 C   0  0  0  0  0  0  0  0  0  0  0  0
   14.9570  -17.1019  -16.5935 C   0  0  0  0  0  0  0  0  0  0  0  0
   13.7216  -16.8183  -17.1243 C   0  0  0  0  0  0  0  0  0  0  0  0
   13.4814  -15.5846  -17.6695 C   0  0  0  0  0  0  0  0  0  0  0  0
   14.4775  -14.6216  -17.6885 C   0  0  0  0  0  0  0  0  0  0  0  0
   18.3452  -12.5321  -18.3913 C   0  0  0  0  0  0  0  0  0  0  0  0
   19.5737  -12.6509  -18.1697 O   0  0  0  0  0  0  0  0  0  0  0  0
   17.8410   -8.7764  -18.8084 C   0  0  0  0  0  0  0  0  0  0  0  0
   18.6278  -10.0290  -18.5170 C   0  0  2  0  0  0  0  0  0  0  0  0
   17.8293  -11.2188  -18.5438 N   0  0  0  0  0  0  0  0  0  0  0  0
   19.3126   -9.8230  -17.2161 C   0  0  0  0  0  0  0  0  0  0  0  0
   18.6364  -10.1302  -16.1818 O   0  0  0  0  0  0  0  0  0  0  0  0
   22.1717  -10.2502  -13.0933 C   0  0  0  0  0  0  0  0  0  0  0  0
   23.0631  -10.1707  -14.3279 C   0  0  2  0  0  0  0  0  0  0  0  0
   24.0457   -9.0516  -14.2429 C   0  0  0  0  0  0  0  0  0  0  0  0
   22.2833  -10.2591  -15.5851 C   0  0  0  0  0  0  0  0  0  0  0  0
   21.2510   -9.2013  -15.8182 C   0  0  2  0  0  0  0  0  0  0  0  0
   20.6305   -9.3184  -17.1210 N   0  0  0  0  0  0  0  0  0  0  0  0
   21.6640   -7.8312  -15.5133 C   0  0  0  0  0  0  0  0  0  0  0  0
   22.0493   -7.0500  -16.4065 O   0  0  0  0  0  0  0  0  0  0  0  0
   21.6320   -7.3774  -14.2098 O   0  0  0  0  0  0  0  0  0  0  0  0
  2  3  1  0
  2  1  1  1
  2 10  1  0
  4  3  1  0
  4  9  2  0
  5  4  1  0
  6  5  2  0
  6  7  1  0
  7  8  2  0
  8  9  1  0
 10 14  1  0
 11 10  2  0
 13 12  1  1
 14 13  1  0
 15 16  2  0
 15 13  1  0
 18 20  1  0
 18 17  1  1
 18 19  1  0
 21 22  1  0
 21 20  1  6
 22 15  1  0
 23 21  1  0
 24 23  2  0
 25 23  1  0
M  END
$$$$
