FAL.pdb
     RDKit          3D

 25 25  0  0  1  0  0  0  0  0999 V2000
   18.8196   -7.0360  -17.9402 N   0  0  0  0  0  0  0  0  0  0  0  0
   19.5571   -6.2029  -18.8359 C   0  0  1  0  0  0  0  0  0  0  0  0
   18.7859   -5.8701  -20.0897 C   0  0  0  0  0  0  0  0  0  0  0  0
   18.5887   -7.0067  -20.9844 C   0  0  0  0  0  0  0  0  0  0  0  0
   19.4040   -7.1362  -22.0876 C   0  0  0  0  0  0  0  0  0  0  0  0
   19.2897   -8.1771  -22.9852 C   0  0  0  0  0  0  0  0  0  0  0  0
   18.3214   -9.1289  -22.7735 C   0  0  0  0  0  0  0  0  0  0  0  0
   17.4945   -9.0290  -21.6856 C   0  0  0  0  0  0  0  0  0  0  0  0
   17.6294   -7.9736  -20.7981 C   0  0  0  0  0  0  0  0  0  0  0  0
   19.8850   -4.9143  -18.1791 C   0  0  0  0  0  0  0  0  0  0  0  0
   19.2009   -4.5560  -17.1912 O   0  0  0  0  0  0  0  0  0  0  0  0
   22.3414   -2.0431  -18.6825 C   0  0  0  0  0  0  0  0  0  0  0  0
   21.2639   -2.8137  -17.9627 C   0  0  2  0  0  0  0  0  0  0  0  0
   20.9317   -4.0534  -18.6002 N   0  0  0  0  0  0  0  0  0  0  0  0
   20.0972   -1.9068  -17.8215 C   0  0  0  0  0  0  0  0  0  0  0  0
   19.2941   -1.8829  -18.8094 O   0  0  0  0  0  0  0  0  0  0  0  0
   15.3508   -0.9367  -14.9035 C   0  0  0  0  0  0  0  0  0  0  0  0
   16.2112   -0.3653  -16.0252 C   0  0  2  0  0  0  0  0  0  0  0  0
   15.4299   -0.1382  -17.2754 C   0  0  0  0  0  0  0  0  0  0  0  0
   17.4876   -1.1025  -16.1794 C   0  0  0  0  0  0  0  0  0  0  0  0
   18.6876   -0.3036  -16.5802 C   0  0  2  0  0  0  0  0  0  0  0  0
   19.8826   -1.1160  -16.6686 N   0  0  0  0  0  0  0  0  0  0  0  0
   18.9045    0.9362  -15.8342 C   0  0  0  0  0  0  0  0  0  0  0  0
   19.7691    1.0179  -14.9384 O   0  0  0  0  0  0  0  0  0  0  0  0
   18.1415    2.0515  -16.1170 O   0  0  0  0  0  0  0  0  0  0  0  0
  2  3  1  0
  2  1  1  1
  2 10  1  0
  4  3  1  0
  4  9  2  0
  5  4  1  0
  6  5  2  0
  6  7  1  0
  7  8  2  0
  8  9  1  0
 10 14  1  0
 11 10  2  0
 13 12  1  6
 14 13  1  0
 15 16  2  0
 15 13  1  0
 18 20  1  0
 18 17  1  1
 18 19  1  0
 21 22  1  0
 21 20  1  1
 22 15  1  0
 23 21  1  0
 24 23  2  0
 25 23  1  0
M  END
$$$$
