FAL.pdb
     RDKit          3D

 25 25  0  0  1  0  0  0  0  0999 V2000
   23.5613  -21.1933  -10.0679 N   0  0  0  0  0  0  0  0  0  0  0  0
   24.3180  -20.2663  -10.8478 C   0  0  1  0  0  0  0  0  0  0  0  0
   25.8072  -20.4672  -10.7078 C   0  0  0  0  0  0  0  0  0  0  0  0
   26.3275  -20.1453   -9.3823 C   0  0  0  0  0  0  0  0  0  0  0  0
   26.8507  -21.1575   -8.6075 C   0  0  0  0  0  0  0  0  0  0  0  0
   27.3640  -20.9452   -7.3452 C   0  0  0  0  0  0  0  0  0  0  0  0
   27.3550  -19.6696   -6.8340 C   0  0  0  0  0  0  0  0  0  0  0  0
   26.8418  -18.6409   -7.5793 C   0  0  0  0  0  0  0  0  0  0  0  0
   26.3318  -18.8799   -8.8452 C   0  0  0  0  0  0  0  0  0  0  0  0
   23.9964  -20.4295  -12.2862 C   0  0  0  0  0  0  0  0  0  0  0  0
   23.8409  -21.5897  -12.7359 O   0  0  0  0  0  0  0  0  0  0  0  0
   22.9734  -18.2485  -15.2075 C   0  0  0  0  0  0  0  0  0  0  0  0
   23.5443  -19.4976  -14.5859 C   0  0  2  0  0  0  0  0  0  0  0  0
   23.8521  -19.3483  -13.1942 N   0  0  0  0  0  0  0  0  0  0  0  0
   24.7227  -19.8915  -15.3982 C   0  0  0  0  0  0  0  0  0  0  0  0
   24.4716  -20.2684  -16.5883 O   0  0  0  0  0  0  0  0  0  0  0  0
   27.0689  -17.7069  -17.3938 C   0  0  0  0  0  0  0  0  0  0  0  0
   27.8593  -17.7583  -16.0908 C   0  0  2  0  0  0  0  0  0  0  0  0
   28.9607  -16.7528  -16.0593 C   0  0  0  0  0  0  0  0  0  0  0  0
   28.2310  -19.1438  -15.7186 C   0  0  0  0  0  0  0  0  0  0  0  0
   27.1473  -20.1740  -15.7722 C   0  0  2  0  0  0  0  0  0  0  0  0
   26.0430  -19.8546  -14.8922 N   0  0  0  0  0  0  0  0  0  0  0  0
   27.5843  -21.5645  -15.6440 C   0  0  0  0  0  0  0  0  0  0  0  0
   27.0814  -22.3330  -14.7996 O   0  0  0  0  0  0  0  0  0  0  0  0
   28.5768  -22.0523  -16.4704 O   0  0  0  0  0  0  0  0  0  0  0  0
  2  3  1  0
  2  1  1  1
  2 10  1  0
  4  3  1  0
  4  9  2  0
  5  4  1  0
  6  5  2  0
  6  7  1  0
  7  8  2  0
  8  9  1  0
 10 14  1  0
 11 10  2  0
 13 12  1  6
 14 13  1  0
 15 16  2  0
 15 13  1  0
 18 20  1  0
 18 17  1  6
 18 19  1  0
 21 22  1  0
 21 20  1  1
 22 15  1  0
 23 21  1  0
 24 23  2  0
 25 23  1  0
M  END
$$$$
