FAL.pdb
     RDKit          3D

 25 25  0  0  1  0  0  0  0  0999 V2000
   28.7467  -20.9919   -9.2616 N   0  0  0  0  0  0  0  0  0  0  0  0
   27.3430  -20.8364   -9.0482 C   0  0  1  0  0  0  0  0  0  0  0  0
   27.0137  -19.6403   -8.1888 C   0  0  0  0  0  0  0  0  0  0  0  0
   27.5951  -19.6929   -6.8508 C   0  0  0  0  0  0  0  0  0  0  0  0
   27.1420  -20.6451   -5.9638 C   0  0  0  0  0  0  0  0  0  0  0  0
   27.6338  -20.7680   -4.6812 C   0  0  0  0  0  0  0  0  0  0  0  0
   28.6190  -19.9048   -4.2657 C   0  0  0  0  0  0  0  0  0  0  0  0
   29.0914  -18.9467   -5.1236 C   0  0  0  0  0  0  0  0  0  0  0  0
   28.5810  -18.8435   -6.4076 C   0  0  0  0  0  0  0  0  0  0  0  0
   26.6500  -20.6374  -10.3442 C   0  0  0  0  0  0  0  0  0  0  0  0
   27.0555  -19.7268  -11.1050 O   0  0  0  0  0  0  0  0  0  0  0  0
   24.7998  -22.5877  -12.8085 C   0  0  0  0  0  0  0  0  0  0  0  0
   24.9217  -21.2825  -12.0641 C   0  0  2  0  0  0  0  0  0  0  0  0
   25.5484  -21.4175  -10.7823 N   0  0  0  0  0  0  0  0  0  0  0  0
   23.5602  -20.6967  -11.9817 C   0  0  0  0  0  0  0  0  0  0  0  0
   22.9459  -20.8806  -10.8817 O   0  0  0  0  0  0  0  0  0  0  0  0
   19.8302  -16.7632  -14.9311 C   0  0  0  0  0  0  0  0  0  0  0  0
   20.1730  -17.4741  -13.6264 C   0  0  2  0  0  0  0  0  0  0  0  0
   19.9213  -16.6151  -12.4332 C   0  0  0  0  0  0  0  0  0  0  0  0
   21.4971  -18.1374  -13.6842 C   0  0  0  0  0  0  0  0  0  0  0  0
   21.6686  -19.3804  -12.8691 C   0  0  2  0  0  0  0  0  0  0  0  0
   22.9742  -19.9792  -13.0505 N   0  0  0  0  0  0  0  0  0  0  0  0
   20.5838  -20.3577  -12.9632 C   0  0  0  0  0  0  0  0  0  0  0  0
   19.5921  -20.3089  -12.2079 O   0  0  0  0  0  0  0  0  0  0  0  0
   20.6452  -21.3644  -13.9059 O   0  0  0  0  0  0  0  0  0  0  0  0
  2  3  1  0
  2  1  1  6
  2 10  1  0
  4  3  1  0
  4  9  2  0
  5  4  1  0
  6  5  2  0
  6  7  1  0
  7  8  2  0
  8  9  1  0
 10 14  1  0
 11 10  2  0
 13 12  1  1
 14 13  1  0
 15 16  2  0
 15 13  1  0
 18 20  1  0
 18 17  1  6
 18 19  1  0
 21 22  1  0
 21 20  1  6
 22 15  1  0
 23 21  1  0
 24 23  2  0
 25 23  1  0
M  END
$$$$
