FAL.pdb
     RDKit          3D

 25 25  0  0  1  0  0  0  0  0999 V2000
   22.6986  -23.1536  -15.8089 N   0  0  0  0  0  0  0  0  0  0  0  0
   22.5491  -22.1267  -14.8275 C   0  0  1  0  0  0  0  0  0  0  0  0
   21.5506  -22.4873  -13.7549 C   0  0  0  0  0  0  0  0  0  0  0  0
   20.1786  -22.6103  -14.2384 C   0  0  0  0  0  0  0  0  0  0  0  0
   19.4474  -21.4651  -14.4677 C   0  0  0  0  0  0  0  0  0  0  0  0
   18.1463  -21.4865  -14.9246 C   0  0  0  0  0  0  0  0  0  0  0  0
   17.5494  -22.7012  -15.1628 C   0  0  0  0  0  0  0  0  0  0  0  0
   18.2495  -23.8585  -14.9449 C   0  0  0  0  0  0  0  0  0  0  0  0
   19.5559  -23.8106  -14.4856 C   0  0  0  0  0  0  0  0  0  0  0  0
   23.8428  -21.8828  -14.1448 C   0  0  0  0  0  0  0  0  0  0  0  0
   24.5762  -22.8662  -13.8851 O   0  0  0  0  0  0  0  0  0  0  0  0
   26.0140  -18.9366  -13.1574 C   0  0  0  0  0  0  0  0  0  0  0  0
   25.5266  -20.3590  -13.0476 C   0  0  2  0  0  0  0  0  0  0  0  0
   24.3082  -20.5974  -13.7633 N   0  0  0  0  0  0  0  0  0  0  0  0
   25.4169  -20.6736  -11.6010 C   0  0  0  0  0  0  0  0  0  0  0  0
   24.2318  -20.7877  -11.1494 O   0  0  0  0  0  0  0  0  0  0  0  0
   27.9979  -18.7292   -6.6175 C   0  0  0  0  0  0  0  0  0  0  0  0
   27.3129  -19.9851   -7.1453 C   0  0  2  0  0  0  0  0  0  0  0  0
   27.6518  -21.1935   -6.3391 C   0  0  0  0  0  0  0  0  0  0  0  0
   27.4538  -20.1213   -8.6144 C   0  0  0  0  0  0  0  0  0  0  0  0
   26.3737  -20.8670   -9.3327 C   0  0  2  0  0  0  0  0  0  0  0  0
   26.5492  -20.8375  -10.7694 N   0  0  0  0  0  0  0  0  0  0  0  0
   25.0040  -20.5503   -8.9270 C   0  0  0  0  0  0  0  0  0  0  0  0
   24.4347  -19.5065   -9.3049 O   0  0  0  0  0  0  0  0  0  0  0  0
   24.3120  -21.4181   -8.1060 O   0  0  0  0  0  0  0  0  0  0  0  0
  2  3  1  0
  2  1  1  6
  2 10  1  0
  4  3  1  0
  4  9  2  0
  5  4  1  0
  6  5  2  0
  6  7  1  0
  7  8  2  0
  8  9  1  0
 10 14  1  0
 11 10  2  0
 13 12  1  1
 14 13  1  0
 15 16  2  0
 15 13  1  0
 18 20  1  0
 18 17  1  1
 18 19  1  0
 21 22  1  0
 21 20  1  1
 22 15  1  0
 23 21  1  0
 24 23  2  0
 25 23  1  0
M  END
$$$$
