ADN.pdb
     RDKit          3D

 22 21  0  0  1  0  0  0  0  0999 V2000
   17.9602  -22.6416  -10.5296 C   0  0  0  0  0  0  0  0  0  0  0  0
   18.3331  -24.0062  -11.0623 C   0  0  2  0  0  0  0  0  0  0  0  0
   17.8672  -24.1974  -12.4207 N   0  0  0  0  0  0  0  0  0  0  0  0
   17.7907  -25.0462  -10.1488 C   0  0  0  0  0  0  0  0  0  0  0  0
   16.5838  -25.1044   -9.8009 O   0  0  0  0  0  0  0  0  0  0  0  0
   18.6405  -26.0768   -9.5930 N   0  0  0  0  0  0  0  0  0  0  0  0
   18.1446  -27.0907   -8.7024 C   0  0  1  0  0  0  0  0  0  0  0  0
   19.0896  -28.2558   -8.5638 C   0  0  0  0  0  0  0  0  0  0  0  0
   18.4605  -29.4353   -7.9423 C   0  0  0  0  0  0  0  0  0  0  0  0
   19.0637  -30.5022   -7.6733 O   0  0  0  0  0  0  0  0  0  0  0  0
   17.7756  -26.4911   -7.3968 C   0  0  0  0  0  0  0  0  0  0  0  0
   17.8802  -25.2534   -7.1663 O   0  0  0  0  0  0  0  0  0  0  0  0
   17.1091  -29.3535   -7.6366 O   0  0  0  0  0  0  0  0  0  0  0  0
   16.6933  -23.3569   -5.9174 N   0  0  0  0  0  0  0  0  0  0  0  0
   16.0903  -24.3270   -5.0414 C   0  0  0  0  0  0  0  0  0  0  0  0
   15.9960  -24.0256   -3.8103 O   0  0  0  0  0  0  0  0  0  0  0  0
   15.6099  -25.6166   -5.5829 C   0  0  0  0  0  0  0  0  0  0  0  0
   16.5658  -26.7027   -5.1871 C   0  0  2  0  0  0  0  0  0  0  0  0
   17.2741  -27.2751   -6.3056 N   0  0  0  0  0  0  0  0  0  0  0  0
   15.9861  -27.7281   -4.2912 C   0  0  0  0  0  0  0  0  0  0  0  0
   15.7949  -27.5451   -2.9271 O   0  0  0  0  0  0  0  0  0  0  0  0
   15.6313  -28.8445   -4.7446 O   0  0  0  0  0  0  0  0  0  0  0  0
  2  1  1  1
  3  2  1  0
  4  6  1  0
  4  2  1  0
  5  4  2  0
  7  6  1  0
  7 11  1  0
  7  8  1  1
  9  8  1  0
 10  9  2  0
 11 19  1  0
 12 11  2  0
 13  9  1  0
 15 14  1  0
 16 15  2  0
 17 15  1  0
 18 20  1  0
 18 17  1  6
 19 18  1  0
 20 21  1  0
 22 20  2  0
M  END
$$$$
