ADN.pdb
     RDKit          3D

 22 21  0  0  1  0  0  0  0  0999 V2000
   13.6716  -12.4801  -16.8325 C   0  0  0  0  0  0  0  0  0  0  0  0
   15.1436  -12.3486  -16.5151 C   0  0  2  0  0  0  0  0  0  0  0  0
   15.4777  -12.9733  -15.2514 N   0  0  0  0  0  0  0  0  0  0  0  0
   15.5133  -10.9086  -16.5256 C   0  0  0  0  0  0  0  0  0  0  0  0
   15.4431  -10.1807  -17.5485 O   0  0  0  0  0  0  0  0  0  0  0  0
   15.9869  -10.2447  -15.3305 N   0  0  0  0  0  0  0  0  0  0  0  0
   16.4050   -8.8691  -15.3246 C   0  0  1  0  0  0  0  0  0  0  0  0
   15.4184   -7.9645  -14.6331 C   0  0  0  0  0  0  0  0  0  0  0  0
   15.8400   -6.5519  -14.6274 C   0  0  0  0  0  0  0  0  0  0  0  0
   16.4860   -6.0078  -13.6994 O   0  0  0  0  0  0  0  0  0  0  0  0
   17.7770   -8.7520  -14.7730 C   0  0  0  0  0  0  0  0  0  0  0  0
   18.0980   -9.2309  -13.6490 O   0  0  0  0  0  0  0  0  0  0  0  0
   15.4955   -5.7766  -15.7259 O   0  0  0  0  0  0  0  0  0  0  0  0
   23.5616   -9.5598  -15.5503 N   0  0  0  0  0  0  0  0  0  0  0  0
   22.3917   -9.0430  -14.8898 C   0  0  0  0  0  0  0  0  0  0  0  0
   22.5427   -8.5600  -13.7239 O   0  0  0  0  0  0  0  0  0  0  0  0
   21.0779   -9.0876  -15.5674 C   0  0  0  0  0  0  0  0  0  0  0  0
   20.1894   -8.0273  -14.9876 C   0  0  2  0  0  0  0  0  0  0  0  0
   18.8343   -8.0873  -15.4779 N   0  0  0  0  0  0  0  0  0  0  0  0
   20.7569   -6.6615  -15.0388 C   0  0  0  0  0  0  0  0  0  0  0  0
   21.7040   -6.1827  -14.1418 O   0  0  0  0  0  0  0  0  0  0  0  0
   20.3919   -5.8519  -15.9271 O   0  0  0  0  0  0  0  0  0  0  0  0
  2  1  1  1
  3  2  1  0
  4  6  1  0
  4  2  1  0
  5  4  2  0
  7  6  1  0
  7 11  1  0
  7  8  1  1
  9  8  1  0
 10  9  2  0
 11 19  1  0
 12 11  2  0
 13  9  1  0
 15 14  1  0
 16 15  2  0
 17 15  1  0
 18 20  1  0
 18 17  1  6
 19 18  1  0
 20 21  1  0
 22 20  2  0
M  END
$$$$
