ADN.pdb
     RDKit          3D

 22 21  0  0  1  0  0  0  0  0999 V2000
   20.4866  -10.7143  -16.6048 C   0  0  0  0  0  0  0  0  0  0  0  0
   19.3214   -9.9393  -16.0332 C   0  0  2  0  0  0  0  0  0  0  0  0
   18.7553   -9.0269  -17.0058 N   0  0  0  0  0  0  0  0  0  0  0  0
   19.7714   -9.2223  -14.8109 C   0  0  0  0  0  0  0  0  0  0  0  0
   20.1536   -9.8054  -13.7645 O   0  0  0  0  0  0  0  0  0  0  0  0
   19.7960   -7.7769  -14.7528 N   0  0  0  0  0  0  0  0  0  0  0  0
   20.1308   -7.0571  -13.5541 C   0  0  1  0  0  0  0  0  0  0  0  0
   20.9721   -5.8369  -13.8244 C   0  0  0  0  0  0  0  0  0  0  0  0
   21.3799   -5.1357  -12.5933 C   0  0  0  0  0  0  0  0  0  0  0  0
   21.4131   -5.6621  -11.4547 O   0  0  0  0  0  0  0  0  0  0  0  0
   18.9033   -6.7493  -12.7803 C   0  0  0  0  0  0  0  0  0  0  0  0
   17.7667   -6.6541  -13.3234 O   0  0  0  0  0  0  0  0  0  0  0  0
   21.7507   -3.8032  -12.7085 O   0  0  0  0  0  0  0  0  0  0  0  0
   15.4910   -6.0069   -9.1069 N   0  0  0  0  0  0  0  0  0  0  0  0
   15.5421   -7.1952   -9.9176 C   0  0  0  0  0  0  0  0  0  0  0  0
   14.5317   -7.9657   -9.8917 O   0  0  0  0  0  0  0  0  0  0  0  0
   16.7391   -7.4818  -10.7374 C   0  0  0  0  0  0  0  0  0  0  0  0
   17.7239   -6.3616  -10.5781 C   0  0  2  0  0  0  0  0  0  0  0  0
   18.9217   -6.5389  -11.3618 N   0  0  0  0  0  0  0  0  0  0  0  0
   18.0082   -5.9953   -9.1727 C   0  0  0  0  0  0  0  0  0  0  0  0
   17.0374   -5.5802   -8.2695 O   0  0  0  0  0  0  0  0  0  0  0  0
   19.1805   -6.0472   -8.7246 O   0  0  0  0  0  0  0  0  0  0  0  0
  2  1  1  6
  3  2  1  0
  4  6  1  0
  4  2  1  0
  5  4  2  0
  7  6  1  0
  7 11  1  0
  7  8  1  6
  9  8  1  0
 10  9  2  0
 11 19  1  0
 12 11  2  0
 13  9  1  0
 15 14  1  0
 16 15  2  0
 17 15  1  0
 18 20  1  0
 18 17  1  1
 19 18  1  0
 20 21  1  0
 22 20  2  0
M  END
$$$$
