ADN.pdb
     RDKit          3D

 22 21  0  0  1  0  0  0  0  0999 V2000
   21.6396  -11.3936  -20.1552 C   0  0  0  0  0  0  0  0  0  0  0  0
   22.2358  -10.7653  -18.9163 C   0  0  2  0  0  0  0  0  0  0  0  0
   22.8790  -11.7510  -18.0715 N   0  0  0  0  0  0  0  0  0  0  0  0
   21.1684  -10.0337  -18.1844 C   0  0  0  0  0  0  0  0  0  0  0  0
   20.5546   -9.0437  -18.6579 O   0  0  0  0  0  0  0  0  0  0  0  0
   20.7639  -10.4276  -16.8523 N   0  0  0  0  0  0  0  0  0  0  0  0
   19.8334   -9.6613  -16.0687 C   0  0  1  0  0  0  0  0  0  0  0  0
   19.0248  -10.5152  -15.1270 C   0  0  0  0  0  0  0  0  0  0  0  0
   18.0312  -11.3542  -15.8216 C   0  0  0  0  0  0  0  0  0  0  0  0
   18.1176  -12.5998  -15.9468 O   0  0  0  0  0  0  0  0  0  0  0  0
   20.5352   -8.5511  -15.3792 C   0  0  0  0  0  0  0  0  0  0  0  0
   21.6826   -8.6887  -14.8689 O   0  0  0  0  0  0  0  0  0  0  0  0
   16.9281  -10.7168  -16.3722 O   0  0  0  0  0  0  0  0  0  0  0  0
   22.0945   -3.9724  -13.8766 N   0  0  0  0  0  0  0  0  0  0  0  0
   22.6777   -4.6992  -14.9738 C   0  0  0  0  0  0  0  0  0  0  0  0
   23.7918   -4.2853  -15.4241 O   0  0  0  0  0  0  0  0  0  0  0  0
   21.9822   -5.8776  -15.5348 C   0  0  0  0  0  0  0  0  0  0  0  0
   20.7061   -6.1013  -14.7789 C   0  0  2  0  0  0  0  0  0  0  0  0
   19.9598   -7.2444  -15.2447 N   0  0  0  0  0  0  0  0  0  0  0  0
   19.8665   -4.8919  -14.6290 C   0  0  0  0  0  0  0  0  0  0  0  0
   18.7995   -4.5820  -15.4634 O   0  0  0  0  0  0  0  0  0  0  0  0
   20.0932   -4.0681  -13.7083 O   0  0  0  0  0  0  0  0  0  0  0  0
  2  1  1  6
  3  2  1  0
  4  6  1  0
  4  2  1  0
  5  4  2  0
  7  6  1  0
  7 11  1  0
  7  8  1  1
  9  8  1  0
 10  9  2  0
 11 19  1  0
 12 11  2  0
 13  9  1  0
 15 14  1  0
 16 15  2  0
 17 15  1  0
 18 20  1  0
 18 17  1  6
 19 18  1  0
 20 21  1  0
 22 20  2  0
M  END
$$$$
