ADN.pdb
     RDKit          3D

 22 21  0  0  1  0  0  0  0  0999 V2000
   15.5015  -14.3712  -15.5292 C   0  0  0  0  0  0  0  0  0  0  0  0
   14.9932  -13.3426  -14.5449 C   0  0  2  0  0  0  0  0  0  0  0  0
   13.7869  -12.6960  -15.0197 N   0  0  0  0  0  0  0  0  0  0  0  0
   16.0720  -12.3549  -14.2783 C   0  0  0  0  0  0  0  0  0  0  0  0
   17.1023  -12.6157  -13.6062 O   0  0  0  0  0  0  0  0  0  0  0  0
   15.9974  -11.0031  -14.7887 N   0  0  0  0  0  0  0  0  0  0  0  0
   16.9812  -10.0029  -14.4746 C   0  0  1  0  0  0  0  0  0  0  0  0
   17.5341   -9.3257  -15.7016 C   0  0  0  0  0  0  0  0  0  0  0  0
   18.4843   -8.2446  -15.3824 C   0  0  0  0  0  0  0  0  0  0  0  0
   18.3865   -7.0666  -15.8034 O   0  0  0  0  0  0  0  0  0  0  0  0
   16.4384   -9.0424  -13.4831 C   0  0  0  0  0  0  0  0  0  0  0  0
   15.3473   -8.4307  -13.6602 O   0  0  0  0  0  0  0  0  0  0  0  0
   19.5577   -8.5579  -14.5602 O   0  0  0  0  0  0  0  0  0  0  0  0
   15.1142   -7.0637   -8.5437 N   0  0  0  0  0  0  0  0  0  0  0  0
   16.4784   -7.0244   -9.0012 C   0  0  0  0  0  0  0  0  0  0  0  0
   17.1978   -6.0504   -8.6151 O   0  0  0  0  0  0  0  0  0  0  0  0
   16.9936   -8.0907   -9.8873 C   0  0  0  0  0  0  0  0  0  0  0  0
   16.6262   -7.7711  -11.3060 C   0  0  2  0  0  0  0  0  0  0  0  0
   17.1143   -8.7421  -12.2544 N   0  0  0  0  0  0  0  0  0  0  0  0
   16.9170   -6.3780  -11.7119 C   0  0  0  0  0  0  0  0  0  0  0  0
   16.0921   -5.2986  -11.4199 O   0  0  0  0  0  0  0  0  0  0  0  0
   17.9583   -6.1063  -12.3597 O   0  0  0  0  0  0  0  0  0  0  0  0
  2  1  1  6
  3  2  1  0
  4  6  1  0
  4  2  1  0
  5  4  2  0
  7  6  1  0
  7 11  1  0
  7  8  1  6
  9  8  1  0
 10  9  2  0
 11 19  1  0
 12 11  2  0
 13  9  1  0
 15 14  1  0
 16 15  2  0
 17 15  1  0
 18 20  1  0
 18 17  1  1
 19 18  1  0
 20 21  1  0
 22 20  2  0
M  END
$$$$
