YGF.pdb
     RDKit          3D

 28 29  0  0  1  0  0  0  0  0999 V2000
   18.4773  -19.9923  -14.3446 O   0  0  0  0  0  0  0  0  0  0  0  0
   19.7422  -19.8966  -13.7857 C   0  0  0  0  0  0  0  0  0  0  0  0
   20.6818  -19.0451  -14.2804 C   0  0  0  0  0  0  0  0  0  0  0  0
   21.9418  -18.9619  -13.7097 C   0  0  0  0  0  0  0  0  0  0  0  0
   22.2695  -19.7470  -12.6205 C   0  0  0  0  0  0  0  0  0  0  0  0
   23.6210  -19.6805  -11.9817 C   0  0  0  0  0  0  0  0  0  0  0  0
   24.5716  -20.3969  -12.9133 C   0  0  2  0  0  0  0  0  0  0  0  0
   24.0841  -21.7564  -13.0591 N   0  0  0  0  0  0  0  0  0  0  0  0
   25.9678  -20.3406  -12.4767 C   0  0  0  0  0  0  0  0  0  0  0  0
   26.5330  -19.2264  -12.3756 O   0  0  0  0  0  0  0  0  0  0  0  0
   21.2886  -20.6045  -12.1406 C   0  0  0  0  0  0  0  0  0  0  0  0
   20.0406  -20.6874  -12.7055 C   0  0  0  0  0  0  0  0  0  0  0  0
   26.7070  -21.5084  -12.1625 N   0  0  0  0  0  0  0  0  0  0  0  0
   28.1087  -21.4689  -11.7968 C   0  0  0  0  0  0  0  0  0  0  0  0
   28.2254  -21.2552  -10.3375 C   0  0  0  0  0  0  0  0  0  0  0  0
   29.3203  -21.5094   -9.7662 O   0  0  0  0  0  0  0  0  0  0  0  0
   27.1799  -20.7786   -9.5252 N   0  0  0  0  0  0  0  0  0  0  0  0
   27.2901  -20.8349   -8.0829 C   0  0  1  0  0  0  0  0  0  0  0  0
   28.2406  -19.7319   -7.6824 C   0  0  0  0  0  0  0  0  0  0  0  0
   28.4451  -19.6130   -6.2366 C   0  0  0  0  0  0  0  0  0  0  0  0
   28.1806  -18.4195   -5.6139 C   0  0  0  0  0  0  0  0  0  0  0  0
   28.3588  -18.2764   -4.2663 C   0  0  0  0  0  0  0  0  0  0  0  0
   28.8148  -19.3695   -3.5414 C   0  0  0  0  0  0  0  0  0  0  0  0
   29.0819  -20.5670   -4.1566 C   0  0  0  0  0  0  0  0  0  0  0  0
   28.8951  -20.6819   -5.5030 C   0  0  0  0  0  0  0  0  0  0  0  0
   25.9781  -20.7588   -7.4195 C   0  0  0  0  0  0  0  0  0  0  0  0
   24.9668  -20.3439   -8.0358 O   0  0  0  0  0  0  0  0  0  0  0  0
   25.8163  -21.1402   -6.1006 O   0  0  0  0  0  0  0  0  0  0  0  0
  2  3  2  0
  2  1  1  0
  4  3  1  0
  5  4  2  0
  6  5  1  0
  7  6  1  0
  7  8  1  1
  9 10  2  0
  9  7  1  0
 11  5  1  0
 11 12  2  0
 12  2  1  0
 13  9  1  0
 14 15  1  0
 14 13  1  0
 15 16  2  0
 17 15  1  0
 17 18  1  0
 18 19  1  1
 19 20  1  0
 20 21  2  0
 21 22  1  0
 23 22  2  0
 24 23  1  0
 25 24  2  0
 25 20  1  0
 26 28  1  0
 26 18  1  0
 27 26  2  0
M  END
$$$$
