YGF.pdb
     RDKit          3D

 28 29  0  0  1  0  0  0  0  0999 V2000
   21.3428  -18.1418  -20.4002 O   0  0  0  0  0  0  0  0  0  0  0  0
   21.3707  -18.7811  -19.1706 C   0  0  0  0  0  0  0  0  0  0  0  0
   22.2327  -19.8026  -18.9132 C   0  0  0  0  0  0  0  0  0  0  0  0
   22.2475  -20.4309  -17.6783 C   0  0  0  0  0  0  0  0  0  0  0  0
   21.3816  -20.0293  -16.6787 C   0  0  0  0  0  0  0  0  0  0  0  0
   21.3730  -20.6873  -15.3349 C   0  0  0  0  0  0  0  0  0  0  0  0
   22.3158  -19.8916  -14.4615 C   0  0  2  0  0  0  0  0  0  0  0  0
   23.6392  -20.0045  -15.0470 N   0  0  0  0  0  0  0  0  0  0  0  0
   22.2841  -20.2929  -13.0539 C   0  0  0  0  0  0  0  0  0  0  0  0
   21.2313  -20.7809  -12.5802 O   0  0  0  0  0  0  0  0  0  0  0  0
   20.5157  -18.9849  -16.9737 C   0  0  0  0  0  0  0  0  0  0  0  0
   20.5006  -18.3622  -18.1967 C   0  0  0  0  0  0  0  0  0  0  0  0
   23.4086  -20.1481  -12.2033 N   0  0  0  0  0  0  0  0  0  0  0  0
   23.3846  -20.5344  -10.8068 C   0  0  0  0  0  0  0  0  0  0  0  0
   24.6898  -20.2111  -10.1896 C   0  0  0  0  0  0  0  0  0  0  0  0
   25.6168  -19.7612  -10.9161 O   0  0  0  0  0  0  0  0  0  0  0  0
   24.9759  -20.3735   -8.8215 N   0  0  0  0  0  0  0  0  0  0  0  0
   26.3108  -20.1267   -8.3188 C   0  0  1  0  0  0  0  0  0  0  0  0
   26.2456  -20.3104   -6.8214 C   0  0  0  0  0  0  0  0  0  0  0  0
   27.4940  -19.9924   -6.1240 C   0  0  0  0  0  0  0  0  0  0  0  0
   27.8274  -18.6802   -5.9022 C   0  0  0  0  0  0  0  0  0  0  0  0
   28.9838  -18.3500   -5.2527 C   0  0  0  0  0  0  0  0  0  0  0  0
   29.8145  -19.3760   -4.8219 C   0  0  0  0  0  0  0  0  0  0  0  0
   29.4885  -20.6913   -5.0396 C   0  0  0  0  0  0  0  0  0  0  0  0
   28.3281  -20.9923   -5.6905 C   0  0  0  0  0  0  0  0  0  0  0  0
   27.3204  -20.9716   -8.9779 C   0  0  0  0  0  0  0  0  0  0  0  0
   27.0690  -22.1648   -9.2740 O   0  0  0  0  0  0  0  0  0  0  0  0
   28.5742  -20.4811   -9.2914 O   0  0  0  0  0  0  0  0  0  0  0  0
  2  3  2  0
  2  1  1  0
  4  3  1  0
  5  4  2  0
  6  5  1  0
  7  6  1  0
  7  8  1  6
  9 10  2  0
  9  7  1  0
 11  5  1  0
 11 12  2  0
 12  2  1  0
 13  9  1  0
 14 15  1  0
 14 13  1  0
 15 16  2  0
 17 15  1  0
 17 18  1  0
 18 19  1  1
 19 20  1  0
 20 21  2  0
 21 22  1  0
 23 22  2  0
 24 23  1  0
 25 24  2  0
 25 20  1  0
 26 28  1  0
 26 18  1  0
 27 26  2  0
M  END
$$$$
