YGF.pdb
     RDKit          3D

 28 29  0  0  1  0  0  0  0  0999 V2000
   28.2758   -5.4948  -22.9505 O   0  0  0  0  0  0  0  0  0  0  0  0
   27.4501   -6.5722  -22.6696 C   0  0  0  0  0  0  0  0  0  0  0  0
   26.2348   -6.4090  -22.0788 C   0  0  0  0  0  0  0  0  0  0  0  0
   25.4217   -7.4971  -21.8049 C   0  0  0  0  0  0  0  0  0  0  0  0
   25.8324   -8.7764  -22.1288 C   0  0  0  0  0  0  0  0  0  0  0  0
   24.9777   -9.9716  -21.8462 C   0  0  0  0  0  0  0  0  0  0  0  0
   25.2667  -10.3779  -20.4191 C   0  0  2  0  0  0  0  0  0  0  0  0
   26.6407  -10.8443  -20.3772 N   0  0  0  0  0  0  0  0  0  0  0  0
   24.3194  -11.3609  -19.8904 C   0  0  0  0  0  0  0  0  0  0  0  0
   24.6896  -12.5491  -19.7417 O   0  0  0  0  0  0  0  0  0  0  0  0
   27.0768   -8.9080  -22.7302 C   0  0  0  0  0  0  0  0  0  0  0  0
   27.8826   -7.8307  -23.0017 C   0  0  0  0  0  0  0  0  0  0  0  0
   22.9908  -11.0140  -19.5388 N   0  0  0  0  0  0  0  0  0  0  0  0
   22.0376  -11.9850  -19.0403 C   0  0  0  0  0  0  0  0  0  0  0  0
   21.2886  -12.5610  -20.1788 C   0  0  0  0  0  0  0  0  0  0  0  0
   21.4948  -12.1115  -21.3386 O   0  0  0  0  0  0  0  0  0  0  0  0
   20.3431  -13.5960  -20.0568 N   0  0  0  0  0  0  0  0  0  0  0  0
   19.6966  -14.1388  -21.2328 C   0  0  1  0  0  0  0  0  0  0  0  0
   20.7684  -14.8562  -22.0183 C   0  0  0  0  0  0  0  0  0  0  0  0
   21.2255  -16.1056  -21.4049 C   0  0  0  0  0  0  0  0  0  0  0  0
   22.3498  -16.0990  -20.6186 C   0  0  0  0  0  0  0  0  0  0  0  0
   22.8013  -17.2471  -20.0301 C   0  0  0  0  0  0  0  0  0  0  0  0
   22.0939  -18.4221  -20.2475 C   0  0  0  0  0  0  0  0  0  0  0  0
   20.9683  -18.4374  -21.0327 C   0  0  0  0  0  0  0  0  0  0  0  0
   20.5400  -17.2769  -21.6078 C   0  0  0  0  0  0  0  0  0  0  0  0
   18.5409  -14.9855  -20.8937 C   0  0  0  0  0  0  0  0  0  0  0  0
   18.3060  -15.3100  -19.7045 O   0  0  0  0  0  0  0  0  0  0  0  0
   17.6791  -15.4497  -21.8698 O   0  0  0  0  0  0  0  0  0  0  0  0
  2  3  2  0
  2  1  1  0
  4  3  1  0
  5  4  2  0
  6  5  1  0
  7  6  1  0
  7  8  1  6
  9 10  2  0
  9  7  1  0
 11  5  1  0
 11 12  2  0
 12  2  1  0
 13  9  1  0
 14 15  1  0
 14 13  1  0
 15 16  2  0
 17 15  1  0
 17 18  1  0
 18 19  1  1
 19 20  1  0
 20 21  2  0
 21 22  1  0
 23 22  2  0
 24 23  1  0
 25 24  2  0
 25 20  1  0
 26 28  1  0
 26 18  1  0
 27 26  2  0
M  END
$$$$
