YGF.pdb
     RDKit          3D

 28 29  0  0  1  0  0  0  0  0999 V2000
   23.7286  -13.4584  -24.9819 O   0  0  0  0  0  0  0  0  0  0  0  0
   24.2584  -12.3812  -24.2888 C   0  0  0  0  0  0  0  0  0  0  0  0
   25.6009  -12.2188  -24.1340 C   0  0  0  0  0  0  0  0  0  0  0  0
   26.1139  -11.1359  -23.4381 C   0  0  0  0  0  0  0  0  0  0  0  0
   25.2663  -10.1948  -22.8849 C   0  0  0  0  0  0  0  0  0  0  0  0
   25.7890   -9.0146  -22.1279 C   0  0  0  0  0  0  0  0  0  0  0  0
   25.9777   -9.4706  -20.6992 C   0  0  2  0  0  0  0  0  0  0  0  0
   27.0114  -10.4897  -20.7086 N   0  0  0  0  0  0  0  0  0  0  0  0
   24.7395   -9.9269  -20.0652 C   0  0  0  0  0  0  0  0  0  0  0  0
   24.6320  -11.1290  -19.7271 O   0  0  0  0  0  0  0  0  0  0  0  0
   23.9031  -10.3900  -23.0611 C   0  0  0  0  0  0  0  0  0  0  0  0
   23.3943  -11.4623  -23.7502 C   0  0  0  0  0  0  0  0  0  0  0  0
   23.6519   -9.0519  -19.8191 N   0  0  0  0  0  0  0  0  0  0  0  0
   22.3981   -9.5070  -19.2527 C   0  0  0  0  0  0  0  0  0  0  0  0
   22.4495   -9.3673  -17.7806 C   0  0  0  0  0  0  0  0  0  0  0  0
   22.2845  -10.3898  -17.0616 O   0  0  0  0  0  0  0  0  0  0  0  0
   22.6741   -8.1495  -17.1124 N   0  0  0  0  0  0  0  0  0  0  0  0
   22.6621   -8.0956  -15.6659 C   0  0  1  0  0  0  0  0  0  0  0  0
   24.0496   -7.6776  -15.2411 C   0  0  0  0  0  0  0  0  0  0  0  0
   25.1069   -8.6035  -15.6544 C   0  0  0  0  0  0  0  0  0  0  0  0
   25.8436   -8.3277  -16.7785 C   0  0  0  0  0  0  0  0  0  0  0  0
   26.8384   -9.1700  -17.1898 C   0  0  0  0  0  0  0  0  0  0  0  0
   27.0861  -10.3133  -16.4416 C   0  0  0  0  0  0  0  0  0  0  0  0
   26.3539  -10.5966  -15.3158 C   0  0  0  0  0  0  0  0  0  0  0  0
   25.3669   -9.7385  -14.9282 C   0  0  0  0  0  0  0  0  0  0  0  0
   21.5943   -7.2238  -15.1488 C   0  0  0  0  0  0  0  0  0  0  0  0
   20.9502   -6.4683  -15.9162 O   0  0  0  0  0  0  0  0  0  0  0  0
   21.2667   -7.2080  -13.8059 O   0  0  0  0  0  0  0  0  0  0  0  0
  2  3  2  0
  2  1  1  0
  4  3  1  0
  5  4  2  0
  6  5  1  0
  7  6  1  0
  7  8  1  6
  9 10  2  0
  9  7  1  0
 11  5  1  0
 11 12  2  0
 12  2  1  0
 13  9  1  0
 14 15  1  0
 14 13  1  0
 15 16  2  0
 17 15  1  0
 17 18  1  0
 18 19  1  6
 19 20  1  0
 20 21  2  0
 21 22  1  0
 23 22  2  0
 24 23  1  0
 25 24  2  0
 25 20  1  0
 26 28  1  0
 26 18  1  0
 27 26  2  0
M  END
$$$$
