YGF.pdb
     RDKit          3D

 28 29  0  0  1  0  0  0  0  0999 V2000
   17.8785  -19.2002  -14.7480 O   0  0  0  0  0  0  0  0  0  0  0  0
   19.1071  -19.7974  -14.5129 C   0  0  0  0  0  0  0  0  0  0  0  0
   20.0349  -19.9403  -15.4985 C   0  0  0  0  0  0  0  0  0  0  0  0
   21.2585  -20.5398  -15.2464 C   0  0  0  0  0  0  0  0  0  0  0  0
   21.5612  -21.0067  -13.9812 C   0  0  0  0  0  0  0  0  0  0  0  0
   22.8733  -21.6585  -13.6770 C   0  0  0  0  0  0  0  0  0  0  0  0
   23.7410  -20.5984  -13.0380 C   0  0  2  0  0  0  0  0  0  0  0  0
   24.1139  -19.6634  -14.0839 N   0  0  0  0  0  0  0  0  0  0  0  0
   24.8992  -21.1441  -12.3280 C   0  0  0  0  0  0  0  0  0  0  0  0
   25.8893  -21.5410  -12.9863 O   0  0  0  0  0  0  0  0  0  0  0  0
   20.5933  -20.8454  -12.9990 C   0  0  0  0  0  0  0  0  0  0  0  0
   19.3813  -20.2517  -13.2481 C   0  0  0  0  0  0  0  0  0  0  0  0
   24.9403  -21.2400  -10.9145 N   0  0  0  0  0  0  0  0  0  0  0  0
   25.9423  -22.0189  -10.2148 C   0  0  0  0  0  0  0  0  0  0  0  0
   27.1998  -21.2426  -10.1429 C   0  0  0  0  0  0  0  0  0  0  0  0
   27.2777  -20.1436  -10.7559 O   0  0  0  0  0  0  0  0  0  0  0  0
   28.3381  -21.6521   -9.4243 N   0  0  0  0  0  0  0  0  0  0  0  0
   29.5636  -20.8849   -9.4959 C   0  0  1  0  0  0  0  0  0  0  0  0
   29.3407  -19.6428   -8.6663 C   0  0  0  0  0  0  0  0  0  0  0  0
   28.8365  -19.9067   -7.3164 C   0  0  0  0  0  0  0  0  0  0  0  0
   29.7253  -20.0690   -6.2841 C   0  0  0  0  0  0  0  0  0  0  0  0
   29.2873  -20.3141   -5.0128 C   0  0  0  0  0  0  0  0  0  0  0  0
   27.9189  -20.3950   -4.7907 C   0  0  0  0  0  0  0  0  0  0  0  0
   27.0229  -20.2338   -5.8178 C   0  0  0  0  0  0  0  0  0  0  0  0
   27.4878  -19.9902   -7.0768 C   0  0  0  0  0  0  0  0  0  0  0  0
   30.7389  -21.6708   -9.0853 C   0  0  0  0  0  0  0  0  0  0  0  0
   30.6169  -22.8564   -8.6928 O   0  0  0  0  0  0  0  0  0  0  0  0
   32.0113  -21.1314   -9.1180 O   0  0  0  0  0  0  0  0  0  0  0  0
  2  3  2  0
  2  1  1  0
  4  3  1  0
  5  4  2  0
  6  5  1  0
  7  6  1  0
  7  8  1  6
  9 10  2  0
  9  7  1  0
 11  5  1  0
 11 12  2  0
 12  2  1  0
 13  9  1  0
 14 15  1  0
 14 13  1  0
 15 16  2  0
 17 15  1  0
 17 18  1  0
 18 19  1  1
 19 20  1  0
 20 21  2  0
 21 22  1  0
 23 22  2  0
 24 23  1  0
 25 24  2  0
 25 20  1  0
 26 28  1  0
 26 18  1  0
 27 26  2  0
M  END
$$$$
