YGF.pdb
     RDKit          3D

 28 29  0  0  1  0  0  0  0  0999 V2000
   16.9933  -11.1007  -17.1595 O   0  0  0  0  0  0  0  0  0  0  0  0
   17.4849  -10.5173  -18.3168 C   0  0  0  0  0  0  0  0  0  0  0  0
   17.5457  -11.1994  -19.4932 C   0  0  0  0  0  0  0  0  0  0  0  0
   18.0401  -10.6010  -20.6411 C   0  0  0  0  0  0  0  0  0  0  0  0
   18.4833   -9.2922  -20.6124 C   0  0  0  0  0  0  0  0  0  0  0  0
   19.0224   -8.6179  -21.8346 C   0  0  0  0  0  0  0  0  0  0  0  0
   20.4874   -8.9818  -21.9144 C   0  0  2  0  0  0  0  0  0  0  0  0
   20.5646  -10.4290  -21.9982 N   0  0  0  0  0  0  0  0  0  0  0  0
   21.2837   -8.4359  -20.8139 C   0  0  0  0  0  0  0  0  0  0  0  0
   22.0697   -9.1904  -20.1942 O   0  0  0  0  0  0  0  0  0  0  0  0
   18.4075   -8.6251  -19.3972 C   0  0  0  0  0  0  0  0  0  0  0  0
   17.9180   -9.2172  -18.2599 C   0  0  0  0  0  0  0  0  0  0  0  0
   21.1967   -7.0764  -20.4226 N   0  0  0  0  0  0  0  0  0  0  0  0
   22.0289   -6.5105  -19.3798 C   0  0  0  0  0  0  0  0  0  0  0  0
   21.4036   -6.7688  -18.0640 C   0  0  0  0  0  0  0  0  0  0  0  0
   20.3408   -7.4452  -18.0124 O   0  0  0  0  0  0  0  0  0  0  0  0
   21.9212   -6.3035  -16.8410 N   0  0  0  0  0  0  0  0  0  0  0  0
   21.2126   -6.5542  -15.6039 C   0  0  1  0  0  0  0  0  0  0  0  0
   22.2445   -7.0246  -14.6067 C   0  0  0  0  0  0  0  0  0  0  0  0
   21.7195   -7.2339  -13.2552 C   0  0  0  0  0  0  0  0  0  0  0  0
   21.5683   -8.5122  -12.7807 C   0  0  0  0  0  0  0  0  0  0  0  0
   21.0833   -8.7415  -11.5236 C   0  0  0  0  0  0  0  0  0  0  0  0
   20.7468   -7.6479  -10.7367 C   0  0  0  0  0  0  0  0  0  0  0  0
   20.8950   -6.3658  -11.2037 C   0  0  0  0  0  0  0  0  0  0  0  0
   21.3814   -6.1660  -12.4624 C   0  0  0  0  0  0  0  0  0  0  0  0
   20.4427   -5.3825  -15.1545 C   0  0  0  0  0  0  0  0  0  0  0  0
   19.5144   -5.5026  -14.3187 O   0  0  0  0  0  0  0  0  0  0  0  0
   20.7153   -4.1157  -15.6360 O   0  0  0  0  0  0  0  0  0  0  0  0
  2  3  2  0
  2  1  1  0
  4  3  1  0
  5  4  2  0
  6  5  1  0
  7  6  1  0
  7  8  1  1
  9 10  2  0
  9  7  1  0
 11  5  1  0
 11 12  2  0
 12  2  1  0
 13  9  1  0
 14 15  1  0
 14 13  1  0
 15 16  2  0
 17 15  1  0
 17 18  1  0
 18 19  1  1
 19 20  1  0
 20 21  2  0
 21 22  1  0
 23 22  2  0
 24 23  1  0
 25 24  2  0
 25 20  1  0
 26 28  1  0
 26 18  1  0
 27 26  2  0
M  END
$$$$
