YGF.pdb
     RDKit          3D

 28 29  0  0  1  0  0  0  0  0999 V2000
   20.9075  -22.4705  -19.3308 O   0  0  0  0  0  0  0  0  0  0  0  0
   21.5353  -21.7386  -18.3350 C   0  0  0  0  0  0  0  0  0  0  0  0
   21.1674  -20.4606  -18.0447 C   0  0  0  0  0  0  0  0  0  0  0  0
   21.8057  -19.7429  -17.0459 C   0  0  0  0  0  0  0  0  0  0  0  0
   22.8342  -20.3152  -16.3214 C   0  0  0  0  0  0  0  0  0  0  0  0
   23.5431  -19.5667  -15.2369 C   0  0  0  0  0  0  0  0  0  0  0  0
   22.8893  -19.9743  -13.9364 C   0  0  2  0  0  0  0  0  0  0  0  0
   21.4759  -19.6644  -14.0527 N   0  0  0  0  0  0  0  0  0  0  0  0
   23.5069  -19.3637  -12.7578 C   0  0  0  0  0  0  0  0  0  0  0  0
   23.0972  -18.2475  -12.3611 O   0  0  0  0  0  0  0  0  0  0  0  0
   23.1846  -21.6197  -16.6426 C   0  0  0  0  0  0  0  0  0  0  0  0
   22.5528  -22.3311  -17.6317 C   0  0  0  0  0  0  0  0  0  0  0  0
   24.5578  -19.9941  -12.0457 N   0  0  0  0  0  0  0  0  0  0  0  0
   25.1952  -19.3849  -10.8956 C   0  0  0  0  0  0  0  0  0  0  0  0
   25.9314  -20.4226  -10.1404 C   0  0  0  0  0  0  0  0  0  0  0  0
   25.8551  -21.6238  -10.5156 O   0  0  0  0  0  0  0  0  0  0  0  0
   26.7268  -20.1586   -9.0101 N   0  0  0  0  0  0  0  0  0  0  0  0
   27.0781  -21.2259   -8.0973 C   0  0  1  0  0  0  0  0  0  0  0  0
   28.4047  -20.8458   -7.4839 C   0  0  0  0  0  0  0  0  0  0  0  0
   28.2927  -20.0236   -6.2766 C   0  0  0  0  0  0  0  0  0  0  0  0
   28.3449  -20.6243   -5.0442 C   0  0  0  0  0  0  0  0  0  0  0  0
   28.2456  -19.8855   -3.8986 C   0  0  0  0  0  0  0  0  0  0  0  0
   28.0905  -18.5102   -4.0120 C   0  0  0  0  0  0  0  0  0  0  0  0
   28.0373  -17.9014   -5.2409 C   0  0  0  0  0  0  0  0  0  0  0  0
   28.1390  -18.6630   -6.3680 C   0  0  0  0  0  0  0  0  0  0  0  0
   26.0189  -21.4859   -7.1085 C   0  0  0  0  0  0  0  0  0  0  0  0
   25.0238  -20.7271   -7.0145 O   0  0  0  0  0  0  0  0  0  0  0  0
   26.0843  -22.5702   -6.2535 O   0  0  0  0  0  0  0  0  0  0  0  0
  2  3  2  0
  2  1  1  0
  4  3  1  0
  5  4  2  0
  6  5  1  0
  7  6  1  0
  7  8  1  6
  9 10  2  0
  9  7  1  0
 11  5  1  0
 11 12  2  0
 12  2  1  0
 13  9  1  0
 14 15  1  0
 14 13  1  0
 15 16  2  0
 17 15  1  0
 17 18  1  0
 18 19  1  1
 19 20  1  0
 20 21  2  0
 21 22  1  0
 23 22  2  0
 24 23  1  0
 25 24  2  0
 25 20  1  0
 26 28  1  0
 26 18  1  0
 27 26  2  0
M  END
$$$$
