YGF.pdb
     RDKit          3D

 28 29  0  0  1  0  0  0  0  0999 V2000
   19.9992  -20.7194  -18.2563 O   0  0  0  0  0  0  0  0  0  0  0  0
   20.7545  -20.6512  -17.0960 C   0  0  0  0  0  0  0  0  0  0  0  0
   21.1432  -19.4607  -16.5628 C   0  0  0  0  0  0  0  0  0  0  0  0
   21.8981  -19.4103  -15.4019 C   0  0  0  0  0  0  0  0  0  0  0  0
   22.2727  -20.5756  -14.7600 C   0  0  0  0  0  0  0  0  0  0  0  0
   23.0875  -20.5548  -13.5052 C   0  0  0  0  0  0  0  0  0  0  0  0
   24.5022  -20.2182  -13.9178 C   0  0  2  0  0  0  0  0  0  0  0  0
   24.9765  -21.3097  -14.7489 N   0  0  0  0  0  0  0  0  0  0  0  0
   25.3889  -19.9426  -12.7859 C   0  0  0  0  0  0  0  0  0  0  0  0
   25.0972  -19.0187  -11.9908 O   0  0  0  0  0  0  0  0  0  0  0  0
   21.8600  -21.7725  -15.3299 C   0  0  0  0  0  0  0  0  0  0  0  0
   21.1123  -21.8230  -16.4796 C   0  0  0  0  0  0  0  0  0  0  0  0
   26.5723  -20.6883  -12.5565 N   0  0  0  0  0  0  0  0  0  0  0  0
   27.4434  -20.4395  -11.4254 C   0  0  0  0  0  0  0  0  0  0  0  0
   26.7690  -20.8815  -10.1849 C   0  0  0  0  0  0  0  0  0  0  0  0
   26.3101  -22.0541  -10.1210 O   0  0  0  0  0  0  0  0  0  0  0  0
   26.5999  -20.0695   -9.0482 N   0  0  0  0  0  0  0  0  0  0  0  0
   25.7775  -20.5180   -7.9445 C   0  0  1  0  0  0  0  0  0  0  0  0
   26.1281  -19.6421   -6.7654 C   0  0  0  0  0  0  0  0  0  0  0  0
   27.4758  -19.8627   -6.2352 C   0  0  0  0  0  0  0  0  0  0  0  0
   28.4016  -18.8526   -6.3044 C   0  0  0  0  0  0  0  0  0  0  0  0
   29.6668  -19.0255   -5.8170 C   0  0  0  0  0  0  0  0  0  0  0  0
   29.9933  -20.2499   -5.2491 C   0  0  0  0  0  0  0  0  0  0  0  0
   29.0731  -21.2657   -5.1758 C   0  0  0  0  0  0  0  0  0  0  0  0
   27.8176  -21.0657   -5.6702 C   0  0  0  0  0  0  0  0  0  0  0  0
   24.3440  -20.5170   -8.2802 C   0  0  0  0  0  0  0  0  0  0  0  0
   23.9216  -19.9259   -9.3033 O   0  0  0  0  0  0  0  0  0  0  0  0
   23.4188  -21.1645   -7.4829 O   0  0  0  0  0  0  0  0  0  0  0  0
  2  3  2  0
  2  1  1  0
  4  3  1  0
  5  4  2  0
  6  5  1  0
  7  6  1  0
  7  8  1  1
  9 10  2  0
  9  7  1  0
 11  5  1  0
 11 12  2  0
 12  2  1  0
 13  9  1  0
 14 15  1  0
 14 13  1  0
 15 16  2  0
 17 15  1  0
 17 18  1  0
 18 19  1  1
 19 20  1  0
 20 21  2  0
 21 22  1  0
 23 22  2  0
 24 23  1  0
 25 24  2  0
 25 20  1  0
 26 28  1  0
 26 18  1  0
 27 26  2  0
M  END
$$$$
