YGF.pdb
     RDKit          3D

 28 29  0  0  1  0  0  0  0  0999 V2000
   16.7742  -22.3179  -14.4909 O   0  0  0  0  0  0  0  0  0  0  0  0
   17.9971  -22.0508  -13.8955 C   0  0  0  0  0  0  0  0  0  0  0  0
   18.6198  -22.9609  -13.0976 C   0  0  0  0  0  0  0  0  0  0  0  0
   19.8423  -22.6777  -12.5100 C   0  0  0  0  0  0  0  0  0  0  0  0
   20.4558  -21.4579  -12.7247 C   0  0  0  0  0  0  0  0  0  0  0  0
   21.7755  -21.1218  -12.1047 C   0  0  0  0  0  0  0  0  0  0  0  0
   22.7516  -20.9418  -13.2448 C   0  0  2  0  0  0  0  0  0  0  0  0
   22.8064  -22.2017  -13.9638 N   0  0  0  0  0  0  0  0  0  0  0  0
   24.0719  -20.4792  -12.8133 C   0  0  0  0  0  0  0  0  0  0  0  0
   24.1755  -19.3650  -12.2484 O   0  0  0  0  0  0  0  0  0  0  0  0
   19.7942  -20.5525  -13.5433 C   0  0  0  0  0  0  0  0  0  0  0  0
   18.5834  -20.8324  -14.1255 C   0  0  0  0  0  0  0  0  0  0  0  0
   25.2436  -21.2512  -13.0131 N   0  0  0  0  0  0  0  0  0  0  0  0
   26.5570  -20.7948  -12.6048 C   0  0  0  0  0  0  0  0  0  0  0  0
   26.7575  -21.1072  -11.1726 C   0  0  0  0  0  0  0  0  0  0  0  0
   27.0200  -22.2933  -10.8348 O   0  0  0  0  0  0  0  0  0  0  0  0
   26.6745  -20.1553  -10.1397 N   0  0  0  0  0  0  0  0  0  0  0  0
   26.9995  -20.5233   -8.7778 C   0  0  1  0  0  0  0  0  0  0  0  0
   27.8391  -19.3992   -8.2190 C   0  0  0  0  0  0  0  0  0  0  0  0
   28.1907  -19.5596   -6.8060 C   0  0  0  0  0  0  0  0  0  0  0  0
   29.2059  -20.4137   -6.4563 C   0  0  0  0  0  0  0  0  0  0  0  0
   29.5600  -20.5842   -5.1472 C   0  0  0  0  0  0  0  0  0  0  0  0
   28.8666  -19.8712   -4.1781 C   0  0  0  0  0  0  0  0  0  0  0  0
   27.8498  -19.0148   -4.5193 C   0  0  0  0  0  0  0  0  0  0  0  0
   27.5173  -18.8638   -5.8336 C   0  0  0  0  0  0  0  0  0  0  0  0
   25.7996  -20.8226   -7.9790 C   0  0  0  0  0  0  0  0  0  0  0  0
   25.8847  -21.4588   -6.9008 O   0  0  0  0  0  0  0  0  0  0  0  0
   24.5438  -20.4146   -8.3881 O   0  0  0  0  0  0  0  0  0  0  0  0
  2  3  2  0
  2  1  1  0
  4  3  1  0
  5  4  2  0
  6  5  1  0
  7  6  1  0
  7  8  1  1
  9 10  2  0
  9  7  1  0
 11  5  1  0
 11 12  2  0
 12  2  1  0
 13  9  1  0
 14 15  1  0
 14 13  1  0
 15 16  2  0
 17 15  1  0
 17 18  1  0
 18 19  1  1
 19 20  1  0
 20 21  2  0
 21 22  1  0
 23 22  2  0
 24 23  1  0
 25 24  2  0
 25 20  1  0
 26 28  1  0
 26 18  1  0
 27 26  2  0
M  END
$$$$
