YLT.pdb
     RDKit          3D

 28 28  0  0  1  0  0  0  0  0999 V2000
   21.4144  -14.6712  -19.0991 O   0  0  0  0  0  0  0  0  0  0  0  0
   20.7527  -13.5796  -18.5183 C   0  0  0  0  0  0  0  0  0  0  0  0
   21.2693  -13.0002  -17.3785 C   0  0  0  0  0  0  0  0  0  0  0  0
   20.5662  -11.9196  -16.8497 C   0  0  0  0  0  0  0  0  0  0  0  0
   19.4104  -11.4530  -17.4380 C   0  0  0  0  0  0  0  0  0  0  0  0
   18.6826  -10.3168  -16.8724 C   0  0  0  0  0  0  0  0  0  0  0  0
   17.7664  -10.6344  -15.7398 C   0  0  2  0  0  0  0  0  0  0  0  0
   16.7178  -11.5579  -16.0954 N   0  0  0  0  0  0  0  0  0  0  0  0
   17.1429   -9.4126  -15.1879 C   0  0  0  0  0  0  0  0  0  0  0  0
   16.0364   -9.0201  -15.6760 O   0  0  0  0  0  0  0  0  0  0  0  0
   18.9131  -12.0461  -18.5745 C   0  0  0  0  0  0  0  0  0  0  0  0
   19.5960  -13.1126  -19.1069 C   0  0  0  0  0  0  0  0  0  0  0  0
   16.8218   -8.1215   -9.8429 C   0  0  0  0  0  0  0  0  0  0  0  0
   16.5180   -8.3969  -11.3248 C   0  0  1  0  0  0  0  0  0  0  0  0
   15.0292   -8.2478  -11.5788 C   0  0  0  0  0  0  0  0  0  0  0  0
   17.2931   -7.3892  -12.1010 C   0  0  0  0  0  0  0  0  0  0  0  0
   17.0700   -7.5335  -13.5984 C   0  0  2  0  0  0  0  0  0  0  0  0
   17.7478   -8.6832  -14.1423 N   0  0  0  0  0  0  0  0  0  0  0  0
   17.6632   -6.3088  -14.2036 C   0  0  0  0  0  0  0  0  0  0  0  0
   18.8973   -6.2338  -14.3304 O   0  0  0  0  0  0  0  0  0  0  0  0
   17.0457   -2.3871  -17.0576 C   0  0  0  0  0  0  0  0  0  0  0  0
   16.5170   -3.6402  -16.4058 C   0  0  1  0  0  0  0  0  0  0  0  0
   16.3425   -4.6814  -17.3090 O   0  0  0  0  0  0  0  0  0  0  0  0
   17.4340   -4.0985  -15.2822 C   0  0  2  0  0  0  0  0  0  0  0  0
   16.8491   -5.2409  -14.6319 N   0  0  0  0  0  0  0  0  0  0  0  0
   17.6325   -2.9720  -14.3338 C   0  0  0  0  0  0  0  0  0  0  0  0
   18.6294   -2.0393  -14.5153 O   0  0  0  0  0  0  0  0  0  0  0  0
   16.8654   -2.8818  -13.3486 O   0  0  0  0  0  0  0  0  0  0  0  0
  2  1  1  0
  3  2  2  0
  4  3  1  0
  5 11  1  0
  5  4  2  0
  6  5  1  0
  7  6  1  0
  7  8  1  6
  9  7  1  0
  9 10  2  0
 11 12  2  0
 12  2  1  0
 14 13  1  1
 14 15  1  0
 16 14  1  0
 17 16  1  1
 17 18  1  0
 18  9  1  0
 19 17  1  0
 20 19  2  0
 22 23  1  0
 22 21  1  6
 24 22  1  0
 24 25  1  1
 25 19  1  0
 26 27  1  0
 26 24  1  0
 28 26  2  0
M  END
$$$$
