YLT.pdb
     RDKit          3D

 28 28  0  0  1  0  0  0  0  0999 V2000
   25.4011  -33.3865  -20.3120 O   0  0  0  0  0  0  0  0  0  0  0  0
   25.7383  -32.2339  -19.5876 C   0  0  0  0  0  0  0  0  0  0  0  0
   25.2187  -32.0499  -18.3235 C   0  0  0  0  0  0  0  0  0  0  0  0
   25.5913  -30.8852  -17.6552 C   0  0  0  0  0  0  0  0  0  0  0  0
   26.4381  -29.9624  -18.2306 C   0  0  0  0  0  0  0  0  0  0  0  0
   26.8216  -28.7442  -17.5170 C   0  0  0  0  0  0  0  0  0  0  0  0
   28.2068  -28.7263  -16.9656 C   0  0  2  0  0  0  0  0  0  0  0  0
   28.4022  -29.6578  -15.8826 N   0  0  0  0  0  0  0  0  0  0  0  0
   28.5846  -27.3773  -16.4927 C   0  0  0  0  0  0  0  0  0  0  0  0
   28.2339  -27.0216  -15.3235 O   0  0  0  0  0  0  0  0  0  0  0  0
   26.9445  -30.1664  -19.4926 C   0  0  0  0  0  0  0  0  0  0  0  0
   26.5856  -31.3104  -20.1632 C   0  0  0  0  0  0  0  0  0  0  0  0
   33.5031  -25.0957  -17.0760 C   0  0  0  0  0  0  0  0  0  0  0  0
   32.1538  -25.6475  -16.5870 C   0  0  1  0  0  0  0  0  0  0  0  0
   32.0807  -25.5552  -15.0739 C   0  0  0  0  0  0  0  0  0  0  0  0
   31.1053  -24.8014  -17.2222 C   0  0  0  0  0  0  0  0  0  0  0  0
   29.7072  -25.2047  -16.7804 C   0  0  2  0  0  0  0  0  0  0  0  0
   29.3179  -26.4884  -17.3072 N   0  0  0  0  0  0  0  0  0  0  0  0
   28.8012  -24.1690  -17.3501 C   0  0  0  0  0  0  0  0  0  0  0  0
   28.3319  -24.3362  -18.4887 O   0  0  0  0  0  0  0  0  0  0  0  0
   27.3471  -21.1361  -14.8456 C   0  0  0  0  0  0  0  0  0  0  0  0
   26.5883  -21.6089  -16.0602 C   0  0  1  0  0  0  0  0  0  0  0  0
   25.7263  -20.6424  -16.5633 O   0  0  0  0  0  0  0  0  0  0  0  0
   27.5413  -22.0529  -17.1593 C   0  0  2  0  0  0  0  0  0  0  0  0
   28.4709  -23.0095  -16.6199 N   0  0  0  0  0  0  0  0  0  0  0  0
   28.2394  -20.8586  -17.7020 C   0  0  0  0  0  0  0  0  0  0  0  0
   27.5783  -19.9119  -18.4525 O   0  0  0  0  0  0  0  0  0  0  0  0
   29.4607  -20.7235  -17.4621 O   0  0  0  0  0  0  0  0  0  0  0  0
  2  1  1  0
  3  2  2  0
  4  3  1  0
  5 11  1  0
  5  4  2  0
  6  5  1  0
  7  6  1  0
  7  8  1  1
  9  7  1  0
  9 10  2  0
 11 12  2  0
 12  2  1  0
 14 13  1  6
 14 15  1  0
 16 14  1  0
 17 16  1  6
 17 18  1  0
 18  9  1  0
 19 17  1  0
 20 19  2  0
 22 23  1  0
 22 21  1  1
 24 22  1  0
 24 25  1  1
 25 19  1  0
 26 27  1  0
 26 24  1  0
 28 26  2  0
M  END
$$$$
