YLT.pdb
     RDKit          3D

 28 28  0  0  1  0  0  0  0  0999 V2000
   17.2756  -24.0720  -16.8148 O   0  0  0  0  0  0  0  0  0  0  0  0
   18.4284  -23.4156  -16.3595 C   0  0  0  0  0  0  0  0  0  0  0  0
   19.5110  -24.1583  -15.9375 C   0  0  0  0  0  0  0  0  0  0  0  0
   20.6259  -23.4481  -15.4967 C   0  0  0  0  0  0  0  0  0  0  0  0
   20.6449  -22.0700  -15.4835 C   0  0  0  0  0  0  0  0  0  0  0  0
   21.8228  -21.3371  -15.0188 C   0  0  0  0  0  0  0  0  0  0  0  0
   21.9986  -21.2658  -13.5399 C   0  0  2  0  0  0  0  0  0  0  0  0
   20.9198  -20.5840  -12.8690 N   0  0  0  0  0  0  0  0  0  0  0  0
   23.2675  -20.5995  -13.1763 C   0  0  0  0  0  0  0  0  0  0  0  0
   23.3134  -19.3289  -13.1891 O   0  0  0  0  0  0  0  0  0  0  0  0
   19.5538  -21.3494  -15.9089 C   0  0  0  0  0  0  0  0  0  0  0  0
   18.4475  -22.0366  -16.3462 C   0  0  0  0  0  0  0  0  0  0  0  0
   26.3831  -21.7206   -9.0101 C   0  0  0  0  0  0  0  0  0  0  0  0
   25.5411  -21.1171  -10.1464 C   0  0  1  0  0  0  0  0  0  0  0  0
   25.1758  -19.6837   -9.8075 C   0  0  0  0  0  0  0  0  0  0  0  0
   26.3917  -21.1742  -11.3679 C   0  0  0  0  0  0  0  0  0  0  0  0
   25.6592  -20.6507  -12.5934 C   0  0  2  0  0  0  0  0  0  0  0  0
   24.4145  -21.3405  -12.8207 N   0  0  0  0  0  0  0  0  0  0  0  0
   26.5664  -20.9282  -13.7415 C   0  0  0  0  0  0  0  0  0  0  0  0
   27.3412  -21.8979  -13.6794 O   0  0  0  0  0  0  0  0  0  0  0  0
   26.8666  -22.7330  -16.3559 C   0  0  0  0  0  0  0  0  0  0  0  0
   26.8882  -21.3419  -16.9383 C   0  0  1  0  0  0  0  0  0  0  0  0
   25.6269  -20.9003  -17.3181 O   0  0  0  0  0  0  0  0  0  0  0  0
   27.4932  -20.3498  -15.9569 C   0  0  2  0  0  0  0  0  0  0  0  0
   26.5578  -20.1112  -14.8900 N   0  0  0  0  0  0  0  0  0  0  0  0
   27.8251  -19.0966  -16.6831 C   0  0  0  0  0  0  0  0  0  0  0  0
   28.7916  -19.0618  -17.6636 O   0  0  0  0  0  0  0  0  0  0  0  0
   27.2012  -18.0531  -16.3844 O   0  0  0  0  0  0  0  0  0  0  0  0
  2  1  1  0
  3  2  2  0
  4  3  1  0
  5 11  1  0
  5  4  2  0
  6  5  1  0
  7  6  1  0
  7  8  1  1
  9  7  1  0
  9 10  2  0
 11 12  2  0
 12  2  1  0
 14 13  1  1
 14 15  1  0
 16 14  1  0
 17 16  1  1
 17 18  1  0
 18  9  1  0
 19 17  1  0
 20 19  2  0
 22 23  1  0
 22 21  1  1
 24 22  1  0
 24 25  1  1
 25 19  1  0
 26 27  1  0
 26 24  1  0
 28 26  2  0
M  END
$$$$
