YLT.pdb
     RDKit          3D

 28 28  0  0  1  0  0  0  0  0999 V2000
   16.4170  -23.7021  -12.3505 O   0  0  0  0  0  0  0  0  0  0  0  0
   17.7427  -23.3137  -12.5926 C   0  0  0  0  0  0  0  0  0  0  0  0
   18.5694  -23.0194  -11.5288 C   0  0  0  0  0  0  0  0  0  0  0  0
   19.8748  -22.6399  -11.8347 C   0  0  0  0  0  0  0  0  0  0  0  0
   20.3175  -22.5626  -13.1376 C   0  0  0  0  0  0  0  0  0  0  0  0
   21.6912  -22.1634  -13.4442 C   0  0  0  0  0  0  0  0  0  0  0  0
   22.0414  -20.7503  -13.1222 C   0  0  2  0  0  0  0  0  0  0  0  0
   21.2179  -19.7871  -13.8098 N   0  0  0  0  0  0  0  0  0  0  0  0
   23.4571  -20.4584  -13.4334 C   0  0  0  0  0  0  0  0  0  0  0  0
   23.7207  -19.7219  -14.4358 O   0  0  0  0  0  0  0  0  0  0  0  0
   19.4757  -22.8607  -14.1832 C   0  0  0  0  0  0  0  0  0  0  0  0
   18.1857  -23.2364  -13.8964 C   0  0  0  0  0  0  0  0  0  0  0  0
   28.4285  -19.4985  -12.7884 C   0  0  0  0  0  0  0  0  0  0  0  0
   28.2713  -20.9769  -12.3961 C   0  0  1  0  0  0  0  0  0  0  0  0
   29.2372  -21.3150  -11.2754 C   0  0  0  0  0  0  0  0  0  0  0  0
   26.8599  -21.1390  -11.9483 C   0  0  0  0  0  0  0  0  0  0  0  0
   25.8721  -20.6967  -13.0165 C   0  0  2  0  0  0  0  0  0  0  0  0
   24.5077  -20.9774  -12.6472 N   0  0  0  0  0  0  0  0  0  0  0  0
   26.2083  -21.5052  -14.2213 C   0  0  0  0  0  0  0  0  0  0  0  0
   25.9498  -22.7208  -14.2253 O   0  0  0  0  0  0  0  0  0  0  0  0
   25.0152  -23.0355  -16.4677 C   0  0  0  0  0  0  0  0  0  0  0  0
   25.8490  -22.0499  -17.2475 C   0  0  1  0  0  0  0  0  0  0  0  0
   25.1629  -20.8764  -17.5345 O   0  0  0  0  0  0  0  0  0  0  0  0
   27.1317  -21.7124  -16.5030 C   0  0  2  0  0  0  0  0  0  0  0  0
   26.8117  -20.9139  -15.3496 N   0  0  0  0  0  0  0  0  0  0  0  0
   28.0493  -20.9957  -17.4262 C   0  0  0  0  0  0  0  0  0  0  0  0
   28.6607  -21.6357  -18.4812 O   0  0  0  0  0  0  0  0  0  0  0  0
   28.2622  -19.7783  -17.2266 O   0  0  0  0  0  0  0  0  0  0  0  0
  2  1  1  0
  3  2  2  0
  4  3  1  0
  5 11  1  0
  5  4  2  0
  6  5  1  0
  7  6  1  0
  7  8  1  6
  9  7  1  0
  9 10  2  0
 11 12  2  0
 12  2  1  0
 14 13  1  1
 14 15  1  0
 16 14  1  0
 17 16  1  1
 17 18  1  0
 18  9  1  0
 19 17  1  0
 20 19  2  0
 22 23  1  0
 22 21  1  1
 24 22  1  0
 24 25  1  1
 25 19  1  0
 26 27  1  0
 26 24  1  0
 28 26  2  0
M  END
$$$$
