YLT.pdb
     RDKit          3D

 28 28  0  0  1  0  0  0  0  0999 V2000
   11.6863   -9.0675  -15.3754 O   0  0  0  0  0  0  0  0  0  0  0  0
   13.0498   -8.7590  -15.2637 C   0  0  0  0  0  0  0  0  0  0  0  0
   13.9893   -9.6541  -15.7306 C   0  0  0  0  0  0  0  0  0  0  0  0
   15.3270   -9.2900  -15.5908 C   0  0  0  0  0  0  0  0  0  0  0  0
   15.6927   -8.0930  -15.0136 C   0  0  0  0  0  0  0  0  0  0  0  0
   17.1013   -7.7231  -14.8740 C   0  0  0  0  0  0  0  0  0  0  0  0
   17.8734   -8.4895  -13.8543 C   0  0  2  0  0  0  0  0  0  0  0  0
   17.3799   -8.3109  -12.5115 N   0  0  0  0  0  0  0  0  0  0  0  0
   19.3069   -8.1276  -13.8751 C   0  0  0  0  0  0  0  0  0  0  0  0
   19.7923   -7.5060  -12.8778 O   0  0  0  0  0  0  0  0  0  0  0  0
   14.7389   -7.2153  -14.5548 C   0  0  0  0  0  0  0  0  0  0  0  0
   13.4159   -7.5612  -14.6861 C   0  0  0  0  0  0  0  0  0  0  0  0
   23.0853  -11.3605  -16.1187 C   0  0  0  0  0  0  0  0  0  0  0  0
   22.2711  -10.4633  -15.1719 C   0  0  1  0  0  0  0  0  0  0  0  0
   22.8341  -10.5585  -13.7658 C   0  0  0  0  0  0  0  0  0  0  0  0
   22.3984   -9.0774  -15.7027 C   0  0  0  0  0  0  0  0  0  0  0  0
   21.5297   -8.0941  -14.9339 C   0  0  2  0  0  0  0  0  0  0  0  0
   20.1349   -8.4553  -14.9697 N   0  0  0  0  0  0  0  0  0  0  0  0
   21.6954   -6.7912  -15.6360 C   0  0  0  0  0  0  0  0  0  0  0  0
   22.8070   -6.2354  -15.6251 O   0  0  0  0  0  0  0  0  0  0  0  0
   21.4531   -5.9835  -19.2291 C   0  0  0  0  0  0  0  0  0  0  0  0
   20.4091   -5.1818  -18.4929 C   0  0  1  0  0  0  0  0  0  0  0  0
   19.1521   -5.7719  -18.5348 O   0  0  0  0  0  0  0  0  0  0  0  0
   20.8129   -4.9627  -17.0429 C   0  0  2  0  0  0  0  0  0  0  0  0
   20.6156   -6.1841  -16.3084 N   0  0  0  0  0  0  0  0  0  0  0  0
   20.0036   -3.8504  -16.4811 C   0  0  0  0  0  0  0  0  0  0  0  0
   20.0915   -2.5684  -16.9765 O   0  0  0  0  0  0  0  0  0  0  0  0
   19.2258   -4.1009  -15.5326 O   0  0  0  0  0  0  0  0  0  0  0  0
  2  1  1  0
  3  2  2  0
  4  3  1  0
  5 11  1  0
  5  4  2  0
  6  5  1  0
  7  6  1  0
  7  8  1  1
  9  7  1  0
  9 10  2  0
 11 12  2  0
 12  2  1  0
 14 13  1  6
 14 15  1  0
 16 14  1  0
 17 16  1  6
 17 18  1  0
 18  9  1  0
 19 17  1  0
 20 19  2  0
 22 23  1  0
 22 21  1  1
 24 22  1  0
 24 25  1  1
 25 19  1  0
 26 27  1  0
 26 24  1  0
 28 26  2  0
M  END
$$$$
