YLT.pdb
     RDKit          3D

 28 28  0  0  1  0  0  0  0  0999 V2000
   17.5252  -23.0565   -9.7086 O   0  0  0  0  0  0  0  0  0  0  0  0
   18.7048  -22.6229  -10.3312 C   0  0  0  0  0  0  0  0  0  0  0  0
   18.6371  -21.6710  -11.3266 C   0  0  0  0  0  0  0  0  0  0  0  0
   19.8432  -21.2818  -11.9060 C   0  0  0  0  0  0  0  0  0  0  0  0
   21.0452  -21.8226  -11.5029 C   0  0  0  0  0  0  0  0  0  0  0  0
   22.3042  -21.4040  -12.1194 C   0  0  0  0  0  0  0  0  0  0  0  0
   23.3916  -21.0209  -11.1739 C   0  0  2  0  0  0  0  0  0  0  0  0
   23.0174  -19.9587  -10.2736 N   0  0  0  0  0  0  0  0  0  0  0  0
   24.6163  -20.6107  -11.8937 C   0  0  0  0  0  0  0  0  0  0  0  0
   24.7800  -19.3791  -12.1639 O   0  0  0  0  0  0  0  0  0  0  0  0
   21.0892  -22.7708  -10.5081 C   0  0  0  0  0  0  0  0  0  0  0  0
   19.9077  -23.1641   -9.9279 C   0  0  0  0  0  0  0  0  0  0  0  0
   29.6169  -21.7252  -10.3844 C   0  0  0  0  0  0  0  0  0  0  0  0
   28.3595  -21.0280  -10.9294 C   0  0  1  0  0  0  0  0  0  0  0  0
   28.6390  -19.5497  -11.1283 C   0  0  0  0  0  0  0  0  0  0  0  0
   28.0487  -21.6894  -12.2274 C   0  0  0  0  0  0  0  0  0  0  0  0
   26.8173  -21.0898  -12.8883 C   0  0  2  0  0  0  0  0  0  0  0  0
   25.5939  -21.5513  -12.2820 N   0  0  0  0  0  0  0  0  0  0  0  0
   26.8538  -21.5714  -14.2971 C   0  0  0  0  0  0  0  0  0  0  0  0
   27.4400  -22.6359  -14.5574 O   0  0  0  0  0  0  0  0  0  0  0  0
   23.9504  -22.2662  -16.7725 C   0  0  0  0  0  0  0  0  0  0  0  0
   24.8771  -21.1963  -17.2932 C   0  0  1  0  0  0  0  0  0  0  0  0
   24.3986  -19.9130  -17.0604 O   0  0  0  0  0  0  0  0  0  0  0  0
   26.2640  -21.3332  -16.6840 C   0  0  2  0  0  0  0  0  0  0  0  0
   26.2365  -20.8407  -15.3324 N   0  0  0  0  0  0  0  0  0  0  0  0
   27.2334  -20.5794  -17.5206 C   0  0  0  0  0  0  0  0  0  0  0  0
   27.5242  -20.9588  -18.8122 O   0  0  0  0  0  0  0  0  0  0  0  0
   27.7925  -19.5752  -17.0243 O   0  0  0  0  0  0  0  0  0  0  0  0
  2  1  1  0
  3  2  2  0
  4  3  1  0
  5 11  1  0
  5  4  2  0
  6  5  1  0
  7  6  1  0
  7  8  1  6
  9  7  1  0
  9 10  2  0
 11 12  2  0
 12  2  1  0
 14 13  1  6
 14 15  1  0
 16 14  1  0
 17 16  1  1
 17 18  1  0
 18  9  1  0
 19 17  1  0
 20 19  2  0
 22 23  1  0
 22 21  1  1
 24 22  1  0
 24 25  1  1
 25 19  1  0
 26 27  1  0
 26 24  1  0
 28 26  2  0
M  END
$$$$
