YLT.pdb
     RDKit          3D

 28 28  0  0  1  0  0  0  0  0999 V2000
   26.1649  -12.8392  -19.9113 O   0  0  0  0  0  0  0  0  0  0  0  0
   25.8038  -13.9871  -19.1911 C   0  0  0  0  0  0  0  0  0  0  0  0
   25.4656  -15.1378  -19.8718 C   0  0  0  0  0  0  0  0  0  0  0  0
   25.1163  -16.2440  -19.0998 C   0  0  0  0  0  0  0  0  0  0  0  0
   25.1094  -16.1900  -17.7226 C   0  0  0  0  0  0  0  0  0  0  0  0
   24.7413  -17.3595  -16.9245 C   0  0  0  0  0  0  0  0  0  0  0  0
   25.8605  -18.2779  -16.5682 C   0  0  2  0  0  0  0  0  0  0  0  0
   26.4498  -18.9302  -17.7110 N   0  0  0  0  0  0  0  0  0  0  0  0
   25.4247  -19.3183  -15.6123 C   0  0  0  0  0  0  0  0  0  0  0  0
   25.1726  -20.4837  -16.0539 O   0  0  0  0  0  0  0  0  0  0  0  0
   25.4502  -15.0318  -17.0645 C   0  0  0  0  0  0  0  0  0  0  0  0
   25.7968  -13.9331  -17.8129 C   0  0  0  0  0  0  0  0  0  0  0  0
   25.6813  -22.2778  -11.5080 C   0  0  0  0  0  0  0  0  0  0  0  0
   25.0204  -20.9826  -11.0081 C   0  0  1  0  0  0  0  0  0  0  0  0
   25.4744  -20.6902   -9.5898 C   0  0  0  0  0  0  0  0  0  0  0  0
   25.4605  -19.9066  -11.9394 C   0  0  0  0  0  0  0  0  0  0  0  0
   24.8980  -20.1031  -13.3385 C   0  0  2  0  0  0  0  0  0  0  0  0
   25.2845  -19.0432  -14.2353 N   0  0  0  0  0  0  0  0  0  0  0  0
   23.4181  -20.0643  -13.1759 C   0  0  0  0  0  0  0  0  0  0  0  0
   22.9110  -19.1823  -12.4621 O   0  0  0  0  0  0  0  0  0  0  0  0
   20.7444  -19.7669  -15.8396 C   0  0  0  0  0  0  0  0  0  0  0  0
   20.5159  -21.0298  -15.0475 C   0  0  1  0  0  0  0  0  0  0  0  0
   20.9874  -22.1632  -15.6982 O   0  0  0  0  0  0  0  0  0  0  0  0
   21.1607  -20.9351  -13.6732 C   0  0  2  0  0  0  0  0  0  0  0  0
   22.5904  -21.0084  -13.8165 N   0  0  0  0  0  0  0  0  0  0  0  0
   20.6399  -22.0351  -12.8207 C   0  0  0  0  0  0  0  0  0  0  0  0
   19.3395  -22.0467  -12.3674 O   0  0  0  0  0  0  0  0  0  0  0  0
   21.4157  -22.9689  -12.5151 O   0  0  0  0  0  0  0  0  0  0  0  0
  2  1  1  0
  3  2  2  0
  4  3  1  0
  5 11  1  0
  5  4  2  0
  6  5  1  0
  7  6  1  0
  7  8  1  6
  9  7  1  0
  9 10  2  0
 11 12  2  0
 12  2  1  0
 14 13  1  6
 14 15  1  0
 16 14  1  0
 17 16  1  1
 17 18  1  0
 18  9  1  0
 19 17  1  0
 20 19  2  0
 22 23  1  0
 22 21  1  6
 24 22  1  0
 24 25  1  6
 25 19  1  0
 26 27  1  0
 26 24  1  0
 28 26  2  0
M  END
$$$$
