YLT.pdb
     RDKit          3D

 28 28  0  0  1  0  0  0  0  0999 V2000
   20.9955  -24.1978  -19.2687 O   0  0  0  0  0  0  0  0  0  0  0  0
   21.6620  -25.4246  -19.1361 C   0  0  0  0  0  0  0  0  0  0  0  0
   21.1244  -26.5557  -19.7136 C   0  0  0  0  0  0  0  0  0  0  0  0
   21.8337  -27.7434  -19.5463 C   0  0  0  0  0  0  0  0  0  0  0  0
   23.0152  -27.7849  -18.8378 C   0  0  0  0  0  0  0  0  0  0  0  0
   23.7499  -29.0389  -18.6707 C   0  0  0  0  0  0  0  0  0  0  0  0
   24.9182  -29.2300  -19.5773 C   0  0  2  0  0  0  0  0  0  0  0  0
   24.5490  -29.3576  -20.9652 N   0  0  0  0  0  0  0  0  0  0  0  0
   25.7117  -30.4179  -19.1959 C   0  0  0  0  0  0  0  0  0  0  0  0
   25.6798  -31.4397  -19.9519 O   0  0  0  0  0  0  0  0  0  0  0  0
   23.5330  -26.6446  -18.2702 C   0  0  0  0  0  0  0  0  0  0  0  0
   22.8443  -25.4662  -18.4271 C   0  0  0  0  0  0  0  0  0  0  0  0
   29.7006  -33.1433  -18.1668 C   0  0  0  0  0  0  0  0  0  0  0  0
   29.4372  -32.4664  -16.8116 C   0  0  1  0  0  0  0  0  0  0  0  0
   30.7562  -32.0908  -16.1616 C   0  0  0  0  0  0  0  0  0  0  0  0
   28.6250  -31.2528  -17.1053 C   0  0  0  0  0  0  0  0  0  0  0  0
   27.2763  -31.6069  -17.7122 C   0  0  2  0  0  0  0  0  0  0  0  0
   26.4934  -30.4370  -18.0212 N   0  0  0  0  0  0  0  0  0  0  0  0
   26.5641  -32.3841  -16.6602 C   0  0  0  0  0  0  0  0  0  0  0  0
   25.9600  -31.7734  -15.7619 O   0  0  0  0  0  0  0  0  0  0  0  0
   23.9556  -32.7758  -15.5965 C   0  0  0  0  0  0  0  0  0  0  0  0
   24.2720  -34.1842  -16.0335 C   0  0  1  0  0  0  0  0  0  0  0  0
   23.9961  -34.4030  -17.3775 O   0  0  0  0  0  0  0  0  0  0  0  0
   25.7282  -34.5261  -15.7576 C   0  0  2  0  0  0  0  0  0  0  0  0
   26.5659  -33.7935  -16.6697 N   0  0  0  0  0  0  0  0  0  0  0  0
   25.9137  -35.9931  -15.9036 C   0  0  0  0  0  0  0  0  0  0  0  0
   25.3811  -36.8842  -14.9986 O   0  0  0  0  0  0  0  0  0  0  0  0
   26.5740  -36.4149  -16.8800 O   0  0  0  0  0  0  0  0  0  0  0  0
  2  1  1  0
  3  2  2  0
  4  3  1  0
  5 11  1  0
  5  4  2  0
  6  5  1  0
  7  6  1  0
  7  8  1  6
  9  7  1  0
  9 10  2  0
 11 12  2  0
 12  2  1  0
 14 13  1  6
 14 15  1  0
 16 14  1  0
 17 16  1  1
 17 18  1  0
 18  9  1  0
 19 17  1  0
 20 19  2  0
 22 23  1  0
 22 21  1  6
 24 22  1  0
 24 25  1  6
 25 19  1  0
 26 27  1  0
 26 24  1  0
 28 26  2  0
M  END
$$$$
