YLT.pdb
     RDKit          3D

 28 28  0  0  1  0  0  0  0  0999 V2000
   15.8354  -24.2769  -12.9706 O   0  0  0  0  0  0  0  0  0  0  0  0
   17.1462  -23.7783  -12.9796 C   0  0  0  0  0  0  0  0  0  0  0  0
   17.7971  -23.6005  -14.1823 C   0  0  0  0  0  0  0  0  0  0  0  0
   19.0972  -23.1022  -14.1247 C   0  0  0  0  0  0  0  0  0  0  0  0
   19.7024  -22.8019  -12.9234 C   0  0  0  0  0  0  0  0  0  0  0  0
   21.0679  -22.2785  -12.8778 C   0  0  0  0  0  0  0  0  0  0  0  0
   21.2008  -20.8532  -12.4606 C   0  0  2  0  0  0  0  0  0  0  0  0
   20.6434  -19.9251  -13.4128 N   0  0  0  0  0  0  0  0  0  0  0  0
   22.6139  -20.4866  -12.2260 C   0  0  0  0  0  0  0  0  0  0  0  0
   23.2177  -19.7957  -13.1062 O   0  0  0  0  0  0  0  0  0  0  0  0
   19.0345  -22.9870  -11.7359 C   0  0  0  0  0  0  0  0  0  0  0  0
   17.7520  -23.4777  -11.7776 C   0  0  0  0  0  0  0  0  0  0  0  0
   26.6547  -18.9553   -9.4923 C   0  0  0  0  0  0  0  0  0  0  0  0
   26.6239  -20.4832   -9.3224 C   0  0  1  0  0  0  0  0  0  0  0  0
   27.1207  -20.8548   -7.9375 C   0  0  0  0  0  0  0  0  0  0  0  0
   25.2031  -20.8918   -9.5047 C   0  0  0  0  0  0  0  0  0  0  0  0
   24.6729  -20.5024  -10.8757 C   0  0  2  0  0  0  0  0  0  0  0  0
   23.2956  -20.8862  -11.0569 N   0  0  0  0  0  0  0  0  0  0  0  0
   25.5043  -21.2635  -11.8491 C   0  0  0  0  0  0  0  0  0  0  0  0
   25.5678  -22.5009  -11.7527 O   0  0  0  0  0  0  0  0  0  0  0  0
   25.4461  -23.3514  -13.7708 C   0  0  0  0  0  0  0  0  0  0  0  0
   25.9843  -22.2364  -14.6321 C   0  0  1  0  0  0  0  0  0  0  0  0
   24.9793  -21.4422  -15.1703 O   0  0  0  0  0  0  0  0  0  0  0  0
   26.9508  -21.3611  -13.8491 C   0  0  2  0  0  0  0  0  0  0  0  0
   26.2154  -20.6035  -12.8716 N   0  0  0  0  0  0  0  0  0  0  0  0
   27.6728  -20.4741  -14.7976 C   0  0  0  0  0  0  0  0  0  0  0  0
   28.5411  -20.9764  -15.7412 O   0  0  0  0  0  0  0  0  0  0  0  0
   27.4763  -19.2398  -14.7248 O   0  0  0  0  0  0  0  0  0  0  0  0
  2  1  1  0
  3  2  2  0
  4  3  1  0
  5 11  1  0
  5  4  2  0
  6  5  1  0
  7  6  1  0
  7  8  1  6
  9  7  1  0
  9 10  2  0
 11 12  2  0
 12  2  1  0
 14 13  1  1
 14 15  1  0
 16 14  1  0
 17 16  1  1
 17 18  1  0
 18  9  1  0
 19 17  1  0
 20 19  2  0
 22 23  1  0
 22 21  1  1
 24 22  1  0
 24 25  1  1
 25 19  1  0
 26 27  1  0
 26 24  1  0
 28 26  2  0
M  END
$$$$
