KIA.pdb
     RDKit          3D

 23 22  0  0  1  0  0  0  0  0999 V2000
    6.8270  -14.8762   20.4657 N   0  0  0  0  0  0  0  0  0  0  0  0
    6.4377  -15.5097   21.7064 C   0  0  1  0  0  0  0  0  0  0  0  0
    6.4996  -17.0221   21.5913 C   0  0  0  0  0  0  0  0  0  0  0  0
    5.4750  -17.5283   20.6108 C   0  0  0  0  0  0  0  0  0  0  0  0
    4.1003  -17.6436   21.2005 C   0  0  0  0  0  0  0  0  0  0  0  0
    3.0906  -18.1666   20.2023 C   0  0  0  0  0  0  0  0  0  0  0  0
    3.5587  -19.4765   19.7534 N   0  0  0  0  0  0  0  0  0  0  0  0
    7.3725  -15.0729   22.7699 C   0  0  0  0  0  0  0  0  0  0  0  0
    8.5942  -14.9647   22.4984 O   0  0  0  0  0  0  0  0  0  0  0  0
    5.9150  -11.3906   26.2261 C   0  0  0  0  0  0  0  0  0  0  0  0
    6.7726  -12.2449   25.3469 C   0  0  0  0  0  0  0  0  0  0  0  0
    7.3985  -13.4199   25.9978 C   0  0  2  0  0  0  0  0  0  0  0  0
    8.2154  -13.0904   27.2281 C   0  0  0  0  0  0  0  0  0  0  0  0
    7.9763  -14.4378   25.0925 C   0  0  2  0  0  0  0  0  0  0  0  0
    6.9605  -14.7712   24.0758 N   0  0  0  0  0  0  0  0  0  0  0  0
    8.5011  -15.6692   25.6926 C   0  0  0  0  0  0  0  0  0  0  0  0
    7.8112  -16.5044   26.3141 O   0  0  0  0  0  0  0  0  0  0  0  0
   11.6307  -17.6566   25.2589 C   0  0  0  0  0  0  0  0  0  0  0  0
   10.3926  -17.2208   26.0415 C   0  0  2  0  0  0  0  0  0  0  0  0
    9.9087  -15.9638   25.5732 N   0  0  0  0  0  0  0  0  0  0  0  0
   10.6905  -17.1989   27.4882 C   0  0  0  0  0  0  0  0  0  0  0  0
   10.9949  -18.3618   28.1578 O   0  0  0  0  0  0  0  0  0  0  0  0
   10.6672  -16.1185   28.1128 O   0  0  0  0  0  0  0  0  0  0  0  0
  2  1  1  6
  3  2  1  0
  4  3  1  0
  5  4  1  0
  6  5  1  0
  7  6  1  0
  8  2  1  0
  8  9  2  0
 11 10  1  0
 12 11  1  0
 12 13  1  1
 14 15  1  6
 14 12  1  0
 15  8  1  0
 16 14  1  0
 17 16  2  0
 19 18  1  6
 19 20  1  0
 20 16  1  0
 21 19  1  0
 21 22  1  0
 23 21  2  0
M  END
$$$$
