KIA.pdb
     RDKit          3D

 23 22  0  0  1  0  0  0  0  0999 V2000
    9.5557  -15.5966   20.4344 N   0  0  0  0  0  0  0  0  0  0  0  0
    8.6291  -16.0991   21.4248 C   0  0  1  0  0  0  0  0  0  0  0  0
    8.7158  -17.6105   21.5379 C   0  0  0  0  0  0  0  0  0  0  0  0
    7.7286  -18.2754   20.6156 C   0  0  0  0  0  0  0  0  0  0  0  0
    7.8790  -17.8503   19.1847 C   0  0  0  0  0  0  0  0  0  0  0  0
    6.9183  -18.5751   18.2675 C   0  0  0  0  0  0  0  0  0  0  0  0
    7.3027  -19.9854   18.2593 N   0  0  0  0  0  0  0  0  0  0  0  0
    8.9737  -15.5014   22.7361 C   0  0  0  0  0  0  0  0  0  0  0  0
   10.1816  -15.4334   23.0744 O   0  0  0  0  0  0  0  0  0  0  0  0
    6.7303  -11.6071   26.9347 C   0  0  0  0  0  0  0  0  0  0  0  0
    7.7838  -12.5721   26.4906 C   0  0  0  0  0  0  0  0  0  0  0  0
    7.4615  -13.3733   25.2863 C   0  0  2  0  0  0  0  0  0  0  0  0
    6.0097  -13.7864   25.1817 C   0  0  0  0  0  0  0  0  0  0  0  0
    8.4547  -14.3997   24.8992 C   0  0  2  0  0  0  0  0  0  0  0  0
    8.0129  -15.0031   23.6274 N   0  0  0  0  0  0  0  0  0  0  0  0
    8.7618  -15.4558   25.8697 C   0  0  0  0  0  0  0  0  0  0  0  0
    8.0008  -16.4064   26.1469 O   0  0  0  0  0  0  0  0  0  0  0  0
   11.7954  -16.9937   27.1327 C   0  0  0  0  0  0  0  0  0  0  0  0
   10.3728  -16.5137   27.4166 C   0  0  2  0  0  0  0  0  0  0  0  0
   10.0236  -15.4213   26.5690 N   0  0  0  0  0  0  0  0  0  0  0  0
   10.2290  -16.1762   28.8476 C   0  0  0  0  0  0  0  0  0  0  0  0
   10.4672  -17.1230   29.8173 O   0  0  0  0  0  0  0  0  0  0  0  0
    9.8887  -15.0237   29.1848 O   0  0  0  0  0  0  0  0  0  0  0  0
  2  1  1  6
  3  2  1  0
  4  3  1  0
  5  4  1  0
  6  5  1  0
  7  6  1  0
  8  2  1  0
  8  9  2  0
 11 10  1  0
 12 11  1  0
 12 13  1  1
 14 15  1  6
 14 12  1  0
 15  8  1  0
 16 14  1  0
 17 16  2  0
 19 18  1  1
 19 20  1  0
 20 16  1  0
 21 19  1  0
 21 22  1  0
 23 21  2  0
M  END
$$$$
