KIA.pdb
     RDKit          3D

 23 22  0  0  1  0  0  0  0  0999 V2000
    7.6248  -17.2262   22.9431 N   0  0  0  0  0  0  0  0  0  0  0  0
    8.9080  -16.6559   22.5962 C   0  0  1  0  0  0  0  0  0  0  0  0
    8.9564  -16.2700   21.1289 C   0  0  0  0  0  0  0  0  0  0  0  0
    8.4246  -17.3818   20.2635 C   0  0  0  0  0  0  0  0  0  0  0  0
    9.1376  -17.4987   18.9487 C   0  0  0  0  0  0  0  0  0  0  0  0
    8.6163  -18.6483   18.1143 C   0  0  0  0  0  0  0  0  0  0  0  0
    9.3996  -18.6826   16.8807 N   0  0  0  0  0  0  0  0  0  0  0  0
    9.1187  -15.4404   23.4170 C   0  0  0  0  0  0  0  0  0  0  0  0
   10.1599  -14.7603   23.2397 O   0  0  0  0  0  0  0  0  0  0  0  0
    6.0470  -11.3982   26.9260 C   0  0  0  0  0  0  0  0  0  0  0  0
    7.3106  -11.8944   26.2973 C   0  0  0  0  0  0  0  0  0  0  0  0
    7.2384  -13.2350   25.6700 C   0  0  2  0  0  0  0  0  0  0  0  0
    6.3225  -14.2079   26.3801 C   0  0  0  0  0  0  0  0  0  0  0  0
    8.5156  -13.7945   25.1747 C   0  0  2  0  0  0  0  0  0  0  0  0
    8.2078  -15.0056   24.3903 N   0  0  0  0  0  0  0  0  0  0  0  0
    9.5602  -14.0932   26.1602 C   0  0  0  0  0  0  0  0  0  0  0  0
   10.3380  -13.2462   26.6473 O   0  0  0  0  0  0  0  0  0  0  0  0
   10.6466  -14.8628   28.7942 C   0  0  0  0  0  0  0  0  0  0  0  0
   10.7636  -15.7439   27.5512 C   0  0  2  0  0  0  0  0  0  0  0  0
    9.7252  -15.4516   26.6184 N   0  0  0  0  0  0  0  0  0  0  0  0
   10.7774  -17.1688   27.9407 C   0  0  0  0  0  0  0  0  0  0  0  0
    9.8853  -18.0555   27.3827 O   0  0  0  0  0  0  0  0  0  0  0  0
   11.6036  -17.5765   28.7827 O   0  0  0  0  0  0  0  0  0  0  0  0
  2  1  1  1
  3  2  1  0
  4  3  1  0
  5  4  1  0
  6  5  1  0
  7  6  1  0
  8  2  1  0
  8  9  2  0
 11 10  1  0
 12 11  1  0
 12 13  1  1
 14 15  1  1
 14 12  1  0
 15  8  1  0
 16 14  1  0
 17 16  2  0
 19 18  1  1
 19 20  1  0
 20 16  1  0
 21 19  1  0
 21 22  1  0
 23 21  2  0
M  END
$$$$
