KIA.pdb
     RDKit          3D

 23 22  0  0  1  0  0  0  0  0999 V2000
    8.1183  -14.2755   20.2767 N   0  0  0  0  0  0  0  0  0  0  0  0
    7.4838  -15.1039   21.2784 C   0  0  1  0  0  0  0  0  0  0  0  0
    7.6691  -16.5779   20.9665 C   0  0  0  0  0  0  0  0  0  0  0  0
    6.9031  -16.9653   19.7293 C   0  0  0  0  0  0  0  0  0  0  0  0
    6.9428  -18.4384   19.4477 C   0  0  0  0  0  0  0  0  0  0  0  0
    6.1199  -18.8124   18.2343 C   0  0  0  0  0  0  0  0  0  0  0  0
    6.2088  -20.2629   18.0767 N   0  0  0  0  0  0  0  0  0  0  0  0
    8.1051  -14.8117   22.5914 C   0  0  0  0  0  0  0  0  0  0  0  0
    9.3525  -14.6780   22.6573 O   0  0  0  0  0  0  0  0  0  0  0  0
    5.6653  -11.5913   26.0591 C   0  0  0  0  0  0  0  0  0  0  0  0
    6.6877  -12.3428   25.2665 C   0  0  0  0  0  0  0  0  0  0  0  0
    7.2123  -13.5789   25.8935 C   0  0  2  0  0  0  0  0  0  0  0  0
    7.6586  -13.4096   27.3293 C   0  0  0  0  0  0  0  0  0  0  0  0
    8.0781  -14.4260   25.0435 C   0  0  2  0  0  0  0  0  0  0  0  0
    7.3664  -14.6753   23.7753 N   0  0  0  0  0  0  0  0  0  0  0  0
    8.5557  -15.6952   25.6028 C   0  0  0  0  0  0  0  0  0  0  0  0
    7.8149  -16.6321   25.9677 O   0  0  0  0  0  0  0  0  0  0  0  0
   11.7805  -17.5342   25.6188 C   0  0  0  0  0  0  0  0  0  0  0  0
   10.4379  -17.1616   26.2462 C   0  0  2  0  0  0  0  0  0  0  0  0
    9.9752  -15.9057   25.7541 N   0  0  0  0  0  0  0  0  0  0  0  0
   10.5465  -17.1767   27.7194 C   0  0  0  0  0  0  0  0  0  0  0  0
   10.8755  -18.3352   28.3851 O   0  0  0  0  0  0  0  0  0  0  0  0
   10.3389  -16.1321   28.3701 O   0  0  0  0  0  0  0  0  0  0  0  0
  2  1  1  6
  3  2  1  0
  4  3  1  0
  5  4  1  0
  6  5  1  0
  7  6  1  0
  8  2  1  0
  8  9  2  0
 11 10  1  0
 12 11  1  0
 12 13  1  1
 14 15  1  6
 14 12  1  0
 15  8  1  0
 16 14  1  0
 17 16  2  0
 19 18  1  6
 19 20  1  0
 20 16  1  0
 21 19  1  0
 21 22  1  0
 23 21  2  0
M  END
$$$$
