KIA.pdb
     RDKit          3D

 23 22  0  0  1  0  0  0  0  0999 V2000
    8.9813  -14.9894   20.1047 N   0  0  0  0  0  0  0  0  0  0  0  0
    8.0965  -15.4797   21.1385 C   0  0  1  0  0  0  0  0  0  0  0  0
    7.9929  -16.9936   21.0970 C   0  0  0  0  0  0  0  0  0  0  0  0
    7.0156  -17.4361   20.0403 C   0  0  0  0  0  0  0  0  0  0  0  0
    7.5692  -17.3440   18.6489 C   0  0  0  0  0  0  0  0  0  0  0  0
    6.6422  -17.9563   17.6216 C   0  0  0  0  0  0  0  0  0  0  0  0
    6.6370  -19.4010   17.8446 N   0  0  0  0  0  0  0  0  0  0  0  0
    8.6427  -15.0742   22.4549 C   0  0  0  0  0  0  0  0  0  0  0  0
    9.8886  -15.0381   22.6110 O   0  0  0  0  0  0  0  0  0  0  0  0
    7.3928  -11.6443   27.3437 C   0  0  0  0  0  0  0  0  0  0  0  0
    8.1983  -12.7425   26.7246 C   0  0  0  0  0  0  0  0  0  0  0  0
    7.6884  -13.2732   25.4383 C   0  0  2  0  0  0  0  0  0  0  0  0
    6.1835  -13.4177   25.3755 C   0  0  0  0  0  0  0  0  0  0  0  0
    8.4688  -14.3734   24.8300 C   0  0  2  0  0  0  0  0  0  0  0  0
    7.8336  -14.7254   23.5457 N   0  0  0  0  0  0  0  0  0  0  0  0
    8.6803  -15.5858   25.6281 C   0  0  0  0  0  0  0  0  0  0  0  0
    7.7655  -16.3148   26.0655 O   0  0  0  0  0  0  0  0  0  0  0  0
   11.4638  -17.9522   26.0887 C   0  0  0  0  0  0  0  0  0  0  0  0
   10.2350  -17.2239   26.6316 C   0  0  2  0  0  0  0  0  0  0  0  0
   10.0284  -15.9903   25.9466 N   0  0  0  0  0  0  0  0  0  0  0  0
   10.3625  -17.0358   28.0913 C   0  0  0  0  0  0  0  0  0  0  0  0
   10.3557  -15.7727   28.6374 O   0  0  0  0  0  0  0  0  0  0  0  0
   10.4776  -18.0280   28.8397 O   0  0  0  0  0  0  0  0  0  0  0  0
  2  1  1  6
  3  2  1  0
  4  3  1  0
  5  4  1  0
  6  5  1  0
  7  6  1  0
  8  2  1  0
  8  9  2  0
 11 10  1  0
 12 11  1  0
 12 13  1  1
 14 15  1  6
 14 12  1  0
 15  8  1  0
 16 14  1  0
 17 16  2  0
 19 18  1  6
 19 20  1  0
 20 16  1  0
 21 19  1  0
 21 22  1  0
 23 21  2  0
M  END
$$$$
