KIA.pdb
     RDKit          3D

 23 22  0  0  1  0  0  0  0  0999 V2000
    7.6043  -14.5158   20.2017 N   0  0  0  0  0  0  0  0  0  0  0  0
    6.9441  -15.1485   21.3224 C   0  0  1  0  0  0  0  0  0  0  0  0
    6.8655  -16.6526   21.1330 C   0  0  0  0  0  0  0  0  0  0  0  0
    6.3164  -16.9945   19.7732 C   0  0  0  0  0  0  0  0  0  0  0  0
    6.1572  -18.4703   19.5551 C   0  0  0  0  0  0  0  0  0  0  0  0
    5.4694  -18.7850   18.2446 C   0  0  0  0  0  0  0  0  0  0  0  0
    5.4080  -20.2403   18.1224 N   0  0  0  0  0  0  0  0  0  0  0  0
    7.7236  -14.8616   22.5494 C   0  0  0  0  0  0  0  0  0  0  0  0
    8.9749  -14.7829   22.4700 O   0  0  0  0  0  0  0  0  0  0  0  0
    5.8295  -11.4466   26.1856 C   0  0  0  0  0  0  0  0  0  0  0  0
    6.6943  -12.2760   25.2898 C   0  0  0  0  0  0  0  0  0  0  0  0
    7.2540  -13.5095   25.8912 C   0  0  2  0  0  0  0  0  0  0  0  0
    7.8674  -13.3135   27.2604 C   0  0  0  0  0  0  0  0  0  0  0  0
    7.9928  -14.4062   24.9748 C   0  0  2  0  0  0  0  0  0  0  0  0
    7.1319  -14.6716   23.8063 N   0  0  0  0  0  0  0  0  0  0  0  0
    8.4996  -15.6717   25.5160 C   0  0  0  0  0  0  0  0  0  0  0  0
    7.7891  -16.5493   26.0497 O   0  0  0  0  0  0  0  0  0  0  0  0
   11.6367  -17.6371   25.0988 C   0  0  0  0  0  0  0  0  0  0  0  0
   10.3894  -17.2225   25.8781 C   0  0  2  0  0  0  0  0  0  0  0  0
    9.9134  -15.9512   25.4413 N   0  0  0  0  0  0  0  0  0  0  0  0
   10.6688  -17.2442   27.3286 C   0  0  0  0  0  0  0  0  0  0  0  0
   10.5082  -16.1088   28.0893 O   0  0  0  0  0  0  0  0  0  0  0  0
   11.0541  -18.2991   27.8731 O   0  0  0  0  0  0  0  0  0  0  0  0
  2  1  1  6
  3  2  1  0
  4  3  1  0
  5  4  1  0
  6  5  1  0
  7  6  1  0
  8  2  1  0
  8  9  2  0
 11 10  1  0
 12 11  1  0
 12 13  1  1
 14 15  1  6
 14 12  1  0
 15  8  1  0
 16 14  1  0
 17 16  2  0
 19 18  1  6
 19 20  1  0
 20 16  1  0
 21 19  1  0
 21 22  1  0
 23 21  2  0
M  END
$$$$
