KIA.pdb
     RDKit          3D

 23 22  0  0  1  0  0  0  0  0999 V2000
    7.3878  -14.5873   20.2779 N   0  0  0  0  0  0  0  0  0  0  0  0
    6.8392  -15.2402   21.4462 C   0  0  1  0  0  0  0  0  0  0  0  0
    6.8278  -16.7485   21.2750 C   0  0  0  0  0  0  0  0  0  0  0  0
    5.8938  -17.1560   20.1664 C   0  0  0  0  0  0  0  0  0  0  0  0
    5.8216  -18.6419   19.9719 C   0  0  0  0  0  0  0  0  0  0  0  0
    4.8697  -19.0289   18.8612 C   0  0  0  0  0  0  0  0  0  0  0  0
    4.9161  -20.4844   18.7339 N   0  0  0  0  0  0  0  0  0  0  0  0
    7.6836  -14.8984   22.6148 C   0  0  0  0  0  0  0  0  0  0  0  0
    8.9230  -14.7723   22.4530 O   0  0  0  0  0  0  0  0  0  0  0  0
    5.9975  -11.3817   26.1765 C   0  0  0  0  0  0  0  0  0  0  0  0
    6.8536  -12.2352   25.2951 C   0  0  0  0  0  0  0  0  0  0  0  0
    7.4173  -13.4532   25.9233 C   0  0  2  0  0  0  0  0  0  0  0  0
    8.1018  -13.2110   27.2509 C   0  0  0  0  0  0  0  0  0  0  0  0
    8.0914  -14.4057   25.0134 C   0  0  2  0  0  0  0  0  0  0  0  0
    7.1665  -14.7066   23.9039 N   0  0  0  0  0  0  0  0  0  0  0  0
    8.6027  -15.6553   25.5866 C   0  0  0  0  0  0  0  0  0  0  0  0
    7.9098  -16.4816   26.2165 O   0  0  0  0  0  0  0  0  0  0  0  0
   11.7530  -17.6568   25.2148 C   0  0  0  0  0  0  0  0  0  0  0  0
   10.4822  -17.2200   25.9424 C   0  0  2  0  0  0  0  0  0  0  0  0
    9.9997  -15.9805   25.4281 N   0  0  0  0  0  0  0  0  0  0  0  0
   10.7277  -17.1611   27.3979 C   0  0  0  0  0  0  0  0  0  0  0  0
   11.0619  -18.2978   28.0978 O   0  0  0  0  0  0  0  0  0  0  0  0
   10.6322  -16.0733   28.0024 O   0  0  0  0  0  0  0  0  0  0  0  0
  2  1  1  6
  3  2  1  0
  4  3  1  0
  5  4  1  0
  6  5  1  0
  7  6  1  0
  8  2  1  0
  8  9  2  0
 11 10  1  0
 12 11  1  0
 12 13  1  1
 14 15  1  6
 14 12  1  0
 15  8  1  0
 16 14  1  0
 17 16  2  0
 19 18  1  6
 19 20  1  0
 20 16  1  0
 21 19  1  0
 21 22  1  0
 23 21  2  0
M  END
$$$$
