KIA.pdb
     RDKit          3D

 23 22  0  0  1  0  0  0  0  0999 V2000
    7.1326  -18.2274   22.3581 N   0  0  0  0  0  0  0  0  0  0  0  0
    6.6943  -17.8407   23.6812 C   0  0  1  0  0  0  0  0  0  0  0  0
    6.7664  -19.0112   24.6451 C   0  0  0  0  0  0  0  0  0  0  0  0
    5.7652  -20.0735   24.2755 C   0  0  0  0  0  0  0  0  0  0  0  0
    6.3814  -21.2446   23.5686 C   0  0  0  0  0  0  0  0  0  0  0  0
    5.3649  -22.3173   23.2434 C   0  0  0  0  0  0  0  0  0  0  0  0
    6.0908  -23.4441   22.6604 N   0  0  0  0  0  0  0  0  0  0  0  0
    7.5825  -16.7614   24.1730 C   0  0  0  0  0  0  0  0  0  0  0  0
    8.7557  -16.6905   23.7297 O   0  0  0  0  0  0  0  0  0  0  0  0
    6.1607  -11.8901   26.9372 C   0  0  0  0  0  0  0  0  0  0  0  0
    6.2214  -13.2294   26.2731 C   0  0  0  0  0  0  0  0  0  0  0  0
    7.3412  -13.4309   25.3236 C   0  0  2  0  0  0  0  0  0  0  0  0
    7.0476  -12.9837   23.9083 C   0  0  0  0  0  0  0  0  0  0  0  0
    8.0915  -14.6992   25.4578 C   0  0  2  0  0  0  0  0  0  0  0  0
    7.1778  -15.8063   25.1163 N   0  0  0  0  0  0  0  0  0  0  0  0
    8.7475  -14.9744   26.7405 C   0  0  0  0  0  0  0  0  0  0  0  0
    8.1952  -15.5275   27.7146 O   0  0  0  0  0  0  0  0  0  0  0  0
   10.1744  -13.7251   29.1953 C   0  0  0  0  0  0  0  0  0  0  0  0
   10.7257  -14.7495   28.2046 C   0  0  2  0  0  0  0  0  0  0  0  0
   10.1271  -14.5911   26.9199 N   0  0  0  0  0  0  0  0  0  0  0  0
   10.5471  -16.1156   28.7376 C   0  0  0  0  0  0  0  0  0  0  0  0
   11.1136  -16.4782   29.9380 O   0  0  0  0  0  0  0  0  0  0  0  0
    9.8773  -16.9516   28.0970 O   0  0  0  0  0  0  0  0  0  0  0  0
  2  1  1  6
  3  2  1  0
  4  3  1  0
  5  4  1  0
  6  5  1  0
  7  6  1  0
  8  2  1  0
  8  9  2  0
 11 10  1  0
 12 11  1  0
 12 13  1  6
 14 15  1  1
 14 12  1  0
 15  8  1  0
 16 14  1  0
 17 16  2  0
 19 18  1  1
 19 20  1  0
 20 16  1  0
 21 19  1  0
 21 22  1  0
 23 21  2  0
M  END
$$$$
