KIA.pdb
     RDKit          3D

 23 22  0  0  1  0  0  0  0  0999 V2000
    6.1650  -16.2795   21.6601 N   0  0  0  0  0  0  0  0  0  0  0  0
    7.5478  -16.0832   21.2840 C   0  0  1  0  0  0  0  0  0  0  0  0
    7.6557  -15.3309   19.9699 C   0  0  0  0  0  0  0  0  0  0  0  0
    7.1777  -16.1818   18.8232 C   0  0  0  0  0  0  0  0  0  0  0  0
    8.2984  -16.7723   18.0194 C   0  0  0  0  0  0  0  0  0  0  0  0
    7.7954  -17.6127   16.8660 C   0  0  0  0  0  0  0  0  0  0  0  0
    8.9554  -18.2695   16.2661 N   0  0  0  0  0  0  0  0  0  0  0  0
    8.2147  -15.2913   22.3440 C   0  0  0  0  0  0  0  0  0  0  0  0
    9.4446  -15.0561   22.2440 O   0  0  0  0  0  0  0  0  0  0  0  0
    6.9895  -11.7337   27.2205 C   0  0  0  0  0  0  0  0  0  0  0  0
    7.9632  -12.5530   26.4337 C   0  0  0  0  0  0  0  0  0  0  0  0
    7.3723  -13.5321   25.4912 C   0  0  2  0  0  0  0  0  0  0  0  0
    6.2934  -14.4055   26.0935 C   0  0  0  0  0  0  0  0  0  0  0  0
    8.3170  -14.2107   24.5765 C   0  0  2  0  0  0  0  0  0  0  0  0
    7.5381  -14.7860   23.4633 N   0  0  0  0  0  0  0  0  0  0  0  0
    9.2034  -15.2330   25.1428 C   0  0  0  0  0  0  0  0  0  0  0  0
    9.8608  -16.0533   24.4684 O   0  0  0  0  0  0  0  0  0  0  0  0
   11.7111  -15.9026   26.6335 C   0  0  0  0  0  0  0  0  0  0  0  0
   10.3003  -16.2333   27.1186 C   0  0  2  0  0  0  0  0  0  0  0  0
    9.3469  -15.3221   26.5759 N   0  0  0  0  0  0  0  0  0  0  0  0
   10.2666  -16.2606   28.5952 C   0  0  0  0  0  0  0  0  0  0  0  0
   11.0242  -17.1709   29.2959 O   0  0  0  0  0  0  0  0  0  0  0  0
    9.5462  -15.4529   29.2170 O   0  0  0  0  0  0  0  0  0  0  0  0
  2  1  1  1
  3  2  1  0
  4  3  1  0
  5  4  1  0
  6  5  1  0
  7  6  1  0
  8  2  1  0
  8  9  2  0
 11 10  1  0
 12 11  1  0
 12 13  1  1
 14 15  1  6
 14 12  1  0
 15  8  1  0
 16 14  1  0
 17 16  2  0
 19 18  1  1
 19 20  1  0
 20 16  1  0
 21 19  1  0
 21 22  1  0
 23 21  2  0
M  END
$$$$
