KIA.pdb
     RDKit          3D

 23 22  0  0  1  0  0  0  0  0999 V2000
    7.3929  -14.5177   20.3333 N   0  0  0  0  0  0  0  0  0  0  0  0
    6.8437  -15.1441   21.5157 C   0  0  1  0  0  0  0  0  0  0  0  0
    6.8547  -16.6567   21.3885 C   0  0  0  0  0  0  0  0  0  0  0  0
    8.2272  -17.1546   21.0200 C   0  0  0  0  0  0  0  0  0  0  0  0
    8.2554  -18.6181   20.6907 C   0  0  0  0  0  0  0  0  0  0  0  0
    9.6209  -19.0746   20.2254 C   0  0  0  0  0  0  0  0  0  0  0  0
    9.5488  -20.5188   20.0117 N   0  0  0  0  0  0  0  0  0  0  0  0
    7.6734  -14.7567   22.6806 C   0  0  0  0  0  0  0  0  0  0  0  0
    8.8964  -14.5280   22.5065 O   0  0  0  0  0  0  0  0  0  0  0  0
    5.9304  -11.2084   26.0637 C   0  0  0  0  0  0  0  0  0  0  0  0
    6.7808  -12.1119   25.2278 C   0  0  0  0  0  0  0  0  0  0  0  0
    7.3808  -13.2700   25.9315 C   0  0  2  0  0  0  0  0  0  0  0  0
    8.0709  -12.9209   27.2320 C   0  0  0  0  0  0  0  0  0  0  0  0
    8.0703  -14.2656   25.0813 C   0  0  2  0  0  0  0  0  0  0  0  0
    7.1599  -14.6308   23.9792 N   0  0  0  0  0  0  0  0  0  0  0  0
    8.5817  -15.4798   25.7261 C   0  0  0  0  0  0  0  0  0  0  0  0
    7.8691  -16.3358   26.2913 O   0  0  0  0  0  0  0  0  0  0  0  0
   11.8673  -17.2964   25.6862 C   0  0  0  0  0  0  0  0  0  0  0  0
   10.4864  -16.9647   26.2501 C   0  0  2  0  0  0  0  0  0  0  0  0
   10.0027  -15.7307   25.7238 N   0  0  0  0  0  0  0  0  0  0  0  0
   10.5304  -16.9612   27.7267 C   0  0  0  0  0  0  0  0  0  0  0  0
   10.8109  -18.1155   28.4212 O   0  0  0  0  0  0  0  0  0  0  0  0
   10.3120  -15.9045   28.3539 O   0  0  0  0  0  0  0  0  0  0  0  0
  2  1  1  6
  3  2  1  0
  4  3  1  0
  5  4  1  0
  6  5  1  0
  7  6  1  0
  8  2  1  0
  8  9  2  0
 11 10  1  0
 12 11  1  0
 12 13  1  1
 14 15  1  6
 14 12  1  0
 15  8  1  0
 16 14  1  0
 17 16  2  0
 19 18  1  6
 19 20  1  0
 20 16  1  0
 21 19  1  0
 21 22  1  0
 23 21  2  0
M  END
$$$$
