KIA.pdb
     RDKit          3D

 23 22  0  0  1  0  0  0  0  0999 V2000
    8.2027  -15.6353   20.0571 N   0  0  0  0  0  0  0  0  0  0  0  0
    7.3942  -15.9906   21.2026 C   0  0  1  0  0  0  0  0  0  0  0  0
    7.1857  -17.4922   21.2804 C   0  0  0  0  0  0  0  0  0  0  0  0
    6.1275  -17.9385   20.3064 C   0  0  0  0  0  0  0  0  0  0  0  0
    6.6918  -18.4274   19.0051 C   0  0  0  0  0  0  0  0  0  0  0  0
    5.6282  -19.0174   18.1049 C   0  0  0  0  0  0  0  0  0  0  0  0
    6.2879  -19.4463   16.8730 N   0  0  0  0  0  0  0  0  0  0  0  0
    8.0945  -15.5415   22.4288 C   0  0  0  0  0  0  0  0  0  0  0  0
    9.3504  -15.5562   22.4514 O   0  0  0  0  0  0  0  0  0  0  0  0
    7.3861  -11.8428   27.2535 C   0  0  0  0  0  0  0  0  0  0  0  0
    8.1394  -12.9474   26.5822 C   0  0  0  0  0  0  0  0  0  0  0  0
    7.4884  -13.5450   25.3926 C   0  0  2  0  0  0  0  0  0  0  0  0
    5.9887  -13.7040   25.5156 C   0  0  0  0  0  0  0  0  0  0  0  0
    8.2064  -14.6679   24.7497 C   0  0  2  0  0  0  0  0  0  0  0  0
    7.4220  -15.0966   23.5759 N   0  0  0  0  0  0  0  0  0  0  0  0
    8.5379  -15.8324   25.5777 C   0  0  0  0  0  0  0  0  0  0  0  0
    7.6965  -16.5948   26.0977 O   0  0  0  0  0  0  0  0  0  0  0  0
   11.4874  -18.0064   25.9714 C   0  0  0  0  0  0  0  0  0  0  0  0
   10.2454  -17.3307   26.5508 C   0  0  2  0  0  0  0  0  0  0  0  0
    9.9246  -16.1446   25.8270 N   0  0  0  0  0  0  0  0  0  0  0  0
   10.4380  -17.0686   27.9919 C   0  0  0  0  0  0  0  0  0  0  0  0
   10.3749  -15.7853   28.4844 O   0  0  0  0  0  0  0  0  0  0  0  0
   10.6600  -18.0163   28.7732 O   0  0  0  0  0  0  0  0  0  0  0  0
  2  1  1  6
  3  2  1  0
  4  3  1  0
  5  4  1  0
  6  5  1  0
  7  6  1  0
  8  2  1  0
  8  9  2  0
 11 10  1  0
 12 11  1  0
 12 13  1  1
 14 15  1  6
 14 12  1  0
 15  8  1  0
 16 14  1  0
 17 16  2  0
 19 18  1  6
 19 20  1  0
 20 16  1  0
 21 19  1  0
 21 22  1  0
 23 21  2  0
M  END
$$$$
