KIA.pdb
     RDKit          3D

 23 22  0  0  1  0  0  0  0  0999 V2000
    7.9618  -15.4740   21.0121 N   0  0  0  0  0  0  0  0  0  0  0  0
    7.4784  -16.0158   22.2630 C   0  0  1  0  0  0  0  0  0  0  0  0
    7.7744  -17.5011   22.3665 C   0  0  0  0  0  0  0  0  0  0  0  0
    7.3222  -18.2264   21.1268 C   0  0  0  0  0  0  0  0  0  0  0  0
    7.4293  -19.7182   21.2438 C   0  0  0  0  0  0  0  0  0  0  0  0
    6.9996  -20.4248   19.9766 C   0  0  0  0  0  0  0  0  0  0  0  0
    7.1224  -21.8617   20.2150 N   0  0  0  0  0  0  0  0  0  0  0  0
    8.1624  -15.3138   23.3742 C   0  0  0  0  0  0  0  0  0  0  0  0
    9.3644  -14.9772   23.2321 O   0  0  0  0  0  0  0  0  0  0  0  0
    5.5347  -11.6002   26.0782 C   0  0  0  0  0  0  0  0  0  0  0  0
    6.5928  -12.4219   25.4123 C   0  0  0  0  0  0  0  0  0  0  0  0
    7.3501  -13.3404   26.2950 C   0  0  2  0  0  0  0  0  0  0  0  0
    7.8547  -12.7043   27.5719 C   0  0  0  0  0  0  0  0  0  0  0  0
    8.2853  -14.2696   25.6229 C   0  0  2  0  0  0  0  0  0  0  0  0
    7.5322  -15.0027   24.5875 N   0  0  0  0  0  0  0  0  0  0  0  0
    9.0293  -15.2168   26.4601 C   0  0  0  0  0  0  0  0  0  0  0  0
    8.5581  -16.2784   26.9192 O   0  0  0  0  0  0  0  0  0  0  0  0
   10.1563  -16.2878   28.7997 C   0  0  0  0  0  0  0  0  0  0  0  0
   11.0902  -15.7958   27.6949 C   0  0  2  0  0  0  0  0  0  0  0  0
   10.4036  -14.9297   26.7937 N   0  0  0  0  0  0  0  0  0  0  0  0
   11.7045  -16.9468   27.0019 C   0  0  0  0  0  0  0  0  0  0  0  0
   12.5327  -17.8113   27.6801 O   0  0  0  0  0  0  0  0  0  0  0  0
   11.4731  -17.1407   25.7908 O   0  0  0  0  0  0  0  0  0  0  0  0
  2  1  1  6
  3  2  1  0
  4  3  1  0
  5  4  1  0
  6  5  1  0
  7  6  1  0
  8  2  1  0
  8  9  2  0
 11 10  1  0
 12 11  1  0
 12 13  1  1
 14 15  1  6
 14 12  1  0
 15  8  1  0
 16 14  1  0
 17 16  2  0
 19 18  1  1
 19 20  1  0
 20 16  1  0
 21 19  1  0
 21 22  1  0
 23 21  2  0
M  END
$$$$
