HFS.pdb
     RDKit          3D

 28 29  0  0  1  0  0  0  0  0999 V2000
   24.1338  -12.0645  -19.2222 N   0  0  0  0  0  0  0  0  0  0  0  0
   23.3356  -10.9166  -19.6016 C   0  0  1  0  0  0  0  0  0  0  0  0
   22.0319  -11.3102  -20.2376 C   0  0  0  0  0  0  0  0  0  0  0  0
   22.2295  -11.9698  -21.5554 C   0  0  0  0  0  0  0  0  0  0  0  0
   22.7800  -11.5038  -22.7086 C   0  0  0  0  0  0  0  0  0  0  0  0
   22.7508  -12.4503  -23.6555 N   0  0  0  0  0  0  0  0  0  0  0  0
   22.1696  -13.5255  -23.0753 C   0  0  0  0  0  0  0  0  0  0  0  0
   21.8504  -13.2376  -21.7962 N   0  0  0  0  0  0  0  0  0  0  0  0
   23.0235  -10.1601  -18.3673 C   0  0  0  0  0  0  0  0  0  0  0  0
   22.5838  -10.7489  -17.3472 O   0  0  0  0  0  0  0  0  0  0  0  0
   23.1892   -8.7557  -18.2378 N   0  0  0  0  0  0  0  0  0  0  0  0
   22.9943   -7.9901  -17.0499 C   0  0  1  0  0  0  0  0  0  0  0  0
   24.2184   -7.3945  -16.4514 C   0  0  0  0  0  0  0  0  0  0  0  0
   25.1954   -8.4093  -15.9820 C   0  0  0  0  0  0  0  0  0  0  0  0
   26.3578   -8.6342  -16.6855 C   0  0  0  0  0  0  0  0  0  0  0  0
   27.2908   -9.5877  -16.2573 C   0  0  0  0  0  0  0  0  0  0  0  0
   27.0360  -10.3084  -15.1141 C   0  0  0  0  0  0  0  0  0  0  0  0
   25.8814  -10.1036  -14.3916 C   0  0  0  0  0  0  0  0  0  0  0  0
   24.9872   -9.1571  -14.8438 C   0  0  0  0  0  0  0  0  0  0  0  0
   22.0416   -6.8927  -17.3787 C   0  0  0  0  0  0  0  0  0  0  0  0
   22.1153   -6.2497  -18.4612 O   0  0  0  0  0  0  0  0  0  0  0  0
   17.6900   -5.1470  -16.4523 O   0  0  0  0  0  0  0  0  0  0  0  0
   18.6777   -6.1086  -16.2414 C   0  0  0  0  0  0  0  0  0  0  0  0
   20.0012   -5.5826  -16.7385 C   0  0  2  0  0  0  0  0  0  0  0  0
   21.0185   -6.5580  -16.4485 N   0  0  0  0  0  0  0  0  0  0  0  0
   20.3425   -4.2574  -16.1469 C   0  0  0  0  0  0  0  0  0  0  0  0
   21.3055   -4.1494  -15.3769 O   0  0  0  0  0  0  0  0  0  0  0  0
   19.5931   -3.1315  -16.4464 O   0  0  0  0  0  0  0  0  0  0  0  0
  2  1  1  1
  2  9  1  0
  3  2  1  0
  4  8  1  0
  4  3  1  0
  5  4  2  0
  6  5  1  0
  6  7  1  0
  7  8  2  0
  9 10  2  0
  9 11  1  0
 11 12  1  0
 12 13  1  6
 14 13  1  0
 14 19  1  0
 15 14  2  0
 16 15  1  0
 16 17  2  0
 17 18  1  0
 18 19  2  0
 20 12  1  0
 20 21  2  0
 22 23  1  0
 24 23  1  1
 24 25  1  0
 25 20  1  0
 26 24  1  0
 27 26  2  0
 28 26  1  0
M  END
$$$$
