HFS.pdb
     RDKit          3D

 28 29  0  0  1  0  0  0  0  0999 V2000
   20.3453  -34.0009  -10.1284 N   0  0  0  0  0  0  0  0  0  0  0  0
   20.8722  -33.3538   -8.9442 C   0  0  1  0  0  0  0  0  0  0  0  0
   20.0588  -33.6551   -7.7167 C   0  0  0  0  0  0  0  0  0  0  0  0
   18.7736  -32.9075   -7.7004 C   0  0  0  0  0  0  0  0  0  0  0  0
   18.2826  -31.9659   -8.5504 C   0  0  0  0  0  0  0  0  0  0  0  0
   17.0722  -31.5589   -8.1471 N   0  0  0  0  0  0  0  0  0  0  0  0
   16.8087  -32.2641   -7.0230 C   0  0  0  0  0  0  0  0  0  0  0  0
   17.8420  -33.0867   -6.7470 N   0  0  0  0  0  0  0  0  0  0  0  0
   22.2387  -33.8774   -8.7177 C   0  0  0  0  0  0  0  0  0  0  0  0
   22.5423  -35.0487   -9.0591 O   0  0  0  0  0  0  0  0  0  0  0  0
   23.2835  -33.1263   -8.1172 N   0  0  0  0  0  0  0  0  0  0  0  0
   24.6208  -33.5711   -7.8946 C   0  0  1  0  0  0  0  0  0  0  0  0
   25.6790  -32.8590   -8.6592 C   0  0  0  0  0  0  0  0  0  0  0  0
   25.7122  -33.2274  -10.0972 C   0  0  0  0  0  0  0  0  0  0  0  0
   26.5007  -34.2701  -10.5307 C   0  0  0  0  0  0  0  0  0  0  0  0
   26.5443  -34.6315  -11.8836 C   0  0  0  0  0  0  0  0  0  0  0  0
   25.7845  -33.9294  -12.7897 C   0  0  0  0  0  0  0  0  0  0  0  0
   24.9872  -32.8823  -12.3833 C   0  0  0  0  0  0  0  0  0  0  0  0
   24.9703  -32.5559  -11.0442 C   0  0  0  0  0  0  0  0  0  0  0  0
   24.9027  -33.4233   -6.4390 C   0  0  0  0  0  0  0  0  0  0  0  0
   24.5422  -32.4026   -5.7917 O   0  0  0  0  0  0  0  0  0  0  0  0
   24.8463  -35.1383   -2.2851 O   0  0  0  0  0  0  0  0  0  0  0  0
   24.6700  -35.1696   -3.6680 C   0  0  0  0  0  0  0  0  0  0  0  0
   25.8100  -34.4397   -4.3336 C   0  0  2  0  0  0  0  0  0  0  0  0
   25.5972  -34.4605   -5.7564 N   0  0  0  0  0  0  0  0  0  0  0  0
   27.1373  -35.0194   -3.9798 C   0  0  0  0  0  0  0  0  0  0  0  0
   27.6803  -35.8364   -4.7343 O   0  0  0  0  0  0  0  0  0  0  0  0
   27.7816  -34.6562   -2.8085 O   0  0  0  0  0  0  0  0  0  0  0  0
  2  1  1  6
  2  9  1  0
  3  2  1  0
  4  8  1  0
  4  3  1  0
  5  4  2  0
  6  5  1  0
  6  7  1  0
  7  8  2  0
  9 10  2  0
  9 11  1  0
 11 12  1  0
 12 13  1  6
 14 13  1  0
 14 19  1  0
 15 14  2  0
 16 15  1  0
 16 17  2  0
 17 18  1  0
 18 19  2  0
 20 12  1  0
 20 21  2  0
 22 23  1  0
 24 23  1  1
 24 25  1  0
 25 20  1  0
 26 24  1  0
 27 26  2  0
 28 26  1  0
M  END
$$$$
