HFS.pdb
     RDKit          3D

 28 29  0  0  1  0  0  0  0  0999 V2000
   27.0139  -19.5888  -19.1389 N   0  0  0  0  0  0  0  0  0  0  0  0
   26.1528  -18.7945  -18.2867 C   0  0  1  0  0  0  0  0  0  0  0  0
   24.8289  -18.4930  -18.9313 C   0  0  0  0  0  0  0  0  0  0  0  0
   24.9283  -17.3890  -19.9223 C   0  0  0  0  0  0  0  0  0  0  0  0
   24.8187  -16.0422  -19.7661 C   0  0  0  0  0  0  0  0  0  0  0  0
   24.9791  -15.4215  -20.9418 N   0  0  0  0  0  0  0  0  0  0  0  0
   25.1926  -16.4058  -21.8451 C   0  0  0  0  0  0  0  0  0  0  0  0
   25.1626  -17.6058  -21.2288 N   0  0  0  0  0  0  0  0  0  0  0  0
   25.8870  -19.5810  -17.0604 C   0  0  0  0  0  0  0  0  0  0  0  0
   25.7718  -20.8319  -17.1122 O   0  0  0  0  0  0  0  0  0  0  0  0
   25.7452  -19.0077  -15.7690 N   0  0  0  0  0  0  0  0  0  0  0  0
   25.5005  -19.7159  -14.5548 C   0  0  1  0  0  0  0  0  0  0  0  0
   26.1488  -19.1618  -13.3365 C   0  0  0  0  0  0  0  0  0  0  0  0
   25.8624  -19.9487  -12.1103 C   0  0  0  0  0  0  0  0  0  0  0  0
   24.8423  -19.5730  -11.2645 C   0  0  0  0  0  0  0  0  0  0  0  0
   24.5580  -20.3035  -10.1034 C   0  0  0  0  0  0  0  0  0  0  0  0
   25.3138  -21.4139   -9.8081 C   0  0  0  0  0  0  0  0  0  0  0  0
   26.3398  -21.8117  -10.6366 C   0  0  0  0  0  0  0  0  0  0  0  0
   26.5898  -21.0680  -11.7699 C   0  0  0  0  0  0  0  0  0  0  0  0
   24.0260  -19.7388  -14.3421 C   0  0  0  0  0  0  0  0  0  0  0  0
   23.3242  -18.6947  -14.4330 O   0  0  0  0  0  0  0  0  0  0  0  0
   21.6484  -22.8488  -15.2480 O   0  0  0  0  0  0  0  0  0  0  0  0
   21.5452  -22.4919  -13.9039 C   0  0  0  0  0  0  0  0  0  0  0  0
   21.9823  -21.0583  -13.7327 C   0  0  2  0  0  0  0  0  0  0  0  0
   23.3878  -20.9709  -14.0278 N   0  0  0  0  0  0  0  0  0  0  0  0
   21.6855  -20.5346  -12.3687 C   0  0  0  0  0  0  0  0  0  0  0  0
   22.5977  -20.3947  -11.5440 O   0  0  0  0  0  0  0  0  0  0  0  0
   20.3925  -20.1978  -12.0030 O   0  0  0  0  0  0  0  0  0  0  0  0
  2  1  1  6
  2  9  1  0
  3  2  1  0
  4  8  1  0
  4  3  1  0
  5  4  2  0
  6  5  1  0
  6  7  1  0
  7  8  2  0
  9 10  2  0
  9 11  1  0
 11 12  1  0
 12 13  1  1
 14 13  1  0
 14 19  1  0
 15 14  2  0
 16 15  1  0
 16 17  2  0
 17 18  1  0
 18 19  2  0
 20 12  1  0
 20 21  2  0
 22 23  1  0
 24 23  1  1
 24 25  1  0
 25 20  1  0
 26 24  1  0
 27 26  2  0
 28 26  1  0
M  END
$$$$
