HFS.pdb
     RDKit          3D

 28 29  0  0  1  0  0  0  0  0999 V2000
   27.5745  -18.7404  -19.3361 N   0  0  0  0  0  0  0  0  0  0  0  0
   26.8366  -17.9851  -18.3442 C   0  0  1  0  0  0  0  0  0  0  0  0
   25.5066  -17.5100  -18.8585 C   0  0  0  0  0  0  0  0  0  0  0  0
   25.6023  -16.1751  -19.5064 C   0  0  0  0  0  0  0  0  0  0  0  0
   26.6783  -15.4959  -19.9872 C   0  0  0  0  0  0  0  0  0  0  0  0
   26.2976  -14.3152  -20.4916 N   0  0  0  0  0  0  0  0  0  0  0  0
   24.9568  -14.2628  -20.3190 C   0  0  0  0  0  0  0  0  0  0  0  0
   24.5288  -15.3933  -19.7194 N   0  0  0  0  0  0  0  0  0  0  0  0
   26.5795  -18.8843  -17.1961 C   0  0  0  0  0  0  0  0  0  0  0  0
   26.4197  -20.1190  -17.3707 O   0  0  0  0  0  0  0  0  0  0  0  0
   26.4951  -18.4422  -15.8493 N   0  0  0  0  0  0  0  0  0  0  0  0
   26.1687  -19.2466  -14.7171 C   0  0  1  0  0  0  0  0  0  0  0  0
   26.7830  -18.8343  -13.4271 C   0  0  0  0  0  0  0  0  0  0  0  0
   26.3573  -19.6749  -12.2795 C   0  0  0  0  0  0  0  0  0  0  0  0
   26.8829  -20.9363  -12.1078 C   0  0  0  0  0  0  0  0  0  0  0  0
   26.4929  -21.7432  -11.0310 C   0  0  0  0  0  0  0  0  0  0  0  0
   25.5689  -21.2621  -10.1331 C   0  0  0  0  0  0  0  0  0  0  0  0
   25.0274  -20.0043  -10.2812 C   0  0  0  0  0  0  0  0  0  0  0  0
   25.4354  -19.2396  -11.3529 C   0  0  0  0  0  0  0  0  0  0  0  0
   24.6863  -19.2249  -14.5680 C   0  0  0  0  0  0  0  0  0  0  0  0
   24.0301  -18.1482  -14.5998 O   0  0  0  0  0  0  0  0  0  0  0  0
   22.2785  -21.5431  -16.3193 O   0  0  0  0  0  0  0  0  0  0  0  0
   22.0318  -21.7043  -14.9564 C   0  0  0  0  0  0  0  0  0  0  0  0
   22.5610  -20.5063  -14.2078 C   0  0  2  0  0  0  0  0  0  0  0  0
   23.9877  -20.4506  -14.3849 N   0  0  0  0  0  0  0  0  0  0  0  0
   22.1992  -20.5368  -12.7618 C   0  0  0  0  0  0  0  0  0  0  0  0
   23.0697  -20.7457  -11.9071 O   0  0  0  0  0  0  0  0  0  0  0  0
   20.8917  -20.3332  -12.3522 O   0  0  0  0  0  0  0  0  0  0  0  0
  2  1  1  6
  2  9  1  0
  3  2  1  0
  4  8  1  0
  4  3  1  0
  5  4  2  0
  6  5  1  0
  6  7  1  0
  7  8  2  0
  9 10  2  0
  9 11  1  0
 11 12  1  0
 12 13  1  1
 14 13  1  0
 14 19  1  0
 15 14  2  0
 16 15  1  0
 16 17  2  0
 17 18  1  0
 18 19  2  0
 20 12  1  0
 20 21  2  0
 22 23  1  0
 24 23  1  6
 24 25  1  0
 25 20  1  0
 26 24  1  0
 27 26  2  0
 28 26  1  0
M  END
$$$$
