HFS.pdb
     RDKit          3D

 28 29  0  0  1  0  0  0  0  0999 V2000
   23.5887  -12.0439  -19.4482 N   0  0  0  0  0  0  0  0  0  0  0  0
   23.2593  -10.6393  -19.5803 C   0  0  1  0  0  0  0  0  0  0  0  0
   21.9012  -10.4239  -20.1871 C   0  0  0  0  0  0  0  0  0  0  0  0
   21.8628  -10.8094  -21.6226 C   0  0  0  0  0  0  0  0  0  0  0  0
   21.2778  -11.8694  -22.2426 C   0  0  0  0  0  0  0  0  0  0  0  0
   21.5002  -11.8192  -23.5622 N   0  0  0  0  0  0  0  0  0  0  0  0
   22.2390  -10.7037  -23.7630 C   0  0  0  0  0  0  0  0  0  0  0  0
   22.4624  -10.0855  -22.5845 N   0  0  0  0  0  0  0  0  0  0  0  0
   23.2424  -10.0532  -18.2205 C   0  0  0  0  0  0  0  0  0  0  0  0
   22.8481  -10.7275  -17.2354 O   0  0  0  0  0  0  0  0  0  0  0  0
   23.6558   -8.7268  -17.9264 N   0  0  0  0  0  0  0  0  0  0  0  0
   23.8038   -8.1591  -16.6259 C   0  0  1  0  0  0  0  0  0  0  0  0
   25.1735   -7.7055  -16.2660 C   0  0  0  0  0  0  0  0  0  0  0  0
   26.1661   -8.8093  -16.2288 C   0  0  0  0  0  0  0  0  0  0  0  0
   27.1659   -8.8784  -17.1736 C   0  0  0  0  0  0  0  0  0  0  0  0
   28.1109   -9.9126  -17.1539 C   0  0  0  0  0  0  0  0  0  0  0  0
   28.0338  -10.8723  -16.1719 C   0  0  0  0  0  0  0  0  0  0  0  0
   27.0441  -10.8271  -15.2150 C   0  0  0  0  0  0  0  0  0  0  0  0
   26.1323   -9.7946  -15.2666 C   0  0  0  0  0  0  0  0  0  0  0  0
   22.8779   -6.9948  -16.5403 C   0  0  0  0  0  0  0  0  0  0  0  0
   22.6233   -6.2720  -17.5422 O   0  0  0  0  0  0  0  0  0  0  0  0
   19.4907   -4.9098  -13.8057 O   0  0  0  0  0  0  0  0  0  0  0  0
   20.5103   -5.8570  -13.8924 C   0  0  0  0  0  0  0  0  0  0  0  0
   21.3072   -5.6195  -15.1509 C   0  0  2  0  0  0  0  0  0  0  0  0
   22.2614   -6.6866  -15.2958 N   0  0  0  0  0  0  0  0  0  0  0  0
   21.9826   -4.2903  -15.1513 C   0  0  0  0  0  0  0  0  0  0  0  0
   23.1080   -4.1643  -14.6519 O   0  0  0  0  0  0  0  0  0  0  0  0
   21.3668   -3.1807  -15.7068 O   0  0  0  0  0  0  0  0  0  0  0  0
  2  1  1  1
  2  9  1  0
  3  2  1  0
  4  8  1  0
  4  3  1  0
  5  4  2  0
  6  5  1  0
  6  7  1  0
  7  8  2  0
  9 10  2  0
  9 11  1  0
 11 12  1  0
 12 13  1  6
 14 13  1  0
 14 19  1  0
 15 14  2  0
 16 15  1  0
 16 17  2  0
 17 18  1  0
 18 19  2  0
 20 12  1  0
 20 21  2  0
 22 23  1  0
 24 23  1  1
 24 25  1  0
 25 20  1  0
 26 24  1  0
 27 26  2  0
 28 26  1  0
M  END
$$$$
