HFS.pdb
     RDKit          3D

 28 29  0  0  1  0  0  0  0  0999 V2000
   20.7489  -10.9701  -17.7018 N   0  0  0  0  0  0  0  0  0  0  0  0
   20.1742   -9.6636  -17.4533 C   0  0  1  0  0  0  0  0  0  0  0  0
   18.7143   -9.6034  -17.8058 C   0  0  0  0  0  0  0  0  0  0  0  0
   18.4892   -9.6946  -19.2727 C   0  0  0  0  0  0  0  0  0  0  0  0
   18.4479   -8.7264  -20.2272 C   0  0  0  0  0  0  0  0  0  0  0  0
   18.2155   -9.2667  -21.4303 N   0  0  0  0  0  0  0  0  0  0  0  0
   18.1108  -10.5984  -21.2154 C   0  0  0  0  0  0  0  0  0  0  0  0
   18.2768  -10.8637  -19.9028 N   0  0  0  0  0  0  0  0  0  0  0  0
   20.2985   -9.3877  -16.0038 C   0  0  0  0  0  0  0  0  0  0  0  0
   20.0521  -10.2829  -15.1562 O   0  0  0  0  0  0  0  0  0  0  0  0
   20.6928   -8.1326  -15.4691 N   0  0  0  0  0  0  0  0  0  0  0  0
   21.0133   -7.8605  -14.1057 C   0  0  1  0  0  0  0  0  0  0  0  0
   22.3776   -7.3256  -13.8523 C   0  0  0  0  0  0  0  0  0  0  0  0
   23.4585   -8.2345  -14.3108 C   0  0  0  0  0  0  0  0  0  0  0  0
   24.1945   -7.9297  -15.4343 C   0  0  0  0  0  0  0  0  0  0  0  0
   25.2180   -8.7755  -15.8813 C   0  0  0  0  0  0  0  0  0  0  0  0
   25.4879   -9.9285  -15.1821 C   0  0  0  0  0  0  0  0  0  0  0  0
   24.7673  -10.2574  -14.0553 C   0  0  0  0  0  0  0  0  0  0  0  0
   23.7680   -9.4007  -13.6460 C   0  0  0  0  0  0  0  0  0  0  0  0
   20.0141   -6.8773  -13.6010 C   0  0  0  0  0  0  0  0  0  0  0  0
   19.5133   -5.9938  -14.3491 O   0  0  0  0  0  0  0  0  0  0  0  0
   16.2312   -5.6599  -12.0570 O   0  0  0  0  0  0  0  0  0  0  0  0
   17.3000   -6.4014  -12.5593 C   0  0  0  0  0  0  0  0  0  0  0  0
   18.5267   -6.1405  -11.7211 C   0  0  2  0  0  0  0  0  0  0  0  0
   19.6104   -6.9334  -12.2380 N   0  0  0  0  0  0  0  0  0  0  0  0
   18.2956   -6.4228  -10.2755 C   0  0  0  0  0  0  0  0  0  0  0  0
   18.7632   -7.4456   -9.7589 O   0  0  0  0  0  0  0  0  0  0  0  0
   17.5585   -5.5513   -9.4905 O   0  0  0  0  0  0  0  0  0  0  0  0
  2  1  1  1
  2  9  1  0
  3  2  1  0
  4  8  1  0
  4  3  1  0
  5  4  2  0
  6  5  1  0
  6  7  1  0
  7  8  2  0
  9 10  2  0
  9 11  1  0
 11 12  1  0
 12 13  1  6
 14 13  1  0
 14 19  1  0
 15 14  2  0
 16 15  1  0
 16 17  2  0
 17 18  1  0
 18 19  2  0
 20 12  1  0
 20 21  2  0
 22 23  1  0
 24 23  1  6
 24 25  1  0
 25 20  1  0
 26 24  1  0
 27 26  2  0
 28 26  1  0
M  END
$$$$
