HFS.pdb
     RDKit          3D

 28 29  0  0  1  0  0  0  0  0999 V2000
   25.9111  -21.7821  -13.2765 N   0  0  0  0  0  0  0  0  0  0  0  0
   25.3861  -20.7523  -12.4031 C   0  0  1  0  0  0  0  0  0  0  0  0
   23.8837  -20.7071  -12.4093 C   0  0  0  0  0  0  0  0  0  0  0  0
   23.3452  -20.1938  -13.6967 C   0  0  0  0  0  0  0  0  0  0  0  0
   23.3846  -20.7216  -14.9497 C   0  0  0  0  0  0  0  0  0  0  0  0
   22.7666  -19.9102  -15.8175 N   0  0  0  0  0  0  0  0  0  0  0  0
   22.3354  -18.8574  -15.0853 C   0  0  0  0  0  0  0  0  0  0  0  0
   22.6855  -19.0257  -13.7930 N   0  0  0  0  0  0  0  0  0  0  0  0
   25.8207  -21.0702  -11.0237 C   0  0  0  0  0  0  0  0  0  0  0  0
   25.8280  -22.2575  -10.6102 O   0  0  0  0  0  0  0  0  0  0  0  0
   26.2503  -20.0944  -10.0857 N   0  0  0  0  0  0  0  0  0  0  0  0
   26.7604  -20.3496   -8.7780 C   0  0  1  0  0  0  0  0  0  0  0  0
   27.8282  -19.4290   -8.3049 C   0  0  0  0  0  0  0  0  0  0  0  0
   28.2048  -19.6476   -6.8854 C   0  0  0  0  0  0  0  0  0  0  0  0
   29.1495  -20.5933   -6.5536 C   0  0  0  0  0  0  0  0  0  0  0  0
   29.5171  -20.8130   -5.2196 C   0  0  0  0  0  0  0  0  0  0  0  0
   28.9210  -20.0686   -4.2288 C   0  0  0  0  0  0  0  0  0  0  0  0
   27.9733  -19.1164   -4.5328 C   0  0  0  0  0  0  0  0  0  0  0  0
   27.6374  -18.9285   -5.8564 C   0  0  0  0  0  0  0  0  0  0  0  0
   25.6130  -20.2761   -7.8303 C   0  0  0  0  0  0  0  0  0  0  0  0
   24.8181  -19.2968   -7.8225 O   0  0  0  0  0  0  0  0  0  0  0  0
   24.4509  -23.6892   -5.6423 O   0  0  0  0  0  0  0  0  0  0  0  0
   23.5999  -22.6773   -6.0854 C   0  0  0  0  0  0  0  0  0  0  0  0
   24.3056  -21.3484   -5.9782 C   0  0  2  0  0  0  0  0  0  0  0  0
   25.4043  -21.3384   -6.9072 N   0  0  0  0  0  0  0  0  0  0  0  0
   24.7718  -21.0648   -4.5908 C   0  0  0  0  0  0  0  0  0  0  0  0
   25.9796  -21.0946   -4.3221 O   0  0  0  0  0  0  0  0  0  0  0  0
   23.8677  -20.7650   -3.5849 O   0  0  0  0  0  0  0  0  0  0  0  0
  2  1  1  6
  2  9  1  0
  3  2  1  0
  4  8  1  0
  4  3  1  0
  5  4  2  0
  6  5  1  0
  6  7  1  0
  7  8  2  0
  9 10  2  0
  9 11  1  0
 11 12  1  0
 12 13  1  1
 14 13  1  0
 14 19  1  0
 15 14  2  0
 16 15  1  0
 16 17  2  0
 17 18  1  0
 18 19  2  0
 20 12  1  0
 20 21  2  0
 22 23  1  0
 24 23  1  1
 24 25  1  0
 25 20  1  0
 26 24  1  0
 27 26  2  0
 28 26  1  0
M  END
$$$$
