FLR.pdb
     RDKit          3D

 31 31  0  0  1  0  0  0  0  0999 V2000
   28.4550  -21.4007  -10.9238 N   0  0  0  0  0  0  0  0  0  0  0  0
   27.1116  -21.0720  -10.5719 C   0  0  1  0  0  0  0  0  0  0  0  0
   27.0955  -19.7026   -9.9315 C   0  0  0  0  0  0  0  0  0  0  0  0
   27.5945  -19.8076   -8.5369 C   0  0  0  0  0  0  0  0  0  0  0  0
   26.7134  -19.7674   -7.4801 C   0  0  0  0  0  0  0  0  0  0  0  0
   27.1902  -19.8653   -6.1918 C   0  0  0  0  0  0  0  0  0  0  0  0
   28.5509  -20.0034   -5.9678 C   0  0  0  0  0  0  0  0  0  0  0  0
   29.4140  -20.0410   -7.0472 C   0  0  0  0  0  0  0  0  0  0  0  0
   28.9588  -19.9444   -8.3518 C   0  0  0  0  0  0  0  0  0  0  0  0
   26.1859  -21.0718  -11.7373 C   0  0  0  0  0  0  0  0  0  0  0  0
   26.5134  -20.4004  -12.7468 O   0  0  0  0  0  0  0  0  0  0  0  0
   25.2375  -23.0564  -15.5166 C   0  0  0  0  0  0  0  0  0  0  0  0
   25.0710  -23.8060  -14.1817 C   0  0  2  0  0  0  0  0  0  0  0  0
   24.7221  -25.2355  -14.6107 C   0  0  0  0  0  0  0  0  0  0  0  0
   23.9035  -23.2226  -13.4518 C   0  0  0  0  0  0  0  0  0  0  0  0
   24.0870  -21.8806  -12.8623 C   0  0  2  0  0  0  0  0  0  0  0  0
   24.9683  -21.7999  -11.7267 N   0  0  0  0  0  0  0  0  0  0  0  0
   22.7551  -21.2826  -12.5646 C   0  0  0  0  0  0  0  0  0  0  0  0
   22.2330  -21.3670  -11.4278 O   0  0  0  0  0  0  0  0  0  0  0  0
   20.3442  -13.9822  -16.3497 N   0  0  0  0  0  0  0  0  0  0  0  0
   20.7094  -15.2968  -16.7471 C   0  0  0  0  0  0  0  0  0  0  0  0
   21.1865  -15.5129  -17.9237 N   0  0  0  0  0  0  0  0  0  0  0  0
   20.5816  -16.4200  -15.9036 N   0  0  0  0  0  0  0  0  0  0  0  0
   20.1347  -16.2720  -14.5229 C   0  0  0  0  0  0  0  0  0  0  0  0
   19.9064  -17.5680  -13.8581 C   0  0  0  0  0  0  0  0  0  0  0  0
   20.8192  -18.6863  -13.9917 C   0  0  0  0  0  0  0  0  0  0  0  0
   20.7015  -19.9697  -13.2887 C   0  0  2  0  0  0  0  0  0  0  0  0
   22.0572  -20.6062  -13.5689 N   0  0  0  0  0  0  0  0  0  0  0  0
   19.7773  -20.9825  -13.7669 C   0  0  0  0  0  0  0  0  0  0  0  0
   20.0685  -21.8027  -14.6494 O   0  0  0  0  0  0  0  0  0  0  0  0
   18.4647  -21.1164  -13.2621 O   0  0  0  0  0  0  0  0  0  0  0  0
  2  1  1  6
  3  2  1  0
  4  3  1  0
  4  5  2  0
  6  5  1  0
  7  6  2  0
  8  9  2  0
  8  7  1  0
  9  4  1  0
 10  2  1  0
 11 10  2  0
 13 12  1  6
 13 14  1  0
 15 13  1  0
 16 15  1  1
 16 17  1  0
 17 10  1  0
 18 16  1  0
 19 18  2  0
 20 21  1  0
 21 23  1  0
 21 22  2  0
 23 24  1  0
 25 24  1  0
 26 25  1  0
 27 26  1  6
 27 28  1  0
 28 18  1  0
 29 31  1  0
 29 27  1  0
 30 29  2  0
M  END
$$$$
