FLR.pdb
     RDKit          3D

 31 31  0  0  1  0  0  0  0  0999 V2000
   28.7179  -20.9745  -17.0686 N   0  0  0  0  0  0  0  0  0  0  0  0
   28.4601  -19.9893  -16.0689 C   0  0  1  0  0  0  0  0  0  0  0  0
   27.3300  -19.1013  -16.5384 C   0  0  0  0  0  0  0  0  0  0  0  0
   27.7768  -18.3237  -17.7220 C   0  0  0  0  0  0  0  0  0  0  0  0
   27.1313  -18.4659  -18.9293 C   0  0  0  0  0  0  0  0  0  0  0  0
   27.5566  -17.7389  -20.0189 C   0  0  0  0  0  0  0  0  0  0  0  0
   28.6295  -16.8706  -19.8932 C   0  0  0  0  0  0  0  0  0  0  0  0
   29.2599  -16.7466  -18.6691 C   0  0  0  0  0  0  0  0  0  0  0  0
   28.8509  -17.4669  -17.5590 C   0  0  0  0  0  0  0  0  0  0  0  0
   28.0980  -20.5761  -14.7500 C   0  0  0  0  0  0  0  0  0  0  0  0
   27.1858  -21.4389  -14.7221 O   0  0  0  0  0  0  0  0  0  0  0  0
   30.5692  -22.6354  -11.2157 C   0  0  0  0  0  0  0  0  0  0  0  0
   30.7123  -21.1091  -11.3626 C   0  0  2  0  0  0  0  0  0  0  0  0
   31.6111  -20.7152  -10.1852 C   0  0  0  0  0  0  0  0  0  0  0  0
   29.3666  -20.4854  -11.1722 C   0  0  0  0  0  0  0  0  0  0  0  0
   28.3795  -20.6836  -12.2531 C   0  0  2  0  0  0  0  0  0  0  0  0
   28.7504  -20.1858  -13.5521 N   0  0  0  0  0  0  0  0  0  0  0  0
   27.0564  -20.1519  -11.8210 C   0  0  0  0  0  0  0  0  0  0  0  0
   26.7785  -18.9317  -11.8975 O   0  0  0  0  0  0  0  0  0  0  0  0
   18.9855  -22.5590  -11.2361 N   0  0  0  0  0  0  0  0  0  0  0  0
   19.3340  -22.2935  -12.5879 C   0  0  0  0  0  0  0  0  0  0  0  0
   18.4174  -22.1585  -13.4826 N   0  0  0  0  0  0  0  0  0  0  0  0
   20.6675  -22.1595  -13.0277 N   0  0  0  0  0  0  0  0  0  0  0  0
   21.7768  -22.2203  -12.0823 C   0  0  0  0  0  0  0  0  0  0  0  0
   22.4342  -20.9140  -11.8940 C   0  0  0  0  0  0  0  0  0  0  0  0
   23.8729  -20.7471  -11.9559 C   0  0  0  0  0  0  0  0  0  0  0  0
   24.7514  -20.5011  -10.8058 C   0  0  2  0  0  0  0  0  0  0  0  0
   26.0888  -21.0243  -11.3152 N   0  0  0  0  0  0  0  0  0  0  0  0
   24.5718  -21.2516   -9.5757 C   0  0  0  0  0  0  0  0  0  0  0  0
   23.6321  -21.0533   -8.7922 O   0  0  0  0  0  0  0  0  0  0  0  0
   25.4578  -22.2746   -9.1703 O   0  0  0  0  0  0  0  0  0  0  0  0
  2  1  1  6
  3  2  1  0
  4  3  1  0
  4  5  2  0
  6  5  1  0
  7  6  2  0
  8  9  2  0
  8  7  1  0
  9  4  1  0
 10  2  1  0
 11 10  2  0
 13 12  1  1
 13 14  1  0
 15 13  1  0
 16 15  1  1
 16 17  1  0
 17 10  1  0
 18 16  1  0
 19 18  2  0
 20 21  1  0
 21 23  1  0
 21 22  2  0
 23 24  1  0
 25 24  1  0
 26 25  1  0
 27 26  1  6
 27 28  1  0
 28 18  1  0
 29 31  1  0
 29 27  1  0
 30 29  2  0
M  END
$$$$
