FLR.pdb
     RDKit          3D

 31 31  0  0  1  0  0  0  0  0999 V2000
   21.5420  -19.9986  -14.6862 N   0  0  0  0  0  0  0  0  0  0  0  0
   22.5294  -19.8195  -15.7009 C   0  0  1  0  0  0  0  0  0  0  0  0
   21.9770  -20.3247  -17.0145 C   0  0  0  0  0  0  0  0  0  0  0  0
   21.7401  -21.7874  -16.9167 C   0  0  0  0  0  0  0  0  0  0  0  0
   20.4897  -22.2679  -16.6003 C   0  0  0  0  0  0  0  0  0  0  0  0
   20.2844  -23.6269  -16.5124 C   0  0  0  0  0  0  0  0  0  0  0  0
   21.3358  -24.5002  -16.7427 C   0  0  0  0  0  0  0  0  0  0  0  0
   22.5816  -23.9909  -17.0589 C   0  0  0  0  0  0  0  0  0  0  0  0
   22.8129  -22.6286  -17.1531 C   0  0  0  0  0  0  0  0  0  0  0  0
   22.9470  -18.4006  -15.8657 C   0  0  0  0  0  0  0  0  0  0  0  0
   22.0667  -17.5124  -15.7497 O   0  0  0  0  0  0  0  0  0  0  0  0
   28.1581  -15.0264  -16.1375 C   0  0  0  0  0  0  0  0  0  0  0  0
   26.6236  -15.0114  -16.2674 C   0  0  2  0  0  0  0  0  0  0  0  0
   26.1787  -14.0230  -15.1837 C   0  0  0  0  0  0  0  0  0  0  0  0
   26.1045  -16.3709  -15.9232 C   0  0  0  0  0  0  0  0  0  0  0  0
   24.7222  -16.6833  -16.3401 C   0  0  2  0  0  0  0  0  0  0  0  0
   24.2913  -18.0432  -16.1454 N   0  0  0  0  0  0  0  0  0  0  0  0
   24.5160  -16.2404  -17.7477 C   0  0  0  0  0  0  0  0  0  0  0  0
   24.9768  -16.8878  -18.7176 O   0  0  0  0  0  0  0  0  0  0  0  0
   17.4823  -15.5340  -20.4312 N   0  0  0  0  0  0  0  0  0  0  0  0
   17.9022  -14.7773  -21.5583 C   0  0  0  0  0  0  0  0  0  0  0  0
   17.2861  -14.8884  -22.6839 N   0  0  0  0  0  0  0  0  0  0  0  0
   18.9873  -13.8768  -21.5209 N   0  0  0  0  0  0  0  0  0  0  0  0
   19.7756  -13.7053  -20.3055 C   0  0  0  0  0  0  0  0  0  0  0  0
   21.1580  -14.1969  -20.4516 C   0  0  0  0  0  0  0  0  0  0  0  0
   22.1024  -14.2116  -19.3518 C   0  0  0  0  0  0  0  0  0  0  0  0
   23.5054  -14.6346  -19.4404 C   0  0  2  0  0  0  0  0  0  0  0  0
   23.7912  -15.0746  -18.0099 N   0  0  0  0  0  0  0  0  0  0  0  0
   24.5501  -13.6547  -19.6793 C   0  0  0  0  0  0  0  0  0  0  0  0
   25.1498  -13.0678  -18.7670 O   0  0  0  0  0  0  0  0  0  0  0  0
   24.9705  -13.2892  -20.9775 O   0  0  0  0  0  0  0  0  0  0  0  0
  2  1  1  1
  3  2  1  0
  4  3  1  0
  4  5  2  0
  6  5  1  0
  7  6  2  0
  8  9  2  0
  8  7  1  0
  9  4  1  0
 10  2  1  0
 11 10  2  0
 13 12  1  1
 13 14  1  0
 15 13  1  0
 16 15  1  6
 16 17  1  0
 17 10  1  0
 18 16  1  0
 19 18  2  0
 20 21  1  0
 21 23  1  0
 21 22  2  0
 23 24  1  0
 25 24  1  0
 26 25  1  0
 27 26  1  1
 27 28  1  0
 28 18  1  0
 29 31  1  0
 29 27  1  0
 30 29  2  0
M  END
$$$$
