FLR.pdb
     RDKit          3D

 31 31  0  0  1  0  0  0  0  0999 V2000
   20.8226   -7.4573  -16.9290 N   0  0  0  0  0  0  0  0  0  0  0  0
   22.2307   -7.4806  -17.1599 C   0  0  1  0  0  0  0  0  0  0  0  0
   22.9145   -8.0728  -15.9485 C   0  0  0  0  0  0  0  0  0  0  0  0
   22.6199   -7.2330  -14.7597 C   0  0  0  0  0  0  0  0  0  0  0  0
   23.0075   -5.9126  -14.7299 C   0  0  0  0  0  0  0  0  0  0  0  0
   22.7283   -5.1457  -13.6207 C   0  0  0  0  0  0  0  0  0  0  0  0
   22.0602   -5.7068  -12.5438 C   0  0  0  0  0  0  0  0  0  0  0  0
   21.6821   -7.0354  -12.5998 C   0  0  0  0  0  0  0  0  0  0  0  0
   21.9516   -7.8271  -13.7038 C   0  0  0  0  0  0  0  0  0  0  0  0
   22.6124   -8.2680  -18.3638 C   0  0  0  0  0  0  0  0  0  0  0  0
   21.8598   -9.2116  -18.7107 O   0  0  0  0  0  0  0  0  0  0  0  0
   27.2386   -8.5213  -22.5932 C   0  0  0  0  0  0  0  0  0  0  0  0
   25.8677   -9.0530  -22.1355 C   0  0  2  0  0  0  0  0  0  0  0  0
   24.9260   -8.6553  -23.2776 C   0  0  0  0  0  0  0  0  0  0  0  0
   25.4624   -8.3182  -20.8978 C   0  0  0  0  0  0  0  0  0  0  0  0
   24.2188   -8.7612  -20.2349 C   0  0  2  0  0  0  0  0  0  0  0  0
   23.7849   -7.9774  -19.1079 N   0  0  0  0  0  0  0  0  0  0  0  0
   24.3294  -10.2057  -19.8864 C   0  0  0  0  0  0  0  0  0  0  0  0
   24.8079  -10.5857  -18.7916 O   0  0  0  0  0  0  0  0  0  0  0  0
   18.7068  -15.0360  -16.7174 N   0  0  0  0  0  0  0  0  0  0  0  0
   19.3774  -15.9800  -17.5411 C   0  0  0  0  0  0  0  0  0  0  0  0
   19.0488  -17.2248  -17.5062 N   0  0  0  0  0  0  0  0  0  0  0  0
   20.4147  -15.6276  -18.4295 N   0  0  0  0  0  0  0  0  0  0  0  0
   20.8506  -14.2414  -18.5587 C   0  0  0  0  0  0  0  0  0  0  0  0
   21.9207  -14.0738  -19.5591 C   0  0  0  0  0  0  0  0  0  0  0  0
   22.6110  -12.8152  -19.7615 C   0  0  0  0  0  0  0  0  0  0  0  0
   23.9085  -12.6539  -20.4290 C   0  0  2  0  0  0  0  0  0  0  0  0
   23.8919  -11.1746  -20.7936 N   0  0  0  0  0  0  0  0  0  0  0  0
   24.1536  -13.2879  -21.7122 C   0  0  0  0  0  0  0  0  0  0  0  0
   24.5495  -14.4571  -21.8255 O   0  0  0  0  0  0  0  0  0  0  0  0
   23.9592  -12.6206  -22.9421 O   0  0  0  0  0  0  0  0  0  0  0  0
  2  1  1  1
  3  2  1  0
  4  3  1  0
  4  5  2  0
  6  5  1  0
  7  6  2  0
  8  9  2  0
  8  7  1  0
  9  4  1  0
 10  2  1  0
 11 10  2  0
 13 12  1  6
 13 14  1  0
 15 13  1  0
 16 15  1  1
 16 17  1  0
 17 10  1  0
 18 16  1  0
 19 18  2  0
 20 21  1  0
 21 23  1  0
 21 22  2  0
 23 24  1  0
 25 24  1  0
 26 25  1  0
 27 26  1  6
 27 28  1  0
 28 18  1  0
 29 31  1  0
 29 27  1  0
 30 29  2  0
M  END
$$$$
