FLR.pdb
     RDKit          3D

 31 31  0  0  1  0  0  0  0  0999 V2000
   28.9873  -22.4472  -15.1871 N   0  0  0  0  0  0  0  0  0  0  0  0
   28.4198  -21.2346  -14.6929 C   0  0  1  0  0  0  0  0  0  0  0  0
   27.6870  -20.5434  -15.8203 C   0  0  0  0  0  0  0  0  0  0  0  0
   27.0785  -19.2877  -15.3125 C   0  0  0  0  0  0  0  0  0  0  0  0
   27.8733  -18.2073  -15.0034 C   0  0  0  0  0  0  0  0  0  0  0  0
   27.2955  -17.0491  -14.5327 C   0  0  0  0  0  0  0  0  0  0  0  0
   25.9205  -16.9788  -14.3737 C   0  0  0  0  0  0  0  0  0  0  0  0
   25.1454  -18.0786  -14.6918 C   0  0  0  0  0  0  0  0  0  0  0  0
   25.7030  -19.2542  -15.1665 C   0  0  0  0  0  0  0  0  0  0  0  0
   27.4757  -21.4496  -13.5627 C   0  0  0  0  0  0  0  0  0  0  0  0
   26.5631  -22.2991  -13.7137 O   0  0  0  0  0  0  0  0  0  0  0  0
   25.7574  -19.8784   -8.5274 C   0  0  0  0  0  0  0  0  0  0  0  0
   26.6715  -21.1118   -8.6500 C   0  0  2  0  0  0  0  0  0  0  0  0
   27.5823  -21.0106   -7.4214 C   0  0  0  0  0  0  0  0  0  0  0  0
   27.5055  -20.9641   -9.8825 C   0  0  0  0  0  0  0  0  0  0  0  0
   26.7988  -21.0231  -11.1783 C   0  0  2  0  0  0  0  0  0  0  0  0
   27.5868  -20.7275  -12.3464 N   0  0  0  0  0  0  0  0  0  0  0  0
   25.5748  -20.1758  -11.1154 C   0  0  0  0  0  0  0  0  0  0  0  0
   25.6309  -18.9271  -11.2131 O   0  0  0  0  0  0  0  0  0  0  0  0
   22.6358  -20.1494  -17.6667 N   0  0  0  0  0  0  0  0  0  0  0  0
   21.4786  -20.8892  -17.3021 C   0  0  0  0  0  0  0  0  0  0  0  0
   20.3678  -20.7125  -17.9295 N   0  0  0  0  0  0  0  0  0  0  0  0
   21.4693  -21.8421  -16.2621 N   0  0  0  0  0  0  0  0  0  0  0  0
   22.5761  -21.9274  -15.3156 C   0  0  0  0  0  0  0  0  0  0  0  0
   22.3459  -21.1263  -14.0994 C   0  0  0  0  0  0  0  0  0  0  0  0
   23.2952  -21.0770  -13.0048 C   0  0  0  0  0  0  0  0  0  0  0  0
   23.1192  -20.3204  -11.7592 C   0  0  2  0  0  0  0  0  0  0  0  0
   24.3237  -20.7744  -10.9438 N   0  0  0  0  0  0  0  0  0  0  0  0
   22.0106  -20.6226  -10.8713 C   0  0  0  0  0  0  0  0  0  0  0  0
   20.8603  -20.1994  -11.0556 O   0  0  0  0  0  0  0  0  0  0  0  0
   22.1537  -21.4283   -9.7197 O   0  0  0  0  0  0  0  0  0  0  0  0
  2  1  1  6
  3  2  1  0
  4  3  1  0
  4  5  2  0
  6  5  1  0
  7  6  2  0
  8  9  2  0
  8  7  1  0
  9  4  1  0
 10  2  1  0
 11 10  2  0
 13 12  1  1
 13 14  1  0
 15 13  1  0
 16 15  1  1
 16 17  1  0
 17 10  1  0
 18 16  1  0
 19 18  2  0
 20 21  1  0
 21 23  1  0
 21 22  2  0
 23 24  1  0
 25 24  1  0
 26 25  1  0
 27 26  1  6
 27 28  1  0
 28 18  1  0
 29 31  1  0
 29 27  1  0
 30 29  2  0
M  END
$$$$
