FLR.pdb
     RDKit          3D

 31 31  0  0  1  0  0  0  0  0999 V2000
   28.3254  -20.4581   -8.1545 N   0  0  0  0  0  0  0  0  0  0  0  0
   26.9041  -20.5500   -8.0641 C   0  0  1  0  0  0  0  0  0  0  0  0
   26.4202  -19.5971   -6.9947 C   0  0  0  0  0  0  0  0  0  0  0  0
   27.2997  -19.7093   -5.8034 C   0  0  0  0  0  0  0  0  0  0  0  0
   27.1481  -20.7587   -4.9257 C   0  0  0  0  0  0  0  0  0  0  0  0
   27.9703  -20.8499   -3.8247 C   0  0  0  0  0  0  0  0  0  0  0  0
   28.9432  -19.8869   -3.6079 C   0  0  0  0  0  0  0  0  0  0  0  0
   29.0741  -18.8433   -4.5052 C   0  0  0  0  0  0  0  0  0  0  0  0
   28.2594  -18.7297   -5.6195 C   0  0  0  0  0  0  0  0  0  0  0  0
   26.2155  -20.2304   -9.3441 C   0  0  0  0  0  0  0  0  0  0  0  0
   25.7536  -19.0716   -9.4887 O   0  0  0  0  0  0  0  0  0  0  0  0
   27.2756  -18.6921  -13.1127 C   0  0  0  0  0  0  0  0  0  0  0  0
   27.7009  -20.1365  -12.7894 C   0  0  2  0  0  0  0  0  0  0  0  0
   28.6069  -20.5185  -13.9652 C   0  0  0  0  0  0  0  0  0  0  0  0
   26.4849  -21.0065  -12.8146 C   0  0  0  0  0  0  0  0  0  0  0  0
   25.5468  -20.8765  -11.6809 C   0  0  2  0  0  0  0  0  0  0  0  0
   26.0751  -21.1907  -10.3790 N   0  0  0  0  0  0  0  0  0  0  0  0
   24.3078  -21.6520  -11.9702 C   0  0  0  0  0  0  0  0  0  0  0  0
   24.2914  -22.9053  -11.9397 O   0  0  0  0  0  0  0  0  0  0  0  0
   17.2690  -22.6570   -9.2105 N   0  0  0  0  0  0  0  0  0  0  0  0
   17.8570  -23.9240   -8.9492 C   0  0  0  0  0  0  0  0  0  0  0  0
   17.1227  -24.9791   -8.8697 N   0  0  0  0  0  0  0  0  0  0  0  0
   19.2438  -24.1073   -8.7685 N   0  0  0  0  0  0  0  0  0  0  0  0
   20.1831  -23.0241   -9.0382 C   0  0  0  0  0  0  0  0  0  0  0  0
   20.4902  -22.8833  -10.4734 C   0  0  0  0  0  0  0  0  0  0  0  0
   21.4546  -21.9246  -10.9757 C   0  0  0  0  0  0  0  0  0  0  0  0
   21.8008  -21.7262  -12.3885 C   0  0  2  0  0  0  0  0  0  0  0  0
   23.1244  -20.9785  -12.2850 N   0  0  0  0  0  0  0  0  0  0  0  0
   21.0057  -20.8381  -13.2177 C   0  0  0  0  0  0  0  0  0  0  0  0
   21.1675  -19.6094  -13.2433 O   0  0  0  0  0  0  0  0  0  0  0  0
   19.9782  -21.3047  -14.0676 O   0  0  0  0  0  0  0  0  0  0  0  0
  2  1  1  6
  3  2  1  0
  4  3  1  0
  4  5  2  0
  6  5  1  0
  7  6  2  0
  8  9  2  0
  8  7  1  0
  9  4  1  0
 10  2  1  0
 11 10  2  0
 13 12  1  6
 13 14  1  0
 15 13  1  0
 16 15  1  6
 16 17  1  0
 17 10  1  0
 18 16  1  0
 19 18  2  0
 20 21  1  0
 21 23  1  0
 21 22  2  0
 23 24  1  0
 25 24  1  0
 26 25  1  0
 27 26  1  1
 27 28  1  0
 28 18  1  0
 29 31  1  0
 29 27  1  0
 30 29  2  0
M  END
$$$$
