FLR.pdb
     RDKit          3D

 31 31  0  0  1  0  0  0  0  0999 V2000
   22.6932  -13.2514  -19.6672 N   0  0  0  0  0  0  0  0  0  0  0  0
   22.7019  -11.8248  -19.6318 C   0  0  1  0  0  0  0  0  0  0  0  0
   22.1652  -11.3005  -20.9444 C   0  0  0  0  0  0  0  0  0  0  0  0
   23.0772  -11.7058  -22.0440 C   0  0  0  0  0  0  0  0  0  0  0  0
   22.6534  -12.5966  -23.0039 C   0  0  0  0  0  0  0  0  0  0  0  0
   23.5099  -12.9642  -24.0177 C   0  0  0  0  0  0  0  0  0  0  0  0
   24.7904  -12.4359  -24.0651 C   0  0  0  0  0  0  0  0  0  0  0  0
   25.1906  -11.5429  -23.0885 C   0  0  0  0  0  0  0  0  0  0  0  0
   24.3477  -11.1581  -22.0591 C   0  0  0  0  0  0  0  0  0  0  0  0
   21.8898  -11.2632  -18.5183 C   0  0  0  0  0  0  0  0  0  0  0  0
   20.8282  -11.8581  -18.2081 O   0  0  0  0  0  0  0  0  0  0  0  0
   21.5142  -11.2539  -14.1116 C   0  0  0  0  0  0  0  0  0  0  0  0
   22.7298  -10.5608  -14.7549 C   0  0  2  0  0  0  0  0  0  0  0  0
   23.5848  -10.1419  -13.5538 C   0  0  0  0  0  0  0  0  0  0  0  0
   22.2561   -9.3315  -15.4624 C   0  0  0  0  0  0  0  0  0  0  0  0
   21.5276   -9.5302  -16.7320 C   0  0  2  0  0  0  0  0  0  0  0  0
   22.2855  -10.0941  -17.8185 N   0  0  0  0  0  0  0  0  0  0  0  0
   20.8665   -8.2556  -17.1300 C   0  0  0  0  0  0  0  0  0  0  0  0
   21.5055   -7.3206  -17.6679 O   0  0  0  0  0  0  0  0  0  0  0  0
   14.9655   -6.5676  -14.7710 N   0  0  0  0  0  0  0  0  0  0  0  0
   13.9669   -5.9285  -15.5545 C   0  0  0  0  0  0  0  0  0  0  0  0
   13.0340   -5.2441  -14.9889 N   0  0  0  0  0  0  0  0  0  0  0  0
   13.9332   -5.9949  -16.9630 N   0  0  0  0  0  0  0  0  0  0  0  0
   14.8816   -6.8266  -17.6958 C   0  0  0  0  0  0  0  0  0  0  0  0
   16.2662   -6.3294  -17.5980 C   0  0  0  0  0  0  0  0  0  0  0  0
   17.3974   -7.2070  -17.3707 C   0  0  0  0  0  0  0  0  0  0  0  0
   18.7997   -6.7821  -17.2811 C   0  0  2  0  0  0  0  0  0  0  0  0
   19.4981   -8.0830  -16.9045 N   0  0  0  0  0  0  0  0  0  0  0  0
   19.2244   -5.8832  -16.2227 C   0  0  0  0  0  0  0  0  0  0  0  0
   19.5370   -6.2723  -15.0881 O   0  0  0  0  0  0  0  0  0  0  0  0
   19.3171   -4.4849  -16.4013 O   0  0  0  0  0  0  0  0  0  0  0  0
  2  1  1  6
  3  2  1  0
  4  3  1  0
  4  5  2  0
  6  5  1  0
  7  6  2  0
  8  9  2  0
  8  7  1  0
  9  4  1  0
 10  2  1  0
 11 10  2  0
 13 12  1  1
 13 14  1  0
 15 13  1  0
 16 15  1  1
 16 17  1  0
 17 10  1  0
 18 16  1  0
 19 18  2  0
 20 21  1  0
 21 23  1  0
 21 22  2  0
 23 24  1  0
 25 24  1  0
 26 25  1  0
 27 26  1  1
 27 28  1  0
 28 18  1  0
 29 31  1  0
 29 27  1  0
 30 29  2  0
M  END
$$$$
