FLR.pdb
     RDKit          3D

 31 31  0  0  1  0  0  0  0  0999 V2000
   26.5864  -18.4430   -7.9541 N   0  0  0  0  0  0  0  0  0  0  0  0
   26.8652  -19.7459   -8.4652 C   0  0  1  0  0  0  0  0  0  0  0  0
   26.6675  -20.7572   -7.3588 C   0  0  0  0  0  0  0  0  0  0  0  0
   27.6420  -20.4902   -6.2706 C   0  0  0  0  0  0  0  0  0  0  0  0
   28.9808  -20.3499   -6.5574 C   0  0  0  0  0  0  0  0  0  0  0  0
   29.8735  -20.1031   -5.5382 C   0  0  0  0  0  0  0  0  0  0  0  0
   29.4193  -19.9978   -4.2330 C   0  0  0  0  0  0  0  0  0  0  0  0
   28.0692  -20.1428   -3.9726 C   0  0  0  0  0  0  0  0  0  0  0  0
   27.1522  -20.3915   -4.9803 C   0  0  0  0  0  0  0  0  0  0  0  0
   26.0027  -20.1174   -9.6197 C   0  0  0  0  0  0  0  0  0  0  0  0
   24.7621  -19.9638   -9.4989 O   0  0  0  0  0  0  0  0  0  0  0  0
   26.8711  -17.9208  -13.6379 C   0  0  0  0  0  0  0  0  0  0  0  0
   27.7405  -19.1577  -13.3444 C   0  0  2  0  0  0  0  0  0  0  0  0
   28.6284  -19.2789  -14.5879 C   0  0  0  0  0  0  0  0  0  0  0  0
   26.8502  -20.3568  -13.2684 C   0  0  0  0  0  0  0  0  0  0  0  0
   25.9324  -20.4352  -12.1136 C   0  0  2  0  0  0  0  0  0  0  0  0
   26.5459  -20.6305  -10.8258 N   0  0  0  0  0  0  0  0  0  0  0  0
   24.8841  -21.4597  -12.3811 C   0  0  0  0  0  0  0  0  0  0  0  0
   25.0996  -22.6836  -12.2145 O   0  0  0  0  0  0  0  0  0  0  0  0
   17.6503  -24.0434  -11.5169 N   0  0  0  0  0  0  0  0  0  0  0  0
   18.0389  -23.7251  -10.1875 C   0  0  0  0  0  0  0  0  0  0  0  0
   17.7307  -24.5091   -9.2133 N   0  0  0  0  0  0  0  0  0  0  0  0
   18.7701  -22.5656   -9.8553 N   0  0  0  0  0  0  0  0  0  0  0  0
   19.2144  -21.6389  -10.8907 C   0  0  0  0  0  0  0  0  0  0  0  0
   20.2250  -22.2307  -11.7864 C   0  0  0  0  0  0  0  0  0  0  0  0
   21.4736  -21.5657  -12.1032 C   0  0  0  0  0  0  0  0  0  0  0  0
   22.5012  -22.0761  -13.0190 C   0  0  2  0  0  0  0  0  0  0  0  0
   23.6219  -21.0613  -12.8297 N   0  0  0  0  0  0  0  0  0  0  0  0
   22.2850  -22.0368  -14.4544 C   0  0  0  0  0  0  0  0  0  0  0  0
   22.6046  -21.0702  -15.1614 O   0  0  0  0  0  0  0  0  0  0  0  0
   21.6903  -23.1029  -15.1655 O   0  0  0  0  0  0  0  0  0  0  0  0
  2  1  1  1
  3  2  1  0
  4  3  1  0
  4  5  2  0
  6  5  1  0
  7  6  2  0
  8  9  2  0
  8  7  1  0
  9  4  1  0
 10  2  1  0
 11 10  2  0
 13 12  1  6
 13 14  1  0
 15 13  1  0
 16 15  1  6
 16 17  1  0
 17 10  1  0
 18 16  1  0
 19 18  2  0
 20 21  1  0
 21 23  1  0
 21 22  2  0
 23 24  1  0
 25 24  1  0
 26 25  1  0
 27 26  1  1
 27 28  1  0
 28 18  1  0
 29 31  1  0
 29 27  1  0
 30 29  2  0
M  END
$$$$
