FLR.pdb
     RDKit          3D

 31 31  0  0  1  0  0  0  0  0999 V2000
   20.4742  -20.3168  -12.4677 N   0  0  0  0  0  0  0  0  0  0  0  0
   21.3503  -21.2805  -13.0511 C   0  0  1  0  0  0  0  0  0  0  0  0
   20.9176  -21.5337  -14.4774 C   0  0  0  0  0  0  0  0  0  0  0  0
   19.6278  -22.2696  -14.4753 C   0  0  0  0  0  0  0  0  0  0  0  0
   19.6095  -23.6368  -14.3172 C   0  0  0  0  0  0  0  0  0  0  0  0
   18.4061  -24.3065  -14.3178 C   0  0  0  0  0  0  0  0  0  0  0  0
   17.2236  -23.6012  -14.4770 C   0  0  0  0  0  0  0  0  0  0  0  0
   17.2704  -22.2284  -14.6337 C   0  0  0  0  0  0  0  0  0  0  0  0
   18.4680  -21.5326  -14.6367 C   0  0  0  0  0  0  0  0  0  0  0  0
   22.7756  -20.8523  -13.0469 C   0  0  0  0  0  0  0  0  0  0  0  0
   23.0551  -19.7379  -13.5540 O   0  0  0  0  0  0  0  0  0  0  0  0
   25.6068  -19.8698   -9.8296 C   0  0  0  0  0  0  0  0  0  0  0  0
   25.5074  -21.3974   -9.9978 C   0  0  2  0  0  0  0  0  0  0  0  0
   26.4918  -21.9407   -8.9561 C   0  0  0  0  0  0  0  0  0  0  0  0
   26.0011  -21.7581  -11.3625 C   0  0  0  0  0  0  0  0  0  0  0  0
   25.1919  -21.2969  -12.5091 C   0  0  2  0  0  0  0  0  0  0  0  0
   23.7996  -21.6633  -12.4932 N   0  0  0  0  0  0  0  0  0  0  0  0
   25.8515  -21.7089  -13.7801 C   0  0  0  0  0  0  0  0  0  0  0  0
   25.9210  -22.9114  -14.1279 O   0  0  0  0  0  0  0  0  0  0  0  0
   22.1622  -20.0002  -18.0701 N   0  0  0  0  0  0  0  0  0  0  0  0
   22.5737  -20.7061  -19.2328 C   0  0  0  0  0  0  0  0  0  0  0  0
   21.7383  -21.4463  -19.8754 N   0  0  0  0  0  0  0  0  0  0  0  0
   23.8848  -20.6425  -19.7489 N   0  0  0  0  0  0  0  0  0  0  0  0
   24.8956  -19.7978  -19.1221 C   0  0  0  0  0  0  0  0  0  0  0  0
   25.8525  -20.5678  -18.3063 C   0  0  0  0  0  0  0  0  0  0  0  0
   25.9764  -20.3915  -16.8728 C   0  0  0  0  0  0  0  0  0  0  0  0
   26.9220  -21.1054  -16.0061 C   0  0  2  0  0  0  0  0  0  0  0  0
   26.4118  -20.7404  -14.6175 N   0  0  0  0  0  0  0  0  0  0  0  0
   28.3126  -20.6918  -15.9453 C   0  0  0  0  0  0  0  0  0  0  0  0
   28.7276  -19.8237  -15.1639 O   0  0  0  0  0  0  0  0  0  0  0  0
   29.3108  -21.2485  -16.7756 O   0  0  0  0  0  0  0  0  0  0  0  0
  2  1  1  6
  3  2  1  0
  4  3  1  0
  4  5  2  0
  6  5  1  0
  7  6  2  0
  8  9  2  0
  8  7  1  0
  9  4  1  0
 10  2  1  0
 11 10  2  0
 13 12  1  6
 13 14  1  0
 15 13  1  0
 16 15  1  1
 16 17  1  0
 17 10  1  0
 18 16  1  0
 19 18  2  0
 20 21  1  0
 21 23  1  0
 21 22  2  0
 23 24  1  0
 25 24  1  0
 26 25  1  0
 27 26  1  6
 27 28  1  0
 28 18  1  0
 29 31  1  0
 29 27  1  0
 30 29  2  0
M  END
$$$$
