FLR.pdb
     RDKit          3D

 31 31  0  0  1  0  0  0  0  0999 V2000
   23.6602  -18.7576  -17.7517 N   0  0  0  0  0  0  0  0  0  0  0  0
   24.2925  -18.0847  -16.6636 C   0  0  1  0  0  0  0  0  0  0  0  0
   23.2812  -17.1824  -15.9935 C   0  0  0  0  0  0  0  0  0  0  0  0
   22.9886  -16.0290  -16.8819 C   0  0  0  0  0  0  0  0  0  0  0  0
   23.8950  -15.0004  -17.0044 C   0  0  0  0  0  0  0  0  0  0  0  0
   23.6103  -13.9367  -17.8314 C   0  0  0  0  0  0  0  0  0  0  0  0
   22.4157  -13.9086  -18.5337 C   0  0  0  0  0  0  0  0  0  0  0  0
   21.5230  -14.9548  -18.3925 C   0  0  0  0  0  0  0  0  0  0  0  0
   21.7865  -16.0352  -17.5670 C   0  0  0  0  0  0  0  0  0  0  0  0
   24.8564  -19.0163  -15.6492 C   0  0  0  0  0  0  0  0  0  0  0  0
   24.1608  -20.0051  -15.3094 O   0  0  0  0  0  0  0  0  0  0  0  0
   29.0191  -21.5541  -14.9250 C   0  0  0  0  0  0  0  0  0  0  0  0
   29.0307  -20.0142  -14.9101 C   0  0  2  0  0  0  0  0  0  0  0  0
   30.4801  -19.6669  -14.5528 C   0  0  0  0  0  0  0  0  0  0  0  0
   28.1358  -19.5432  -13.8084 C   0  0  0  0  0  0  0  0  0  0  0  0
   26.6805  -19.6503  -14.0380 C   0  0  2  0  0  0  0  0  0  0  0  0
   26.1365  -18.8103  -15.0730 N   0  0  0  0  0  0  0  0  0  0  0  0
   25.9593  -19.4647  -12.7474 C   0  0  0  0  0  0  0  0  0  0  0  0
   25.7416  -18.3257  -12.2708 O   0  0  0  0  0  0  0  0  0  0  0  0
   21.4024  -22.8101  -14.2857 N   0  0  0  0  0  0  0  0  0  0  0  0
   20.4546  -23.0272  -13.2494 C   0  0  0  0  0  0  0  0  0  0  0  0
   19.7170  -24.0829  -13.2517 N   0  0  0  0  0  0  0  0  0  0  0  0
   20.2660  -22.1299  -12.1775 N   0  0  0  0  0  0  0  0  0  0  0  0
   21.0948  -20.9366  -12.0461 C   0  0  0  0  0  0  0  0  0  0  0  0
   22.3863  -21.2119  -11.3904 C   0  0  0  0  0  0  0  0  0  0  0  0
   23.3870  -20.1856  -11.1733 C   0  0  0  0  0  0  0  0  0  0  0  0
   24.7626  -20.4210  -10.7179 C   0  0  2  0  0  0  0  0  0  0  0  0
   25.5069  -20.5805  -12.0379 N   0  0  0  0  0  0  0  0  0  0  0  0
   25.1009  -21.6483  -10.0196 C   0  0  0  0  0  0  0  0  0  0  0  0
   25.6470  -22.6140  -10.5726 O   0  0  0  0  0  0  0  0  0  0  0  0
   24.8345  -21.8423   -8.6458 O   0  0  0  0  0  0  0  0  0  0  0  0
  2  1  1  6
  3  2  1  0
  4  3  1  0
  4  5  2  0
  6  5  1  0
  7  6  2  0
  8  9  2  0
  8  7  1  0
  9  4  1  0
 10  2  1  0
 11 10  2  0
 13 12  1  1
 13 14  1  0
 15 13  1  0
 16 15  1  1
 16 17  1  0
 17 10  1  0
 18 16  1  0
 19 18  2  0
 20 21  1  0
 21 23  1  0
 21 22  2  0
 23 24  1  0
 25 24  1  0
 26 25  1  0
 27 26  1  6
 27 28  1  0
 28 18  1  0
 29 31  1  0
 29 27  1  0
 30 29  2  0
M  END
$$$$
