YWT.pdb
     RDKit          3D

 34 36  0  0  1  0  0  0  0  0999 V2000
   10.8475  -21.4399   15.2297 O   0  0  0  0  0  0  0  0  0  0  0  0
   10.7801  -20.7263   16.4305 C   0  0  0  0  0  0  0  0  0  0  0  0
   11.8313  -19.9525   16.8460 C   0  0  0  0  0  0  0  0  0  0  0  0
   11.7658  -19.2420   18.0405 C   0  0  0  0  0  0  0  0  0  0  0  0
   10.6495  -19.2861   18.8498 C   0  0  0  0  0  0  0  0  0  0  0  0
   10.6327  -18.5134   20.1054 C   0  0  0  0  0  0  0  0  0  0  0  0
   10.2923  -17.0657   19.8975 C   0  0  2  0  0  0  0  0  0  0  0  0
   11.2892  -16.3443   19.1511 N   0  0  0  0  0  0  0  0  0  0  0  0
   10.1257  -16.4410   21.2440 C   0  0  0  0  0  0  0  0  0  0  0  0
   11.1169  -15.9130   21.8097 O   0  0  0  0  0  0  0  0  0  0  0  0
    9.5990  -20.0694   18.4182 C   0  0  0  0  0  0  0  0  0  0  0  0
    9.6564  -20.7811   17.2283 C   0  0  0  0  0  0  0  0  0  0  0  0
    8.8734  -16.4219   21.9160 N   0  0  0  0  0  0  0  0  0  0  0  0
    8.6471  -15.7821   23.1948 C   0  0  1  0  0  0  0  0  0  0  0  0
    7.2256  -15.3521   23.3572 C   0  0  0  0  0  0  0  0  0  0  0  0
    6.9226  -14.8842   24.7330 C   0  0  0  0  0  0  0  0  0  0  0  0
    6.3673  -15.5944   25.7776 C   0  0  0  0  0  0  0  0  0  0  0  0
    6.2547  -14.8095   26.8607 N   0  0  0  0  0  0  0  0  0  0  0  0
    6.7246  -13.5997   26.5478 C   0  0  0  0  0  0  0  0  0  0  0  0
    6.8617  -12.3989   27.2507 C   0  0  0  0  0  0  0  0  0  0  0  0
    7.3987  -11.3037   26.6223 C   0  0  0  0  0  0  0  0  0  0  0  0
    7.8107  -11.3421   25.3171 C   0  0  0  0  0  0  0  0  0  0  0  0
    7.6840  -12.5056   24.6173 C   0  0  0  0  0  0  0  0  0  0  0  0
    7.1419  -13.6185   25.2448 C   0  0  0  0  0  0  0  0  0  0  0  0
    9.1218  -16.7057   24.2509 C   0  0  0  0  0  0  0  0  0  0  0  0
    8.7270  -17.9012   24.1771 O   0  0  0  0  0  0  0  0  0  0  0  0
   11.8785  -18.4755   24.5629 C   0  0  0  0  0  0  0  0  0  0  0  0
   11.8792  -17.7509   25.8995 C   0  0  1  0  0  0  0  0  0  0  0  0
   12.7187  -16.6376   25.8196 O   0  0  0  0  0  0  0  0  0  0  0  0
   10.4575  -17.3579   26.2077 C   0  0  2  0  0  0  0  0  0  0  0  0
    9.9647  -16.3427   25.3061 N   0  0  0  0  0  0  0  0  0  0  0  0
   10.4546  -16.8476   27.6257 C   0  0  0  0  0  0  0  0  0  0  0  0
   10.7627  -17.6998   28.6754 O   0  0  0  0  0  0  0  0  0  0  0  0
   10.1789  -15.6562   27.9063 O   0  0  0  0  0  0  0  0  0  0  0  0
  2  1  1  0
  3  2  2  0
  4  3  1  0
  5 11  1  0
  5  4  2  0
  6  7  1  0
  6  5  1  0
  7  9  1  0
  7  8  1  1
  9 10  2  0
 11 12  2  0
 12  2  1  0
 13 14  1  0
 13  9  1  0
 14 25  1  0
 15 16  1  0
 14 15  1  1
 16 24  1  0
 17 16  2  0
 17 18  1  0
 18 19  1  0
 19 20  1  0
 20 21  2  0
 22 21  1  0
 23 22  2  0
 24 19  2  0
 24 23  1  0
 25 31  1  0
 26 25  2  0
 28 27  1  6
 28 29  1  0
 30 28  1  0
 30 31  1  6
 32 30  1  0
 33 32  1  0
 34 32  2  0
M  END
$$$$
