YWT.pdb
     RDKit          3D

 34 36  0  0  1  0  0  0  0  0999 V2000
   10.3284  -21.3903   14.8260 O   0  0  0  0  0  0  0  0  0  0  0  0
   10.3478  -20.6174   15.9913 C   0  0  0  0  0  0  0  0  0  0  0  0
   11.4871  -20.5135   16.7446 C   0  0  0  0  0  0  0  0  0  0  0  0
   11.5080  -19.7449   17.9042 C   0  0  0  0  0  0  0  0  0  0  0  0
   10.3923  -19.0609   18.3406 C   0  0  0  0  0  0  0  0  0  0  0  0
   10.4692  -18.2606   19.5766 C   0  0  0  0  0  0  0  0  0  0  0  0
    9.9523  -16.8617   19.4015 C   0  0  2  0  0  0  0  0  0  0  0  0
   10.7769  -16.0491   18.5463 N   0  0  0  0  0  0  0  0  0  0  0  0
    9.8671  -16.2368   20.7555 C   0  0  0  0  0  0  0  0  0  0  0  0
   10.8041  -15.5019   21.1595 O   0  0  0  0  0  0  0  0  0  0  0  0
    9.2526  -19.1750   17.5716 C   0  0  0  0  0  0  0  0  0  0  0  0
    9.2235  -19.9395   16.4138 C   0  0  0  0  0  0  0  0  0  0  0  0
    8.7528  -16.4455   21.6128 N   0  0  0  0  0  0  0  0  0  0  0  0
    8.6030  -15.8308   22.9150 C   0  0  1  0  0  0  0  0  0  0  0  0
    7.2128  -15.3308   23.1369 C   0  0  0  0  0  0  0  0  0  0  0  0
    6.9835  -14.8767   24.5315 C   0  0  0  0  0  0  0  0  0  0  0  0
    6.4659  -15.5917   25.5920 C   0  0  0  0  0  0  0  0  0  0  0  0
    6.4184  -14.8200   26.6893 N   0  0  0  0  0  0  0  0  0  0  0  0
    6.8941  -13.6141   26.3700 C   0  0  0  0  0  0  0  0  0  0  0  0
    7.0853  -12.4255   27.0811 C   0  0  0  0  0  0  0  0  0  0  0  0
    7.6110  -11.3310   26.4420 C   0  0  0  0  0  0  0  0  0  0  0  0
    7.9601  -11.3584   25.1183 C   0  0  0  0  0  0  0  0  0  0  0  0
    7.7801  -12.5099   24.4104 C   0  0  0  0  0  0  0  0  0  0  0  0
    7.2488  -13.6221   25.0485 C   0  0  0  0  0  0  0  0  0  0  0  0
    9.0612  -16.8078   23.9296 C   0  0  0  0  0  0  0  0  0  0  0  0
    8.5041  -17.9391   23.9187 O   0  0  0  0  0  0  0  0  0  0  0  0
   12.0479  -18.5722   24.0800 C   0  0  0  0  0  0  0  0  0  0  0  0
   11.9549  -17.9852   25.4794 C   0  0  1  0  0  0  0  0  0  0  0  0
   12.7840  -16.8645   25.5650 O   0  0  0  0  0  0  0  0  0  0  0  0
   10.5118  -17.6334   25.7331 C   0  0  2  0  0  0  0  0  0  0  0  0
   10.0545  -16.5596   24.8822 N   0  0  0  0  0  0  0  0  0  0  0  0
   10.4200  -17.2309   27.1824 C   0  0  0  0  0  0  0  0  0  0  0  0
   10.7131  -18.1466   28.1817 O   0  0  0  0  0  0  0  0  0  0  0  0
   10.0817  -16.0751   27.5346 O   0  0  0  0  0  0  0  0  0  0  0  0
  2  1  1  0
  3  2  2  0
  4  3  1  0
  5 11  1  0
  5  4  2  0
  6  7  1  0
  6  5  1  0
  7  9  1  0
  7  8  1  6
  9 10  2  0
 11 12  2  0
 12  2  1  0
 13 14  1  0
 13  9  1  0
 14 25  1  0
 15 16  1  0
 14 15  1  1
 16 24  1  0
 17 16  2  0
 17 18  1  0
 18 19  1  0
 19 20  1  0
 20 21  2  0
 22 21  1  0
 23 22  2  0
 24 19  2  0
 24 23  1  0
 25 31  1  0
 26 25  2  0
 28 27  1  6
 28 29  1  0
 30 28  1  0
 30 31  1  6
 32 30  1  0
 33 32  1  0
 34 32  2  0
M  END
$$$$
