YWT.pdb
     RDKit          3D

 34 36  0  0  1  0  0  0  0  0999 V2000
    7.5467  -13.7255   16.3292 O   0  0  0  0  0  0  0  0  0  0  0  0
    7.8542  -13.8336   17.6891 C   0  0  0  0  0  0  0  0  0  0  0  0
    9.1309  -14.1137   18.0989 C   0  0  0  0  0  0  0  0  0  0  0  0
    9.4385  -14.2216   19.4515 C   0  0  0  0  0  0  0  0  0  0  0  0
    8.4795  -14.0525   20.4286 C   0  0  0  0  0  0  0  0  0  0  0  0
    8.8597  -14.1776   21.8477 C   0  0  0  0  0  0  0  0  0  0  0  0
    9.4645  -15.5122   22.1764 C   0  0  2  0  0  0  0  0  0  0  0  0
    8.5820  -16.6198   21.9196 N   0  0  0  0  0  0  0  0  0  0  0  0
    9.8402  -15.4964   23.6219 C   0  0  0  0  0  0  0  0  0  0  0  0
   10.6908  -14.6662   24.0326 O   0  0  0  0  0  0  0  0  0  0  0  0
    7.1985  -13.7709   20.0006 C   0  0  0  0  0  0  0  0  0  0  0  0
    6.8835  -13.6616   18.6537 C   0  0  0  0  0  0  0  0  0  0  0  0
    9.2646  -16.3959   24.5599 N   0  0  0  0  0  0  0  0  0  0  0  0
    9.6722  -16.4958   25.9455 C   0  0  1  0  0  0  0  0  0  0  0  0
    8.5035  -16.4355   26.8742 C   0  0  0  0  0  0  0  0  0  0  0  0
    7.4504  -15.4983   26.4092 C   0  0  0  0  0  0  0  0  0  0  0  0
    6.2749  -15.7889   25.7477 C   0  0  0  0  0  0  0  0  0  0  0  0
    5.5929  -14.6594   25.5011 N   0  0  0  0  0  0  0  0  0  0  0  0
    6.2969  -13.6344   25.9872 C   0  0  0  0  0  0  0  0  0  0  0  0
    6.0983  -12.2510   26.0265 C   0  0  0  0  0  0  0  0  0  0  0  0
    7.0412  -11.4479   26.6169 C   0  0  0  0  0  0  0  0  0  0  0  0
    8.1833  -11.9555   27.1763 C   0  0  0  0  0  0  0  0  0  0  0  0
    8.3923  -13.3027   27.1465 C   0  0  0  0  0  0  0  0  0  0  0  0
    7.4439  -14.1229   26.5512 C   0  0  0  0  0  0  0  0  0  0  0  0
   10.4915  -17.7215   26.0867 C   0  0  0  0  0  0  0  0  0  0  0  0
   10.4163  -18.3292   27.1892 O   0  0  0  0  0  0  0  0  0  0  0  0
   10.4735  -20.9680   24.1833 C   0  0  0  0  0  0  0  0  0  0  0  0
   11.8981  -20.4370   24.1747 C   0  0  1  0  0  0  0  0  0  0  0  0
   12.1508  -19.8157   22.9496 O   0  0  0  0  0  0  0  0  0  0  0  0
   12.0352  -19.4762   25.3275 C   0  0  2  0  0  0  0  0  0  0  0  0
   11.3286  -18.2385   25.0929 N   0  0  0  0  0  0  0  0  0  0  0  0
   13.5105  -19.2161   25.4917 C   0  0  0  0  0  0  0  0  0  0  0  0
   14.3711  -20.2542   25.8152 O   0  0  0  0  0  0  0  0  0  0  0  0
   14.0077  -18.0734   25.3454 O   0  0  0  0  0  0  0  0  0  0  0  0
  2  1  1  0
  3  2  2  0
  4  3  1  0
  5 11  1  0
  5  4  2  0
  6  7  1  0
  6  5  1  0
  7  9  1  0
  7  8  1  1
  9 10  2  0
 11 12  2  0
 12  2  1  0
 13 14  1  0
 13  9  1  0
 14 25  1  0
 15 16  1  0
 14 15  1  1
 16 24  1  0
 17 16  2  0
 17 18  1  0
 18 19  1  0
 19 20  1  0
 20 21  2  0
 22 21  1  0
 23 22  2  0
 24 19  2  0
 24 23  1  0
 25 31  1  0
 26 25  2  0
 28 27  1  6
 28 29  1  0
 30 28  1  0
 30 31  1  6
 32 30  1  0
 33 32  1  0
 34 32  2  0
M  END
$$$$
