YWT.pdb
     RDKit          3D

 34 36  0  0  1  0  0  0  0  0999 V2000
    7.4449  -13.6129   14.3910 O   0  0  0  0  0  0  0  0  0  0  0  0
    7.6731  -14.2831   15.5970 C   0  0  0  0  0  0  0  0  0  0  0  0
    7.6829  -15.6520   15.6472 C   0  0  0  0  0  0  0  0  0  0  0  0
    7.9098  -16.3203   16.8463 C   0  0  0  0  0  0  0  0  0  0  0  0
    8.1326  -15.6388   18.0250 C   0  0  0  0  0  0  0  0  0  0  0  0
    8.3679  -16.3966   19.2677 C   0  0  0  0  0  0  0  0  0  0  0  0
    9.7423  -16.1815   19.8333 C   0  0  2  0  0  0  0  0  0  0  0  0
   10.6959  -17.1749   19.4147 N   0  0  0  0  0  0  0  0  0  0  0  0
    9.6271  -16.1944   21.3224 C   0  0  0  0  0  0  0  0  0  0  0  0
   10.3317  -16.9921   21.9921 O   0  0  0  0  0  0  0  0  0  0  0  0
    8.1198  -14.2609   17.9586 C   0  0  0  0  0  0  0  0  0  0  0  0
    7.8943  -13.5868   16.7668 C   0  0  0  0  0  0  0  0  0  0  0  0
    8.7401  -15.3279   22.0170 N   0  0  0  0  0  0  0  0  0  0  0  0
    8.8250  -15.0440   23.4341 C   0  0  1  0  0  0  0  0  0  0  0  0
    7.8240  -14.0185   23.8564 C   0  0  0  0  0  0  0  0  0  0  0  0
    7.8715  -13.7379   25.3133 C   0  0  0  0  0  0  0  0  0  0  0  0
    8.5671  -14.4140   26.2946 C   0  0  0  0  0  0  0  0  0  0  0  0
    8.3461  -13.8465   27.4908 N   0  0  0  0  0  0  0  0  0  0  0  0
    7.5202  -12.8125   27.3140 C   0  0  0  0  0  0  0  0  0  0  0  0
    6.9484  -11.8680   28.1717 C   0  0  0  0  0  0  0  0  0  0  0  0
    6.1160  -10.9047   27.6600 C   0  0  0  0  0  0  0  0  0  0  0  0
    5.8204  -10.8318   26.3251 C   0  0  0  0  0  0  0  0  0  0  0  0
    6.3699  -11.7455   25.4749 C   0  0  0  0  0  0  0  0  0  0  0  0
    7.2129  -12.7236   25.9836 C   0  0  0  0  0  0  0  0  0  0  0  0
    8.7117  -16.3308   24.1588 C   0  0  0  0  0  0  0  0  0  0  0  0
    7.5850  -16.8968   24.1355 O   0  0  0  0  0  0  0  0  0  0  0  0
   10.0369  -19.5458   23.4297 C   0  0  0  0  0  0  0  0  0  0  0  0
   10.4747  -19.2888   24.8628 C   0  0  1  0  0  0  0  0  0  0  0  0
   11.8043  -18.8614   24.8688 O   0  0  0  0  0  0  0  0  0  0  0  0
    9.5510  -18.2497   25.4441 C   0  0  2  0  0  0  0  0  0  0  0  0
    9.7563  -16.9469   24.8552 N   0  0  0  0  0  0  0  0  0  0  0  0
    9.8341  -18.2081   26.9237 C   0  0  0  0  0  0  0  0  0  0  0  0
    9.5226  -19.2959   27.7253 O   0  0  0  0  0  0  0  0  0  0  0  0
   10.3521  -17.2082   27.4768 O   0  0  0  0  0  0  0  0  0  0  0  0
  2  1  1  0
  3  2  2  0
  4  3  1  0
  5 11  1  0
  5  4  2  0
  6  7  1  0
  6  5  1  0
  7  9  1  0
  7  8  1  1
  9 10  2  0
 11 12  2  0
 12  2  1  0
 13 14  1  0
 13  9  1  0
 14 25  1  0
 15 16  1  0
 14 15  1  1
 16 24  1  0
 17 16  2  0
 17 18  1  0
 18 19  1  0
 19 20  1  0
 20 21  2  0
 22 21  1  0
 23 22  2  0
 24 19  2  0
 24 23  1  0
 25 31  1  0
 26 25  2  0
 28 27  1  6
 28 29  1  0
 30 28  1  0
 30 31  1  6
 32 30  1  0
 33 32  1  0
 34 32  2  0
M  END
$$$$
