YWT.pdb
     RDKit          3D

 34 36  0  0  1  0  0  0  0  0999 V2000
    7.0769  -13.1670   16.1181 O   0  0  0  0  0  0  0  0  0  0  0  0
    7.3976  -13.3350   17.4689 C   0  0  0  0  0  0  0  0  0  0  0  0
    8.4694  -12.6847   18.0209 C   0  0  0  0  0  0  0  0  0  0  0  0
    8.7899  -12.8508   19.3647 C   0  0  0  0  0  0  0  0  0  0  0  0
    8.0484  -13.6699   20.1907 C   0  0  0  0  0  0  0  0  0  0  0  0
    8.4319  -13.8100   21.6076 C   0  0  0  0  0  0  0  0  0  0  0  0
    9.3890  -14.9423   21.8459 C   0  0  2  0  0  0  0  0  0  0  0  0
    8.9663  -16.1839   21.2534 N   0  0  0  0  0  0  0  0  0  0  0  0
    9.5289  -15.1146   23.3230 C   0  0  0  0  0  0  0  0  0  0  0  0
   10.0116  -14.1810   24.0134 O   0  0  0  0  0  0  0  0  0  0  0  0
    6.9722  -14.3180   19.6207 C   0  0  0  0  0  0  0  0  0  0  0  0
    6.6459  -14.1577   18.2815 C   0  0  0  0  0  0  0  0  0  0  0  0
    9.1319  -16.3091   23.9831 N   0  0  0  0  0  0  0  0  0  0  0  0
    9.3030  -16.5497   25.4004 C   0  0  1  0  0  0  0  0  0  0  0  0
    8.0055  -16.8634   26.0714 C   0  0  0  0  0  0  0  0  0  0  0  0
    7.1229  -15.6763   26.1946 C   0  0  0  0  0  0  0  0  0  0  0  0
    5.7447  -15.6342   26.2484 C   0  0  0  0  0  0  0  0  0  0  0  0
    5.3261  -14.3638   26.3599 N   0  0  0  0  0  0  0  0  0  0  0  0
    6.4011  -13.5723   26.3804 C   0  0  0  0  0  0  0  0  0  0  0  0
    6.5883  -12.1901   26.4777 C   0  0  0  0  0  0  0  0  0  0  0  0
    7.8608  -11.6769   26.4695 C   0  0  0  0  0  0  0  0  0  0  0  0
    8.9680  -12.4760   26.3685 C   0  0  0  0  0  0  0  0  0  0  0  0
    8.8028  -13.8263   26.2728 C   0  0  0  0  0  0  0  0  0  0  0  0
    7.5193  -14.3544   26.2802 C   0  0  0  0  0  0  0  0  0  0  0  0
   10.3328  -17.6026   25.5575 C   0  0  0  0  0  0  0  0  0  0  0  0
   10.5526  -18.0093   26.7308 O   0  0  0  0  0  0  0  0  0  0  0  0
   10.8812  -20.9228   23.4294 C   0  0  0  0  0  0  0  0  0  0  0  0
   12.1787  -20.1492   23.6016 C   0  0  1  0  0  0  0  0  0  0  0  0
   12.4557  -19.4468   22.4265 O   0  0  0  0  0  0  0  0  0  0  0  0
   12.0070  -19.2239   24.7785 C   0  0  2  0  0  0  0  0  0  0  0  0
   11.0640  -18.1642   24.5061 N   0  0  0  0  0  0  0  0  0  0  0  0
   13.3698  -18.6517   25.0727 C   0  0  0  0  0  0  0  0  0  0  0  0
   14.3983  -19.4796   25.4968 O   0  0  0  0  0  0  0  0  0  0  0  0
   13.6221  -17.4290   24.9481 O   0  0  0  0  0  0  0  0  0  0  0  0
  2  1  1  0
  3  2  2  0
  4  3  1  0
  5 11  1  0
  5  4  2  0
  6  7  1  0
  6  5  1  0
  7  9  1  0
  7  8  1  6
  9 10  2  0
 11 12  2  0
 12  2  1  0
 13 14  1  0
 13  9  1  0
 14 25  1  0
 15 16  1  0
 14 15  1  6
 16 24  1  0
 17 16  2  0
 17 18  1  0
 18 19  1  0
 19 20  1  0
 20 21  2  0
 22 21  1  0
 23 22  2  0
 24 19  2  0
 24 23  1  0
 25 31  1  0
 26 25  2  0
 28 27  1  6
 28 29  1  0
 30 28  1  0
 30 31  1  6
 32 30  1  0
 33 32  1  0
 34 32  2  0
M  END
$$$$
