YWT.pdb
     RDKit          3D

 34 36  0  0  1  0  0  0  0  0999 V2000
   12.5685  -20.7232   14.9708 O   0  0  0  0  0  0  0  0  0  0  0  0
   12.2673  -20.0271   16.1458 C   0  0  0  0  0  0  0  0  0  0  0  0
   13.1719  -19.1591   16.6977 C   0  0  0  0  0  0  0  0  0  0  0  0
   12.8738  -18.4658   17.8666 C   0  0  0  0  0  0  0  0  0  0  0  0
   11.6654  -18.6217   18.5135 C   0  0  0  0  0  0  0  0  0  0  0  0
   11.4008  -17.8622   19.7494 C   0  0  0  0  0  0  0  0  0  0  0  0
   10.2467  -16.9109   19.6163 C   0  0  2  0  0  0  0  0  0  0  0  0
   10.4393  -15.9160   18.5943 N   0  0  0  0  0  0  0  0  0  0  0  0
   10.0564  -16.2409   20.9376 C   0  0  0  0  0  0  0  0  0  0  0  0
   10.9460  -15.4667   21.3743 O   0  0  0  0  0  0  0  0  0  0  0  0
   10.7647  -19.4990   17.9458 C   0  0  0  0  0  0  0  0  0  0  0  0
   11.0543  -20.1942   16.7803 C   0  0  0  0  0  0  0  0  0  0  0  0
    8.8933  -16.4493   21.7275 N   0  0  0  0  0  0  0  0  0  0  0  0
    8.6922  -15.8807   23.0436 C   0  0  1  0  0  0  0  0  0  0  0  0
    7.2679  -15.4900   23.2685 C   0  0  0  0  0  0  0  0  0  0  0  0
    6.9952  -15.1046   24.6759 C   0  0  0  0  0  0  0  0  0  0  0  0
    6.4586  -15.8746   25.6873 C   0  0  0  0  0  0  0  0  0  0  0  0
    6.3716  -15.1559   26.8176 N   0  0  0  0  0  0  0  0  0  0  0  0
    6.8401  -13.9308   26.5682 C   0  0  0  0  0  0  0  0  0  0  0  0
    6.9967  -12.7748   27.3388 C   0  0  0  0  0  0  0  0  0  0  0  0
    7.5253  -11.6455   26.7662 C   0  0  0  0  0  0  0  0  0  0  0  0
    7.9102  -11.6067   25.4528 C   0  0  0  0  0  0  0  0  0  0  0  0
    7.7642  -12.7256   24.6872 C   0  0  0  0  0  0  0  0  0  0  0  0
    7.2304  -13.8726   25.2580 C   0  0  0  0  0  0  0  0  0  0  0  0
    9.2161  -16.8469   24.0366 C   0  0  0  0  0  0  0  0  0  0  0  0
    8.7621  -18.0219   23.9776 O   0  0  0  0  0  0  0  0  0  0  0  0
   11.9508  -18.8253   24.4442 C   0  0  0  0  0  0  0  0  0  0  0  0
   11.9423  -18.0592   25.7575 C   0  0  1  0  0  0  0  0  0  0  0  0
   12.8667  -17.0145   25.6873 O   0  0  0  0  0  0  0  0  0  0  0  0
   10.5413  -17.5517   25.9821 C   0  0  2  0  0  0  0  0  0  0  0  0
   10.1651  -16.5441   25.0180 N   0  0  0  0  0  0  0  0  0  0  0  0
   10.5137  -16.9811   27.3767 C   0  0  0  0  0  0  0  0  0  0  0  0
   10.7320  -17.8028   28.4721 O   0  0  0  0  0  0  0  0  0  0  0  0
   10.2964  -15.7651   27.5966 O   0  0  0  0  0  0  0  0  0  0  0  0
  2  1  1  0
  3  2  2  0
  4  3  1  0
  5 11  1  0
  5  4  2  0
  6  7  1  0
  6  5  1  0
  7  9  1  0
  7  8  1  6
  9 10  2  0
 11 12  2  0
 12  2  1  0
 13 14  1  0
 13  9  1  0
 14 25  1  0
 15 16  1  0
 14 15  1  1
 16 24  1  0
 17 16  2  0
 17 18  1  0
 18 19  1  0
 19 20  1  0
 20 21  2  0
 22 21  1  0
 23 22  2  0
 24 19  2  0
 24 23  1  0
 25 31  1  0
 26 25  2  0
 28 27  1  6
 28 29  1  0
 30 28  1  0
 30 31  1  6
 32 30  1  0
 33 32  1  0
 34 32  2  0
M  END
$$$$
