YWT.pdb
     RDKit          3D

 34 36  0  0  1  0  0  0  0  0999 V2000
    7.0626  -13.6735   15.8988 O   0  0  0  0  0  0  0  0  0  0  0  0
    7.4251  -13.8425   17.2388 C   0  0  0  0  0  0  0  0  0  0  0  0
    7.3518  -12.7980   18.1219 C   0  0  0  0  0  0  0  0  0  0  0  0
    7.7121  -12.9645   19.4555 C   0  0  0  0  0  0  0  0  0  0  0  0
    8.1545  -14.1779   19.9406 C   0  0  0  0  0  0  0  0  0  0  0  0
    8.5234  -14.2995   21.3630 C   0  0  0  0  0  0  0  0  0  0  0  0
    9.0551  -15.6588   21.7158 C   0  0  2  0  0  0  0  0  0  0  0  0
    8.0977  -16.7160   21.5232 N   0  0  0  0  0  0  0  0  0  0  0  0
    9.4793  -15.6224   23.1475 C   0  0  0  0  0  0  0  0  0  0  0  0
   10.2867  -14.7387   23.5329 O   0  0  0  0  0  0  0  0  0  0  0  0
    8.2229  -15.2203   19.0396 C   0  0  0  0  0  0  0  0  0  0  0  0
    7.8654  -15.0624   17.7081 C   0  0  0  0  0  0  0  0  0  0  0  0
    8.9980  -16.5611   24.1000 N   0  0  0  0  0  0  0  0  0  0  0  0
    9.5239  -16.6998   25.4417 C   0  0  1  0  0  0  0  0  0  0  0  0
    8.4399  -16.6699   26.4694 C   0  0  0  0  0  0  0  0  0  0  0  0
    7.4118  -15.6369   26.1872 C   0  0  0  0  0  0  0  0  0  0  0  0
    6.1751  -15.7967   25.5966 C   0  0  0  0  0  0  0  0  0  0  0  0
    5.5441  -14.6145   25.5205 N   0  0  0  0  0  0  0  0  0  0  0  0
    6.3414  -13.6831   26.0489 C   0  0  0  0  0  0  0  0  0  0  0  0
    6.2279  -12.3031   26.2428 C   0  0  0  0  0  0  0  0  0  0  0  0
    7.2579  -11.6151   26.8331 C   0  0  0  0  0  0  0  0  0  0  0  0
    8.4068  -12.2358   27.2448 C   0  0  0  0  0  0  0  0  0  0  0  0
    8.5335  -13.5813   27.0631 C   0  0  0  0  0  0  0  0  0  0  0  0
    7.4968  -14.2854   26.4667 C   0  0  0  0  0  0  0  0  0  0  0  0
   10.3530  -17.9267   25.4759 C   0  0  0  0  0  0  0  0  0  0  0  0
    9.8227  -18.9549   25.9776 O   0  0  0  0  0  0  0  0  0  0  0  0
   11.8241  -19.9706   22.7502 C   0  0  0  0  0  0  0  0  0  0  0  0
   12.9618  -19.6422   23.7039 C   0  0  1  0  0  0  0  0  0  0  0  0
   13.7144  -18.5897   23.1780 O   0  0  0  0  0  0  0  0  0  0  0  0
   12.3537  -19.2838   25.0352 C   0  0  2  0  0  0  0  0  0  0  0  0
   11.6635  -18.0155   24.9959 N   0  0  0  0  0  0  0  0  0  0  0  0
   13.4908  -19.2328   26.0228 C   0  0  0  0  0  0  0  0  0  0  0  0
   14.2024  -20.3830   26.3288 O   0  0  0  0  0  0  0  0  0  0  0  0
   13.8312  -18.1695   26.5953 O   0  0  0  0  0  0  0  0  0  0  0  0
  2  1  1  0
  3  2  2  0
  4  3  1  0
  5 11  1  0
  5  4  2  0
  6  7  1  0
  6  5  1  0
  7  9  1  0
  7  8  1  1
  9 10  2  0
 11 12  2  0
 12  2  1  0
 13 14  1  0
 13  9  1  0
 14 25  1  0
 15 16  1  0
 14 15  1  1
 16 24  1  0
 17 16  2  0
 17 18  1  0
 18 19  1  0
 19 20  1  0
 20 21  2  0
 22 21  1  0
 23 22  2  0
 24 19  2  0
 24 23  1  0
 25 31  1  0
 26 25  2  0
 28 27  1  6
 28 29  1  0
 30 28  1  0
 30 31  1  6
 32 30  1  0
 33 32  1  0
 34 32  2  0
M  END
$$$$
