YWT.pdb
     RDKit          3D

 34 36  0  0  1  0  0  0  0  0999 V2000
   12.2676  -21.8118   16.0146 O   0  0  0  0  0  0  0  0  0  0  0  0
   11.9664  -20.9630   17.0844 C   0  0  0  0  0  0  0  0  0  0  0  0
   12.9594  -20.2926   17.7483 C   0  0  0  0  0  0  0  0  0  0  0  0
   12.6613  -19.4477   18.8129 C   0  0  0  0  0  0  0  0  0  0  0  0
   11.3647  -19.2510   19.2411 C   0  0  0  0  0  0  0  0  0  0  0  0
   11.1046  -18.3444   20.3744 C   0  0  0  0  0  0  0  0  0  0  0  0
   10.4123  -17.0769   19.9633 C   0  0  2  0  0  0  0  0  0  0  0  0
   11.1606  -16.2981   19.0120 N   0  0  0  0  0  0  0  0  0  0  0  0
   10.1761  -16.2684   21.1968 C   0  0  0  0  0  0  0  0  0  0  0  0
   11.0350  -15.4245   21.5591 O   0  0  0  0  0  0  0  0  0  0  0  0
   10.3756  -19.9328   18.5628 C   0  0  0  0  0  0  0  0  0  0  0  0
   10.6645  -20.7772   17.5001 C   0  0  0  0  0  0  0  0  0  0  0  0
    9.0027  -16.4206   21.9842 N   0  0  0  0  0  0  0  0  0  0  0  0
    8.7002  -15.6236   23.1544 C   0  0  1  0  0  0  0  0  0  0  0  0
    7.2323  -15.5720   23.4274 C   0  0  0  0  0  0  0  0  0  0  0  0
    6.9162  -14.9715   24.7476 C   0  0  0  0  0  0  0  0  0  0  0  0
    6.3928  -15.5866   25.8664 C   0  0  0  0  0  0  0  0  0  0  0  0
    6.2536  -14.6952   26.8602 N   0  0  0  0  0  0  0  0  0  0  0  0
    6.6748  -13.5086   26.4162 C   0  0  0  0  0  0  0  0  0  0  0  0
    6.7674  -12.2351   26.9857 C   0  0  0  0  0  0  0  0  0  0  0  0
    7.2589  -11.1936   26.2397 C   0  0  0  0  0  0  0  0  0  0  0  0
    7.6674  -11.3557   24.9429 C   0  0  0  0  0  0  0  0  0  0  0  0
    7.5837  -12.5914   24.3724 C   0  0  0  0  0  0  0  0  0  0  0  0
    7.0877  -13.6508   25.1195 C   0  0  0  0  0  0  0  0  0  0  0  0
    9.5043  -16.1530   24.2800 C   0  0  0  0  0  0  0  0  0  0  0  0
   10.0098  -15.3039   25.0635 O   0  0  0  0  0  0  0  0  0  0  0  0
    8.7065  -18.7359   27.0974 C   0  0  0  0  0  0  0  0  0  0  0  0
    9.9601  -19.1413   26.3386 C   0  0  1  0  0  0  0  0  0  0  0  0
    9.6349  -20.1288   25.4059 O   0  0  0  0  0  0  0  0  0  0  0  0
   10.5129  -17.9064   25.6753 C   0  0  2  0  0  0  0  0  0  0  0  0
    9.7345  -17.5105   24.5247 N   0  0  0  0  0  0  0  0  0  0  0  0
   11.9245  -18.2388   25.2655 C   0  0  0  0  0  0  0  0  0  0  0  0
   12.8867  -18.5058   26.2278 O   0  0  0  0  0  0  0  0  0  0  0  0
   12.2774  -18.2860   24.0624 O   0  0  0  0  0  0  0  0  0  0  0  0
  2  1  1  0
  3  2  2  0
  4  3  1  0
  5 11  1  0
  5  4  2  0
  6  7  1  0
  6  5  1  0
  7  9  1  0
  7  8  1  6
  9 10  2  0
 11 12  2  0
 12  2  1  0
 13 14  1  0
 13  9  1  0
 14 25  1  0
 15 16  1  0
 14 15  1  1
 16 24  1  0
 17 16  2  0
 17 18  1  0
 18 19  1  0
 19 20  1  0
 20 21  2  0
 22 21  1  0
 23 22  2  0
 24 19  2  0
 24 23  1  0
 25 31  1  0
 26 25  2  0
 28 27  1  6
 28 29  1  0
 30 28  1  0
 30 31  1  6
 32 30  1  0
 33 32  1  0
 34 32  2  0
M  END
$$$$
