YWT.pdb
     RDKit          3D

 34 36  0  0  1  0  0  0  0  0999 V2000
    7.4846  -13.8152   16.1343 O   0  0  0  0  0  0  0  0  0  0  0  0
    7.8168  -13.9474   17.4863 C   0  0  0  0  0  0  0  0  0  0  0  0
    7.5443  -12.9426   18.3765 C   0  0  0  0  0  0  0  0  0  0  0  0
    7.8743  -13.0726   19.7219 C   0  0  0  0  0  0  0  0  0  0  0  0
    8.4842  -14.2087   20.2121 C   0  0  0  0  0  0  0  0  0  0  0  0
    8.8120  -14.2945   21.6471 C   0  0  0  0  0  0  0  0  0  0  0  0
    9.3901  -15.6243   22.0372 C   0  0  2  0  0  0  0  0  0  0  0  0
    8.4838  -16.7242   21.8357 N   0  0  0  0  0  0  0  0  0  0  0  0
    9.7715  -15.5478   23.4793 C   0  0  0  0  0  0  0  0  0  0  0  0
   10.5519  -14.6412   23.8671 O   0  0  0  0  0  0  0  0  0  0  0  0
    8.7521  -15.2119   19.3037 C   0  0  0  0  0  0  0  0  0  0  0  0
    8.4263  -15.0901   17.9604 C   0  0  0  0  0  0  0  0  0  0  0  0
    9.2787  -16.4730   24.4391 N   0  0  0  0  0  0  0  0  0  0  0  0
    9.7201  -16.5272   25.8168 C   0  0  1  0  0  0  0  0  0  0  0  0
    8.5742  -16.4381   26.7714 C   0  0  0  0  0  0  0  0  0  0  0  0
    7.5402  -15.4663   26.3355 C   0  0  0  0  0  0  0  0  0  0  0  0
    6.3165  -15.7206   25.7506 C   0  0  0  0  0  0  0  0  0  0  0  0
    5.6740  -14.5678   25.5057 N   0  0  0  0  0  0  0  0  0  0  0  0
    6.4508  -13.5633   25.9178 C   0  0  0  0  0  0  0  0  0  0  0  0
    6.3184  -12.1715   25.9227 C   0  0  0  0  0  0  0  0  0  0  0  0
    7.3294  -11.3967   26.4328 C   0  0  0  0  0  0  0  0  0  0  0  0
    8.4772  -11.9409   26.9437 C   0  0  0  0  0  0  0  0  0  0  0  0
    8.6223  -13.2968   26.9465 C   0  0  0  0  0  0  0  0  0  0  0  0
    7.6048  -14.0885   26.4324 C   0  0  0  0  0  0  0  0  0  0  0  0
   10.5451  -17.7466   25.9779 C   0  0  0  0  0  0  0  0  0  0  0  0
   10.5330  -18.2927   27.1146 O   0  0  0  0  0  0  0  0  0  0  0  0
   10.4513  -21.0726   24.2243 C   0  0  0  0  0  0  0  0  0  0  0  0
   11.8806  -20.5602   24.1463 C   0  0  1  0  0  0  0  0  0  0  0  0
   12.1064  -20.0158   22.8801 O   0  0  0  0  0  0  0  0  0  0  0  0
   12.0590  -19.5343   25.2356 C   0  0  2  0  0  0  0  0  0  0  0  0
   11.3232  -18.3206   24.9675 N   0  0  0  0  0  0  0  0  0  0  0  0
   13.5364  -19.2471   25.3123 C   0  0  0  0  0  0  0  0  0  0  0  0
   14.4234  -20.2449   25.6872 O   0  0  0  0  0  0  0  0  0  0  0  0
   14.0119  -18.1171   25.0455 O   0  0  0  0  0  0  0  0  0  0  0  0
  2  1  1  0
  3  2  2  0
  4  3  1  0
  5 11  1  0
  5  4  2  0
  6  7  1  0
  6  5  1  0
  7  9  1  0
  7  8  1  1
  9 10  2  0
 11 12  2  0
 12  2  1  0
 13 14  1  0
 13  9  1  0
 14 25  1  0
 15 16  1  0
 14 15  1  1
 16 24  1  0
 17 16  2  0
 17 18  1  0
 18 19  1  0
 19 20  1  0
 20 21  2  0
 22 21  1  0
 23 22  2  0
 24 19  2  0
 24 23  1  0
 25 31  1  0
 26 25  2  0
 28 27  1  6
 28 29  1  0
 30 28  1  0
 30 31  1  6
 32 30  1  0
 33 32  1  0
 34 32  2  0
M  END
$$$$
