YWT.pdb
     RDKit          3D

 34 36  0  0  1  0  0  0  0  0999 V2000
    7.2364  -24.0506   30.1769 O   0  0  0  0  0  0  0  0  0  0  0  0
    7.3345  -23.4959   28.8968 C   0  0  0  0  0  0  0  0  0  0  0  0
    8.2765  -22.5417   28.6167 C   0  0  0  0  0  0  0  0  0  0  0  0
    8.3754  -21.9889   27.3437 C   0  0  0  0  0  0  0  0  0  0  0  0
    7.5365  -22.3748   26.3188 C   0  0  0  0  0  0  0  0  0  0  0  0
    7.6847  -21.7568   24.9883 C   0  0  0  0  0  0  0  0  0  0  0  0
    6.4336  -21.0721   24.5182 C   0  0  2  0  0  0  0  0  0  0  0  0
    5.7578  -21.7768   23.4607 N   0  0  0  0  0  0  0  0  0  0  0  0
    6.8135  -19.7067   24.0468 C   0  0  0  0  0  0  0  0  0  0  0  0
    7.2453  -19.5525   22.8759 O   0  0  0  0  0  0  0  0  0  0  0  0
    6.5931  -23.3366   26.6160 C   0  0  0  0  0  0  0  0  0  0  0  0
    6.4880  -23.8929   27.8829 C   0  0  0  0  0  0  0  0  0  0  0  0
    6.7034  -18.5630   24.8836 N   0  0  0  0  0  0  0  0  0  0  0  0
    7.1197  -17.2311   24.4982 C   0  0  1  0  0  0  0  0  0  0  0  0
    6.4632  -16.1803   25.3330 C   0  0  0  0  0  0  0  0  0  0  0  0
    6.8524  -14.8049   24.9325 C   0  0  0  0  0  0  0  0  0  0  0  0
    7.4073  -14.3831   23.7417 C   0  0  0  0  0  0  0  0  0  0  0  0
    7.6134  -13.0571   23.7730 N   0  0  0  0  0  0  0  0  0  0  0  0
    7.2052  -12.6010   24.9594 C   0  0  0  0  0  0  0  0  0  0  0  0
    7.1715  -11.3365   25.5551 C   0  0  0  0  0  0  0  0  0  0  0  0
    6.6761  -11.2002   26.8274 C   0  0  0  0  0  0  0  0  0  0  0  0
    6.2073  -12.2680   27.5449 C   0  0  0  0  0  0  0  0  0  0  0  0
    6.2330  -13.5082   26.9784 C   0  0  0  0  0  0  0  0  0  0  0  0
    6.7326  -13.6557   25.6920 C   0  0  0  0  0  0  0  0  0  0  0  0
    8.5999  -17.1932   24.5361 C   0  0  0  0  0  0  0  0  0  0  0  0
    9.1461  -17.4875   25.6340 O   0  0  0  0  0  0  0  0  0  0  0  0
   11.1325  -18.5717   21.7927 C   0  0  0  0  0  0  0  0  0  0  0  0
   11.5350  -17.1842   22.2667 C   0  0  1  0  0  0  0  0  0  0  0  0
   11.1623  -16.2427   21.3048 O   0  0  0  0  0  0  0  0  0  0  0  0
   10.8517  -16.9355   23.5865 C   0  0  2  0  0  0  0  0  0  0  0  0
    9.4157  -16.8575   23.4510 N   0  0  0  0  0  0  0  0  0  0  0  0
   11.4013  -15.6344   24.1120 C   0  0  0  0  0  0  0  0  0  0  0  0
   10.5593  -14.5513   24.3144 O   0  0  0  0  0  0  0  0  0  0  0  0
   12.6174  -15.4832   24.3815 O   0  0  0  0  0  0  0  0  0  0  0  0
  2  1  1  0
  3  2  2  0
  4  3  1  0
  5 11  1  0
  5  4  2  0
  6  7  1  0
  6  5  1  0
  7  9  1  0
  7  8  1  6
  9 10  2  0
 11 12  2  0
 12  2  1  0
 13 14  1  0
 13  9  1  0
 14 25  1  0
 15 16  1  0
 14 15  1  1
 16 24  1  0
 17 16  2  0
 17 18  1  0
 18 19  1  0
 19 20  1  0
 20 21  2  0
 22 21  1  0
 23 22  2  0
 24 19  2  0
 24 23  1  0
 25 31  1  0
 26 25  2  0
 28 27  1  6
 28 29  1  0
 30 28  1  0
 30 31  1  6
 32 30  1  0
 33 32  1  0
 34 32  2  0
M  END
$$$$
