TSG.pdb
     RDKit          3D

 18 17  0  0  1  0  0  0  0  0999 V2000
   14.9664   -5.7371   -8.7310 C   0  0  0  0  0  0  0  0  0  0  0  0
   14.5123   -6.9598   -7.9822 C   0  0  1  0  0  0  0  0  0  0  0  0
   13.1816   -6.7257   -7.5960 O   0  0  0  0  0  0  0  0  0  0  0  0
   14.4386   -8.1145   -8.9681 C   0  0  2  0  0  0  0  0  0  0  0  0
   14.0536   -9.3382   -8.2146 N   0  0  0  0  0  0  0  0  0  0  0  0
   15.7403   -8.4312   -9.5913 C   0  0  0  0  0  0  0  0  0  0  0  0
   16.6904   -8.8397   -8.8475 O   0  0  0  0  0  0  0  0  0  0  0  0
   16.0296   -9.1723  -13.4969 O   0  0  0  0  0  0  0  0  0  0  0  0
   17.0836   -9.5967  -12.6855 C   0  0  0  0  0  0  0  0  0  0  0  0
   17.3203   -8.6363  -11.5386 C   0  0  2  0  0  0  0  0  0  0  0  0
   16.0238   -8.3205  -10.9551 N   0  0  0  0  0  0  0  0  0  0  0  0
   17.9488   -7.4074  -12.1136 C   0  0  0  0  0  0  0  0  0  0  0  0
   17.2592   -6.4441  -12.5581 O   0  0  0  0  0  0  0  0  0  0  0  0
   19.3642   -7.2611  -12.1892 N   0  0  0  0  0  0  0  0  0  0  0  0
   19.9683   -6.1331  -12.8617 C   0  0  0  0  0  0  0  0  0  0  0  0
   21.4255   -6.2863  -12.9963 C   0  0  0  0  0  0  0  0  0  0  0  0
   22.0670   -5.4313  -13.6554 O   0  0  0  0  0  0  0  0  0  0  0  0
   22.1355   -7.3314  -12.4308 O   0  0  0  0  0  0  0  0  0  0  0  0
  2  1  1  6
  3  2  1  0
  4  6  1  0
  4  2  1  0
  4  5  1  1
  6  7  2  0
  8  9  1  0
 10  9  1  6
 11 10  1  0
 11  6  1  0
 12 14  1  0
 12 10  1  0
 13 12  2  0
 15 14  1  0
 15 16  1  0
 16 18  1  0
 17 16  2  0
M  END
$$$$
