TSG.pdb
     RDKit          3D

 18 17  0  0  1  0  0  0  0  0999 V2000
   23.1339  -26.5215  -17.2194 C   0  0  0  0  0  0  0  0  0  0  0  0
   24.3866  -26.3908  -16.3974 C   0  0  1  0  0  0  0  0  0  0  0  0
   25.2764  -27.3761  -16.8580 O   0  0  0  0  0  0  0  0  0  0  0  0
   25.0461  -25.0681  -16.7524 C   0  0  2  0  0  0  0  0  0  0  0  0
   26.2515  -24.9107  -15.8947 N   0  0  0  0  0  0  0  0  0  0  0  0
   24.1970  -23.8962  -16.4542 C   0  0  0  0  0  0  0  0  0  0  0  0
   24.0768  -23.5216  -15.2425 O   0  0  0  0  0  0  0  0  0  0  0  0
   23.3822  -20.2117  -18.5440 O   0  0  0  0  0  0  0  0  0  0  0  0
   22.4382  -21.2252  -18.3668 C   0  0  0  0  0  0  0  0  0  0  0  0
   22.6809  -21.9888  -17.0817 C   0  0  2  0  0  0  0  0  0  0  0  0
   23.5017  -23.1471  -17.4070 N   0  0  0  0  0  0  0  0  0  0  0  0
   21.3458  -22.4218  -16.5659 C   0  0  0  0  0  0  0  0  0  0  0  0
   20.7647  -23.4616  -16.9924 O   0  0  0  0  0  0  0  0  0  0  0  0
   20.6592  -21.6789  -15.5623 N   0  0  0  0  0  0  0  0  0  0  0  0
   19.3436  -22.0681  -15.1072 C   0  0  0  0  0  0  0  0  0  0  0  0
   18.3584  -20.9886  -15.2780 C   0  0  0  0  0  0  0  0  0  0  0  0
   18.7392  -19.8888  -15.7495 O   0  0  0  0  0  0  0  0  0  0  0  0
   17.0214  -21.1198  -14.9443 O   0  0  0  0  0  0  0  0  0  0  0  0
  2  1  1  6
  3  2  1  0
  4  6  1  0
  4  2  1  0
  4  5  1  1
  6  7  2  0
  8  9  1  0
 10  9  1  6
 11 10  1  0
 11  6  1  0
 12 14  1  0
 12 10  1  0
 13 12  2  0
 15 14  1  0
 15 16  1  0
 16 18  1  0
 17 16  2  0
M  END
$$$$
