TSG.pdb
     RDKit          3D

 18 17  0  0  1  0  0  0  0  0999 V2000
   28.7780   -7.8929  -19.4735 C   0  0  0  0  0  0  0  0  0  0  0  0
   28.0481   -9.1576  -19.1134 C   0  0  1  0  0  0  0  0  0  0  0  0
   27.1971   -9.4536  -20.1918 O   0  0  0  0  0  0  0  0  0  0  0  0
   29.0590  -10.2926  -19.0868 C   0  0  2  0  0  0  0  0  0  0  0  0
   28.3435  -11.5362  -18.6934 N   0  0  0  0  0  0  0  0  0  0  0  0
   30.1137  -10.1083  -18.0686 C   0  0  0  0  0  0  0  0  0  0  0  0
   29.7910  -10.1659  -16.8375 O   0  0  0  0  0  0  0  0  0  0  0  0
   33.9863  -11.3311  -18.0454 O   0  0  0  0  0  0  0  0  0  0  0  0
   33.8187   -9.9516  -17.9096 C   0  0  0  0  0  0  0  0  0  0  0  0
   32.4647   -9.6141  -17.3210 C   0  0  2  0  0  0  0  0  0  0  0  0
   31.4629   -9.8733  -18.3459 N   0  0  0  0  0  0  0  0  0  0  0  0
   32.4867   -8.1617  -16.9660 C   0  0  0  0  0  0  0  0  0  0  0  0
   32.2978   -7.2554  -17.8285 O   0  0  0  0  0  0  0  0  0  0  0  0
   32.7229   -7.7256  -15.6302 N   0  0  0  0  0  0  0  0  0  0  0  0
   32.7091   -6.3221  -15.2842 C   0  0  0  0  0  0  0  0  0  0  0  0
   34.0408   -5.7092  -15.4104 C   0  0  0  0  0  0  0  0  0  0  0  0
   35.0000   -6.4180  -15.8033 O   0  0  0  0  0  0  0  0  0  0  0  0
   34.2972   -4.3809  -15.1171 O   0  0  0  0  0  0  0  0  0  0  0  0
  2  1  1  6
  3  2  1  0
  4  6  1  0
  4  2  1  0
  4  5  1  1
  6  7  2  0
  8  9  1  0
 10  9  1  6
 11 10  1  0
 11  6  1  0
 12 14  1  0
 12 10  1  0
 13 12  2  0
 15 14  1  0
 15 16  1  0
 16 18  1  0
 17 16  2  0
M  END
$$$$
