TSG.pdb
     RDKit          3D

 18 17  0  0  1  0  0  0  0  0999 V2000
   14.3586   -5.4384  -10.7342 C   0  0  0  0  0  0  0  0  0  0  0  0
   14.5909   -5.6860   -9.2690 C   0  0  1  0  0  0  0  0  0  0  0  0
   13.3873   -5.3793   -8.6118 O   0  0  0  0  0  0  0  0  0  0  0  0
   14.7786   -7.1812   -9.0689 C   0  0  2  0  0  0  0  0  0  0  0  0
   15.0033   -7.4261   -7.6187 N   0  0  0  0  0  0  0  0  0  0  0  0
   15.9791   -7.7126   -9.7468 C   0  0  0  0  0  0  0  0  0  0  0  0
   17.1271   -7.3682   -9.3150 O   0  0  0  0  0  0  0  0  0  0  0  0
   16.5493  -11.2548  -11.9317 O   0  0  0  0  0  0  0  0  0  0  0  0
   16.7530  -10.0334  -12.5769 C   0  0  0  0  0  0  0  0  0  0  0  0
   17.1523   -8.9500  -11.5969 C   0  0  2  0  0  0  0  0  0  0  0  0
   15.9629   -8.5798  -10.8423 N   0  0  0  0  0  0  0  0  0  0  0  0
   17.6456   -7.7884  -12.3991 C   0  0  0  0  0  0  0  0  0  0  0  0
   16.8607   -7.0342  -13.0440 O   0  0  0  0  0  0  0  0  0  0  0  0
   19.0331   -7.4729  -12.4761 N   0  0  0  0  0  0  0  0  0  0  0  0
   19.5089   -6.3656  -13.2744 C   0  0  0  0  0  0  0  0  0  0  0  0
   20.9769   -6.2669  -13.2622 C   0  0  0  0  0  0  0  0  0  0  0  0
   21.6298   -7.0274  -12.5058 O   0  0  0  0  0  0  0  0  0  0  0  0
   21.6852   -5.3728  -14.0465 O   0  0  0  0  0  0  0  0  0  0  0  0
  2  1  1  6
  3  2  1  0
  4  6  1  0
  4  2  1  0
  4  5  1  1
  6  7  2  0
  8  9  1  0
 10  9  1  6
 11 10  1  0
 11  6  1  0
 12 14  1  0
 12 10  1  0
 13 12  2  0
 15 14  1  0
 15 16  1  0
 16 18  1  0
 17 16  2  0
M  END
$$$$
