TSG.pdb
     RDKit          3D

 18 17  0  0  1  0  0  0  0  0999 V2000
   25.9288   -9.9074  -14.8338 C   0  0  0  0  0  0  0  0  0  0  0  0
   25.7171  -10.5582  -16.1730 C   0  0  1  0  0  0  0  0  0  0  0  0
   26.5768  -11.6686  -16.2227 O   0  0  0  0  0  0  0  0  0  0  0  0
   24.3149  -11.1449  -16.1943 C   0  0  2  0  0  0  0  0  0  0  0  0
   24.1263  -11.8376  -17.4973 N   0  0  0  0  0  0  0  0  0  0  0  0
   23.2539  -10.1181  -16.1389 C   0  0  0  0  0  0  0  0  0  0  0  0
   23.0380   -9.4065  -17.1733 O   0  0  0  0  0  0  0  0  0  0  0  0
   19.7076  -10.4899  -14.8754 O   0  0  0  0  0  0  0  0  0  0  0  0
   20.2388   -9.3660  -14.2395 C   0  0  0  0  0  0  0  0  0  0  0  0
   21.4311   -8.8154  -14.9938 C   0  0  2  0  0  0  0  0  0  0  0  0
   22.4491   -9.8565  -15.0269 N   0  0  0  0  0  0  0  0  0  0  0  0
   21.9239   -7.6256  -14.2340 C   0  0  0  0  0  0  0  0  0  0  0  0
   22.6779   -7.7373  -13.2240 O   0  0  0  0  0  0  0  0  0  0  0  0
   21.5656   -6.2997  -14.6135 N   0  0  0  0  0  0  0  0  0  0  0  0
   22.1281   -5.1484  -13.9442 C   0  0  0  0  0  0  0  0  0  0  0  0
   21.6579   -3.8839  -14.5316 C   0  0  0  0  0  0  0  0  0  0  0  0
   20.9357   -3.9235  -15.5582 O   0  0  0  0  0  0  0  0  0  0  0  0
   21.9709   -2.6406  -14.0098 O   0  0  0  0  0  0  0  0  0  0  0  0
  2  1  1  1
  3  2  1  0
  4  6  1  0
  4  2  1  0
  4  5  1  6
  6  7  2  0
  8  9  1  0
 10  9  1  1
 11 10  1  0
 11  6  1  0
 12 14  1  0
 12 10  1  0
 13 12  2  0
 15 14  1  0
 15 16  1  0
 16 18  1  0
 17 16  2  0
M  END
$$$$
