TSG.pdb
     RDKit          3D

 18 17  0  0  1  0  0  0  0  0999 V2000
   21.5431   -8.9659  -21.8974 C   0  0  0  0  0  0  0  0  0  0  0  0
   21.5686   -8.5148  -20.4628 C   0  0  1  0  0  0  0  0  0  0  0  0
   20.2312   -8.3238  -20.0758 O   0  0  0  0  0  0  0  0  0  0  0  0
   22.0620   -9.6751  -19.6139 C   0  0  2  0  0  0  0  0  0  0  0  0
   21.0852  -10.7894  -19.7463 N   0  0  0  0  0  0  0  0  0  0  0  0
   22.1064   -9.3622  -18.1705 C   0  0  0  0  0  0  0  0  0  0  0  0
   21.1329   -9.7296  -17.4356 O   0  0  0  0  0  0  0  0  0  0  0  0
   24.3515  -10.2690  -15.2275 O   0  0  0  0  0  0  0  0  0  0  0  0
   24.4479   -8.9089  -15.5279 C   0  0  0  0  0  0  0  0  0  0  0  0
   23.1531   -8.3767  -16.1056 C   0  0  2  0  0  0  0  0  0  0  0  0
   23.1471   -8.6855  -17.5289 N   0  0  0  0  0  0  0  0  0  0  0  0
   23.1486   -6.8969  -15.8912 C   0  0  0  0  0  0  0  0  0  0  0  0
   23.8139   -6.1088  -16.6241 O   0  0  0  0  0  0  0  0  0  0  0  0
   22.3895   -6.2990  -14.8438 N   0  0  0  0  0  0  0  0  0  0  0  0
   22.3897   -4.8682  -14.6380 C   0  0  0  0  0  0  0  0  0  0  0  0
   21.4518   -4.1806  -15.5394 C   0  0  0  0  0  0  0  0  0  0  0  0
   21.8951   -3.6565  -16.5910 O   0  0  0  0  0  0  0  0  0  0  0  0
   20.0941   -4.0785  -15.2898 O   0  0  0  0  0  0  0  0  0  0  0  0
  2  1  1  6
  3  2  1  0
  4  6  1  0
  4  2  1  0
  4  5  1  1
  6  7  2  0
  8  9  1  0
 10  9  1  6
 11 10  1  0
 11  6  1  0
 12 14  1  0
 12 10  1  0
 13 12  2  0
 15 14  1  0
 15 16  1  0
 16 18  1  0
 17 16  2  0
M  END
$$$$
