TSG.pdb
     RDKit          3D

 18 17  0  0  1  0  0  0  0  0999 V2000
   26.3739  -10.1146  -14.7720 C   0  0  0  0  0  0  0  0  0  0  0  0
   26.5557  -10.6769  -16.1551 C   0  0  1  0  0  0  0  0  0  0  0  0
   27.3108  -11.8539  -16.0164 O   0  0  0  0  0  0  0  0  0  0  0  0
   25.1972  -11.1378  -16.6576 C   0  0  2  0  0  0  0  0  0  0  0  0
   25.3826  -11.7219  -18.0133 N   0  0  0  0  0  0  0  0  0  0  0  0
   24.2364  -10.0296  -16.8363 C   0  0  0  0  0  0  0  0  0  0  0  0
   24.3751   -9.2567  -17.8394 O   0  0  0  0  0  0  0  0  0  0  0  0
   19.9330   -8.1374  -16.4604 O   0  0  0  0  0  0  0  0  0  0  0  0
   20.8540   -9.1501  -16.1854 C   0  0  0  0  0  0  0  0  0  0  0  0
   22.2707   -8.6156  -16.1529 C   0  0  2  0  0  0  0  0  0  0  0  0
   23.1654   -9.7521  -15.9827 N   0  0  0  0  0  0  0  0  0  0  0  0
   22.3681   -7.6926  -14.9805 C   0  0  0  0  0  0  0  0  0  0  0  0
   22.6267   -8.1108  -13.8147 O   0  0  0  0  0  0  0  0  0  0  0  0
   22.1730   -6.2881  -15.1208 N   0  0  0  0  0  0  0  0  0  0  0  0
   22.2695   -5.3987  -13.9854 C   0  0  0  0  0  0  0  0  0  0  0  0
   22.0501   -3.9939  -14.3641 C   0  0  0  0  0  0  0  0  0  0  0  0
   21.8201   -3.7190  -15.5676 O   0  0  0  0  0  0  0  0  0  0  0  0
   22.0837   -2.9481  -13.4579 O   0  0  0  0  0  0  0  0  0  0  0  0
  2  1  1  1
  3  2  1  0
  4  6  1  0
  4  2  1  0
  4  5  1  6
  6  7  2  0
  8  9  1  0
 10  9  1  1
 11 10  1  0
 11  6  1  0
 12 14  1  0
 12 10  1  0
 13 12  2  0
 15 14  1  0
 15 16  1  0
 16 18  1  0
 17 16  2  0
M  END
$$$$
