TSG.pdb
     RDKit          3D

 18 17  0  0  1  0  0  0  0  0999 V2000
   21.5572  -10.1392  -16.3960 C   0  0  0  0  0  0  0  0  0  0  0  0
   20.2532  -10.5210  -17.0410 C   0  0  1  0  0  0  0  0  0  0  0  0
   20.3873  -11.8542  -17.4645 O   0  0  0  0  0  0  0  0  0  0  0  0
   19.1863  -10.5574  -15.9588 C   0  0  2  0  0  0  0  0  0  0  0  0
   17.9170  -11.0222  -16.5802 N   0  0  0  0  0  0  0  0  0  0  0  0
   18.8826   -9.2253  -15.3963 C   0  0  0  0  0  0  0  0  0  0  0  0
   18.2627   -8.3823  -16.1230 O   0  0  0  0  0  0  0  0  0  0  0  0
   19.1627   -8.3773  -11.4048 O   0  0  0  0  0  0  0  0  0  0  0  0
   18.3964   -7.5566  -12.2347 C   0  0  0  0  0  0  0  0  0  0  0  0
   19.0024   -7.4489  -13.6185 C   0  0  2  0  0  0  0  0  0  0  0  0
   19.2224   -8.8027  -14.1085 N   0  0  0  0  0  0  0  0  0  0  0  0
   20.3036   -6.7260  -13.4762 C   0  0  0  0  0  0  0  0  0  0  0  0
   21.3881   -7.3330  -13.2386 O   0  0  0  0  0  0  0  0  0  0  0  0
   20.3853   -5.3090  -13.6022 N   0  0  0  0  0  0  0  0  0  0  0  0
   21.6417   -4.6116  -13.4451 C   0  0  0  0  0  0  0  0  0  0  0  0
   21.5032   -3.1653  -13.6775 C   0  0  0  0  0  0  0  0  0  0  0  0
   20.4288   -2.7284  -14.1587 O   0  0  0  0  0  0  0  0  0  0  0  0
   22.5020   -2.2505  -13.3920 O   0  0  0  0  0  0  0  0  0  0  0  0
  2  1  1  1
  3  2  1  0
  4  6  1  0
  4  2  1  0
  4  5  1  6
  6  7  2  0
  8  9  1  0
 10  9  1  1
 11 10  1  0
 11  6  1  0
 12 14  1  0
 12 10  1  0
 13 12  2  0
 15 14  1  0
 15 16  1  0
 16 18  1  0
 17 16  2  0
M  END
$$$$
