TSG.pdb
     RDKit          3D

 18 17  0  0  1  0  0  0  0  0999 V2000
   17.5968   -9.4171  -16.3829 C   0  0  0  0  0  0  0  0  0  0  0  0
   18.4323  -10.2820  -15.4796 C   0  0  1  0  0  0  0  0  0  0  0  0
   17.8776  -11.5722  -15.5296 O   0  0  0  0  0  0  0  0  0  0  0  0
   19.8105  -10.4217  -16.1053 C   0  0  2  0  0  0  0  0  0  0  0  0
   20.6019  -11.3633  -15.2683 N   0  0  0  0  0  0  0  0  0  0  0  0
   20.5786   -9.1595  -16.1083 C   0  0  0  0  0  0  0  0  0  0  0  0
   21.4111   -8.9488  -15.1673 O   0  0  0  0  0  0  0  0  0  0  0  0
   22.0434   -7.1919  -19.3828 O   0  0  0  0  0  0  0  0  0  0  0  0
   21.2735   -6.4162  -18.5139 C   0  0  0  0  0  0  0  0  0  0  0  0
   21.3075   -6.9665  -17.1034 C   0  0  2  0  0  0  0  0  0  0  0  0
   20.4693   -8.1572  -17.0758 N   0  0  0  0  0  0  0  0  0  0  0  0
   20.7477   -5.9115  -16.2036 C   0  0  0  0  0  0  0  0  0  0  0  0
   19.5050   -5.6894  -16.1191 O   0  0  0  0  0  0  0  0  0  0  0  0
   21.5929   -5.1001  -15.3925 N   0  0  0  0  0  0  0  0  0  0  0  0
   21.0450   -4.1829  -14.4188 C   0  0  0  0  0  0  0  0  0  0  0  0
   22.0889   -3.5987  -13.5620 C   0  0  0  0  0  0  0  0  0  0  0  0
   23.2726   -3.9977  -13.6905 O   0  0  0  0  0  0  0  0  0  0  0  0
   21.8356   -2.6237  -12.6127 O   0  0  0  0  0  0  0  0  0  0  0  0
  2  1  1  6
  3  2  1  0
  4  6  1  0
  4  2  1  0
  4  5  1  1
  6  7  2  0
  8  9  1  0
 10  9  1  6
 11 10  1  0
 11  6  1  0
 12 14  1  0
 12 10  1  0
 13 12  2  0
 15 14  1  0
 15 16  1  0
 16 18  1  0
 17 16  2  0
M  END
$$$$
