MHV.pdb
     RDKit          3D

 26 26  0  0  1  0  0  0  0  0999 V2000
    7.7444  -14.2624   14.9794 C   0  0  0  0  0  0  0  0  0  0  0  0
    7.8601  -15.3744   16.3684 S   0  0  0  0  0  0  0  0  0  0  0  0
    8.6365  -14.7205   17.8355 C   0  0  0  0  0  0  0  0  0  0  0  0
    7.8184  -13.6442   18.4712 C   0  0  0  0  0  0  0  0  0  0  0  0
    8.4678  -13.1221   19.7152 C   0  0  2  0  0  0  0  0  0  0  0  0
    9.9174  -13.1596   19.6128 N   0  0  0  0  0  0  0  0  0  0  0  0
    8.0237  -14.0410   20.8236 C   0  0  0  0  0  0  0  0  0  0  0  0
    6.8171  -14.2196   21.0422 O   0  0  0  0  0  0  0  0  0  0  0  0
    8.9837  -14.6978   21.6121 N   0  0  0  0  0  0  0  0  0  0  0  0
    8.6457  -15.5961   22.6995 C   0  0  1  0  0  0  0  0  0  0  0  0
    9.5452  -16.7680   22.6644 C   0  0  0  0  0  0  0  0  0  0  0  0
    9.1768  -17.8756   21.7868 C   0  0  0  0  0  0  0  0  0  0  0  0
    8.0956  -18.1626   21.0246 C   0  0  0  0  0  0  0  0  0  0  0  0
    8.2894  -19.3431   20.4219 N   0  0  0  0  0  0  0  0  0  0  0  0
    9.4908  -19.7988   20.8042 C   0  0  0  0  0  0  0  0  0  0  0  0
   10.0427  -18.9234   21.6308 N   0  0  0  0  0  0  0  0  0  0  0  0
    8.8662  -14.7739   23.9532 C   0  0  0  0  0  0  0  0  0  0  0  0
    9.9020  -14.0878   24.1382 O   0  0  0  0  0  0  0  0  0  0  0  0
    6.8487  -12.2381   27.6694 C   0  0  0  0  0  0  0  0  0  0  0  0
    6.7814  -13.0714   26.4364 C   0  0  1  0  0  0  0  0  0  0  0  0
    6.3223  -12.2394   25.2565 C   0  0  0  0  0  0  0  0  0  0  0  0
    8.0075  -13.8710   26.1390 C   0  0  2  0  0  0  0  0  0  0  0  0
    7.8959  -14.7401   24.9963 N   0  0  0  0  0  0  0  0  0  0  0  0
    8.2796  -14.7264   27.3228 C   0  0  0  0  0  0  0  0  0  0  0  0
    8.7948  -14.2130   28.5022 O   0  0  0  0  0  0  0  0  0  0  0  0
    8.0371  -15.9410   27.2524 O   0  0  0  0  0  0  0  0  0  0  0  0
  2  1  1  0
  3  4  1  0
  3  2  1  0
  4  5  1  0
  5  6  1  6
  5  7  1  0
  7  8  2  0
  9  7  1  0
  9 10  1  0
 10 11  1  1
 11 12  1  0
 12 16  1  0
 12 13  2  0
 13 14  1  0
 15 14  1  0
 16 15  2  0
 17 10  1  0
 17 18  2  0
 20 19  1  1
 20 22  1  0
 21 20  1  0
 22 23  1  6
 23 17  1  0
 24 22  1  0
 24 25  1  0
 26 24  2  0
M  END
$$$$
