MHV.pdb
     RDKit          3D

 26 26  0  0  1  0  0  0  0  0999 V2000
    8.4583  -11.2169   20.1949 C   0  0  0  0  0  0  0  0  0  0  0  0
    8.0552  -11.9547   18.6225 S   0  0  0  0  0  0  0  0  0  0  0  0
    8.1762  -13.7325   18.5350 C   0  0  0  0  0  0  0  0  0  0  0  0
    8.0397  -14.3712   19.8786 C   0  0  0  0  0  0  0  0  0  0  0  0
    8.2353  -15.8538   19.8051 C   0  0  2  0  0  0  0  0  0  0  0  0
    7.1963  -16.4872   19.0099 N   0  0  0  0  0  0  0  0  0  0  0  0
    8.1451  -16.3481   21.2256 C   0  0  0  0  0  0  0  0  0  0  0  0
    7.0400  -16.5542   21.7471 O   0  0  0  0  0  0  0  0  0  0  0  0
    9.3207  -16.5759   21.9610 N   0  0  0  0  0  0  0  0  0  0  0  0
    9.3273  -17.0757   23.3226 C   0  0  1  0  0  0  0  0  0  0  0  0
   10.4617  -18.0064   23.4973 C   0  0  0  0  0  0  0  0  0  0  0  0
   10.6802  -18.5614   24.8303 C   0  0  0  0  0  0  0  0  0  0  0  0
   10.0947  -18.3866   26.0381 C   0  0  0  0  0  0  0  0  0  0  0  0
   10.7177  -19.1577   26.9390 N   0  0  0  0  0  0  0  0  0  0  0  0
   11.6942  -19.8169   26.2994 C   0  0  0  0  0  0  0  0  0  0  0  0
   11.6866  -19.4684   25.0217 N   0  0  0  0  0  0  0  0  0  0  0  0
    9.4975  -15.8378   24.1801 C   0  0  0  0  0  0  0  0  0  0  0  0
   10.4598  -15.0434   24.0369 O   0  0  0  0  0  0  0  0  0  0  0  0
    7.3022  -12.6960   24.8958 C   0  0  0  0  0  0  0  0  0  0  0  0
    7.5688  -13.4571   26.1482 C   0  0  1  0  0  0  0  0  0  0  0  0
    6.3029  -14.1254   26.6443 C   0  0  0  0  0  0  0  0  0  0  0  0
    8.7328  -14.3916   26.0915 C   0  0  2  0  0  0  0  0  0  0  0  0
    8.5613  -15.5124   25.2039 N   0  0  0  0  0  0  0  0  0  0  0  0
    8.9349  -14.9349   27.4594 C   0  0  0  0  0  0  0  0  0  0  0  0
    9.4112  -14.1550   28.5009 O   0  0  0  0  0  0  0  0  0  0  0  0
    8.6680  -16.1269   27.6757 O   0  0  0  0  0  0  0  0  0  0  0  0
  2  1  1  0
  3  4  1  0
  3  2  1  0
  4  5  1  0
  5  6  1  6
  5  7  1  0
  7  8  2  0
  9  7  1  0
  9 10  1  0
 10 11  1  6
 11 12  1  0
 12 16  1  0
 12 13  2  0
 13 14  1  0
 15 14  1  0
 16 15  2  0
 17 10  1  0
 17 18  2  0
 20 19  1  6
 20 22  1  0
 21 20  1  0
 22 23  1  6
 23 17  1  0
 24 22  1  0
 24 25  1  0
 26 24  2  0
M  END
$$$$
