MHV.pdb
     RDKit          3D

 26 26  0  0  1  0  0  0  0  0999 V2000
    8.1764  -11.3814   20.7451 C   0  0  0  0  0  0  0  0  0  0  0  0
    8.2440  -12.3667   19.2606 S   0  0  0  0  0  0  0  0  0  0  0  0
    7.5667  -14.0129   19.3790 C   0  0  0  0  0  0  0  0  0  0  0  0
    7.7504  -14.5988   20.7410 C   0  0  0  0  0  0  0  0  0  0  0  0
    8.0718  -16.0596   20.6724 C   0  0  2  0  0  0  0  0  0  0  0  0
    6.9952  -16.8108   20.0481 N   0  0  0  0  0  0  0  0  0  0  0  0
    8.2289  -16.5101   22.1016 C   0  0  0  0  0  0  0  0  0  0  0  0
    7.2338  -16.6468   22.8272 O   0  0  0  0  0  0  0  0  0  0  0  0
    9.5108  -16.7763   22.6122 N   0  0  0  0  0  0  0  0  0  0  0  0
    9.7484  -17.2854   23.9494 C   0  0  1  0  0  0  0  0  0  0  0  0
   10.8505  -18.2690   23.9103 C   0  0  0  0  0  0  0  0  0  0  0  0
   10.5446  -19.6060   23.4086 C   0  0  0  0  0  0  0  0  0  0  0  0
    9.4913  -20.4471   23.5317 C   0  0  0  0  0  0  0  0  0  0  0  0
    9.7538  -21.5743   22.8571 N   0  0  0  0  0  0  0  0  0  0  0  0
   10.9708  -21.4430   22.3103 C   0  0  0  0  0  0  0  0  0  0  0  0
   11.4649  -20.2575   22.6336 N   0  0  0  0  0  0  0  0  0  0  0  0
   10.1338  -16.0629   24.7578 C   0  0  0  0  0  0  0  0  0  0  0  0
   11.0360  -15.2686   24.3937 O   0  0  0  0  0  0  0  0  0  0  0  0
    7.4012  -14.0818   27.2234 C   0  0  0  0  0  0  0  0  0  0  0  0
    8.7570  -13.5679   26.8817 C   0  0  1  0  0  0  0  0  0  0  0  0
    9.1347  -12.4173   27.7919 C   0  0  0  0  0  0  0  0  0  0  0  0
    9.8272  -14.6056   26.7856 C   0  0  2  0  0  0  0  0  0  0  0  0
    9.4823  -15.7528   25.9866 N   0  0  0  0  0  0  0  0  0  0  0  0
   10.1029  -15.0900   28.1628 C   0  0  0  0  0  0  0  0  0  0  0  0
   10.7393  -14.3028   29.1089 O   0  0  0  0  0  0  0  0  0  0  0  0
    9.7512  -16.2378   28.4754 O   0  0  0  0  0  0  0  0  0  0  0  0
  2  1  1  0
  3  4  1  0
  3  2  1  0
  4  5  1  0
  5  6  1  1
  5  7  1  0
  7  8  2  0
  9  7  1  0
  9 10  1  0
 10 11  1  6
 11 12  1  0
 12 16  1  0
 12 13  2  0
 13 14  1  0
 15 14  1  0
 16 15  2  0
 17 10  1  0
 17 18  2  0
 20 19  1  1
 20 22  1  0
 21 20  1  0
 22 23  1  6
 23 17  1  0
 24 22  1  0
 24 25  1  0
 26 24  2  0
M  END
$$$$
