MHV.pdb
     RDKit          3D

 26 26  0  0  1  0  0  0  0  0999 V2000
    9.0067  -13.1123   18.8812 C   0  0  0  0  0  0  0  0  0  0  0  0
    7.7513  -12.5562   20.0188 S   0  0  0  0  0  0  0  0  0  0  0  0
    7.5132  -13.5571   21.4764 C   0  0  0  0  0  0  0  0  0  0  0  0
    7.2199  -14.9821   21.1368 C   0  0  0  0  0  0  0  0  0  0  0  0
    6.9992  -15.8063   22.3672 C   0  0  2  0  0  0  0  0  0  0  0  0
    6.7115  -14.9704   23.5212 N   0  0  0  0  0  0  0  0  0  0  0  0
    8.2908  -16.5468   22.5992 C   0  0  0  0  0  0  0  0  0  0  0  0
    8.5815  -17.5303   21.9036 O   0  0  0  0  0  0  0  0  0  0  0  0
    9.1687  -16.1186   23.6095 N   0  0  0  0  0  0  0  0  0  0  0  0
   10.4771  -16.7036   23.8319 C   0  0  1  0  0  0  0  0  0  0  0  0
   11.3630  -16.3683   22.6977 C   0  0  0  0  0  0  0  0  0  0  0  0
   11.2860  -17.2125   21.5086 C   0  0  0  0  0  0  0  0  0  0  0  0
   11.3920  -18.5426   21.2813 C   0  0  0  0  0  0  0  0  0  0  0  0
   11.2461  -18.7726   19.9698 N   0  0  0  0  0  0  0  0  0  0  0  0
   11.0487  -17.5890   19.3720 C   0  0  0  0  0  0  0  0  0  0  0  0
   11.0697  -16.6328   20.2883 N   0  0  0  0  0  0  0  0  0  0  0  0
   10.9653  -16.0637   25.1160 C   0  0  0  0  0  0  0  0  0  0  0  0
   11.8806  -15.2039   25.1372 O   0  0  0  0  0  0  0  0  0  0  0  0
    9.7031  -13.5664   27.2180 C   0  0  0  0  0  0  0  0  0  0  0  0
    9.8836  -14.7392   28.1187 C   0  0  1  0  0  0  0  0  0  0  0  0
    8.5399  -15.2926   28.5470 C   0  0  0  0  0  0  0  0  0  0  0  0
   10.8104  -15.7957   27.6128 C   0  0  2  0  0  0  0  0  0  0  0  0
   10.4018  -16.4126   26.3775 N   0  0  0  0  0  0  0  0  0  0  0  0
   10.8730  -16.8640   28.6433 C   0  0  0  0  0  0  0  0  0  0  0  0
   11.4818  -16.6693   29.8728 O   0  0  0  0  0  0  0  0  0  0  0  0
   10.3630  -17.9670   28.3942 O   0  0  0  0  0  0  0  0  0  0  0  0
  2  1  1  0
  3  4  1  0
  3  2  1  0
  4  5  1  0
  5  6  1  1
  5  7  1  0
  7  8  2  0
  9  7  1  0
  9 10  1  0
 10 11  1  6
 11 12  1  0
 12 16  1  0
 12 13  2  0
 13 14  1  0
 15 14  1  0
 16 15  2  0
 17 10  1  0
 17 18  2  0
 20 19  1  6
 20 22  1  0
 21 20  1  0
 22 23  1  6
 23 17  1  0
 24 22  1  0
 24 25  1  0
 26 24  2  0
M  END
$$$$
