MHV.pdb
     RDKit          3D

 26 26  0  0  1  0  0  0  0  0999 V2000
    9.4151  -12.1933   19.4223 C   0  0  0  0  0  0  0  0  0  0  0  0
    8.0722  -12.9349   18.5136 S   0  0  0  0  0  0  0  0  0  0  0  0
    7.6900  -14.6294   18.9203 C   0  0  0  0  0  0  0  0  0  0  0  0
    8.5340  -15.1416   20.0415 C   0  0  0  0  0  0  0  0  0  0  0  0
    8.1510  -16.5374   20.4248 C   0  0  2  0  0  0  0  0  0  0  0  0
    7.2512  -17.1279   19.4477 N   0  0  0  0  0  0  0  0  0  0  0  0
    7.4389  -16.4163   21.7471 C   0  0  0  0  0  0  0  0  0  0  0  0
    6.2125  -16.2424   21.7834 O   0  0  0  0  0  0  0  0  0  0  0  0
    8.1706  -16.5015   22.9439 N   0  0  0  0  0  0  0  0  0  0  0  0
    7.5542  -16.5403   24.2562 C   0  0  1  0  0  0  0  0  0  0  0  0
    7.8608  -17.8329   24.9034 C   0  0  0  0  0  0  0  0  0  0  0  0
    7.1147  -19.0057   24.4554 C   0  0  0  0  0  0  0  0  0  0  0  0
    6.1397  -19.2170   23.5405 C   0  0  0  0  0  0  0  0  0  0  0  0
    5.8078  -20.5148   23.5507 N   0  0  0  0  0  0  0  0  0  0  0  0
    6.5725  -21.1196   24.4708 C   0  0  0  0  0  0  0  0  0  0  0  0
    7.3700  -20.2214   25.0289 N   0  0  0  0  0  0  0  0  0  0  0  0
    8.1891  -15.3875   25.0077 C   0  0  0  0  0  0  0  0  0  0  0  0
    9.3980  -15.0755   24.8708 O   0  0  0  0  0  0  0  0  0  0  0  0
    6.3889  -11.7212   25.7741 C   0  0  0  0  0  0  0  0  0  0  0  0
    7.0166  -12.3873   26.9494 C   0  0  1  0  0  0  0  0  0  0  0  0
    5.9576  -12.8314   27.9376 C   0  0  0  0  0  0  0  0  0  0  0  0
    7.9941  -13.4688   26.6233 C   0  0  2  0  0  0  0  0  0  0  0  0
    7.4343  -14.5925   25.9180 N   0  0  0  0  0  0  0  0  0  0  0  0
    8.5403  -13.9777   27.9078 C   0  0  0  0  0  0  0  0  0  0  0  0
    9.3211  -13.1927   28.7409 O   0  0  0  0  0  0  0  0  0  0  0  0
    8.2887  -15.1446   28.2450 O   0  0  0  0  0  0  0  0  0  0  0  0
  2  1  1  0
  3  4  1  0
  3  2  1  0
  4  5  1  0
  5  6  1  6
  5  7  1  0
  7  8  2  0
  9  7  1  0
  9 10  1  0
 10 11  1  1
 11 12  1  0
 12 16  1  0
 12 13  2  0
 13 14  1  0
 15 14  1  0
 16 15  2  0
 17 10  1  0
 17 18  2  0
 20 19  1  6
 20 22  1  0
 21 20  1  0
 22 23  1  1
 23 17  1  0
 24 22  1  0
 24 25  1  0
 26 24  2  0
M  END
$$$$
