YTV.pdb
     RDKit          3D

 27 27  0  0  1  0  0  0  0  0999 V2000
    8.7401  -13.2127   16.4836 O   0  0  0  0  0  0  0  0  0  0  0  0
    8.2636  -13.5898   17.7292 C   0  0  0  0  0  0  0  0  0  0  0  0
    7.6092  -12.6609   18.5092 C   0  0  0  0  0  0  0  0  0  0  0  0
    7.1217  -13.0181   19.7651 C   0  0  0  0  0  0  0  0  0  0  0  0
    7.3079  -14.3165   20.2081 C   0  0  0  0  0  0  0  0  0  0  0  0
    6.8079  -14.7243   21.5228 C   0  0  0  0  0  0  0  0  0  0  0  0
    6.9832  -16.2086   21.7519 C   0  0  2  0  0  0  0  0  0  0  0  0
    5.8331  -16.8655   21.1551 N   0  0  0  0  0  0  0  0  0  0  0  0
    6.9945  -16.5283   23.1937 C   0  0  0  0  0  0  0  0  0  0  0  0
    5.9530  -16.3531   23.8625 O   0  0  0  0  0  0  0  0  0  0  0  0
    7.9656  -15.2273   19.4094 C   0  0  0  0  0  0  0  0  0  0  0  0
    8.4609  -14.8939   18.1526 C   0  0  0  0  0  0  0  0  0  0  0  0
    6.9777  -19.3332   25.0208 C   0  0  0  0  0  0  0  0  0  0  0  0
    8.2256  -18.6447   25.5824 C   0  0  1  0  0  0  0  0  0  0  0  0
    9.3162  -19.2403   24.9816 O   0  0  0  0  0  0  0  0  0  0  0  0
    8.1600  -17.1464   25.2615 C   0  0  2  0  0  0  0  0  0  0  0  0
    8.1475  -17.0265   23.8399 N   0  0  0  0  0  0  0  0  0  0  0  0
    9.3667  -16.5454   25.8830 C   0  0  0  0  0  0  0  0  0  0  0  0
   10.4184  -16.4963   25.1976 O   0  0  0  0  0  0  0  0  0  0  0  0
    9.2821  -14.0478   29.3873 C   0  0  0  0  0  0  0  0  0  0  0  0
   10.3090  -14.0661   28.2969 C   0  0  2  0  0  0  0  0  0  0  0  0
   10.0052  -13.1176   27.1696 C   0  0  0  0  0  0  0  0  0  0  0  0
   10.5594  -15.4698   27.8339 C   0  0  2  0  0  0  0  0  0  0  0  0
    9.3808  -16.0308   27.2019 N   0  0  0  0  0  0  0  0  0  0  0  0
   10.8700  -16.2809   29.0643 C   0  0  0  0  0  0  0  0  0  0  0  0
   12.0826  -16.1182   29.7256 O   0  0  0  0  0  0  0  0  0  0  0  0
   10.0673  -17.1119   29.5265 O   0  0  0  0  0  0  0  0  0  0  0  0
  2 12  2  0
  2  1  1  0
  3  2  1  0
  4  5  1  0
  4  3  2  0
  5 11  2  0
  6  5  1  0
  7  6  1  0
  7  8  1  6
  9  7  1  0
  9 10  2  0
 11 12  1  0
 14 13  1  6
 14 15  1  0
 14 16  1  0
 16 17  1  6
 17  9  1  0
 18 16  1  0
 19 18  2  0
 21 20  1  1
 22 21  1  0
 23 24  1  1
 23 21  1  0
 24 18  1  0
 25 23  1  0
 26 25  1  0
 27 25  2  0
M  END
$$$$
