YTV.pdb
     RDKit          3D

 27 27  0  0  1  0  0  0  0  0999 V2000
   13.0277  -21.4036   25.8691 O   0  0  0  0  0  0  0  0  0  0  0  0
   12.8727  -20.2379   25.1357 C   0  0  0  0  0  0  0  0  0  0  0  0
   13.8844  -19.8343   24.2913 C   0  0  0  0  0  0  0  0  0  0  0  0
   13.7502  -18.6654   23.5442 C   0  0  0  0  0  0  0  0  0  0  0  0
   12.5871  -17.9246   23.6682 C   0  0  0  0  0  0  0  0  0  0  0  0
   12.4143  -16.6915   22.8974 C   0  0  0  0  0  0  0  0  0  0  0  0
   11.3954  -16.8605   21.7930 C   0  0  2  0  0  0  0  0  0  0  0  0
   12.0854  -16.6039   20.5406 N   0  0  0  0  0  0  0  0  0  0  0  0
   10.3012  -15.8770   21.9214 C   0  0  0  0  0  0  0  0  0  0  0  0
    9.9047  -15.2733   20.9010 O   0  0  0  0  0  0  0  0  0  0  0  0
   11.5896  -18.3492   24.5195 C   0  0  0  0  0  0  0  0  0  0  0  0
   11.7010  -19.5122   25.2751 C   0  0  0  0  0  0  0  0  0  0  0  0
    7.8137  -15.9581   21.0575 C   0  0  0  0  0  0  0  0  0  0  0  0
    7.4031  -15.7078   22.5119 C   0  0  1  0  0  0  0  0  0  0  0  0
    7.2893  -16.9444   23.1144 O   0  0  0  0  0  0  0  0  0  0  0  0
    8.4746  -14.8496   23.1958 C   0  0  2  0  0  0  0  0  0  0  0  0
    9.6888  -15.5979   23.1633 N   0  0  0  0  0  0  0  0  0  0  0  0
    7.9805  -14.6066   24.5744 C   0  0  0  0  0  0  0  0  0  0  0  0
    7.9521  -15.5795   25.3686 O   0  0  0  0  0  0  0  0  0  0  0  0
    5.0804  -11.9636   26.2559 C   0  0  0  0  0  0  0  0  0  0  0  0
    6.5309  -11.7402   26.5559 C   0  0  2  0  0  0  0  0  0  0  0  0
    7.1363  -10.6021   25.7805 C   0  0  0  0  0  0  0  0  0  0  0  0
    7.2993  -13.0201   26.4195 C   0  0  2  0  0  0  0  0  0  0  0  0
    7.5448  -13.3374   25.0258 N   0  0  0  0  0  0  0  0  0  0  0  0
    6.4375  -14.1055   27.0089 C   0  0  0  0  0  0  0  0  0  0  0  0
    6.4430  -14.3404   28.3797 O   0  0  0  0  0  0  0  0  0  0  0  0
    5.7018  -14.8196   26.3037 O   0  0  0  0  0  0  0  0  0  0  0  0
  2 12  2  0
  2  1  1  0
  3  2  1  0
  4  5  1  0
  4  3  2  0
  5 11  2  0
  6  5  1  0
  7  6  1  0
  7  8  1  6
  9  7  1  0
  9 10  2  0
 11 12  1  0
 14 13  1  6
 14 15  1  0
 14 16  1  0
 16 17  1  1
 17  9  1  0
 18 16  1  0
 19 18  2  0
 21 20  1  6
 22 21  1  0
 23 24  1  6
 23 21  1  0
 24 18  1  0
 25 23  1  0
 26 25  1  0
 27 25  2  0
M  END
$$$$
