YTV.pdb
     RDKit          3D

 27 27  0  0  1  0  0  0  0  0999 V2000
   17.4198  -14.4985   19.3356 O   0  0  0  0  0  0  0  0  0  0  0  0
   16.0562  -14.3496   19.5337 C   0  0  0  0  0  0  0  0  0  0  0  0
   15.2776  -13.8528   18.5108 C   0  0  0  0  0  0  0  0  0  0  0  0
   13.9042  -13.6947   18.6878 C   0  0  0  0  0  0  0  0  0  0  0  0
   13.3440  -14.0452   19.9044 C   0  0  0  0  0  0  0  0  0  0  0  0
   11.9041  -13.8915   20.1231 C   0  0  0  0  0  0  0  0  0  0  0  0
   11.1625  -15.1896   19.8971 C   0  0  2  0  0  0  0  0  0  0  0  0
   10.7799  -15.2175   18.4959 N   0  0  0  0  0  0  0  0  0  0  0  0
    9.9298  -15.2482   20.7083 C   0  0  0  0  0  0  0  0  0  0  0  0
    8.8766  -14.7560   20.2487 O   0  0  0  0  0  0  0  0  0  0  0  0
   14.1439  -14.5399   20.9121 C   0  0  0  0  0  0  0  0  0  0  0  0
   15.5168  -14.7064   20.7587 C   0  0  0  0  0  0  0  0  0  0  0  0
    7.6624  -17.6687   21.8261 C   0  0  0  0  0  0  0  0  0  0  0  0
    8.2030  -17.0591   23.1234 C   0  0  1  0  0  0  0  0  0  0  0  0
    9.1873  -17.9092   23.5856 O   0  0  0  0  0  0  0  0  0  0  0  0
    8.7647  -15.6631   22.8265 C   0  0  2  0  0  0  0  0  0  0  0  0
    9.9052  -15.8441   21.9888 N   0  0  0  0  0  0  0  0  0  0  0  0
    9.1028  -15.0730   24.1460 C   0  0  0  0  0  0  0  0  0  0  0  0
   10.2601  -15.2633   24.5958 O   0  0  0  0  0  0  0  0  0  0  0  0
    6.1174  -13.1219   26.5473 C   0  0  0  0  0  0  0  0  0  0  0  0
    7.5516  -12.6945   26.6130 C   0  0  2  0  0  0  0  0  0  0  0  0
    7.8407  -11.4398   25.8351 C   0  0  0  0  0  0  0  0  0  0  0  0
    8.4569  -13.8333   26.2511 C   0  0  2  0  0  0  0  0  0  0  0  0
    8.1844  -14.3129   24.9098 N   0  0  0  0  0  0  0  0  0  0  0  0
    8.1603  -14.9455   27.2223 C   0  0  0  0  0  0  0  0  0  0  0  0
    8.6216  -14.8759   28.5325 O   0  0  0  0  0  0  0  0  0  0  0  0
    7.5032  -15.9500   26.8943 O   0  0  0  0  0  0  0  0  0  0  0  0
  2 12  2  0
  2  1  1  0
  3  2  1  0
  4  5  1  0
  4  3  2  0
  5 11  2  0
  6  5  1  0
  7  6  1  0
  7  8  1  6
  9  7  1  0
  9 10  2  0
 11 12  1  0
 14 13  1  6
 14 15  1  0
 14 16  1  0
 16 17  1  6
 17  9  1  0
 18 16  1  0
 19 18  2  0
 21 20  1  6
 22 21  1  0
 23 24  1  6
 23 21  1  0
 24 18  1  0
 25 23  1  0
 26 25  1  0
 27 25  2  0
M  END
$$$$
