YTV.pdb
     RDKit          3D

 27 27  0  0  1  0  0  0  0  0999 V2000
    8.4428  -12.5866   16.2295 O   0  0  0  0  0  0  0  0  0  0  0  0
    8.1789  -13.0205   17.5190 C   0  0  0  0  0  0  0  0  0  0  0  0
    9.1995  -13.5649   18.2683 C   0  0  0  0  0  0  0  0  0  0  0  0
    8.9569  -14.0078   19.5673 C   0  0  0  0  0  0  0  0  0  0  0  0
    7.6779  -13.8897   20.0842 C   0  0  0  0  0  0  0  0  0  0  0  0
    7.3894  -14.3453   21.4457 C   0  0  0  0  0  0  0  0  0  0  0  0
    7.5383  -15.8443   21.5770 C   0  0  2  0  0  0  0  0  0  0  0  0
    6.3689  -16.4398   20.9539 N   0  0  0  0  0  0  0  0  0  0  0  0
    7.5597  -16.2562   22.9951 C   0  0  0  0  0  0  0  0  0  0  0  0
    6.5043  -16.1916   23.6621 O   0  0  0  0  0  0  0  0  0  0  0  0
    6.6739  -13.3417   19.3149 C   0  0  0  0  0  0  0  0  0  0  0  0
    6.8922  -12.8928   18.0161 C   0  0  0  0  0  0  0  0  0  0  0  0
    7.8809  -19.3411   24.4322 C   0  0  0  0  0  0  0  0  0  0  0  0
    9.0104  -18.5579   25.1085 C   0  0  1  0  0  0  0  0  0  0  0  0
   10.1765  -18.8841   24.4460 O   0  0  0  0  0  0  0  0  0  0  0  0
    8.7116  -17.0569   25.0071 C   0  0  2  0  0  0  0  0  0  0  0  0
    8.7376  -16.7212   23.6208 N   0  0  0  0  0  0  0  0  0  0  0  0
    9.7760  -16.3779   25.7878 C   0  0  0  0  0  0  0  0  0  0  0  0
   10.8604  -16.1245   25.2065 O   0  0  0  0  0  0  0  0  0  0  0  0
    9.1334  -14.1904   29.4356 C   0  0  0  0  0  0  0  0  0  0  0  0
   10.2522  -14.0530   28.4491 C   0  0  2  0  0  0  0  0  0  0  0  0
    9.9661  -13.0668   27.3498 C   0  0  0  0  0  0  0  0  0  0  0  0
   10.6713  -15.3987   27.9384 C   0  0  2  0  0  0  0  0  0  0  0  0
    9.6209  -16.0082   27.1457 N   0  0  0  0  0  0  0  0  0  0  0  0
   10.9152  -16.2622   29.1479 C   0  0  0  0  0  0  0  0  0  0  0  0
   10.0749  -17.3349   29.4264 O   0  0  0  0  0  0  0  0  0  0  0  0
   11.8608  -16.0517   29.9290 O   0  0  0  0  0  0  0  0  0  0  0  0
  2 12  2  0
  2  1  1  0
  3  2  1  0
  4  5  1  0
  4  3  2  0
  5 11  2  0
  6  5  1  0
  7  6  1  0
  7  8  1  6
  9  7  1  0
  9 10  2  0
 11 12  1  0
 14 13  1  6
 14 15  1  0
 14 16  1  0
 16 17  1  6
 17  9  1  0
 18 16  1  0
 19 18  2  0
 21 20  1  6
 22 21  1  0
 23 24  1  6
 23 21  1  0
 24 18  1  0
 25 23  1  0
 26 25  1  0
 27 25  2  0
M  END
$$$$
