YTV.pdb
     RDKit          3D

 27 27  0  0  1  0  0  0  0  0999 V2000
   14.0766  -22.5874   23.3599 O   0  0  0  0  0  0  0  0  0  0  0  0
   13.6739  -21.2777   23.1521 C   0  0  0  0  0  0  0  0  0  0  0  0
   14.6047  -20.2652   23.2398 C   0  0  0  0  0  0  0  0  0  0  0  0
   14.2222  -18.9408   23.0346 C   0  0  0  0  0  0  0  0  0  0  0  0
   12.8967  -18.6672   22.7428 C   0  0  0  0  0  0  0  0  0  0  0  0
   12.4617  -17.2864   22.5216 C   0  0  0  0  0  0  0  0  0  0  0  0
   11.3983  -17.2001   21.4502 C   0  0  2  0  0  0  0  0  0  0  0  0
   12.0869  -16.9772   20.1905 N   0  0  0  0  0  0  0  0  0  0  0  0
   10.4952  -16.0554   21.6857 C   0  0  0  0  0  0  0  0  0  0  0  0
   10.8124  -14.9306   21.2421 O   0  0  0  0  0  0  0  0  0  0  0  0
   11.9845  -19.6974   22.6605 C   0  0  0  0  0  0  0  0  0  0  0  0
   12.3430  -21.0267   22.8614 C   0  0  0  0  0  0  0  0  0  0  0  0
    7.0158  -15.3461   20.7641 C   0  0  0  0  0  0  0  0  0  0  0  0
    7.0799  -15.3015   22.2940 C   0  0  1  0  0  0  0  0  0  0  0  0
    6.6392  -16.5277   22.7492 O   0  0  0  0  0  0  0  0  0  0  0  0
    8.5257  -15.0310   22.7286 C   0  0  2  0  0  0  0  0  0  0  0  0
    9.2831  -16.1938   22.3976 N   0  0  0  0  0  0  0  0  0  0  0  0
    8.4685  -14.7732   24.1894 C   0  0  0  0  0  0  0  0  0  0  0  0
    8.9761  -15.6279   24.9574 O   0  0  0  0  0  0  0  0  0  0  0  0
    5.4811  -12.4037   26.1646 C   0  0  0  0  0  0  0  0  0  0  0  0
    6.9306  -12.1553   26.4493 C   0  0  2  0  0  0  0  0  0  0  0  0
    7.4739  -10.9268   25.7720 C   0  0  0  0  0  0  0  0  0  0  0  0
    7.7396  -13.3867   26.1722 C   0  0  2  0  0  0  0  0  0  0  0  0
    7.8720  -13.6163   24.7464 N   0  0  0  0  0  0  0  0  0  0  0  0
    6.9834  -14.5433   26.7711 C   0  0  0  0  0  0  0  0  0  0  0  0
    7.1381  -14.8630   28.1158 O   0  0  0  0  0  0  0  0  0  0  0  0
    6.2061  -15.2432   26.0970 O   0  0  0  0  0  0  0  0  0  0  0  0
  2 12  2  0
  2  1  1  0
  3  2  1  0
  4  5  1  0
  4  3  2  0
  5 11  2  0
  6  5  1  0
  7  6  1  0
  7  8  1  6
  9  7  1  0
  9 10  2  0
 11 12  1  0
 14 13  1  6
 14 15  1  0
 14 16  1  0
 16 17  1  1
 17  9  1  0
 18 16  1  0
 19 18  2  0
 21 20  1  6
 22 21  1  0
 23 24  1  6
 23 21  1  0
 24 18  1  0
 25 23  1  0
 26 25  1  0
 27 25  2  0
M  END
$$$$
