YTV.pdb
     RDKit          3D

 27 27  0  0  1  0  0  0  0  0999 V2000
    8.7140  -13.0533   16.7011 O   0  0  0  0  0  0  0  0  0  0  0  0
    8.2983  -13.4951   17.9472 C   0  0  0  0  0  0  0  0  0  0  0  0
    8.3362  -14.8433   18.2306 C   0  0  0  0  0  0  0  0  0  0  0  0
    7.9230  -15.3099   19.4772 C   0  0  0  0  0  0  0  0  0  0  0  0
    7.4771  -14.3963   20.4170 C   0  0  0  0  0  0  0  0  0  0  0  0
    7.0359  -14.8535   21.7364 C   0  0  0  0  0  0  0  0  0  0  0  0
    7.1208  -16.3578   21.8642 C   0  0  2  0  0  0  0  0  0  0  0  0
    5.7648  -16.8670   21.7523 N   0  0  0  0  0  0  0  0  0  0  0  0
    7.6491  -16.7521   23.1857 C   0  0  0  0  0  0  0  0  0  0  0  0
    6.8836  -16.7397   24.1739 O   0  0  0  0  0  0  0  0  0  0  0  0
    7.4486  -13.0528   20.1096 C   0  0  0  0  0  0  0  0  0  0  0  0
    7.8560  -12.5637   18.8723 C   0  0  0  0  0  0  0  0  0  0  0  0
   11.0287  -19.0387   25.8522 C   0  0  0  0  0  0  0  0  0  0  0  0
   10.5481  -18.5613   24.4782 C   0  0  1  0  0  0  0  0  0  0  0  0
   10.0668  -19.6715   23.8142 O   0  0  0  0  0  0  0  0  0  0  0  0
    9.4521  -17.5054   24.6683 C   0  0  2  0  0  0  0  0  0  0  0  0
    8.9943  -17.1432   23.3665 N   0  0  0  0  0  0  0  0  0  0  0  0
   10.0951  -16.3790   25.3905 C   0  0  0  0  0  0  0  0  0  0  0  0
   10.9984  -15.7392   24.7967 O   0  0  0  0  0  0  0  0  0  0  0  0
    8.4087  -14.4390   28.8258 C   0  0  0  0  0  0  0  0  0  0  0  0
    9.4002  -13.8800   27.8520 C   0  0  2  0  0  0  0  0  0  0  0  0
    8.7641  -13.1791   26.6828 C   0  0  0  0  0  0  0  0  0  0  0  0
   10.3857  -14.9328   27.4422 C   0  0  2  0  0  0  0  0  0  0  0  0
    9.7359  -16.0004   26.7067 N   0  0  0  0  0  0  0  0  0  0  0  0
   10.9545  -15.5089   28.7121 C   0  0  0  0  0  0  0  0  0  0  0  0
   10.6151  -16.7966   29.1132 O   0  0  0  0  0  0  0  0  0  0  0  0
   11.7352  -14.8655   29.4366 O   0  0  0  0  0  0  0  0  0  0  0  0
  2 12  2  0
  2  1  1  0
  3  2  1  0
  4  5  1  0
  4  3  2  0
  5 11  2  0
  6  5  1  0
  7  6  1  0
  7  8  1  1
  9  7  1  0
  9 10  2  0
 11 12  1  0
 14 13  1  1
 14 15  1  0
 14 16  1  0
 16 17  1  6
 17  9  1  0
 18 16  1  0
 19 18  2  0
 21 20  1  6
 22 21  1  0
 23 24  1  1
 23 21  1  0
 24 18  1  0
 25 23  1  0
 26 25  1  0
 27 25  2  0
M  END
$$$$
