YTV.pdb
     RDKit          3D

 27 27  0  0  1  0  0  0  0  0999 V2000
    9.1660  -12.6960   16.4357 O   0  0  0  0  0  0  0  0  0  0  0  0
    8.4564  -13.2298   17.4998 C   0  0  0  0  0  0  0  0  0  0  0  0
    8.9260  -13.0454   18.7823 C   0  0  0  0  0  0  0  0  0  0  0  0
    8.2286  -13.5734   19.8674 C   0  0  0  0  0  0  0  0  0  0  0  0
    7.0629  -14.2816   19.6302 C   0  0  0  0  0  0  0  0  0  0  0  0
    6.3063  -14.8494   20.7481 C   0  0  0  0  0  0  0  0  0  0  0  0
    6.6729  -16.2955   20.9943 C   0  0  2  0  0  0  0  0  0  0  0  0
    5.6389  -17.1039   20.3716 N   0  0  0  0  0  0  0  0  0  0  0  0
    6.6862  -16.6043   22.4385 C   0  0  0  0  0  0  0  0  0  0  0  0
    5.6002  -16.7863   23.0303 O   0  0  0  0  0  0  0  0  0  0  0  0
    6.6137  -14.4525   18.3382 C   0  0  0  0  0  0  0  0  0  0  0  0
    7.2928  -13.9349   17.2396 C   0  0  0  0  0  0  0  0  0  0  0  0
    8.4351  -18.4291   26.4299 C   0  0  0  0  0  0  0  0  0  0  0  0
    8.5450  -18.1695   24.9242 C   0  0  1  0  0  0  0  0  0  0  0  0
    7.9429  -19.2366   24.2888 O   0  0  0  0  0  0  0  0  0  0  0  0
    7.8394  -16.8495   24.5893 C   0  0  2  0  0  0  0  0  0  0  0  0
    7.8899  -16.7000   23.1714 N   0  0  0  0  0  0  0  0  0  0  0  0
    8.5924  -15.7928   25.3104 C   0  0  0  0  0  0  0  0  0  0  0  0
    9.7766  -15.5690   24.9559 O   0  0  0  0  0  0  0  0  0  0  0  0
    6.6640  -13.2011   28.1243 C   0  0  0  0  0  0  0  0  0  0  0  0
    7.8486  -12.7957   27.3019 C   0  0  2  0  0  0  0  0  0  0  0  0
    7.4820  -12.0584   26.0430 C   0  0  0  0  0  0  0  0  0  0  0  0
    8.7451  -13.9717   27.0556 C   0  0  2  0  0  0  0  0  0  0  0  0
    8.0369  -15.0353   26.3697 N   0  0  0  0  0  0  0  0  0  0  0  0
    9.1711  -14.4800   28.4078 C   0  0  0  0  0  0  0  0  0  0  0  0
    8.7180  -15.7107   28.8705 O   0  0  0  0  0  0  0  0  0  0  0  0
    9.9309  -13.8291   29.1478 O   0  0  0  0  0  0  0  0  0  0  0  0
  2 12  2  0
  2  1  1  0
  3  2  1  0
  4  5  1  0
  4  3  2  0
  5 11  2  0
  6  5  1  0
  7  6  1  0
  7  8  1  6
  9  7  1  0
  9 10  2  0
 11 12  1  0
 14 13  1  1
 14 15  1  0
 14 16  1  0
 16 17  1  6
 17  9  1  0
 18 16  1  0
 19 18  2  0
 21 20  1  6
 22 21  1  0
 23 24  1  1
 23 21  1  0
 24 18  1  0
 25 23  1  0
 26 25  1  0
 27 25  2  0
M  END
$$$$
