YTV.pdb
     RDKit          3D

 27 27  0  0  1  0  0  0  0  0999 V2000
    6.8598  -24.0646   28.8846 O   0  0  0  0  0  0  0  0  0  0  0  0
    7.2387  -22.8705   28.2918 C   0  0  0  0  0  0  0  0  0  0  0  0
    8.4464  -22.3022   28.6347 C   0  0  0  0  0  0  0  0  0  0  0  0
    8.8477  -21.1018   28.0511 C   0  0  0  0  0  0  0  0  0  0  0  0
    8.0126  -20.4978   27.1266 C   0  0  0  0  0  0  0  0  0  0  0  0
    8.4044  -19.2360   26.4950 C   0  0  0  0  0  0  0  0  0  0  0  0
    8.5825  -19.3901   25.0014 C   0  0  2  0  0  0  0  0  0  0  0  0
    9.8091  -20.1417   24.7989 N   0  0  0  0  0  0  0  0  0  0  0  0
    8.7380  -18.0766   24.3442 C   0  0  0  0  0  0  0  0  0  0  0  0
    9.8770  -17.5671   24.2677 O   0  0  0  0  0  0  0  0  0  0  0  0
    6.8095  -21.0860   26.8003 C   0  0  0  0  0  0  0  0  0  0  0  0
    6.3879  -22.2836   27.3695 C   0  0  0  0  0  0  0  0  0  0  0  0
    7.4721  -16.1688   21.1728 C   0  0  0  0  0  0  0  0  0  0  0  0
    6.8362  -15.5954   22.4430 C   0  0  1  0  0  0  0  0  0  0  0  0
    5.5766  -16.1503   22.5459 O   0  0  0  0  0  0  0  0  0  0  0  0
    7.7082  -15.9613   23.6506 C   0  0  2  0  0  0  0  0  0  0  0  0
    7.6376  -17.3785   23.7992 N   0  0  0  0  0  0  0  0  0  0  0  0
    7.1305  -15.2282   24.8049 C   0  0  0  0  0  0  0  0  0  0  0  0
    6.3958  -15.8669   25.5988 O   0  0  0  0  0  0  0  0  0  0  0  0
    7.0388  -10.9520   25.0139 C   0  0  0  0  0  0  0  0  0  0  0  0
    7.3729  -11.7371   26.2451 C   0  0  2  0  0  0  0  0  0  0  0  0
    8.8379  -11.7243   26.5865 C   0  0  0  0  0  0  0  0  0  0  0  0
    6.8007  -13.1200   26.1584 C   0  0  2  0  0  0  0  0  0  0  0  0
    7.3711  -13.8538   25.0451 N   0  0  0  0  0  0  0  0  0  0  0  0
    5.3230  -12.9609   25.9150 C   0  0  0  0  0  0  0  0  0  0  0  0
    4.4795  -12.5644   26.9473 O   0  0  0  0  0  0  0  0  0  0  0  0
    4.8112  -13.1744   24.8010 O   0  0  0  0  0  0  0  0  0  0  0  0
  2 12  2  0
  2  1  1  0
  3  2  1  0
  4  5  1  0
  4  3  2  0
  5 11  2  0
  6  5  1  0
  7  6  1  0
  7  8  1  1
  9  7  1  0
  9 10  2  0
 11 12  1  0
 14 13  1  6
 14 15  1  0
 14 16  1  0
 16 17  1  1
 17  9  1  0
 18 16  1  0
 19 18  2  0
 21 20  1  6
 22 21  1  0
 23 24  1  6
 23 21  1  0
 24 18  1  0
 25 23  1  0
 26 25  1  0
 27 25  2  0
M  END
$$$$
