YTV.pdb
     RDKit          3D

 27 27  0  0  1  0  0  0  0  0999 V2000
   13.2599  -23.1388   23.9550 O   0  0  0  0  0  0  0  0  0  0  0  0
   13.0412  -21.7887   23.7316 C   0  0  0  0  0  0  0  0  0  0  0  0
   14.1214  -20.9378   23.6402 C   0  0  0  0  0  0  0  0  0  0  0  0
   13.9250  -19.5763   23.4159 C   0  0  0  0  0  0  0  0  0  0  0  0
   12.6308  -19.1014   23.2880 C   0  0  0  0  0  0  0  0  0  0  0  0
   12.3897  -17.6764   23.0518 C   0  0  0  0  0  0  0  0  0  0  0  0
   11.4317  -17.4542   21.9032 C   0  0  2  0  0  0  0  0  0  0  0  0
   12.2404  -17.2602   20.7120 N   0  0  0  0  0  0  0  0  0  0  0  0
   10.6239  -16.2353   22.1102 C   0  0  0  0  0  0  0  0  0  0  0  0
   11.1145  -15.1243   21.8142 O   0  0  0  0  0  0  0  0  0  0  0  0
   11.5668  -19.9726   23.3833 C   0  0  0  0  0  0  0  0  0  0  0  0
   11.7382  -21.3352   23.6067 C   0  0  0  0  0  0  0  0  0  0  0  0
    7.5181  -14.8927   20.7574 C   0  0  0  0  0  0  0  0  0  0  0  0
    7.2907  -15.0904   22.2593 C   0  0  1  0  0  0  0  0  0  0  0  0
    6.6545  -16.3058   22.4115 O   0  0  0  0  0  0  0  0  0  0  0  0
    8.6452  -15.0749   22.9787 C   0  0  2  0  0  0  0  0  0  0  0  0
    9.3127  -16.2875   22.6330 N   0  0  0  0  0  0  0  0  0  0  0  0
    8.3341  -14.9775   24.4269 C   0  0  0  0  0  0  0  0  0  0  0  0
    8.5352  -15.9913   25.1409 O   0  0  0  0  0  0  0  0  0  0  0  0
    5.6424  -12.0867   25.9457 C   0  0  0  0  0  0  0  0  0  0  0  0
    6.8769  -12.3632   26.7478 C   0  0  2  0  0  0  0  0  0  0  0  0
    7.9093  -11.2729   26.6565 C   0  0  0  0  0  0  0  0  0  0  0  0
    7.4234  -13.7203   26.4209 C   0  0  2  0  0  0  0  0  0  0  0  0
    7.8255  -13.8017   25.0299 N   0  0  0  0  0  0  0  0  0  0  0  0
    6.3048  -14.7024   26.6499 C   0  0  0  0  0  0  0  0  0  0  0  0
    5.9456  -15.0693   27.9425 O   0  0  0  0  0  0  0  0  0  0  0  0
    5.6718  -15.2128   25.7080 O   0  0  0  0  0  0  0  0  0  0  0  0
  2 12  2  0
  2  1  1  0
  3  2  1  0
  4  5  1  0
  4  3  2  0
  5 11  2  0
  6  5  1  0
  7  6  1  0
  7  8  1  6
  9  7  1  0
  9 10  2  0
 11 12  1  0
 14 13  1  6
 14 15  1  0
 14 16  1  0
 16 17  1  1
 17  9  1  0
 18 16  1  0
 19 18  2  0
 21 20  1  6
 22 21  1  0
 23 24  1  6
 23 21  1  0
 24 18  1  0
 25 23  1  0
 26 25  1  0
 27 25  2  0
M  END
$$$$
