YVM.pdb
     RDKit          3D

 28 28  0  0  1  0  0  0  0  0999 V2000
   31.0881  -16.2457  -18.9882 O   0  0  0  0  0  0  0  0  0  0  0  0
   30.2146  -16.5321  -17.9459 C   0  0  0  0  0  0  0  0  0  0  0  0
   30.3798  -17.7113  -17.2763 C   0  0  0  0  0  0  0  0  0  0  0  0
   29.5115  -18.0098  -16.2305 C   0  0  0  0  0  0  0  0  0  0  0  0
   28.5118  -17.1406  -15.8788 C   0  0  0  0  0  0  0  0  0  0  0  0
   27.5709  -17.4231  -14.7740 C   0  0  0  0  0  0  0  0  0  0  0  0
   26.6596  -18.6132  -15.1033 C   0  0  2  0  0  0  0  0  0  0  0  0
   25.7622  -18.1467  -16.1449 N   0  0  0  0  0  0  0  0  0  0  0  0
   25.9224  -18.9198  -13.8528 C   0  0  0  0  0  0  0  0  0  0  0  0
   25.2037  -18.0174  -13.3588 O   0  0  0  0  0  0  0  0  0  0  0  0
   28.3759  -15.9635  -16.5751 C   0  0  0  0  0  0  0  0  0  0  0  0
   29.2090  -15.6194  -17.6191 C   0  0  0  0  0  0  0  0  0  0  0  0
   23.3762  -21.1603  -13.5159 C   0  0  0  0  0  0  0  0  0  0  0  0
   24.2038  -21.5064  -12.2982 C   0  0  2  0  0  0  0  0  0  0  0  0
   23.3333  -21.8640  -11.1227 C   0  0  0  0  0  0  0  0  0  0  0  0
   25.2067  -20.4338  -11.9722 C   0  0  2  0  0  0  0  0  0  0  0  0
   25.9731  -20.1655  -13.1741 N   0  0  0  0  0  0  0  0  0  0  0  0
   26.0751  -20.7806  -10.8267 C   0  0  0  0  0  0  0  0  0  0  0  0
   26.8920  -21.7231  -10.9898 O   0  0  0  0  0  0  0  0  0  0  0  0
   28.8863  -17.7489   -6.5861 C   0  0  0  0  0  0  0  0  0  0  0  0
   28.5094  -19.0374   -5.3708 S   0  0  0  0  0  0  0  0  0  0  0  0
   27.4595  -20.3392   -6.1142 C   0  0  0  0  0  0  0  0  0  0  0  0
   27.1488  -19.8947   -7.5039 C   0  0  0  0  0  0  0  0  0  0  0  0
   26.3172  -20.8324   -8.3160 C   0  0  2  0  0  0  0  0  0  0  0  0
   26.0429  -20.1289   -9.5829 N   0  0  0  0  0  0  0  0  0  0  0  0
   25.0357  -21.1846   -7.6555 C   0  0  0  0  0  0  0  0  0  0  0  0
   24.9640  -22.1961   -6.7144 O   0  0  0  0  0  0  0  0  0  0  0  0
   23.9798  -20.5588   -7.9473 O   0  0  0  0  0  0  0  0  0  0  0  0
  2 12  2  0
  2  1  1  0
  3  2  1  0
  4  5  1  0
  4  3  2  0
  5 11  2  0
  6  5  1  0
  7  6  1  0
  7  8  1  6
  9 10  2  0
  9  7  1  0
 11 12  1  0
 14 13  1  6
 14 16  1  0
 15 14  1  0
 16 17  1  6
 17  9  1  0
 18 19  2  0
 18 16  1  0
 20 21  1  0
 22 21  1  0
 23 22  1  0
 24 23  1  1
 24 25  1  0
 25 18  1  0
 26 24  1  0
 27 26  1  0
 28 26  2  0
M  END
$$$$
