YVM.pdb
     RDKit          3D

 28 28  0  0  1  0  0  0  0  0999 V2000
   18.3500  -18.4793  -15.6964 O   0  0  0  0  0  0  0  0  0  0  0  0
   19.3730  -19.0726  -14.9666 C   0  0  0  0  0  0  0  0  0  0  0  0
   19.1591  -20.3243  -14.4630 C   0  0  0  0  0  0  0  0  0  0  0  0
   20.1759  -20.9294  -13.7304 C   0  0  0  0  0  0  0  0  0  0  0  0
   21.3666  -20.2847  -13.5177 C   0  0  0  0  0  0  0  0  0  0  0  0
   22.4693  -20.8952  -12.7451 C   0  0  0  0  0  0  0  0  0  0  0  0
   23.6915  -21.1692  -13.6318 C   0  0  2  0  0  0  0  0  0  0  0  0
   23.3178  -22.2823  -14.4858 N   0  0  0  0  0  0  0  0  0  0  0  0
   24.7899  -21.5431  -12.7071 C   0  0  0  0  0  0  0  0  0  0  0  0
   24.8482  -22.7342  -12.3161 O   0  0  0  0  0  0  0  0  0  0  0  0
   21.5461  -19.0260  -14.0396 C   0  0  0  0  0  0  0  0  0  0  0  0
   20.5714  -18.3816  -14.7727 C   0  0  0  0  0  0  0  0  0  0  0  0
   28.3687  -20.8602  -13.2780 C   0  0  0  0  0  0  0  0  0  0  0  0
   28.1296  -20.4974  -11.8292 C   0  0  2  0  0  0  0  0  0  0  0  0
   29.3039  -20.8738  -10.9650 C   0  0  0  0  0  0  0  0  0  0  0  0
   26.8294  -21.0514  -11.3143 C   0  0  2  0  0  0  0  0  0  0  0  0
   25.7820  -20.6458  -12.2323 N   0  0  0  0  0  0  0  0  0  0  0  0
   26.5358  -20.6443   -9.9234 C   0  0  0  0  0  0  0  0  0  0  0  0
   25.8423  -19.6074   -9.7625 O   0  0  0  0  0  0  0  0  0  0  0  0
   30.5844  -22.2858   -5.8389 C   0  0  0  0  0  0  0  0  0  0  0  0
   29.7210  -21.2709   -4.6127 S   0  0  0  0  0  0  0  0  0  0  0  0
   28.1370  -20.6504   -5.2877 C   0  0  0  0  0  0  0  0  0  0  0  0
   27.9901  -21.2464   -6.6474 C   0  0  0  0  0  0  0  0  0  0  0  0
   26.7856  -20.8173   -7.4189 C   0  0  2  0  0  0  0  0  0  0  0  0
   26.9796  -21.3375   -8.7853 N   0  0  0  0  0  0  0  0  0  0  0  0
   26.6277  -19.3424   -7.4664 C   0  0  0  0  0  0  0  0  0  0  0  0
   27.5412  -18.5406   -8.1272 O   0  0  0  0  0  0  0  0  0  0  0  0
   25.6457  -18.7918   -6.8968 O   0  0  0  0  0  0  0  0  0  0  0  0
  2 12  2  0
  2  1  1  0
  3  2  1  0
  4  5  1  0
  4  3  2  0
  5 11  2  0
  6  5  1  0
  7  6  1  0
  7  8  1  6
  9 10  2  0
  9  7  1  0
 11 12  1  0
 14 13  1  6
 14 16  1  0
 15 14  1  0
 16 17  1  6
 17  9  1  0
 18 19  2  0
 18 16  1  0
 20 21  1  0
 22 21  1  0
 23 22  1  0
 24 23  1  1
 24 25  1  0
 25 18  1  0
 26 24  1  0
 27 26  1  0
 28 26  2  0
M  END
$$$$
