YVM.pdb
     RDKit          3D

 28 28  0  0  1  0  0  0  0  0999 V2000
   18.7062  -18.2557  -15.5522 O   0  0  0  0  0  0  0  0  0  0  0  0
   19.6681  -18.8386  -14.7359 C   0  0  0  0  0  0  0  0  0  0  0  0
   19.4748  -20.1315  -14.3394 C   0  0  0  0  0  0  0  0  0  0  0  0
   20.4308  -20.7266  -13.5218 C   0  0  0  0  0  0  0  0  0  0  0  0
   21.5427  -20.0319  -13.1221 C   0  0  0  0  0  0  0  0  0  0  0  0
   22.5793  -20.6304  -12.2543 C   0  0  0  0  0  0  0  0  0  0  0  0
   23.9012  -20.8227  -13.0097 C   0  0  2  0  0  0  0  0  0  0  0  0
   23.6414  -21.8472  -14.0051 N   0  0  0  0  0  0  0  0  0  0  0  0
   24.8834  -21.2879  -11.9997 C   0  0  0  0  0  0  0  0  0  0  0  0
   24.7067  -22.4195  -11.4869 O   0  0  0  0  0  0  0  0  0  0  0  0
   21.7037  -18.7328  -13.5406 C   0  0  0  0  0  0  0  0  0  0  0  0
   20.7869  -18.0961  -14.3510 C   0  0  0  0  0  0  0  0  0  0  0  0
   28.3787  -21.6907  -12.5345 C   0  0  0  0  0  0  0  0  0  0  0  0
   28.3256  -20.9894  -11.1954 C   0  0  2  0  0  0  0  0  0  0  0  0
   29.3935  -21.4978  -10.2634 C   0  0  0  0  0  0  0  0  0  0  0  0
   26.9517  -21.0385  -10.5850 C   0  0  2  0  0  0  0  0  0  0  0  0
   26.0119  -20.5408  -11.5716 N   0  0  0  0  0  0  0  0  0  0  0  0
   26.8578  -20.2995   -9.3077 C   0  0  0  0  0  0  0  0  0  0  0  0
   25.7049  -20.0663   -8.8623 O   0  0  0  0  0  0  0  0  0  0  0  0
   25.9788  -21.4544   -2.4608 C   0  0  0  0  0  0  0  0  0  0  0  0
   26.3472  -21.6997   -4.2166 S   0  0  0  0  0  0  0  0  0  0  0  0
   27.1212  -20.2022   -4.9295 C   0  0  0  0  0  0  0  0  0  0  0  0
   27.3245  -20.4773   -6.3816 C   0  0  0  0  0  0  0  0  0  0  0  0
   27.8410  -19.3354   -7.1937 C   0  0  2  0  0  0  0  0  0  0  0  0
   27.9653  -19.8481   -8.5711 N   0  0  0  0  0  0  0  0  0  0  0  0
   29.1612  -18.8460   -6.7245 C   0  0  0  0  0  0  0  0  0  0  0  0
   29.2771  -17.6840   -5.9828 O   0  0  0  0  0  0  0  0  0  0  0  0
   30.2101  -19.4910   -6.9997 O   0  0  0  0  0  0  0  0  0  0  0  0
  2 12  2  0
  2  1  1  0
  3  2  1  0
  4  5  1  0
  4  3  2  0
  5 11  2  0
  6  5  1  0
  7  6  1  0
  7  8  1  6
  9 10  2  0
  9  7  1  0
 11 12  1  0
 14 13  1  6
 14 16  1  0
 15 14  1  0
 16 17  1  6
 17  9  1  0
 18 19  2  0
 18 16  1  0
 20 21  1  0
 22 21  1  0
 23 22  1  0
 24 23  1  1
 24 25  1  0
 25 18  1  0
 26 24  1  0
 27 26  1  0
 28 26  2  0
M  END
$$$$
