YVM.pdb
     RDKit          3D

 28 28  0  0  1  0  0  0  0  0999 V2000
   16.4632  -17.0376  -11.3037 O   0  0  0  0  0  0  0  0  0  0  0  0
   17.6433  -17.7553  -11.4570 C   0  0  0  0  0  0  0  0  0  0  0  0
   17.6512  -19.0663  -11.0731 C   0  0  0  0  0  0  0  0  0  0  0  0
   18.8269  -19.7959  -11.2216 C   0  0  0  0  0  0  0  0  0  0  0  0
   19.9533  -19.2133  -11.7416 C   0  0  0  0  0  0  0  0  0  0  0  0
   21.2198  -19.9561  -11.9144 C   0  0  0  0  0  0  0  0  0  0  0  0
   21.6021  -20.0767  -13.3958 C   0  0  2  0  0  0  0  0  0  0  0  0
   20.4566  -20.6823  -14.0508 N   0  0  0  0  0  0  0  0  0  0  0  0
   22.7847  -20.9717  -13.4395 C   0  0  0  0  0  0  0  0  0  0  0  0
   22.5918  -22.2056  -13.3172 O   0  0  0  0  0  0  0  0  0  0  0  0
   19.9080  -17.8920  -12.1170 C   0  0  0  0  0  0  0  0  0  0  0  0
   18.7691  -17.1241  -11.9912 C   0  0  0  0  0  0  0  0  0  0  0  0
   24.6958  -21.2406  -16.3315 C   0  0  0  0  0  0  0  0  0  0  0  0
   25.7518  -21.1018  -15.2576 C   0  0  2  0  0  0  0  0  0  0  0  0
   26.9947  -21.8790  -15.6020 C   0  0  0  0  0  0  0  0  0  0  0  0
   25.2176  -21.4374  -13.8921 C   0  0  2  0  0  0  0  0  0  0  0  0
   24.1224  -20.5289  -13.6105 N   0  0  0  0  0  0  0  0  0  0  0  0
   26.2544  -21.3993  -12.8384 C   0  0  0  0  0  0  0  0  0  0  0  0
   27.1986  -22.2251  -12.9314 O   0  0  0  0  0  0  0  0  0  0  0  0
   25.9112  -19.2160   -6.9569 C   0  0  0  0  0  0  0  0  0  0  0  0
   27.6110  -19.7339   -7.3051 S   0  0  0  0  0  0  0  0  0  0  0  0
   27.6273  -21.2402   -8.3445 C   0  0  0  0  0  0  0  0  0  0  0  0
   26.6923  -20.9859   -9.4787 C   0  0  0  0  0  0  0  0  0  0  0  0
   27.3195  -20.4899  -10.7400 C   0  0  2  0  0  0  0  0  0  0  0  0
   26.2481  -20.5074  -11.7534 N   0  0  0  0  0  0  0  0  0  0  0  0
   28.4478  -21.3401  -11.1948 C   0  0  0  0  0  0  0  0  0  0  0  0
   29.7609  -20.9237  -11.0676 O   0  0  0  0  0  0  0  0  0  0  0  0
   28.2221  -22.4690  -11.7111 O   0  0  0  0  0  0  0  0  0  0  0  0
  2 12  2  0
  2  1  1  0
  3  2  1  0
  4  5  1  0
  4  3  2  0
  5 11  2  0
  6  5  1  0
  7  6  1  0
  7  8  1  6
  9 10  2  0
  9  7  1  0
 11 12  1  0
 14 13  1  6
 14 16  1  0
 15 14  1  0
 16 17  1  1
 17  9  1  0
 18 19  2  0
 18 16  1  0
 20 21  1  0
 22 21  1  0
 23 22  1  0
 24 23  1  1
 24 25  1  0
 25 18  1  0
 26 24  1  0
 27 26  1  0
 28 26  2  0
M  END
$$$$
