YVM.pdb
     RDKit          3D

 28 28  0  0  1  0  0  0  0  0999 V2000
   18.9781  -24.2764  -12.4995 O   0  0  0  0  0  0  0  0  0  0  0  0
   20.0411  -23.8831  -13.3037 C   0  0  0  0  0  0  0  0  0  0  0  0
   20.8999  -24.8477  -13.7488 C   0  0  0  0  0  0  0  0  0  0  0  0
   21.9683  -24.4666  -14.5549 C   0  0  0  0  0  0  0  0  0  0  0  0
   22.1563  -23.1524  -14.8958 C   0  0  0  0  0  0  0  0  0  0  0  0
   23.2791  -22.7099  -15.7498 C   0  0  0  0  0  0  0  0  0  0  0  0
   24.6248  -22.8528  -15.0262 C   0  0  2  0  0  0  0  0  0  0  0  0
   24.6070  -21.8662  -13.9613 N   0  0  0  0  0  0  0  0  0  0  0  0
   25.6655  -22.5386  -16.0361 C   0  0  0  0  0  0  0  0  0  0  0  0
   25.9257  -21.3305  -16.2544 O   0  0  0  0  0  0  0  0  0  0  0  0
   21.2720  -22.2094  -14.4294 C   0  0  0  0  0  0  0  0  0  0  0  0
   20.1971  -22.5333  -13.6279 C   0  0  0  0  0  0  0  0  0  0  0  0
   29.0908  -23.8262  -15.9616 C   0  0  0  0  0  0  0  0  0  0  0  0
   28.6412  -24.0003  -17.3952 C   0  0  2  0  0  0  0  0  0  0  0  0
   29.7759  -23.7796  -18.3602 C   0  0  0  0  0  0  0  0  0  0  0  0
   27.4354  -23.1601  -17.7160 C   0  0  2  0  0  0  0  0  0  0  0  0
   26.3892  -23.5111  -16.7745 N   0  0  0  0  0  0  0  0  0  0  0  0
   26.9885  -23.2988  -19.1187 C   0  0  0  0  0  0  0  0  0  0  0  0
   25.9703  -24.0066  -19.3299 O   0  0  0  0  0  0  0  0  0  0  0  0
   22.3366  -21.0667  -23.8524 C   0  0  0  0  0  0  0  0  0  0  0  0
   23.4304  -21.0825  -22.4094 S   0  0  0  0  0  0  0  0  0  0  0  0
   24.9795  -21.9826  -22.7830 C   0  0  0  0  0  0  0  0  0  0  0  0
   25.7285  -22.0943  -21.4977 C   0  0  0  0  0  0  0  0  0  0  0  0
   27.0673  -22.7508  -21.5800 C   0  0  2  0  0  0  0  0  0  0  0  0
   27.6247  -22.6951  -20.2157 N   0  0  0  0  0  0  0  0  0  0  0  0
   27.9876  -22.0654  -22.5213 C   0  0  0  0  0  0  0  0  0  0  0  0
   28.1091  -22.4750  -23.8371 O   0  0  0  0  0  0  0  0  0  0  0  0
   28.6814  -21.0873  -22.1293 O   0  0  0  0  0  0  0  0  0  0  0  0
  2 12  2  0
  2  1  1  0
  3  2  1  0
  4  5  1  0
  4  3  2  0
  5 11  2  0
  6  5  1  0
  7  6  1  0
  7  8  1  1
  9 10  2  0
  9  7  1  0
 11 12  1  0
 14 13  1  1
 14 16  1  0
 15 14  1  0
 16 17  1  1
 17  9  1  0
 18 19  2  0
 18 16  1  0
 20 21  1  0
 22 21  1  0
 23 22  1  0
 24 23  1  1
 24 25  1  0
 25 18  1  0
 26 24  1  0
 27 26  1  0
 28 26  2  0
M  END
$$$$
