YVM.pdb
     RDKit          3D

 28 28  0  0  1  0  0  0  0  0999 V2000
   28.3074  -15.5450  -20.8420 O   0  0  0  0  0  0  0  0  0  0  0  0
   27.6806  -16.4836  -20.0312 C   0  0  0  0  0  0  0  0  0  0  0  0
   27.4165  -16.1381  -18.7362 C   0  0  0  0  0  0  0  0  0  0  0  0
   26.7892  -17.0693  -17.9139 C   0  0  0  0  0  0  0  0  0  0  0  0
   26.4431  -18.3065  -18.3916 C   0  0  0  0  0  0  0  0  0  0  0  0
   25.7757  -19.3212  -17.5486 C   0  0  0  0  0  0  0  0  0  0  0  0
   26.7897  -20.1033  -16.7028 C   0  0  2  0  0  0  0  0  0  0  0  0
   27.4424  -21.0215  -17.6185 N   0  0  0  0  0  0  0  0  0  0  0  0
   25.9943  -20.8313  -15.6836 C   0  0  0  0  0  0  0  0  0  0  0  0
   25.5096  -21.9441  -16.0023 O   0  0  0  0  0  0  0  0  0  0  0  0
   26.7245  -18.6189  -19.7000 C   0  0  0  0  0  0  0  0  0  0  0  0
   27.3444  -17.7333  -20.5568 C   0  0  0  0  0  0  0  0  0  0  0  0
   27.0289  -21.2028  -11.9596 C   0  0  0  0  0  0  0  0  0  0  0  0
   25.5645  -20.8324  -12.0381 C   0  0  2  0  0  0  0  0  0  0  0  0
   24.7745  -21.4658  -10.9236 C   0  0  0  0  0  0  0  0  0  0  0  0
   24.9815  -21.1149  -13.3957 C   0  0  2  0  0  0  0  0  0  0  0  0
   25.7424  -20.3562  -14.3700 N   0  0  0  0  0  0  0  0  0  0  0  0
   23.5335  -20.8263  -13.4763 C   0  0  0  0  0  0  0  0  0  0  0  0
   23.1717  -19.6398  -13.2681 O   0  0  0  0  0  0  0  0  0  0  0  0
   19.7295  -24.3109  -16.8779 C   0  0  0  0  0  0  0  0  0  0  0  0
   18.4399  -23.9076  -15.6723 S   0  0  0  0  0  0  0  0  0  0  0  0
   18.9660  -22.5173  -14.6045 C   0  0  0  0  0  0  0  0  0  0  0  0
   20.4567  -22.5530  -14.5614 C   0  0  0  0  0  0  0  0  0  0  0  0
   21.1109  -21.4630  -13.7778 C   0  0  2  0  0  0  0  0  0  0  0  0
   22.5500  -21.7858  -13.7680 N   0  0  0  0  0  0  0  0  0  0  0  0
   20.6112  -21.3771  -12.3830 C   0  0  0  0  0  0  0  0  0  0  0  0
   19.7734  -20.3529  -11.9792 O   0  0  0  0  0  0  0  0  0  0  0  0
   20.9484  -22.2480  -11.5347 O   0  0  0  0  0  0  0  0  0  0  0  0
  2 12  2  0
  2  1  1  0
  3  2  1  0
  4  5  1  0
  4  3  2  0
  5 11  2  0
  6  5  1  0
  7  6  1  0
  7  8  1  6
  9 10  2  0
  9  7  1  0
 11 12  1  0
 14 13  1  6
 14 16  1  0
 15 14  1  0
 16 17  1  6
 17  9  1  0
 18 19  2  0
 18 16  1  0
 20 21  1  0
 22 21  1  0
 23 22  1  0
 24 23  1  6
 24 25  1  0
 25 18  1  0
 26 24  1  0
 27 26  1  0
 28 26  2  0
M  END
$$$$
