YVM.pdb
     RDKit          3D

 28 28  0  0  1  0  0  0  0  0999 V2000
   31.5396  -16.6044  -19.3131 O   0  0  0  0  0  0  0  0  0  0  0  0
   30.4771  -16.7329  -18.4266 C   0  0  0  0  0  0  0  0  0  0  0  0
   29.7659  -15.6102  -18.1108 C   0  0  0  0  0  0  0  0  0  0  0  0
   28.6994  -15.7256  -17.2242 C   0  0  0  0  0  0  0  0  0  0  0  0
   28.3687  -16.9388  -16.6788 C   0  0  0  0  0  0  0  0  0  0  0  0
   27.2431  -17.1005  -15.7340 C   0  0  0  0  0  0  0  0  0  0  0  0
   26.1049  -17.9233  -16.3525 C   0  0  2  0  0  0  0  0  0  0  0  0
   25.5328  -17.0865  -17.3919 N   0  0  0  0  0  0  0  0  0  0  0  0
   25.1338  -18.1631  -15.2566 C   0  0  0  0  0  0  0  0  0  0  0  0
   24.6321  -17.1633  -14.6878 O   0  0  0  0  0  0  0  0  0  0  0  0
   29.1069  -18.0469  -17.0196 C   0  0  0  0  0  0  0  0  0  0  0  0
   30.1729  -17.9875  -17.8930 C   0  0  0  0  0  0  0  0  0  0  0  0
   21.9392  -19.3715  -15.4709 C   0  0  0  0  0  0  0  0  0  0  0  0
   22.5228  -20.2487  -14.3856 C   0  0  2  0  0  0  0  0  0  0  0  0
   21.4812  -20.6361  -13.3695 C   0  0  0  0  0  0  0  0  0  0  0  0
   23.7449  -19.6355  -13.7586 C   0  0  2  0  0  0  0  0  0  0  0  0
   24.7313  -19.4473  -14.8054 N   0  0  0  0  0  0  0  0  0  0  0  0
   24.2780  -20.4290  -12.6305 C   0  0  0  0  0  0  0  0  0  0  0  0
   24.7788  -21.5502  -12.9029 O   0  0  0  0  0  0  0  0  0  0  0  0
   27.7014  -18.5018   -7.8153 C   0  0  0  0  0  0  0  0  0  0  0  0
   26.4870  -19.4411   -6.8551 S   0  0  0  0  0  0  0  0  0  0  0  0
   25.6896  -20.7187   -7.8952 C   0  0  0  0  0  0  0  0  0  0  0  0
   25.3563  -20.0645   -9.1938 C   0  0  0  0  0  0  0  0  0  0  0  0
   24.6170  -20.9108  -10.1774 C   0  0  2  0  0  0  0  0  0  0  0  0
   24.2590  -20.0109  -11.2898 N   0  0  0  0  0  0  0  0  0  0  0  0
   23.3852  -21.5120   -9.6083 C   0  0  0  0  0  0  0  0  0  0  0  0
   23.4182  -22.7182   -8.9316 O   0  0  0  0  0  0  0  0  0  0  0  0
   22.2762  -20.9241   -9.7359 O   0  0  0  0  0  0  0  0  0  0  0  0
  2 12  2  0
  2  1  1  0
  3  2  1  0
  4  5  1  0
  4  3  2  0
  5 11  2  0
  6  5  1  0
  7  6  1  0
  7  8  1  6
  9 10  2  0
  9  7  1  0
 11 12  1  0
 14 13  1  6
 14 16  1  0
 15 14  1  0
 16 17  1  6
 17  9  1  0
 18 19  2  0
 18 16  1  0
 20 21  1  0
 22 21  1  0
 23 22  1  0
 24 23  1  1
 24 25  1  0
 25 18  1  0
 26 24  1  0
 27 26  1  0
 28 26  2  0
M  END
$$$$
