KQS.pdb
     RDKit          3D

 25 24  0  0  1  0  0  0  0  0999 V2000
    7.7570  -16.6290   19.4830 N   0  0  0  0  0  0  0  0  0  0  0  0
    8.3380  -15.5689   20.2132 C   0  0  1  0  0  0  0  0  0  0  0  0
    7.8032  -14.2060   19.9110 C   0  0  0  0  0  0  0  0  0  0  0  0
    8.3399  -13.5578   18.6852 C   0  0  0  0  0  0  0  0  0  0  0  0
    7.5463  -13.8011   17.4372 C   0  0  0  0  0  0  0  0  0  0  0  0
    8.2636  -13.2361   16.2281 C   0  0  0  0  0  0  0  0  0  0  0  0
    7.4068  -13.3346   15.0620 N   0  0  0  0  0  0  0  0  0  0  0  0
    8.0523  -15.8103   21.6821 C   0  0  0  0  0  0  0  0  0  0  0  0
    6.8507  -16.1165   21.9355 O   0  0  0  0  0  0  0  0  0  0  0  0
   11.6133  -18.8159   25.2159 N   0  0  0  0  0  0  0  0  0  0  0  0
   10.8314  -18.2846   26.3009 C   0  0  0  0  0  0  0  0  0  0  0  0
   11.1133  -18.6768   27.4444 O   0  0  0  0  0  0  0  0  0  0  0  0
    9.7559  -17.3211   26.0029 C   0  0  0  0  0  0  0  0  0  0  0  0
    9.7249  -17.0113   24.5512 C   0  0  0  0  0  0  0  0  0  0  0  0
    8.7618  -16.0006   24.0557 C   0  0  2  0  0  0  0  0  0  0  0  0
    9.0634  -15.6927   22.6380 N   0  0  0  0  0  0  0  0  0  0  0  0
    8.8055  -14.7139   24.7681 C   0  0  0  0  0  0  0  0  0  0  0  0
    9.8428  -13.9504   24.7337 O   0  0  0  0  0  0  0  0  0  0  0  0
    5.5000  -13.0127   26.6461 O   0  0  0  0  0  0  0  0  0  0  0  0
    6.5587  -12.1976   26.2640 C   0  0  0  0  0  0  0  0  0  0  0  0
    7.8588  -12.9884   26.3234 C   0  0  2  0  0  0  0  0  0  0  0  0
    7.7390  -14.2119   25.5286 N   0  0  0  0  0  0  0  0  0  0  0  0
    8.0652  -13.3709   27.7270 C   0  0  0  0  0  0  0  0  0  0  0  0
    8.2888  -12.4610   28.7333 O   0  0  0  0  0  0  0  0  0  0  0  0
    8.0290  -14.6122   27.9878 O   0  0  0  0  0  0  0  0  0  0  0  0
  2  1  1  6
  3  2  1  0
  4  3  1  0
  5  6  1  0
  5  4  1  0
  7  6  1  0
  8  2  1  0
  8  9  2  0
 10 11  1  0
 11 13  1  0
 11 12  2  0
 13 14  1  0
 15 14  1  1
 16 15  1  0
 16  8  1  0
 17 18  2  0
 17 15  1  0
 20 19  1  0
 21 20  1  1
 21 22  1  0
 22 17  1  0
 23 21  1  0
 23 24  1  0
 25 23  2  0
M  END
$$$$
