KQS.pdb
     RDKit          3D

 25 24  0  0  1  0  0  0  0  0999 V2000
   11.3710  -17.8436   18.1495 N   0  0  0  0  0  0  0  0  0  0  0  0
   12.6639  -18.4062   18.0681 C   0  0  1  0  0  0  0  0  0  0  0  0
   13.2000  -18.5981   16.6859 C   0  0  0  0  0  0  0  0  0  0  0  0
   12.2821  -19.2616   15.7226 C   0  0  0  0  0  0  0  0  0  0  0  0
   12.8260  -19.4265   14.3357 C   0  0  0  0  0  0  0  0  0  0  0  0
   11.7699  -19.9964   13.4108 C   0  0  0  0  0  0  0  0  0  0  0  0
   12.3248  -20.1655   12.0815 N   0  0  0  0  0  0  0  0  0  0  0  0
   13.6237  -17.4566   18.7571 C   0  0  0  0  0  0  0  0  0  0  0  0
   14.8282  -17.8451   18.7606 O   0  0  0  0  0  0  0  0  0  0  0  0
   16.3648  -15.0793   16.7935 N   0  0  0  0  0  0  0  0  0  0  0  0
   15.8360  -14.0153   17.6053 C   0  0  0  0  0  0  0  0  0  0  0  0
   16.6552  -13.2351   18.1164 O   0  0  0  0  0  0  0  0  0  0  0  0
   14.3765  -13.9102   17.7850 C   0  0  0  0  0  0  0  0  0  0  0  0
   14.0229  -14.0070   19.2238 C   0  0  0  0  0  0  0  0  0  0  0  0
   14.1491  -15.3165   19.9050 C   0  0  2  0  0  0  0  0  0  0  0  0
   13.1691  -16.2648   19.3253 N   0  0  0  0  0  0  0  0  0  0  0  0
   13.8743  -15.2826   21.3501 C   0  0  0  0  0  0  0  0  0  0  0  0
   14.5512  -14.5388   22.1556 O   0  0  0  0  0  0  0  0  0  0  0  0
   10.3162  -16.5220   22.9109 O   0  0  0  0  0  0  0  0  0  0  0  0
   11.0949  -15.5977   23.5968 C   0  0  0  0  0  0  0  0  0  0  0  0
   12.5689  -15.9222   23.3944 C   0  0  2  0  0  0  0  0  0  0  0  0
   12.8659  -16.0388   21.9658 N   0  0  0  0  0  0  0  0  0  0  0  0
   12.8112  -17.2286   24.0220 C   0  0  0  0  0  0  0  0  0  0  0  0
   12.7096  -17.4473   25.3756 O   0  0  0  0  0  0  0  0  0  0  0  0
   13.1285  -18.1807   23.2455 O   0  0  0  0  0  0  0  0  0  0  0  0
  2  1  1  6
  3  2  1  0
  4  3  1  0
  5  6  1  0
  5  4  1  0
  7  6  1  0
  8  2  1  0
  8  9  2  0
 10 11  1  0
 11 13  1  0
 11 12  2  0
 13 14  1  0
 15 14  1  6
 16 15  1  0
 16  8  1  0
 17 18  2  0
 17 15  1  0
 20 19  1  0
 21 20  1  6
 21 22  1  0
 22 17  1  0
 23 21  1  0
 23 24  1  0
 25 23  2  0
M  END
$$$$
