KQS.pdb
     RDKit          3D

 25 24  0  0  1  0  0  0  0  0999 V2000
    4.7089  -19.4763   19.9801 N   0  0  0  0  0  0  0  0  0  0  0  0
    4.3791  -18.3200   20.7208 C   0  0  1  0  0  0  0  0  0  0  0  0
    3.8224  -18.5637   22.0866 C   0  0  0  0  0  0  0  0  0  0  0  0
    2.7759  -19.6158   22.1802 C   0  0  0  0  0  0  0  0  0  0  0  0
    1.4842  -19.1752   22.7996 C   0  0  0  0  0  0  0  0  0  0  0  0
    0.4884  -20.3168   22.8303 C   0  0  0  0  0  0  0  0  0  0  0  0
   -0.2242  -20.3772   21.5684 N   0  0  0  0  0  0  0  0  0  0  0  0
    5.6539  -17.5265   20.9281 C   0  0  0  0  0  0  0  0  0  0  0  0
    6.6864  -18.2366   21.1054 O   0  0  0  0  0  0  0  0  0  0  0  0
    8.1341  -13.5932   18.2359 N   0  0  0  0  0  0  0  0  0  0  0  0
    8.7050  -13.1414   19.4771 C   0  0  0  0  0  0  0  0  0  0  0  0
    9.9154  -12.8659   19.4742 O   0  0  0  0  0  0  0  0  0  0  0  0
    7.8389  -13.0326   20.6653 C   0  0  0  0  0  0  0  0  0  0  0  0
    6.7089  -13.9912   20.5728 C   0  0  0  0  0  0  0  0  0  0  0  0
    6.9192  -15.3898   21.0137 C   0  0  2  0  0  0  0  0  0  0  0  0
    5.6394  -16.1302   20.9157 N   0  0  0  0  0  0  0  0  0  0  0  0
    7.3629  -15.5304   22.4095 C   0  0  0  0  0  0  0  0  0  0  0  0
    6.6172  -15.1807   23.4005 O   0  0  0  0  0  0  0  0  0  0  0  0
    9.2950  -18.4332   23.9685 O   0  0  0  0  0  0  0  0  0  0  0  0
    8.7901  -17.4335   24.7912 C   0  0  0  0  0  0  0  0  0  0  0  0
    9.0674  -16.0718   24.1684 C   0  0  2  0  0  0  0  0  0  0  0  0
    8.6113  -16.0533   22.7776 N   0  0  0  0  0  0  0  0  0  0  0  0
   10.5248  -15.8846   24.1764 C   0  0  0  0  0  0  0  0  0  0  0  0
   11.2726  -15.7245   23.0337 O   0  0  0  0  0  0  0  0  0  0  0  0
   11.0892  -15.8755   25.3128 O   0  0  0  0  0  0  0  0  0  0  0  0
  2  1  1  1
  3  2  1  0
  4  3  1  0
  5  6  1  0
  5  4  1  0
  7  6  1  0
  8  2  1  0
  8  9  2  0
 10 11  1  0
 11 13  1  0
 11 12  2  0
 13 14  1  0
 15 14  1  1
 16 15  1  0
 16  8  1  0
 17 18  2  0
 17 15  1  0
 20 19  1  0
 21 20  1  6
 21 22  1  0
 22 17  1  0
 23 21  1  0
 23 24  1  0
 25 23  2  0
M  END
$$$$
