KQS.pdb
     RDKit          3D

 25 24  0  0  1  0  0  0  0  0999 V2000
    7.2968  -17.2029   20.2777 N   0  0  0  0  0  0  0  0  0  0  0  0
    8.0850  -16.1975   20.8797 C   0  0  1  0  0  0  0  0  0  0  0  0
    7.8593  -14.8090   20.3738 C   0  0  0  0  0  0  0  0  0  0  0  0
    8.4466  -14.5023   19.0427 C   0  0  0  0  0  0  0  0  0  0  0  0
    8.0941  -13.1558   18.4866 C   0  0  0  0  0  0  0  0  0  0  0  0
    8.7648  -12.9382   17.1456 C   0  0  0  0  0  0  0  0  0  0  0  0
    8.3338  -13.9614   16.2123 N   0  0  0  0  0  0  0  0  0  0  0  0
    7.7392  -16.1626   22.3551 C   0  0  0  0  0  0  0  0  0  0  0  0
    6.5544  -16.5193   22.6210 O   0  0  0  0  0  0  0  0  0  0  0  0
   10.5952  -18.7809   27.1559 N   0  0  0  0  0  0  0  0  0  0  0  0
   10.4638  -17.3851   27.4805 C   0  0  0  0  0  0  0  0  0  0  0  0
   11.3445  -16.8880   28.2004 O   0  0  0  0  0  0  0  0  0  0  0  0
    9.3112  -16.6331   26.9519 C   0  0  0  0  0  0  0  0  0  0  0  0
    9.3436  -16.6101   25.4677 C   0  0  0  0  0  0  0  0  0  0  0  0
    8.3309  -15.8084   24.7422 C   0  0  2  0  0  0  0  0  0  0  0  0
    8.6831  -15.7633   23.3036 N   0  0  0  0  0  0  0  0  0  0  0  0
    8.2330  -14.4069   25.1796 C   0  0  0  0  0  0  0  0  0  0  0  0
    9.0966  -13.5195   24.8232 O   0  0  0  0  0  0  0  0  0  0  0  0
    4.9915  -12.9769   27.3255 O   0  0  0  0  0  0  0  0  0  0  0  0
    5.7079  -12.0671   26.5572 C   0  0  0  0  0  0  0  0  0  0  0  0
    7.1555  -12.5255   26.4412 C   0  0  2  0  0  0  0  0  0  0  0  0
    7.2066  -13.9214   26.0032 N   0  0  0  0  0  0  0  0  0  0  0  0
    7.7408  -12.4445   27.7865 C   0  0  0  0  0  0  0  0  0  0  0  0
    7.8891  -11.2645   28.4765 O   0  0  0  0  0  0  0  0  0  0  0  0
    8.1178  -13.5383   28.3078 O   0  0  0  0  0  0  0  0  0  0  0  0
  2  1  1  6
  3  2  1  0
  4  3  1  0
  5  6  1  0
  5  4  1  0
  7  6  1  0
  8  2  1  0
  8  9  2  0
 10 11  1  0
 11 13  1  0
 11 12  2  0
 13 14  1  0
 15 14  1  1
 16 15  1  0
 16  8  1  0
 17 18  2  0
 17 15  1  0
 20 19  1  0
 21 20  1  1
 21 22  1  0
 22 17  1  0
 23 21  1  0
 23 24  1  0
 25 23  2  0
M  END
$$$$
