KQS.pdb
     RDKit          3D

 25 24  0  0  1  0  0  0  0  0999 V2000
   12.3827  -19.6167   16.1142 N   0  0  0  0  0  0  0  0  0  0  0  0
   11.8452  -18.4370   16.6745 C   0  0  1  0  0  0  0  0  0  0  0  0
   10.5343  -18.5932   17.3759 C   0  0  0  0  0  0  0  0  0  0  0  0
    9.4068  -19.0812   16.5384 C   0  0  0  0  0  0  0  0  0  0  0  0
    8.1313  -19.3454   17.2798 C   0  0  0  0  0  0  0  0  0  0  0  0
    7.0650  -19.8706   16.3402 C   0  0  0  0  0  0  0  0  0  0  0  0
    5.8342  -20.0939   17.0744 N   0  0  0  0  0  0  0  0  0  0  0  0
   12.8200  -17.9395   17.7233 C   0  0  0  0  0  0  0  0  0  0  0  0
   13.4934  -18.8529   18.2835 O   0  0  0  0  0  0  0  0  0  0  0  0
   15.9605  -12.9996   17.0379 N   0  0  0  0  0  0  0  0  0  0  0  0
   16.4081  -13.2445   18.3834 C   0  0  0  0  0  0  0  0  0  0  0  0
   17.3356  -12.5367   18.8072 O   0  0  0  0  0  0  0  0  0  0  0  0
   15.7545  -14.3042   19.1731 C   0  0  0  0  0  0  0  0  0  0  0  0
   14.7115  -14.9848   18.3646 C   0  0  0  0  0  0  0  0  0  0  0  0
   13.9684  -16.1180   18.9631 C   0  0  2  0  0  0  0  0  0  0  0  0
   12.9296  -16.5775   18.0116 N   0  0  0  0  0  0  0  0  0  0  0  0
   13.2598  -15.7932   20.2110 C   0  0  0  0  0  0  0  0  0  0  0  0
   12.3906  -14.8442   20.2743 O   0  0  0  0  0  0  0  0  0  0  0  0
   11.9457  -18.1927   22.8862 O   0  0  0  0  0  0  0  0  0  0  0  0
   11.6553  -16.8414   23.0311 C   0  0  0  0  0  0  0  0  0  0  0  0
   12.8856  -16.0148   22.6815 C   0  0  2  0  0  0  0  0  0  0  0  0
   13.4603  -16.4795   21.4179 N   0  0  0  0  0  0  0  0  0  0  0  0
   13.8726  -16.2421   23.7460 C   0  0  0  0  0  0  0  0  0  0  0  0
   13.7100  -15.7941   25.0357 O   0  0  0  0  0  0  0  0  0  0  0  0
   14.9161  -16.8880   23.4235 O   0  0  0  0  0  0  0  0  0  0  0  0
  2  1  1  1
  3  2  1  0
  4  3  1  0
  5  6  1  0
  5  4  1  0
  7  6  1  0
  8  2  1  0
  8  9  2  0
 10 11  1  0
 11 13  1  0
 11 12  2  0
 13 14  1  0
 15 14  1  6
 16 15  1  0
 16  8  1  0
 17 18  2  0
 17 15  1  0
 20 19  1  0
 21 20  1  1
 21 22  1  0
 22 17  1  0
 23 21  1  0
 23 24  1  0
 25 23  2  0
M  END
$$$$
