KQS.pdb
     RDKit          3D

 25 24  0  0  1  0  0  0  0  0999 V2000
   13.6706  -15.9974   13.2372 N   0  0  0  0  0  0  0  0  0  0  0  0
   13.0005  -15.0573   14.0506 C   0  0  1  0  0  0  0  0  0  0  0  0
   11.5102  -15.0460   13.9329 C   0  0  0  0  0  0  0  0  0  0  0  0
   10.8648  -16.3747   13.7630 C   0  0  0  0  0  0  0  0  0  0  0  0
    9.4033  -16.3347   13.4333 C   0  0  0  0  0  0  0  0  0  0  0  0
    8.8851  -17.7254   13.1283 C   0  0  0  0  0  0  0  0  0  0  0  0
    7.5154  -17.6438   12.6580 N   0  0  0  0  0  0  0  0  0  0  0  0
   13.2998  -15.4024   15.4959 C   0  0  0  0  0  0  0  0  0  0  0  0
   13.1312  -16.6228   15.7857 O   0  0  0  0  0  0  0  0  0  0  0  0
   18.1432  -12.5602   17.0523 N   0  0  0  0  0  0  0  0  0  0  0  0
   17.9041  -13.8478   17.6486 C   0  0  0  0  0  0  0  0  0  0  0  0
   18.7283  -14.2424   18.4888 O   0  0  0  0  0  0  0  0  0  0  0  0
   16.7156  -14.6172   17.2371 C   0  0  0  0  0  0  0  0  0  0  0  0
   15.5188  -14.1651   17.9907 C   0  0  0  0  0  0  0  0  0  0  0  0
   14.2184  -14.8256   17.7314 C   0  0  2  0  0  0  0  0  0  0  0  0
   13.7234  -14.4211   16.3946 N   0  0  0  0  0  0  0  0  0  0  0  0
   13.1528  -14.4717   18.6823 C   0  0  0  0  0  0  0  0  0  0  0  0
   12.5731  -13.3211   18.6595 O   0  0  0  0  0  0  0  0  0  0  0  0
   10.4644  -16.7996   20.0193 O   0  0  0  0  0  0  0  0  0  0  0  0
   10.3504  -15.4733   20.4181 C   0  0  0  0  0  0  0  0  0  0  0  0
   11.7342  -14.9061   20.7050 C   0  0  2  0  0  0  0  0  0  0  0  0
   12.6789  -15.3418   19.6752 N   0  0  0  0  0  0  0  0  0  0  0  0
   12.1688  -15.4643   21.9928 C   0  0  0  0  0  0  0  0  0  0  0  0
   11.5465  -15.1844   23.1865 O   0  0  0  0  0  0  0  0  0  0  0  0
   13.1726  -16.2400   21.9649 O   0  0  0  0  0  0  0  0  0  0  0  0
  2  1  1  6
  3  2  1  0
  4  3  1  0
  5  6  1  0
  5  4  1  0
  7  6  1  0
  8  2  1  0
  8  9  2  0
 10 11  1  0
 11 13  1  0
 11 12  2  0
 13 14  1  0
 15 14  1  1
 16 15  1  0
 16  8  1  0
 17 18  2  0
 17 15  1  0
 20 19  1  0
 21 20  1  6
 21 22  1  0
 22 17  1  0
 23 21  1  0
 23 24  1  0
 25 23  2  0
M  END
$$$$
