GGE.pdb
     RDKit          3D

 18 17  0  0  1  0  0  0  0  0999 V2000
   28.5537  -12.0631  -17.4462 N   0  0  0  0  0  0  0  0  0  0  0  0
   27.5586  -11.1268  -17.9025 C   0  0  0  0  0  0  0  0  0  0  0  0
   27.1158  -10.2923  -16.7434 C   0  0  0  0  0  0  0  0  0  0  0  0
   27.9209   -9.4696  -16.2022 O   0  0  0  0  0  0  0  0  0  0  0  0
   25.8023  -10.3824  -16.2093 N   0  0  0  0  0  0  0  0  0  0  0  0
   25.3549   -9.5776  -15.1169 C   0  0  0  0  0  0  0  0  0  0  0  0
   24.3742   -8.5569  -15.5758 C   0  0  0  0  0  0  0  0  0  0  0  0
   24.6182   -7.9166  -16.6266 O   0  0  0  0  0  0  0  0  0  0  0  0
   23.1787   -8.2708  -14.8878 N   0  0  0  0  0  0  0  0  0  0  0  0
   22.1895   -7.2750  -15.3801 C   0  0  1  0  0  0  0  0  0  0  0  0
   20.8708   -7.9414  -15.4866 C   0  0  0  0  0  0  0  0  0  0  0  0
   20.7579   -8.9069  -16.5959 C   0  0  0  0  0  0  0  0  0  0  0  0
   19.4475   -9.5863  -16.6224 C   0  0  0  0  0  0  0  0  0  0  0  0
   18.7021   -9.5320  -15.6038 O   0  0  0  0  0  0  0  0  0  0  0  0
   22.2697   -6.0925  -14.5618 C   0  0  0  0  0  0  0  0  0  0  0  0
   21.8926   -4.8039  -14.9450 O   0  0  0  0  0  0  0  0  0  0  0  0
   18.9876  -10.2889  -17.7195 O   0  0  0  0  0  0  0  0  0  0  0  0
   22.7303   -6.1846  -13.3755 O   0  0  0  0  0  0  0  0  0  0  0  0
  2  1  1  0
  3  2  1  0
  4  3  2  0
  5  3  1  0
  6  5  1  0
  7  9  1  0
  7  6  1  0
  8  7  2  0
 10 11  1  1
 10  9  1  0
 12 13  1  0
 12 11  1  0
 13 14  2  0
 15 16  1  0
 15 10  1  0
 17 13  1  0
 18 15  2  0
M  END
$$$$
