GGE.pdb
     RDKit          3D

 18 17  0  0  1  0  0  0  0  0999 V2000
   22.8288    3.9335  -12.2462 N   0  0  0  0  0  0  0  0  0  0  0  0
   23.5258    4.4043  -11.0767 C   0  0  0  0  0  0  0  0  0  0  0  0
   24.1838    3.2402  -10.4075 C   0  0  0  0  0  0  0  0  0  0  0  0
   24.1834    2.0970  -10.9651 O   0  0  0  0  0  0  0  0  0  0  0  0
   24.8244    3.3613   -9.1451 N   0  0  0  0  0  0  0  0  0  0  0  0
   25.5293    2.2819   -8.5290 C   0  0  0  0  0  0  0  0  0  0  0  0
   26.0962    2.6977   -7.2176 C   0  0  0  0  0  0  0  0  0  0  0  0
   25.9641    3.8914   -6.8554 O   0  0  0  0  0  0  0  0  0  0  0  0
   26.7773    1.8152   -6.3564 N   0  0  0  0  0  0  0  0  0  0  0  0
   27.3225    2.2418   -5.0398 C   0  0  1  0  0  0  0  0  0  0  0  0
   26.8666    1.2774   -4.0119 C   0  0  0  0  0  0  0  0  0  0  0  0
   25.6501    1.6842   -3.2840 C   0  0  0  0  0  0  0  0  0  0  0  0
   25.2867    0.7331   -2.2149 C   0  0  0  0  0  0  0  0  0  0  0  0
   24.6668   -0.3262   -2.5142 O   0  0  0  0  0  0  0  0  0  0  0  0
   28.7416    2.4521   -5.1675 C   0  0  0  0  0  0  0  0  0  0  0  0
   29.5436    3.1839   -4.2896 O   0  0  0  0  0  0  0  0  0  0  0  0
   25.5939    0.9450   -0.8847 O   0  0  0  0  0  0  0  0  0  0  0  0
   29.3598    1.9495   -6.1641 O   0  0  0  0  0  0  0  0  0  0  0  0
  2  1  1  0
  3  2  1  0
  4  3  2  0
  5  3  1  0
  6  5  1  0
  7  9  1  0
  7  6  1  0
  8  7  2  0
 10 11  1  1
 10  9  1  0
 12 13  1  0
 12 11  1  0
 13 14  2  0
 15 16  1  0
 15 10  1  0
 17 13  1  0
 18 15  2  0
M  END
$$$$
