GGE.pdb
     RDKit          3D

 18 17  0  0  1  0  0  0  0  0999 V2000
   15.4422  -12.4326  -14.5070 N   0  0  0  0  0  0  0  0  0  0  0  0
   16.7605  -11.9136  -14.7674 C   0  0  0  0  0  0  0  0  0  0  0  0
   16.7723  -10.4514  -14.4550 C   0  0  0  0  0  0  0  0  0  0  0  0
   15.6786   -9.8213  -14.2982 O   0  0  0  0  0  0  0  0  0  0  0  0
   17.9831   -9.7197  -14.3229 N   0  0  0  0  0  0  0  0  0  0  0  0
   18.0143   -8.3268  -14.0065 C   0  0  0  0  0  0  0  0  0  0  0  0
   19.4110   -7.8631  -13.7868 C   0  0  0  0  0  0  0  0  0  0  0  0
   20.2192   -8.6346  -13.2165 O   0  0  0  0  0  0  0  0  0  0  0  0
   19.8758   -6.5955  -14.1887 N   0  0  0  0  0  0  0  0  0  0  0  0
   21.3063   -6.1992  -14.0928 C   0  0  1  0  0  0  0  0  0  0  0  0
   21.9497   -6.4554  -15.4023 C   0  0  0  0  0  0  0  0  0  0  0  0
   23.3870   -6.1288  -15.4551 C   0  0  0  0  0  0  0  0  0  0  0  0
   23.9780   -6.3929  -16.7821 C   0  0  0  0  0  0  0  0  0  0  0  0
   24.1297   -7.5873  -17.1647 O   0  0  0  0  0  0  0  0  0  0  0  0
   21.3863   -4.8611  -13.5661 C   0  0  0  0  0  0  0  0  0  0  0  0
   22.4658   -4.3197  -12.8653 O   0  0  0  0  0  0  0  0  0  0  0  0
   24.3798   -5.3868  -17.6392 O   0  0  0  0  0  0  0  0  0  0  0  0
   20.3990   -4.0683  -13.7237 O   0  0  0  0  0  0  0  0  0  0  0  0
  2  1  1  0
  3  2  1  0
  4  3  2  0
  5  3  1  0
  6  5  1  0
  7  9  1  0
  7  6  1  0
  8  7  2  0
 10 11  1  6
 10  9  1  0
 12 13  1  0
 12 11  1  0
 13 14  2  0
 15 16  1  0
 15 10  1  0
 17 13  1  0
 18 15  2  0
M  END
$$$$
