GGE.pdb
     RDKit          3D

 18 17  0  0  1  0  0  0  0  0999 V2000
   19.1066  -12.4465  -16.7105 N   0  0  0  0  0  0  0  0  0  0  0  0
   20.2640  -11.6706  -17.0757 C   0  0  0  0  0  0  0  0  0  0  0  0
   20.6439  -10.8004  -15.9205 C   0  0  0  0  0  0  0  0  0  0  0  0
   19.7513  -10.3665  -15.1250 O   0  0  0  0  0  0  0  0  0  0  0  0
   21.9923  -10.4297  -15.6690 N   0  0  0  0  0  0  0  0  0  0  0  0
   22.3680   -9.5560  -14.6027 C   0  0  0  0  0  0  0  0  0  0  0  0
   22.2782   -8.1323  -15.0260 C   0  0  0  0  0  0  0  0  0  0  0  0
   22.8275   -7.7873  -16.0998 O   0  0  0  0  0  0  0  0  0  0  0  0
   21.6042   -7.1460  -14.2795 N   0  0  0  0  0  0  0  0  0  0  0  0
   21.5028   -5.7314  -14.7281 C   0  0  1  0  0  0  0  0  0  0  0  0
   20.0734   -5.4160  -14.9559 C   0  0  0  0  0  0  0  0  0  0  0  0
   19.5015   -6.0066  -16.1805 C   0  0  0  0  0  0  0  0  0  0  0  0
   18.0795   -5.6553  -16.3662 C   0  0  0  0  0  0  0  0  0  0  0  0
   17.7800   -4.6058  -17.0025 O   0  0  0  0  0  0  0  0  0  0  0  0
   22.2263   -4.8954  -13.8051 C   0  0  0  0  0  0  0  0  0  0  0  0
   22.6734   -3.5962  -14.0539 O   0  0  0  0  0  0  0  0  0  0  0  0
   17.0447   -6.4261  -15.8729 O   0  0  0  0  0  0  0  0  0  0  0  0
   22.5142   -5.3476  -12.6472 O   0  0  0  0  0  0  0  0  0  0  0  0
  2  1  1  0
  3  2  1  0
  4  3  2  0
  5  3  1  0
  6  5  1  0
  7  9  1  0
  7  6  1  0
  8  7  2  0
 10 11  1  1
 10  9  1  0
 12 13  1  0
 12 11  1  0
 13 14  2  0
 15 16  1  0
 15 10  1  0
 17 13  1  0
 18 15  2  0
M  END
$$$$
