GGE.pdb
     RDKit          3D

 18 17  0  0  1  0  0  0  0  0999 V2000
   18.2768  -12.2870  -14.9896 N   0  0  0  0  0  0  0  0  0  0  0  0
   16.8998  -12.2422  -15.4100 C   0  0  0  0  0  0  0  0  0  0  0  0
   16.5312  -10.8223  -15.7001 C   0  0  0  0  0  0  0  0  0  0  0  0
   15.3169  -10.5056  -15.9075 O   0  0  0  0  0  0  0  0  0  0  0  0
   17.5042   -9.7884  -15.7546 N   0  0  0  0  0  0  0  0  0  0  0  0
   17.1711   -8.4271  -16.0333 C   0  0  0  0  0  0  0  0  0  0  0  0
   18.0863   -7.4988  -15.3158 C   0  0  0  0  0  0  0  0  0  0  0  0
   18.4103   -7.7662  -14.1338 O   0  0  0  0  0  0  0  0  0  0  0  0
   18.6112   -6.3286  -15.8984 N   0  0  0  0  0  0  0  0  0  0  0  0
   19.5295   -5.4132  -15.1696 C   0  0  1  0  0  0  0  0  0  0  0  0
   20.8932   -5.5834  -15.7228 C   0  0  0  0  0  0  0  0  0  0  0  0
   21.9473   -4.8525  -14.9948 C   0  0  0  0  0  0  0  0  0  0  0  0
   22.2747   -5.4767  -13.6975 C   0  0  0  0  0  0  0  0  0  0  0  0
   22.6010   -6.6967  -13.6633 O   0  0  0  0  0  0  0  0  0  0  0  0
   18.9716   -4.0854  -15.1804 C   0  0  0  0  0  0  0  0  0  0  0  0
   19.2986   -3.0522  -14.3001 O   0  0  0  0  0  0  0  0  0  0  0  0
   22.2421   -4.7856  -12.5018 O   0  0  0  0  0  0  0  0  0  0  0  0
   18.0878   -3.7869  -16.0509 O   0  0  0  0  0  0  0  0  0  0  0  0
  2  1  1  0
  3  2  1  0
  4  3  2  0
  5  3  1  0
  6  5  1  0
  7  9  1  0
  7  6  1  0
  8  7  2  0
 10 11  1  6
 10  9  1  0
 12 13  1  0
 12 11  1  0
 13 14  2  0
 15 16  1  0
 15 10  1  0
 17 13  1  0
 18 15  2  0
M  END
$$$$
