GGE.pdb
     RDKit          3D

 18 17  0  0  1  0  0  0  0  0999 V2000
   18.0376  -14.4286  -14.7742 N   0  0  0  0  0  0  0  0  0  0  0  0
   18.4733  -13.7793  -15.9841 C   0  0  0  0  0  0  0  0  0  0  0  0
   17.6793  -12.5259  -16.1702 C   0  0  0  0  0  0  0  0  0  0  0  0
   16.4369  -12.5086  -15.8979 O   0  0  0  0  0  0  0  0  0  0  0  0
   18.2691  -11.3255  -16.6496 N   0  0  0  0  0  0  0  0  0  0  0  0
   17.5464  -10.0976  -16.7560 C   0  0  0  0  0  0  0  0  0  0  0  0
   17.9119   -9.1688  -15.6523 C   0  0  0  0  0  0  0  0  0  0  0  0
   17.8358   -9.5794  -14.4694 O   0  0  0  0  0  0  0  0  0  0  0  0
   18.3417   -7.8448  -15.8680 N   0  0  0  0  0  0  0  0  0  0  0  0
   18.7863   -6.9563  -14.7610 C   0  0  1  0  0  0  0  0  0  0  0  0
   20.2443   -6.7333  -14.8992 C   0  0  0  0  0  0  0  0  0  0  0  0
   20.8520   -5.9486  -13.8083 C   0  0  0  0  0  0  0  0  0  0  0  0
   22.2870   -5.6844  -14.0339 C   0  0  0  0  0  0  0  0  0  0  0  0
   22.7894   -4.6027  -13.6172 O   0  0  0  0  0  0  0  0  0  0  0  0
   17.9387   -5.7924  -14.7267 C   0  0  0  0  0  0  0  0  0  0  0  0
   17.1310   -5.3360  -15.7702 O   0  0  0  0  0  0  0  0  0  0  0  0
   23.1206   -6.5717  -14.6867 O   0  0  0  0  0  0  0  0  0  0  0  0
   17.8998   -5.0796  -13.6691 O   0  0  0  0  0  0  0  0  0  0  0  0
  2  1  1  0
  3  2  1  0
  4  3  2  0
  5  3  1  0
  6  5  1  0
  7  9  1  0
  7  6  1  0
  8  7  2  0
 10 11  1  6
 10  9  1  0
 12 13  1  0
 12 11  1  0
 13 14  2  0
 15 16  1  0
 15 10  1  0
 17 13  1  0
 18 15  2  0
M  END
$$$$
