GGE.pdb
     RDKit          3D

 18 17  0  0  1  0  0  0  0  0999 V2000
   26.4221   -9.3059  -22.4886 N   0  0  0  0  0  0  0  0  0  0  0  0
   25.6336   -9.9509  -21.4701 C   0  0  0  0  0  0  0  0  0  0  0  0
   25.2994   -8.9476  -20.4130 C   0  0  0  0  0  0  0  0  0  0  0  0
   26.0288   -7.9177  -20.2542 O   0  0  0  0  0  0  0  0  0  0  0  0
   24.1745   -9.1007  -19.5587 N   0  0  0  0  0  0  0  0  0  0  0  0
   23.8179   -8.1340  -18.5688 C   0  0  0  0  0  0  0  0  0  0  0  0
   22.6006   -8.5588  -17.8259 C   0  0  0  0  0  0  0  0  0  0  0  0
   22.0614   -9.6507  -18.1270 O   0  0  0  0  0  0  0  0  0  0  0  0
   22.0189   -7.7941  -16.7957 N   0  0  0  0  0  0  0  0  0  0  0  0
   20.8440   -8.2646  -16.0143 C   0  0  1  0  0  0  0  0  0  0  0  0
   21.0985   -7.9924  -14.5805 C   0  0  0  0  0  0  0  0  0  0  0  0
   20.0196   -8.4239  -13.6722 C   0  0  0  0  0  0  0  0  0  0  0  0
   20.3157   -8.1189  -12.2583 C   0  0  0  0  0  0  0  0  0  0  0  0
   19.4509   -8.3804  -11.3752 O   0  0  0  0  0  0  0  0  0  0  0  0
   19.6464   -7.7101  -16.5912 C   0  0  0  0  0  0  0  0  0  0  0  0
   18.3777   -8.2924  -16.5625 O   0  0  0  0  0  0  0  0  0  0  0  0
   21.5067   -7.5540  -11.8451 O   0  0  0  0  0  0  0  0  0  0  0  0
   19.7079   -6.5913  -17.2015 O   0  0  0  0  0  0  0  0  0  0  0  0
  2  1  1  0
  3  2  1  0
  4  3  2  0
  5  3  1  0
  6  5  1  0
  7  9  1  0
  7  6  1  0
  8  7  2  0
 10 11  1  1
 10  9  1  0
 12 13  1  0
 12 11  1  0
 13 14  2  0
 15 16  1  0
 15 10  1  0
 17 13  1  0
 18 15  2  0
M  END
$$$$
