GGE.pdb
     RDKit          3D

 18 17  0  0  1  0  0  0  0  0999 V2000
   29.1557  -17.6719  -19.1477 N   0  0  0  0  0  0  0  0  0  0  0  0
   27.7594  -17.5738  -19.4879 C   0  0  0  0  0  0  0  0  0  0  0  0
   27.1020  -16.6127  -18.5498 C   0  0  0  0  0  0  0  0  0  0  0  0
   27.7037  -15.5490  -18.1973 O   0  0  0  0  0  0  0  0  0  0  0  0
   25.8026  -16.8441  -18.0238 N   0  0  0  0  0  0  0  0  0  0  0  0
   25.1170  -15.8910  -17.2095 C   0  0  0  0  0  0  0  0  0  0  0  0
   23.7485  -16.3678  -16.8716 C   0  0  0  0  0  0  0  0  0  0  0  0
   23.5889  -17.5745  -16.5679 O   0  0  0  0  0  0  0  0  0  0  0  0
   22.6163  -15.5297  -16.8745 N   0  0  0  0  0  0  0  0  0  0  0  0
   21.2742  -15.9945  -16.4327 C   0  0  1  0  0  0  0  0  0  0  0  0
   21.3759  -16.4401  -15.0235 C   0  0  0  0  0  0  0  0  0  0  0  0
   20.1144  -16.9381  -14.4439 C   0  0  0  0  0  0  0  0  0  0  0  0
   20.0769  -18.4112  -14.3535 C   0  0  0  0  0  0  0  0  0  0  0  0
   20.9967  -19.0162  -13.7338 O   0  0  0  0  0  0  0  0  0  0  0  0
   20.3032  -14.9751  -16.7364 C   0  0  0  0  0  0  0  0  0  0  0  0
   18.9308  -15.1736  -16.9001 O   0  0  0  0  0  0  0  0  0  0  0  0
   19.0735  -19.1733  -14.9199 O   0  0  0  0  0  0  0  0  0  0  0  0
   20.6909  -13.7689  -16.8872 O   0  0  0  0  0  0  0  0  0  0  0  0
  2  1  1  0
  3  2  1  0
  4  3  2  0
  5  3  1  0
  6  5  1  0
  7  9  1  0
  7  6  1  0
  8  7  2  0
 10 11  1  1
 10  9  1  0
 12 13  1  0
 12 11  1  0
 13 14  2  0
 15 16  1  0
 15 10  1  0
 17 13  1  0
 18 15  2  0
M  END
$$$$
