LSW.pdb
     RDKit          3D

 29 30  0  0  1  0  0  0  0  0999 V2000
    8.9897  -12.3957   19.1228 C   0  0  0  0  0  0  0  0  0  0  0  0
    7.7544  -13.2731   19.0975 C   0  0  2  0  0  0  0  0  0  0  0  0
    6.5599  -12.3818   18.9764 C   0  0  0  0  0  0  0  0  0  0  0  0
    7.7829  -14.1465   20.2995 C   0  0  0  0  0  0  0  0  0  0  0  0
    9.0080  -15.0074   20.3946 C   0  0  2  0  0  0  0  0  0  0  0  0
    8.9802  -15.8683   19.1982 N   0  0  0  0  0  0  0  0  0  0  0  0
    9.0380  -15.8943   21.5459 C   0  0  0  0  0  0  0  0  0  0  0  0
    7.9154  -16.0691   22.1436 O   0  0  0  0  0  0  0  0  0  0  0  0
   12.3220  -17.8361   22.4280 O   0  0  0  0  0  0  0  0  0  0  0  0
   11.2113  -18.4897   22.9772 C   0  0  0  0  0  0  0  0  0  0  0  0
   10.0631  -17.4936   23.2148 C   0  0  2  0  0  0  0  0  0  0  0  0
   10.1272  -16.5830   22.0889 N   0  0  0  0  0  0  0  0  0  0  0  0
   10.3982  -16.7973   24.4849 C   0  0  0  0  0  0  0  0  0  0  0  0
   11.3929  -16.0223   24.5407 O   0  0  0  0  0  0  0  0  0  0  0  0
    9.6327  -16.9676   25.6677 N   0  0  0  0  0  0  0  0  0  0  0  0
   10.1643  -16.5756   26.9954 C   0  0  1  0  0  0  0  0  0  0  0  0
    9.0009  -16.1178   27.7895 C   0  0  0  0  0  0  0  0  0  0  0  0
    7.9462  -15.4348   27.0150 C   0  0  0  0  0  0  0  0  0  0  0  0
    6.8713  -16.0840   26.3742 C   0  0  0  0  0  0  0  0  0  0  0  0
    6.1510  -15.1481   25.7429 N   0  0  0  0  0  0  0  0  0  0  0  0
    6.6714  -13.9366   25.9225 C   0  0  0  0  0  0  0  0  0  0  0  0
    6.2604  -12.6831   25.4789 C   0  0  0  0  0  0  0  0  0  0  0  0
    7.0032  -11.5993   25.8529 C   0  0  0  0  0  0  0  0  0  0  0  0
    8.1386  -11.7209   26.6517 C   0  0  0  0  0  0  0  0  0  0  0  0
    8.5092  -12.9754   27.0667 C   0  0  0  0  0  0  0  0  0  0  0  0
    7.7855  -14.1072   26.7111 C   0  0  0  0  0  0  0  0  0  0  0  0
   10.8839  -17.6832   27.6103 C   0  0  0  0  0  0  0  0  0  0  0  0
   10.9147  -18.8549   27.1850 O   0  0  0  0  0  0  0  0  0  0  0  0
   11.6139  -17.4448   28.7808 O   0  0  0  0  0  0  0  0  0  0  0  0
  2  1  1  1
  2  4  1  0
  3  2  1  0
  5  4  1  0
  5  7  1  0
  5  6  1  6
  7  8  2  0
  7 12  1  0
  9 10  1  0
 11 10  1  6
 11 13  1  0
 12 11  1  0
 13 15  1  0
 14 13  2  0
 15 16  1  0
 16 17  1  1
 16 27  1  0
 18 17  1  0
 19 18  2  0
 20 19  1  0
 21 20  1  0
 21 26  2  0
 22 23  2  0
 22 21  1  0
 23 24  1  0
 24 25  2  0
 26 25  1  0
 26 18  1  0
 27 28  2  0
 27 29  1  0
M  END
$$$$
