LSW.pdb
     RDKit          3D

 29 30  0  0  1  0  0  0  0  0999 V2000
    8.7559  -12.9394   17.9026 C   0  0  0  0  0  0  0  0  0  0  0  0
    7.7196  -13.4888   18.8621 C   0  0  2  0  0  0  0  0  0  0  0  0
    6.4567  -12.7119   18.6688 C   0  0  0  0  0  0  0  0  0  0  0  0
    8.2922  -13.4501   20.2329 C   0  0  0  0  0  0  0  0  0  0  0  0
    9.4822  -14.3448   20.4184 C   0  0  2  0  0  0  0  0  0  0  0  0
    9.6108  -15.0981   19.1577 N   0  0  0  0  0  0  0  0  0  0  0  0
    9.3416  -15.3285   21.4794 C   0  0  0  0  0  0  0  0  0  0  0  0
    8.7357  -14.9245   22.5367 O   0  0  0  0  0  0  0  0  0  0  0  0
   11.7181  -18.4870   21.9314 O   0  0  0  0  0  0  0  0  0  0  0  0
   10.3883  -18.8320   22.2057 C   0  0  0  0  0  0  0  0  0  0  0  0
    9.5777  -17.5843   22.5972 C   0  0  2  0  0  0  0  0  0  0  0  0
    9.7782  -16.6568   21.5015 N   0  0  0  0  0  0  0  0  0  0  0  0
   10.2055  -17.0790   23.8465 C   0  0  0  0  0  0  0  0  0  0  0  0
   11.3635  -16.5778   23.8173 O   0  0  0  0  0  0  0  0  0  0  0  0
    9.5470  -17.1356   25.1024 N   0  0  0  0  0  0  0  0  0  0  0  0
   10.2526  -16.7932   26.3610 C   0  0  1  0  0  0  0  0  0  0  0  0
    9.9583  -15.3661   26.6266 C   0  0  0  0  0  0  0  0  0  0  0  0
    8.5857  -14.9389   26.2917 C   0  0  0  0  0  0  0  0  0  0  0  0
    7.5402  -15.8096   25.9226 C   0  0  0  0  0  0  0  0  0  0  0  0
    6.4634  -15.0596   25.6557 N   0  0  0  0  0  0  0  0  0  0  0  0
    6.7239  -13.7654   25.8230 C   0  0  0  0  0  0  0  0  0  0  0  0
    5.9191  -12.6386   25.6820 C   0  0  0  0  0  0  0  0  0  0  0  0
    6.4751  -11.4203   25.9514 C   0  0  0  0  0  0  0  0  0  0  0  0
    7.8020  -11.2860   26.3557 C   0  0  0  0  0  0  0  0  0  0  0  0
    8.5607  -12.4225   26.4815 C   0  0  0  0  0  0  0  0  0  0  0  0
    8.0390  -13.6834   26.2178 C   0  0  0  0  0  0  0  0  0  0  0  0
    9.8395  -17.6792   27.4412 C   0  0  0  0  0  0  0  0  0  0  0  0
    8.9344  -18.5341   27.3738 O   0  0  0  0  0  0  0  0  0  0  0  0
   10.4957  -17.5885   28.6746 O   0  0  0  0  0  0  0  0  0  0  0  0
  2  1  1  6
  2  4  1  0
  3  2  1  0
  5  4  1  0
  5  7  1  0
  5  6  1  6
  7  8  2  0
  7 12  1  0
  9 10  1  0
 11 10  1  6
 11 13  1  0
 12 11  1  0
 13 15  1  0
 14 13  2  0
 15 16  1  0
 16 17  1  1
 16 27  1  0
 18 17  1  0
 19 18  2  0
 20 19  1  0
 21 20  1  0
 21 26  2  0
 22 23  2  0
 22 21  1  0
 23 24  1  0
 24 25  2  0
 26 25  1  0
 26 18  1  0
 27 28  2  0
 27 29  1  0
M  END
$$$$
