LSW.pdb
     RDKit          3D

 29 30  0  0  1  0  0  0  0  0999 V2000
    9.4183  -13.1486   18.8136 C   0  0  0  0  0  0  0  0  0  0  0  0
    7.9768  -13.1185   19.2801 C   0  0  2  0  0  0  0  0  0  0  0  0
    7.5767  -11.6871   19.4442 C   0  0  0  0  0  0  0  0  0  0  0  0
    7.8684  -13.9580   20.5016 C   0  0  0  0  0  0  0  0  0  0  0  0
    8.3050  -15.3794   20.3010 C   0  0  2  0  0  0  0  0  0  0  0  0
    7.2373  -16.0125   19.5056 N   0  0  0  0  0  0  0  0  0  0  0  0
    8.4285  -16.1541   21.5247 C   0  0  0  0  0  0  0  0  0  0  0  0
    7.3356  -16.3611   22.1656 O   0  0  0  0  0  0  0  0  0  0  0  0
   11.6636  -18.3326   22.3368 O   0  0  0  0  0  0  0  0  0  0  0  0
   10.4647  -18.7295   22.9430 C   0  0  0  0  0  0  0  0  0  0  0  0
    9.6126  -17.5014   23.3071 C   0  0  2  0  0  0  0  0  0  0  0  0
    9.5798  -16.7046   22.0967 N   0  0  0  0  0  0  0  0  0  0  0  0
   10.3616  -16.8042   24.3856 C   0  0  0  0  0  0  0  0  0  0  0  0
   11.3651  -16.0924   24.1036 O   0  0  0  0  0  0  0  0  0  0  0  0
    9.9920  -16.9044   25.7521 N   0  0  0  0  0  0  0  0  0  0  0  0
   10.9128  -16.4811   26.8347 C   0  0  1  0  0  0  0  0  0  0  0  0
   10.3691  -15.2112   27.3690 C   0  0  0  0  0  0  0  0  0  0  0  0
    8.9092  -15.0477   27.2253 C   0  0  0  0  0  0  0  0  0  0  0  0
    7.9487  -15.9830   27.6612 C   0  0  0  0  0  0  0  0  0  0  0  0
    6.7416  -15.5113   27.3242 N   0  0  0  0  0  0  0  0  0  0  0  0
    6.8386  -14.3388   26.7024 C   0  0  0  0  0  0  0  0  0  0  0  0
    5.8657  -13.4820   26.1959 C   0  0  0  0  0  0  0  0  0  0  0  0
    6.2811  -12.3147   25.6207 C   0  0  0  0  0  0  0  0  0  0  0  0
    7.6291  -11.9721   25.5329 C   0  0  0  0  0  0  0  0  0  0  0  0
    8.5557  -12.8457   26.0443 C   0  0  0  0  0  0  0  0  0  0  0  0
    8.1809  -14.0451   26.6379 C   0  0  0  0  0  0  0  0  0  0  0  0
   11.0384  -17.5255   27.8427 C   0  0  0  0  0  0  0  0  0  0  0  0
   10.3428  -18.5581   27.9094 O   0  0  0  0  0  0  0  0  0  0  0  0
   12.0150  -17.3884   28.8364 O   0  0  0  0  0  0  0  0  0  0  0  0
  2  1  1  1
  2  4  1  0
  3  2  1  0
  5  4  1  0
  5  7  1  0
  5  6  1  6
  7  8  2  0
  7 12  1  0
  9 10  1  0
 11 10  1  6
 11 13  1  0
 12 11  1  0
 13 15  1  0
 14 13  2  0
 15 16  1  0
 16 17  1  1
 16 27  1  0
 18 17  1  0
 19 18  2  0
 20 19  1  0
 21 20  1  0
 21 26  2  0
 22 23  2  0
 22 21  1  0
 23 24  1  0
 24 25  2  0
 26 25  1  0
 26 18  1  0
 27 28  2  0
 27 29  1  0
M  END
$$$$
