LSW.pdb
     RDKit          3D

 29 30  0  0  1  0  0  0  0  0999 V2000
    7.0225  -12.4234   19.8181 C   0  0  0  0  0  0  0  0  0  0  0  0
    7.4831  -13.8153   20.2015 C   0  0  2  0  0  0  0  0  0  0  0  0
    7.5101  -13.8956   21.6944 C   0  0  0  0  0  0  0  0  0  0  0  0
    8.7788  -14.0770   19.5223 C   0  0  0  0  0  0  0  0  0  0  0  0
    9.1998  -15.5168   19.5539 C   0  0  2  0  0  0  0  0  0  0  0  0
    8.2708  -16.2203   18.6509 N   0  0  0  0  0  0  0  0  0  0  0  0
    9.0806  -16.1550   20.8544 C   0  0  0  0  0  0  0  0  0  0  0  0
    7.9192  -16.6205   21.1420 O   0  0  0  0  0  0  0  0  0  0  0  0
   12.2652  -17.5941   22.5067 O   0  0  0  0  0  0  0  0  0  0  0  0
   11.0600  -18.2195   22.8514 C   0  0  0  0  0  0  0  0  0  0  0  0
    9.9368  -17.1790   23.0021 C   0  0  2  0  0  0  0  0  0  0  0  0
   10.0630  -16.3298   21.8342 N   0  0  0  0  0  0  0  0  0  0  0  0
   10.2553  -16.4284   24.2453 C   0  0  0  0  0  0  0  0  0  0  0  0
   11.0699  -15.4647   24.2139 O   0  0  0  0  0  0  0  0  0  0  0  0
    9.6717  -16.7531   25.4975 N   0  0  0  0  0  0  0  0  0  0  0  0
   10.2957  -16.3290   26.7741 C   0  0  1  0  0  0  0  0  0  0  0  0
    9.1810  -15.9848   27.6866 C   0  0  0  0  0  0  0  0  0  0  0  0
    8.0173  -15.3488   27.0385 C   0  0  0  0  0  0  0  0  0  0  0  0
    6.9794  -16.0459   26.3871 C   0  0  0  0  0  0  0  0  0  0  0  0
    6.1299  -15.1372   25.8911 N   0  0  0  0  0  0  0  0  0  0  0  0
    6.5319  -13.8994   26.1689 C   0  0  0  0  0  0  0  0  0  0  0  0
    5.9677  -12.6610   25.8771 C   0  0  0  0  0  0  0  0  0  0  0  0
    6.6151  -11.5442   26.3241 C   0  0  0  0  0  0  0  0  0  0  0  0
    7.8023  -11.6184   27.0502 C   0  0  0  0  0  0  0  0  0  0  0  0
    8.3247  -12.8593   27.3155 C   0  0  0  0  0  0  0  0  0  0  0  0
    7.7023  -14.0234   26.8809 C   0  0  0  0  0  0  0  0  0  0  0  0
   11.1669  -17.3743   27.2946 C   0  0  0  0  0  0  0  0  0  0  0  0
   11.2671  -18.5304   26.8385 O   0  0  0  0  0  0  0  0  0  0  0  0
   11.9744  -17.0884   28.4019 O   0  0  0  0  0  0  0  0  0  0  0  0
  2  1  1  1
  2  4  1  0
  3  2  1  0
  5  4  1  0
  5  7  1  0
  5  6  1  6
  7  8  2  0
  7 12  1  0
  9 10  1  0
 11 10  1  6
 11 13  1  0
 12 11  1  0
 13 15  1  0
 14 13  2  0
 15 16  1  0
 16 17  1  1
 16 27  1  0
 18 17  1  0
 19 18  2  0
 20 19  1  0
 21 20  1  0
 21 26  2  0
 22 23  2  0
 22 21  1  0
 23 24  1  0
 24 25  2  0
 26 25  1  0
 26 18  1  0
 27 28  2  0
 27 29  1  0
M  END
$$$$
