LSW.pdb
     RDKit          3D

 29 30  0  0  1  0  0  0  0  0999 V2000
    7.4355  -13.9971   17.6780 C   0  0  0  0  0  0  0  0  0  0  0  0
    7.2280  -13.4302   19.0680 C   0  0  2  0  0  0  0  0  0  0  0  0
    8.0340  -12.1754   19.1775 C   0  0  0  0  0  0  0  0  0  0  0  0
    7.5579  -14.4917   20.0544 C   0  0  0  0  0  0  0  0  0  0  0  0
    8.9904  -14.4809   20.5002 C   0  0  2  0  0  0  0  0  0  0  0  0
    9.7805  -14.8118   19.3004 N   0  0  0  0  0  0  0  0  0  0  0  0
    9.3202  -15.4785   21.5048 C   0  0  0  0  0  0  0  0  0  0  0  0
    8.4216  -15.6884   22.3973 O   0  0  0  0  0  0  0  0  0  0  0  0
   12.2047  -18.3693   21.2417 O   0  0  0  0  0  0  0  0  0  0  0  0
   12.2148  -17.6394   22.4374 C   0  0  0  0  0  0  0  0  0  0  0  0
   10.8089  -17.0989   22.7507 C   0  0  2  0  0  0  0  0  0  0  0  0
   10.4862  -16.2407   21.6281 N   0  0  0  0  0  0  0  0  0  0  0  0
   10.9568  -16.3093   24.0016 C   0  0  0  0  0  0  0  0  0  0  0  0
   11.0918  -15.0554   23.9486 O   0  0  0  0  0  0  0  0  0  0  0  0
   10.9535  -16.9147   25.2852 N   0  0  0  0  0  0  0  0  0  0  0  0
    9.9289  -16.5691   26.3000 C   0  0  1  0  0  0  0  0  0  0  0  0
    8.6146  -16.8156   25.6633 C   0  0  0  0  0  0  0  0  0  0  0  0
    7.6348  -15.7214   25.8100 C   0  0  0  0  0  0  0  0  0  0  0  0
    6.2658  -15.8196   25.4878 C   0  0  0  0  0  0  0  0  0  0  0  0
    5.7097  -14.6223   25.7128 N   0  0  0  0  0  0  0  0  0  0  0  0
    6.6094  -13.7491   26.1586 C   0  0  0  0  0  0  0  0  0  0  0  0
    6.4889  -12.4149   26.5364 C   0  0  0  0  0  0  0  0  0  0  0  0
    7.6101  -11.7750   26.9828 C   0  0  0  0  0  0  0  0  0  0  0  0
    8.8444  -12.4167   27.0659 C   0  0  0  0  0  0  0  0  0  0  0  0
    8.9193  -13.7323   26.6828 C   0  0  0  0  0  0  0  0  0  0  0  0
    7.8060  -14.4245   26.2215 C   0  0  0  0  0  0  0  0  0  0  0  0
   10.1328  -17.3374   27.5210 C   0  0  0  0  0  0  0  0  0  0  0  0
   10.2901  -18.5726   27.5843 O   0  0  0  0  0  0  0  0  0  0  0  0
   10.1597  -16.6602   28.7460 O   0  0  0  0  0  0  0  0  0  0  0  0
  2  1  1  6
  2  4  1  0
  3  2  1  0
  5  4  1  0
  5  7  1  0
  5  6  1  6
  7  8  2  0
  7 12  1  0
  9 10  1  0
 11 10  1  6
 11 13  1  0
 12 11  1  0
 13 15  1  0
 14 13  2  0
 15 16  1  0
 16 17  1  6
 16 27  1  0
 18 17  1  0
 19 18  2  0
 20 19  1  0
 21 20  1  0
 21 26  2  0
 22 23  2  0
 22 21  1  0
 23 24  1  0
 24 25  2  0
 26 25  1  0
 26 18  1  0
 27 28  2  0
 27 29  1  0
M  END
$$$$
