LSW.pdb
     RDKit          3D

 29 30  0  0  1  0  0  0  0  0999 V2000
    8.9689  -12.0966   18.6285 C   0  0  0  0  0  0  0  0  0  0  0  0
    7.9067  -13.1459   18.3696 C   0  0  2  0  0  0  0  0  0  0  0  0
    6.6935  -12.4508   17.8397 C   0  0  0  0  0  0  0  0  0  0  0  0
    7.7058  -13.9195   19.6224 C   0  0  0  0  0  0  0  0  0  0  0  0
    8.9385  -14.6278   20.1019 C   0  0  2  0  0  0  0  0  0  0  0  0
    9.3584  -15.4917   18.9836 N   0  0  0  0  0  0  0  0  0  0  0  0
    8.7305  -15.4992   21.2466 C   0  0  0  0  0  0  0  0  0  0  0  0
    8.1733  -14.9548   22.2671 O   0  0  0  0  0  0  0  0  0  0  0  0
   10.7282  -18.9445   21.8252 O   0  0  0  0  0  0  0  0  0  0  0  0
    9.3884  -19.0398   22.2231 C   0  0  0  0  0  0  0  0  0  0  0  0
    8.8302  -17.6495   22.5734 C   0  0  2  0  0  0  0  0  0  0  0  0
    9.0563  -16.8522   21.3842 N   0  0  0  0  0  0  0  0  0  0  0  0
    9.6587  -17.1634   23.7080 C   0  0  0  0  0  0  0  0  0  0  0  0
   10.7931  -16.6534   23.4930 O   0  0  0  0  0  0  0  0  0  0  0  0
    9.2229  -17.2485   25.0559 N   0  0  0  0  0  0  0  0  0  0  0  0
   10.1299  -16.9234   26.1832 C   0  0  1  0  0  0  0  0  0  0  0  0
    9.8372  -15.5214   26.5604 C   0  0  0  0  0  0  0  0  0  0  0  0
    8.4384  -15.0981   26.3530 C   0  0  0  0  0  0  0  0  0  0  0  0
    7.3720  -15.9683   26.0484 C   0  0  0  0  0  0  0  0  0  0  0  0
    6.2713  -15.2215   25.8931 N   0  0  0  0  0  0  0  0  0  0  0  0
    6.5357  -13.9299   26.0739 C   0  0  0  0  0  0  0  0  0  0  0  0
    5.7140  -12.8073   26.0317 C   0  0  0  0  0  0  0  0  0  0  0  0
    6.2819  -11.5916   26.2874 C   0  0  0  0  0  0  0  0  0  0  0  0
    7.6370  -11.4558   26.5833 C   0  0  0  0  0  0  0  0  0  0  0  0
    8.4115  -12.5882   26.6139 C   0  0  0  0  0  0  0  0  0  0  0  0
    7.8786  -13.8462   26.3598 C   0  0  0  0  0  0  0  0  0  0  0  0
    9.9491  -17.8664   27.2790 C   0  0  0  0  0  0  0  0  0  0  0  0
    9.0756  -18.7543   27.3367 O   0  0  0  0  0  0  0  0  0  0  0  0
   10.8145  -17.7965   28.3773 O   0  0  0  0  0  0  0  0  0  0  0  0
  2  1  1  1
  2  4  1  0
  3  2  1  0
  5  4  1  0
  5  7  1  0
  5  6  1  6
  7  8  2  0
  7 12  1  0
  9 10  1  0
 11 10  1  6
 11 13  1  0
 12 11  1  0
 13 15  1  0
 14 13  2  0
 15 16  1  0
 16 17  1  1
 16 27  1  0
 18 17  1  0
 19 18  2  0
 20 19  1  0
 21 20  1  0
 21 26  2  0
 22 23  2  0
 22 21  1  0
 23 24  1  0
 24 25  2  0
 26 25  1  0
 26 18  1  0
 27 28  2  0
 27 29  1  0
M  END
$$$$
