FID.pdb
     RDKit          3D

 28 28  0  0  1  0  0  0  0  0999 V2000
    5.6888  -17.8975   25.4469 N   0  0  0  0  0  0  0  0  0  0  0  0
    6.1160  -16.5237   25.3220 C   0  0  1  0  0  0  0  0  0  0  0  0
    6.6681  -16.0362   26.6573 C   0  0  0  0  0  0  0  0  0  0  0  0
    6.8542  -14.5738   26.6878 C   0  0  0  0  0  0  0  0  0  0  0  0
    5.7259  -13.7863   26.6229 C   0  0  0  0  0  0  0  0  0  0  0  0
    5.8468  -12.4070   26.6480 C   0  0  0  0  0  0  0  0  0  0  0  0
    7.1063  -11.8439   26.7382 C   0  0  0  0  0  0  0  0  0  0  0  0
    8.2289  -12.6349   26.8026 C   0  0  0  0  0  0  0  0  0  0  0  0
    8.1084  -13.9970   26.7778 C   0  0  0  0  0  0  0  0  0  0  0  0
    7.2453  -16.4657   24.3607 C   0  0  0  0  0  0  0  0  0  0  0  0
    7.9749  -17.4849   24.2586 O   0  0  0  0  0  0  0  0  0  0  0  0
    6.6708  -12.9900   20.2905 C   0  0  0  0  0  0  0  0  0  0  0  0
    7.0204  -14.2378   21.0271 C   0  0  0  0  0  0  0  0  0  0  0  0
    8.4221  -14.2012   21.6234 C   0  0  2  0  0  0  0  0  0  0  0  0
    9.4011  -14.2245   20.5007 C   0  0  0  0  0  0  0  0  0  0  0  0
    8.5612  -15.4260   22.5104 C   0  0  2  0  0  0  0  0  0  0  0  0
    7.5290  -15.3357   23.5714 N   0  0  0  0  0  0  0  0  0  0  0  0
    9.8827  -15.5753   23.1355 C   0  0  0  0  0  0  0  0  0  0  0  0
   10.3299  -14.6447   23.8523 O   0  0  0  0  0  0  0  0  0  0  0  0
   10.6571  -16.7313   22.9562 N   0  0  0  0  0  0  0  0  0  0  0  0
   11.9830  -16.8051   23.5773 C   0  0  1  0  0  0  0  0  0  0  0  0
   12.2829  -18.2519   23.8858 C   0  0  0  0  0  0  0  0  0  0  0  0
   11.7872  -18.6994   25.2014 C   0  0  0  0  0  0  0  0  0  0  0  0
   11.2634  -17.9145   26.0026 O   0  0  0  0  0  0  0  0  0  0  0  0
   12.9941  -16.2445   22.6633 C   0  0  0  0  0  0  0  0  0  0  0  0
   12.7696  -16.1468   21.3163 O   0  0  0  0  0  0  0  0  0  0  0  0
   11.9068  -20.0366   25.5605 O   0  0  0  0  0  0  0  0  0  0  0  0
   14.0840  -15.8480   23.1230 O   0  0  0  0  0  0  0  0  0  0  0  0
  2  1  1  1
  3  2  1  0
  4  3  1  0
  5  4  2  0
  6  5  1  0
  7  6  2  0
  7  8  1  0
  8  9  2  0
  9  4  1  0
 10 11  2  0
 10  2  1  0
 12 13  1  0
 13 14  1  0
 14 16  1  0
 14 15  1  6
 16 18  1  0
 16 17  1  1
 17 10  1  0
 18 20  1  0
 19 18  2  0
 20 21  1  0
 21 22  1  6
 21 25  1  0
 22 23  1  0
 23 27  1  0
 23 24  2  0
 25 28  2  0
 25 26  1  0
M  END
$$$$
