FID.pdb
     RDKit          3D

 28 28  0  0  1  0  0  0  0  0999 V2000
    6.4027  -17.6439   25.8637 N   0  0  0  0  0  0  0  0  0  0  0  0
    6.7916  -16.3541   25.3437 C   0  0  1  0  0  0  0  0  0  0  0  0
    7.8212  -15.7177   26.2714 C   0  0  0  0  0  0  0  0  0  0  0  0
    7.4741  -14.3296   26.6275 C   0  0  0  0  0  0  0  0  0  0  0  0
    6.2185  -13.8786   26.2848 C   0  0  0  0  0  0  0  0  0  0  0  0
    5.8437  -12.5825   26.5968 C   0  0  0  0  0  0  0  0  0  0  0  0
    6.7434  -11.7613   27.2508 C   0  0  0  0  0  0  0  0  0  0  0  0
    7.9952  -12.2168   27.5904 C   0  0  0  0  0  0  0  0  0  0  0  0
    8.3645  -13.4970   27.2817 C   0  0  0  0  0  0  0  0  0  0  0  0
    7.4755  -16.5560   24.0421 C   0  0  0  0  0  0  0  0  0  0  0  0
    7.9664  -17.6910   23.8131 O   0  0  0  0  0  0  0  0  0  0  0  0
    8.2490  -12.3508   20.3502 C   0  0  0  0  0  0  0  0  0  0  0  0
    8.5123  -13.5623   21.1776 C   0  0  0  0  0  0  0  0  0  0  0  0
    7.6479  -14.7520   20.7788 C   0  0  2  0  0  0  0  0  0  0  0  0
    6.2203  -14.3617   20.9482 C   0  0  0  0  0  0  0  0  0  0  0  0
    8.0240  -15.9033   21.6950 C   0  0  2  0  0  0  0  0  0  0  0  0
    7.5956  -15.5464   23.0691 N   0  0  0  0  0  0  0  0  0  0  0  0
    9.4576  -16.2263   21.7060 C   0  0  0  0  0  0  0  0  0  0  0  0
   10.0215  -16.5471   20.6294 O   0  0  0  0  0  0  0  0  0  0  0  0
   10.2146  -16.1825   22.8863 N   0  0  0  0  0  0  0  0  0  0  0  0
   11.6112  -16.6269   22.8550 C   0  0  1  0  0  0  0  0  0  0  0  0
   12.4772  -15.4455   22.4906 C   0  0  0  0  0  0  0  0  0  0  0  0
   13.9097  -15.7717   22.3548 C   0  0  0  0  0  0  0  0  0  0  0  0
   14.7228  -15.5263   23.2553 O   0  0  0  0  0  0  0  0  0  0  0  0
   11.9922  -17.1686   24.1715 C   0  0  0  0  0  0  0  0  0  0  0  0
   13.1602  -17.8592   24.3538 O   0  0  0  0  0  0  0  0  0  0  0  0
   14.3688  -16.3710   21.1879 O   0  0  0  0  0  0  0  0  0  0  0  0
   11.2348  -16.9970   25.1480 O   0  0  0  0  0  0  0  0  0  0  0  0
  2  1  1  1
  3  2  1  0
  4  3  1  0
  5  4  2  0
  6  5  1  0
  7  6  2  0
  7  8  1  0
  8  9  2  0
  9  4  1  0
 10 11  2  0
 10  2  1  0
 12 13  1  0
 13 14  1  0
 14 16  1  0
 14 15  1  1
 16 18  1  0
 16 17  1  1
 17 10  1  0
 18 20  1  0
 19 18  2  0
 20 21  1  0
 21 22  1  1
 21 25  1  0
 22 23  1  0
 23 27  1  0
 23 24  2  0
 25 28  2  0
 25 26  1  0
M  END
$$$$
