FID.pdb
     RDKit          3D

 28 28  0  0  1  0  0  0  0  0999 V2000
    5.6045  -17.7827   25.1620 N   0  0  0  0  0  0  0  0  0  0  0  0
    6.1061  -16.4300   25.0970 C   0  0  1  0  0  0  0  0  0  0  0  0
    6.6576  -16.0230   26.4593 C   0  0  0  0  0  0  0  0  0  0  0  0
    6.7051  -14.5593   26.6313 C   0  0  0  0  0  0  0  0  0  0  0  0
    7.9175  -13.9956   26.9626 C   0  0  0  0  0  0  0  0  0  0  0  0
    8.0152  -12.6251   27.1355 C   0  0  0  0  0  0  0  0  0  0  0  0
    6.8859  -11.8444   26.9711 C   0  0  0  0  0  0  0  0  0  0  0  0
    5.6785  -12.4126   26.6405 C   0  0  0  0  0  0  0  0  0  0  0  0
    5.5832  -13.7662   26.4699 C   0  0  0  0  0  0  0  0  0  0  0  0
    7.2550  -16.3966   24.1582 C   0  0  0  0  0  0  0  0  0  0  0  0
    7.9943  -17.4128   24.1076 O   0  0  0  0  0  0  0  0  0  0  0  0
    7.1010  -12.7162   20.0793 C   0  0  0  0  0  0  0  0  0  0  0  0
    7.2685  -14.0026   20.8134 C   0  0  0  0  0  0  0  0  0  0  0  0
    8.6207  -14.1181   21.5061 C   0  0  2  0  0  0  0  0  0  0  0  0
    9.6767  -14.1357   20.4554 C   0  0  0  0  0  0  0  0  0  0  0  0
    8.6046  -15.4110   22.3025 C   0  0  2  0  0  0  0  0  0  0  0  0
    7.5468  -15.2930   23.3353 N   0  0  0  0  0  0  0  0  0  0  0  0
    9.8803  -15.7377   22.9547 C   0  0  0  0  0  0  0  0  0  0  0  0
   10.2475  -15.0673   23.9524 O   0  0  0  0  0  0  0  0  0  0  0  0
   10.6977  -16.7812   22.4951 N   0  0  0  0  0  0  0  0  0  0  0  0
   11.9895  -17.0156   23.1474 C   0  0  1  0  0  0  0  0  0  0  0  0
   12.2213  -18.5054   23.2198 C   0  0  0  0  0  0  0  0  0  0  0  0
   13.5489  -18.8806   23.7429 C   0  0  0  0  0  0  0  0  0  0  0  0
   14.3699  -18.0299   24.1093 O   0  0  0  0  0  0  0  0  0  0  0  0
   13.0620  -16.3558   22.3819 C   0  0  0  0  0  0  0  0  0  0  0  0
   13.0110  -16.2503   21.0178 O   0  0  0  0  0  0  0  0  0  0  0  0
   13.8967  -20.2233   23.8306 O   0  0  0  0  0  0  0  0  0  0  0  0
   14.0439  -15.8799   22.9869 O   0  0  0  0  0  0  0  0  0  0  0  0
  2  1  1  1
  3  2  1  0
  4  3  1  0
  5  4  2  0
  6  5  1  0
  7  6  2  0
  7  8  1  0
  8  9  2  0
  9  4  1  0
 10 11  2  0
 10  2  1  0
 12 13  1  0
 13 14  1  0
 14 16  1  0
 14 15  1  6
 16 18  1  0
 16 17  1  1
 17 10  1  0
 18 20  1  0
 19 18  2  0
 20 21  1  0
 21 22  1  6
 21 25  1  0
 22 23  1  0
 23 27  1  0
 23 24  2  0
 25 28  2  0
 25 26  1  0
M  END
$$$$
