FID.pdb
     RDKit          3D

 28 28  0  0  1  0  0  0  0  0999 V2000
    7.0557  -19.0075   26.9446 N   0  0  0  0  0  0  0  0  0  0  0  0
    7.5692  -17.6592   26.8819 C   0  0  1  0  0  0  0  0  0  0  0  0
    8.6903  -17.4907   27.9019 C   0  0  0  0  0  0  0  0  0  0  0  0
    9.0793  -16.0798   28.0809 C   0  0  0  0  0  0  0  0  0  0  0  0
   10.3453  -15.8235   28.5591 C   0  0  0  0  0  0  0  0  0  0  0  0
   10.7592  -14.5151   28.7450 C   0  0  0  0  0  0  0  0  0  0  0  0
    9.8873  -13.4849   28.4449 C   0  0  0  0  0  0  0  0  0  0  0  0
    8.6248  -13.7467   27.9679 C   0  0  0  0  0  0  0  0  0  0  0  0
    8.2170  -15.0393   27.7847 C   0  0  0  0  0  0  0  0  0  0  0  0
    8.1872  -17.4505   25.5488 C   0  0  0  0  0  0  0  0  0  0  0  0
    8.6141  -18.4651   24.9405 O   0  0  0  0  0  0  0  0  0  0  0  0
    7.7563  -13.6624   20.7440 C   0  0  0  0  0  0  0  0  0  0  0  0
    8.4195  -14.7835   21.4685 C   0  0  0  0  0  0  0  0  0  0  0  0
    7.9546  -14.9128   22.9138 C   0  0  2  0  0  0  0  0  0  0  0  0
    8.2795  -13.6408   23.6178 C   0  0  0  0  0  0  0  0  0  0  0  0
    8.6990  -16.0907   23.5178 C   0  0  2  0  0  0  0  0  0  0  0  0
    8.3134  -16.1849   24.9467 N   0  0  0  0  0  0  0  0  0  0  0  0
   10.1622  -15.9987   23.4188 C   0  0  0  0  0  0  0  0  0  0  0  0
   10.7609  -15.0783   24.0305 O   0  0  0  0  0  0  0  0  0  0  0  0
   10.9094  -16.9139   22.6622 N   0  0  0  0  0  0  0  0  0  0  0  0
   12.3732  -16.8453   22.7019 C   0  0  1  0  0  0  0  0  0  0  0  0
   12.9178  -18.2471   22.5737 C   0  0  0  0  0  0  0  0  0  0  0  0
   13.1793  -18.9092   23.8660 C   0  0  0  0  0  0  0  0  0  0  0  0
   13.0886  -18.3013   24.9405 O   0  0  0  0  0  0  0  0  0  0  0  0
   12.8627  -15.9914   21.6051 C   0  0  0  0  0  0  0  0  0  0  0  0
   12.2045  -15.9125   20.4072 O   0  0  0  0  0  0  0  0  0  0  0  0
   13.5379  -20.2517   23.8884 O   0  0  0  0  0  0  0  0  0  0  0  0
   13.9028  -15.3216   21.7665 O   0  0  0  0  0  0  0  0  0  0  0  0
  2  1  1  6
  3  2  1  0
  4  3  1  0
  5  4  2  0
  6  5  1  0
  7  6  2  0
  7  8  1  0
  8  9  2  0
  9  4  1  0
 10 11  2  0
 10  2  1  0
 12 13  1  0
 13 14  1  0
 14 16  1  0
 14 15  1  1
 16 18  1  0
 16 17  1  1
 17 10  1  0
 18 20  1  0
 19 18  2  0
 20 21  1  0
 21 22  1  6
 21 25  1  0
 22 23  1  0
 23 27  1  0
 23 24  2  0
 25 28  2  0
 25 26  1  0
M  END
$$$$
