FID.pdb
     RDKit          3D

 28 28  0  0  1  0  0  0  0  0999 V2000
    6.4249  -14.7092   21.6732 N   0  0  0  0  0  0  0  0  0  0  0  0
    7.5931  -15.5456   21.8184 C   0  0  1  0  0  0  0  0  0  0  0  0
    8.6084  -15.1990   20.7345 C   0  0  0  0  0  0  0  0  0  0  0  0
    8.0198  -14.3890   19.6521 C   0  0  0  0  0  0  0  0  0  0  0  0
    8.2001  -13.0245   19.7069 C   0  0  0  0  0  0  0  0  0  0  0  0
    7.6670  -12.2192   18.7145 C   0  0  0  0  0  0  0  0  0  0  0  0
    6.9594  -12.8049   17.6811 C   0  0  0  0  0  0  0  0  0  0  0  0
    6.7826  -14.1674   17.6315 C   0  0  0  0  0  0  0  0  0  0  0  0
    7.3095  -14.9617   18.6123 C   0  0  0  0  0  0  0  0  0  0  0  0
    8.2444  -15.2270   23.1133 C   0  0  0  0  0  0  0  0  0  0  0  0
    9.4856  -15.0245   23.1056 O   0  0  0  0  0  0  0  0  0  0  0  0
    6.2261  -11.7795   26.2354 C   0  0  0  0  0  0  0  0  0  0  0  0
    7.1659  -12.7328   25.5800 C   0  0  0  0  0  0  0  0  0  0  0  0
    7.4692  -13.9527   26.4410 C   0  0  2  0  0  0  0  0  0  0  0  0
    8.2307  -13.4949   27.6367 C   0  0  0  0  0  0  0  0  0  0  0  0
    8.2883  -14.9068   25.5895 C   0  0  2  0  0  0  0  0  0  0  0  0
    7.5422  -15.1433   24.3299 N   0  0  0  0  0  0  0  0  0  0  0  0
    8.5743  -16.1982   26.2297 C   0  0  0  0  0  0  0  0  0  0  0  0
    7.6188  -16.9556   26.5346 O   0  0  0  0  0  0  0  0  0  0  0  0
    9.8867  -16.6098   26.5064 N   0  0  0  0  0  0  0  0  0  0  0  0
   10.1093  -17.9301   27.1035 C   0  0  1  0  0  0  0  0  0  0  0  0
   11.0856  -18.6854   26.2348 C   0  0  0  0  0  0  0  0  0  0  0  0
   11.5392  -19.9640   26.8148 C   0  0  0  0  0  0  0  0  0  0  0  0
   10.7387  -20.8296   27.1918 O   0  0  0  0  0  0  0  0  0  0  0  0
   10.6360  -17.7768   28.4713 C   0  0  0  0  0  0  0  0  0  0  0  0
   11.0500  -16.5628   28.9501 O   0  0  0  0  0  0  0  0  0  0  0  0
   12.9002  -20.2129   26.9457 O   0  0  0  0  0  0  0  0  0  0  0  0
   10.7090  -18.7751   29.2159 O   0  0  0  0  0  0  0  0  0  0  0  0
  2  1  1  6
  3  2  1  0
  4  3  1  0
  5  4  2  0
  6  5  1  0
  7  6  2  0
  7  8  1  0
  8  9  2  0
  9  4  1  0
 10 11  2  0
 10  2  1  0
 12 13  1  0
 13 14  1  0
 14 16  1  0
 14 15  1  1
 16 18  1  0
 16 17  1  6
 17 10  1  0
 18 20  1  0
 19 18  2  0
 20 21  1  0
 21 22  1  6
 21 25  1  0
 22 23  1  0
 23 27  1  0
 23 24  2  0
 25 28  2  0
 25 26  1  0
M  END
$$$$
