FID.pdb
     RDKit          3D

 28 28  0  0  1  0  0  0  0  0999 V2000
    4.7838  -18.9559   23.5188 N   0  0  0  0  0  0  0  0  0  0  0  0
    5.5301  -18.6756   24.7229 C   0  0  1  0  0  0  0  0  0  0  0  0
    6.3603  -19.8961   25.1060 C   0  0  0  0  0  0  0  0  0  0  0  0
    7.1456  -19.6779   26.3348 C   0  0  0  0  0  0  0  0  0  0  0  0
    6.4758  -19.7322   27.5373 C   0  0  0  0  0  0  0  0  0  0  0  0
    7.1679  -19.5340   28.7202 C   0  0  0  0  0  0  0  0  0  0  0  0
    8.5267  -19.2837   28.6705 C   0  0  0  0  0  0  0  0  0  0  0  0
    9.1899  -19.2306   27.4675 C   0  0  0  0  0  0  0  0  0  0  0  0
    8.5055  -19.4265   26.2997 C   0  0  0  0  0  0  0  0  0  0  0  0
    6.4993  -17.5889   24.4359 C   0  0  0  0  0  0  0  0  0  0  0  0
    7.1409  -17.6521   23.3562 O   0  0  0  0  0  0  0  0  0  0  0  0
    5.8466  -12.6725   26.7300 C   0  0  0  0  0  0  0  0  0  0  0  0
    6.1893  -13.7007   25.7068 C   0  0  0  0  0  0  0  0  0  0  0  0
    7.5653  -14.3180   25.9244 C   0  0  2  0  0  0  0  0  0  0  0  0
    8.5873  -13.2599   25.6892 C   0  0  0  0  0  0  0  0  0  0  0  0
    7.7043  -15.4585   24.9313 C   0  0  2  0  0  0  0  0  0  0  0  0
    6.7263  -16.5078   25.3078 N   0  0  0  0  0  0  0  0  0  0  0  0
    9.0477  -16.0509   24.8721 C   0  0  0  0  0  0  0  0  0  0  0  0
    9.5384  -16.5613   25.9107 O   0  0  0  0  0  0  0  0  0  0  0  0
    9.7961  -16.0652   23.6855 N   0  0  0  0  0  0  0  0  0  0  0  0
   11.0418  -16.8365   23.6370 C   0  0  1  0  0  0  0  0  0  0  0  0
   11.4317  -17.0181   22.1902 C   0  0  0  0  0  0  0  0  0  0  0  0
   12.7423  -17.6682   21.9996 C   0  0  0  0  0  0  0  0  0  0  0  0
   13.4560  -17.9909   22.9582 O   0  0  0  0  0  0  0  0  0  0  0  0
   12.0984  -16.1252   24.3783 C   0  0  0  0  0  0  0  0  0  0  0  0
   13.2789  -16.7345   24.7091 O   0  0  0  0  0  0  0  0  0  0  0  0
   13.1973  -17.9299   20.7127 O   0  0  0  0  0  0  0  0  0  0  0  0
   11.9177  -14.9378   24.7159 O   0  0  0  0  0  0  0  0  0  0  0  0
  2  1  1  6
  3  2  1  0
  4  3  1  0
  5  4  2  0
  6  5  1  0
  7  6  2  0
  7  8  1  0
  8  9  2  0
  9  4  1  0
 10 11  2  0
 10  2  1  0
 12 13  1  0
 13 14  1  0
 14 16  1  0
 14 15  1  6
 16 18  1  0
 16 17  1  1
 17 10  1  0
 18 20  1  0
 19 18  2  0
 20 21  1  0
 21 22  1  6
 21 25  1  0
 22 23  1  0
 23 27  1  0
 23 24  2  0
 25 28  2  0
 25 26  1  0
M  END
$$$$
