FID.pdb
     RDKit          3D

 28 28  0  0  1  0  0  0  0  0999 V2000
    5.5823  -18.0582   25.1278 N   0  0  0  0  0  0  0  0  0  0  0  0
    5.9794  -16.6709   25.0710 C   0  0  1  0  0  0  0  0  0  0  0  0
    6.4519  -16.2173   26.4481 C   0  0  0  0  0  0  0  0  0  0  0  0
    6.5881  -14.7520   26.5406 C   0  0  0  0  0  0  0  0  0  0  0  0
    7.8427  -14.2432   26.7944 C   0  0  0  0  0  0  0  0  0  0  0  0
    8.0237  -12.8737   26.8907 C   0  0  0  0  0  0  0  0  0  0  0  0
    6.9339  -12.0384   26.7291 C   0  0  0  0  0  0  0  0  0  0  0  0
    5.6839  -12.5518   26.4759 C   0  0  0  0  0  0  0  0  0  0  0  0
    5.5063  -13.9045   26.3810 C   0  0  0  0  0  0  0  0  0  0  0  0
    7.1529  -16.5518   24.1703 C   0  0  0  0  0  0  0  0  0  0  0  0
    7.9539  -17.5204   24.1277 O   0  0  0  0  0  0  0  0  0  0  0  0
    6.7564  -12.8990   20.1439 C   0  0  0  0  0  0  0  0  0  0  0  0
    7.0272  -14.1653   20.8820 C   0  0  0  0  0  0  0  0  0  0  0  0
    8.4009  -14.1854   21.5408 C   0  0  2  0  0  0  0  0  0  0  0  0
    9.4291  -14.1596   20.4631 C   0  0  0  0  0  0  0  0  0  0  0  0
    8.4836  -15.4613   22.3603 C   0  0  2  0  0  0  0  0  0  0  0  0
    7.4026  -15.4183   23.3746 N   0  0  0  0  0  0  0  0  0  0  0  0
    9.7718  -15.6647   23.0376 C   0  0  0  0  0  0  0  0  0  0  0  0
   10.1290  -14.8552   23.9303 O   0  0  0  0  0  0  0  0  0  0  0  0
   10.6121  -16.7413   22.7167 N   0  0  0  0  0  0  0  0  0  0  0  0
   11.8882  -16.8857   23.4236 C   0  0  1  0  0  0  0  0  0  0  0  0
   12.2223  -18.3554   23.5048 C   0  0  0  0  0  0  0  0  0  0  0  0
   13.5532  -18.6368   24.0762 C   0  0  0  0  0  0  0  0  0  0  0  0
   14.5127  -18.9624   23.3652 O   0  0  0  0  0  0  0  0  0  0  0  0
   12.9428  -16.1482   22.7053 C   0  0  0  0  0  0  0  0  0  0  0  0
   14.0013  -15.5833   23.3649 O   0  0  0  0  0  0  0  0  0  0  0  0
   13.7451  -18.5364   25.4490 O   0  0  0  0  0  0  0  0  0  0  0  0
   12.8741  -16.0322   21.4651 O   0  0  0  0  0  0  0  0  0  0  0  0
  2  1  1  1
  3  2  1  0
  4  3  1  0
  5  4  2  0
  6  5  1  0
  7  6  2  0
  7  8  1  0
  8  9  2  0
  9  4  1  0
 10 11  2  0
 10  2  1  0
 12 13  1  0
 13 14  1  0
 14 16  1  0
 14 15  1  6
 16 18  1  0
 16 17  1  1
 17 10  1  0
 18 20  1  0
 19 18  2  0
 20 21  1  0
 21 22  1  6
 21 25  1  0
 22 23  1  0
 23 27  1  0
 23 24  2  0
 25 28  2  0
 25 26  1  0
M  END
$$$$
