FID.pdb
     RDKit          3D

 28 28  0  0  1  0  0  0  0  0999 V2000
    8.0976  -12.8074   21.5368 N   0  0  0  0  0  0  0  0  0  0  0  0
    7.6380  -14.1667   21.6990 C   0  0  1  0  0  0  0  0  0  0  0  0
    8.1237  -15.0142   20.5279 C   0  0  0  0  0  0  0  0  0  0  0  0
    7.6376  -14.5101   19.2303 C   0  0  0  0  0  0  0  0  0  0  0  0
    6.3315  -14.0777   19.1633 C   0  0  0  0  0  0  0  0  0  0  0  0
    5.8266  -13.5952   17.9676 C   0  0  0  0  0  0  0  0  0  0  0  0
    6.6492  -13.5569   16.8569 C   0  0  0  0  0  0  0  0  0  0  0  0
    7.9519  -13.9899   16.9297 C   0  0  0  0  0  0  0  0  0  0  0  0
    8.4496  -14.4662   18.1111 C   0  0  0  0  0  0  0  0  0  0  0  0
    8.2707  -14.7376   22.9141 C   0  0  0  0  0  0  0  0  0  0  0  0
    9.4680  -15.1121   22.8249 O   0  0  0  0  0  0  0  0  0  0  0  0
    6.2462  -11.7331   26.5095 C   0  0  0  0  0  0  0  0  0  0  0  0
    7.1924  -12.5723   25.7207 C   0  0  0  0  0  0  0  0  0  0  0  0
    7.4682  -13.9235   26.3686 C   0  0  2  0  0  0  0  0  0  0  0  0
    8.1556  -13.6798   27.6676 C   0  0  0  0  0  0  0  0  0  0  0  0
    8.3482  -14.7063   25.4099 C   0  0  2  0  0  0  0  0  0  0  0  0
    7.5975  -14.8752   24.1421 N   0  0  0  0  0  0  0  0  0  0  0  0
    8.7601  -16.0269   25.9054 C   0  0  0  0  0  0  0  0  0  0  0  0
    7.8783  -16.8624   26.2281 O   0  0  0  0  0  0  0  0  0  0  0  0
   10.1123  -16.3814   26.0244 N   0  0  0  0  0  0  0  0  0  0  0  0
   10.4604  -17.6835   26.6009 C   0  0  1  0  0  0  0  0  0  0  0  0
   11.8838  -18.0074   26.2169 C   0  0  0  0  0  0  0  0  0  0  0  0
   12.1757  -17.8179   24.7832 C   0  0  0  0  0  0  0  0  0  0  0  0
   11.3943  -18.1995   23.9023 O   0  0  0  0  0  0  0  0  0  0  0  0
   10.3115  -17.6364   28.0663 C   0  0  0  0  0  0  0  0  0  0  0  0
   10.4478  -16.4671   28.7652 O   0  0  0  0  0  0  0  0  0  0  0  0
   13.3578  -17.1949   24.4007 O   0  0  0  0  0  0  0  0  0  0  0  0
   10.0553  -18.6856   28.6909 O   0  0  0  0  0  0  0  0  0  0  0  0
  2  1  1  6
  3  2  1  0
  4  3  1  0
  5  4  2  0
  6  5  1  0
  7  6  2  0
  7  8  1  0
  8  9  2  0
  9  4  1  0
 10 11  2  0
 10  2  1  0
 12 13  1  0
 13 14  1  0
 14 16  1  0
 14 15  1  1
 16 18  1  0
 16 17  1  6
 17 10  1  0
 18 20  1  0
 19 18  2  0
 20 21  1  0
 21 22  1  1
 21 25  1  0
 22 23  1  0
 23 27  1  0
 23 24  2  0
 25 28  2  0
 25 26  1  0
M  END
$$$$
