SYT.pdb
     RDKit          3D

 26 26  0  0  1  0  0  0  0  0999 V2000
    8.4478  -18.9608   18.3181 O   0  0  0  0  0  0  0  0  0  0  0  0
    8.5786  -18.2836   19.5062 C   0  0  0  0  0  0  0  0  0  0  0  0
    9.0097  -16.8461   19.3257 C   0  0  2  0  0  0  0  0  0  0  0  0
   10.1862  -16.7403   18.4995 N   0  0  0  0  0  0  0  0  0  0  0  0
    9.2214  -16.1474   20.5936 C   0  0  0  0  0  0  0  0  0  0  0  0
   10.3870  -16.0475   21.0558 O   0  0  0  0  0  0  0  0  0  0  0  0
    7.2011  -12.1167   28.2647 O   0  0  0  0  0  0  0  0  0  0  0  0
    7.1926  -12.6103   26.9453 C   0  0  0  0  0  0  0  0  0  0  0  0
    6.4764  -13.7456   26.6196 C   0  0  0  0  0  0  0  0  0  0  0  0
    6.4684  -14.2262   25.3333 C   0  0  0  0  0  0  0  0  0  0  0  0
    7.1710  -13.5986   24.3201 C   0  0  0  0  0  0  0  0  0  0  0  0
    7.1313  -14.1690   22.9521 C   0  0  0  0  0  0  0  0  0  0  0  0
    8.3906  -14.9636   22.6800 C   0  0  2  0  0  0  0  0  0  0  0  0
    8.1915  -15.5596   21.3615 N   0  0  0  0  0  0  0  0  0  0  0  0
    8.6228  -16.0427   23.6525 C   0  0  0  0  0  0  0  0  0  0  0  0
    7.8481  -17.0498   23.7091 O   0  0  0  0  0  0  0  0  0  0  0  0
    7.8873  -12.4659   24.6398 C   0  0  0  0  0  0  0  0  0  0  0  0
    7.8975  -11.9734   25.9494 C   0  0  0  0  0  0  0  0  0  0  0  0
   11.7859  -18.7029   26.1726 C   0  0  0  0  0  0  0  0  0  0  0  0
   11.3241  -17.6946   25.1419 C   0  0  1  0  0  0  0  0  0  0  0  0
   11.3311  -18.1917   23.8601 O   0  0  0  0  0  0  0  0  0  0  0  0
    9.9503  -17.1313   25.5245 C   0  0  2  0  0  0  0  0  0  0  0  0
    9.6946  -16.0586   24.5839 N   0  0  0  0  0  0  0  0  0  0  0  0
    9.9424  -16.6322   26.9146 C   0  0  0  0  0  0  0  0  0  0  0  0
    9.8390  -17.5538   27.9473 O   0  0  0  0  0  0  0  0  0  0  0  0
   10.0236  -15.4182   27.2332 O   0  0  0  0  0  0  0  0  0  0  0  0
  2  1  1  0
  3  2  1  0
  3  4  1  6
  5  6  2  0
  5  3  1  0
  7  8  1  0
  8 18  2  0
  9  8  1  0
  9 10  2  0
 10 11  1  0
 11 17  2  0
 11 12  1  0
 13 12  1  1
 13 14  1  0
 14  5  1  0
 15 16  2  0
 15 13  1  0
 18 17  1  0
 20 19  1  1
 20 21  1  0
 22 23  1  6
 22 20  1  0
 23 15  1  0
 24 22  1  0
 25 24  1  0
 26 24  2  0
M  END
$$$$
