SYT.pdb
     RDKit          3D

 26 26  0  0  1  0  0  0  0  0999 V2000
    9.3571  -19.2867   20.0148 O   0  0  0  0  0  0  0  0  0  0  0  0
    8.5618  -18.4801   19.2375 C   0  0  0  0  0  0  0  0  0  0  0  0
    9.0753  -17.0622   19.1344 C   0  0  2  0  0  0  0  0  0  0  0  0
   10.2948  -16.9893   18.3692 N   0  0  0  0  0  0  0  0  0  0  0  0
    9.2605  -16.4233   20.4374 C   0  0  0  0  0  0  0  0  0  0  0  0
   10.4186  -16.3301   20.9198 O   0  0  0  0  0  0  0  0  0  0  0  0
    7.2534  -12.1648   27.9825 O   0  0  0  0  0  0  0  0  0  0  0  0
    7.2108  -12.7602   26.7066 C   0  0  0  0  0  0  0  0  0  0  0  0
    7.8064  -12.1489   25.6205 C   0  0  0  0  0  0  0  0  0  0  0  0
    7.7646  -12.7298   24.3770 C   0  0  0  0  0  0  0  0  0  0  0  0
    7.1299  -13.9404   24.1630 C   0  0  0  0  0  0  0  0  0  0  0  0
    7.1103  -14.5147   22.7962 C   0  0  0  0  0  0  0  0  0  0  0  0
    8.4027  -15.2528   22.5205 C   0  0  2  0  0  0  0  0  0  0  0  0
    8.2125  -15.8876   21.2188 N   0  0  0  0  0  0  0  0  0  0  0  0
    8.7030  -16.2969   23.5123 C   0  0  0  0  0  0  0  0  0  0  0  0
    8.0193  -17.3682   23.5614 O   0  0  0  0  0  0  0  0  0  0  0  0
    6.5339  -14.5543   25.2429 C   0  0  0  0  0  0  0  0  0  0  0  0
    6.5747  -13.9651   26.5113 C   0  0  0  0  0  0  0  0  0  0  0  0
   12.0022  -18.6950   26.0898 C   0  0  0  0  0  0  0  0  0  0  0  0
   11.4784  -17.7268   25.0503 C   0  0  1  0  0  0  0  0  0  0  0  0
   11.5150  -18.2347   23.7732 O   0  0  0  0  0  0  0  0  0  0  0  0
   10.0729  -17.2456   25.4294 C   0  0  2  0  0  0  0  0  0  0  0  0
    9.7461  -16.2078   24.4717 N   0  0  0  0  0  0  0  0  0  0  0  0
   10.0380  -16.7239   26.8108 C   0  0  0  0  0  0  0  0  0  0  0  0
    9.8054  -17.6157   27.8485 O   0  0  0  0  0  0  0  0  0  0  0  0
   10.2059  -15.5157   27.1175 O   0  0  0  0  0  0  0  0  0  0  0  0
  2  1  1  0
  3  2  1  0
  3  4  1  1
  5  6  2  0
  5  3  1  0
  7  8  1  0
  8 18  2  0
  9  8  1  0
  9 10  2  0
 10 11  1  0
 11 17  2  0
 11 12  1  0
 13 12  1  1
 13 14  1  0
 14  5  1  0
 15 16  2  0
 15 13  1  0
 18 17  1  0
 20 19  1  1
 20 21  1  0
 22 23  1  6
 22 20  1  0
 23 15  1  0
 24 22  1  0
 25 24  1  0
 26 24  2  0
M  END
$$$$
