SYT.pdb
     RDKit          3D

 26 26  0  0  1  0  0  0  0  0999 V2000
    8.3440  -20.7076   20.5432 O   0  0  0  0  0  0  0  0  0  0  0  0
    7.3833  -19.8534   20.0586 C   0  0  0  0  0  0  0  0  0  0  0  0
    7.9548  -18.5623   19.5189 C   0  0  2  0  0  0  0  0  0  0  0  0
    8.7542  -18.7828   18.3399 N   0  0  0  0  0  0  0  0  0  0  0  0
    8.7230  -17.8148   20.5146 C   0  0  0  0  0  0  0  0  0  0  0  0
    9.9792  -17.8799   20.5007 O   0  0  0  0  0  0  0  0  0  0  0  0
    7.8280  -11.6694   18.1585 O   0  0  0  0  0  0  0  0  0  0  0  0
    7.9118  -12.4891   19.3011 C   0  0  0  0  0  0  0  0  0  0  0  0
    6.8429  -13.2733   19.6889 C   0  0  0  0  0  0  0  0  0  0  0  0
    6.9252  -14.0722   20.8027 C   0  0  0  0  0  0  0  0  0  0  0  0
    8.0718  -14.1238   21.5752 C   0  0  0  0  0  0  0  0  0  0  0  0
    8.0987  -14.9990   22.7716 C   0  0  0  0  0  0  0  0  0  0  0  0
    8.9223  -16.2384   22.4946 C   0  0  2  0  0  0  0  0  0  0  0  0
    8.1499  -17.0029   21.5187 N   0  0  0  0  0  0  0  0  0  0  0  0
    9.1359  -17.0767   23.6845 C   0  0  0  0  0  0  0  0  0  0  0  0
    8.1530  -17.5858   24.3107 O   0  0  0  0  0  0  0  0  0  0  0  0
    9.1409  -13.3433   21.1929 C   0  0  0  0  0  0  0  0  0  0  0  0
    9.0604  -12.5282   20.0584 C   0  0  0  0  0  0  0  0  0  0  0  0
   12.0021  -20.3771   25.7827 C   0  0  0  0  0  0  0  0  0  0  0  0
   11.6106  -19.3747   24.7176 C   0  0  1  0  0  0  0  0  0  0  0  0
   11.1031  -19.9633   23.5836 O   0  0  0  0  0  0  0  0  0  0  0  0
   10.6470  -18.3313   25.2952 C   0  0  2  0  0  0  0  0  0  0  0  0
   10.4133  -17.3834   24.2238 N   0  0  0  0  0  0  0  0  0  0  0  0
   11.2250  -17.6633   26.4790 C   0  0  0  0  0  0  0  0  0  0  0  0
   11.0371  -18.2463   27.7245 O   0  0  0  0  0  0  0  0  0  0  0  0
   11.8826  -16.5919   26.4388 O   0  0  0  0  0  0  0  0  0  0  0  0
  2  1  1  0
  3  2  1  0
  3  4  1  6
  5  6  2  0
  5  3  1  0
  7  8  1  0
  8 18  2  0
  9  8  1  0
  9 10  2  0
 10 11  1  0
 11 17  2  0
 11 12  1  0
 13 12  1  1
 13 14  1  0
 14  5  1  0
 15 16  2  0
 15 13  1  0
 18 17  1  0
 20 19  1  1
 20 21  1  0
 22 23  1  6
 22 20  1  0
 23 15  1  0
 24 22  1  0
 25 24  1  0
 26 24  2  0
M  END
$$$$
