SYT.pdb
     RDKit          3D

 26 26  0  0  1  0  0  0  0  0999 V2000
    8.0965  -18.6626   20.5093 O   0  0  0  0  0  0  0  0  0  0  0  0
    9.0478  -18.2937   19.5894 C   0  0  0  0  0  0  0  0  0  0  0  0
    9.1929  -16.7952   19.4540 C   0  0  2  0  0  0  0  0  0  0  0  0
   10.2902  -16.4401   18.5893 N   0  0  0  0  0  0  0  0  0  0  0  0
    9.3265  -16.1134   20.7416 C   0  0  0  0  0  0  0  0  0  0  0  0
   10.4637  -16.0092   21.2694 O   0  0  0  0  0  0  0  0  0  0  0  0
    7.0738  -11.8659   28.2105 O   0  0  0  0  0  0  0  0  0  0  0  0
    7.0779  -12.4373   26.9230 C   0  0  0  0  0  0  0  0  0  0  0  0
    7.9034  -11.9425   25.9322 C   0  0  0  0  0  0  0  0  0  0  0  0
    7.9071  -12.5000   24.6774 C   0  0  0  0  0  0  0  0  0  0  0  0
    7.0915  -13.5707   24.3569 C   0  0  0  0  0  0  0  0  0  0  0  0
    7.1331  -14.1253   22.9826 C   0  0  0  0  0  0  0  0  0  0  0  0
    8.3649  -14.9866   22.8032 C   0  0  2  0  0  0  0  0  0  0  0  0
    8.2496  -15.5470   21.4593 N   0  0  0  0  0  0  0  0  0  0  0  0
    8.4496  -16.0941   23.7677 C   0  0  0  0  0  0  0  0  0  0  0  0
    7.5499  -16.9919   23.8132 O   0  0  0  0  0  0  0  0  0  0  0  0
    6.2660  -14.0680   25.3416 C   0  0  0  0  0  0  0  0  0  0  0  0
    6.2598  -13.5023   26.6213 C   0  0  0  0  0  0  0  0  0  0  0  0
   10.5840  -18.7868   23.7571 C   0  0  0  0  0  0  0  0  0  0  0  0
   10.8663  -18.1617   25.1069 C   0  0  1  0  0  0  0  0  0  0  0  0
   11.9989  -17.3824   25.1141 O   0  0  0  0  0  0  0  0  0  0  0  0
    9.6405  -17.3855   25.6024 C   0  0  2  0  0  0  0  0  0  0  0  0
    9.5056  -16.2568   24.7031 N   0  0  0  0  0  0  0  0  0  0  0  0
    9.8179  -16.9348   26.9978 C   0  0  0  0  0  0  0  0  0  0  0  0
    9.7465  -17.8797   28.0119 O   0  0  0  0  0  0  0  0  0  0  0  0
   10.0315  -15.7425   27.3367 O   0  0  0  0  0  0  0  0  0  0  0  0
  2  1  1  0
  3  2  1  0
  3  4  1  6
  5  6  2  0
  5  3  1  0
  7  8  1  0
  8 18  2  0
  9  8  1  0
  9 10  2  0
 10 11  1  0
 11 17  2  0
 11 12  1  0
 13 12  1  1
 13 14  1  0
 14  5  1  0
 15 16  2  0
 15 13  1  0
 18 17  1  0
 20 19  1  6
 20 21  1  0
 22 23  1  6
 22 20  1  0
 23 15  1  0
 24 22  1  0
 25 24  1  0
 26 24  2  0
M  END
$$$$
