SYT.pdb
     RDKit          3D

 26 26  0  0  1  0  0  0  0  0999 V2000
    8.2149  -18.6718   20.2823 O   0  0  0  0  0  0  0  0  0  0  0  0
    9.2299  -18.2895   19.4390 C   0  0  0  0  0  0  0  0  0  0  0  0
    9.4247  -16.7914   19.3858 C   0  0  2  0  0  0  0  0  0  0  0  0
   10.5708  -16.4291   18.5902 N   0  0  0  0  0  0  0  0  0  0  0  0
    9.5183  -16.1780   20.7107 C   0  0  0  0  0  0  0  0  0  0  0  0
   10.6440  -16.0666   21.2609 O   0  0  0  0  0  0  0  0  0  0  0  0
    7.2301  -11.7566   28.0505 O   0  0  0  0  0  0  0  0  0  0  0  0
    7.2360  -12.3753   26.7850 C   0  0  0  0  0  0  0  0  0  0  0  0
    8.0781  -11.9308   25.7844 C   0  0  0  0  0  0  0  0  0  0  0  0
    8.0835  -12.5344   24.5511 C   0  0  0  0  0  0  0  0  0  0  0  0
    7.2531  -13.6028   24.2627 C   0  0  0  0  0  0  0  0  0  0  0  0
    7.2976  -14.2084   22.9101 C   0  0  0  0  0  0  0  0  0  0  0  0
    8.5080  -15.1078   22.7793 C   0  0  2  0  0  0  0  0  0  0  0  0
    8.4135  -15.6871   21.4418 N   0  0  0  0  0  0  0  0  0  0  0  0
    8.5333  -16.2011   23.7633 C   0  0  0  0  0  0  0  0  0  0  0  0
    7.5721  -17.0299   23.8448 O   0  0  0  0  0  0  0  0  0  0  0  0
    6.4110  -14.0499   25.2573 C   0  0  0  0  0  0  0  0  0  0  0  0
    6.4030  -13.4372   26.5152 C   0  0  0  0  0  0  0  0  0  0  0  0
   10.5470  -19.0435   23.8335 C   0  0  0  0  0  0  0  0  0  0  0  0
   10.8458  -18.3843   25.1633 C   0  0  1  0  0  0  0  0  0  0  0  0
   12.0166  -17.6635   25.1570 O   0  0  0  0  0  0  0  0  0  0  0  0
    9.6557  -17.5295   25.6146 C   0  0  2  0  0  0  0  0  0  0  0  0
    9.5950  -16.4235   24.6797 N   0  0  0  0  0  0  0  0  0  0  0  0
    9.8357  -17.0459   26.9986 C   0  0  0  0  0  0  0  0  0  0  0  0
    9.7902  -17.9703   28.0330 O   0  0  0  0  0  0  0  0  0  0  0  0
   10.0293  -15.8429   27.3105 O   0  0  0  0  0  0  0  0  0  0  0  0
  2  1  1  0
  3  2  1  0
  3  4  1  6
  5  6  2  0
  5  3  1  0
  7  8  1  0
  8 18  2  0
  9  8  1  0
  9 10  2  0
 10 11  1  0
 11 17  2  0
 11 12  1  0
 13 12  1  1
 13 14  1  0
 14  5  1  0
 15 16  2  0
 15 13  1  0
 18 17  1  0
 20 19  1  6
 20 21  1  0
 22 23  1  6
 22 20  1  0
 23 15  1  0
 24 22  1  0
 25 24  1  0
 26 24  2  0
M  END
$$$$
