SYT.pdb
     RDKit          3D

 26 26  0  0  1  0  0  0  0  0999 V2000
    7.0881  -17.4968   19.3255 O   0  0  0  0  0  0  0  0  0  0  0  0
    7.6476  -17.1503   20.5315 C   0  0  0  0  0  0  0  0  0  0  0  0
    7.9728  -15.6776   20.6337 C   0  0  2  0  0  0  0  0  0  0  0  0
    8.5921  -15.1819   19.4301 N   0  0  0  0  0  0  0  0  0  0  0  0
    8.8004  -15.3525   21.7955 C   0  0  0  0  0  0  0  0  0  0  0  0
   10.0450  -15.2367   21.6534 O   0  0  0  0  0  0  0  0  0  0  0  0
   10.9048  -14.9568   30.4349 O   0  0  0  0  0  0  0  0  0  0  0  0
   10.2331  -14.9198   29.1973 C   0  0  0  0  0  0  0  0  0  0  0  0
   10.2277  -13.7716   28.4295 C   0  0  0  0  0  0  0  0  0  0  0  0
    9.5728  -13.7362   27.2231 C   0  0  0  0  0  0  0  0  0  0  0  0
    8.8977  -14.8393   26.7316 C   0  0  0  0  0  0  0  0  0  0  0  0
    8.2019  -14.7385   25.4262 C   0  0  0  0  0  0  0  0  0  0  0  0
    9.1201  -15.1840   24.3084 C   0  0  2  0  0  0  0  0  0  0  0  0
    8.2987  -15.1528   23.1009 N   0  0  0  0  0  0  0  0  0  0  0  0
    9.6397  -16.5486   24.4871 C   0  0  0  0  0  0  0  0  0  0  0  0
    8.8901  -17.5615   24.3150 O   0  0  0  0  0  0  0  0  0  0  0  0
    8.8998  -15.9872   27.4936 C   0  0  0  0  0  0  0  0  0  0  0  0
    9.5662  -16.0267   28.7233 C   0  0  0  0  0  0  0  0  0  0  0  0
   13.2180  -17.4214   23.2169 C   0  0  0  0  0  0  0  0  0  0  0  0
   12.1318  -18.4338   23.5128 C   0  0  1  0  0  0  0  0  0  0  0  0
   12.5515  -19.7345   23.3632 O   0  0  0  0  0  0  0  0  0  0  0  0
   11.5360  -18.1863   24.9037 C   0  0  2  0  0  0  0  0  0  0  0  0
   10.9778  -16.8496   24.8550 N   0  0  0  0  0  0  0  0  0  0  0  0
   12.5664  -18.2938   25.9565 C   0  0  0  0  0  0  0  0  0  0  0  0
   13.0105  -17.1298   26.5682 O   0  0  0  0  0  0  0  0  0  0  0  0
   13.0761  -19.3769   26.3427 O   0  0  0  0  0  0  0  0  0  0  0  0
  2  1  1  0
  3  2  1  0
  3  4  1  6
  5  6  2  0
  5  3  1  0
  7  8  1  0
  8 18  2  0
  9  8  1  0
  9 10  2  0
 10 11  1  0
 11 17  2  0
 11 12  1  0
 13 12  1  1
 13 14  1  0
 14  5  1  0
 15 16  2  0
 15 13  1  0
 18 17  1  0
 20 19  1  1
 20 21  1  0
 22 23  1  6
 22 20  1  0
 23 15  1  0
 24 22  1  0
 25 24  1  0
 26 24  2  0
M  END
$$$$
