SYT.pdb
     RDKit          3D

 26 26  0  0  1  0  0  0  0  0999 V2000
    9.4187  -19.3002   18.6887 O   0  0  0  0  0  0  0  0  0  0  0  0
    9.2005  -18.5562   19.8229 C   0  0  0  0  0  0  0  0  0  0  0  0
    9.4526  -17.0794   19.6217 C   0  0  2  0  0  0  0  0  0  0  0  0
   10.6121  -16.8420   18.7989 N   0  0  0  0  0  0  0  0  0  0  0  0
    9.5688  -16.3411   20.8794 C   0  0  0  0  0  0  0  0  0  0  0  0
   10.6954  -16.2306   21.4280 O   0  0  0  0  0  0  0  0  0  0  0  0
    7.0675  -11.9376   28.1969 O   0  0  0  0  0  0  0  0  0  0  0  0
    7.1319  -12.5174   26.9148 C   0  0  0  0  0  0  0  0  0  0  0  0
    6.3755  -13.6302   26.6029 C   0  0  0  0  0  0  0  0  0  0  0  0
    6.4386  -14.1949   25.3529 C   0  0  0  0  0  0  0  0  0  0  0  0
    7.2552  -13.6769   24.3634 C   0  0  0  0  0  0  0  0  0  0  0  0
    7.2877  -14.3347   23.0350 C   0  0  0  0  0  0  0  0  0  0  0  0
    8.5813  -15.1015   22.8627 C   0  0  2  0  0  0  0  0  0  0  0  0
    8.4858  -15.7251   21.5452 N   0  0  0  0  0  0  0  0  0  0  0  0
    8.7738  -16.1574   23.8687 C   0  0  0  0  0  0  0  0  0  0  0  0
    7.9827  -17.1512   23.9330 O   0  0  0  0  0  0  0  0  0  0  0  0
    8.0120  -12.5670   24.6693 C   0  0  0  0  0  0  0  0  0  0  0  0
    7.9500  -11.9891   25.9420 C   0  0  0  0  0  0  0  0  0  0  0  0
   11.9574  -18.7576   26.4451 C   0  0  0  0  0  0  0  0  0  0  0  0
   11.5166  -17.7101   25.4447 C   0  0  1  0  0  0  0  0  0  0  0  0
   11.6522  -18.1200   24.1394 O   0  0  0  0  0  0  0  0  0  0  0  0
   10.0861  -17.2499   25.7491 C   0  0  2  0  0  0  0  0  0  0  0  0
    9.8226  -16.1639   24.8260 N   0  0  0  0  0  0  0  0  0  0  0  0
    9.9529  -16.8006   27.1499 C   0  0  0  0  0  0  0  0  0  0  0  0
    9.4775  -17.7031   28.0911 O   0  0  0  0  0  0  0  0  0  0  0  0
   10.2426  -15.6458   27.5553 O   0  0  0  0  0  0  0  0  0  0  0  0
  2  1  1  0
  3  2  1  0
  3  4  1  1
  5  6  2  0
  5  3  1  0
  7  8  1  0
  8 18  2  0
  9  8  1  0
  9 10  2  0
 10 11  1  0
 11 17  2  0
 11 12  1  0
 13 12  1  1
 13 14  1  0
 14  5  1  0
 15 16  2  0
 15 13  1  0
 18 17  1  0
 20 19  1  1
 20 21  1  0
 22 23  1  6
 22 20  1  0
 23 15  1  0
 24 22  1  0
 25 24  1  0
 26 24  2  0
M  END
$$$$
