SYT.pdb
     RDKit          3D

 26 26  0  0  1  0  0  0  0  0999 V2000
    8.6738  -19.1507   19.8635 O   0  0  0  0  0  0  0  0  0  0  0  0
    7.7716  -18.3211   19.2427 C   0  0  0  0  0  0  0  0  0  0  0  0
    8.2761  -16.9044   19.0893 C   0  0  2  0  0  0  0  0  0  0  0  0
    9.3996  -16.8313   18.1893 N   0  0  0  0  0  0  0  0  0  0  0  0
    8.6128  -16.2743   20.3661 C   0  0  0  0  0  0  0  0  0  0  0  0
    9.8118  -16.2533   20.7464 O   0  0  0  0  0  0  0  0  0  0  0  0
    7.4945  -12.0792   28.1254 O   0  0  0  0  0  0  0  0  0  0  0  0
    7.3044  -12.6484   26.8510 C   0  0  0  0  0  0  0  0  0  0  0  0
    7.8309  -12.0493   25.7232 C   0  0  0  0  0  0  0  0  0  0  0  0
    7.6454  -12.6046   24.4811 C   0  0  0  0  0  0  0  0  0  0  0  0
    6.9301  -13.7765   24.3100 C   0  0  0  0  0  0  0  0  0  0  0  0
    6.7559  -14.3241   22.9432 C   0  0  0  0  0  0  0  0  0  0  0  0
    8.0138  -15.0420   22.5032 C   0  0  2  0  0  0  0  0  0  0  0  0
    7.6720  -15.6707   21.2299 N   0  0  0  0  0  0  0  0  0  0  0  0
    8.4485  -16.0884   23.4414 C   0  0  0  0  0  0  0  0  0  0  0  0
    7.7672  -17.1510   23.5972 O   0  0  0  0  0  0  0  0  0  0  0  0
    6.4026  -14.3780   25.4317 C   0  0  0  0  0  0  0  0  0  0  0  0
    6.5898  -13.8149   26.6988 C   0  0  0  0  0  0  0  0  0  0  0  0
   12.2761  -18.1421   25.7608 C   0  0  0  0  0  0  0  0  0  0  0  0
   11.6240  -17.1564   24.8145 C   0  0  1  0  0  0  0  0  0  0  0  0
   11.8925  -17.4197   23.4921 O   0  0  0  0  0  0  0  0  0  0  0  0
   10.1165  -17.0767   25.0824 C   0  0  2  0  0  0  0  0  0  0  0  0
    9.6263  -16.0111   24.2308 N   0  0  0  0  0  0  0  0  0  0  0  0
    9.8378  -16.7912   26.5045 C   0  0  0  0  0  0  0  0  0  0  0  0
    9.8924  -15.4735   26.9372 O   0  0  0  0  0  0  0  0  0  0  0  0
    9.5514  -17.6665   27.3612 O   0  0  0  0  0  0  0  0  0  0  0  0
  2  1  1  0
  3  2  1  0
  3  4  1  6
  5  6  2  0
  5  3  1  0
  7  8  1  0
  8 18  2  0
  9  8  1  0
  9 10  2  0
 10 11  1  0
 11 17  2  0
 11 12  1  0
 13 12  1  1
 13 14  1  0
 14  5  1  0
 15 16  2  0
 15 13  1  0
 18 17  1  0
 20 19  1  1
 20 21  1  0
 22 23  1  6
 22 20  1  0
 23 15  1  0
 24 22  1  0
 25 24  1  0
 26 24  2  0
M  END
$$$$
