SYT.pdb
     RDKit          3D

 26 26  0  0  1  0  0  0  0  0999 V2000
   14.2335  -15.0164   18.6194 O   0  0  0  0  0  0  0  0  0  0  0  0
   13.2029  -14.6691   19.4590 C   0  0  0  0  0  0  0  0  0  0  0  0
   13.0438  -15.6159   20.6266 C   0  0  2  0  0  0  0  0  0  0  0  0
   12.5502  -16.9037   20.2074 N   0  0  0  0  0  0  0  0  0  0  0  0
   12.1985  -15.0758   21.6916 C   0  0  0  0  0  0  0  0  0  0  0  0
   12.5304  -14.0029   22.2583 O   0  0  0  0  0  0  0  0  0  0  0  0
    7.6401  -12.9240   17.7616 O   0  0  0  0  0  0  0  0  0  0  0  0
    7.9093  -13.5631   18.9878 C   0  0  0  0  0  0  0  0  0  0  0  0
    7.9748  -12.8400   20.1628 C   0  0  0  0  0  0  0  0  0  0  0  0
    8.2371  -13.4634   21.3578 C   0  0  0  0  0  0  0  0  0  0  0  0
    8.4448  -14.8292   21.4330 C   0  0  0  0  0  0  0  0  0  0  0  0
    8.7325  -15.4452   22.7507 C   0  0  0  0  0  0  0  0  0  0  0  0
   10.1453  -15.1174   23.1840 C   0  0  2  0  0  0  0  0  0  0  0  0
   11.0057  -15.6807   22.1468 N   0  0  0  0  0  0  0  0  0  0  0  0
   10.5144  -15.7161   24.4760 C   0  0  0  0  0  0  0  0  0  0  0  0
   11.1652  -16.8075   24.5289 O   0  0  0  0  0  0  0  0  0  0  0  0
    8.3809  -15.5552   20.2638 C   0  0  0  0  0  0  0  0  0  0  0  0
    8.1136  -14.9230   19.0445 C   0  0  0  0  0  0  0  0  0  0  0  0
   11.0794  -13.4284   27.8202 C   0  0  0  0  0  0  0  0  0  0  0  0
   10.2306  -14.6587   28.0612 C   0  0  1  0  0  0  0  0  0  0  0  0
    8.8851  -14.3825   28.1207 O   0  0  0  0  0  0  0  0  0  0  0  0
   10.5430  -15.7359   27.0158 C   0  0  2  0  0  0  0  0  0  0  0  0
   10.1898  -15.1508   25.7376 N   0  0  0  0  0  0  0  0  0  0  0  0
    9.7699  -16.9691   27.2675 C   0  0  0  0  0  0  0  0  0  0  0  0
   10.0772  -17.7243   28.3907 O   0  0  0  0  0  0  0  0  0  0  0  0
    8.8426  -17.3886   26.5284 O   0  0  0  0  0  0  0  0  0  0  0  0
  2  1  1  0
  3  2  1  0
  3  4  1  6
  5  6  2  0
  5  3  1  0
  7  8  1  0
  8 18  2  0
  9  8  1  0
  9 10  2  0
 10 11  1  0
 11 17  2  0
 11 12  1  0
 13 12  1  6
 13 14  1  0
 14  5  1  0
 15 16  2  0
 15 13  1  0
 18 17  1  0
 20 19  1  6
 20 21  1  0
 22 23  1  6
 22 20  1  0
 23 15  1  0
 24 22  1  0
 25 24  1  0
 26 24  2  0
M  END
$$$$
