SYT.pdb
     RDKit          3D

 26 26  0  0  1  0  0  0  0  0999 V2000
    9.8852  -20.6152   19.6947 O   0  0  0  0  0  0  0  0  0  0  0  0
    8.9514  -19.6224   19.8670 C   0  0  0  0  0  0  0  0  0  0  0  0
    9.4209  -18.2735   19.3719 C   0  0  2  0  0  0  0  0  0  0  0  0
   10.5336  -18.3949   18.4636 N   0  0  0  0  0  0  0  0  0  0  0  0
    9.7552  -17.3495   20.4558 C   0  0  0  0  0  0  0  0  0  0  0  0
   10.9328  -16.9193   20.5586 O   0  0  0  0  0  0  0  0  0  0  0  0
    7.5860  -12.0522   17.7414 O   0  0  0  0  0  0  0  0  0  0  0  0
    7.7114  -12.7717   18.9460 C   0  0  0  0  0  0  0  0  0  0  0  0
    6.8880  -13.8472   19.2164 C   0  0  0  0  0  0  0  0  0  0  0  0
    7.0108  -14.5482   20.3907 C   0  0  0  0  0  0  0  0  0  0  0  0
    7.9558  -14.2090   21.3426 C   0  0  0  0  0  0  0  0  0  0  0  0
    8.0357  -14.9980   22.5953 C   0  0  0  0  0  0  0  0  0  0  0  0
    9.1794  -15.9866   22.5188 C   0  0  2  0  0  0  0  0  0  0  0  0
    8.8345  -16.8892   21.4234 N   0  0  0  0  0  0  0  0  0  0  0  0
    9.3490  -16.7807   23.7454 C   0  0  0  0  0  0  0  0  0  0  0  0
    8.5390  -17.7174   24.0352 O   0  0  0  0  0  0  0  0  0  0  0  0
    8.7796  -13.1368   21.0779 C   0  0  0  0  0  0  0  0  0  0  0  0
    8.6572  -12.4204   19.8822 C   0  0  0  0  0  0  0  0  0  0  0  0
   10.2639  -19.3628   24.0194 C   0  0  0  0  0  0  0  0  0  0  0  0
   11.3631  -18.7442   24.8569 C   0  0  1  0  0  0  0  0  0  0  0  0
   12.4677  -18.3887   24.1197 O   0  0  0  0  0  0  0  0  0  0  0  0
   10.8164  -17.5620   25.6659 C   0  0  2  0  0  0  0  0  0  0  0  0
   10.3951  -16.5816   24.6849 N   0  0  0  0  0  0  0  0  0  0  0  0
   11.8465  -17.0045   26.5657 C   0  0  0  0  0  0  0  0  0  0  0  0
   12.1037  -17.6593   27.7621 O   0  0  0  0  0  0  0  0  0  0  0  0
   12.5150  -15.9671   26.3226 O   0  0  0  0  0  0  0  0  0  0  0  0
  2  1  1  0
  3  2  1  0
  3  4  1  6
  5  6  2  0
  5  3  1  0
  7  8  1  0
  8 18  2  0
  9  8  1  0
  9 10  2  0
 10 11  1  0
 11 17  2  0
 11 12  1  0
 13 12  1  1
 13 14  1  0
 14  5  1  0
 15 16  2  0
 15 13  1  0
 18 17  1  0
 20 19  1  6
 20 21  1  0
 22 23  1  6
 22 20  1  0
 23 15  1  0
 24 22  1  0
 25 24  1  0
 26 24  2  0
M  END
$$$$
