CIY.pdb
     RDKit          3D

 27 27  0  0  1  0  0  0  0  0999 V2000
   28.6945  -20.9132  -15.4204 N   0  0  0  0  0  0  0  0  0  0  0  0
   27.9978  -20.0920  -14.4835 C   0  0  1  0  0  0  0  0  0  0  0  0
   27.3252  -18.9666  -15.2485 C   0  0  0  0  0  0  0  0  0  0  0  0
   28.6046  -17.7780  -15.7302 S   0  0  0  0  0  0  0  0  0  0  0  0
   26.9590  -20.8143  -13.7321 C   0  0  0  0  0  0  0  0  0  0  0  0
   26.4555  -21.8590  -14.2140 O   0  0  0  0  0  0  0  0  0  0  0  0
   27.0867  -20.5771   -8.2746 C   0  0  0  0  0  0  0  0  0  0  0  0
   26.8531  -21.1061   -9.6364 C   0  0  0  0  0  0  0  0  0  0  0  0
   25.6388  -20.7096  -10.3601 C   0  0  2  0  0  0  0  0  0  0  0  0
   24.3851  -21.0743   -9.5218 C   0  0  0  0  0  0  0  0  0  0  0  0
   25.4414  -21.0625  -11.7836 C   0  0  2  0  0  0  0  0  0  0  0  0
   26.5462  -20.3133  -12.4731 N   0  0  0  0  0  0  0  0  0  0  0  0
   24.2222  -20.5612  -12.4556 C   0  0  0  0  0  0  0  0  0  0  0  0
   23.9603  -19.2995  -12.4066 O   0  0  0  0  0  0  0  0  0  0  0  0
   17.5732  -18.2859  -17.4616 O   0  0  0  0  0  0  0  0  0  0  0  0
   18.6501  -18.9747  -16.8967 C   0  0  0  0  0  0  0  0  0  0  0  0
   19.8184  -18.2849  -16.7284 C   0  0  0  0  0  0  0  0  0  0  0  0
   20.9108  -18.9096  -16.1782 C   0  0  0  0  0  0  0  0  0  0  0  0
   20.8759  -20.2387  -15.7783 C   0  0  0  0  0  0  0  0  0  0  0  0
   22.0779  -20.8595  -15.2333 C   0  0  0  0  0  0  0  0  0  0  0  0
   22.1117  -20.6669  -13.7280 C   0  0  2  0  0  0  0  0  0  0  0  0
   23.2881  -21.3387  -13.1769 N   0  0  0  0  0  0  0  0  0  0  0  0
   20.8815  -21.2211  -13.1597 C   0  0  0  0  0  0  0  0  0  0  0  0
   20.7226  -22.5831  -13.0433 O   0  0  0  0  0  0  0  0  0  0  0  0
   19.6932  -20.9141  -15.9559 C   0  0  0  0  0  0  0  0  0  0  0  0
   18.5654  -20.2997  -16.5144 C   0  0  0  0  0  0  0  0  0  0  0  0
   19.9665  -20.4701  -12.7766 O   0  0  0  0  0  0  0  0  0  0  0  0
  2  1  1  6
  3  4  1  0
  3  2  1  0
  5  6  2  0
  5  2  1  0
  8  7  1  0
  8  9  1  0
  9 11  1  0
  9 10  1  1
 11 12  1  6
 12  5  1  0
 13 11  1  0
 14 13  2  0
 16 17  2  0
 16 15  1  0
 18 17  1  0
 19 18  2  0
 21 20  1  6
 20 19  1  0
 21 22  1  0
 22 13  1  0
 23 24  1  0
 23 21  1  0
 25 19  1  0
 25 26  2  0
 26 16  1  0
 27 23  2  0
M  END
$$$$
