CIY.pdb
     RDKit          3D

 27 27  0  0  1  0  0  0  0  0999 V2000
   28.5459  -21.3374  -16.0977 N   0  0  0  0  0  0  0  0  0  0  0  0
   27.6923  -20.4093  -15.4286 C   0  0  1  0  0  0  0  0  0  0  0  0
   26.9620  -19.5943  -16.4805 C   0  0  0  0  0  0  0  0  0  0  0  0
   25.9873  -18.3283  -15.6268 S   0  0  0  0  0  0  0  0  0  0  0  0
   26.6837  -21.0546  -14.5732 C   0  0  0  0  0  0  0  0  0  0  0  0
   26.2235  -22.1785  -14.8931 O   0  0  0  0  0  0  0  0  0  0  0  0
   25.7137  -21.2137   -8.6469 C   0  0  0  0  0  0  0  0  0  0  0  0
   25.1444  -21.4757   -9.9872 C   0  0  0  0  0  0  0  0  0  0  0  0
   25.8316  -20.9481  -11.1726 C   0  0  2  0  0  0  0  0  0  0  0  0
   26.2260  -19.4664  -10.9349 C   0  0  0  0  0  0  0  0  0  0  0  0
   25.2748  -21.1335  -12.5311 C   0  0  2  0  0  0  0  0  0  0  0  0
   26.2501  -20.3906  -13.3995 N   0  0  0  0  0  0  0  0  0  0  0  0
   23.9824  -20.4831  -12.8412 C   0  0  0  0  0  0  0  0  0  0  0  0
   23.9305  -19.1955  -12.8878 O   0  0  0  0  0  0  0  0  0  0  0  0
   21.7612  -23.8139  -18.5673 O   0  0  0  0  0  0  0  0  0  0  0  0
   21.7722  -22.8064  -17.5990 C   0  0  0  0  0  0  0  0  0  0  0  0
   20.5647  -22.3907  -17.1110 C   0  0  0  0  0  0  0  0  0  0  0  0
   20.5130  -21.4035  -16.1575 C   0  0  0  0  0  0  0  0  0  0  0  0
   21.6594  -20.7991  -15.6596 C   0  0  0  0  0  0  0  0  0  0  0  0
   21.5412  -19.7308  -14.6737 C   0  0  0  0  0  0  0  0  0  0  0  0
   21.5597  -20.3241  -13.2767 C   0  0  2  0  0  0  0  0  0  0  0  0
   22.7611  -21.1414  -13.1101 N   0  0  0  0  0  0  0  0  0  0  0  0
   20.3516  -21.1314  -13.0973 C   0  0  0  0  0  0  0  0  0  0  0  0
   19.1082  -20.5469  -13.1753 O   0  0  0  0  0  0  0  0  0  0  0  0
   22.8624  -21.2305  -16.1627 C   0  0  0  0  0  0  0  0  0  0  0  0
   22.9417  -22.2353  -17.1351 C   0  0  0  0  0  0  0  0  0  0  0  0
   20.4335  -22.3522  -12.8719 O   0  0  0  0  0  0  0  0  0  0  0  0
  2  1  1  6
  3  4  1  0
  3  2  1  0
  5  6  2  0
  5  2  1  0
  8  7  1  0
  8  9  1  0
  9 11  1  0
  9 10  1  1
 11 12  1  6
 12  5  1  0
 13 11  1  0
 14 13  2  0
 16 17  2  0
 16 15  1  0
 18 17  1  0
 19 18  2  0
 21 20  1  6
 20 19  1  0
 21 22  1  0
 22 13  1  0
 23 24  1  0
 23 21  1  0
 25 19  1  0
 25 26  2  0
 26 16  1  0
 27 23  2  0
M  END
$$$$
