CIY.pdb
     RDKit          3D

 27 27  0  0  1  0  0  0  0  0999 V2000
   23.7762  -16.1927  -17.1277 N   0  0  0  0  0  0  0  0  0  0  0  0
   23.6121  -14.8597  -17.6112 C   0  0  1  0  0  0  0  0  0  0  0  0
   22.1638  -14.6826  -18.0297 C   0  0  0  0  0  0  0  0  0  0  0  0
   21.8481  -15.7913  -19.4271 S   0  0  0  0  0  0  0  0  0  0  0  0
   23.9233  -13.8309  -16.6062 C   0  0  0  0  0  0  0  0  0  0  0  0
   23.7928  -14.0942  -15.3852 O   0  0  0  0  0  0  0  0  0  0  0  0
   28.5217  -11.7927  -16.1375 C   0  0  0  0  0  0  0  0  0  0  0  0
   27.1133  -12.1705  -15.8869 C   0  0  0  0  0  0  0  0  0  0  0  0
   26.0502  -11.1974  -16.1671 C   0  0  2  0  0  0  0  0  0  0  0  0
   26.3931   -9.8386  -15.5012 C   0  0  0  0  0  0  0  0  0  0  0  0
   24.6238  -11.5369  -15.9669 C   0  0  2  0  0  0  0  0  0  0  0  0
   24.3663  -12.5571  -17.0395 N   0  0  0  0  0  0  0  0  0  0  0  0
   23.6191  -10.4881  -16.2497 C   0  0  0  0  0  0  0  0  0  0  0  0
   23.5686   -9.9795  -17.4336 O   0  0  0  0  0  0  0  0  0  0  0  0
   17.2554   -5.0920  -17.9986 O   0  0  0  0  0  0  0  0  0  0  0  0
   18.0243   -6.1151  -17.4374 C   0  0  0  0  0  0  0  0  0  0  0  0
   18.7792   -6.8731  -18.2887 C   0  0  0  0  0  0  0  0  0  0  0  0
   19.5553   -7.8928  -17.7946 C   0  0  0  0  0  0  0  0  0  0  0  0
   19.6052   -8.1907  -16.4395 C   0  0  0  0  0  0  0  0  0  0  0  0
   20.4198   -9.3084  -15.9765 C   0  0  0  0  0  0  0  0  0  0  0  0
   21.8482   -8.8418  -15.7619 C   0  0  2  0  0  0  0  0  0  0  0  0
   22.6717   -9.9730  -15.3362 N   0  0  0  0  0  0  0  0  0  0  0  0
   21.8463   -7.7876  -14.7460 C   0  0  0  0  0  0  0  0  0  0  0  0
   21.6576   -6.4737  -15.1092 O   0  0  0  0  0  0  0  0  0  0  0  0
   18.8397   -7.4179  -15.6009 C   0  0  0  0  0  0  0  0  0  0  0  0
   18.0402   -6.3726  -16.0800 C   0  0  0  0  0  0  0  0  0  0  0  0
   22.0156   -8.0652  -13.5451 O   0  0  0  0  0  0  0  0  0  0  0  0
  2  1  1  1
  3  4  1  0
  3  2  1  0
  5  6  2  0
  5  2  1  0
  8  7  1  0
  8  9  1  0
  9 11  1  0
  9 10  1  1
 11 12  1  6
 12  5  1  0
 13 11  1  0
 14 13  2  0
 16 17  2  0
 16 15  1  0
 18 17  1  0
 19 18  2  0
 21 20  1  1
 20 19  1  0
 21 22  1  0
 22 13  1  0
 23 24  1  0
 23 21  1  0
 25 19  1  0
 25 26  2  0
 26 16  1  0
 27 23  2  0
M  END
$$$$
