CIY.pdb
     RDKit          3D

 27 27  0  0  1  0  0  0  0  0999 V2000
   20.9467  -12.2875  -19.3943 N   0  0  0  0  0  0  0  0  0  0  0  0
   21.6437  -11.5516  -18.3892 C   0  0  1  0  0  0  0  0  0  0  0  0
   22.9912  -11.1391  -18.9532 C   0  0  0  0  0  0  0  0  0  0  0  0
   24.0221  -12.6237  -19.0756 S   0  0  0  0  0  0  0  0  0  0  0  0
   20.9381  -10.3330  -17.9620 C   0  0  0  0  0  0  0  0  0  0  0  0
   20.3898   -9.5982  -18.8202 O   0  0  0  0  0  0  0  0  0  0  0  0
   16.6762   -9.0635  -14.3890 C   0  0  0  0  0  0  0  0  0  0  0  0
   17.9076   -8.4627  -14.9473 C   0  0  0  0  0  0  0  0  0  0  0  0
   18.8643   -9.3205  -15.6577 C   0  0  2  0  0  0  0  0  0  0  0  0
   19.1331  -10.6051  -14.8300 C   0  0  0  0  0  0  0  0  0  0  0  0
   20.1251   -8.7755  -16.2085 C   0  0  2  0  0  0  0  0  0  0  0  0
   20.8917  -10.0121  -16.5830 N   0  0  0  0  0  0  0  0  0  0  0  0
   21.0403   -8.0794  -15.2773 C   0  0  0  0  0  0  0  0  0  0  0  0
   21.7408   -8.7820  -14.4537 O   0  0  0  0  0  0  0  0  0  0  0  0
   21.2774   -1.0308  -17.7847 O   0  0  0  0  0  0  0  0  0  0  0  0
   21.7576   -2.1564  -17.1099 C   0  0  0  0  0  0  0  0  0  0  0  0
   22.1937   -1.9808  -15.8261 C   0  0  0  0  0  0  0  0  0  0  0  0
   22.6764   -3.0508  -15.1130 C   0  0  0  0  0  0  0  0  0  0  0  0
   22.7407   -4.3280  -15.6535 C   0  0  0  0  0  0  0  0  0  0  0  0
   23.2963   -5.4192  -14.8612 C   0  0  0  0  0  0  0  0  0  0  0  0
   22.1709   -6.1795  -14.1834 C   0  0  2  0  0  0  0  0  0  0  0  0
   21.2438   -6.6832  -15.1963 N   0  0  0  0  0  0  0  0  0  0  0  0
   21.4886   -5.2740  -13.2572 C   0  0  0  0  0  0  0  0  0  0  0  0
   22.1425   -4.7973  -12.1441 O   0  0  0  0  0  0  0  0  0  0  0  0
   22.2981   -4.4835  -16.9444 C   0  0  0  0  0  0  0  0  0  0  0  0
   21.8014   -3.4085  -17.6923 C   0  0  0  0  0  0  0  0  0  0  0  0
   20.3121   -4.9256  -13.4635 O   0  0  0  0  0  0  0  0  0  0  0  0
  2  1  1  6
  3  4  1  0
  3  2  1  0
  5  6  2  0
  5  2  1  0
  8  7  1  0
  8  9  1  0
  9 11  1  0
  9 10  1  1
 11 12  1  1
 12  5  1  0
 13 11  1  0
 14 13  2  0
 16 17  2  0
 16 15  1  0
 18 17  1  0
 19 18  2  0
 21 20  1  6
 20 19  1  0
 21 22  1  0
 22 13  1  0
 23 24  1  0
 23 21  1  0
 25 19  1  0
 25 26  2  0
 26 16  1  0
 27 23  2  0
M  END
$$$$
