CIY.pdb
     RDKit          3D

 27 27  0  0  1  0  0  0  0  0999 V2000
   22.3492  -12.2939  -18.3465 N   0  0  0  0  0  0  0  0  0  0  0  0
   21.1744  -11.7649  -18.9609 C   0  0  1  0  0  0  0  0  0  0  0  0
   20.1851  -12.9009  -19.1475 C   0  0  0  0  0  0  0  0  0  0  0  0
   21.0122  -14.2115  -20.0856 S   0  0  0  0  0  0  0  0  0  0  0  0
   20.5179  -10.7178  -18.1622 C   0  0  0  0  0  0  0  0  0  0  0  0
   20.7757  -10.6160  -16.9373 O   0  0  0  0  0  0  0  0  0  0  0  0
   20.5801   -5.7854  -20.0148 C   0  0  0  0  0  0  0  0  0  0  0  0
   20.4906   -6.9312  -19.0830 C   0  0  0  0  0  0  0  0  0  0  0  0
   19.1820   -7.5461  -18.8279 C   0  0  2  0  0  0  0  0  0  0  0  0
   18.1538   -6.4507  -18.4402 C   0  0  0  0  0  0  0  0  0  0  0  0
   19.0460   -8.7303  -17.9509 C   0  0  2  0  0  0  0  0  0  0  0  0
   19.6031   -9.8411  -18.7954 N   0  0  0  0  0  0  0  0  0  0  0  0
   17.6791   -9.1998  -17.6335 C   0  0  0  0  0  0  0  0  0  0  0  0
   16.8872   -9.5073  -18.6036 O   0  0  0  0  0  0  0  0  0  0  0  0
   10.1701  -12.6665  -15.3650 O   0  0  0  0  0  0  0  0  0  0  0  0
   11.4995  -12.2355  -15.3625 C   0  0  0  0  0  0  0  0  0  0  0  0
   12.2736  -12.5796  -16.4355 C   0  0  0  0  0  0  0  0  0  0  0  0
   13.5878  -12.1841  -16.4884 C   0  0  0  0  0  0  0  0  0  0  0  0
   14.1731  -11.4346  -15.4768 C   0  0  0  0  0  0  0  0  0  0  0  0
   15.5833  -11.0738  -15.5704 C   0  0  0  0  0  0  0  0  0  0  0  0
   15.7171   -9.7130  -16.2295 C   0  0  2  0  0  0  0  0  0  0  0  0
   17.1326   -9.3623  -16.3404 N   0  0  0  0  0  0  0  0  0  0  0  0
   14.9989   -8.7292  -15.4172 C   0  0  0  0  0  0  0  0  0  0  0  0
   13.6289   -8.6286  -15.4991 O   0  0  0  0  0  0  0  0  0  0  0  0
   13.3789  -11.0994  -14.4076 C   0  0  0  0  0  0  0  0  0  0  0  0
   12.0363  -11.4904  -14.3302 C   0  0  0  0  0  0  0  0  0  0  0  0
   15.6162   -7.9734  -14.6455 O   0  0  0  0  0  0  0  0  0  0  0  0
  2  1  1  1
  3  4  1  0
  3  2  1  0
  5  6  2  0
  5  2  1  0
  8  7  1  0
  8  9  1  0
  9 11  1  0
  9 10  1  1
 11 12  1  6
 12  5  1  0
 13 11  1  0
 14 13  2  0
 16 17  2  0
 16 15  1  0
 18 17  1  0
 19 18  2  0
 21 20  1  1
 20 19  1  0
 21 22  1  0
 22 13  1  0
 23 24  1  0
 23 21  1  0
 25 19  1  0
 25 26  2  0
 26 16  1  0
 27 23  2  0
M  END
$$$$
