CIY.pdb
     RDKit          3D

 27 27  0  0  1  0  0  0  0  0999 V2000
   24.6205  -24.6001  -15.8608 N   0  0  0  0  0  0  0  0  0  0  0  0
   24.2396  -23.3976  -15.1924 C   0  0  1  0  0  0  0  0  0  0  0  0
   23.0091  -23.6914  -14.3537 C   0  0  0  0  0  0  0  0  0  0  0  0
   21.6438  -24.0722  -15.4818 S   0  0  0  0  0  0  0  0  0  0  0  0
   25.2828  -22.8700  -14.2987 C   0  0  0  0  0  0  0  0  0  0  0  0
   26.0148  -23.6653  -13.6591 O   0  0  0  0  0  0  0  0  0  0  0  0
   28.0260  -18.4905  -15.9418 C   0  0  0  0  0  0  0  0  0  0  0  0
   27.6198  -19.7671  -15.3140 C   0  0  0  0  0  0  0  0  0  0  0  0
   27.0032  -19.7455  -13.9817 C   0  0  2  0  0  0  0  0  0  0  0  0
   27.8529  -18.8692  -13.0238 C   0  0  0  0  0  0  0  0  0  0  0  0
   26.5736  -20.9933  -13.3121 C   0  0  2  0  0  0  0  0  0  0  0  0
   25.4407  -21.4676  -14.1775 N   0  0  0  0  0  0  0  0  0  0  0  0
   25.9522  -20.8791  -11.9741 C   0  0  0  0  0  0  0  0  0  0  0  0
   24.7413  -20.4444  -11.8868 O   0  0  0  0  0  0  0  0  0  0  0  0
   29.0609  -18.2520   -5.0314 O   0  0  0  0  0  0  0  0  0  0  0  0
   28.3539  -19.1426   -5.8437 C   0  0  0  0  0  0  0  0  0  0  0  0
   29.0824  -20.0298   -6.5862 C   0  0  0  0  0  0  0  0  0  0  0  0
   28.4420  -20.9292   -7.4031 C   0  0  0  0  0  0  0  0  0  0  0  0
   27.0584  -20.9748   -7.5073 C   0  0  0  0  0  0  0  0  0  0  0  0
   26.4349  -21.9279   -8.4185 C   0  0  0  0  0  0  0  0  0  0  0  0
   25.7321  -21.1780   -9.5356 C   0  0  2  0  0  0  0  0  0  0  0  0
   26.5579  -21.2147  -10.7421 N   0  0  0  0  0  0  0  0  0  0  0  0
   25.5066  -19.7983   -9.1006 C   0  0  0  0  0  0  0  0  0  0  0  0
   24.3819  -19.4735   -8.3772 O   0  0  0  0  0  0  0  0  0  0  0  0
   26.3447  -20.0753   -6.7536 C   0  0  0  0  0  0  0  0  0  0  0  0
   26.9740  -19.1484   -5.9132 C   0  0  0  0  0  0  0  0  0  0  0  0
   26.3259  -18.9046   -9.3794 O   0  0  0  0  0  0  0  0  0  0  0  0
  2  1  1  1
  3  4  1  0
  3  2  1  0
  5  6  2  0
  5  2  1  0
  8  7  1  0
  8  9  1  0
  9 11  1  0
  9 10  1  1
 11 12  1  6
 12  5  1  0
 13 11  1  0
 14 13  2  0
 16 17  2  0
 16 15  1  0
 18 17  1  0
 19 18  2  0
 21 20  1  1
 20 19  1  0
 21 22  1  0
 22 13  1  0
 23 24  1  0
 23 21  1  0
 25 19  1  0
 25 26  2  0
 26 16  1  0
 27 23  2  0
M  END
$$$$
