CIY.pdb
     RDKit          3D

 27 27  0  0  1  0  0  0  0  0999 V2000
   28.1352  -21.5778  -15.8568 N   0  0  0  0  0  0  0  0  0  0  0  0
   27.4687  -20.5476  -15.1274 C   0  0  1  0  0  0  0  0  0  0  0  0
   26.7822  -19.6305  -16.1232 C   0  0  0  0  0  0  0  0  0  0  0  0
   28.0660  -18.8230  -17.1138 S   0  0  0  0  0  0  0  0  0  0  0  0
   26.4464  -21.0563  -14.1991 C   0  0  0  0  0  0  0  0  0  0  0  0
   25.8945  -22.1614  -14.4260 O   0  0  0  0  0  0  0  0  0  0  0  0
   27.8197  -21.0321   -9.2914 C   0  0  0  0  0  0  0  0  0  0  0  0
   27.0439  -21.4367  -10.4844 C   0  0  0  0  0  0  0  0  0  0  0  0
   25.7906  -20.7376  -10.7945 C   0  0  2  0  0  0  0  0  0  0  0  0
   24.7805  -20.9299   -9.6325 C   0  0  0  0  0  0  0  0  0  0  0  0
   25.1228  -20.8998  -12.1051 C   0  0  2  0  0  0  0  0  0  0  0  0
   26.1039  -20.2841  -13.0620 N   0  0  0  0  0  0  0  0  0  0  0  0
   23.8839  -20.1280  -12.3479 C   0  0  0  0  0  0  0  0  0  0  0  0
   23.9813  -18.8866  -12.6830 O   0  0  0  0  0  0  0  0  0  0  0  0
   18.1984  -18.4679  -18.3032 O   0  0  0  0  0  0  0  0  0  0  0  0
   19.1597  -18.8563  -17.3661 C   0  0  0  0  0  0  0  0  0  0  0  0
   19.6894  -20.1103  -17.4921 C   0  0  0  0  0  0  0  0  0  0  0  0
   20.6383  -20.5471  -16.6003 C   0  0  0  0  0  0  0  0  0  0  0  0
   21.0898  -19.7514  -15.5561 C   0  0  0  0  0  0  0  0  0  0  0  0
   22.0730  -20.2819  -14.6183 C   0  0  0  0  0  0  0  0  0  0  0  0
   21.5685  -20.1037  -13.1979 C   0  0  2  0  0  0  0  0  0  0  0  0
   22.5628  -20.6220  -12.2589 N   0  0  0  0  0  0  0  0  0  0  0  0
   20.2994  -20.8207  -13.0609 C   0  0  0  0  0  0  0  0  0  0  0  0
   20.2712  -22.1960  -13.1004 O   0  0  0  0  0  0  0  0  0  0  0  0
   20.5452  -18.4953  -15.4466 C   0  0  0  0  0  0  0  0  0  0  0  0
   19.5766  -18.0266  -16.3430 C   0  0  0  0  0  0  0  0  0  0  0  0
   19.2333  -20.1976  -12.9084 O   0  0  0  0  0  0  0  0  0  0  0  0
  2  1  1  6
  3  4  1  0
  3  2  1  0
  5  6  2  0
  5  2  1  0
  8  7  1  0
  8  9  1  0
  9 11  1  0
  9 10  1  1
 11 12  1  6
 12  5  1  0
 13 11  1  0
 14 13  2  0
 16 17  2  0
 16 15  1  0
 18 17  1  0
 19 18  2  0
 21 20  1  6
 20 19  1  0
 21 22  1  0
 22 13  1  0
 23 24  1  0
 23 21  1  0
 25 19  1  0
 25 26  2  0
 26 16  1  0
 27 23  2  0
M  END
$$$$
