CIY.pdb
     RDKit          3D

 27 27  0  0  1  0  0  0  0  0999 V2000
   22.0489  -19.6591  -15.9621 N   0  0  0  0  0  0  0  0  0  0  0  0
   22.6834  -19.1877  -14.7735 C   0  0  1  0  0  0  0  0  0  0  0  0
   21.6937  -19.3081  -13.6288 C   0  0  0  0  0  0  0  0  0  0  0  0
   20.4224  -18.0377  -13.8556 S   0  0  0  0  0  0  0  0  0  0  0  0
   23.8894  -19.9499  -14.4129 C   0  0  0  0  0  0  0  0  0  0  0  0
   23.9517  -21.1766  -14.6748 O   0  0  0  0  0  0  0  0  0  0  0  0
   28.3105  -18.3681  -16.2418 C   0  0  0  0  0  0  0  0  0  0  0  0
   27.2531  -19.1888  -15.6112 C   0  0  0  0  0  0  0  0  0  0  0  0
   27.2620  -19.3719  -14.1545 C   0  0  2  0  0  0  0  0  0  0  0  0
   28.6535  -19.8847  -13.6981 C   0  0  0  0  0  0  0  0  0  0  0  0
   26.1780  -20.1058  -13.4645 C   0  0  2  0  0  0  0  0  0  0  0  0
   24.9616  -19.2800  -13.7740 N   0  0  0  0  0  0  0  0  0  0  0  0
   26.1987  -20.1359  -11.9852 C   0  0  0  0  0  0  0  0  0  0  0  0
   26.0529  -19.0293  -11.3395 O   0  0  0  0  0  0  0  0  0  0  0  0
   27.8751  -19.6521   -3.8036 O   0  0  0  0  0  0  0  0  0  0  0  0
   27.7228  -19.6355   -5.1927 C   0  0  0  0  0  0  0  0  0  0  0  0
   27.2192  -20.7611   -5.7831 C   0  0  0  0  0  0  0  0  0  0  0  0
   27.0472  -20.8031   -7.1451 C   0  0  0  0  0  0  0  0  0  0  0  0
   27.3703  -19.7282   -7.9622 C   0  0  0  0  0  0  0  0  0  0  0  0
   27.1998  -19.8432   -9.4061 C   0  0  0  0  0  0  0  0  0  0  0  0
   26.4166  -21.1033   -9.7267 C   0  0  2  0  0  0  0  0  0  0  0  0
   26.3566  -21.2843  -11.1768 N   0  0  0  0  0  0  0  0  0  0  0  0
   25.0721  -20.9725   -9.1622 C   0  0  0  0  0  0  0  0  0  0  0  0
   24.7922  -21.4746   -7.9119 O   0  0  0  0  0  0  0  0  0  0  0  0
   27.8749  -18.6070   -7.3499 C   0  0  0  0  0  0  0  0  0  0  0  0
   28.0596  -18.5393   -5.9633 C   0  0  0  0  0  0  0  0  0  0  0  0
   24.1680  -20.4081   -9.8040 O   0  0  0  0  0  0  0  0  0  0  0  0
  2  1  1  6
  3  4  1  0
  3  2  1  0
  5  6  2  0
  5  2  1  0
  8  7  1  0
  8  9  1  0
  9 11  1  0
  9 10  1  6
 11 12  1  1
 12  5  1  0
 13 11  1  0
 14 13  2  0
 16 17  2  0
 16 15  1  0
 18 17  1  0
 19 18  2  0
 21 20  1  6
 20 19  1  0
 21 22  1  0
 22 13  1  0
 23 24  1  0
 23 21  1  0
 25 19  1  0
 25 26  2  0
 26 16  1  0
 27 23  2  0
M  END
$$$$
