QFQ.pdb
     RDKit          3D

 30 30  0  0  1  0  0  0  0  0999 V2000
    8.4433  -14.2312   15.6376 N   0  0  0  0  0  0  0  0  0  0  0  0
    8.2855  -13.7167   16.9712 C   0  0  0  0  0  0  0  0  0  0  0  0
    8.4067  -12.4872   17.1516 O   0  0  0  0  0  0  0  0  0  0  0  0
    7.9948  -14.6177   18.0790 C   0  0  0  0  0  0  0  0  0  0  0  0
    9.1465  -15.3604   18.6717 C   0  0  0  0  0  0  0  0  0  0  0  0
    8.8090  -16.2759   19.8145 C   0  0  2  0  0  0  0  0  0  0  0  0
    7.6121  -16.9860   19.6640 N   0  0  0  0  0  0  0  0  0  0  0  0
    8.9751  -15.6004   21.1293 C   0  0  0  0  0  0  0  0  0  0  0  0
   10.1085  -15.1429   21.3915 O   0  0  0  0  0  0  0  0  0  0  0  0
    7.9478  -15.4434   22.0907 N   0  0  0  0  0  0  0  0  0  0  0  0
    8.0547  -14.9008   23.3938 C   0  0  1  0  0  0  0  0  0  0  0  0
    6.8874  -14.0575   23.8660 C   0  0  0  0  0  0  0  0  0  0  0  0
    7.0626  -13.4378   25.1723 C   0  0  0  0  0  0  0  0  0  0  0  0
    7.8453  -12.3048   25.2676 C   0  0  0  0  0  0  0  0  0  0  0  0
    8.0517  -11.6830   26.4689 C   0  0  0  0  0  0  0  0  0  0  0  0
    7.4701  -12.1895   27.6196 C   0  0  0  0  0  0  0  0  0  0  0  0
    6.6878  -13.3126   27.5593 C   0  0  0  0  0  0  0  0  0  0  0  0
    6.4943  -13.9262   26.3215 C   0  0  0  0  0  0  0  0  0  0  0  0
    8.4037  -15.8399   24.4675 C   0  0  0  0  0  0  0  0  0  0  0  0
    7.6110  -16.7675   24.7992 O   0  0  0  0  0  0  0  0  0  0  0  0
   12.8486  -20.9052   25.6749 N   0  0  0  0  0  0  0  0  0  0  0  0
   12.9377  -19.4630   25.6753 C   0  0  0  0  0  0  0  0  0  0  0  0
   13.9649  -18.9924   25.1823 O   0  0  0  0  0  0  0  0  0  0  0  0
   11.8533  -18.6992   26.2359 C   0  0  0  0  0  0  0  0  0  0  0  0
   11.2187  -17.6206   25.4653 C   0  0  0  0  0  0  0  0  0  0  0  0
   10.0977  -16.8623   26.0565 C   0  0  2  0  0  0  0  0  0  0  0  0
    9.6216  -15.7890   25.2021 N   0  0  0  0  0  0  0  0  0  0  0  0
   10.2614  -16.3887   27.4206 C   0  0  0  0  0  0  0  0  0  0  0  0
   10.2743  -17.2709   28.4890 O   0  0  0  0  0  0  0  0  0  0  0  0
   10.3902  -15.1697   27.6688 O   0  0  0  0  0  0  0  0  0  0  0  0
  2  3  2  0
  2  1  1  0
  4  2  1  0
  5  6  1  0
  5  4  1  0
  6  7  1  6
  8  6  1  0
  9  8  2  0
 10  8  1  0
 11 12  1  1
 11 10  1  0
 12 13  1  0
 13 18  2  0
 14 13  1  0
 14 15  2  0
 15 16  1  0
 16 17  2  0
 18 17  1  0
 19 20  2  0
 19 11  1  0
 22 21  1  0
 22 24  1  0
 23 22  2  0
 25 24  1  0
 26 25  1  6
 26 27  1  0
 27 19  1  0
 28 26  1  0
 28 29  1  0
 30 28  2  0
M  END
$$$$
