QFQ.pdb
     RDKit          3D

 30 30  0  0  1  0  0  0  0  0999 V2000
   12.5865  -15.5244   17.8687 N   0  0  0  0  0  0  0  0  0  0  0  0
   11.7415  -16.6680   17.6535 C   0  0  0  0  0  0  0  0  0  0  0  0
   11.6565  -17.1346   16.4986 O   0  0  0  0  0  0  0  0  0  0  0  0
   11.0037  -17.2583   18.7629 C   0  0  0  0  0  0  0  0  0  0  0  0
   11.2078  -16.6543   20.1131 C   0  0  0  0  0  0  0  0  0  0  0  0
   10.3345  -17.2010   21.2070 C   0  0  2  0  0  0  0  0  0  0  0  0
    9.2393  -17.9518   20.7639 N   0  0  0  0  0  0  0  0  0  0  0  0
   10.0127  -16.1650   22.2247 C   0  0  0  0  0  0  0  0  0  0  0  0
   10.9250  -15.3654   22.5267 O   0  0  0  0  0  0  0  0  0  0  0  0
    8.7579  -16.0266   22.8656 N   0  0  0  0  0  0  0  0  0  0  0  0
    8.4170  -15.1523   23.9255 C   0  0  1  0  0  0  0  0  0  0  0  0
    7.0960  -14.4215   23.7922 C   0  0  0  0  0  0  0  0  0  0  0  0
    6.7561  -13.5527   24.9107 C   0  0  0  0  0  0  0  0  0  0  0  0
    7.2751  -12.2739   24.9368 C   0  0  0  0  0  0  0  0  0  0  0  0
    6.9964  -11.4151   25.9649 C   0  0  0  0  0  0  0  0  0  0  0  0
    6.1792  -11.8237   27.0061 C   0  0  0  0  0  0  0  0  0  0  0  0
    5.6481  -13.0866   27.0104 C   0  0  0  0  0  0  0  0  0  0  0  0
    5.9489  -13.9412   25.9497 C   0  0  0  0  0  0  0  0  0  0  0  0
    8.4975  -15.7064   25.2830 C   0  0  0  0  0  0  0  0  0  0  0  0
    7.4795  -15.7335   26.0326 O   0  0  0  0  0  0  0  0  0  0  0  0
    6.1357  -19.3210   27.3063 N   0  0  0  0  0  0  0  0  0  0  0  0
    7.3113  -19.9679   27.8421 C   0  0  0  0  0  0  0  0  0  0  0  0
    7.1020  -20.8267   28.7013 O   0  0  0  0  0  0  0  0  0  0  0  0
    8.6065  -19.5752   27.3504 C   0  0  0  0  0  0  0  0  0  0  0  0
    8.7500  -18.4178   26.4561 C   0  0  0  0  0  0  0  0  0  0  0  0
    9.7069  -17.3456   26.7964 C   0  0  2  0  0  0  0  0  0  0  0  0
    9.6866  -16.2422   25.8527 N   0  0  0  0  0  0  0  0  0  0  0  0
   11.0755  -17.7420   27.0824 C   0  0  0  0  0  0  0  0  0  0  0  0
   12.1429  -17.1713   26.4079 O   0  0  0  0  0  0  0  0  0  0  0  0
   11.3278  -18.6139   27.9429 O   0  0  0  0  0  0  0  0  0  0  0  0
  2  3  2  0
  2  1  1  0
  4  2  1  0
  5  6  1  0
  5  4  1  0
  6  7  1  6
  8  6  1  0
  9  8  2  0
 10  8  1  0
 11 12  1  6
 11 10  1  0
 12 13  1  0
 13 18  2  0
 14 13  1  0
 14 15  2  0
 15 16  1  0
 16 17  2  0
 18 17  1  0
 19 20  2  0
 19 11  1  0
 22 21  1  0
 22 24  1  0
 23 22  2  0
 25 24  1  0
 26 25  1  6
 26 27  1  0
 27 19  1  0
 28 26  1  0
 28 29  1  0
 30 28  2  0
M  END
$$$$
