QFQ.pdb
     RDKit          3D

 30 30  0  0  1  0  0  0  0  0999 V2000
    9.8441  -12.9667   18.2790 N   0  0  0  0  0  0  0  0  0  0  0  0
    8.4555  -13.2415   18.0249 C   0  0  0  0  0  0  0  0  0  0  0  0
    8.0535  -13.2246   16.8430 O   0  0  0  0  0  0  0  0  0  0  0  0
    7.5472  -13.5283   19.1277 C   0  0  0  0  0  0  0  0  0  0  0  0
    8.1513  -13.6774   20.4850 C   0  0  0  0  0  0  0  0  0  0  0  0
    8.2128  -15.0814   21.0170 C   0  0  2  0  0  0  0  0  0  0  0  0
    7.1012  -15.8748   20.7099 N   0  0  0  0  0  0  0  0  0  0  0  0
    8.6284  -15.1118   22.4450 C   0  0  0  0  0  0  0  0  0  0  0  0
    9.6918  -14.5236   22.7378 O   0  0  0  0  0  0  0  0  0  0  0  0
    7.9084  -15.7546   23.4807 N   0  0  0  0  0  0  0  0  0  0  0  0
    8.2700  -15.8731   24.8443 C   0  0  1  0  0  0  0  0  0  0  0  0
    7.2307  -15.4289   25.8538 C   0  0  0  0  0  0  0  0  0  0  0  0
    7.1120  -13.9871   26.0233 C   0  0  0  0  0  0  0  0  0  0  0  0
    8.1057  -13.3173   26.7084 C   0  0  0  0  0  0  0  0  0  0  0  0
    8.0451  -11.9646   26.9048 C   0  0  0  0  0  0  0  0  0  0  0  0
    6.9717  -11.2408   26.4120 C   0  0  0  0  0  0  0  0  0  0  0  0
    5.9688  -11.8754   25.7277 C   0  0  0  0  0  0  0  0  0  0  0  0
    6.0562  -13.2553   25.5421 C   0  0  0  0  0  0  0  0  0  0  0  0
    8.7942  -17.1765   25.2718 C   0  0  0  0  0  0  0  0  0  0  0  0
    8.0639  -18.2084   25.2448 O   0  0  0  0  0  0  0  0  0  0  0  0
   14.0077  -19.8578   23.5347 N   0  0  0  0  0  0  0  0  0  0  0  0
   13.2312  -18.6896   23.1879 C   0  0  0  0  0  0  0  0  0  0  0  0
   13.5762  -18.1071   22.1576 O   0  0  0  0  0  0  0  0  0  0  0  0
   12.1422  -18.2984   24.0450 C   0  0  0  0  0  0  0  0  0  0  0  0
   11.8251  -19.0707   25.2546 C   0  0  0  0  0  0  0  0  0  0  0  0
   10.6659  -18.6853   26.0845 C   0  0  2  0  0  0  0  0  0  0  0  0
   10.1231  -17.3840   25.7373 N   0  0  0  0  0  0  0  0  0  0  0  0
   10.8105  -18.8054   27.5255 C   0  0  0  0  0  0  0  0  0  0  0  0
   10.4987  -17.7500   28.3676 O   0  0  0  0  0  0  0  0  0  0  0  0
   11.2257  -19.8641   28.0458 O   0  0  0  0  0  0  0  0  0  0  0  0
  2  3  2  0
  2  1  1  0
  4  2  1  0
  5  6  1  0
  5  4  1  0
  6  7  1  1
  8  6  1  0
  9  8  2  0
 10  8  1  0
 11 12  1  1
 11 10  1  0
 12 13  1  0
 13 18  2  0
 14 13  1  0
 14 15  2  0
 15 16  1  0
 16 17  2  0
 18 17  1  0
 19 20  2  0
 19 11  1  0
 22 21  1  0
 22 24  1  0
 23 22  2  0
 25 24  1  0
 26 25  1  6
 26 27  1  0
 27 19  1  0
 28 26  1  0
 28 29  1  0
 30 28  2  0
M  END
$$$$
