QFQ.pdb
     RDKit          3D

 30 30  0  0  1  0  0  0  0  0999 V2000
    8.0109  -13.1285   17.7952 N   0  0  0  0  0  0  0  0  0  0  0  0
    8.3227  -14.2994   17.0206 C   0  0  0  0  0  0  0  0  0  0  0  0
    8.5793  -14.1576   15.8070 O   0  0  0  0  0  0  0  0  0  0  0  0
    8.3328  -15.6155   17.6461 C   0  0  0  0  0  0  0  0  0  0  0  0
    8.0229  -15.6773   19.1054 C   0  0  0  0  0  0  0  0  0  0  0  0
    9.1590  -16.1022   19.9924 C   0  0  2  0  0  0  0  0  0  0  0  0
    9.2472  -17.4817   20.2131 N   0  0  0  0  0  0  0  0  0  0  0  0
    9.2430  -15.2653   21.2193 C   0  0  0  0  0  0  0  0  0  0  0  0
   10.2903  -14.6025   21.3819 O   0  0  0  0  0  0  0  0  0  0  0  0
    8.2282  -15.1711   22.2020 N   0  0  0  0  0  0  0  0  0  0  0  0
    8.1903  -14.3174   23.3307 C   0  0  1  0  0  0  0  0  0  0  0  0
    6.8261  -13.7872   23.7238 C   0  0  0  0  0  0  0  0  0  0  0  0
    6.8051  -12.9735   24.9316 C   0  0  0  0  0  0  0  0  0  0  0  0
    6.1448  -13.4564   26.0435 C   0  0  0  0  0  0  0  0  0  0  0  0
    6.0856  -12.7338   27.2040 C   0  0  0  0  0  0  0  0  0  0  0  0
    6.6957  -11.4923   27.2784 C   0  0  0  0  0  0  0  0  0  0  0  0
    7.3591  -10.9844   26.1927 C   0  0  0  0  0  0  0  0  0  0  0  0
    7.4036  -11.7424   25.0224 C   0  0  0  0  0  0  0  0  0  0  0  0
    8.8574  -14.8064   24.5442 C   0  0  0  0  0  0  0  0  0  0  0  0
    8.5464  -14.3510   25.6820 O   0  0  0  0  0  0  0  0  0  0  0  0
    6.6285  -19.1689   27.6762 N   0  0  0  0  0  0  0  0  0  0  0  0
    7.9804  -19.0657   27.1768 C   0  0  0  0  0  0  0  0  0  0  0  0
    8.8652  -19.0422   28.0349 O   0  0  0  0  0  0  0  0  0  0  0  0
    8.1933  -18.9984   25.7542 C   0  0  0  0  0  0  0  0  0  0  0  0
    8.4546  -17.7111   25.0950 C   0  0  0  0  0  0  0  0  0  0  0  0
    9.7735  -17.0650   25.2506 C   0  0  2  0  0  0  0  0  0  0  0  0
    9.8761  -15.8003   24.5445 N   0  0  0  0  0  0  0  0  0  0  0  0
   10.9483  -17.8825   24.9981 C   0  0  0  0  0  0  0  0  0  0  0  0
   11.5202  -18.6454   26.0035 O   0  0  0  0  0  0  0  0  0  0  0  0
   11.4793  -17.9160   23.8663 O   0  0  0  0  0  0  0  0  0  0  0  0
  2  3  2  0
  2  1  1  0
  4  2  1  0
  5  6  1  0
  5  4  1  0
  6  7  1  1
  8  6  1  0
  9  8  2  0
 10  8  1  0
 11 12  1  1
 11 10  1  0
 12 13  1  0
 13 18  2  0
 14 13  1  0
 14 15  2  0
 15 16  1  0
 16 17  2  0
 18 17  1  0
 19 20  2  0
 19 11  1  0
 22 21  1  0
 22 24  1  0
 23 22  2  0
 25 24  1  0
 26 25  1  6
 26 27  1  0
 27 19  1  0
 28 26  1  0
 28 29  1  0
 30 28  2  0
M  END
$$$$
