QFQ.pdb
     RDKit          3D

 30 30  0  0  1  0  0  0  0  0999 V2000
    8.8229  -12.5743   17.7902 N   0  0  0  0  0  0  0  0  0  0  0  0
    7.9425  -13.6979   17.6153 C   0  0  0  0  0  0  0  0  0  0  0  0
    7.1655  -13.6970   16.6381 O   0  0  0  0  0  0  0  0  0  0  0  0
    7.9625  -14.8043   18.5635 C   0  0  0  0  0  0  0  0  0  0  0  0
    8.8470  -14.6604   19.7578 C   0  0  0  0  0  0  0  0  0  0  0  0
    8.8438  -15.8219   20.7111 C   0  0  2  0  0  0  0  0  0  0  0  0
    7.7234  -16.6558   20.6166 N   0  0  0  0  0  0  0  0  0  0  0  0
    9.1961  -15.4010   22.0937 C   0  0  0  0  0  0  0  0  0  0  0  0
   10.1694  -14.6266   22.2190 O   0  0  0  0  0  0  0  0  0  0  0  0
    8.5109  -15.8141   23.2616 N   0  0  0  0  0  0  0  0  0  0  0  0
    8.8052  -15.4777   24.6049 C   0  0  1  0  0  0  0  0  0  0  0  0
    7.6175  -15.3367   25.5356 C   0  0  0  0  0  0  0  0  0  0  0  0
    7.2486  -13.9659   25.8615 C   0  0  0  0  0  0  0  0  0  0  0  0
    6.4320  -13.2751   24.9889 C   0  0  0  0  0  0  0  0  0  0  0  0
    6.0577  -11.9828   25.2386 C   0  0  0  0  0  0  0  0  0  0  0  0
    6.4994  -11.3434   26.3853 C   0  0  0  0  0  0  0  0  0  0  0  0
    7.3111  -12.0009   27.2717 C   0  0  0  0  0  0  0  0  0  0  0  0
    7.6771  -13.3177   26.9920 C   0  0  0  0  0  0  0  0  0  0  0  0
    9.8186  -16.2995   25.2787 C   0  0  0  0  0  0  0  0  0  0  0  0
   10.1128  -16.0986   26.4920 O   0  0  0  0  0  0  0  0  0  0  0  0
   10.1791  -22.2507   25.5760 N   0  0  0  0  0  0  0  0  0  0  0  0
    9.7448  -21.2929   26.5669 C   0  0  0  0  0  0  0  0  0  0  0  0
    8.9885  -21.7313   27.4361 O   0  0  0  0  0  0  0  0  0  0  0  0
   10.2108  -19.9338   26.4718 C   0  0  0  0  0  0  0  0  0  0  0  0
   11.2164  -19.5541   25.4696 C   0  0  0  0  0  0  0  0  0  0  0  0
   11.5743  -18.1317   25.2961 C   0  0  2  0  0  0  0  0  0  0  0  0
   10.5323  -17.3563   24.6468 N   0  0  0  0  0  0  0  0  0  0  0  0
   12.8678  -17.8392   24.7017 C   0  0  0  0  0  0  0  0  0  0  0  0
   14.0291  -17.8796   25.4565 O   0  0  0  0  0  0  0  0  0  0  0  0
   12.9682  -17.5376   23.4921 O   0  0  0  0  0  0  0  0  0  0  0  0
  2  3  2  0
  2  1  1  0
  4  2  1  0
  5  6  1  0
  5  4  1  0
  6  7  1  1
  8  6  1  0
  9  8  2  0
 10  8  1  0
 11 12  1  1
 11 10  1  0
 12 13  1  0
 13 18  2  0
 14 13  1  0
 14 15  2  0
 15 16  1  0
 16 17  2  0
 18 17  1  0
 19 20  2  0
 19 11  1  0
 22 21  1  0
 22 24  1  0
 23 22  2  0
 25 24  1  0
 26 25  1  6
 26 27  1  0
 27 19  1  0
 28 26  1  0
 28 29  1  0
 30 28  2  0
M  END
$$$$
