QFQ.pdb
     RDKit          3D

 30 30  0  0  1  0  0  0  0  0999 V2000
    8.4954  -12.5264   16.7492 N   0  0  0  0  0  0  0  0  0  0  0  0
    7.9331  -13.8451   16.6349 C   0  0  0  0  0  0  0  0  0  0  0  0
    7.6384  -14.2686   15.4980 O   0  0  0  0  0  0  0  0  0  0  0  0
    7.7134  -14.6581   17.8242 C   0  0  0  0  0  0  0  0  0  0  0  0
    8.1585  -14.0871   19.1300 C   0  0  0  0  0  0  0  0  0  0  0  0
    9.0535  -14.9702   19.9529 C   0  0  2  0  0  0  0  0  0  0  0  0
    8.8459  -16.3434   19.7770 N   0  0  0  0  0  0  0  0  0  0  0  0
    9.1168  -14.5231   21.3702 C   0  0  0  0  0  0  0  0  0  0  0  0
    9.7093  -13.4462   21.5981 O   0  0  0  0  0  0  0  0  0  0  0  0
    8.5577  -15.2274   22.4636 N   0  0  0  0  0  0  0  0  0  0  0  0
    8.1983  -14.7147   23.7333 C   0  0  1  0  0  0  0  0  0  0  0  0
    7.0632  -13.7108   23.7533 C   0  0  0  0  0  0  0  0  0  0  0  0
    6.8336  -13.0648   25.0383 C   0  0  0  0  0  0  0  0  0  0  0  0
    7.6926  -12.0606   25.4370 C   0  0  0  0  0  0  0  0  0  0  0  0
    7.5310  -11.4222   26.6365 C   0  0  0  0  0  0  0  0  0  0  0  0
    6.4895  -11.7806   27.4767 C   0  0  0  0  0  0  0  0  0  0  0  0
    5.6193  -12.7734   27.1107 C   0  0  0  0  0  0  0  0  0  0  0  0
    5.8077  -13.4073   25.8823 C   0  0  0  0  0  0  0  0  0  0  0  0
    7.9539  -15.7017   24.7928 C   0  0  0  0  0  0  0  0  0  0  0  0
    7.3501  -15.3754   25.8547 O   0  0  0  0  0  0  0  0  0  0  0  0
   12.5723  -16.7474   21.6822 N   0  0  0  0  0  0  0  0  0  0  0  0
   13.0348  -16.8488   23.0474 C   0  0  0  0  0  0  0  0  0  0  0  0
   14.2219  -16.5711   23.2299 O   0  0  0  0  0  0  0  0  0  0  0  0
   12.1048  -17.2563   24.0684 C   0  0  0  0  0  0  0  0  0  0  0  0
   10.6590  -17.0663   23.8852 C   0  0  0  0  0  0  0  0  0  0  0  0
    9.7240  -17.5144   24.9370 C   0  0  2  0  0  0  0  0  0  0  0  0
    8.3611  -17.0634   24.7186 N   0  0  0  0  0  0  0  0  0  0  0  0
   10.1175  -17.2869   26.3173 C   0  0  0  0  0  0  0  0  0  0  0  0
   10.0586  -16.0222   26.8804 O   0  0  0  0  0  0  0  0  0  0  0  0
   10.5255  -18.2266   27.0347 O   0  0  0  0  0  0  0  0  0  0  0  0
  2  3  2  0
  2  1  1  0
  4  2  1  0
  5  6  1  0
  5  4  1  0
  6  7  1  1
  8  6  1  0
  9  8  2  0
 10  8  1  0
 11 12  1  6
 11 10  1  0
 12 13  1  0
 13 18  2  0
 14 13  1  0
 14 15  2  0
 15 16  1  0
 16 17  2  0
 18 17  1  0
 19 20  2  0
 19 11  1  0
 22 21  1  0
 22 24  1  0
 23 22  2  0
 25 24  1  0
 26 25  1  6
 26 27  1  0
 27 19  1  0
 28 26  1  0
 28 29  1  0
 30 28  2  0
M  END
$$$$
