QFQ.pdb
     RDKit          3D

 30 30  0  0  1  0  0  0  0  0999 V2000
    8.5862  -12.6920   18.0801 N   0  0  0  0  0  0  0  0  0  0  0  0
    8.1243  -13.8271   17.3276 C   0  0  0  0  0  0  0  0  0  0  0  0
    7.2828  -13.6386   16.4247 O   0  0  0  0  0  0  0  0  0  0  0  0
    8.6299  -15.1617   17.6222 C   0  0  0  0  0  0  0  0  0  0  0  0
    9.6196  -15.2839   18.7335 C   0  0  0  0  0  0  0  0  0  0  0  0
    9.2305  -16.2118   19.8496 C   0  0  2  0  0  0  0  0  0  0  0  0
    8.0649  -16.9517   19.6184 N   0  0  0  0  0  0  0  0  0  0  0  0
    9.2913  -15.5368   21.1737 C   0  0  0  0  0  0  0  0  0  0  0  0
   10.4234  -15.2091   21.5907 O   0  0  0  0  0  0  0  0  0  0  0  0
    8.1665  -15.2449   21.9824 N   0  0  0  0  0  0  0  0  0  0  0  0
    8.1565  -14.7364   23.3036 C   0  0  1  0  0  0  0  0  0  0  0  0
    7.0638  -13.7377   23.6284 C   0  0  0  0  0  0  0  0  0  0  0  0
    7.1210  -13.1758   24.9709 C   0  0  0  0  0  0  0  0  0  0  0  0
    6.2652  -13.6726   25.9333 C   0  0  0  0  0  0  0  0  0  0  0  0
    6.2685  -13.1794   27.2096 C   0  0  0  0  0  0  0  0  0  0  0  0
    7.1423  -12.1619   27.5564 C   0  0  0  0  0  0  0  0  0  0  0  0
    8.0045  -11.6467   26.6247 C   0  0  0  0  0  0  0  0  0  0  0  0
    7.9796  -12.1682   25.3311 C   0  0  0  0  0  0  0  0  0  0  0  0
    8.2070  -15.7267   24.3867 C   0  0  0  0  0  0  0  0  0  0  0  0
    7.2788  -16.5725   24.5344 O   0  0  0  0  0  0  0  0  0  0  0  0
   12.2497  -19.2168   22.8846 N   0  0  0  0  0  0  0  0  0  0  0  0
   11.8433  -19.8871   24.0984 C   0  0  0  0  0  0  0  0  0  0  0  0
   12.1737  -21.0713   24.1892 O   0  0  0  0  0  0  0  0  0  0  0  0
   11.1019  -19.1476   25.0868 C   0  0  0  0  0  0  0  0  0  0  0  0
   10.5543  -17.8199   24.7753 C   0  0  0  0  0  0  0  0  0  0  0  0
    9.8181  -17.0711   25.8138 C   0  0  2  0  0  0  0  0  0  0  0  0
    9.2680  -15.8170   25.3311 N   0  0  0  0  0  0  0  0  0  0  0  0
   10.4851  -16.8734   27.0898 C   0  0  0  0  0  0  0  0  0  0  0  0
   11.4023  -15.8502   27.2682 O   0  0  0  0  0  0  0  0  0  0  0  0
   10.2533  -17.6255   28.0618 O   0  0  0  0  0  0  0  0  0  0  0  0
  2  3  2  0
  2  1  1  0
  4  2  1  0
  5  6  1  0
  5  4  1  0
  6  7  1  6
  8  6  1  0
  9  8  2  0
 10  8  1  0
 11 12  1  1
 11 10  1  0
 12 13  1  0
 13 18  2  0
 14 13  1  0
 14 15  2  0
 15 16  1  0
 16 17  2  0
 18 17  1  0
 19 20  2  0
 19 11  1  0
 22 21  1  0
 22 24  1  0
 23 22  2  0
 25 24  1  0
 26 25  1  6
 26 27  1  0
 27 19  1  0
 28 26  1  0
 28 29  1  0
 30 28  2  0
M  END
$$$$
