QFQ.pdb
     RDKit          3D

 30 30  0  0  1  0  0  0  0  0999 V2000
   11.7536  -16.8834   16.6234 N   0  0  0  0  0  0  0  0  0  0  0  0
   10.3369  -16.8611   16.3767 C   0  0  0  0  0  0  0  0  0  0  0  0
    9.9205  -17.2602   15.2695 O   0  0  0  0  0  0  0  0  0  0  0  0
    9.4183  -16.3790   17.4001 C   0  0  0  0  0  0  0  0  0  0  0  0
   10.0043  -16.0222   18.7263 C   0  0  0  0  0  0  0  0  0  0  0  0
    9.3641  -16.6795   19.9163 C   0  0  2  0  0  0  0  0  0  0  0  0
    8.0951  -17.2195   19.6767 N   0  0  0  0  0  0  0  0  0  0  0  0
    9.4638  -15.8313   21.1342 C   0  0  0  0  0  0  0  0  0  0  0  0
   10.6112  -15.4881   21.4927 O   0  0  0  0  0  0  0  0  0  0  0  0
    8.3596  -15.3929   21.9041 N   0  0  0  0  0  0  0  0  0  0  0  0
    8.3794  -14.7929   23.1862 C   0  0  1  0  0  0  0  0  0  0  0  0
    7.2060  -13.8953   23.5237 C   0  0  0  0  0  0  0  0  0  0  0  0
    7.2053  -13.3648   24.8802 C   0  0  0  0  0  0  0  0  0  0  0  0
    7.9211  -12.2136   25.1409 C   0  0  0  0  0  0  0  0  0  0  0  0
    7.9631  -11.6725   26.3970 C   0  0  0  0  0  0  0  0  0  0  0  0
    7.2788  -12.2812   27.4363 C   0  0  0  0  0  0  0  0  0  0  0  0
    6.5590  -13.4249   27.2110 C   0  0  0  0  0  0  0  0  0  0  0  0
    6.5337  -13.9548   25.9207 C   0  0  0  0  0  0  0  0  0  0  0  0
    8.6108  -15.6901   24.3255 C   0  0  0  0  0  0  0  0  0  0  0  0
    7.8237  -16.6508   24.5631 O   0  0  0  0  0  0  0  0  0  0  0  0
   13.3427  -18.8328   23.7127 N   0  0  0  0  0  0  0  0  0  0  0  0
   13.1028  -19.1846   25.0935 C   0  0  0  0  0  0  0  0  0  0  0  0
   13.7922  -20.1057   25.5362 O   0  0  0  0  0  0  0  0  0  0  0  0
   12.1042  -18.4571   25.8333 C   0  0  0  0  0  0  0  0  0  0  0  0
   11.3949  -17.3244   25.2220 C   0  0  0  0  0  0  0  0  0  0  0  0
   10.2901  -16.6730   25.9544 C   0  0  2  0  0  0  0  0  0  0  0  0
    9.7026  -15.5607   25.2292 N   0  0  0  0  0  0  0  0  0  0  0  0
   10.5371  -16.3017   27.3375 C   0  0  0  0  0  0  0  0  0  0  0  0
   10.5640  -17.2558   28.3420 O   0  0  0  0  0  0  0  0  0  0  0  0
   10.7274  -15.1086   27.6607 O   0  0  0  0  0  0  0  0  0  0  0  0
  2  3  2  0
  2  1  1  0
  4  2  1  0
  5  6  1  0
  5  4  1  0
  6  7  1  6
  8  6  1  0
  9  8  2  0
 10  8  1  0
 11 12  1  1
 11 10  1  0
 12 13  1  0
 13 18  2  0
 14 13  1  0
 14 15  2  0
 15 16  1  0
 16 17  2  0
 18 17  1  0
 19 20  2  0
 19 11  1  0
 22 21  1  0
 22 24  1  0
 23 22  2  0
 25 24  1  0
 26 25  1  6
 26 27  1  0
 27 19  1  0
 28 26  1  0
 28 29  1  0
 30 28  2  0
M  END
$$$$
