QFQ.pdb
     RDKit          3D

 30 30  0  0  1  0  0  0  0  0999 V2000
    6.6361  -19.3494   18.8900 N   0  0  0  0  0  0  0  0  0  0  0  0
    7.9010  -19.8111   19.3949 C   0  0  0  0  0  0  0  0  0  0  0  0
    7.9609  -20.9558   19.8897 O   0  0  0  0  0  0  0  0  0  0  0  0
    9.0779  -18.9542   19.3288 C   0  0  0  0  0  0  0  0  0  0  0  0
    9.3687  -18.1052   20.5221 C   0  0  0  0  0  0  0  0  0  0  0  0
    9.2985  -16.6214   20.2953 C   0  0  2  0  0  0  0  0  0  0  0  0
   10.1536  -16.1389   19.2975 N   0  0  0  0  0  0  0  0  0  0  0  0
    9.3413  -15.8656   21.5758 C   0  0  0  0  0  0  0  0  0  0  0  0
   10.4657  -15.4950   21.9771 O   0  0  0  0  0  0  0  0  0  0  0  0
    8.2075  -15.5426   22.3597 N   0  0  0  0  0  0  0  0  0  0  0  0
    8.1679  -14.7942   23.5608 C   0  0  1  0  0  0  0  0  0  0  0  0
    6.9596  -13.9001   23.7532 C   0  0  0  0  0  0  0  0  0  0  0  0
    6.9434  -13.1442   24.9980 C   0  0  0  0  0  0  0  0  0  0  0  0
    6.0741  -13.5331   25.9972 C   0  0  0  0  0  0  0  0  0  0  0  0
    6.0095  -12.8575   27.1853 C   0  0  0  0  0  0  0  0  0  0  0  0
    6.8266  -11.7603   27.4031 C   0  0  0  0  0  0  0  0  0  0  0  0
    7.7004  -11.3483   26.4318 C   0  0  0  0  0  0  0  0  0  0  0  0
    7.7453  -12.0555   25.2301 C   0  0  0  0  0  0  0  0  0  0  0  0
    8.3857  -15.5421   24.8057 C   0  0  0  0  0  0  0  0  0  0  0  0
    8.2621  -14.9772   25.9302 O   0  0  0  0  0  0  0  0  0  0  0  0
   13.3055  -18.2247   22.7038 N   0  0  0  0  0  0  0  0  0  0  0  0
   13.4362  -18.2072   24.1427 C   0  0  0  0  0  0  0  0  0  0  0  0
   14.3549  -18.8885   24.6026 O   0  0  0  0  0  0  0  0  0  0  0  0
   12.5111  -17.4198   24.9158 C   0  0  0  0  0  0  0  0  0  0  0  0
   11.1356  -17.2028   24.4458 C   0  0  0  0  0  0  0  0  0  0  0  0
   10.0051  -17.4116   25.3729 C   0  0  2  0  0  0  0  0  0  0  0  0
    8.7421  -16.9192   24.8527 N   0  0  0  0  0  0  0  0  0  0  0  0
   10.1867  -16.9839   26.7499 C   0  0  0  0  0  0  0  0  0  0  0  0
   10.4391  -15.6574   27.0611 O   0  0  0  0  0  0  0  0  0  0  0  0
   10.1252  -17.8031   27.6930 O   0  0  0  0  0  0  0  0  0  0  0  0
  2  3  2  0
  2  1  1  0
  4  2  1  0
  5  6  1  0
  5  4  1  0
  6  7  1  6
  8  6  1  0
  9  8  2  0
 10  8  1  0
 11 12  1  1
 11 10  1  0
 12 13  1  0
 13 18  2  0
 14 13  1  0
 14 15  2  0
 15 16  1  0
 16 17  2  0
 18 17  1  0
 19 20  2  0
 19 11  1  0
 22 21  1  0
 22 24  1  0
 23 22  2  0
 25 24  1  0
 26 25  1  6
 26 27  1  0
 27 19  1  0
 28 26  1  0
 28 29  1  0
 30 28  2  0
M  END
$$$$
