QFQ.pdb
     RDKit          3D

 30 30  0  0  1  0  0  0  0  0999 V2000
    8.2820  -12.7745   17.8942 N   0  0  0  0  0  0  0  0  0  0  0  0
    8.2675  -13.9050   17.0054 C   0  0  0  0  0  0  0  0  0  0  0  0
    7.5963  -13.8264   15.9556 O   0  0  0  0  0  0  0  0  0  0  0  0
    9.0188  -15.1098   17.3333 C   0  0  0  0  0  0  0  0  0  0  0  0
    9.7811  -15.1074   18.6172 C   0  0  0  0  0  0  0  0  0  0  0  0
    9.2754  -16.0488   19.6736 C   0  0  2  0  0  0  0  0  0  0  0  0
    8.0726  -16.6922   19.3595 N   0  0  0  0  0  0  0  0  0  0  0  0
    9.3216  -15.4340   21.0273 C   0  0  0  0  0  0  0  0  0  0  0  0
   10.4052  -14.9192   21.3787 O   0  0  0  0  0  0  0  0  0  0  0  0
    8.2335  -15.3939   21.9322 N   0  0  0  0  0  0  0  0  0  0  0  0
    8.2206  -14.8795   23.2511 C   0  0  1  0  0  0  0  0  0  0  0  0
    7.0120  -14.0493   23.6342 C   0  0  0  0  0  0  0  0  0  0  0  0
    7.0646  -13.4611   24.9656 C   0  0  0  0  0  0  0  0  0  0  0  0
    7.8375  -12.3342   25.1612 C   0  0  0  0  0  0  0  0  0  0  0  0
    7.9310  -11.7417   26.3910 C   0  0  0  0  0  0  0  0  0  0  0  0
    7.2422  -12.2724   27.4694 C   0  0  0  0  0  0  0  0  0  0  0  0
    6.4665  -13.3902   27.3090 C   0  0  0  0  0  0  0  0  0  0  0  0
    6.3894  -13.9737   26.0442 C   0  0  0  0  0  0  0  0  0  0  0  0
    8.4754  -15.8410   24.3314 C   0  0  0  0  0  0  0  0  0  0  0  0
    7.5971  -16.6869   24.6657 O   0  0  0  0  0  0  0  0  0  0  0  0
   13.7037  -17.8666   24.1597 N   0  0  0  0  0  0  0  0  0  0  0  0
   12.5033  -18.2432   23.4491 C   0  0  0  0  0  0  0  0  0  0  0  0
   12.6585  -18.5473   22.2645 O   0  0  0  0  0  0  0  0  0  0  0  0
   11.2470  -18.2358   24.1528 C   0  0  0  0  0  0  0  0  0  0  0  0
   11.1725  -17.7854   25.5498 C   0  0  0  0  0  0  0  0  0  0  0  0
   10.0239  -16.9706   25.9945 C   0  0  2  0  0  0  0  0  0  0  0  0
    9.6905  -15.9018   25.0699 N   0  0  0  0  0  0  0  0  0  0  0  0
   10.0524  -16.4696   27.3584 C   0  0  0  0  0  0  0  0  0  0  0  0
   10.1322  -17.3343   28.4382 O   0  0  0  0  0  0  0  0  0  0  0  0
   10.0005  -15.2428   27.5958 O   0  0  0  0  0  0  0  0  0  0  0  0
  2  3  2  0
  2  1  1  0
  4  2  1  0
  5  6  1  0
  5  4  1  0
  6  7  1  6
  8  6  1  0
  9  8  2  0
 10  8  1  0
 11 12  1  1
 11 10  1  0
 12 13  1  0
 13 18  2  0
 14 13  1  0
 14 15  2  0
 15 16  1  0
 16 17  2  0
 18 17  1  0
 19 20  2  0
 19 11  1  0
 22 21  1  0
 22 24  1  0
 23 22  2  0
 25 24  1  0
 26 25  1  6
 26 27  1  0
 27 19  1  0
 28 26  1  0
 28 29  1  0
 30 28  2  0
M  END
$$$$
