QFQ.pdb
     RDKit          3D

 30 30  0  0  1  0  0  0  0  0999 V2000
    8.5883  -12.2755   18.3943 N   0  0  0  0  0  0  0  0  0  0  0  0
    8.3506  -13.6034   17.8959 C   0  0  0  0  0  0  0  0  0  0  0  0
    8.1646  -13.7534   16.6705 O   0  0  0  0  0  0  0  0  0  0  0  0
    8.3261  -14.7395   18.8083 C   0  0  0  0  0  0  0  0  0  0  0  0
    8.5431  -14.4526   20.2574 C   0  0  0  0  0  0  0  0  0  0  0  0
    8.5021  -15.6470   21.1684 C   0  0  2  0  0  0  0  0  0  0  0  0
    7.3816  -16.4703   21.0068 N   0  0  0  0  0  0  0  0  0  0  0  0
    8.8093  -15.2771   22.5761 C   0  0  0  0  0  0  0  0  0  0  0  0
    9.8854  -14.6749   22.7812 O   0  0  0  0  0  0  0  0  0  0  0  0
    7.9745  -15.5584   23.6843 N   0  0  0  0  0  0  0  0  0  0  0  0
    8.2425  -15.3227   25.0542 C   0  0  1  0  0  0  0  0  0  0  0  0
    7.0585  -14.9146   25.9077 C   0  0  0  0  0  0  0  0  0  0  0  0
    6.9146  -13.4806   26.1176 C   0  0  0  0  0  0  0  0  0  0  0  0
    8.0458  -12.7327   26.3758 C   0  0  0  0  0  0  0  0  0  0  0  0
    7.9718  -11.3830   26.5880 C   0  0  0  0  0  0  0  0  0  0  0  0
    6.7445  -10.7418   26.5459 C   0  0  0  0  0  0  0  0  0  0  0  0
    5.6027  -11.4551   26.2922 C   0  0  0  0  0  0  0  0  0  0  0  0
    5.7075  -12.8299   26.0797 C   0  0  0  0  0  0  0  0  0  0  0  0
    8.9791  -16.3739   25.7676 C   0  0  0  0  0  0  0  0  0  0  0  0
    9.2813  -16.2384   26.9879 O   0  0  0  0  0  0  0  0  0  0  0  0
    6.7034  -20.9953   25.4204 N   0  0  0  0  0  0  0  0  0  0  0  0
    7.4793  -21.2623   26.6098 C   0  0  0  0  0  0  0  0  0  0  0  0
    6.8838  -21.8537   27.5128 O   0  0  0  0  0  0  0  0  0  0  0  0
    8.8522  -20.8307   26.6563 C   0  0  0  0  0  0  0  0  0  0  0  0
    9.4151  -20.0030   25.5801 C   0  0  0  0  0  0  0  0  0  0  0  0
   10.0083  -18.6896   25.9028 C   0  0  2  0  0  0  0  0  0  0  0  0
    9.4018  -17.5936   25.1682 N   0  0  0  0  0  0  0  0  0  0  0  0
   11.4573  -18.5862   25.8613 C   0  0  0  0  0  0  0  0  0  0  0  0
   12.2411  -19.0816   26.8910 O   0  0  0  0  0  0  0  0  0  0  0  0
   12.0375  -18.0420   24.8962 O   0  0  0  0  0  0  0  0  0  0  0  0
  2  3  2  0
  2  1  1  0
  4  2  1  0
  5  6  1  0
  5  4  1  0
  6  7  1  1
  8  6  1  0
  9  8  2  0
 10  8  1  0
 11 12  1  1
 11 10  1  0
 12 13  1  0
 13 18  2  0
 14 13  1  0
 14 15  2  0
 15 16  1  0
 16 17  2  0
 18 17  1  0
 19 20  2  0
 19 11  1  0
 22 21  1  0
 22 24  1  0
 23 22  2  0
 25 24  1  0
 26 25  1  6
 26 27  1  0
 27 19  1  0
 28 26  1  0
 28 29  1  0
 30 28  2  0
M  END
$$$$
