KGN.pdb
     RDKit          3D

 22 21  0  0  1  0  0  0  0  0999 V2000
   19.7870  -14.2964  -19.2941 N   0  0  0  0  0  0  0  0  0  0  0  0
   18.4667  -14.5590  -18.8033 C   0  0  1  0  0  0  0  0  0  0  0  0
   18.3238  -15.7585  -17.9212 C   0  0  0  0  0  0  0  0  0  0  0  0
   19.5639  -16.3106  -17.3477 C   0  0  0  0  0  0  0  0  0  0  0  0
   19.5160  -17.6358  -16.7001 C   0  0  0  0  0  0  0  0  0  0  0  0
   20.7842  -18.1339  -16.1012 C   0  0  0  0  0  0  0  0  0  0  0  0
   20.6795  -19.3996  -15.4255 N   0  0  0  0  0  0  0  0  0  0  0  0
   18.0765  -13.3779  -17.9472 C   0  0  0  0  0  0  0  0  0  0  0  0
   16.9697  -13.3407  -17.3516 O   0  0  0  0  0  0  0  0  0  0  0  0
   18.9380  -12.2676  -17.7806 N   0  0  0  0  0  0  0  0  0  0  0  0
   18.4993  -11.0941  -17.0154 C   0  0  0  0  0  0  0  0  0  0  0  0
   19.6001  -10.1436  -16.8144 C   0  0  0  0  0  0  0  0  0  0  0  0
   20.7285  -10.4357  -17.2653 O   0  0  0  0  0  0  0  0  0  0  0  0
   20.8457   -6.9808  -18.3997 N   0  0  0  0  0  0  0  0  0  0  0  0
   20.1543   -6.1579  -17.4834 C   0  0  0  0  0  0  0  0  0  0  0  0
   19.7748   -5.0196  -17.8507 O   0  0  0  0  0  0  0  0  0  0  0  0
   19.8810   -6.6230  -16.1199 C   0  0  0  0  0  0  0  0  0  0  0  0
   20.4280   -8.0164  -15.8559 C   0  0  2  0  0  0  0  0  0  0  0  0
   19.3605   -8.9500  -16.1315 N   0  0  0  0  0  0  0  0  0  0  0  0
   20.9754   -8.1534  -14.5059 C   0  0  0  0  0  0  0  0  0  0  0  0
   22.1915   -7.5921  -14.1632 O   0  0  0  0  0  0  0  0  0  0  0  0
   20.3449   -8.7881  -13.6289 O   0  0  0  0  0  0  0  0  0  0  0  0
  2  1  1  1
  2  8  1  0
  2  3  1  0
  3  4  1  0
  4  5  1  0
  5  6  1  0
  6  7  1  0
  8  9  2  0
 10 11  1  0
 10  8  1  0
 11 12  1  0
 12 13  2  0
 12 19  1  0
 14 15  1  0
 15 17  1  0
 16 15  2  0
 18 17  1  1
 18 20  1  0
 19 18  1  0
 20 21  1  0
 22 20  2  0
M  END
$$$$
