KGN.pdb
     RDKit          3D

 22 21  0  0  1  0  0  0  0  0999 V2000
   26.3406  -21.3312  -13.8270 N   0  0  0  0  0  0  0  0  0  0  0  0
   25.9113  -20.4254  -14.8509 C   0  0  1  0  0  0  0  0  0  0  0  0
   26.1724  -20.8588  -16.2584 C   0  0  0  0  0  0  0  0  0  0  0  0
   26.4115  -22.2966  -16.4754 C   0  0  0  0  0  0  0  0  0  0  0  0
   26.8130  -22.7528  -17.8202 C   0  0  0  0  0  0  0  0  0  0  0  0
   27.0571  -24.2115  -17.9866 C   0  0  0  0  0  0  0  0  0  0  0  0
   27.4599  -24.6120  -19.3083 N   0  0  0  0  0  0  0  0  0  0  0  0
   24.4101  -20.3136  -14.7332 C   0  0  0  0  0  0  0  0  0  0  0  0
   23.6921  -20.0811  -15.7389 O   0  0  0  0  0  0  0  0  0  0  0  0
   23.7516  -20.4654  -13.4898 N   0  0  0  0  0  0  0  0  0  0  0  0
   22.2953  -20.3072  -13.3953 C   0  0  0  0  0  0  0  0  0  0  0  0
   21.5993  -21.5638  -13.6991 C   0  0  0  0  0  0  0  0  0  0  0  0
   22.2759  -22.5401  -14.0876 O   0  0  0  0  0  0  0  0  0  0  0  0
   17.4023  -23.3751  -10.7732 N   0  0  0  0  0  0  0  0  0  0  0  0
   18.4041  -22.7354  -11.5362 C   0  0  0  0  0  0  0  0  0  0  0  0
   18.5227  -21.4882  -11.4652 O   0  0  0  0  0  0  0  0  0  0  0  0
   19.2962  -23.5139  -12.4012 C   0  0  0  0  0  0  0  0  0  0  0  0
   19.4980  -22.8714  -13.7639 C   0  0  2  0  0  0  0  0  0  0  0  0
   20.2134  -21.6350  -13.5477 N   0  0  0  0  0  0  0  0  0  0  0  0
   18.2381  -22.6865  -14.4846 C   0  0  0  0  0  0  0  0  0  0  0  0
   17.6244  -23.7375  -15.1403 O   0  0  0  0  0  0  0  0  0  0  0  0
   17.6888  -21.5611  -14.5200 O   0  0  0  0  0  0  0  0  0  0  0  0
  2  1  1  1
  2  8  1  0
  2  3  1  0
  3  4  1  0
  4  5  1  0
  5  6  1  0
  6  7  1  0
  8  9  2  0
 10 11  1  0
 10  8  1  0
 11 12  1  0
 12 13  2  0
 12 19  1  0
 14 15  1  0
 15 17  1  0
 16 15  2  0
 18 17  1  1
 18 20  1  0
 19 18  1  0
 20 21  1  0
 22 20  2  0
M  END
$$$$
