KGN.pdb
     RDKit          3D

 22 21  0  0  1  0  0  0  0  0999 V2000
   25.7694  -21.1483  -15.1547 N   0  0  0  0  0  0  0  0  0  0  0  0
   26.4185  -20.9613  -13.8910 C   0  0  1  0  0  0  0  0  0  0  0  0
   27.3117  -19.7662  -13.7856 C   0  0  0  0  0  0  0  0  0  0  0  0
   28.0600  -19.3894  -14.9978 C   0  0  0  0  0  0  0  0  0  0  0  0
   27.3512  -18.6668  -16.0717 C   0  0  0  0  0  0  0  0  0  0  0  0
   28.1523  -18.2954  -17.2698 C   0  0  0  0  0  0  0  0  0  0  0  0
   27.4010  -17.6931  -18.3386 N   0  0  0  0  0  0  0  0  0  0  0  0
   25.3287  -20.7441  -12.8687 C   0  0  0  0  0  0  0  0  0  0  0  0
   25.5950  -20.6292  -11.6452 O   0  0  0  0  0  0  0  0  0  0  0  0
   23.9669  -20.6611  -13.2445 N   0  0  0  0  0  0  0  0  0  0  0  0
   22.9340  -20.3795  -12.2401 C   0  0  0  0  0  0  0  0  0  0  0  0
   21.9953  -21.5007  -12.1084 C   0  0  0  0  0  0  0  0  0  0  0  0
   22.0580  -22.4305  -12.9411 O   0  0  0  0  0  0  0  0  0  0  0  0
   19.0760  -24.6432   -8.3827 N   0  0  0  0  0  0  0  0  0  0  0  0
   18.6327  -23.5495   -9.1588 C   0  0  0  0  0  0  0  0  0  0  0  0
   17.4433  -23.5262   -9.5579 O   0  0  0  0  0  0  0  0  0  0  0  0
   19.5464  -22.4534   -9.4961 C   0  0  0  0  0  0  0  0  0  0  0  0
   20.1351  -22.5901  -10.8908 C   0  0  2  0  0  0  0  0  0  0  0  0
   21.0661  -21.4994  -11.0667 N   0  0  0  0  0  0  0  0  0  0  0  0
   19.1044  -22.6373  -11.9284 C   0  0  0  0  0  0  0  0  0  0  0  0
   18.6076  -21.4811  -12.5007 O   0  0  0  0  0  0  0  0  0  0  0  0
   18.6503  -23.7374  -12.3194 O   0  0  0  0  0  0  0  0  0  0  0  0
  2  1  1  6
  2  8  1  0
  2  3  1  0
  3  4  1  0
  4  5  1  0
  5  6  1  0
  6  7  1  0
  8  9  2  0
 10 11  1  0
 10  8  1  0
 11 12  1  0
 12 13  2  0
 12 19  1  0
 14 15  1  0
 15 17  1  0
 16 15  2  0
 18 17  1  1
 18 20  1  0
 19 18  1  0
 20 21  1  0
 22 20  2  0
M  END
$$$$
