KGN.pdb
     RDKit          3D

 22 21  0  0  1  0  0  0  0  0999 V2000
   20.5374  -21.5118  -10.9513 N   0  0  0  0  0  0  0  0  0  0  0  0
   20.1927  -22.6323  -11.7752 C   0  0  1  0  0  0  0  0  0  0  0  0
   18.8014  -23.1576  -11.6153 C   0  0  0  0  0  0  0  0  0  0  0  0
   18.3752  -23.4984  -10.2465 C   0  0  0  0  0  0  0  0  0  0  0  0
   17.0143  -24.0309  -10.0405 C   0  0  0  0  0  0  0  0  0  0  0  0
   16.6245  -24.3463   -8.6391 C   0  0  0  0  0  0  0  0  0  0  0  0
   15.3146  -24.9218   -8.4891 N   0  0  0  0  0  0  0  0  0  0  0  0
   20.2875  -22.1658  -13.2082 C   0  0  0  0  0  0  0  0  0  0  0  0
   20.0039  -22.9319  -14.1641 O   0  0  0  0  0  0  0  0  0  0  0  0
   20.6983  -20.8511  -13.5331 N   0  0  0  0  0  0  0  0  0  0  0  0
   20.7316  -20.4068  -14.9319 C   0  0  0  0  0  0  0  0  0  0  0  0
   21.0805  -18.9843  -15.0337 C   0  0  0  0  0  0  0  0  0  0  0  0
   20.9055  -18.2554  -14.0337 O   0  0  0  0  0  0  0  0  0  0  0  0
   23.3200  -14.7151  -16.7832 N   0  0  0  0  0  0  0  0  0  0  0  0
   23.4178  -15.6900  -17.8005 C   0  0  0  0  0  0  0  0  0  0  0  0
   24.1489  -15.4636  -18.7949 O   0  0  0  0  0  0  0  0  0  0  0  0
   22.6771  -16.9515  -17.7005 C   0  0  0  0  0  0  0  0  0  0  0  0
   21.9341  -17.0912  -16.3818 C   0  0  2  0  0  0  0  0  0  0  0  0
   21.5937  -18.4874  -16.2330 N   0  0  0  0  0  0  0  0  0  0  0  0
   20.7721  -16.2058  -16.3005 C   0  0  0  0  0  0  0  0  0  0  0  0
   20.7676  -15.1004  -15.4703 O   0  0  0  0  0  0  0  0  0  0  0  0
   19.7512  -16.4370  -16.9889 O   0  0  0  0  0  0  0  0  0  0  0  0
  2  1  1  1
  2  8  1  0
  2  3  1  0
  3  4  1  0
  4  5  1  0
  5  6  1  0
  6  7  1  0
  8  9  2  0
 10 11  1  0
 10  8  1  0
 11 12  1  0
 12 13  2  0
 12 19  1  0
 14 15  1  0
 15 17  1  0
 16 15  2  0
 18 17  1  6
 18 20  1  0
 19 18  1  0
 20 21  1  0
 22 20  2  0
M  END
$$$$
