PWT.pdb
     RDKit          3D

 29 31  0  0  1  0  0  0  0  0999 V2000
   27.5772  -19.3540  -14.7493 N   0  0  0  0  0  0  0  0  0  0  0  0
   28.7774  -19.1158  -15.5662 C   0  0  0  0  0  0  0  0  0  0  0  0
   29.7303  -20.2312  -15.2524 C   0  0  0  0  0  0  0  0  0  0  0  0
   28.9361  -21.1688  -14.3808 C   0  0  0  0  0  0  0  0  0  0  0  0
   27.5063  -20.7822  -14.7309 C   0  0  1  0  0  0  0  0  0  0  0  0
   26.6209  -21.2886  -13.6368 C   0  0  0  0  0  0  0  0  0  0  0  0
   26.4544  -22.5240  -13.5609 O   0  0  0  0  0  0  0  0  0  0  0  0
   25.9907  -20.4339  -12.7198 N   0  0  0  0  0  0  0  0  0  0  0  0
   25.0798  -20.7869  -11.6942 C   0  0  1  0  0  0  0  0  0  0  0  0
   25.4515  -20.4022  -10.2821 C   0  0  0  0  0  0  0  0  0  0  0  0
   26.8097  -20.7976   -9.8885 C   0  0  0  0  0  0  0  0  0  0  0  0
   27.7849  -21.5511  -10.4837 C   0  0  0  0  0  0  0  0  0  0  0  0
   28.8671  -21.6018   -9.6920 N   0  0  0  0  0  0  0  0  0  0  0  0
   28.6421  -20.9027   -8.5847 C   0  0  0  0  0  0  0  0  0  0  0  0
   29.4393  -20.6482   -7.4695 C   0  0  0  0  0  0  0  0  0  0  0  0
   28.9627  -19.8776   -6.4442 C   0  0  0  0  0  0  0  0  0  0  0  0
   27.6973  -19.3453   -6.4979 C   0  0  0  0  0  0  0  0  0  0  0  0
   26.9224  -19.6191   -7.6302 C   0  0  0  0  0  0  0  0  0  0  0  0
   27.3682  -20.3820   -8.6651 C   0  0  0  0  0  0  0  0  0  0  0  0
   23.6884  -20.4969  -12.0609 C   0  0  0  0  0  0  0  0  0  0  0  0
   23.3764  -19.2950  -12.2601 O   0  0  0  0  0  0  0  0  0  0  0  0
   21.7745  -20.9461  -15.0567 C   0  0  0  0  0  0  0  0  0  0  0  0
   20.9555  -21.6055  -13.9779 C   0  0  1  0  0  0  0  0  0  0  0  0
   20.9189  -22.9764  -14.0581 O   0  0  0  0  0  0  0  0  0  0  0  0
   21.3490  -21.0861  -12.6106 C   0  0  2  0  0  0  0  0  0  0  0  0
   22.6624  -21.4622  -12.2100 N   0  0  0  0  0  0  0  0  0  0  0  0
   20.3018  -21.4349  -11.6341 C   0  0  0  0  0  0  0  0  0  0  0  0
   20.5770  -22.1486  -10.6376 O   0  0  0  0  0  0  0  0  0  0  0  0
   18.9881  -21.0078  -11.7543 O   0  0  0  0  0  0  0  0  0  0  0  0
  2  1  1  0
  3  4  1  0
  3  2  1  0
  4  5  1  0
  5  1  1  0
  5  6  1  1
  6  7  2  0
  6  8  1  0
  8  9  1  0
  9 20  1  0
  9 10  1  1
 10 11  1  0
 11 19  1  0
 12 11  2  0
 12 13  1  0
 13 14  1  0
 14 15  1  0
 15 16  2  0
 17 16  1  0
 18 17  2  0
 19 14  2  0
 19 18  1  0
 20 21  2  0
 23 22  1  6
 24 23  1  0
 25 23  1  0
 26 20  1  0
 25 26  1  1
 27 25  1  0
 27 29  1  0
 28 27  2  0
M  END
$$$$
