PWT.pdb
     RDKit          3D

 29 31  0  0  1  0  0  0  0  0999 V2000
   29.8560  -20.2615  -11.0038 N   0  0  0  0  0  0  0  0  0  0  0  0
   31.2841  -20.4915  -11.2718 C   0  0  0  0  0  0  0  0  0  0  0  0
   31.4531  -21.9749  -11.4182 C   0  0  0  0  0  0  0  0  0  0  0  0
   30.0473  -22.5161  -11.3987 C   0  0  0  0  0  0  0  0  0  0  0  0
   29.2361  -21.2873  -11.7840 C   0  0  1  0  0  0  0  0  0  0  0  0
   27.8201  -21.5329  -11.3692 C   0  0  0  0  0  0  0  0  0  0  0  0
   27.1573  -22.3446  -12.0486 O   0  0  0  0  0  0  0  0  0  0  0  0
   27.2349  -20.8919  -10.2669 N   0  0  0  0  0  0  0  0  0  0  0  0
   25.9608  -21.1389   -9.6993 C   0  0  1  0  0  0  0  0  0  0  0  0
   25.8665  -21.1330   -8.1923 C   0  0  0  0  0  0  0  0  0  0  0  0
   26.7084  -20.1217   -7.5407 C   0  0  0  0  0  0  0  0  0  0  0  0
   27.0261  -18.8236   -7.8356 C   0  0  0  0  0  0  0  0  0  0  0  0
   27.8471  -18.3315   -6.8951 N   0  0  0  0  0  0  0  0  0  0  0  0
   28.0860  -19.2647   -5.9799 C   0  0  0  0  0  0  0  0  0  0  0  0
   28.8595  -19.2507   -4.8199 C   0  0  0  0  0  0  0  0  0  0  0  0
   28.9374  -20.3661   -4.0312 C   0  0  0  0  0  0  0  0  0  0  0  0
   28.2577  -21.5113   -4.3687 C   0  0  0  0  0  0  0  0  0  0  0  0
   27.4906  -21.4934   -5.5386 C   0  0  0  0  0  0  0  0  0  0  0  0
   27.3940  -20.4002   -6.3432 C   0  0  0  0  0  0  0  0  0  0  0  0
   24.8938  -20.3970  -10.3818 C   0  0  0  0  0  0  0  0  0  0  0  0
   25.1034  -19.1857  -10.6468 O   0  0  0  0  0  0  0  0  0  0  0  0
   24.1535  -20.0280  -13.5891 C   0  0  0  0  0  0  0  0  0  0  0  0
   22.8200  -20.4657  -13.0417 C   0  0  1  0  0  0  0  0  0  0  0  0
   22.4678  -21.7499  -13.3787 O   0  0  0  0  0  0  0  0  0  0  0  0
   22.7276  -20.1788  -11.5574 C   0  0  2  0  0  0  0  0  0  0  0  0
   23.6413  -20.9340  -10.7689 N   0  0  0  0  0  0  0  0  0  0  0  0
   21.3241  -20.2936  -11.1228 C   0  0  0  0  0  0  0  0  0  0  0  0
   20.9953  -21.1468  -10.2614 O   0  0  0  0  0  0  0  0  0  0  0  0
   20.3123  -19.4894  -11.6250 O   0  0  0  0  0  0  0  0  0  0  0  0
  2  1  1  0
  3  4  1  0
  3  2  1  0
  4  5  1  0
  5  1  1  0
  5  6  1  1
  6  7  2  0
  6  8  1  0
  8  9  1  0
  9 20  1  0
  9 10  1  1
 10 11  1  0
 11 19  1  0
 12 11  2  0
 12 13  1  0
 13 14  1  0
 14 15  1  0
 15 16  2  0
 17 16  1  0
 18 17  2  0
 19 14  2  0
 19 18  1  0
 20 21  2  0
 23 22  1  1
 24 23  1  0
 25 23  1  0
 26 20  1  0
 25 26  1  1
 27 25  1  0
 27 29  1  0
 28 27  2  0
M  END
$$$$
