PWT.pdb
     RDKit          3D

 29 31  0  0  1  0  0  0  0  0999 V2000
   24.5290  -24.4656  -16.5777 N   0  0  0  0  0  0  0  0  0  0  0  0
   25.8683  -25.0167  -16.8365 C   0  0  0  0  0  0  0  0  0  0  0  0
   26.8426  -23.9138  -16.5448 C   0  0  0  0  0  0  0  0  0  0  0  0
   25.9991  -22.8155  -15.9520 C   0  0  0  0  0  0  0  0  0  0  0  0
   24.7750  -23.5855  -15.4777 C   0  0  1  0  0  0  0  0  0  0  0  0
   23.6670  -22.5989  -15.2866 C   0  0  0  0  0  0  0  0  0  0  0  0
   23.8572  -21.6766  -14.4662 O   0  0  0  0  0  0  0  0  0  0  0  0
   22.4539  -22.6818  -15.9865 N   0  0  0  0  0  0  0  0  0  0  0  0
   21.3560  -21.7892  -15.9222 C   0  0  1  0  0  0  0  0  0  0  0  0
   21.1541  -20.8618  -17.0967 C   0  0  0  0  0  0  0  0  0  0  0  0
   22.3450  -20.0839  -17.4607 C   0  0  0  0  0  0  0  0  0  0  0  0
   22.9742  -19.0028  -16.9053 C   0  0  0  0  0  0  0  0  0  0  0  0
   24.0488  -18.6755  -17.6392 N   0  0  0  0  0  0  0  0  0  0  0  0
   24.1553  -19.5083  -18.6690 C   0  0  0  0  0  0  0  0  0  0  0  0
   25.0862  -19.5908  -19.7038 C   0  0  0  0  0  0  0  0  0  0  0  0
   24.9706  -20.5652  -20.6574 C   0  0  0  0  0  0  0  0  0  0  0  0
   23.9406  -21.4729  -20.6099 C   0  0  0  0  0  0  0  0  0  0  0  0
   23.0231  -21.3636  -19.5593 C   0  0  0  0  0  0  0  0  0  0  0  0
   23.1112  -20.4055  -18.5969 C   0  0  0  0  0  0  0  0  0  0  0  0
   20.1329  -22.4441  -15.4428 C   0  0  0  0  0  0  0  0  0  0  0  0
   19.8667  -23.5860  -15.8972 O   0  0  0  0  0  0  0  0  0  0  0  0
   19.4340  -24.0170  -12.3600 C   0  0  0  0  0  0  0  0  0  0  0  0
   18.2960  -23.0459  -12.5378 C   0  0  1  0  0  0  0  0  0  0  0  0
   18.3365  -21.9697  -11.6851 O   0  0  0  0  0  0  0  0  0  0  0  0
   18.1387  -22.6626  -13.9946 C   0  0  2  0  0  0  0  0  0  0  0  0
   19.2228  -21.8948  -14.5063 N   0  0  0  0  0  0  0  0  0  0  0  0
   16.8171  -22.0431  -14.1981 C   0  0  0  0  0  0  0  0  0  0  0  0
   16.7285  -20.8679  -14.6332 O   0  0  0  0  0  0  0  0  0  0  0  0
   15.6272  -22.7021  -13.9288 O   0  0  0  0  0  0  0  0  0  0  0  0
  2  1  1  0
  3  4  1  0
  3  2  1  0
  4  5  1  0
  5  1  1  0
  5  6  1  6
  6  7  2  0
  6  8  1  0
  8  9  1  0
  9 20  1  0
  9 10  1  6
 10 11  1  0
 11 19  1  0
 12 11  2  0
 12 13  1  0
 13 14  1  0
 14 15  1  0
 15 16  2  0
 17 16  1  0
 18 17  2  0
 19 14  2  0
 19 18  1  0
 20 21  2  0
 23 22  1  6
 24 23  1  0
 25 23  1  0
 26 20  1  0
 25 26  1  1
 27 25  1  0
 27 29  1  0
 28 27  2  0
M  END
$$$$
