PWT.pdb
     RDKit          3D

 29 31  0  0  1  0  0  0  0  0999 V2000
   28.0966  -19.4639  -14.6148 N   0  0  0  0  0  0  0  0  0  0  0  0
   29.0444  -19.4358  -15.7395 C   0  0  0  0  0  0  0  0  0  0  0  0
   29.7424  -20.7637  -15.7373 C   0  0  0  0  0  0  0  0  0  0  0  0
   29.0150  -21.5678  -14.6915 C   0  0  0  0  0  0  0  0  0  0  0  0
   27.6848  -20.8335  -14.6047 C   0  0  1  0  0  0  0  0  0  0  0  0
   27.0400  -21.2186  -13.3111 C   0  0  0  0  0  0  0  0  0  0  0  0
   26.3495  -22.2593  -13.3034 O   0  0  0  0  0  0  0  0  0  0  0  0
   27.1877  -20.4610  -12.1395 N   0  0  0  0  0  0  0  0  0  0  0  0
   26.6371  -20.7282  -10.8621 C   0  0  1  0  0  0  0  0  0  0  0  0
   27.5575  -20.5873   -9.6734 C   0  0  0  0  0  0  0  0  0  0  0  0
   26.8655  -20.5330   -8.3796 C   0  0  0  0  0  0  0  0  0  0  0  0
   25.5891  -20.8195   -7.9774 C   0  0  0  0  0  0  0  0  0  0  0  0
   25.4688  -20.6043   -6.6584 N   0  0  0  0  0  0  0  0  0  0  0  0
   26.6295  -20.1827   -6.1682 C   0  0  0  0  0  0  0  0  0  0  0  0
   27.0190  -19.8315   -4.8762 C   0  0  0  0  0  0  0  0  0  0  0  0
   28.3023  -19.4252   -4.6308 C   0  0  0  0  0  0  0  0  0  0  0  0
   29.2223  -19.3576   -5.6488 C   0  0  0  0  0  0  0  0  0  0  0  0
   28.8005  -19.7164   -6.9337 C   0  0  0  0  0  0  0  0  0  0  0  0
   27.5315  -20.1236   -7.2090 C   0  0  0  0  0  0  0  0  0  0  0  0
   25.3140  -20.1170  -10.6870 C   0  0  0  0  0  0  0  0  0  0  0  0
   25.2668  -18.8760  -10.4887 O   0  0  0  0  0  0  0  0  0  0  0  0
   23.5931  -19.4056  -13.3367 C   0  0  0  0  0  0  0  0  0  0  0  0
   22.5646  -20.1844  -12.5587 C   0  0  1  0  0  0  0  0  0  0  0  0
   22.3313  -21.4484  -13.0431 O   0  0  0  0  0  0  0  0  0  0  0  0
   22.8707  -20.1477  -11.0758 C   0  0  2  0  0  0  0  0  0  0  0  0
   24.0798  -20.8113  -10.7228 N   0  0  0  0  0  0  0  0  0  0  0  0
   21.6919  -20.6083  -10.3207 C   0  0  0  0  0  0  0  0  0  0  0  0
   20.6024  -19.9890  -10.4071 O   0  0  0  0  0  0  0  0  0  0  0  0
   21.7154  -21.7211   -9.4937 O   0  0  0  0  0  0  0  0  0  0  0  0
  2  1  1  0
  3  4  1  0
  3  2  1  0
  4  5  1  0
  5  1  1  0
  5  6  1  1
  6  7  2  0
  6  8  1  0
  8  9  1  0
  9 20  1  0
  9 10  1  1
 10 11  1  0
 11 19  1  0
 12 11  2  0
 12 13  1  0
 13 14  1  0
 14 15  1  0
 15 16  2  0
 17 16  1  0
 18 17  2  0
 19 14  2  0
 19 18  1  0
 20 21  2  0
 23 22  1  6
 24 23  1  0
 25 23  1  0
 26 20  1  0
 25 26  1  6
 27 25  1  0
 27 29  1  0
 28 27  2  0
M  END
$$$$
