PWT.pdb
     RDKit          3D

 29 31  0  0  1  0  0  0  0  0999 V2000
   32.2478  -17.4082   -3.7448 N   0  0  0  0  0  0  0  0  0  0  0  0
   32.3158  -16.3037   -4.7142 C   0  0  0  0  0  0  0  0  0  0  0  0
   30.8993  -15.8886   -4.9820 C   0  0  0  0  0  0  0  0  0  0  0  0
   30.0832  -16.6815   -3.9947 C   0  0  0  0  0  0  0  0  0  0  0  0
   31.1249  -17.0333   -2.9423 C   0  0  1  0  0  0  0  0  0  0  0  0
   30.5924  -18.1823   -2.1463 C   0  0  0  0  0  0  0  0  0  0  0  0
   29.4801  -18.0323   -1.5985 O   0  0  0  0  0  0  0  0  0  0  0  0
   31.2918  -19.3902   -2.0041 N   0  0  0  0  0  0  0  0  0  0  0  0
   30.9073  -20.5288   -1.2543 C   0  0  1  0  0  0  0  0  0  0  0  0
   30.3867  -21.7171   -2.0269 C   0  0  0  0  0  0  0  0  0  0  0  0
   29.3329  -21.3902   -2.9957 C   0  0  0  0  0  0  0  0  0  0  0  0
   27.9672  -21.3359   -2.9247 C   0  0  0  0  0  0  0  0  0  0  0  0
   27.4642  -20.9702   -4.1137 N   0  0  0  0  0  0  0  0  0  0  0  0
   28.4560  -20.7780   -4.9768 C   0  0  0  0  0  0  0  0  0  0  0  0
   28.4588  -20.3932   -6.3170 C   0  0  0  0  0  0  0  0  0  0  0  0
   29.6414  -20.2610   -6.9925 C   0  0  0  0  0  0  0  0  0  0  0  0
   30.8382  -20.5040   -6.3634 C   0  0  0  0  0  0  0  0  0  0  0  0
   30.8017  -20.8885   -5.0186 C   0  0  0  0  0  0  0  0  0  0  0  0
   29.6420  -21.0290   -4.3206 C   0  0  0  0  0  0  0  0  0  0  0  0
   31.8795  -20.8594   -0.2055 C   0  0  0  0  0  0  0  0  0  0  0  0
   33.0662  -21.0795   -0.5590 O   0  0  0  0  0  0  0  0  0  0  0  0
   33.6554  -20.6178    4.3173 C   0  0  0  0  0  0  0  0  0  0  0  0
   32.6106  -20.2353    3.3017 C   0  0  1  0  0  0  0  0  0  0  0  0
   32.6439  -18.9130    2.9311 O   0  0  0  0  0  0  0  0  0  0  0  0
   32.6215  -21.1960    2.1308 C   0  0  2  0  0  0  0  0  0  0  0  0
   31.5917  -20.9519    1.1785 N   0  0  0  0  0  0  0  0  0  0  0  0
   32.6566  -22.5808    2.6337 C   0  0  0  0  0  0  0  0  0  0  0  0
   31.6789  -23.3473    2.4478 O   0  0  0  0  0  0  0  0  0  0  0  0
   33.7402  -23.1044    3.3224 O   0  0  0  0  0  0  0  0  0  0  0  0
  2  1  1  0
  3  4  1  0
  3  2  1  0
  4  5  1  0
  5  1  1  0
  5  6  1  6
  6  7  2  0
  6  8  1  0
  8  9  1  0
  9 20  1  0
  9 10  1  6
 10 11  1  0
 11 19  1  0
 12 11  2  0
 12 13  1  0
 13 14  1  0
 14 15  1  0
 15 16  2  0
 17 16  1  0
 18 17  2  0
 19 14  2  0
 19 18  1  0
 20 21  2  0
 23 22  1  1
 24 23  1  0
 25 23  1  0
 26 20  1  0
 25 26  1  1
 27 25  1  0
 27 29  1  0
 28 27  2  0
M  END
$$$$
