MRN.pdb
     RDKit          3D

 28 27  0  0  1  0  0  0  0  0999 V2000
   21.7435  -15.7720  -18.6808 C   0  0  0  0  0  0  0  0  0  0  0  0
   23.1594  -15.9048  -19.7727 S   0  0  0  0  0  0  0  0  0  0  0  0
   24.4123  -17.0650  -19.1680 C   0  0  0  0  0  0  0  0  0  0  0  0
   23.8113  -18.0591  -18.1972 C   0  0  0  0  0  0  0  0  0  0  0  0
   24.8778  -18.9135  -17.5496 C   0  0  2  0  0  0  0  0  0  0  0  0
   25.5010  -19.6876  -18.5921 N   0  0  0  0  0  0  0  0  0  0  0  0
   24.3311  -19.7918  -16.4956 C   0  0  0  0  0  0  0  0  0  0  0  0
   23.8018  -20.8710  -16.8383 O   0  0  0  0  0  0  0  0  0  0  0  0
   26.3905  -22.7612  -11.1818 N   0  0  0  0  0  0  0  0  0  0  0  0
   26.9516  -21.4757  -10.8569 C   0  0  0  0  0  0  0  0  0  0  0  0
   28.2179  -21.3421  -11.0142 N   0  0  0  0  0  0  0  0  0  0  0  0
   26.1360  -20.4353  -10.3921 N   0  0  0  0  0  0  0  0  0  0  0  0
   24.7021  -20.5954  -10.3032 C   0  0  0  0  0  0  0  0  0  0  0  0
   24.0830  -20.9605  -11.6494 C   0  0  0  0  0  0  0  0  0  0  0  0
   24.5168  -19.9618  -12.7158 C   0  0  0  0  0  0  0  0  0  0  0  0
   23.9013  -20.2871  -14.0513 C   0  0  2  0  0  0  0  0  0  0  0  0
   24.3758  -19.4763  -15.1240 N   0  0  0  0  0  0  0  0  0  0  0  0
   22.4216  -20.1686  -13.9356 C   0  0  0  0  0  0  0  0  0  0  0  0
   21.9215  -19.0457  -13.6844 O   0  0  0  0  0  0  0  0  0  0  0  0
   28.6829  -20.4644  -10.7817 N   0  0  0  0  0  0  0  0  0  0  0  0
   17.3619  -20.2234  -14.6202 C   0  0  0  0  0  0  0  0  0  0  0  0
   17.8997  -21.5609  -14.8302 O   0  0  0  0  0  0  0  0  0  0  0  0
   17.0141  -22.4497  -14.8411 C   0  0  0  0  0  0  0  0  0  0  0  0
   19.3445  -21.7498  -15.0013 C   0  0  1  0  0  0  0  0  0  0  0  0
   20.1105  -21.0219  -13.9298 N   0  0  0  0  0  0  0  0  0  0  0  0
   21.5505  -21.2686  -14.0969 C   0  0  0  0  0  0  0  0  0  0  0  0
   19.7887  -21.4298  -12.5622 O   0  0  0  0  0  0  0  0  0  0  0  0
   20.3693  -22.3873  -12.0113 O   0  0  0  0  0  0  0  0  0  0  0  0
  1  2  1  0
  2  3  1  0
  3  4  1  0
  4  5  1  0
  5  6  1  6
  7  5  1  0
  8  7  2  0
 10  9  1  0
 11 10  2  0
 12 10  1  0
 13 12  1  0
 14 13  1  0
 15 14  1  0
 16 15  1  1
 16 17  1  0
 17  7  1  0
 18 16  1  0
 19 18  2  0
 21 20  1  0
 22 21  2  0
 23 21  1  0
 24 23  1  6
 24 25  1  0
 25 18  1  0
 26 24  1  0
 26 28  1  0
 27 26  2  0
M  END
$$$$
