MRN.pdb
     RDKit          3D

 28 27  0  0  1  0  0  0  0  0999 V2000
   20.7266  -28.7974  -12.0455 C   0  0  0  0  0  0  0  0  0  0  0  0
   19.4964  -29.0321  -10.7625 S   0  0  0  0  0  0  0  0  0  0  0  0
   19.1106  -27.5064   -9.8653 C   0  0  0  0  0  0  0  0  0  0  0  0
   18.9442  -26.3413  -10.8175 C   0  0  0  0  0  0  0  0  0  0  0  0
   19.0615  -25.0172  -10.0968 C   0  0  2  0  0  0  0  0  0  0  0  0
   18.1245  -25.0378   -9.0032 N   0  0  0  0  0  0  0  0  0  0  0  0
   18.8064  -23.8675  -10.9881 C   0  0  0  0  0  0  0  0  0  0  0  0
   17.6820  -23.3231  -10.9471 O   0  0  0  0  0  0  0  0  0  0  0  0
   25.2756  -23.8080  -14.0519 N   0  0  0  0  0  0  0  0  0  0  0  0
   24.4012  -24.4634  -14.9893 C   0  0  0  0  0  0  0  0  0  0  0  0
   24.6051  -25.7138  -15.1917 N   0  0  0  0  0  0  0  0  0  0  0  0
   23.3840  -23.7509  -15.6384 N   0  0  0  0  0  0  0  0  0  0  0  0
   22.7225  -22.6403  -14.9915 C   0  0  0  0  0  0  0  0  0  0  0  0
   21.5383  -23.0955  -14.1434 C   0  0  0  0  0  0  0  0  0  0  0  0
   20.8169  -21.8882  -13.5565 C   0  0  0  0  0  0  0  0  0  0  0  0
   19.5670  -22.3013  -12.8247 C   0  0  2  0  0  0  0  0  0  0  0  0
   19.7650  -23.3526  -11.8819 N   0  0  0  0  0  0  0  0  0  0  0  0
   18.5380  -22.6977  -13.8252 C   0  0  0  0  0  0  0  0  0  0  0  0
   18.4605  -23.9015  -14.1702 O   0  0  0  0  0  0  0  0  0  0  0  0
   23.9957  -26.2483  -15.8112 N   0  0  0  0  0  0  0  0  0  0  0  0
   14.5815  -23.1500  -16.9351 C   0  0  0  0  0  0  0  0  0  0  0  0
   14.4272  -23.3357  -15.4984 O   0  0  0  0  0  0  0  0  0  0  0  0
   13.3600  -23.9196  -15.1910 C   0  0  0  0  0  0  0  0  0  0  0  0
   15.4676  -22.8547  -14.5828 C   0  0  2  0  0  0  0  0  0  0  0  0
   16.6413  -22.3043  -15.3472 N   0  0  0  0  0  0  0  0  0  0  0  0
   17.6402  -21.7755  -14.4067 C   0  0  0  0  0  0  0  0  0  0  0  0
   16.3194  -21.2021  -16.2538 O   0  0  0  0  0  0  0  0  0  0  0  0
   16.8469  -20.0780  -16.1301 O   0  0  0  0  0  0  0  0  0  0  0  0
  1  2  1  0
  2  3  1  0
  3  4  1  0
  4  5  1  0
  5  6  1  1
  7  5  1  0
  8  7  2  0
 10  9  1  0
 11 10  2  0
 12 10  1  0
 13 12  1  0
 14 13  1  0
 15 14  1  0
 16 15  1  6
 16 17  1  0
 17  7  1  0
 18 16  1  0
 19 18  2  0
 21 20  1  0
 22 21  2  0
 23 21  1  0
 24 23  1  1
 24 25  1  0
 25 18  1  0
 26 24  1  0
 26 28  1  0
 27 26  2  0
M  END
$$$$
