MRN.pdb
     RDKit          3D

 28 27  0  0  1  0  0  0  0  0999 V2000
   26.3405  -16.3064  -16.5984 C   0  0  0  0  0  0  0  0  0  0  0  0
   27.9699  -16.9977  -16.3118 S   0  0  0  0  0  0  0  0  0  0  0  0
   27.9293  -18.5215  -15.3331 C   0  0  0  0  0  0  0  0  0  0  0  0
   26.5289  -19.0935  -15.2728 C   0  0  0  0  0  0  0  0  0  0  0  0
   26.4526  -20.2701  -14.3260 C   0  0  2  0  0  0  0  0  0  0  0  0
   27.2995  -21.3065  -14.8580 N   0  0  0  0  0  0  0  0  0  0  0  0
   25.0704  -20.7588  -14.1469 C   0  0  0  0  0  0  0  0  0  0  0  0
   24.6973  -21.7430  -14.8209 O   0  0  0  0  0  0  0  0  0  0  0  0
   18.4627  -22.3936  -10.0662 N   0  0  0  0  0  0  0  0  0  0  0  0
   19.5127  -22.2161   -9.0972 C   0  0  0  0  0  0  0  0  0  0  0  0
   19.6011  -23.1019   -8.1733 N   0  0  0  0  0  0  0  0  0  0  0  0
   20.3838  -21.1215   -9.1778 N   0  0  0  0  0  0  0  0  0  0  0  0
   20.2331  -20.1237  -10.2128 C   0  0  0  0  0  0  0  0  0  0  0  0
   20.7900  -20.5999  -11.5514 C   0  0  0  0  0  0  0  0  0  0  0  0
   22.2386  -20.1526  -11.7072 C   0  0  0  0  0  0  0  0  0  0  0  0
   22.8039  -20.5849  -13.0346 C   0  0  2  0  0  0  0  0  0  0  0  0
   24.1511  -20.1730  -13.2556 N   0  0  0  0  0  0  0  0  0  0  0  0
   21.9253  -20.0655  -14.1186 C   0  0  0  0  0  0  0  0  0  0  0  0
   21.8555  -18.8261  -14.3003 O   0  0  0  0  0  0  0  0  0  0  0  0
   20.3013  -23.0188   -7.4360 N   0  0  0  0  0  0  0  0  0  0  0  0
   22.1439  -19.3265  -18.3877 C   0  0  0  0  0  0  0  0  0  0  0  0
   21.8759  -20.6625  -17.8723 O   0  0  0  0  0  0  0  0  0  0  0  0
   22.8604  -21.4338  -17.9732 C   0  0  0  0  0  0  0  0  0  0  0  0
   20.5579  -20.9793  -17.3112 C   0  0  2  0  0  0  0  0  0  0  0  0
   20.3489  -20.2695  -16.0008 N   0  0  0  0  0  0  0  0  0  0  0  0
   21.1628  -20.9090  -14.9564 C   0  0  0  0  0  0  0  0  0  0  0  0
   18.9722  -20.2891  -15.5062 O   0  0  0  0  0  0  0  0  0  0  0  0
   18.0675  -19.6345  -16.0631 O   0  0  0  0  0  0  0  0  0  0  0  0
  1  2  1  0
  2  3  1  0
  3  4  1  0
  4  5  1  0
  5  6  1  6
  7  5  1  0
  8  7  2  0
 10  9  1  0
 11 10  2  0
 12 10  1  0
 13 12  1  0
 14 13  1  0
 15 14  1  0
 16 15  1  1
 16 17  1  0
 17  7  1  0
 18 16  1  0
 19 18  2  0
 21 20  1  0
 22 21  2  0
 23 21  1  0
 24 23  1  6
 24 25  1  0
 25 18  1  0
 26 24  1  0
 26 28  1  0
 27 26  2  0
M  END
$$$$
