MRN.pdb
     RDKit          3D

 28 27  0  0  1  0  0  0  0  0999 V2000
   27.7033  -25.4522  -21.0937 C   0  0  0  0  0  0  0  0  0  0  0  0
   29.4794  -25.5853  -20.8880 S   0  0  0  0  0  0  0  0  0  0  0  0
   30.1006  -24.6373  -19.4749 C   0  0  0  0  0  0  0  0  0  0  0  0
   29.0256  -24.4575  -18.4242 C   0  0  0  0  0  0  0  0  0  0  0  0
   29.5333  -23.6585  -17.2450 C   0  0  2  0  0  0  0  0  0  0  0  0
   30.4666  -24.4909  -16.5307 N   0  0  0  0  0  0  0  0  0  0  0  0
   28.4409  -23.2098  -16.3580 C   0  0  0  0  0  0  0  0  0  0  0  0
   28.1960  -23.8809  -15.3325 O   0  0  0  0  0  0  0  0  0  0  0  0
   22.0665  -19.3053  -16.7745 N   0  0  0  0  0  0  0  0  0  0  0  0
   22.0953  -18.4650  -15.6058 C   0  0  0  0  0  0  0  0  0  0  0  0
   20.9738  -18.2522  -15.0201 N   0  0  0  0  0  0  0  0  0  0  0  0
   23.3007  -17.9159  -15.1483 N   0  0  0  0  0  0  0  0  0  0  0  0
   24.5645  -18.2983  -15.7365 C   0  0  0  0  0  0  0  0  0  0  0  0
   24.9582  -19.7258  -15.3676 C   0  0  0  0  0  0  0  0  0  0  0  0
   26.2340  -20.1251  -16.0993 C   0  0  0  0  0  0  0  0  0  0  0  0
   26.6307  -21.5409  -15.7727 C   0  0  2  0  0  0  0  0  0  0  0  0
   27.6611  -22.0643  -16.6080 N   0  0  0  0  0  0  0  0  0  0  0  0
   25.4204  -22.4047  -15.8501 C   0  0  0  0  0  0  0  0  0  0  0  0
   24.9443  -22.6809  -16.9775 O   0  0  0  0  0  0  0  0  0  0  0  0
   20.9100  -17.6042  -14.2347 N   0  0  0  0  0  0  0  0  0  0  0  0
   21.4932  -25.5168  -15.0914 C   0  0  0  0  0  0  0  0  0  0  0  0
   22.4279  -25.7439  -13.9973 O   0  0  0  0  0  0  0  0  0  0  0  0
   22.1221  -26.7326  -13.2880 C   0  0  0  0  0  0  0  0  0  0  0  0
   23.5806  -24.8532  -13.8233 C   0  0  2  0  0  0  0  0  0  0  0  0
   23.6354  -23.8270  -14.9228 N   0  0  0  0  0  0  0  0  0  0  0  0
   24.7806  -22.9305  -14.7060 C   0  0  0  0  0  0  0  0  0  0  0  0
   22.4590  -22.9622  -15.0128 O   0  0  0  0  0  0  0  0  0  0  0  0
   22.2899  -22.0042  -14.2312 O   0  0  0  0  0  0  0  0  0  0  0  0
  1  2  1  0
  2  3  1  0
  3  4  1  0
  4  5  1  0
  5  6  1  1
  7  5  1  0
  8  7  2  0
 10  9  1  0
 11 10  2  0
 12 10  1  0
 13 12  1  0
 14 13  1  0
 15 14  1  0
 16 15  1  6
 16 17  1  0
 17  7  1  0
 18 16  1  0
 19 18  2  0
 21 20  1  0
 22 21  2  0
 23 21  1  0
 24 23  1  6
 24 25  1  0
 25 18  1  0
 26 24  1  0
 26 28  1  0
 27 26  2  0
M  END
$$$$
