MRN.pdb
     RDKit          3D

 28 27  0  0  1  0  0  0  0  0999 V2000
   27.9936  -17.9182  -15.3982 C   0  0  0  0  0  0  0  0  0  0  0  0
   28.7410  -19.3995  -16.0778 S   0  0  0  0  0  0  0  0  0  0  0  0
   27.8477  -20.9108  -15.6315 C   0  0  0  0  0  0  0  0  0  0  0  0
   26.3641  -20.7654  -15.8957 C   0  0  0  0  0  0  0  0  0  0  0  0
   25.5938  -21.9687  -15.4005 C   0  0  2  0  0  0  0  0  0  0  0  0
   25.9616  -23.0867  -16.2306 N   0  0  0  0  0  0  0  0  0  0  0  0
   24.1333  -21.7507  -15.4265 C   0  0  0  0  0  0  0  0  0  0  0  0
   23.5207  -21.9630  -16.4951 O   0  0  0  0  0  0  0  0  0  0  0  0
   19.1663  -25.3139  -11.3196 N   0  0  0  0  0  0  0  0  0  0  0  0
   18.8088  -24.2771  -12.2525 C   0  0  0  0  0  0  0  0  0  0  0  0
   17.8836  -24.5543  -13.0969 N   0  0  0  0  0  0  0  0  0  0  0  0
   19.4537  -23.0333  -12.2223 N   0  0  0  0  0  0  0  0  0  0  0  0
   19.1746  -22.0248  -13.2196 C   0  0  0  0  0  0  0  0  0  0  0  0
   19.9117  -20.7194  -12.9344 C   0  0  0  0  0  0  0  0  0  0  0  0
   21.4154  -20.9635  -12.8903 C   0  0  0  0  0  0  0  0  0  0  0  0
   22.0006  -21.0192  -14.2769 C   0  0  2  0  0  0  0  0  0  0  0  0
   23.3950  -21.3160  -14.3090 N   0  0  0  0  0  0  0  0  0  0  0  0
   21.7375  -19.7214  -14.9578 C   0  0  0  0  0  0  0  0  0  0  0  0
   22.0900  -18.6584  -14.3924 O   0  0  0  0  0  0  0  0  0  0  0  0
   17.4122  -25.4588  -13.0763 N   0  0  0  0  0  0  0  0  0  0  0  0
   22.0760  -16.6787  -20.0798 C   0  0  0  0  0  0  0  0  0  0  0  0
   21.5171  -16.9237  -18.7570 O   0  0  0  0  0  0  0  0  0  0  0  0
   20.9194  -15.9267  -18.2847 C   0  0  0  0  0  0  0  0  0  0  0  0
   21.6874  -18.2354  -18.1224 C   0  0  1  0  0  0  0  0  0  0  0  0
   20.9579  -18.2932  -16.8074 N   0  0  0  0  0  0  0  0  0  0  0  0
   21.1060  -19.6320  -16.2179 C   0  0  0  0  0  0  0  0  0  0  0  0
   19.5181  -18.0490  -16.8943 O   0  0  0  0  0  0  0  0  0  0  0  0
   18.7077  -18.9777  -17.0893 O   0  0  0  0  0  0  0  0  0  0  0  0
  1  2  1  0
  2  3  1  0
  3  4  1  0
  4  5  1  0
  5  6  1  6
  7  5  1  0
  8  7  2  0
 10  9  1  0
 11 10  2  0
 12 10  1  0
 13 12  1  0
 14 13  1  0
 15 14  1  0
 16 15  1  1
 16 17  1  0
 17  7  1  0
 18 16  1  0
 19 18  2  0
 21 20  1  0
 22 21  2  0
 23 21  1  0
 24 23  1  1
 24 25  1  0
 25 18  1  0
 26 24  1  0
 26 28  1  0
 27 26  2  0
M  END
$$$$
