MRN.pdb
     RDKit          3D

 28 27  0  0  1  0  0  0  0  0999 V2000
   25.0961  -18.6769  -23.1995 C   0  0  0  0  0  0  0  0  0  0  0  0
   26.8440  -18.8927  -22.8633 S   0  0  0  0  0  0  0  0  0  0  0  0
   27.1662  -19.6258  -21.2385 C   0  0  0  0  0  0  0  0  0  0  0  0
   25.8798  -20.0731  -20.5774 C   0  0  0  0  0  0  0  0  0  0  0  0
   25.5357  -19.2011  -19.3910 C   0  0  2  0  0  0  0  0  0  0  0  0
   26.7739  -18.8296  -18.7561 N   0  0  0  0  0  0  0  0  0  0  0  0
   24.6366  -19.8803  -18.4362 C   0  0  0  0  0  0  0  0  0  0  0  0
   23.5603  -20.3488  -18.8654 O   0  0  0  0  0  0  0  0  0  0  0  0
   26.6188  -21.7396  -10.3090 N   0  0  0  0  0  0  0  0  0  0  0  0
   25.3967  -20.9845  -10.4050 C   0  0  0  0  0  0  0  0  0  0  0  0
   24.9507  -20.4677   -9.3187 N   0  0  0  0  0  0  0  0  0  0  0  0
   24.7424  -20.8348  -11.6351 N   0  0  0  0  0  0  0  0  0  0  0  0
   24.5435  -21.9638  -12.5157 C   0  0  0  0  0  0  0  0  0  0  0  0
   23.8031  -21.5707  -13.7909 C   0  0  0  0  0  0  0  0  0  0  0  0
   24.7717  -20.9521  -14.7918 C   0  0  0  0  0  0  0  0  0  0  0  0
   24.0695  -20.5741  -16.0694 C   0  0  2  0  0  0  0  0  0  0  0  0
   24.9296  -20.0275  -17.0668 N   0  0  0  0  0  0  0  0  0  0  0  0
   22.9810  -19.6105  -15.7478 C   0  0  0  0  0  0  0  0  0  0  0  0
   23.2668  -18.3962  -15.6141 O   0  0  0  0  0  0  0  0  0  0  0  0
   24.1129  -19.8856   -9.3234 N   0  0  0  0  0  0  0  0  0  0  0  0
   19.9948  -15.8311  -17.0750 C   0  0  0  0  0  0  0  0  0  0  0  0
   19.8250  -17.2525  -17.3451 O   0  0  0  0  0  0  0  0  0  0  0  0
   18.7048  -17.5276  -17.8390 C   0  0  0  0  0  0  0  0  0  0  0  0
   20.9102  -18.1904  -17.0369 C   0  0  1  0  0  0  0  0  0  0  0  0
   20.6005  -18.9778  -15.7923 N   0  0  0  0  0  0  0  0  0  0  0  0
   21.6340  -20.0031  -15.5856 C   0  0  0  0  0  0  0  0  0  0  0  0
   19.3246  -19.6930  -15.8215 O   0  0  0  0  0  0  0  0  0  0  0  0
   19.1847  -20.7556  -16.4606 O   0  0  0  0  0  0  0  0  0  0  0  0
  1  2  1  0
  2  3  1  0
  3  4  1  0
  4  5  1  0
  5  6  1  1
  7  5  1  0
  8  7  2  0
 10  9  1  0
 11 10  2  0
 12 10  1  0
 13 12  1  0
 14 13  1  0
 15 14  1  0
 16 15  1  1
 16 17  1  0
 17  7  1  0
 18 16  1  0
 19 18  2  0
 21 20  1  0
 22 21  2  0
 23 21  1  0
 24 23  1  1
 24 25  1  0
 25 18  1  0
 26 24  1  0
 26 28  1  0
 27 26  2  0
M  END
$$$$
