MRN.pdb
     RDKit          3D

 28 27  0  0  1  0  0  0  0  0999 V2000
   30.5150  -13.7538  -16.5897 C   0  0  0  0  0  0  0  0  0  0  0  0
   29.2364  -12.9183  -17.5288 S   0  0  0  0  0  0  0  0  0  0  0  0
   28.1885  -11.8533  -16.5045 C   0  0  0  0  0  0  0  0  0  0  0  0
   27.1223  -11.1741  -17.3374 C   0  0  0  0  0  0  0  0  0  0  0  0
   26.3757  -10.1314  -16.5362 C   0  0  2  0  0  0  0  0  0  0  0  0
   26.3383  -10.5840  -15.1694 N   0  0  0  0  0  0  0  0  0  0  0  0
   25.0116   -9.8971  -17.0516 C   0  0  0  0  0  0  0  0  0  0  0  0
   24.8855   -9.3874  -18.1858 O   0  0  0  0  0  0  0  0  0  0  0  0
   16.8568  -12.5570  -14.2317 N   0  0  0  0  0  0  0  0  0  0  0  0
   16.6597  -11.9130  -15.5042 C   0  0  0  0  0  0  0  0  0  0  0  0
   15.4558  -11.8617  -15.9448 N   0  0  0  0  0  0  0  0  0  0  0  0
   17.7443  -11.3761  -16.2106 N   0  0  0  0  0  0  0  0  0  0  0  0
   19.0956  -11.5082  -15.7145 C   0  0  0  0  0  0  0  0  0  0  0  0
   20.0997  -10.7567  -16.5839 C   0  0  0  0  0  0  0  0  0  0  0  0
   21.5076  -10.9231  -16.0245 C   0  0  0  0  0  0  0  0  0  0  0  0
   22.5018  -10.0911  -16.7912 C   0  0  2  0  0  0  0  0  0  0  0  0
   23.8454  -10.2185  -16.3309 N   0  0  0  0  0  0  0  0  0  0  0  0
   22.0742   -8.6660  -16.7351 C   0  0  0  0  0  0  0  0  0  0  0  0
   21.0168   -8.3273  -17.3192 O   0  0  0  0  0  0  0  0  0  0  0  0
   15.2419  -11.3928  -16.8252 N   0  0  0  0  0  0  0  0  0  0  0  0
   21.4759   -3.6901  -16.0615 C   0  0  0  0  0  0  0  0  0  0  0  0
   21.3191   -4.4691  -14.8405 O   0  0  0  0  0  0  0  0  0  0  0  0
   20.8154   -3.8098  -13.8993 C   0  0  0  0  0  0  0  0  0  0  0  0
   21.7370   -5.8751  -14.8111 C   0  0  1  0  0  0  0  0  0  0  0  0
   22.3186   -6.2889  -16.1360 N   0  0  0  0  0  0  0  0  0  0  0  0
   22.8086   -7.6726  -16.0506 C   0  0  0  0  0  0  0  0  0  0  0  0
   23.4568   -5.4860  -16.5830 O   0  0  0  0  0  0  0  0  0  0  0  0
   23.4088   -4.2393  -16.6072 O   0  0  0  0  0  0  0  0  0  0  0  0
  1  2  1  0
  2  3  1  0
  3  4  1  0
  4  5  1  0
  5  6  1  1
  7  5  1  0
  8  7  2  0
 10  9  1  0
 11 10  2  0
 12 10  1  0
 13 12  1  0
 14 13  1  0
 15 14  1  0
 16 15  1  1
 16 17  1  0
 17  7  1  0
 18 16  1  0
 19 18  2  0
 21 20  1  0
 22 21  2  0
 23 21  1  0
 24 23  1  6
 24 25  1  0
 25 18  1  0
 26 24  1  0
 26 28  1  0
 27 26  2  0
M  END
$$$$
