MRN.pdb
     RDKit          3D

 28 27  0  0  1  0  0  0  0  0999 V2000
   29.5119  -18.9074   -5.5875 C   0  0  0  0  0  0  0  0  0  0  0  0
   28.2593  -19.7762   -4.6437 S   0  0  0  0  0  0  0  0  0  0  0  0
   26.9002  -20.3919   -5.6709 C   0  0  0  0  0  0  0  0  0  0  0  0
   26.9031  -19.7303   -7.0326 C   0  0  0  0  0  0  0  0  0  0  0  0
   25.7421  -20.2019   -7.8788 C   0  0  2  0  0  0  0  0  0  0  0  0
   25.6218  -21.6247   -7.6902 N   0  0  0  0  0  0  0  0  0  0  0  0
   25.9177  -19.8724   -9.3078 C   0  0  0  0  0  0  0  0  0  0  0  0
   25.9662  -18.6677   -9.6371 O   0  0  0  0  0  0  0  0  0  0  0  0
   26.5582  -22.9386  -16.4330 N   0  0  0  0  0  0  0  0  0  0  0  0
   27.5899  -22.0378  -16.8768 C   0  0  0  0  0  0  0  0  0  0  0  0
   27.6058  -21.7494  -18.1269 N   0  0  0  0  0  0  0  0  0  0  0  0
   28.5216  -21.5139  -15.9706 N   0  0  0  0  0  0  0  0  0  0  0  0
   28.4291  -21.8015  -14.5569 C   0  0  0  0  0  0  0  0  0  0  0  0
   27.2661  -21.0648  -13.8985 C   0  0  0  0  0  0  0  0  0  0  0  0
   27.2508  -21.3395  -12.3996 C   0  0  0  0  0  0  0  0  0  0  0  0
   26.1241  -20.6054  -11.7212 C   0  0  2  0  0  0  0  0  0  0  0  0
   26.0336  -20.8458  -10.3186 N   0  0  0  0  0  0  0  0  0  0  0  0
   24.8450  -20.9749  -12.3878 C   0  0  0  0  0  0  0  0  0  0  0  0
   24.4020  -22.1399  -12.2451 O   0  0  0  0  0  0  0  0  0  0  0  0
   28.2566  -21.0547  -18.4939 N   0  0  0  0  0  0  0  0  0  0  0  0
   20.9247  -22.2769  -12.8220 C   0  0  0  0  0  0  0  0  0  0  0  0
   20.7296  -20.8633  -12.5289 O   0  0  0  0  0  0  0  0  0  0  0  0
   19.7091  -20.6429  -11.8330 C   0  0  0  0  0  0  0  0  0  0  0  0
   21.6831  -19.8720  -13.0393 C   0  0  2  0  0  0  0  0  0  0  0  0
   22.8317  -20.5453  -13.7409 N   0  0  0  0  0  0  0  0  0  0  0  0
   24.1035  -20.0687  -13.1775 C   0  0  0  0  0  0  0  0  0  0  0  0
   22.9071  -20.2873  -15.1789 O   0  0  0  0  0  0  0  0  0  0  0  0
   23.3905  -19.2286  -15.6293 O   0  0  0  0  0  0  0  0  0  0  0  0
  1  2  1  0
  2  3  1  0
  3  4  1  0
  4  5  1  0
  5  6  1  6
  7  5  1  0
  8  7  2  0
 10  9  1  0
 11 10  2  0
 12 10  1  0
 13 12  1  0
 14 13  1  0
 15 14  1  0
 16 15  1  6
 16 17  1  0
 17  7  1  0
 18 16  1  0
 19 18  2  0
 21 20  1  0
 22 21  2  0
 23 21  1  0
 24 23  1  1
 24 25  1  0
 25 18  1  0
 26 24  1  0
 26 28  1  0
 27 26  2  0
M  END
$$$$
