MRN.pdb
     RDKit          3D

 28 27  0  0  1  0  0  0  0  0999 V2000
   28.0400  -24.4136  -21.4194 C   0  0  0  0  0  0  0  0  0  0  0  0
   29.0121  -25.5223  -20.3994 S   0  0  0  0  0  0  0  0  0  0  0  0
   28.1045  -26.1332  -18.9556 C   0  0  0  0  0  0  0  0  0  0  0  0
   26.9561  -25.2117  -18.6037 C   0  0  0  0  0  0  0  0  0  0  0  0
   27.3519  -24.2185  -17.5344 C   0  0  2  0  0  0  0  0  0  0  0  0
   27.8555  -24.9701  -16.4138 N   0  0  0  0  0  0  0  0  0  0  0  0
   26.2264  -23.3536  -17.1262 C   0  0  0  0  0  0  0  0  0  0  0  0
   25.5919  -22.7467  -18.0156 O   0  0  0  0  0  0  0  0  0  0  0  0
   24.2067  -21.0212   -9.2239 N   0  0  0  0  0  0  0  0  0  0  0  0
   23.0352  -20.4978   -9.8769 C   0  0  0  0  0  0  0  0  0  0  0  0
   22.1657  -19.9230   -9.1288 N   0  0  0  0  0  0  0  0  0  0  0  0
   22.8725  -20.6220  -11.2632 N   0  0  0  0  0  0  0  0  0  0  0  0
   23.0167  -21.9022  -11.9187 C   0  0  0  0  0  0  0  0  0  0  0  0
   23.2398  -21.7533  -13.4210 C   0  0  0  0  0  0  0  0  0  0  0  0
   24.5474  -22.4224  -13.8273 C   0  0  0  0  0  0  0  0  0  0  0  0
   24.7349  -22.3930  -15.3214 C   0  0  2  0  0  0  0  0  0  0  0  0
   25.8311  -23.1776  -15.7862 N   0  0  0  0  0  0  0  0  0  0  0  0
   24.8986  -20.9776  -15.7534 C   0  0  0  0  0  0  0  0  0  0  0  0
   25.9677  -20.3806  -15.4802 O   0  0  0  0  0  0  0  0  0  0  0  0
   21.3187  -19.5189   -9.5288 N   0  0  0  0  0  0  0  0  0  0  0  0
   26.8810  -17.1257  -18.4141 C   0  0  0  0  0  0  0  0  0  0  0  0
   25.7162  -17.9400  -18.7344 O   0  0  0  0  0  0  0  0  0  0  0  0
   25.0352  -17.4721  -19.6786 C   0  0  0  0  0  0  0  0  0  0  0  0
   25.4493  -19.1659  -17.9740 C   0  0  1  0  0  0  0  0  0  0  0  0
   24.2744  -18.9796  -17.0523 N   0  0  0  0  0  0  0  0  0  0  0  0
   23.8999  -20.2725  -16.4606 C   0  0  0  0  0  0  0  0  0  0  0  0
   23.0653  -18.4670  -17.6970 O   0  0  0  0  0  0  0  0  0  0  0  0
   22.1358  -19.2252  -18.0411 O   0  0  0  0  0  0  0  0  0  0  0  0
  1  2  1  0
  2  3  1  0
  3  4  1  0
  4  5  1  0
  5  6  1  1
  7  5  1  0
  8  7  2  0
 10  9  1  0
 11 10  2  0
 12 10  1  0
 13 12  1  0
 14 13  1  0
 15 14  1  0
 16 15  1  1
 16 17  1  0
 17  7  1  0
 18 16  1  0
 19 18  2  0
 21 20  1  0
 22 21  2  0
 23 21  1  0
 24 23  1  1
 24 25  1  0
 25 18  1  0
 26 24  1  0
 26 28  1  0
 27 26  2  0
M  END
$$$$
