MRN.pdb
     RDKit          3D

 28 27  0  0  1  0  0  0  0  0999 V2000
   28.5514  -18.3417  -14.2966 C   0  0  0  0  0  0  0  0  0  0  0  0
   29.2843  -19.2103  -12.9099 S   0  0  0  0  0  0  0  0  0  0  0  0
   29.2079  -21.0118  -13.0838 C   0  0  0  0  0  0  0  0  0  0  0  0
   27.7761  -21.4869  -13.2113 C   0  0  0  0  0  0  0  0  0  0  0  0
   26.8993  -20.8965  -12.1301 C   0  0  2  0  0  0  0  0  0  0  0  0
   27.3005  -21.4880  -10.8797 N   0  0  0  0  0  0  0  0  0  0  0  0
   25.4625  -21.1250  -12.3845 C   0  0  0  0  0  0  0  0  0  0  0  0
   25.1399  -21.8952  -13.3145 O   0  0  0  0  0  0  0  0  0  0  0  0
   18.9949  -22.6512   -8.8094 N   0  0  0  0  0  0  0  0  0  0  0  0
   19.8232  -22.6353   -7.6320 C   0  0  0  0  0  0  0  0  0  0  0  0
   19.5875  -23.5350   -6.7482 N   0  0  0  0  0  0  0  0  0  0  0  0
   20.8315  -21.6742   -7.4788 N   0  0  0  0  0  0  0  0  0  0  0  0
   21.0824  -20.6873   -8.5048 C   0  0  0  0  0  0  0  0  0  0  0  0
   21.9434  -21.2440   -9.6351 C   0  0  0  0  0  0  0  0  0  0  0  0
   22.1938  -20.1674  -10.6844 C   0  0  0  0  0  0  0  0  0  0  0  0
   23.0338  -20.6944  -11.8179 C   0  0  2  0  0  0  0  0  0  0  0  0
   24.4369  -20.5197  -11.6330 N   0  0  0  0  0  0  0  0  0  0  0  0
   22.5978  -20.0361  -13.0802 C   0  0  0  0  0  0  0  0  0  0  0  0
   22.9187  -18.8401  -13.2819 O   0  0  0  0  0  0  0  0  0  0  0  0
   20.1175  -23.5621   -5.8769 N   0  0  0  0  0  0  0  0  0  0  0  0
   22.5336  -18.4347  -17.3289 C   0  0  0  0  0  0  0  0  0  0  0  0
   22.4198  -19.8675  -17.5666 O   0  0  0  0  0  0  0  0  0  0  0  0
   22.7591  -20.2006  -18.7278 C   0  0  0  0  0  0  0  0  0  0  0  0
   21.9467  -20.7514  -16.4955 C   0  0  2  0  0  0  0  0  0  0  0  0
   21.5183  -19.9542  -15.2932 N   0  0  0  0  0  0  0  0  0  0  0  0
   21.8354  -20.7002  -14.0664 C   0  0  0  0  0  0  0  0  0  0  0  0
   20.0858  -19.6646  -15.2288 O   0  0  0  0  0  0  0  0  0  0  0  0
   19.6095  -18.6112  -15.6986 O   0  0  0  0  0  0  0  0  0  0  0  0
  1  2  1  0
  2  3  1  0
  3  4  1  0
  4  5  1  0
  5  6  1  1
  7  5  1  0
  8  7  2  0
 10  9  1  0
 11 10  2  0
 12 10  1  0
 13 12  1  0
 14 13  1  0
 15 14  1  0
 16 15  1  1
 16 17  1  0
 17  7  1  0
 18 16  1  0
 19 18  2  0
 21 20  1  0
 22 21  2  0
 23 21  1  0
 24 23  1  1
 24 25  1  0
 25 18  1  0
 26 24  1  0
 26 28  1  0
 27 26  2  0
M  END
$$$$
