MDD.pdb
     RDKit          3D

 25 24  0  0  1  0  0  0  0  0999 V2000
  -24.8216    0.4925  -78.5506 C   0  0  0  0  0  0  0  0  0  0  0  0
  -25.7163    1.7502  -79.4610 S   0  0  0  0  0  0  0  0  0  0  0  0
  -25.0629    3.3963  -79.3742 C   0  0  0  0  0  0  0  0  0  0  0  0
  -25.0183    4.0345  -78.0353 C   0  0  0  0  0  0  0  0  0  0  0  0
  -25.0620    5.5096  -78.0361 C   0  0  2  0  0  0  0  0  0  0  0  0
  -26.4323    5.9510  -78.3158 N   0  0  0  0  0  0  0  0  0  0  0  0
  -24.2616    6.0664  -79.2079 C   0  0  0  0  0  0  0  0  0  0  0  0
  -23.0602    6.3901  -79.0758 O   0  0  0  0  0  0  0  0  0  0  0  0
  -24.8566    6.2306  -80.4706 N   0  0  0  0  0  0  0  0  0  0  0  0
  -24.6331    7.4603  -81.2764 C   0  0  1  0  0  0  0  0  0  0  0  0
  -23.2599    7.3730  -81.8754 C   0  0  0  0  0  0  0  0  0  0  0  0
  -22.7392    6.0050  -81.8909 C   0  0  0  0  0  0  0  0  0  0  0  0
  -21.5245    5.7492  -81.9351 O   0  0  0  0  0  0  0  0  0  0  0  0
  -25.7217    7.5191  -82.3109 C   0  0  0  0  0  0  0  0  0  0  0  0
  -25.6776    6.8357  -83.3541 O   0  0  0  0  0  0  0  0  0  0  0  0
  -23.5859    4.8841  -81.8565 O   0  0  0  0  0  0  0  0  0  0  0  0
  -26.8532    8.3587  -82.1461 N   0  0  0  0  0  0  0  0  0  0  0  0
  -28.2204    8.0131  -82.4539 C   0  0  1  0  0  0  0  0  0  0  0  0
  -28.6377    8.4020  -83.8262 C   0  0  0  0  0  0  0  0  0  0  0  0
  -28.6597    9.8559  -84.0571 C   0  0  0  0  0  0  0  0  0  0  0  0
  -28.8862   10.3339  -85.1990 O   0  0  0  0  0  0  0  0  0  0  0  0
  -28.6215    6.6455  -82.0702 C   0  0  0  0  0  0  0  0  0  0  0  0
  -28.2241    5.6877  -82.7645 O   0  0  0  0  0  0  0  0  0  0  0  0
  -28.4354   10.7898  -83.0459 O   0  0  0  0  0  0  0  0  0  0  0  0
  -29.4126    6.4152  -80.9844 O   0  0  0  0  0  0  0  0  0  0  0  0
  2  1  1  0
  3  2  1  0
  4  5  1  0
  4  3  1  0
  5  7  1  0
  5  6  1  6
  7  9  1  0
  8  7  2  0
  9 10  1  0
 10 11  1  6
 12 11  1  0
 13 12  2  0
 14 10  1  0
 14 15  2  0
 16 12  1  0
 17 14  1  0
 18 17  1  0
 18 22  1  0
 19 20  1  0
 18 19  1  6
 20 21  2  0
 22 23  2  0
 22 25  1  0
 24 20  1  0
M  END
$$$$
