MDD.pdb
     RDKit          3D

 25 24  0  0  1  0  0  0  0  0999 V2000
   23.6827  -13.5663  -18.0694 C   0  0  0  0  0  0  0  0  0  0  0  0
   23.5357  -12.1788  -19.1939 S   0  0  0  0  0  0  0  0  0  0  0  0
   22.2222  -11.0349  -18.8617 C   0  0  0  0  0  0  0  0  0  0  0  0
   22.3327  -10.2213  -17.6256 C   0  0  0  0  0  0  0  0  0  0  0  0
   21.3183  -10.5017  -16.5912 C   0  0  2  0  0  0  0  0  0  0  0  0
   20.2026  -11.2361  -17.1969 N   0  0  0  0  0  0  0  0  0  0  0  0
   20.6739   -9.2064  -16.1108 C   0  0  0  0  0  0  0  0  0  0  0  0
   19.9683   -8.5117  -16.8757 O   0  0  0  0  0  0  0  0  0  0  0  0
   20.8579   -8.7590  -14.7911 N   0  0  0  0  0  0  0  0  0  0  0  0
   20.2637   -7.4804  -14.3185 C   0  0  1  0  0  0  0  0  0  0  0  0
   20.1859   -7.5366  -12.8209 C   0  0  0  0  0  0  0  0  0  0  0  0
   19.0659   -8.3509  -12.3461 C   0  0  0  0  0  0  0  0  0  0  0  0
   18.2217   -8.8439  -13.1124 O   0  0  0  0  0  0  0  0  0  0  0  0
   21.1426   -6.3688  -14.8189 C   0  0  0  0  0  0  0  0  0  0  0  0
   22.2295   -6.5934  -15.3892 O   0  0  0  0  0  0  0  0  0  0  0  0
   18.8716   -8.6297  -10.9827 O   0  0  0  0  0  0  0  0  0  0  0  0
   20.7732   -5.0079  -14.6638 N   0  0  0  0  0  0  0  0  0  0  0  0
   21.4485   -3.8721  -15.2447 C   0  0  1  0  0  0  0  0  0  0  0  0
   21.7445   -4.0325  -16.6923 C   0  0  0  0  0  0  0  0  0  0  0  0
   22.3820   -2.8568  -17.3079 C   0  0  0  0  0  0  0  0  0  0  0  0
   21.7191   -2.0389  -17.9974 O   0  0  0  0  0  0  0  0  0  0  0  0
   20.8783   -2.5574  -14.8914 C   0  0  0  0  0  0  0  0  0  0  0  0
   19.6590   -2.4821  -14.6372 O   0  0  0  0  0  0  0  0  0  0  0  0
   23.7403   -2.5709  -17.1736 O   0  0  0  0  0  0  0  0  0  0  0  0
   21.6528   -1.4368  -14.8426 O   0  0  0  0  0  0  0  0  0  0  0  0
  2  1  1  0
  3  2  1  0
  4  5  1  0
  4  3  1  0
  5  7  1  0
  5  6  1  6
  7  9  1  0
  8  7  2  0
  9 10  1  0
 10 11  1  1
 12 11  1  0
 13 12  2  0
 14 10  1  0
 14 15  2  0
 16 12  1  0
 17 14  1  0
 18 17  1  0
 18 22  1  0
 19 20  1  0
 18 19  1  6
 20 21  2  0
 22 23  2  0
 22 25  1  0
 24 20  1  0
M  END
$$$$
