MDD.pdb
     RDKit          3D

 25 24  0  0  1  0  0  0  0  0999 V2000
   29.6829  -12.5040  -16.9612 C   0  0  0  0  0  0  0  0  0  0  0  0
   28.3184  -13.0703  -15.9469 S   0  0  0  0  0  0  0  0  0  0  0  0
   27.2079  -11.8205  -15.3562 C   0  0  0  0  0  0  0  0  0  0  0  0
   26.5071  -11.0035  -16.3777 C   0  0  0  0  0  0  0  0  0  0  0  0
   25.2217  -11.5512  -16.8526 C   0  0  2  0  0  0  0  0  0  0  0  0
   25.4250  -12.1997  -18.1523 N   0  0  0  0  0  0  0  0  0  0  0  0
   24.2443  -10.4239  -17.1654 C   0  0  0  0  0  0  0  0  0  0  0  0
   24.1988   -9.9031  -18.3022 O   0  0  0  0  0  0  0  0  0  0  0  0
   23.3668   -9.9400  -16.1798 N   0  0  0  0  0  0  0  0  0  0  0  0
   22.3257   -8.9280  -16.5013 C   0  0  1  0  0  0  0  0  0  0  0  0
   20.9911   -9.5133  -16.1432 C   0  0  0  0  0  0  0  0  0  0  0  0
   19.8835   -8.5954  -16.4142 C   0  0  0  0  0  0  0  0  0  0  0  0
   19.9893   -7.6227  -17.1795 O   0  0  0  0  0  0  0  0  0  0  0  0
   22.6520   -7.6884  -15.7169 C   0  0  0  0  0  0  0  0  0  0  0  0
   22.8065   -7.7129  -14.4790 O   0  0  0  0  0  0  0  0  0  0  0  0
   18.6194   -8.7562  -15.8219 O   0  0  0  0  0  0  0  0  0  0  0  0
   22.7994   -6.4289  -16.3530 N   0  0  0  0  0  0  0  0  0  0  0  0
   23.0358   -5.1664  -15.6945 C   0  0  1  0  0  0  0  0  0  0  0  0
   23.7340   -4.1712  -16.5495 C   0  0  0  0  0  0  0  0  0  0  0  0
   25.0599   -4.6079  -17.0175 C   0  0  0  0  0  0  0  0  0  0  0  0
   25.8843   -5.1491  -16.2356 O   0  0  0  0  0  0  0  0  0  0  0  0
   21.8796   -4.6183  -14.9588 C   0  0  0  0  0  0  0  0  0  0  0  0
   20.7313   -4.9632  -15.3047 O   0  0  0  0  0  0  0  0  0  0  0  0
   25.4889   -4.4561  -18.3357 O   0  0  0  0  0  0  0  0  0  0  0  0
   22.0443   -3.7490  -13.9219 O   0  0  0  0  0  0  0  0  0  0  0  0
  2  1  1  0
  3  2  1  0
  4  5  1  0
  4  3  1  0
  5  7  1  0
  5  6  1  6
  7  9  1  0
  8  7  2  0
  9 10  1  0
 10 11  1  1
 12 11  1  0
 13 12  2  0
 14 10  1  0
 14 15  2  0
 16 12  1  0
 17 14  1  0
 18 17  1  0
 18 22  1  0
 19 20  1  0
 18 19  1  6
 20 21  2  0
 22 23  2  0
 22 25  1  0
 24 20  1  0
M  END
$$$$
