MDD.pdb
     RDKit          3D

 25 24  0  0  1  0  0  0  0  0999 V2000
   27.8800  -18.8922   -5.8608 C   0  0  0  0  0  0  0  0  0  0  0  0
   28.3715  -20.1123   -7.0779 S   0  0  0  0  0  0  0  0  0  0  0  0
   27.1183  -21.2558   -7.5933 C   0  0  0  0  0  0  0  0  0  0  0  0
   26.3191  -20.8874   -8.7882 C   0  0  0  0  0  0  0  0  0  0  0  0
   26.7346  -21.5303  -10.0498 C   0  0  2  0  0  0  0  0  0  0  0  0
   28.1574  -21.2609  -10.2822 N   0  0  0  0  0  0  0  0  0  0  0  0
   26.0472  -20.8676  -11.2381 C   0  0  0  0  0  0  0  0  0  0  0  0
   26.1508  -19.6375  -11.4426 O   0  0  0  0  0  0  0  0  0  0  0  0
   25.2768  -21.6256  -12.1366 N   0  0  0  0  0  0  0  0  0  0  0  0
   24.5739  -20.9876  -13.2813 C   0  0  1  0  0  0  0  0  0  0  0  0
   25.2913  -21.3838  -14.5384 C   0  0  0  0  0  0  0  0  0  0  0  0
   24.6763  -20.8164  -15.7395 C   0  0  0  0  0  0  0  0  0  0  0  0
   24.0770  -19.7284  -15.7372 O   0  0  0  0  0  0  0  0  0  0  0  0
   23.1473  -21.4587  -13.2468 C   0  0  0  0  0  0  0  0  0  0  0  0
   22.8526  -22.6712  -13.2619 O   0  0  0  0  0  0  0  0  0  0  0  0
   24.7243  -21.4706  -16.9822 O   0  0  0  0  0  0  0  0  0  0  0  0
   22.0670  -20.5407  -13.1954 N   0  0  0  0  0  0  0  0  0  0  0  0
   20.6667  -20.8676  -13.3212 C   0  0  1  0  0  0  0  0  0  0  0  0
   19.9511  -20.9293  -12.0200 C   0  0  0  0  0  0  0  0  0  0  0  0
   18.5922  -21.4887  -12.1089 C   0  0  0  0  0  0  0  0  0  0  0  0
   18.1298  -21.9144  -13.1993 O   0  0  0  0  0  0  0  0  0  0  0  0
   19.9421  -20.1227  -14.3692 C   0  0  0  0  0  0  0  0  0  0  0  0
   19.9196  -20.5869  -15.5273 O   0  0  0  0  0  0  0  0  0  0  0  0
   17.7363  -21.5849  -11.0121 O   0  0  0  0  0  0  0  0  0  0  0  0
   19.3074  -18.9477  -14.0960 O   0  0  0  0  0  0  0  0  0  0  0  0
  2  1  1  0
  3  2  1  0
  4  5  1  0
  4  3  1  0
  5  7  1  0
  5  6  1  6
  7  9  1  0
  8  7  2  0
  9 10  1  0
 10 11  1  6
 12 11  1  0
 13 12  2  0
 14 10  1  0
 14 15  2  0
 16 12  1  0
 17 14  1  0
 18 17  1  0
 18 22  1  0
 19 20  1  0
 18 19  1  1
 20 21  2  0
 22 23  2  0
 22 25  1  0
 24 20  1  0
M  END
$$$$
