MDD.pdb
     RDKit          3D

 25 24  0  0  1  0  0  0  0  0999 V2000
   25.0907  -19.9368   -8.0142 C   0  0  0  0  0  0  0  0  0  0  0  0
   26.5181  -20.8006   -8.6684 S   0  0  0  0  0  0  0  0  0  0  0  0
   26.2885  -21.6369  -10.2150 C   0  0  0  0  0  0  0  0  0  0  0  0
   25.3215  -21.0385  -11.1684 C   0  0  0  0  0  0  0  0  0  0  0  0
   25.0148  -21.8586  -12.3563 C   0  0  2  0  0  0  0  0  0  0  0  0
   26.2249  -21.9941  -13.1738 N   0  0  0  0  0  0  0  0  0  0  0  0
   24.0440  -21.1252  -13.2748 C   0  0  0  0  0  0  0  0  0  0  0  0
   24.4535  -20.4694  -14.2586 O   0  0  0  0  0  0  0  0  0  0  0  0
   22.6594  -21.1680  -13.0375 N   0  0  0  0  0  0  0  0  0  0  0  0
   21.6926  -20.5620  -13.9912 C   0  0  1  0  0  0  0  0  0  0  0  0
   20.3119  -20.9645  -13.5625 C   0  0  0  0  0  0  0  0  0  0  0  0
   20.1478  -22.4171  -13.4862 C   0  0  0  0  0  0  0  0  0  0  0  0
   19.7000  -22.9904  -12.4793 O   0  0  0  0  0  0  0  0  0  0  0  0
   21.9069  -19.0749  -13.9583 C   0  0  0  0  0  0  0  0  0  0  0  0
   22.6379  -18.5327  -13.1047 O   0  0  0  0  0  0  0  0  0  0  0  0
   20.4887  -23.2634  -14.5548 O   0  0  0  0  0  0  0  0  0  0  0  0
   21.2840  -18.2175  -14.9014 N   0  0  0  0  0  0  0  0  0  0  0  0
   21.9435  -17.2182  -15.7075 C   0  0  1  0  0  0  0  0  0  0  0  0
   23.2144  -17.6897  -16.3171 C   0  0  0  0  0  0  0  0  0  0  0  0
   23.9272  -16.6591  -17.0901 C   0  0  0  0  0  0  0  0  0  0  0  0
   24.4491  -15.6623  -16.5263 O   0  0  0  0  0  0  0  0  0  0  0  0
   21.0647  -16.4886  -16.6423 C   0  0  0  0  0  0  0  0  0  0  0  0
   20.5129  -17.1229  -17.5644 O   0  0  0  0  0  0  0  0  0  0  0  0
   24.0724  -16.7128  -18.4760 O   0  0  0  0  0  0  0  0  0  0  0  0
   20.8517  -15.1481  -16.5177 O   0  0  0  0  0  0  0  0  0  0  0  0
  2  1  1  0
  3  2  1  0
  4  5  1  0
  4  3  1  0
  5  7  1  0
  5  6  1  6
  7  9  1  0
  8  7  2  0
  9 10  1  0
 10 11  1  1
 12 11  1  0
 13 12  2  0
 14 10  1  0
 14 15  2  0
 16 12  1  0
 17 14  1  0
 18 17  1  0
 18 22  1  0
 19 20  1  0
 18 19  1  6
 20 21  2  0
 22 23  2  0
 22 25  1  0
 24 20  1  0
M  END
$$$$
