MDD.pdb
     RDKit          3D

 25 24  0  0  1  0  0  0  0  0999 V2000
   19.8934  -22.6287  -13.2893 C   0  0  0  0  0  0  0  0  0  0  0  0
   20.1831  -20.9418  -13.8200 S   0  0  0  0  0  0  0  0  0  0  0  0
   21.8790  -20.4516  -13.9863 C   0  0  0  0  0  0  0  0  0  0  0  0
   22.1384  -19.0818  -14.4948 C   0  0  0  0  0  0  0  0  0  0  0  0
   20.9403  -18.3165  -14.8902 C   0  0  2  0  0  0  0  0  0  0  0  0
   20.3650  -18.9130  -16.1002 N   0  0  0  0  0  0  0  0  0  0  0  0
   21.3277  -16.9108  -15.3349 C   0  0  0  0  0  0  0  0  0  0  0  0
   21.8970  -16.1178  -14.5522 O   0  0  0  0  0  0  0  0  0  0  0  0
   21.0535  -16.4695  -16.6409 N   0  0  0  0  0  0  0  0  0  0  0  0
   21.3066  -15.0626  -17.0505 C   0  0  1  0  0  0  0  0  0  0  0  0
   21.6871  -15.0689  -18.5022 C   0  0  0  0  0  0  0  0  0  0  0  0
   21.8974  -13.7215  -19.0343 C   0  0  0  0  0  0  0  0  0  0  0  0
   22.8212  -12.9847  -18.6511 O   0  0  0  0  0  0  0  0  0  0  0  0
   20.0495  -14.2858  -16.7770 C   0  0  0  0  0  0  0  0  0  0  0  0
   18.9201  -14.8109  -16.8530 O   0  0  0  0  0  0  0  0  0  0  0  0
   21.0619  -13.1701  -20.0203 O   0  0  0  0  0  0  0  0  0  0  0  0
   20.0919  -12.9138  -16.4187 N   0  0  0  0  0  0  0  0  0  0  0  0
   18.9578  -12.0890  -16.0765 C   0  0  1  0  0  0  0  0  0  0  0  0
   18.7404  -11.9545  -14.6124 C   0  0  0  0  0  0  0  0  0  0  0  0
   17.5699  -11.1372  -14.2526 C   0  0  0  0  0  0  0  0  0  0  0  0
   17.6891   -9.9222  -13.9470 O   0  0  0  0  0  0  0  0  0  0  0  0
   18.8650  -10.8150  -16.8159 C   0  0  0  0  0  0  0  0  0  0  0  0
   19.9198  -10.2324  -17.1402 O   0  0  0  0  0  0  0  0  0  0  0  0
   16.2699  -11.6414  -14.2251 O   0  0  0  0  0  0  0  0  0  0  0  0
   17.6595  -10.2694  -17.1432 O   0  0  0  0  0  0  0  0  0  0  0  0
  2  1  1  0
  3  2  1  0
  4  5  1  0
  4  3  1  0
  5  7  1  0
  5  6  1  6
  7  9  1  0
  8  7  2  0
  9 10  1  0
 10 11  1  6
 12 11  1  0
 13 12  2  0
 14 10  1  0
 14 15  2  0
 16 12  1  0
 17 14  1  0
 18 17  1  0
 18 22  1  0
 19 20  1  0
 18 19  1  1
 20 21  2  0
 22 23  2  0
 22 25  1  0
 24 20  1  0
M  END
$$$$
