MDD.pdb
     RDKit          3D

 25 24  0  0  1  0  0  0  0  0999 V2000
   15.2409  -13.5107  -17.9464 C   0  0  0  0  0  0  0  0  0  0  0  0
   16.6777  -12.4897  -17.6228 S   0  0  0  0  0  0  0  0  0  0  0  0
   17.3537  -12.5821  -15.9862 C   0  0  0  0  0  0  0  0  0  0  0  0
   18.5211  -11.7156  -15.6886 C   0  0  0  0  0  0  0  0  0  0  0  0
   19.7045  -11.9336  -16.5428 C   0  0  2  0  0  0  0  0  0  0  0  0
   20.3099  -13.2265  -16.2067 N   0  0  0  0  0  0  0  0  0  0  0  0
   20.7994  -10.9283  -16.2043 C   0  0  0  0  0  0  0  0  0  0  0  0
   21.2833  -10.8613  -15.0524 O   0  0  0  0  0  0  0  0  0  0  0  0
   21.2938  -10.0483  -17.1825 N   0  0  0  0  0  0  0  0  0  0  0  0
   22.3249   -9.0282  -16.8543 C   0  0  1  0  0  0  0  0  0  0  0  0
   23.3722   -9.0727  -17.9281 C   0  0  0  0  0  0  0  0  0  0  0  0
   24.4028   -8.0483  -17.7512 C   0  0  0  0  0  0  0  0  0  0  0  0
   24.8489   -7.7298  -16.6365 O   0  0  0  0  0  0  0  0  0  0  0  0
   21.6268   -7.7000  -16.7705 C   0  0  0  0  0  0  0  0  0  0  0  0
   20.7333   -7.3726  -17.5776 O   0  0  0  0  0  0  0  0  0  0  0  0
   24.9585   -7.3537  -18.8389 O   0  0  0  0  0  0  0  0  0  0  0  0
   21.9549   -6.7549  -15.7647 N   0  0  0  0  0  0  0  0  0  0  0  0
   21.1493   -5.6267  -15.3628 C   0  0  1  0  0  0  0  0  0  0  0  0
   19.7091   -5.9537  -15.1955 C   0  0  0  0  0  0  0  0  0  0  0  0
   18.8695   -4.7984  -14.8379 C   0  0  0  0  0  0  0  0  0  0  0  0
   18.5368   -4.5756  -13.6447 O   0  0  0  0  0  0  0  0  0  0  0  0
   21.7114   -4.8161  -14.2649 C   0  0  0  0  0  0  0  0  0  0  0  0
   21.1660   -3.7297  -13.9825 O   0  0  0  0  0  0  0  0  0  0  0  0
   18.3917   -3.8857  -15.7778 O   0  0  0  0  0  0  0  0  0  0  0  0
   22.8059   -5.2287  -13.5652 O   0  0  0  0  0  0  0  0  0  0  0  0
  2  1  1  0
  3  2  1  0
  4  5  1  0
  4  3  1  0
  5  7  1  0
  5  6  1  1
  7  9  1  0
  8  7  2  0
  9 10  1  0
 10 11  1  6
 12 11  1  0
 13 12  2  0
 14 10  1  0
 14 15  2  0
 16 12  1  0
 17 14  1  0
 18 17  1  0
 18 22  1  0
 19 20  1  0
 18 19  1  1
 20 21  2  0
 22 23  2  0
 22 25  1  0
 24 20  1  0
M  END
$$$$
