MDD.pdb
     RDKit          3D

 25 24  0  0  1  0  0  0  0  0999 V2000
   27.4756  -14.4938  -15.6299 C   0  0  0  0  0  0  0  0  0  0  0  0
   26.1173  -15.6136  -15.2947 S   0  0  0  0  0  0  0  0  0  0  0  0
   25.1401  -16.1024  -16.6913 C   0  0  0  0  0  0  0  0  0  0  0  0
   24.0621  -17.0924  -16.4469 C   0  0  0  0  0  0  0  0  0  0  0  0
   24.3189  -18.0502  -15.3540 C   0  0  2  0  0  0  0  0  0  0  0  0
   25.2474  -19.0827  -15.8262 N   0  0  0  0  0  0  0  0  0  0  0  0
   23.0536  -18.8330  -15.0222 C   0  0  0  0  0  0  0  0  0  0  0  0
   22.6962  -19.8106  -15.7165 O   0  0  0  0  0  0  0  0  0  0  0  0
   22.2541  -18.4737  -13.9235 N   0  0  0  0  0  0  0  0  0  0  0  0
   21.1069  -19.3167  -13.4938 C   0  0  1  0  0  0  0  0  0  0  0  0
   20.9371  -19.1400  -12.0132 C   0  0  0  0  0  0  0  0  0  0  0  0
   21.7247  -20.1002  -11.2383 C   0  0  0  0  0  0  0  0  0  0  0  0
   21.8200  -20.0473  -10.0009 O   0  0  0  0  0  0  0  0  0  0  0  0
   19.9064  -18.8695  -14.2794 C   0  0  0  0  0  0  0  0  0  0  0  0
   19.6538  -17.6621  -14.4676 O   0  0  0  0  0  0  0  0  0  0  0  0
   22.4292  -21.1518  -11.8484 O   0  0  0  0  0  0  0  0  0  0  0  0
   19.0024  -19.8056  -14.8445 N   0  0  0  0  0  0  0  0  0  0  0  0
   17.8013  -19.4901  -15.5801 C   0  0  1  0  0  0  0  0  0  0  0  0
   17.2838  -20.6247  -16.3887 C   0  0  0  0  0  0  0  0  0  0  0  0
   16.1054  -20.2906  -17.2056 C   0  0  0  0  0  0  0  0  0  0  0  0
   15.2417  -21.1592  -17.4944 O   0  0  0  0  0  0  0  0  0  0  0  0
   16.7623  -18.7817  -14.8074 C   0  0  0  0  0  0  0  0  0  0  0  0
   15.9992  -17.9979  -15.4079 O   0  0  0  0  0  0  0  0  0  0  0  0
   15.8665  -19.0119  -17.7083 O   0  0  0  0  0  0  0  0  0  0  0  0
   16.6272  -18.9651  -13.4635 O   0  0  0  0  0  0  0  0  0  0  0  0
  2  1  1  0
  3  2  1  0
  4  5  1  0
  4  3  1  0
  5  7  1  0
  5  6  1  6
  7  9  1  0
  8  7  2  0
  9 10  1  0
 10 11  1  1
 12 11  1  0
 13 12  2  0
 14 10  1  0
 14 15  2  0
 16 12  1  0
 17 14  1  0
 18 17  1  0
 18 22  1  0
 19 20  1  0
 18 19  1  1
 20 21  2  0
 22 23  2  0
 22 25  1  0
 24 20  1  0
M  END
$$$$
