SKW.pdb
     RDKit          3D

 30 31  0  0  1  0  0  0  0  0999 V2000
   14.2303  -16.4826   21.0013 O   0  0  0  0  0  0  0  0  0  0  0  0
   13.3470  -16.7626   19.9809 C   0  0  0  0  0  0  0  0  0  0  0  0
   12.5945  -15.5438   19.5057 C   0  0  2  0  0  0  0  0  0  0  0  0
   13.4726  -14.4239   19.2584 N   0  0  0  0  0  0  0  0  0  0  0  0
   11.4954  -15.1663   20.4289 C   0  0  0  0  0  0  0  0  0  0  0  0
   11.5933  -14.1132   21.1461 O   0  0  0  0  0  0  0  0  0  0  0  0
   10.3245  -15.9631   20.5307 N   0  0  0  0  0  0  0  0  0  0  0  0
    9.3050  -15.7770   21.5229 C   0  0  1  0  0  0  0  0  0  0  0  0
    8.0195  -16.4864   21.2310 C   0  0  0  0  0  0  0  0  0  0  0  0
    7.8516  -16.8365   19.7796 C   0  0  0  0  0  0  0  0  0  0  0  0
    6.8891  -17.9973   19.6609 C   0  0  0  0  0  0  0  0  0  0  0  0
    6.7448  -18.3046   18.1833 C   0  0  0  0  0  0  0  0  0  0  0  0
    5.8812  -19.4450   17.9562 N   0  0  0  0  0  0  0  0  0  0  0  0
    9.8006  -16.0588   22.9038 C   0  0  0  0  0  0  0  0  0  0  0  0
   10.4532  -17.1165   23.0923 O   0  0  0  0  0  0  0  0  0  0  0  0
    9.5703  -15.2019   23.9893 N   0  0  0  0  0  0  0  0  0  0  0  0
    9.9261  -15.6012   25.3456 C   0  0  1  0  0  0  0  0  0  0  0  0
    8.7620  -16.2128   26.0687 C   0  0  0  0  0  0  0  0  0  0  0  0
    7.5752  -15.3239   25.9622 C   0  0  0  0  0  0  0  0  0  0  0  0
    6.2700  -15.6586   25.6675 C   0  0  0  0  0  0  0  0  0  0  0  0
    5.4967  -14.5595   25.6724 N   0  0  0  0  0  0  0  0  0  0  0  0
    6.3036  -13.5024   25.9721 C   0  0  0  0  0  0  0  0  0  0  0  0
    6.0093  -12.1496   26.1009 C   0  0  0  0  0  0  0  0  0  0  0  0
    6.9945  -11.2412   26.4114 C   0  0  0  0  0  0  0  0  0  0  0  0
    8.2779  -11.7174   26.5897 C   0  0  0  0  0  0  0  0  0  0  0  0
    8.5918  -13.0595   26.4663 C   0  0  0  0  0  0  0  0  0  0  0  0
    7.5876  -13.9499   26.1545 C   0  0  0  0  0  0  0  0  0  0  0  0
   10.9723  -16.6696   25.2097 C   0  0  0  0  0  0  0  0  0  0  0  0
   11.5319  -17.2709   26.3162 O   0  0  0  0  0  0  0  0  0  0  0  0
   11.3888  -17.0677   24.0871 O   0  0  0  0  0  0  0  0  0  0  0  0
  1  2  1  0
  2  3  1  0
  3  4  1  1
  5  3  1  0
  6  5  2  0
  7  5  1  0
  8 14  1  0
  8  7  1  0
  8  9  1  6
 10 11  1  0
 10  9  1  0
 11 12  1  0
 13 12  1  0
 14 15  2  0
 16 17  1  0
 16 14  1  0
 17 18  1  6
 19 18  1  0
 20 19  2  0
 21 20  1  0
 22 21  1  0
 22 27  2  0
 23 22  1  0
 24 23  2  0
 24 25  1  0
 25 26  2  0
 26 27  1  0
 27 19  1  0
 28 29  1  0
 28 17  1  0
 30 28  2  0
M  END
$$$$
