SKW.pdb
     RDKit          3D

 30 31  0  0  1  0  0  0  0  0999 V2000
    8.8996  -12.4078   20.4680 O   0  0  0  0  0  0  0  0  0  0  0  0
    8.8978  -13.5497   19.6962 C   0  0  0  0  0  0  0  0  0  0  0  0
    7.7106  -14.4405   19.9694 C   0  0  2  0  0  0  0  0  0  0  0  0
    6.4831  -13.6892   20.0923 N   0  0  0  0  0  0  0  0  0  0  0  0
    7.9227  -15.3130   21.1512 C   0  0  0  0  0  0  0  0  0  0  0  0
    7.2221  -15.1450   22.2066 O   0  0  0  0  0  0  0  0  0  0  0  0
    8.9007  -16.3421   21.1299 N   0  0  0  0  0  0  0  0  0  0  0  0
    9.1485  -17.2432   22.2185 C   0  0  1  0  0  0  0  0  0  0  0  0
    9.9728  -18.4396   21.8573 C   0  0  0  0  0  0  0  0  0  0  0  0
   11.3096  -18.0837   21.2711 C   0  0  0  0  0  0  0  0  0  0  0  0
   11.9843  -19.3456   20.7811 C   0  0  0  0  0  0  0  0  0  0  0  0
   13.3455  -18.9427   20.2488 C   0  0  0  0  0  0  0  0  0  0  0  0
   14.0629  -20.0762   19.7023 N   0  0  0  0  0  0  0  0  0  0  0  0
    9.6781  -16.5405   23.4259 C   0  0  0  0  0  0  0  0  0  0  0  0
   10.4546  -15.5678   23.2495 O   0  0  0  0  0  0  0  0  0  0  0  0
    9.3498  -16.9167   24.7359 N   0  0  0  0  0  0  0  0  0  0  0  0
    9.9935  -16.2818   25.8797 C   0  0  1  0  0  0  0  0  0  0  0  0
    9.0228  -16.0336   26.9969 C   0  0  0  0  0  0  0  0  0  0  0  0
    7.8115  -15.3490   26.4734 C   0  0  0  0  0  0  0  0  0  0  0  0
    6.6943  -15.9028   25.8840 C   0  0  0  0  0  0  0  0  0  0  0  0
    5.8187  -14.9388   25.5521 N   0  0  0  0  0  0  0  0  0  0  0  0
    6.3694  -13.7498   25.9279 C   0  0  0  0  0  0  0  0  0  0  0  0
    5.8830  -12.4524   25.8119 C   0  0  0  0  0  0  0  0  0  0  0  0
    6.6191  -11.3816   26.2632 C   0  0  0  0  0  0  0  0  0  0  0  0
    7.8503  -11.6391   26.8320 C   0  0  0  0  0  0  0  0  0  0  0  0
    8.3525  -12.9225   26.9571 C   0  0  0  0  0  0  0  0  0  0  0  0
    7.5964  -13.9786   26.4974 C   0  0  0  0  0  0  0  0  0  0  0  0
   11.0111  -17.2618   26.3883 C   0  0  0  0  0  0  0  0  0  0  0  0
   11.8316  -16.9568   27.4525 O   0  0  0  0  0  0  0  0  0  0  0  0
   11.1658  -18.4030   25.8727 O   0  0  0  0  0  0  0  0  0  0  0  0
  1  2  1  0
  2  3  1  0
  3  4  1  1
  5  3  1  0
  6  5  2  0
  7  5  1  0
  8 14  1  0
  8  7  1  0
  8  9  1  6
 10 11  1  0
 10  9  1  0
 11 12  1  0
 13 12  1  0
 14 15  2  0
 16 17  1  0
 16 14  1  0
 17 18  1  1
 19 18  1  0
 20 19  2  0
 21 20  1  0
 22 21  1  0
 22 27  2  0
 23 22  1  0
 24 23  2  0
 24 25  1  0
 25 26  2  0
 26 27  1  0
 27 19  1  0
 28 29  1  0
 28 17  1  0
 30 28  2  0
M  END
$$$$
