SKW.pdb
     RDKit          3D

 30 31  0  0  1  0  0  0  0  0999 V2000
    6.4864  -18.8522   22.7325 O   0  0  0  0  0  0  0  0  0  0  0  0
    5.6578  -18.5893   21.6629 C   0  0  0  0  0  0  0  0  0  0  0  0
    6.4159  -18.2382   20.4061 C   0  0  2  0  0  0  0  0  0  0  0  0
    6.9910  -19.4027   19.7739 N   0  0  0  0  0  0  0  0  0  0  0  0
    7.4463  -17.1966   20.6436 C   0  0  0  0  0  0  0  0  0  0  0  0
    8.6704  -17.5288   20.7986 O   0  0  0  0  0  0  0  0  0  0  0  0
    7.0922  -15.8228   20.7023 N   0  0  0  0  0  0  0  0  0  0  0  0
    7.9768  -14.7787   21.1334 C   0  0  1  0  0  0  0  0  0  0  0  0
    7.5736  -13.4050   20.6959 C   0  0  0  0  0  0  0  0  0  0  0  0
    8.2269  -12.9755   19.4129 C   0  0  0  0  0  0  0  0  0  0  0  0
    7.6103  -13.7434   18.2649 C   0  0  0  0  0  0  0  0  0  0  0  0
    8.2878  -13.2644   16.9961 C   0  0  0  0  0  0  0  0  0  0  0  0
    9.4805  -14.0326   16.7039 N   0  0  0  0  0  0  0  0  0  0  0  0
    8.2548  -14.8417   22.5999 C   0  0  0  0  0  0  0  0  0  0  0  0
    7.6193  -14.0633   23.3551 O   0  0  0  0  0  0  0  0  0  0  0  0
    9.1868  -15.7236   23.1650 N   0  0  0  0  0  0  0  0  0  0  0  0
    9.9405  -15.3522   24.3565 C   0  0  1  0  0  0  0  0  0  0  0  0
    9.2977  -15.8765   25.6070 C   0  0  0  0  0  0  0  0  0  0  0  0
    7.9614  -15.2515   25.7906 C   0  0  0  0  0  0  0  0  0  0  0  0
    6.7146  -15.8041   25.5843 C   0  0  0  0  0  0  0  0  0  0  0  0
    5.7562  -14.9063   25.8695 N   0  0  0  0  0  0  0  0  0  0  0  0
    6.3829  -13.7618   26.2642 C   0  0  0  0  0  0  0  0  0  0  0  0
    5.8596  -12.5373   26.6641 C   0  0  0  0  0  0  0  0  0  0  0  0
    6.6894  -11.5007   27.0234 C   0  0  0  0  0  0  0  0  0  0  0  0
    8.0517  -11.7179   26.9734 C   0  0  0  0  0  0  0  0  0  0  0  0
    8.5928  -12.9288   26.5785 C   0  0  0  0  0  0  0  0  0  0  0  0
    7.7410  -13.9519   26.2233 C   0  0  0  0  0  0  0  0  0  0  0  0
   11.2791  -16.0212   24.2341 C   0  0  0  0  0  0  0  0  0  0  0  0
   12.2520  -15.8611   25.1967 O   0  0  0  0  0  0  0  0  0  0  0  0
   11.5790  -16.7567   23.2536 O   0  0  0  0  0  0  0  0  0  0  0  0
  1  2  1  0
  2  3  1  0
  3  4  1  1
  5  3  1  0
  6  5  2  0
  7  5  1  0
  8 14  1  0
  8  7  1  0
  8  9  1  1
 10 11  1  0
 10  9  1  0
 11 12  1  0
 13 12  1  0
 14 15  2  0
 16 17  1  0
 16 14  1  0
 17 18  1  1
 19 18  1  0
 20 19  2  0
 21 20  1  0
 22 21  1  0
 22 27  2  0
 23 22  1  0
 24 23  2  0
 24 25  1  0
 25 26  2  0
 26 27  1  0
 27 19  1  0
 28 29  1  0
 28 17  1  0
 30 28  2  0
M  END
$$$$
