SKW.pdb
     RDKit          3D

 30 31  0  0  1  0  0  0  0  0999 V2000
    6.8712  -18.9695   24.0616 O   0  0  0  0  0  0  0  0  0  0  0  0
    5.7791  -18.7589   23.2477 C   0  0  0  0  0  0  0  0  0  0  0  0
    6.1417  -18.6965   21.7841 C   0  0  2  0  0  0  0  0  0  0  0  0
    6.4736  -19.9967   21.2495 N   0  0  0  0  0  0  0  0  0  0  0  0
    7.2235  -17.7168   21.5142 C   0  0  0  0  0  0  0  0  0  0  0  0
    8.4204  -18.1201   21.3199 O   0  0  0  0  0  0  0  0  0  0  0  0
    6.9493  -16.3244   21.4676 N   0  0  0  0  0  0  0  0  0  0  0  0
    7.9520  -15.3084   21.3227 C   0  0  1  0  0  0  0  0  0  0  0  0
    7.4724  -14.0547   20.6599 C   0  0  0  0  0  0  0  0  0  0  0  0
    8.3489  -13.6125   19.5225 C   0  0  0  0  0  0  0  0  0  0  0  0
    7.5052  -13.4757   18.2747 C   0  0  0  0  0  0  0  0  0  0  0  0
    8.4326  -13.0381   17.1580 C   0  0  0  0  0  0  0  0  0  0  0  0
    7.7578  -13.0261   15.8764 N   0  0  0  0  0  0  0  0  0  0  0  0
    8.6636  -15.0280   22.6060 C   0  0  0  0  0  0  0  0  0  0  0  0
    8.7994  -13.8282   22.9556 O   0  0  0  0  0  0  0  0  0  0  0  0
    9.1828  -16.0368   23.4295 N   0  0  0  0  0  0  0  0  0  0  0  0
    9.9839  -15.7064   24.6020 C   0  0  1  0  0  0  0  0  0  0  0  0
    9.2981  -16.1075   25.8751 C   0  0  0  0  0  0  0  0  0  0  0  0
    7.9653  -15.4545   25.9605 C   0  0  0  0  0  0  0  0  0  0  0  0
    6.7171  -16.0146   25.7853 C   0  0  0  0  0  0  0  0  0  0  0  0
    5.7630  -15.0830   25.9515 N   0  0  0  0  0  0  0  0  0  0  0  0
    6.3939  -13.9087   26.2367 C   0  0  0  0  0  0  0  0  0  0  0  0
    5.8760  -12.6439   26.4921 C   0  0  0  0  0  0  0  0  0  0  0  0
    6.7094  -11.5824   26.7583 C   0  0  0  0  0  0  0  0  0  0  0  0
    8.0700  -11.8160   26.7630 C   0  0  0  0  0  0  0  0  0  0  0  0
    8.6058  -13.0669   26.5115 C   0  0  0  0  0  0  0  0  0  0  0  0
    7.7504  -14.1142   26.2474 C   0  0  0  0  0  0  0  0  0  0  0  0
   11.2386  -16.5248   24.4995 C   0  0  0  0  0  0  0  0  0  0  0  0
   12.2942  -16.3312   25.3640 O   0  0  0  0  0  0  0  0  0  0  0  0
   11.3897  -17.4224   23.6257 O   0  0  0  0  0  0  0  0  0  0  0  0
  1  2  1  0
  2  3  1  0
  3  4  1  1
  5  3  1  0
  6  5  2  0
  7  5  1  0
  8 14  1  0
  8  7  1  0
  8  9  1  1
 10 11  1  0
 10  9  1  0
 11 12  1  0
 13 12  1  0
 14 15  2  0
 16 17  1  0
 16 14  1  0
 17 18  1  1
 19 18  1  0
 20 19  2  0
 21 20  1  0
 22 21  1  0
 22 27  2  0
 23 22  1  0
 24 23  2  0
 24 25  1  0
 25 26  2  0
 26 27  1  0
 27 19  1  0
 28 29  1  0
 28 17  1  0
 30 28  2  0
M  END
$$$$
