SKW.pdb
     RDKit          3D

 30 31  0  0  1  0  0  0  0  0999 V2000
    7.7482  -19.2738   22.6471 O   0  0  0  0  0  0  0  0  0  0  0  0
    6.8821  -18.9499   21.6250 C   0  0  0  0  0  0  0  0  0  0  0  0
    7.5908  -18.4305   20.3981 C   0  0  2  0  0  0  0  0  0  0  0  0
    8.3878  -19.4504   19.7569 N   0  0  0  0  0  0  0  0  0  0  0  0
    8.4028  -17.2221   20.6872 C   0  0  0  0  0  0  0  0  0  0  0  0
    9.6764  -17.3051   20.7500 O   0  0  0  0  0  0  0  0  0  0  0  0
    7.7830  -15.9621   20.8974 N   0  0  0  0  0  0  0  0  0  0  0  0
    8.4800  -14.7786   21.3123 C   0  0  1  0  0  0  0  0  0  0  0  0
    7.8727  -13.4994   20.8264 C   0  0  0  0  0  0  0  0  0  0  0  0
    7.3183  -13.5977   19.4334 C   0  0  0  0  0  0  0  0  0  0  0  0
    8.4642  -13.7332   18.4555 C   0  0  0  0  0  0  0  0  0  0  0  0
    7.8542  -13.8931   17.0768 C   0  0  0  0  0  0  0  0  0  0  0  0
    8.8713  -14.0037   16.0515 N   0  0  0  0  0  0  0  0  0  0  0  0
    8.7317  -14.7566   22.7848 C   0  0  0  0  0  0  0  0  0  0  0  0
    8.4732  -13.6983   23.4120 O   0  0  0  0  0  0  0  0  0  0  0  0
    9.2404  -15.8559   23.4908 N   0  0  0  0  0  0  0  0  0  0  0  0
    9.9161  -15.6751   24.7700 C   0  0  1  0  0  0  0  0  0  0  0  0
    9.0715  -16.1479   25.9167 C   0  0  0  0  0  0  0  0  0  0  0  0
    7.7737  -15.4228   25.9233 C   0  0  0  0  0  0  0  0  0  0  0  0
    6.5227  -15.8895   25.5776 C   0  0  0  0  0  0  0  0  0  0  0  0
    5.6073  -14.9169   25.7256 N   0  0  0  0  0  0  0  0  0  0  0  0
    6.2665  -13.8096   26.1705 C   0  0  0  0  0  0  0  0  0  0  0  0
    5.7927  -12.5393   26.4786 C   0  0  0  0  0  0  0  0  0  0  0  0
    6.6489  -11.5553   26.9153 C   0  0  0  0  0  0  0  0  0  0  0  0
    7.9871  -11.8718   27.0363 C   0  0  0  0  0  0  0  0  0  0  0  0
    8.4790  -13.1297   26.7350 C   0  0  0  0  0  0  0  0  0  0  0  0
    7.6015  -14.0985   26.2993 C   0  0  0  0  0  0  0  0  0  0  0  0
   11.1358  -16.5499   24.7297 C   0  0  0  0  0  0  0  0  0  0  0  0
   12.0560  -16.5457   25.7554 O   0  0  0  0  0  0  0  0  0  0  0  0
   11.3785  -17.3258   23.7647 O   0  0  0  0  0  0  0  0  0  0  0  0
  1  2  1  0
  2  3  1  0
  3  4  1  1
  5  3  1  0
  6  5  2  0
  7  5  1  0
  8 14  1  0
  8  7  1  0
  8  9  1  1
 10 11  1  0
 10  9  1  0
 11 12  1  0
 13 12  1  0
 14 15  2  0
 16 17  1  0
 16 14  1  0
 17 18  1  1
 19 18  1  0
 20 19  2  0
 21 20  1  0
 22 21  1  0
 22 27  2  0
 23 22  1  0
 24 23  2  0
 24 25  1  0
 25 26  2  0
 26 27  1  0
 27 19  1  0
 28 29  1  0
 28 17  1  0
 30 28  2  0
M  END
$$$$
