SKW.pdb
     RDKit          3D

 30 31  0  0  1  0  0  0  0  0999 V2000
    9.7576  -12.5451   19.6918 O   0  0  0  0  0  0  0  0  0  0  0  0
    9.2443  -13.4818   18.8207 C   0  0  0  0  0  0  0  0  0  0  0  0
    7.8640  -13.9511   19.2106 C   0  0  2  0  0  0  0  0  0  0  0  0
    6.9441  -12.8513   19.3851 N   0  0  0  0  0  0  0  0  0  0  0  0
    7.8853  -14.8244   20.4106 C   0  0  0  0  0  0  0  0  0  0  0  0
    7.4145  -14.4009   21.5205 O   0  0  0  0  0  0  0  0  0  0  0  0
    8.4254  -16.1360   20.3467 N   0  0  0  0  0  0  0  0  0  0  0  0
    8.4955  -17.0356   21.4622 C   0  0  1  0  0  0  0  0  0  0  0  0
    8.8872  -18.4357   21.1053 C   0  0  0  0  0  0  0  0  0  0  0  0
    8.8454  -19.3793   22.2738 C   0  0  0  0  0  0  0  0  0  0  0  0
    7.6941  -20.3425   22.0883 C   0  0  0  0  0  0  0  0  0  0  0  0
    7.7223  -21.2992   23.2641 C   0  0  0  0  0  0  0  0  0  0  0  0
    6.6991  -22.3179   23.1493 N   0  0  0  0  0  0  0  0  0  0  0  0
    9.3227  -16.4888   22.5796 C   0  0  0  0  0  0  0  0  0  0  0  0
   10.3582  -15.8399   22.2846 O   0  0  0  0  0  0  0  0  0  0  0  0
    8.9970  -16.6674   23.9314 N   0  0  0  0  0  0  0  0  0  0  0  0
    9.8722  -16.1656   24.9840 C   0  0  1  0  0  0  0  0  0  0  0  0
    9.1292  -15.9522   26.2702 C   0  0  0  0  0  0  0  0  0  0  0  0
    7.8743  -15.1984   26.0118 C   0  0  0  0  0  0  0  0  0  0  0  0
    6.6343  -15.6841   25.6525 C   0  0  0  0  0  0  0  0  0  0  0  0
    5.7607  -14.6719   25.5177 N   0  0  0  0  0  0  0  0  0  0  0  0
    6.4360  -13.5197   25.7910 C   0  0  0  0  0  0  0  0  0  0  0  0
    6.0037  -12.1983   25.7937 C   0  0  0  0  0  0  0  0  0  0  0  0
    6.8695  -11.1748   26.1018 C   0  0  0  0  0  0  0  0  0  0  0  0
    8.1750  -11.5042   26.4067 C   0  0  0  0  0  0  0  0  0  0  0  0
    8.6254  -12.8126   26.4099 C   0  0  0  0  0  0  0  0  0  0  0  0
    7.7390  -13.8203   26.0977 C   0  0  0  0  0  0  0  0  0  0  0  0
   10.8895  -17.2411   25.2348 C   0  0  0  0  0  0  0  0  0  0  0  0
   11.9399  -17.0464   26.1052 O   0  0  0  0  0  0  0  0  0  0  0  0
   10.8356  -18.3669   24.6673 O   0  0  0  0  0  0  0  0  0  0  0  0
  1  2  1  0
  2  3  1  0
  3  4  1  1
  5  3  1  0
  6  5  2  0
  7  5  1  0
  8 14  1  0
  8  7  1  0
  8  9  1  6
 10 11  1  0
 10  9  1  0
 11 12  1  0
 13 12  1  0
 14 15  2  0
 16 17  1  0
 16 14  1  0
 17 18  1  1
 19 18  1  0
 20 19  2  0
 21 20  1  0
 22 21  1  0
 22 27  2  0
 23 22  1  0
 24 23  2  0
 24 25  1  0
 25 26  2  0
 26 27  1  0
 27 19  1  0
 28 29  1  0
 28 17  1  0
 30 28  2  0
M  END
$$$$
