SKW.pdb
     RDKit          3D

 30 31  0  0  1  0  0  0  0  0999 V2000
    7.6365  -12.8755   21.3923 O   0  0  0  0  0  0  0  0  0  0  0  0
    8.0869  -13.7030   20.3863 C   0  0  0  0  0  0  0  0  0  0  0  0
    7.4862  -15.0859   20.4512 C   0  0  2  0  0  0  0  0  0  0  0  0
    6.0422  -15.0523   20.4616 N   0  0  0  0  0  0  0  0  0  0  0  0
    8.0097  -15.8731   21.5955 C   0  0  0  0  0  0  0  0  0  0  0  0
    7.2352  -16.1974   22.5588 O   0  0  0  0  0  0  0  0  0  0  0  0
    9.3704  -16.2766   21.6394 N   0  0  0  0  0  0  0  0  0  0  0  0
    9.9431  -17.0726   22.6866 C   0  0  1  0  0  0  0  0  0  0  0  0
   11.2254  -17.7516   22.3181 C   0  0  0  0  0  0  0  0  0  0  0  0
   11.1082  -18.6171   21.0957 C   0  0  0  0  0  0  0  0  0  0  0  0
   12.4594  -19.2247   20.7908 C   0  0  0  0  0  0  0  0  0  0  0  0
   12.2873  -20.0949   19.5613 C   0  0  0  0  0  0  0  0  0  0  0  0
   13.5599  -20.5752   19.0637 N   0  0  0  0  0  0  0  0  0  0  0  0
   10.0556  -16.3204   23.9726 C   0  0  0  0  0  0  0  0  0  0  0  0
   10.5971  -15.1863   23.9475 O   0  0  0  0  0  0  0  0  0  0  0  0
    9.5879  -16.8213   25.1957 N   0  0  0  0  0  0  0  0  0  0  0  0
    9.8538  -16.1155   26.4433 C   0  0  1  0  0  0  0  0  0  0  0  0
    8.6034  -15.9226   27.2504 C   0  0  0  0  0  0  0  0  0  0  0  0
    7.5726  -15.2325   26.4311 C   0  0  0  0  0  0  0  0  0  0  0  0
    6.5601  -15.7843   25.6743 C   0  0  0  0  0  0  0  0  0  0  0  0
    5.8386  -14.8147   25.0868 N   0  0  0  0  0  0  0  0  0  0  0  0
    6.3848  -13.6238   25.4635 C   0  0  0  0  0  0  0  0  0  0  0  0
    6.0237  -12.3213   25.1377 C   0  0  0  0  0  0  0  0  0  0  0  0
    6.7276  -11.2499   25.6364 C   0  0  0  0  0  0  0  0  0  0  0  0
    7.7986  -11.5121   26.4669 C   0  0  0  0  0  0  0  0  0  0  0  0
    8.1744  -12.8007   26.8036 C   0  0  0  0  0  0  0  0  0  0  0  0
    7.4536  -13.8573   26.2913 C   0  0  0  0  0  0  0  0  0  0  0  0
   10.7636  -17.0021   27.2437 C   0  0  0  0  0  0  0  0  0  0  0  0
   11.1510  -18.2399   26.7781 O   0  0  0  0  0  0  0  0  0  0  0  0
   11.2155  -16.6632   28.3720 O   0  0  0  0  0  0  0  0  0  0  0  0
  1  2  1  0
  2  3  1  0
  3  4  1  1
  5  3  1  0
  6  5  2  0
  7  5  1  0
  8 14  1  0
  8  7  1  0
  8  9  1  6
 10 11  1  0
 10  9  1  0
 11 12  1  0
 13 12  1  0
 14 15  2  0
 16 17  1  0
 16 14  1  0
 17 18  1  1
 19 18  1  0
 20 19  2  0
 21 20  1  0
 22 21  1  0
 22 27  2  0
 23 22  1  0
 24 23  2  0
 24 25  1  0
 25 26  2  0
 26 27  1  0
 27 19  1  0
 28 29  1  0
 28 17  1  0
 30 28  2  0
M  END
$$$$
