SKW.pdb
     RDKit          3D

 30 31  0  0  1  0  0  0  0  0999 V2000
    4.9283  -19.2665   23.8891 O   0  0  0  0  0  0  0  0  0  0  0  0
    5.5196  -18.2025   23.2427 C   0  0  0  0  0  0  0  0  0  0  0  0
    6.2421  -18.6100   21.9820 C   0  0  2  0  0  0  0  0  0  0  0  0
    6.1566  -20.0316   21.7408 N   0  0  0  0  0  0  0  0  0  0  0  0
    7.6534  -18.1507   21.9695 C   0  0  0  0  0  0  0  0  0  0  0  0
    8.5667  -18.8695   22.5006 O   0  0  0  0  0  0  0  0  0  0  0  0
    8.0107  -16.9134   21.3714 N   0  0  0  0  0  0  0  0  0  0  0  0
    9.2294  -16.2070   21.6441 C   0  0  1  0  0  0  0  0  0  0  0  0
    9.5323  -15.1002   20.6826 C   0  0  0  0  0  0  0  0  0  0  0  0
    8.3204  -14.2992   20.2993 C   0  0  0  0  0  0  0  0  0  0  0  0
    8.4290  -13.9083   18.8422 C   0  0  0  0  0  0  0  0  0  0  0  0
    7.2459  -13.0115   18.5342 C   0  0  0  0  0  0  0  0  0  0  0  0
    7.2654  -12.5536   17.1602 N   0  0  0  0  0  0  0  0  0  0  0  0
    9.3162  -15.7553   23.0655 C   0  0  0  0  0  0  0  0  0  0  0  0
    9.1664  -14.5305   23.3057 O   0  0  0  0  0  0  0  0  0  0  0  0
    9.5565  -16.6311   24.1336 N   0  0  0  0  0  0  0  0  0  0  0  0
   10.0312  -16.1310   25.4182 C   0  0  1  0  0  0  0  0  0  0  0  0
    9.0095  -16.3209   26.5007 C   0  0  0  0  0  0  0  0  0  0  0  0
    7.8113  -15.4873   26.2189 C   0  0  0  0  0  0  0  0  0  0  0  0
    6.5550  -15.8901   25.8166 C   0  0  0  0  0  0  0  0  0  0  0  0
    5.7495  -14.8240   25.6735 N   0  0  0  0  0  0  0  0  0  0  0  0
    6.4860  -13.7199   25.9847 C   0  0  0  0  0  0  0  0  0  0  0  0
    6.1357  -12.3744   25.9966 C   0  0  0  0  0  0  0  0  0  0  0  0
    7.0533  -11.4110   26.3459 C   0  0  0  0  0  0  0  0  0  0  0  0
    8.3265  -11.8248   26.6824 C   0  0  0  0  0  0  0  0  0  0  0  0
    8.6955  -13.1586   26.6771 C   0  0  0  0  0  0  0  0  0  0  0  0
    7.7585  -14.1048   26.3235 C   0  0  0  0  0  0  0  0  0  0  0  0
   11.2221  -16.9695   25.7829 C   0  0  0  0  0  0  0  0  0  0  0  0
   11.6435  -18.0059   24.9783 O   0  0  0  0  0  0  0  0  0  0  0  0
   11.8914  -16.7707   26.8339 O   0  0  0  0  0  0  0  0  0  0  0  0
  1  2  1  0
  2  3  1  0
  3  4  1  1
  5  3  1  0
  6  5  2  0
  7  5  1  0
  8 14  1  0
  8  7  1  0
  8  9  1  6
 10 11  1  0
 10  9  1  0
 11 12  1  0
 13 12  1  0
 14 15  2  0
 16 17  1  0
 16 14  1  0
 17 18  1  1
 19 18  1  0
 20 19  2  0
 21 20  1  0
 22 21  1  0
 22 27  2  0
 23 22  1  0
 24 23  2  0
 24 25  1  0
 25 26  2  0
 26 27  1  0
 27 19  1  0
 28 29  1  0
 28 17  1  0
 30 28  2  0
M  END
$$$$
