API.pdb
     RDKit          3D

 21 21  0  0  1  0  0  0  0  0999 V2000
   14.3313  -19.2762    2.8516 C   0  0  0  0  0  0  0  0  0  0  0  0
   15.4672  -19.1036    1.8527 C   0  0  2  0  0  0  0  0  0  0  0  0
   15.5065  -20.2790    1.0548 N   0  0  0  0  0  0  0  0  0  0  0  0
   16.7074  -18.6777    2.4787 C   0  0  0  0  0  0  0  0  0  0  0  0
   17.5951  -19.5810    2.6871 O   0  0  0  0  0  0  0  0  0  0  0  0
   17.0609  -17.3592    2.8957 N   0  0  0  0  0  0  0  0  0  0  0  0
   16.2180  -16.2085    2.6259 C   0  0  0  0  0  0  0  0  0  0  0  0
   17.1719  -15.0230    2.6775 C   0  0  0  0  0  0  0  0  0  0  0  0
   18.0763  -15.4438    3.8003 C   0  0  0  0  0  0  0  0  0  0  0  0
   18.2211  -16.9282    3.6123 C   0  0  1  0  0  0  0  0  0  0  0  0
   18.3702  -17.6058    4.9319 C   0  0  0  0  0  0  0  0  0  0  0  0
   17.3236  -18.0761    5.4389 O   0  0  0  0  0  0  0  0  0  0  0  0
   20.4006  -22.2246    7.5759 C   0  0  0  0  0  0  0  0  0  0  0  0
   20.1014  -20.7848    7.8223 C   0  0  0  0  0  0  0  0  0  0  0  0
   20.0658  -19.9580    6.5635 C   0  0  2  0  0  0  0  0  0  0  0  0
   21.4687  -19.9221    5.9947 C   0  0  0  0  0  0  0  0  0  0  0  0
   19.6479  -18.5295    6.8351 C   0  0  2  0  0  0  0  0  0  0  0  0
   19.5965  -17.7430    5.6213 N   0  0  0  0  0  0  0  0  0  0  0  0
   20.5679  -17.8940    7.7944 C   0  0  0  0  0  0  0  0  0  0  0  0
   20.3493  -17.9245    9.1596 O   0  0  0  0  0  0  0  0  0  0  0  0
   21.5845  -17.3035    7.3794 O   0  0  0  0  0  0  0  0  0  0  0  0
  2  1  1  1
  3  2  1  0
  4  2  1  0
  4  5  2  0
  6  4  1  0
  7  6  1  0
  8  9  1  0
  8  7  1  0
  9 10  1  0
 10  6  1  0
 10 11  1  1
 11 12  2  0
 14 13  1  0
 15 14  1  0
 15 16  1  1
 17 15  1  0
 18 11  1  0
 17 18  1  6
 19 17  1  0
 19 20  1  0
 21 19  2  0
M  END
$$$$
