API.pdb
     RDKit          3D

 21 21  0  0  1  0  0  0  0  0999 V2000
   24.0968  -19.2731  -13.1641 C   0  0  0  0  0  0  0  0  0  0  0  0
   24.6385  -20.6952  -13.2107 C   0  0  2  0  0  0  0  0  0  0  0  0
   23.5748  -21.5357  -13.6369 N   0  0  0  0  0  0  0  0  0  0  0  0
   25.3419  -21.0696  -11.9956 C   0  0  0  0  0  0  0  0  0  0  0  0
   24.6252  -21.4513  -11.0015 O   0  0  0  0  0  0  0  0  0  0  0  0
   26.7516  -21.0629  -11.7717 N   0  0  0  0  0  0  0  0  0  0  0  0
   27.6985  -20.6777  -12.8024 C   0  0  0  0  0  0  0  0  0  0  0  0
   28.9994  -21.3521  -12.3891 C   0  0  0  0  0  0  0  0  0  0  0  0
   28.9270  -21.2026  -10.8964 C   0  0  0  0  0  0  0  0  0  0  0  0
   27.4704  -21.4011  -10.5825 C   0  0  1  0  0  0  0  0  0  0  0  0
   27.0744  -20.5680   -9.4112 C   0  0  0  0  0  0  0  0  0  0  0  0
   26.4211  -19.5270   -9.6624 O   0  0  0  0  0  0  0  0  0  0  0  0
   28.6665  -20.9326   -3.7971 C   0  0  0  0  0  0  0  0  0  0  0  0
   28.4023  -21.0710   -5.2581 C   0  0  0  0  0  0  0  0  0  0  0  0
   27.0134  -20.6452   -5.6572 C   0  0  2  0  0  0  0  0  0  0  0  0
   26.1579  -21.8910   -5.7520 C   0  0  0  0  0  0  0  0  0  0  0  0
   26.9936  -19.9748   -7.0134 C   0  0  2  0  0  0  0  0  0  0  0  0
   27.3872  -20.8830   -8.0692 N   0  0  0  0  0  0  0  0  0  0  0  0
   27.8787  -18.7971   -7.0221 C   0  0  0  0  0  0  0  0  0  0  0  0
   27.5919  -17.6513   -6.3027 O   0  0  0  0  0  0  0  0  0  0  0  0
   28.9276  -18.8157   -7.6959 O   0  0  0  0  0  0  0  0  0  0  0  0
  2  1  1  1
  3  2  1  0
  4  2  1  0
  4  5  2  0
  6  4  1  0
  7  6  1  0
  8  9  1  0
  8  7  1  0
  9 10  1  0
 10  6  1  0
 10 11  1  1
 11 12  2  0
 14 13  1  0
 15 14  1  0
 15 16  1  6
 17 15  1  0
 18 11  1  0
 17 18  1  6
 19 17  1  0
 19 20  1  0
 21 19  2  0
M  END
$$$$
