API.pdb
     RDKit          3D

 21 21  0  0  1  0  0  0  0  0999 V2000
   26.6509  -17.6304  -15.0942 C   0  0  0  0  0  0  0  0  0  0  0  0
   26.5003  -19.1258  -15.3372 C   0  0  2  0  0  0  0  0  0  0  0  0
   25.4282  -19.2959  -16.2544 N   0  0  0  0  0  0  0  0  0  0  0  0
   26.4555  -19.8945  -14.1049 C   0  0  0  0  0  0  0  0  0  0  0  0
   25.2970  -20.1185  -13.5996 O   0  0  0  0  0  0  0  0  0  0  0  0
   27.5589  -20.4365  -13.3796 N   0  0  0  0  0  0  0  0  0  0  0  0
   28.9244  -20.3471  -13.8641 C   0  0  0  0  0  0  0  0  0  0  0  0
   29.6461  -21.4932  -13.1689 C   0  0  0  0  0  0  0  0  0  0  0  0
   28.9879  -21.4572  -11.8194 C   0  0  0  0  0  0  0  0  0  0  0  0
   27.5547  -21.1212  -12.1240 C   0  0  1  0  0  0  0  0  0  0  0  0
   26.9683  -20.3050  -11.0227 C   0  0  0  0  0  0  0  0  0  0  0  0
   27.0506  -19.0595  -11.1467 O   0  0  0  0  0  0  0  0  0  0  0  0
   23.1991  -22.0324   -7.0210 C   0  0  0  0  0  0  0  0  0  0  0  0
   24.5352  -21.6411   -7.5548 C   0  0  0  0  0  0  0  0  0  0  0  0
   24.5167  -20.3427   -8.3185 C   0  0  2  0  0  0  0  0  0  0  0  0
   23.6217  -20.5297   -9.5256 C   0  0  0  0  0  0  0  0  0  0  0  0
   25.8909  -19.9631   -8.8249 C   0  0  2  0  0  0  0  0  0  0  0  0
   26.3404  -20.8477   -9.8784 N   0  0  0  0  0  0  0  0  0  0  0  0
   26.8696  -19.9724   -7.7237 C   0  0  0  0  0  0  0  0  0  0  0  0
   26.8297  -19.0532   -6.6913 O   0  0  0  0  0  0  0  0  0  0  0  0
   27.7726  -20.8319   -7.7051 O   0  0  0  0  0  0  0  0  0  0  0  0
  2  1  1  1
  3  2  1  0
  4  2  1  0
  4  5  2  0
  6  4  1  0
  7  6  1  0
  8  9  1  0
  8  7  1  0
  9 10  1  0
 10  6  1  0
 10 11  1  1
 11 12  2  0
 14 13  1  0
 15 14  1  0
 15 16  1  6
 17 15  1  0
 18 11  1  0
 17 18  1  6
 19 17  1  0
 19 20  1  0
 21 19  2  0
M  END
$$$$
