API.pdb
     RDKit          3D

 21 21  0  0  1  0  0  0  0  0999 V2000
   22.9899  -21.4875  -12.5708 C   0  0  0  0  0  0  0  0  0  0  0  0
   24.2728  -20.6709  -12.4988 C   0  0  2  0  0  0  0  0  0  0  0  0
   24.8518  -20.6838  -13.7965 N   0  0  0  0  0  0  0  0  0  0  0  0
   25.1216  -21.0536  -11.3832 C   0  0  0  0  0  0  0  0  0  0  0  0
   24.5349  -21.3675  -10.2856 O   0  0  0  0  0  0  0  0  0  0  0  0
   26.5471  -21.1223  -11.3610 N   0  0  0  0  0  0  0  0  0  0  0  0
   27.3580  -20.7800  -12.5154 C   0  0  0  0  0  0  0  0  0  0  0  0
   28.6667  -21.5244  -12.2900 C   0  0  0  0  0  0  0  0  0  0  0  0
   28.8139  -21.3819  -10.8021 C   0  0  0  0  0  0  0  0  0  0  0  0
   27.4078  -21.5061  -10.2852 C   0  0  1  0  0  0  0  0  0  0  0  0
   27.2258  -20.6617   -9.0700 C   0  0  0  0  0  0  0  0  0  0  0  0
   26.6827  -19.5443   -9.2434 O   0  0  0  0  0  0  0  0  0  0  0  0
   27.3132  -22.4552   -3.6677 C   0  0  0  0  0  0  0  0  0  0  0  0
   26.8823  -21.6916   -4.8737 C   0  0  0  0  0  0  0  0  0  0  0  0
   27.9142  -20.7063   -5.3574 C   0  0  2  0  0  0  0  0  0  0  0  0
   27.9950  -19.5862   -4.3416 C   0  0  0  0  0  0  0  0  0  0  0  0
   27.5315  -20.0902   -6.6852 C   0  0  2  0  0  0  0  0  0  0  0  0
   27.6213  -21.0457   -7.7684 N   0  0  0  0  0  0  0  0  0  0  0  0
   28.3864  -18.9278   -6.9824 C   0  0  0  0  0  0  0  0  0  0  0  0
   27.9917  -17.6307   -6.7098 O   0  0  0  0  0  0  0  0  0  0  0  0
   29.5085  -19.0999   -7.4979 O   0  0  0  0  0  0  0  0  0  0  0  0
  2  1  1  6
  3  2  1  0
  4  2  1  0
  4  5  2  0
  6  4  1  0
  7  6  1  0
  8  9  1  0
  8  7  1  0
  9 10  1  0
 10  6  1  0
 10 11  1  1
 11 12  2  0
 14 13  1  0
 15 14  1  0
 15 16  1  1
 17 15  1  0
 18 11  1  0
 17 18  1  6
 19 17  1  0
 19 20  1  0
 21 19  2  0
M  END
$$$$
