API.pdb
     RDKit          3D

 21 21  0  0  1  0  0  0  0  0999 V2000
   16.4564   -9.5970  -18.4361 C   0  0  0  0  0  0  0  0  0  0  0  0
   17.6925  -10.3122  -18.9637 C   0  0  2  0  0  0  0  0  0  0  0  0
   17.4965  -11.7032  -18.7483 N   0  0  0  0  0  0  0  0  0  0  0  0
   18.9311   -9.7276  -18.4784 C   0  0  0  0  0  0  0  0  0  0  0  0
   19.4967  -10.3052  -17.4814 O   0  0  0  0  0  0  0  0  0  0  0  0
   19.6022   -8.5733  -18.9831 N   0  0  0  0  0  0  0  0  0  0  0  0
   19.1537   -7.8742  -20.1737 C   0  0  0  0  0  0  0  0  0  0  0  0
   20.3957   -7.1508  -20.6756 C   0  0  0  0  0  0  0  0  0  0  0  0
   21.0255   -6.7458  -19.3737 C   0  0  0  0  0  0  0  0  0  0  0  0
   20.7593   -7.9124  -18.4638 C   0  0  1  0  0  0  0  0  0  0  0  0
   20.5762   -7.4440  -17.0603 C   0  0  0  0  0  0  0  0  0  0  0  0
   19.4206   -7.0740  -16.7420 O   0  0  0  0  0  0  0  0  0  0  0  0
   23.2691   -9.7285  -12.8341 C   0  0  0  0  0  0  0  0  0  0  0  0
   22.9721   -8.6497  -13.8197 C   0  0  0  0  0  0  0  0  0  0  0  0
   21.5446   -8.1710  -13.7696 C   0  0  2  0  0  0  0  0  0  0  0  0
   20.6560   -9.3235  -14.1880 C   0  0  0  0  0  0  0  0  0  0  0  0
   21.2948   -7.0307  -14.7321 C   0  0  2  0  0  0  0  0  0  0  0  0
   21.6089   -7.3982  -16.0961 N   0  0  0  0  0  0  0  0  0  0  0  0
   22.0826   -5.8465  -14.3479 C   0  0  0  0  0  0  0  0  0  0  0  0
   21.8514   -5.1539  -13.1734 O   0  0  0  0  0  0  0  0  0  0  0  0
   22.9939   -5.4398  -15.0952 O   0  0  0  0  0  0  0  0  0  0  0  0
  2  1  1  1
  3  2  1  0
  4  2  1  0
  4  5  2  0
  6  4  1  0
  7  6  1  0
  8  9  1  0
  8  7  1  0
  9 10  1  0
 10  6  1  0
 10 11  1  1
 11 12  2  0
 14 13  1  0
 15 14  1  0
 15 16  1  6
 17 15  1  0
 18 11  1  0
 17 18  1  6
 19 17  1  0
 19 20  1  0
 21 19  2  0
M  END
$$$$
