API.pdb
     RDKit          3D

 21 21  0  0  1  0  0  0  0  0999 V2000
   24.9782  -17.5106  -14.7465 C   0  0  0  0  0  0  0  0  0  0  0  0
   25.7497  -18.5548  -15.5418 C   0  0  2  0  0  0  0  0  0  0  0  0
   25.0388  -18.7689  -16.7536 N   0  0  0  0  0  0  0  0  0  0  0  0
   26.0921  -19.7247  -14.7508 C   0  0  0  0  0  0  0  0  0  0  0  0
   25.1982  -20.6398  -14.6468 O   0  0  0  0  0  0  0  0  0  0  0  0
   27.3183  -19.9810  -14.0666 N   0  0  0  0  0  0  0  0  0  0  0  0
   28.4005  -19.0144  -14.0261 C   0  0  0  0  0  0  0  0  0  0  0  0
   29.6434  -19.8519  -13.7585 C   0  0  0  0  0  0  0  0  0  0  0  0
   29.0892  -20.8741  -12.8079 C   0  0  0  0  0  0  0  0  0  0  0  0
   27.7069  -21.1454  -13.3326 C   0  0  1  0  0  0  0  0  0  0  0  0
   26.7778  -21.4571  -12.2091 C   0  0  0  0  0  0  0  0  0  0  0  0
   26.7149  -22.6586  -11.8541 O   0  0  0  0  0  0  0  0  0  0  0  0
   27.1601  -19.5035   -7.6131 C   0  0  0  0  0  0  0  0  0  0  0  0
   26.7008  -20.4938   -8.6288 C   0  0  0  0  0  0  0  0  0  0  0  0
   25.3407  -20.1812   -9.1960 C   0  0  2  0  0  0  0  0  0  0  0  0
   24.3046  -20.6463   -8.1944 C   0  0  0  0  0  0  0  0  0  0  0  0
   25.0838  -20.9179  -10.4923 C   0  0  2  0  0  0  0  0  0  0  0  0
   25.9871  -20.4947  -11.5408 N   0  0  0  0  0  0  0  0  0  0  0  0
   23.6919  -20.7209  -10.9330 C   0  0  0  0  0  0  0  0  0  0  0  0
   23.3746  -20.0751  -12.1141 O   0  0  0  0  0  0  0  0  0  0  0  0
   22.7537  -21.1444  -10.2295 O   0  0  0  0  0  0  0  0  0  0  0  0
  2  1  1  1
  3  2  1  0
  4  2  1  0
  4  5  2  0
  6  4  1  0
  7  6  1  0
  8  9  1  0
  8  7  1  0
  9 10  1  0
 10  6  1  0
 10 11  1  1
 11 12  2  0
 14 13  1  0
 15 14  1  0
 15 16  1  1
 17 15  1  0
 18 11  1  0
 17 18  1  6
 19 17  1  0
 19 20  1  0
 21 19  2  0
M  END
$$$$
