API.pdb
     RDKit          3D

 21 21  0  0  1  0  0  0  0  0999 V2000
   26.8182  -20.4899  -19.1302 C   0  0  0  0  0  0  0  0  0  0  0  0
   28.0746  -20.2592  -18.3018 C   0  0  2  0  0  0  0  0  0  0  0  0
   28.9712  -21.3223  -18.5944 N   0  0  0  0  0  0  0  0  0  0  0  0
   27.7854  -19.9932  -16.9029 C   0  0  0  0  0  0  0  0  0  0  0  0
   27.9817  -20.9537  -16.0744 O   0  0  0  0  0  0  0  0  0  0  0  0
   27.3024  -18.7772  -16.3325 N   0  0  0  0  0  0  0  0  0  0  0  0
   27.0009  -17.6085  -17.1391 C   0  0  0  0  0  0  0  0  0  0  0  0
   27.1070  -16.4422  -16.1662 C   0  0  0  0  0  0  0  0  0  0  0  0
   26.5281  -17.0619  -14.9267 C   0  0  0  0  0  0  0  0  0  0  0  0
   27.0309  -18.4781  -14.9606 C   0  0  1  0  0  0  0  0  0  0  0  0
   26.0266  -19.3995  -14.3561 C   0  0  0  0  0  0  0  0  0  0  0  0
   25.2080  -19.9282  -15.1461 O   0  0  0  0  0  0  0  0  0  0  0  0
   25.5876  -20.6192   -8.7134 C   0  0  0  0  0  0  0  0  0  0  0  0
   25.3416  -20.1036  -10.0907 C   0  0  0  0  0  0  0  0  0  0  0  0
   25.3056  -21.1870  -11.1368 C   0  0  2  0  0  0  0  0  0  0  0  0
   26.6913  -21.7915  -11.2234 C   0  0  0  0  0  0  0  0  0  0  0  0
   24.9600  -20.6424  -12.5054 C   0  0  2  0  0  0  0  0  0  0  0  0
   25.9524  -19.7006  -12.9770 N   0  0  0  0  0  0  0  0  0  0  0  0
   23.6369  -19.9946  -12.4861 C   0  0  0  0  0  0  0  0  0  0  0  0
   22.4631  -20.7142  -12.3560 O   0  0  0  0  0  0  0  0  0  0  0  0
   23.5528  -18.7549  -12.5896 O   0  0  0  0  0  0  0  0  0  0  0  0
  2  1  1  6
  3  2  1  0
  4  2  1  0
  4  5  2  0
  6  4  1  0
  7  6  1  0
  8  9  1  0
  8  7  1  0
  9 10  1  0
 10  6  1  0
 10 11  1  6
 11 12  2  0
 14 13  1  0
 15 14  1  0
 15 16  1  6
 17 15  1  0
 18 11  1  0
 17 18  1  1
 19 17  1  0
 19 20  1  0
 21 19  2  0
M  END
$$$$
