API.pdb
     RDKit          3D

 21 21  0  0  1  0  0  0  0  0999 V2000
   28.6556  -18.1538  -14.9336 C   0  0  0  0  0  0  0  0  0  0  0  0
   27.2965  -18.6375  -15.4201 C   0  0  2  0  0  0  0  0  0  0  0  0
   26.6902  -17.5560  -16.1147 N   0  0  0  0  0  0  0  0  0  0  0  0
   26.5201  -19.2801  -14.3734 C   0  0  0  0  0  0  0  0  0  0  0  0
   25.9609  -18.5138  -13.5088 O   0  0  0  0  0  0  0  0  0  0  0  0
   26.3027  -20.6787  -14.1886 N   0  0  0  0  0  0  0  0  0  0  0  0
   26.7354  -21.6659  -15.1610 C   0  0  0  0  0  0  0  0  0  0  0  0
   25.8345  -22.8662  -14.9051 C   0  0  0  0  0  0  0  0  0  0  0  0
   25.7277  -22.8183  -13.4078 C   0  0  0  0  0  0  0  0  0  0  0  0
   25.6697  -21.3491  -13.0953 C   0  0  1  0  0  0  0  0  0  0  0  0
   26.3288  -21.0709  -11.7872 C   0  0  0  0  0  0  0  0  0  0  0  0
   27.5520  -21.3384  -11.7107 O   0  0  0  0  0  0  0  0  0  0  0  0
   27.4976  -18.6856   -7.1192 C   0  0  0  0  0  0  0  0  0  0  0  0
   26.7570  -19.1737   -8.3177 C   0  0  0  0  0  0  0  0  0  0  0  0
   26.8950  -20.6570   -8.5424 C   0  0  2  0  0  0  0  0  0  0  0  0
   28.1856  -20.8913   -9.2989 C   0  0  0  0  0  0  0  0  0  0  0  0
   25.7665  -21.2103   -9.3846 C   0  0  2  0  0  0  0  0  0  0  0  0
   25.6648  -20.5346  -10.6604 N   0  0  0  0  0  0  0  0  0  0  0  0
   24.4840  -21.1028   -8.6675 C   0  0  0  0  0  0  0  0  0  0  0  0
   23.4135  -20.3860   -9.1703 O   0  0  0  0  0  0  0  0  0  0  0  0
   24.3402  -21.6713   -7.5672 O   0  0  0  0  0  0  0  0  0  0  0  0
  2  1  1  1
  3  2  1  0
  4  2  1  0
  4  5  2  0
  6  4  1  0
  7  6  1  0
  8  9  1  0
  8  7  1  0
  9 10  1  0
 10  6  1  0
 10 11  1  1
 11 12  2  0
 14 13  1  0
 15 14  1  0
 15 16  1  6
 17 15  1  0
 18 11  1  0
 17 18  1  6
 19 17  1  0
 19 20  1  0
 21 19  2  0
M  END
$$$$
