API.pdb
     RDKit          3D

 21 21  0  0  1  0  0  0  0  0999 V2000
   18.1793  -19.9364    4.2554 C   0  0  0  0  0  0  0  0  0  0  0  0
   16.8042  -19.3103    4.0689 C   0  0  2  0  0  0  0  0  0  0  0  0
   16.5268  -19.3143    2.6751 N   0  0  0  0  0  0  0  0  0  0  0  0
   16.6591  -18.0496    4.7767 C   0  0  0  0  0  0  0  0  0  0  0  0
   16.8939  -16.9774    4.1113 O   0  0  0  0  0  0  0  0  0  0  0  0
   16.2830  -17.8582    6.1402 N   0  0  0  0  0  0  0  0  0  0  0  0
   15.8826  -18.9601    6.9962 C   0  0  0  0  0  0  0  0  0  0  0  0
   15.0375  -18.3064    8.0807 C   0  0  0  0  0  0  0  0  0  0  0  0
   15.7865  -17.0195    8.2776 C   0  0  0  0  0  0  0  0  0  0  0  0
   16.2298  -16.6424    6.8916 C   0  0  1  0  0  0  0  0  0  0  0  0
   17.5417  -15.9359    6.9412 C   0  0  0  0  0  0  0  0  0  0  0  0
   18.5657  -16.6522    6.8319 O   0  0  0  0  0  0  0  0  0  0  0  0
   18.7479  -11.5955    4.1377 C   0  0  0  0  0  0  0  0  0  0  0  0
   18.7770  -12.8672    4.9156 C   0  0  0  0  0  0  0  0  0  0  0  0
   19.0977  -12.6684    6.3741 C   0  0  2  0  0  0  0  0  0  0  0  0
   20.5249  -12.1712    6.4694 C   0  0  0  0  0  0  0  0  0  0  0  0
   19.0129  -13.9616    7.1547 C   0  0  2  0  0  0  0  0  0  0  0  0
   17.6869  -14.5387    7.0991 N   0  0  0  0  0  0  0  0  0  0  0  0
   19.3961  -13.7441    8.5606 C   0  0  0  0  0  0  0  0  0  0  0  0
   20.6536  -14.0604    9.0416 O   0  0  0  0  0  0  0  0  0  0  0  0
   18.5711  -13.2587    9.3594 O   0  0  0  0  0  0  0  0  0  0  0  0
  2  1  1  6
  3  2  1  0
  4  2  1  0
  4  5  2  0
  6  4  1  0
  7  6  1  0
  8  9  1  0
  8  7  1  0
  9 10  1  0
 10  6  1  0
 10 11  1  1
 11 12  2  0
 14 13  1  0
 15 14  1  0
 15 16  1  6
 17 15  1  0
 18 11  1  0
 17 18  1  1
 19 17  1  0
 19 20  1  0
 21 19  2  0
M  END
$$$$
