API.pdb
     RDKit          3D

 21 21  0  0  1  0  0  0  0  0999 V2000
   15.4396  -10.9413  -15.5164 C   0  0  0  0  0  0  0  0  0  0  0  0
   16.3550  -11.4851  -16.6044 C   0  0  2  0  0  0  0  0  0  0  0  0
   16.6178  -12.8460  -16.2904 N   0  0  0  0  0  0  0  0  0  0  0  0
   17.4975  -10.6246  -16.8607 C   0  0  0  0  0  0  0  0  0  0  0  0
   18.6173  -10.9717  -16.3381 O   0  0  0  0  0  0  0  0  0  0  0  0
   17.5241   -9.4244  -17.6328 N   0  0  0  0  0  0  0  0  0  0  0  0
   16.3688   -8.9546  -18.3758 C   0  0  0  0  0  0  0  0  0  0  0  0
   16.9567   -8.0659  -19.4632 C   0  0  0  0  0  0  0  0  0  0  0  0
   18.0793   -7.4118  -18.7097 C   0  0  0  0  0  0  0  0  0  0  0  0
   18.6027   -8.5038  -17.8190 C   0  0  1  0  0  0  0  0  0  0  0  0
   19.1021   -7.9317  -16.5360 C   0  0  0  0  0  0  0  0  0  0  0  0
   18.2780   -7.8757  -15.5919 O   0  0  0  0  0  0  0  0  0  0  0  0
   23.1839   -9.7436  -13.9548 C   0  0  0  0  0  0  0  0  0  0  0  0
   21.9044   -9.0496  -14.2780 C   0  0  0  0  0  0  0  0  0  0  0  0
   22.0712   -7.5726  -14.5236 C   0  0  2  0  0  0  0  0  0  0  0  0
   22.4020   -6.9186  -13.1986 C   0  0  0  0  0  0  0  0  0  0  0  0
   20.7994   -6.9366  -15.0405 C   0  0  2  0  0  0  0  0  0  0  0  0
   20.4205   -7.4635  -16.3340 N   0  0  0  0  0  0  0  0  0  0  0  0
   20.9512   -5.4739  -15.1304 C   0  0  0  0  0  0  0  0  0  0  0  0
   21.2215   -4.8306  -16.3245 O   0  0  0  0  0  0  0  0  0  0  0  0
   20.8354   -4.7750  -14.1044 O   0  0  0  0  0  0  0  0  0  0  0  0
  2  1  1  1
  3  2  1  0
  4  2  1  0
  4  5  2  0
  6  4  1  0
  7  6  1  0
  8  9  1  0
  8  7  1  0
  9 10  1  0
 10  6  1  0
 10 11  1  1
 11 12  2  0
 14 13  1  0
 15 14  1  0
 15 16  1  1
 17 15  1  0
 18 11  1  0
 17 18  1  6
 19 17  1  0
 19 20  1  0
 21 19  2  0
M  END
$$$$
