API.pdb
     RDKit          3D

 21 21  0  0  1  0  0  0  0  0999 V2000
   28.5340  -18.1153  -15.5768 C   0  0  0  0  0  0  0  0  0  0  0  0
   28.8041  -19.6094  -15.6882 C   0  0  2  0  0  0  0  0  0  0  0  0
   28.3867  -20.0159  -16.9844 N   0  0  0  0  0  0  0  0  0  0  0  0
   28.2923  -20.3599  -14.5541 C   0  0  0  0  0  0  0  0  0  0  0  0
   27.1159  -20.8601  -14.6693 O   0  0  0  0  0  0  0  0  0  0  0  0
   28.9487  -20.6100  -13.3115 N   0  0  0  0  0  0  0  0  0  0  0  0
   30.2995  -20.1517  -13.0420 C   0  0  0  0  0  0  0  0  0  0  0  0
   30.8022  -21.0842  -11.9486 C   0  0  0  0  0  0  0  0  0  0  0  0
   29.5515  -21.2569  -11.1352 C   0  0  0  0  0  0  0  0  0  0  0  0
   28.4547  -21.3029  -12.1620 C   0  0  1  0  0  0  0  0  0  0  0  0
   27.2066  -20.6982  -11.6149 C   0  0  0  0  0  0  0  0  0  0  0  0
   27.1688  -19.4453  -11.5656 O   0  0  0  0  0  0  0  0  0  0  0  0
   22.6351  -21.2845  -13.6722 C   0  0  0  0  0  0  0  0  0  0  0  0
   23.7759  -20.7680  -12.8629 C   0  0  0  0  0  0  0  0  0  0  0  0
   23.6754  -21.1131  -11.3999 C   0  0  2  0  0  0  0  0  0  0  0  0
   22.5403  -20.3020  -10.8110 C   0  0  0  0  0  0  0  0  0  0  0  0
   24.9346  -20.7499  -10.6438 C   0  0  2  0  0  0  0  0  0  0  0  0
   26.0938  -21.4436  -11.1628 N   0  0  0  0  0  0  0  0  0  0  0  0
   24.7826  -21.0508   -9.2096 C   0  0  0  0  0  0  0  0  0  0  0  0
   25.3619  -22.1604   -8.6215 O   0  0  0  0  0  0  0  0  0  0  0  0
   24.1117  -20.2899   -8.4848 O   0  0  0  0  0  0  0  0  0  0  0  0
  2  1  1  1
  3  2  1  0
  4  2  1  0
  4  5  2  0
  6  4  1  0
  7  6  1  0
  8  9  1  0
  8  7  1  0
  9 10  1  0
 10  6  1  0
 10 11  1  1
 11 12  2  0
 14 13  1  0
 15 14  1  0
 15 16  1  1
 17 15  1  0
 18 11  1  0
 17 18  1  6
 19 17  1  0
 19 20  1  0
 21 19  2  0
M  END
$$$$
