KNP.pdb
     RDKit          3D

 25 25  0  0  1  0  0  0  0  0999 V2000
   18.2351  -25.0297   -9.6064 N   0  0  0  0  0  0  0  0  0  0  0  0
   19.3564  -24.6061  -10.3764 C   0  0  1  0  0  0  0  0  0  0  0  0
   19.7872  -25.5588  -11.4494 C   0  0  0  0  0  0  0  0  0  0  0  0
   18.6905  -26.0186  -12.3393 C   0  0  0  0  0  0  0  0  0  0  0  0
   18.6952  -25.3628  -13.6809 C   0  0  0  0  0  0  0  0  0  0  0  0
   17.5599  -25.8672  -14.5339 C   0  0  0  0  0  0  0  0  0  0  0  0
   17.5702  -25.1175  -15.7939 N   0  0  0  0  0  0  0  0  0  0  0  0
   19.1422  -23.2830  -11.0319 C   0  0  0  0  0  0  0  0  0  0  0  0
   17.9961  -22.7514  -10.9938 O   0  0  0  0  0  0  0  0  0  0  0  0
   19.7735  -20.6095   -9.5979 N   0  0  0  0  0  0  0  0  0  0  0  0
   20.8575  -20.0397  -10.3212 C   0  0  0  0  0  0  0  0  0  0  0  0
   21.6232  -19.2826   -9.7189 O   0  0  0  0  0  0  0  0  0  0  0  0
   20.9953  -20.3853  -11.7256 C   0  0  0  0  0  0  0  0  0  0  0  0
   20.0005  -21.3046  -12.3365 C   0  0  2  0  0  0  0  0  0  0  0  0
   20.1831  -22.6226  -11.6850 N   0  0  0  0  0  0  0  0  0  0  0  0
   20.0424  -21.4911  -13.7750 C   0  0  0  0  0  0  0  0  0  0  0  0
   20.5791  -22.6057  -14.1545 O   0  0  0  0  0  0  0  0  0  0  0  0
   19.6077  -20.6819  -14.8357 N   0  0  0  0  0  0  0  0  0  0  0  0
   19.0125  -19.3928  -14.9678 C   0  0  0  0  0  0  0  0  0  0  0  0
   17.8173  -19.7390  -15.8695 C   0  0  0  0  0  0  0  0  0  0  0  0
   18.3576  -20.8170  -16.7822 C   0  0  0  0  0  0  0  0  0  0  0  0
   19.7203  -21.1331  -16.2437 C   0  0  1  0  0  0  0  0  0  0  0  0
   20.7565  -20.3736  -16.9392 C   0  0  0  0  0  0  0  0  0  0  0  0
   21.1651  -20.5682  -18.2527 O   0  0  0  0  0  0  0  0  0  0  0  0
   21.3622  -19.4370  -16.3158 O   0  0  0  0  0  0  0  0  0  0  0  0
  2  1  1  6
  3  2  1  0
  4  3  1  0
  5  4  1  0
  5  6  1  0
  7  6  1  0
  8  9  2  0
  8  2  1  0
 10 11  1  0
 11 13  1  0
 12 11  2  0
 14 13  1  1
 14 15  1  0
 15  8  1  0
 16 14  1  0
 17 16  2  0
 18 19  1  0
 18 16  1  0
 20 19  1  0
 21 20  1  0
 22 21  1  0
 22 18  1  0
 22 23  1  6
 24 23  1  0
 25 23  2  0
M  END
$$$$
