KNP.pdb
     RDKit          3D

 25 25  0  0  1  0  0  0  0  0999 V2000
   23.4209  -20.5891  -18.5220 N   0  0  0  0  0  0  0  0  0  0  0  0
   24.6439  -21.3136  -18.4265 C   0  0  1  0  0  0  0  0  0  0  0  0
   25.5604  -21.1716  -19.6030 C   0  0  0  0  0  0  0  0  0  0  0  0
   25.0852  -21.8477  -20.8372 C   0  0  0  0  0  0  0  0  0  0  0  0
   24.4830  -23.1913  -20.5882 C   0  0  0  0  0  0  0  0  0  0  0  0
   24.1376  -23.8783  -21.8843 C   0  0  0  0  0  0  0  0  0  0  0  0
   23.4611  -25.1391  -21.5642 N   0  0  0  0  0  0  0  0  0  0  0  0
   25.4361  -20.9555  -17.2140 C   0  0  0  0  0  0  0  0  0  0  0  0
   26.5151  -21.5692  -16.9758 O   0  0  0  0  0  0  0  0  0  0  0  0
   28.0263  -18.1996  -15.8871 N   0  0  0  0  0  0  0  0  0  0  0  0
   26.9276  -17.4422  -15.3952 C   0  0  0  0  0  0  0  0  0  0  0  0
   27.0364  -16.2135  -15.3657 O   0  0  0  0  0  0  0  0  0  0  0  0
   25.7449  -18.1635  -14.9577 C   0  0  0  0  0  0  0  0  0  0  0  0
   25.7243  -19.6442  -15.0809 C   0  0  2  0  0  0  0  0  0  0  0  0
   25.0081  -19.9563  -16.3397 N   0  0  0  0  0  0  0  0  0  0  0  0
   25.1194  -20.4065  -14.0045 C   0  0  0  0  0  0  0  0  0  0  0  0
   24.1951  -21.2284  -14.3848 O   0  0  0  0  0  0  0  0  0  0  0  0
   25.3514  -20.4164  -12.6207 N   0  0  0  0  0  0  0  0  0  0  0  0
   26.2010  -19.7140  -11.7161 C   0  0  0  0  0  0  0  0  0  0  0  0
   26.8332  -20.8971  -10.9663 C   0  0  0  0  0  0  0  0  0  0  0  0
   25.7130  -21.9100  -10.8862 C   0  0  0  0  0  0  0  0  0  0  0  0
   24.6103  -21.3348  -11.7229 C   0  0  1  0  0  0  0  0  0  0  0  0
   23.6573  -20.5874  -10.9061 C   0  0  0  0  0  0  0  0  0  0  0  0
   22.7192  -21.1375  -10.0415 O   0  0  0  0  0  0  0  0  0  0  0  0
   23.6583  -19.3109  -10.9643 O   0  0  0  0  0  0  0  0  0  0  0  0
  2  1  1  6
  3  2  1  0
  4  3  1  0
  5  4  1  0
  5  6  1  0
  7  6  1  0
  8  9  2  0
  8  2  1  0
 10 11  1  0
 11 13  1  0
 12 11  2  0
 14 13  1  1
 14 15  1  0
 15  8  1  0
 16 14  1  0
 17 16  2  0
 18 19  1  0
 18 16  1  0
 20 19  1  0
 21 20  1  0
 22 21  1  0
 22 18  1  0
 22 23  1  1
 24 23  1  0
 25 23  2  0
M  END
$$$$
