KNP.pdb
     RDKit          3D

 25 25  0  0  1  0  0  0  0  0999 V2000
   26.5677  -19.7974  -19.0215 N   0  0  0  0  0  0  0  0  0  0  0  0
   27.7446  -20.1971  -18.3251 C   0  0  1  0  0  0  0  0  0  0  0  0
   29.0175  -19.5849  -18.8242 C   0  0  0  0  0  0  0  0  0  0  0  0
   29.0184  -19.2661  -20.2748 C   0  0  0  0  0  0  0  0  0  0  0  0
   28.2428  -18.0367  -20.6167 C   0  0  0  0  0  0  0  0  0  0  0  0
   28.3127  -17.7458  -22.0937 C   0  0  0  0  0  0  0  0  0  0  0  0
   27.4945  -16.5592  -22.3625 N   0  0  0  0  0  0  0  0  0  0  0  0
   27.6741  -19.9180  -16.8611 C   0  0  0  0  0  0  0  0  0  0  0  0
   28.6172  -20.3008  -16.1116 O   0  0  0  0  0  0  0  0  0  0  0  0
   28.1188  -16.8480  -15.7977 N   0  0  0  0  0  0  0  0  0  0  0  0
   26.8817  -16.4895  -15.1943 C   0  0  0  0  0  0  0  0  0  0  0  0
   26.6055  -15.2903  -15.1048 O   0  0  0  0  0  0  0  0  0  0  0  0
   26.0201  -17.5590  -14.7207 C   0  0  0  0  0  0  0  0  0  0  0  0
   26.4855  -18.9639  -14.8537 C   0  0  2  0  0  0  0  0  0  0  0  0
   26.5875  -19.2425  -16.3052 N   0  0  0  0  0  0  0  0  0  0  0  0
   25.6838  -20.0056  -14.2390 C   0  0  0  0  0  0  0  0  0  0  0  0
   25.0515  -20.7599  -15.0790 O   0  0  0  0  0  0  0  0  0  0  0  0
   25.4651  -20.3470  -12.8956 N   0  0  0  0  0  0  0  0  0  0  0  0
   25.8968  -19.8579  -11.6276 C   0  0  0  0  0  0  0  0  0  0  0  0
   26.3921  -21.1649  -10.9890 C   0  0  0  0  0  0  0  0  0  0  0  0
   25.4302  -22.2071  -11.5140 C   0  0  0  0  0  0  0  0  0  0  0  0
   24.5901  -21.4849  -12.5237 C   0  0  1  0  0  0  0  0  0  0  0  0
   23.3473  -20.9971  -11.9306 C   0  0  0  0  0  0  0  0  0  0  0  0
   22.2582  -21.7785  -11.5654 O   0  0  0  0  0  0  0  0  0  0  0  0
   23.2145  -19.7453  -11.7116 O   0  0  0  0  0  0  0  0  0  0  0  0
  2  1  1  6
  3  2  1  0
  4  3  1  0
  5  4  1  0
  5  6  1  0
  7  6  1  0
  8  9  2  0
  8  2  1  0
 10 11  1  0
 11 13  1  0
 12 11  2  0
 14 13  1  6
 14 15  1  0
 15  8  1  0
 16 14  1  0
 17 16  2  0
 18 19  1  0
 18 16  1  0
 20 19  1  0
 21 20  1  0
 22 21  1  0
 22 18  1  0
 22 23  1  1
 24 23  1  0
 25 23  2  0
M  END
$$$$
