KNP.pdb
     RDKit          3D

 25 25  0  0  1  0  0  0  0  0999 V2000
   29.1326  -20.4410  -16.4917 N   0  0  0  0  0  0  0  0  0  0  0  0
   28.5689  -19.6306  -15.4645 C   0  0  1  0  0  0  0  0  0  0  0  0
   27.9086  -18.3720  -15.9380 C   0  0  0  0  0  0  0  0  0  0  0  0
   27.6733  -18.3156  -17.4035 C   0  0  0  0  0  0  0  0  0  0  0  0
   28.8851  -17.9350  -18.1889 C   0  0  0  0  0  0  0  0  0  0  0  0
   28.5681  -17.8349  -19.6587 C   0  0  0  0  0  0  0  0  0  0  0  0
   29.8322  -17.6914  -20.3876 N   0  0  0  0  0  0  0  0  0  0  0  0
   27.5661  -20.3608  -14.6354 C   0  0  0  0  0  0  0  0  0  0  0  0
   27.0356  -21.4141  -15.0904 O   0  0  0  0  0  0  0  0  0  0  0  0
   24.6657  -21.6205  -10.3681 N   0  0  0  0  0  0  0  0  0  0  0  0
   25.7220  -20.7317  -10.0261 C   0  0  0  0  0  0  0  0  0  0  0  0
   25.8721  -20.4386   -8.8371 O   0  0  0  0  0  0  0  0  0  0  0  0
   26.5590  -20.2241  -11.0997 C   0  0  0  0  0  0  0  0  0  0  0  0
   26.2678  -20.6469  -12.4941 C   0  0  2  0  0  0  0  0  0  0  0  0
   27.2041  -19.9028  -13.3685 N   0  0  0  0  0  0  0  0  0  0  0  0
   24.9189  -20.4557  -12.9937 C   0  0  0  0  0  0  0  0  0  0  0  0
   24.6903  -19.2783  -13.4794 O   0  0  0  0  0  0  0  0  0  0  0  0
   23.8109  -21.3149  -13.0465 N   0  0  0  0  0  0  0  0  0  0  0  0
   23.5066  -22.6292  -12.5843 C   0  0  0  0  0  0  0  0  0  0  0  0
   22.9748  -23.2553  -13.8830 C   0  0  0  0  0  0  0  0  0  0  0  0
   22.2478  -22.1144  -14.5591 C   0  0  0  0  0  0  0  0  0  0  0  0
   22.5545  -20.9095  -13.7218 C   0  0  1  0  0  0  0  0  0  0  0  0
   21.5042  -20.6653  -12.7362 C   0  0  0  0  0  0  0  0  0  0  0  0
   20.2384  -20.1591  -13.0041 O   0  0  0  0  0  0  0  0  0  0  0  0
   21.7332  -20.9309  -11.5075 O   0  0  0  0  0  0  0  0  0  0  0  0
  2  1  1  6
  3  2  1  0
  4  3  1  0
  5  4  1  0
  5  6  1  0
  7  6  1  0
  8  9  2  0
  8  2  1  0
 10 11  1  0
 11 13  1  0
 12 11  2  0
 14 13  1  1
 14 15  1  0
 15  8  1  0
 16 14  1  0
 17 16  2  0
 18 19  1  0
 18 16  1  0
 20 19  1  0
 21 20  1  0
 22 21  1  0
 22 18  1  0
 22 23  1  1
 24 23  1  0
 25 23  2  0
M  END
$$$$
