KNP.pdb
     RDKit          3D

 25 25  0  0  1  0  0  0  0  0999 V2000
   24.1606  -31.8599  -17.0035 N   0  0  0  0  0  0  0  0  0  0  0  0
   24.2487  -32.6890  -15.8481 C   0  0  1  0  0  0  0  0  0  0  0  0
   25.6158  -33.2264  -15.5541 C   0  0  0  0  0  0  0  0  0  0  0  0
   26.4681  -33.4274  -16.7537 C   0  0  0  0  0  0  0  0  0  0  0  0
   27.5447  -32.4028  -16.9001 C   0  0  0  0  0  0  0  0  0  0  0  0
   28.8294  -32.8736  -16.2685 C   0  0  0  0  0  0  0  0  0  0  0  0
   29.8579  -31.8595  -16.5203 N   0  0  0  0  0  0  0  0  0  0  0  0
   23.7750  -32.0070  -14.6085 C   0  0  0  0  0  0  0  0  0  0  0  0
   23.3552  -30.8168  -14.6784 O   0  0  0  0  0  0  0  0  0  0  0  0
   21.1488  -30.2975  -11.1787 N   0  0  0  0  0  0  0  0  0  0  0  0
   20.6413  -31.2036  -12.1504 C   0  0  0  0  0  0  0  0  0  0  0  0
   19.4555  -31.1019  -12.4756 O   0  0  0  0  0  0  0  0  0  0  0  0
   21.5521  -32.1933  -12.6996 C   0  0  0  0  0  0  0  0  0  0  0  0
   22.9621  -32.2052  -12.2310 C   0  0  2  0  0  0  0  0  0  0  0  0
   23.7868  -32.6587  -13.3752 N   0  0  0  0  0  0  0  0  0  0  0  0
   23.2866  -33.0215  -11.0759 C   0  0  0  0  0  0  0  0  0  0  0  0
   23.3834  -34.2875  -11.3257 O   0  0  0  0  0  0  0  0  0  0  0  0
   23.5145  -32.6906   -9.7315 N   0  0  0  0  0  0  0  0  0  0  0  0
   23.3359  -31.5369   -8.9126 C   0  0  0  0  0  0  0  0  0  0  0  0
   24.7352  -31.4317   -8.2862 C   0  0  0  0  0  0  0  0  0  0  0  0
   25.1562  -32.8731   -8.1063 C   0  0  0  0  0  0  0  0  0  0  0  0
   24.0868  -33.6763   -8.7830 C   0  0  1  0  0  0  0  0  0  0  0  0
   23.0690  -34.1156   -7.8315 C   0  0  0  0  0  0  0  0  0  0  0  0
   23.2309  -35.0974   -6.8620 O   0  0  0  0  0  0  0  0  0  0  0  0
   21.9144  -33.5691   -7.8625 O   0  0  0  0  0  0  0  0  0  0  0  0
  2  1  1  6
  3  2  1  0
  4  3  1  0
  5  4  1  0
  5  6  1  0
  7  6  1  0
  8  9  2  0
  8  2  1  0
 10 11  1  0
 11 13  1  0
 12 11  2  0
 14 13  1  6
 14 15  1  0
 15  8  1  0
 16 14  1  0
 17 16  2  0
 18 19  1  0
 18 16  1  0
 20 19  1  0
 21 20  1  0
 22 21  1  0
 22 18  1  0
 22 23  1  1
 24 23  1  0
 25 23  2  0
M  END
$$$$
