KNP.pdb
     RDKit          3D

 25 25  0  0  1  0  0  0  0  0999 V2000
   25.2468  -20.4429  -17.2168 N   0  0  0  0  0  0  0  0  0  0  0  0
   24.9560  -21.0735  -15.9728 C   0  0  1  0  0  0  0  0  0  0  0  0
   26.1534  -21.5205  -15.1914 C   0  0  0  0  0  0  0  0  0  0  0  0
   26.7775  -22.7739  -15.6869 C   0  0  0  0  0  0  0  0  0  0  0  0
   25.8147  -23.9072  -15.8236 C   0  0  0  0  0  0  0  0  0  0  0  0
   26.4856  -25.1188  -16.4176 C   0  0  0  0  0  0  0  0  0  0  0  0
   25.4749  -26.1703  -16.5676 N   0  0  0  0  0  0  0  0  0  0  0  0
   24.1415  -20.2144  -15.0645 C   0  0  0  0  0  0  0  0  0  0  0  0
   24.6398  -19.1442  -14.6128 O   0  0  0  0  0  0  0  0  0  0  0  0
   20.1217  -16.7268  -14.2923 N   0  0  0  0  0  0  0  0  0  0  0  0
   20.1400  -18.0954  -13.9057 C   0  0  0  0  0  0  0  0  0  0  0  0
   19.3626  -18.4586  -13.0191 O   0  0  0  0  0  0  0  0  0  0  0  0
   21.0741  -18.9807  -14.5796 C   0  0  0  0  0  0  0  0  0  0  0  0
   22.0319  -19.7672  -13.7599 C   0  0  2  0  0  0  0  0  0  0  0  0
   22.8414  -20.5705  -14.7056 N   0  0  0  0  0  0  0  0  0  0  0  0
   21.4900  -20.6542  -12.7473 C   0  0  0  0  0  0  0  0  0  0  0  0
   21.3079  -21.8721  -13.1449 O   0  0  0  0  0  0  0  0  0  0  0  0
   21.1238  -20.4343  -11.4107 N   0  0  0  0  0  0  0  0  0  0  0  0
   21.0995  -19.3194  -10.5220 C   0  0  0  0  0  0  0  0  0  0  0  0
   21.8539  -19.9142   -9.3227 C   0  0  0  0  0  0  0  0  0  0  0  0
   21.4181  -21.3623   -9.3078 C   0  0  0  0  0  0  0  0  0  0  0  0
   20.6146  -21.5377  -10.5610 C   0  0  1  0  0  0  0  0  0  0  0  0
   19.1866  -21.3648  -10.3060 C   0  0  0  0  0  0  0  0  0  0  0  0
   18.3817  -20.3612  -10.8305 O   0  0  0  0  0  0  0  0  0  0  0  0
   18.5895  -22.1930   -9.5377 O   0  0  0  0  0  0  0  0  0  0  0  0
  2  1  1  6
  3  2  1  0
  4  3  1  0
  5  4  1  0
  5  6  1  0
  7  6  1  0
  8  9  2  0
  8  2  1  0
 10 11  1  0
 11 13  1  0
 12 11  2  0
 14 13  1  6
 14 15  1  0
 15  8  1  0
 16 14  1  0
 17 16  2  0
 18 19  1  0
 18 16  1  0
 20 19  1  0
 21 20  1  0
 22 21  1  0
 22 18  1  0
 22 23  1  1
 24 23  1  0
 25 23  2  0
M  END
$$$$
