EGF.pdb
     RDKit          3D

 25 25  0  0  1  0  0  0  0  0999 V2000
   22.1945  -35.1870   -6.2762 N   0  0  0  0  0  0  0  0  0  0  0  0
   22.1644  -36.6091   -6.1740 C   0  0  1  0  0  0  0  0  0  0  0  0
   21.2820  -37.2312   -7.2222 C   0  0  0  0  0  0  0  0  0  0  0  0
   19.9508  -36.5552   -7.3267 C   0  0  0  0  0  0  0  0  0  0  0  0
   18.8888  -37.5609   -7.3746 C   0  0  0  0  0  0  0  0  0  0  0  0
   19.1706  -38.7628   -7.5995 O   0  0  0  0  0  0  0  0  0  0  0  0
   23.5268  -37.2140   -6.1659 C   0  0  0  0  0  0  0  0  0  0  0  0
   23.6459  -38.4564   -6.2504 O   0  0  0  0  0  0  0  0  0  0  0  0
   17.5360  -37.2417   -7.1768 O   0  0  0  0  0  0  0  0  0  0  0  0
   24.7081  -36.4362   -6.0656 N   0  0  0  0  0  0  0  0  0  0  0  0
   26.0199  -36.9686   -5.8894 C   0  0  0  0  0  0  0  0  0  0  0  0
   27.0456  -35.9171   -5.6427 C   0  0  0  0  0  0  0  0  0  0  0  0
   27.7430  -35.5398   -6.6138 O   0  0  0  0  0  0  0  0  0  0  0  0
   27.2552  -35.3382   -4.3642 N   0  0  0  0  0  0  0  0  0  0  0  0
   26.9879  -33.9272   -4.0805 C   0  0  1  0  0  0  0  0  0  0  0  0
   25.7422  -33.4561   -4.7309 C   0  0  0  0  0  0  0  0  0  0  0  0
   25.9971  -33.0283   -6.1138 C   0  0  0  0  0  0  0  0  0  0  0  0
   24.9457  -32.4993   -6.8715 C   0  0  0  0  0  0  0  0  0  0  0  0
   25.1291  -32.0552   -8.1638 C   0  0  0  0  0  0  0  0  0  0  0  0
   26.3917  -32.1240   -8.7583 C   0  0  0  0  0  0  0  0  0  0  0  0
   27.4254  -32.6382   -8.0285 C   0  0  0  0  0  0  0  0  0  0  0  0
   27.2180  -33.0695   -6.7555 C   0  0  0  0  0  0  0  0  0  0  0  0
   26.9937  -33.6473   -2.6495 C   0  0  0  0  0  0  0  0  0  0  0  0
   27.1832  -34.5483   -1.8036 O   0  0  0  0  0  0  0  0  0  0  0  0
   26.7904  -32.3663   -2.1190 O   0  0  0  0  0  0  0  0  0  0  0  0
  2  1  1  6
  2  3  1  0
  2  7  1  0
  3  4  1  0
  4  5  1  0
  5  6  2  0
  5  9  1  0
  7 10  1  0
  7  8  2  0
 10 11  1  0
 11 12  1  0
 12 14  1  0
 13 12  2  0
 14 15  1  0
 15 23  1  0
 16 17  1  0
 15 16  1  1
 17 22  2  0
 18 19  2  0
 18 17  1  0
 19 20  1  0
 20 21  2  0
 22 21  1  0
 23 24  2  0
 23 25  1  0
M  END
$$$$
