EGF.pdb
     RDKit          3D

 25 25  0  0  1  0  0  0  0  0999 V2000
   27.7804  -19.8665  -17.9275 N   0  0  0  0  0  0  0  0  0  0  0  0
   27.6533  -18.4945  -17.5594 C   0  0  1  0  0  0  0  0  0  0  0  0
   26.4554  -17.8474  -18.2002 C   0  0  0  0  0  0  0  0  0  0  0  0
   25.5159  -18.8460  -18.8003 C   0  0  0  0  0  0  0  0  0  0  0  0
   24.5227  -19.2501  -17.8045 C   0  0  0  0  0  0  0  0  0  0  0  0
   24.6584  -18.9059  -16.6055 O   0  0  0  0  0  0  0  0  0  0  0  0
   27.6698  -18.2915  -16.0828 C   0  0  0  0  0  0  0  0  0  0  0  0
   27.3155  -17.1878  -15.6123 O   0  0  0  0  0  0  0  0  0  0  0  0
   23.3969  -20.0231  -18.1302 O   0  0  0  0  0  0  0  0  0  0  0  0
   28.0736  -19.3042  -15.1761 N   0  0  0  0  0  0  0  0  0  0  0  0
   28.0489  -19.1805  -13.7551 C   0  0  0  0  0  0  0  0  0  0  0  0
   26.9061  -19.9017  -13.1287 C   0  0  0  0  0  0  0  0  0  0  0  0
   25.8776  -20.0837  -13.8221 O   0  0  0  0  0  0  0  0  0  0  0  0
   26.9437  -20.3814  -11.7938 N   0  0  0  0  0  0  0  0  0  0  0  0
   25.8406  -21.1311  -11.1905 C   0  0  1  0  0  0  0  0  0  0  0  0
   26.2903  -21.9530  -10.0419 C   0  0  0  0  0  0  0  0  0  0  0  0
   27.0404  -21.1415   -9.0727 C   0  0  0  0  0  0  0  0  0  0  0  0
   26.3407  -20.3214   -8.1798 C   0  0  0  0  0  0  0  0  0  0  0  0
   26.9869  -19.5590   -7.2300 C   0  0  0  0  0  0  0  0  0  0  0  0
   28.3806  -19.5876   -7.1347 C   0  0  0  0  0  0  0  0  0  0  0  0
   29.0740  -20.3841   -8.0008 C   0  0  0  0  0  0  0  0  0  0  0  0
   28.4126  -21.1265   -8.9286 C   0  0  0  0  0  0  0  0  0  0  0  0
   24.7221  -20.2659  -10.8353 C   0  0  0  0  0  0  0  0  0  0  0  0
   24.8805  -19.0476  -10.6029 O   0  0  0  0  0  0  0  0  0  0  0  0
   23.4025  -20.7254  -10.7283 O   0  0  0  0  0  0  0  0  0  0  0  0
  2  1  1  1
  2  3  1  0
  2  7  1  0
  3  4  1  0
  4  5  1  0
  5  6  2  0
  5  9  1  0
  7 10  1  0
  7  8  2  0
 10 11  1  0
 11 12  1  0
 12 14  1  0
 13 12  2  0
 14 15  1  0
 15 23  1  0
 16 17  1  0
 15 16  1  1
 17 22  2  0
 18 19  2  0
 18 17  1  0
 19 20  1  0
 20 21  2  0
 22 21  1  0
 23 24  2  0
 23 25  1  0
M  END
$$$$
