EGF.pdb
     RDKit          3D

 25 25  0  0  1  0  0  0  0  0999 V2000
   26.0225  -18.4709  -13.6964 N   0  0  0  0  0  0  0  0  0  0  0  0
   27.1720  -18.9891  -14.3628 C   0  0  1  0  0  0  0  0  0  0  0  0
   28.0499  -17.8945  -14.9065 C   0  0  0  0  0  0  0  0  0  0  0  0
   27.4009  -17.1402  -16.0244 C   0  0  0  0  0  0  0  0  0  0  0  0
   27.8887  -17.6442  -17.3087 C   0  0  0  0  0  0  0  0  0  0  0  0
   29.1083  -17.5650  -17.5930 O   0  0  0  0  0  0  0  0  0  0  0  0
   27.9405  -19.9496  -13.5208 C   0  0  0  0  0  0  0  0  0  0  0  0
   28.9188  -20.5516  -14.0161 O   0  0  0  0  0  0  0  0  0  0  0  0
   27.0403  -18.2267  -18.2637 O   0  0  0  0  0  0  0  0  0  0  0  0
   27.6094  -20.2152  -12.1679 N   0  0  0  0  0  0  0  0  0  0  0  0
   28.3317  -21.0992  -11.3123 C   0  0  0  0  0  0  0  0  0  0  0  0
   27.7880  -21.1397   -9.9262 C   0  0  0  0  0  0  0  0  0  0  0  0
   28.3094  -21.9417   -9.1157 O   0  0  0  0  0  0  0  0  0  0  0  0
   26.7161  -20.3130   -9.5006 N   0  0  0  0  0  0  0  0  0  0  0  0
   25.9057  -20.6130   -8.3190 C   0  0  1  0  0  0  0  0  0  0  0  0
   25.9669  -19.5262   -7.3130 C   0  0  0  0  0  0  0  0  0  0  0  0
   27.1094  -19.7086   -6.4065 C   0  0  0  0  0  0  0  0  0  0  0  0
   27.0022  -20.6131   -5.3436 C   0  0  0  0  0  0  0  0  0  0  0  0
   28.0485  -20.8480   -4.4770 C   0  0  0  0  0  0  0  0  0  0  0  0
   29.2626  -20.1764   -4.6425 C   0  0  0  0  0  0  0  0  0  0  0  0
   29.3790  -19.2914   -5.6763 C   0  0  0  0  0  0  0  0  0  0  0  0
   28.3316  -19.0778   -6.5171 C   0  0  0  0  0  0  0  0  0  0  0  0
   24.5319  -20.9518   -8.6708 C   0  0  0  0  0  0  0  0  0  0  0  0
   24.0998  -20.8209   -9.8367 O   0  0  0  0  0  0  0  0  0  0  0  0
   23.6029  -21.4429   -7.7436 O   0  0  0  0  0  0  0  0  0  0  0  0
  2  1  1  1
  2  3  1  0
  2  7  1  0
  3  4  1  0
  4  5  1  0
  5  6  2  0
  5  9  1  0
  7 10  1  0
  7  8  2  0
 10 11  1  0
 11 12  1  0
 12 14  1  0
 13 12  2  0
 14 15  1  0
 15 23  1  0
 16 17  1  0
 15 16  1  1
 17 22  2  0
 18 19  2  0
 18 17  1  0
 19 20  1  0
 20 21  2  0
 22 21  1  0
 23 24  2  0
 23 25  1  0
M  END
$$$$
