EGF.pdb
     RDKit          3D

 25 25  0  0  1  0  0  0  0  0999 V2000
   25.3124  -20.1626  -15.4834 N   0  0  0  0  0  0  0  0  0  0  0  0
   25.2964  -19.2447  -14.3920 C   0  0  1  0  0  0  0  0  0  0  0  0
   23.9259  -18.6681  -14.1603 C   0  0  0  0  0  0  0  0  0  0  0  0
   23.2074  -18.3645  -15.4375 C   0  0  0  0  0  0  0  0  0  0  0  0
   22.3761  -19.5066  -15.8198 C   0  0  0  0  0  0  0  0  0  0  0  0
   21.8447  -19.5451  -16.9559 O   0  0  0  0  0  0  0  0  0  0  0  0
   25.8725  -19.8239  -13.1452 C   0  0  0  0  0  0  0  0  0  0  0  0
   25.9817  -19.1031  -12.1286 O   0  0  0  0  0  0  0  0  0  0  0  0
   22.1366  -20.5892  -14.9586 O   0  0  0  0  0  0  0  0  0  0  0  0
   26.3076  -21.1706  -13.0576 N   0  0  0  0  0  0  0  0  0  0  0  0
   25.7948  -22.1327  -12.1375 C   0  0  0  0  0  0  0  0  0  0  0  0
   26.5158  -22.1323  -10.8342 C   0  0  0  0  0  0  0  0  0  0  0  0
   26.7049  -23.2353  -10.2691 O   0  0  0  0  0  0  0  0  0  0  0  0
   26.9877  -20.9425  -10.2216 N   0  0  0  0  0  0  0  0  0  0  0  0
   27.1345  -20.8028   -8.7719 C   0  0  1  0  0  0  0  0  0  0  0  0
   28.3704  -20.0705   -8.4067 C   0  0  0  0  0  0  0  0  0  0  0  0
   28.4604  -19.8776   -6.9524 C   0  0  0  0  0  0  0  0  0  0  0  0
   29.2095  -20.7791   -6.1873 C   0  0  0  0  0  0  0  0  0  0  0  0
   29.3541  -20.6347   -4.8238 C   0  0  0  0  0  0  0  0  0  0  0  0
   28.7451  -19.5657   -4.1616 C   0  0  0  0  0  0  0  0  0  0  0  0
   28.0115  -18.6794   -4.8978 C   0  0  0  0  0  0  0  0  0  0  0  0
   27.8845  -18.8444   -6.2417 C   0  0  0  0  0  0  0  0  0  0  0  0
   25.9512  -20.2126   -8.1576 C   0  0  0  0  0  0  0  0  0  0  0  0
   25.3875  -19.2090   -8.6457 O   0  0  0  0  0  0  0  0  0  0  0  0
   25.3623  -20.7167   -6.9900 O   0  0  0  0  0  0  0  0  0  0  0  0
  2  1  1  6
  2  3  1  0
  2  7  1  0
  3  4  1  0
  4  5  1  0
  5  6  2  0
  5  9  1  0
  7 10  1  0
  7  8  2  0
 10 11  1  0
 11 12  1  0
 12 14  1  0
 13 12  2  0
 14 15  1  0
 15 23  1  0
 16 17  1  0
 15 16  1  6
 17 22  2  0
 18 19  2  0
 18 17  1  0
 19 20  1  0
 20 21  2  0
 22 21  1  0
 23 24  2  0
 23 25  1  0
M  END
$$$$
