EGF.pdb
     RDKit          3D

 25 25  0  0  1  0  0  0  0  0999 V2000
   25.5052  -22.5160  -14.1754 N   0  0  0  0  0  0  0  0  0  0  0  0
   26.6592  -22.0492  -14.8712 C   0  0  1  0  0  0  0  0  0  0  0  0
   26.2958  -21.2272  -16.0782 C   0  0  0  0  0  0  0  0  0  0  0  0
   25.1018  -20.3566  -15.8415 C   0  0  0  0  0  0  0  0  0  0  0  0
   24.3216  -20.2426  -17.0743 C   0  0  0  0  0  0  0  0  0  0  0  0
   24.3986  -19.2034  -17.7733 O   0  0  0  0  0  0  0  0  0  0  0  0
   27.6171  -21.3336  -13.9810 C   0  0  0  0  0  0  0  0  0  0  0  0
   28.3034  -20.3970  -14.4466 O   0  0  0  0  0  0  0  0  0  0  0  0
   23.4694  -21.2626  -17.5267 O   0  0  0  0  0  0  0  0  0  0  0  0
   27.7880  -21.6700  -12.6142 N   0  0  0  0  0  0  0  0  0  0  0  0
   28.2552  -20.7729  -11.6081 C   0  0  0  0  0  0  0  0  0  0  0  0
   27.1927  -20.3798  -10.6411 C   0  0  0  0  0  0  0  0  0  0  0  0
   26.5637  -19.3180  -10.8617 O   0  0  0  0  0  0  0  0  0  0  0  0
   26.8749  -21.1563   -9.4967 N   0  0  0  0  0  0  0  0  0  0  0  0
   25.7670  -20.8262   -8.5986 C   0  0  1  0  0  0  0  0  0  0  0  0
   26.0150  -19.5722   -7.8483 C   0  0  0  0  0  0  0  0  0  0  0  0
   27.0569  -19.7631   -6.8292 C   0  0  0  0  0  0  0  0  0  0  0  0
   27.3747  -21.0602   -6.4099 C   0  0  0  0  0  0  0  0  0  0  0  0
   28.3614  -21.3047   -5.4785 C   0  0  0  0  0  0  0  0  0  0  0  0
   29.0804  -20.2442   -4.9212 C   0  0  0  0  0  0  0  0  0  0  0  0
   28.7791  -18.9740   -5.3227 C   0  0  0  0  0  0  0  0  0  0  0  0
   27.8011  -18.7598   -6.2432 C   0  0  0  0  0  0  0  0  0  0  0  0
   24.4875  -20.7979   -9.2973 C   0  0  0  0  0  0  0  0  0  0  0  0
   24.4068  -20.9890  -10.5303 O   0  0  0  0  0  0  0  0  0  0  0  0
   23.2674  -20.5582   -8.6512 O   0  0  0  0  0  0  0  0  0  0  0  0
  2  1  1  1
  2  3  1  0
  2  7  1  0
  3  4  1  0
  4  5  1  0
  5  6  2  0
  5  9  1  0
  7 10  1  0
  7  8  2  0
 10 11  1  0
 11 12  1  0
 12 14  1  0
 13 12  2  0
 14 15  1  0
 15 23  1  0
 16 17  1  0
 15 16  1  6
 17 22  2  0
 18 19  2  0
 18 17  1  0
 19 20  1  0
 20 21  2  0
 22 21  1  0
 23 24  2  0
 23 25  1  0
M  END
$$$$
