EGF.pdb
     RDKit          3D

 25 25  0  0  1  0  0  0  0  0999 V2000
   28.7555  -17.7248  -15.7213 N   0  0  0  0  0  0  0  0  0  0  0  0
   27.5111  -17.2606  -15.2019 C   0  0  1  0  0  0  0  0  0  0  0  0
   26.9713  -16.0961  -15.9874 C   0  0  0  0  0  0  0  0  0  0  0  0
   27.6438  -15.9383  -17.3151 C   0  0  0  0  0  0  0  0  0  0  0  0
   27.2360  -17.0243  -18.2073 C   0  0  0  0  0  0  0  0  0  0  0  0
   26.0710  -17.0519  -18.6724 O   0  0  0  0  0  0  0  0  0  0  0  0
   26.5036  -18.3504  -15.0629 C   0  0  0  0  0  0  0  0  0  0  0  0
   25.3518  -18.0723  -14.6619 O   0  0  0  0  0  0  0  0  0  0  0  0
   28.1038  -18.0634  -18.5790 O   0  0  0  0  0  0  0  0  0  0  0  0
   26.7947  -19.7042  -15.3682 N   0  0  0  0  0  0  0  0  0  0  0  0
   27.5027  -20.5973  -14.5101 C   0  0  0  0  0  0  0  0  0  0  0  0
   26.6061  -21.3577  -13.5956 C   0  0  0  0  0  0  0  0  0  0  0  0
   26.6089  -22.6086  -13.6790 O   0  0  0  0  0  0  0  0  0  0  0  0
   25.7626  -20.7217  -12.6482 N   0  0  0  0  0  0  0  0  0  0  0  0
   25.0543  -21.4571  -11.5992 C   0  0  1  0  0  0  0  0  0  0  0  0
   25.9878  -22.1482  -10.6783 C   0  0  0  0  0  0  0  0  0  0  0  0
   26.5904  -21.2022   -9.7283 C   0  0  0  0  0  0  0  0  0  0  0  0
   27.9820  -21.1748   -9.5793 C   0  0  0  0  0  0  0  0  0  0  0  0
   28.6070  -20.2911   -8.7253 C   0  0  0  0  0  0  0  0  0  0  0  0
   27.8524  -19.3856   -7.9750 C   0  0  0  0  0  0  0  0  0  0  0  0
   26.4936  -19.4030   -8.1122 C   0  0  0  0  0  0  0  0  0  0  0  0
   25.9016  -20.2849   -8.9615 C   0  0  0  0  0  0  0  0  0  0  0  0
   24.1096  -20.6099  -10.8811 C   0  0  0  0  0  0  0  0  0  0  0  0
   23.2814  -21.0852  -10.0738 O   0  0  0  0  0  0  0  0  0  0  0  0
   24.0569  -19.2183  -11.0373 O   0  0  0  0  0  0  0  0  0  0  0  0
  2  1  1  6
  2  3  1  0
  2  7  1  0
  3  4  1  0
  4  5  1  0
  5  6  2  0
  5  9  1  0
  7 10  1  0
  7  8  2  0
 10 11  1  0
 11 12  1  0
 12 14  1  0
 13 12  2  0
 14 15  1  0
 15 23  1  0
 16 17  1  0
 15 16  1  1
 17 22  2  0
 18 19  2  0
 18 17  1  0
 19 20  1  0
 20 21  2  0
 22 21  1  0
 23 24  2  0
 23 25  1  0
M  END
$$$$
