EGF.pdb
     RDKit          3D

 25 25  0  0  1  0  0  0  0  0999 V2000
   25.6838  -16.5972  -15.8939 N   0  0  0  0  0  0  0  0  0  0  0  0
   26.2337  -17.8568  -16.2745 C   0  0  1  0  0  0  0  0  0  0  0  0
   27.2735  -17.7153  -17.3531 C   0  0  0  0  0  0  0  0  0  0  0  0
   26.6727  -17.6149  -18.7201 C   0  0  0  0  0  0  0  0  0  0  0  0
   25.7303  -18.7152  -18.9272 C   0  0  0  0  0  0  0  0  0  0  0  0
   24.4994  -18.4832  -19.0015 O   0  0  0  0  0  0  0  0  0  0  0  0
   26.7440  -18.6366  -15.1111 C   0  0  0  0  0  0  0  0  0  0  0  0
   27.0640  -19.8354  -15.2702 O   0  0  0  0  0  0  0  0  0  0  0  0
   26.1435  -20.0514  -19.0501 O   0  0  0  0  0  0  0  0  0  0  0  0
   26.8850  -18.0749  -13.8168 N   0  0  0  0  0  0  0  0  0  0  0  0
   27.5188  -18.7215  -12.7143 C   0  0  0  0  0  0  0  0  0  0  0  0
   26.6004  -19.6207  -11.9617 C   0  0  0  0  0  0  0  0  0  0  0  0
   25.4764  -19.8617  -12.4620 O   0  0  0  0  0  0  0  0  0  0  0  0
   26.9514  -20.2039  -10.7166 N   0  0  0  0  0  0  0  0  0  0  0  0
   26.0596  -21.1049   -9.9848 C   0  0  1  0  0  0  0  0  0  0  0  0
   26.7545  -21.7880   -8.8679 C   0  0  0  0  0  0  0  0  0  0  0  0
   27.2513  -20.8176   -7.8820 C   0  0  0  0  0  0  0  0  0  0  0  0
   28.6274  -20.5779   -7.7910 C   0  0  0  0  0  0  0  0  0  0  0  0
   29.1510  -19.6594   -6.9060 C   0  0  0  0  0  0  0  0  0  0  0  0
   28.3050  -18.9333   -6.0638 C   0  0  0  0  0  0  0  0  0  0  0  0
   26.9602  -19.1587   -6.1437 C   0  0  0  0  0  0  0  0  0  0  0  0
   26.4692  -20.0703   -7.0254 C   0  0  0  0  0  0  0  0  0  0  0  0
   24.8468  -20.4294   -9.5388 C   0  0  0  0  0  0  0  0  0  0  0  0
   24.7822  -19.1839   -9.4496 O   0  0  0  0  0  0  0  0  0  0  0  0
   23.6770  -21.1130   -9.1809 O   0  0  0  0  0  0  0  0  0  0  0  0
  2  1  1  1
  2  3  1  0
  2  7  1  0
  3  4  1  0
  4  5  1  0
  5  6  2  0
  5  9  1  0
  7 10  1  0
  7  8  2  0
 10 11  1  0
 11 12  1  0
 12 14  1  0
 13 12  2  0
 14 15  1  0
 15 23  1  0
 16 17  1  0
 15 16  1  1
 17 22  2  0
 18 19  2  0
 18 17  1  0
 19 20  1  0
 20 21  2  0
 22 21  1  0
 23 24  2  0
 23 25  1  0
M  END
$$$$
