QIK.pdb
     RDKit          3D

 27 26  0  0  1  0  0  0  0  0999 V2000
   24.0767  -13.5846  -22.7575 N   0  0  0  0  0  0  0  0  0  0  0  0
   23.1873  -12.5568  -22.3428 C   0  0  0  0  0  0  0  0  0  0  0  0
   23.4565  -11.3621  -22.6018 O   0  0  0  0  0  0  0  0  0  0  0  0
   21.9487  -12.9640  -21.6023 C   0  0  0  0  0  0  0  0  0  0  0  0
   21.9823  -12.2698  -20.2759 C   0  0  0  0  0  0  0  0  0  0  0  0
   22.5818  -13.1114  -19.1963 C   0  0  2  0  0  0  0  0  0  0  0  0
   21.8181  -14.2668  -18.8421 N   0  0  0  0  0  0  0  0  0  0  0  0
   22.7724  -12.2640  -17.9605 C   0  0  0  0  0  0  0  0  0  0  0  0
   21.8755  -12.2371  -17.0786 O   0  0  0  0  0  0  0  0  0  0  0  0
   27.6268  -12.0054  -15.8771 C   0  0  0  0  0  0  0  0  0  0  0  0
   26.1530  -11.9986  -16.0695 C   0  0  0  0  0  0  0  0  0  0  0  0
   25.5390  -10.6126  -16.1884 C   0  0  2  0  0  0  0  0  0  0  0  0
   25.8704   -9.7566  -15.0206 C   0  0  0  0  0  0  0  0  0  0  0  0
   24.0624  -10.7203  -16.5087 C   0  0  2  0  0  0  0  0  0  0  0  0
   23.9416  -11.4978  -17.7734 N   0  0  0  0  0  0  0  0  0  0  0  0
   23.3745   -9.4370  -16.7000 C   0  0  0  0  0  0  0  0  0  0  0  0
   23.7039   -8.7200  -17.7083 O   0  0  0  0  0  0  0  0  0  0  0  0
   22.3723   -8.9320  -15.8623 N   0  0  0  0  0  0  0  0  0  0  0  0
   21.7134   -7.6544  -16.1311 C   0  0  1  0  0  0  0  0  0  0  0  0
   20.3250   -7.8446  -16.6328 C   0  0  0  0  0  0  0  0  0  0  0  0
   19.5844   -6.6112  -16.9602 C   0  0  0  0  0  0  0  0  0  0  0  0
   18.2232   -6.6102  -17.4928 C   0  0  0  0  0  0  0  0  0  0  0  0
   17.5499   -5.3578  -17.9180 C   0  0  0  0  0  0  0  0  0  0  0  0
   16.1513   -5.7378  -18.2589 N   0  0  0  0  0  0  0  0  0  0  0  0
   21.6767   -6.8407  -14.8462 C   0  0  0  0  0  0  0  0  0  0  0  0
   21.6784   -7.3395  -13.7160 O   0  0  0  0  0  0  0  0  0  0  0  0
   21.6399   -5.4698  -15.0013 O   0  0  0  0  0  0  0  0  0  0  0  0
  1  2  1  0
  2  3  2  0
  4  2  1  0
  4  5  1  0
  6  7  1  1
  6  5  1  0
  8  6  1  0
  9  8  2  0
 11 10  1  0
 12 13  1  1
 12 14  1  0
 12 11  1  0
 14 15  1  6
 15  8  1  0
 16 14  1  0
 16 17  2  0
 18 16  1  0
 19 18  1  0
 19 20  1  1
 21 20  1  0
 22 23  1  0
 22 21  1  0
 23 24  1  0
 25 27  1  0
 25 19  1  0
 26 25  2  0
M  END
$$$$
