QIK.pdb
     RDKit          3D

 27 26  0  0  1  0  0  0  0  0999 V2000
   20.8502  -23.6388  -14.1053 N   0  0  0  0  0  0  0  0  0  0  0  0
   19.5477  -23.2712  -14.5387 C   0  0  0  0  0  0  0  0  0  0  0  0
   18.6316  -24.1243  -14.5420 O   0  0  0  0  0  0  0  0  0  0  0  0
   19.3336  -21.8537  -14.9780 C   0  0  0  0  0  0  0  0  0  0  0  0
   20.6436  -21.1443  -14.8248 C   0  0  0  0  0  0  0  0  0  0  0  0
   20.9611  -20.8145  -13.4023 C   0  0  2  0  0  0  0  0  0  0  0  0
   20.1084  -19.8321  -12.8092 N   0  0  0  0  0  0  0  0  0  0  0  0
   22.3880  -20.3267  -13.3170 C   0  0  0  0  0  0  0  0  0  0  0  0
   22.6656  -19.1483  -13.6594 O   0  0  0  0  0  0  0  0  0  0  0  0
   25.1625  -20.7936   -8.9844 C   0  0  0  0  0  0  0  0  0  0  0  0
   24.6534  -20.4138  -10.3282 C   0  0  0  0  0  0  0  0  0  0  0  0
   25.4105  -21.0391  -11.4891 C   0  0  2  0  0  0  0  0  0  0  0  0
   26.8763  -20.8280  -11.3739 C   0  0  0  0  0  0  0  0  0  0  0  0
   24.7996  -20.6059  -12.8059 C   0  0  2  0  0  0  0  0  0  0  0  0
   23.4219  -21.1695  -12.8588 N   0  0  0  0  0  0  0  0  0  0  0  0
   25.5198  -21.0600  -14.0024 C   0  0  0  0  0  0  0  0  0  0  0  0
   25.4927  -22.3084  -14.2857 O   0  0  0  0  0  0  0  0  0  0  0  0
   26.2365  -20.2275  -14.8709 N   0  0  0  0  0  0  0  0  0  0  0  0
   26.9439  -20.7552  -16.0370 C   0  0  1  0  0  0  0  0  0  0  0  0
   27.6220  -19.6759  -16.8058 C   0  0  0  0  0  0  0  0  0  0  0  0
   28.3399  -20.1052  -18.0213 C   0  0  0  0  0  0  0  0  0  0  0  0
   29.1775  -19.2096  -18.8167 C   0  0  0  0  0  0  0  0  0  0  0  0
   29.8558  -19.6665  -20.0551 C   0  0  0  0  0  0  0  0  0  0  0  0
   30.5668  -18.4762  -20.5979 N   0  0  0  0  0  0  0  0  0  0  0  0
   27.9801  -21.7652  -15.5675 C   0  0  0  0  0  0  0  0  0  0  0  0
   28.6854  -21.6113  -14.5649 O   0  0  0  0  0  0  0  0  0  0  0  0
   28.1044  -22.9039  -16.3372 O   0  0  0  0  0  0  0  0  0  0  0  0
  1  2  1  0
  2  3  2  0
  4  2  1  0
  4  5  1  0
  6  7  1  6
  6  5  1  0
  8  6  1  0
  9  8  2  0
 11 10  1  0
 12 13  1  6
 12 14  1  0
 12 11  1  0
 14 15  1  6
 15  8  1  0
 16 14  1  0
 16 17  2  0
 18 16  1  0
 19 18  1  0
 19 20  1  1
 21 20  1  0
 22 23  1  0
 22 21  1  0
 23 24  1  0
 25 27  1  0
 25 19  1  0
 26 25  2  0
M  END
$$$$
