QIK.pdb
     RDKit          3D

 27 26  0  0  1  0  0  0  0  0999 V2000
   21.3712  -10.9481  -21.8026 N   0  0  0  0  0  0  0  0  0  0  0  0
   20.5486  -12.0956  -21.9633 C   0  0  0  0  0  0  0  0  0  0  0  0
   20.2843  -12.5130  -23.1135 O   0  0  0  0  0  0  0  0  0  0  0  0
   20.0296  -12.7601  -20.7234 C   0  0  0  0  0  0  0  0  0  0  0  0
   20.5411  -11.9727  -19.5568 C   0  0  0  0  0  0  0  0  0  0  0  0
   21.6718  -12.6493  -18.8519 C   0  0  2  0  0  0  0  0  0  0  0  0
   21.3581  -13.9342  -18.3095 N   0  0  0  0  0  0  0  0  0  0  0  0
   22.1556  -11.7597  -17.7311 C   0  0  0  0  0  0  0  0  0  0  0  0
   21.4545  -11.6249  -16.6952 O   0  0  0  0  0  0  0  0  0  0  0  0
   25.5271  -12.2622  -15.1671 C   0  0  0  0  0  0  0  0  0  0  0  0
   25.8070  -11.6230  -16.4794 C   0  0  0  0  0  0  0  0  0  0  0  0
   25.2870  -10.2004  -16.6115 C   0  0  2  0  0  0  0  0  0  0  0  0
   25.8724   -9.2979  -15.5872 C   0  0  0  0  0  0  0  0  0  0  0  0
   23.7737  -10.2008  -16.6793 C   0  0  2  0  0  0  0  0  0  0  0  0
   23.3843  -11.0731  -17.8221 N   0  0  0  0  0  0  0  0  0  0  0  0
   23.1624   -8.8820  -16.8889 C   0  0  0  0  0  0  0  0  0  0  0  0
   23.4456   -8.2496  -17.9656 O   0  0  0  0  0  0  0  0  0  0  0  0
   22.2805   -8.2567  -15.9988 N   0  0  0  0  0  0  0  0  0  0  0  0
   21.7168   -6.9352  -16.2720 C   0  0  1  0  0  0  0  0  0  0  0  0
   20.2960   -7.0210  -16.7077 C   0  0  0  0  0  0  0  0  0  0  0  0
   19.6192   -5.7331  -16.9529 C   0  0  0  0  0  0  0  0  0  0  0  0
   18.2556   -5.6288  -17.4689 C   0  0  0  0  0  0  0  0  0  0  0  0
   17.6726   -4.3282  -17.8826 C   0  0  0  0  0  0  0  0  0  0  0  0
   18.0285   -3.3581  -16.8107 N   0  0  0  0  0  0  0  0  0  0  0  0
   21.8051   -6.0926  -15.0085 C   0  0  0  0  0  0  0  0  0  0  0  0
   21.8352   -6.5651  -13.8674 O   0  0  0  0  0  0  0  0  0  0  0  0
   21.8523   -4.7262  -15.1969 O   0  0  0  0  0  0  0  0  0  0  0  0
  1  2  1  0
  2  3  2  0
  4  2  1  0
  4  5  1  0
  6  7  1  1
  6  5  1  0
  8  6  1  0
  9  8  2  0
 11 10  1  0
 12 13  1  1
 12 14  1  0
 12 11  1  0
 14 15  1  6
 15  8  1  0
 16 14  1  0
 16 17  2  0
 18 16  1  0
 19 18  1  0
 19 20  1  1
 21 20  1  0
 22 23  1  0
 22 21  1  0
 23 24  1  0
 25 27  1  0
 25 19  1  0
 26 25  2  0
M  END
$$$$
