QIK.pdb
     RDKit          3D

 27 26  0  0  1  0  0  0  0  0999 V2000
   22.2580   -9.7108  -13.1625 N   0  0  0  0  0  0  0  0  0  0  0  0
   21.3749   -8.6086  -13.0052 C   0  0  0  0  0  0  0  0  0  0  0  0
   21.2950   -8.0314  -11.8972 O   0  0  0  0  0  0  0  0  0  0  0  0
   20.5690   -8.1858  -14.1968 C   0  0  0  0  0  0  0  0  0  0  0  0
   19.1910   -7.8682  -13.7042 C   0  0  0  0  0  0  0  0  0  0  0  0
   18.3100   -9.0730  -13.6302 C   0  0  2  0  0  0  0  0  0  0  0  0
   17.9697   -9.6463  -14.8949 N   0  0  0  0  0  0  0  0  0  0  0  0
   17.0339   -8.7060  -12.9101 C   0  0  0  0  0  0  0  0  0  0  0  0
   16.0839   -8.1864  -13.5507 O   0  0  0  0  0  0  0  0  0  0  0  0
   14.3400  -12.2389  -10.7897 C   0  0  0  0  0  0  0  0  0  0  0  0
   14.7342  -10.9101  -11.3264 C   0  0  0  0  0  0  0  0  0  0  0  0
   15.0450   -9.8679  -10.2638 C   0  0  2  0  0  0  0  0  0  0  0  0
   13.9084   -9.6736   -9.3274 C   0  0  0  0  0  0  0  0  0  0  0  0
   15.5699   -8.6023  -10.9100 C   0  0  2  0  0  0  0  0  0  0  0  0
   16.8843   -8.9351  -11.5265 N   0  0  0  0  0  0  0  0  0  0  0  0
   15.7744   -7.4757   -9.9904 C   0  0  0  0  0  0  0  0  0  0  0  0
   16.7005   -7.5744   -9.1117 O   0  0  0  0  0  0  0  0  0  0  0  0
   15.0339   -6.2873  -10.0016 N   0  0  0  0  0  0  0  0  0  0  0  0
   15.2521   -5.2330   -9.0118 C   0  0  1  0  0  0  0  0  0  0  0  0
   14.8736   -3.8937   -9.5398 C   0  0  0  0  0  0  0  0  0  0  0  0
   14.9184   -2.7832   -8.5694 C   0  0  0  0  0  0  0  0  0  0  0  0
   14.5796   -1.4035   -8.9129 C   0  0  0  0  0  0  0  0  0  0  0  0
   14.7655   -0.2890   -7.9506 C   0  0  0  0  0  0  0  0  0  0  0  0
   14.4963    0.9617   -8.7124 N   0  0  0  0  0  0  0  0  0  0  0  0
   14.4200   -5.5397   -7.7758 C   0  0  0  0  0  0  0  0  0  0  0  0
   13.3141   -6.0894   -7.8103 O   0  0  0  0  0  0  0  0  0  0  0  0
   14.9726   -5.1641   -6.5682 O   0  0  0  0  0  0  0  0  0  0  0  0
  1  2  1  0
  2  3  2  0
  4  2  1  0
  4  5  1  0
  6  7  1  6
  6  5  1  0
  8  6  1  0
  9  8  2  0
 11 10  1  0
 12 13  1  6
 12 14  1  0
 12 11  1  0
 14 15  1  1
 15  8  1  0
 16 14  1  0
 16 17  2  0
 18 16  1  0
 19 18  1  0
 19 20  1  6
 21 20  1  0
 22 23  1  0
 22 21  1  0
 23 24  1  0
 25 27  1  0
 25 19  1  0
 26 25  2  0
M  END
$$$$
