QIK.pdb
     RDKit          3D

 27 26  0  0  1  0  0  0  0  0999 V2000
   21.7449  -21.3934  -10.8383 N   0  0  0  0  0  0  0  0  0  0  0  0
   21.7498  -21.4410   -9.4181 C   0  0  0  0  0  0  0  0  0  0  0  0
   20.8215  -22.0245   -8.8140 O   0  0  0  0  0  0  0  0  0  0  0  0
   22.8881  -20.7773   -8.7026 C   0  0  0  0  0  0  0  0  0  0  0  0
   23.7115  -20.0794   -9.7406 C   0  0  0  0  0  0  0  0  0  0  0  0
   24.9103  -20.8687  -10.1565 C   0  0  2  0  0  0  0  0  0  0  0  0
   26.0077  -20.8205   -9.2415 N   0  0  0  0  0  0  0  0  0  0  0  0
   25.3842  -20.3716  -11.5018 C   0  0  0  0  0  0  0  0  0  0  0  0
   26.0706  -19.3195  -11.5713 O   0  0  0  0  0  0  0  0  0  0  0  0
   27.9252  -22.1481  -16.5790 C   0  0  0  0  0  0  0  0  0  0  0  0
   27.0911  -21.1354  -15.8805 C   0  0  0  0  0  0  0  0  0  0  0  0
   26.5317  -21.5934  -14.5428 C   0  0  2  0  0  0  0  0  0  0  0  0
   25.9433  -22.9548  -14.6240 C   0  0  0  0  0  0  0  0  0  0  0  0
   25.6186  -20.5310  -13.9664 C   0  0  2  0  0  0  0  0  0  0  0  0
   25.0716  -21.0665  -12.6887 N   0  0  0  0  0  0  0  0  0  0  0  0
   24.4848  -20.1577  -14.8219 C   0  0  0  0  0  0  0  0  0  0  0  0
   23.4530  -20.9159  -14.8215 O   0  0  0  0  0  0  0  0  0  0  0  0
   24.4389  -19.0237  -15.6423 N   0  0  0  0  0  0  0  0  0  0  0  0
   23.2713  -18.7149  -16.4670 C   0  0  1  0  0  0  0  0  0  0  0  0
   23.0764  -17.2470  -16.6194 C   0  0  0  0  0  0  0  0  0  0  0  0
   21.8472  -16.8305  -17.3212 C   0  0  0  0  0  0  0  0  0  0  0  0
   20.5214  -16.8658  -16.7067 C   0  0  0  0  0  0  0  0  0  0  0  0
   19.3076  -16.4251  -17.4381 C   0  0  0  0  0  0  0  0  0  0  0  0
   18.1532  -16.7621  -16.5603 N   0  0  0  0  0  0  0  0  0  0  0  0
   23.4598  -19.3422  -17.8400 C   0  0  0  0  0  0  0  0  0  0  0  0
   24.5631  -19.5507  -18.3552 O   0  0  0  0  0  0  0  0  0  0  0  0
   22.3031  -19.6818  -18.5119 O   0  0  0  0  0  0  0  0  0  0  0  0
  1  2  1  0
  2  3  2  0
  4  2  1  0
  4  5  1  0
  6  7  1  1
  6  5  1  0
  8  6  1  0
  9  8  2  0
 11 10  1  0
 12 13  1  6
 12 14  1  0
 12 11  1  0
 14 15  1  1
 15  8  1  0
 16 14  1  0
 16 17  2  0
 18 16  1  0
 19 18  1  0
 19 20  1  6
 21 20  1  0
 22 23  1  0
 22 21  1  0
 23 24  1  0
 25 27  1  0
 25 19  1  0
 26 25  2  0
M  END
$$$$
