QIK.pdb
     RDKit          3D

 27 26  0  0  1  0  0  0  0  0999 V2000
   17.2868  -20.8119  -13.5089 N   0  0  0  0  0  0  0  0  0  0  0  0
   17.3803  -21.6890  -14.6230 C   0  0  0  0  0  0  0  0  0  0  0  0
   16.7970  -22.7962  -14.5911 O   0  0  0  0  0  0  0  0  0  0  0  0
   18.1879  -21.2347  -15.8017 C   0  0  0  0  0  0  0  0  0  0  0  0
   18.7352  -19.8823  -15.4636 C   0  0  0  0  0  0  0  0  0  0  0  0
   19.9664  -19.5447  -16.2402 C   0  0  2  0  0  0  0  0  0  0  0  0
   21.1120  -20.3397  -15.9247 N   0  0  0  0  0  0  0  0  0  0  0  0
   20.3111  -18.0923  -16.0091 C   0  0  0  0  0  0  0  0  0  0  0  0
   20.6410  -17.7053  -14.8584 O   0  0  0  0  0  0  0  0  0  0  0  0
   23.9970  -16.2962  -18.5538 C   0  0  0  0  0  0  0  0  0  0  0  0
   23.0050  -16.2726  -17.4472 C   0  0  0  0  0  0  0  0  0  0  0  0
   21.7937  -15.3905  -17.7049 C   0  0  2  0  0  0  0  0  0  0  0  0
   22.1527  -13.9495  -17.7353 C   0  0  0  0  0  0  0  0  0  0  0  0
   20.6705  -15.7539  -16.7557 C   0  0  2  0  0  0  0  0  0  0  0  0
   20.2706  -17.1555  -17.0627 N   0  0  0  0  0  0  0  0  0  0  0  0
   19.4734  -14.9095  -16.8598 C   0  0  0  0  0  0  0  0  0  0  0  0
   18.7664  -14.9933  -17.9240 O   0  0  0  0  0  0  0  0  0  0  0  0
   19.0355  -14.0149  -15.8755 N   0  0  0  0  0  0  0  0  0  0  0  0
   17.8380  -13.1949  -16.0560 C   0  0  1  0  0  0  0  0  0  0  0  0
   16.8442  -13.4239  -14.9717 C   0  0  0  0  0  0  0  0  0  0  0  0
   15.7541  -14.3670  -15.2866 C   0  0  0  0  0  0  0  0  0  0  0  0
   14.6235  -14.6134  -14.3936 C   0  0  0  0  0  0  0  0  0  0  0  0
   13.5308  -15.5506  -14.7543 C   0  0  0  0  0  0  0  0  0  0  0  0
   12.6836  -15.6831  -13.5371 N   0  0  0  0  0  0  0  0  0  0  0  0
   18.2434  -11.7287  -16.0652 C   0  0  0  0  0  0  0  0  0  0  0  0
   19.2988  -11.3040  -15.5837 O   0  0  0  0  0  0  0  0  0  0  0  0
   17.3491  -10.8594  -16.6562 O   0  0  0  0  0  0  0  0  0  0  0  0
  1  2  1  0
  2  3  2  0
  4  2  1  0
  4  5  1  0
  6  7  1  1
  6  5  1  0
  8  6  1  0
  9  8  2  0
 11 10  1  0
 12 13  1  1
 12 14  1  0
 12 11  1  0
 14 15  1  6
 15  8  1  0
 16 14  1  0
 16 17  2  0
 18 16  1  0
 19 18  1  0
 19 20  1  1
 21 20  1  0
 22 23  1  0
 22 21  1  0
 23 24  1  0
 25 27  1  0
 25 19  1  0
 26 25  2  0
M  END
$$$$
