QIK.pdb
     RDKit          3D

 27 26  0  0  1  0  0  0  0  0999 V2000
   16.8063  -23.5631   -7.0791 N   0  0  0  0  0  0  0  0  0  0  0  0
   17.5006  -24.2115   -8.1360 C   0  0  0  0  0  0  0  0  0  0  0  0
   17.8811  -23.5479   -9.1269 O   0  0  0  0  0  0  0  0  0  0  0  0
   17.7462  -25.6851   -8.0075 C   0  0  0  0  0  0  0  0  0  0  0  0
   17.2552  -26.0953   -6.6535 C   0  0  0  0  0  0  0  0  0  0  0  0
   17.9782  -27.2852   -6.1108 C   0  0  2  0  0  0  0  0  0  0  0  0
   17.8290  -28.4807   -6.8804 N   0  0  0  0  0  0  0  0  0  0  0  0
   17.4956  -27.5552   -4.7052 C   0  0  0  0  0  0  0  0  0  0  0  0
   16.4784  -28.2726   -4.5223 O   0  0  0  0  0  0  0  0  0  0  0  0
   19.3600  -29.4983    0.5177 C   0  0  0  0  0  0  0  0  0  0  0  0
   18.3692  -28.6425   -0.1859 C   0  0  0  0  0  0  0  0  0  0  0  0
   18.7276  -28.3175   -1.6274 C   0  0  2  0  0  0  0  0  0  0  0  0
   20.1277  -27.8386   -1.7568 C   0  0  0  0  0  0  0  0  0  0  0  0
   17.6783  -27.4097   -2.2354 C   0  0  2  0  0  0  0  0  0  0  0  0
   18.1656  -27.0168   -3.5869 N   0  0  0  0  0  0  0  0  0  0  0  0
   17.4077  -26.1810   -1.4779 C   0  0  0  0  0  0  0  0  0  0  0  0
   18.2783  -25.2429   -1.5183 O   0  0  0  0  0  0  0  0  0  0  0  0
   16.2589  -25.9483   -0.7116 N   0  0  0  0  0  0  0  0  0  0  0  0
   16.0080  -24.6585   -0.0695 C   0  0  1  0  0  0  0  0  0  0  0  0
   14.6561  -24.1311   -0.4010 C   0  0  0  0  0  0  0  0  0  0  0  0
   14.2598  -22.8926    0.2962 C   0  0  0  0  0  0  0  0  0  0  0  0
   12.9390  -22.2820    0.1585 C   0  0  0  0  0  0  0  0  0  0  0  0
   12.5766  -21.0314    0.8708 C   0  0  0  0  0  0  0  0  0  0  0  0
   11.1382  -20.7895    0.5717 N   0  0  0  0  0  0  0  0  0  0  0  0
   16.1256  -24.8289    1.4376 C   0  0  0  0  0  0  0  0  0  0  0  0
   16.3476  -23.8985    2.2195 O   0  0  0  0  0  0  0  0  0  0  0  0
   15.9680  -26.1147    1.9134 O   0  0  0  0  0  0  0  0  0  0  0  0
  1  2  1  0
  2  3  2  0
  4  2  1  0
  4  5  1  0
  6  7  1  6
  6  5  1  0
  8  6  1  0
  9  8  2  0
 11 10  1  0
 12 13  1  1
 12 14  1  0
 12 11  1  0
 14 15  1  6
 15  8  1  0
 16 14  1  0
 16 17  2  0
 18 16  1  0
 19 18  1  0
 19 20  1  1
 21 20  1  0
 22 23  1  0
 22 21  1  0
 23 24  1  0
 25 27  1  0
 25 19  1  0
 26 25  2  0
M  END
$$$$
