QIK.pdb
     RDKit          3D

 27 26  0  0  1  0  0  0  0  0999 V2000
   20.9692  -19.0948  -19.1280 N   0  0  0  0  0  0  0  0  0  0  0  0
   20.7358  -20.4424  -18.7422 C   0  0  0  0  0  0  0  0  0  0  0  0
   20.5355  -21.3127  -19.6194 O   0  0  0  0  0  0  0  0  0  0  0  0
   20.7416  -20.7585  -17.2765 C   0  0  0  0  0  0  0  0  0  0  0  0
   21.1365  -19.5049  -16.5588 C   0  0  0  0  0  0  0  0  0  0  0  0
   22.5361  -19.5521  -16.0371 C   0  0  2  0  0  0  0  0  0  0  0  0
   22.7453  -20.4711  -14.9622 N   0  0  0  0  0  0  0  0  0  0  0  0
   22.9351  -18.1712  -15.5731 C   0  0  0  0  0  0  0  0  0  0  0  0
   22.4541  -17.7086  -14.5066 O   0  0  0  0  0  0  0  0  0  0  0  0
   27.6835  -17.3775  -15.5273 C   0  0  0  0  0  0  0  0  0  0  0  0
   26.3480  -16.9594  -15.0265 C   0  0  0  0  0  0  0  0  0  0  0  0
   25.6744  -15.8768  -15.8549 C   0  0  2  0  0  0  0  0  0  0  0  0
   26.1859  -14.5230  -15.5204 C   0  0  0  0  0  0  0  0  0  0  0  0
   24.1687  -16.0298  -15.7906 C   0  0  2  0  0  0  0  0  0  0  0  0
   23.8409  -17.3848  -16.3150 N   0  0  0  0  0  0  0  0  0  0  0  0
   23.4118  -15.0462  -16.5757 C   0  0  0  0  0  0  0  0  0  0  0  0
   23.4459  -15.1379  -17.8524 O   0  0  0  0  0  0  0  0  0  0  0  0
   22.6429  -14.0088  -16.0341 N   0  0  0  0  0  0  0  0  0  0  0  0
   21.9557  -13.0346  -16.8812 C   0  0  1  0  0  0  0  0  0  0  0  0
   20.8364  -12.3690  -16.1600 C   0  0  0  0  0  0  0  0  0  0  0  0
   20.0750  -11.3706  -16.9348 C   0  0  0  0  0  0  0  0  0  0  0  0
   18.9079  -10.6660  -16.4077 C   0  0  0  0  0  0  0  0  0  0  0  0
   18.0633   -9.7988  -17.2663 C   0  0  0  0  0  0  0  0  0  0  0  0
   16.9250   -9.3587  -16.4134 N   0  0  0  0  0  0  0  0  0  0  0  0
   22.9579  -11.9833  -17.3335 C   0  0  0  0  0  0  0  0  0  0  0  0
   23.8735  -11.5553  -16.6230 O   0  0  0  0  0  0  0  0  0  0  0  0
   22.7960  -11.5095  -18.6196 O   0  0  0  0  0  0  0  0  0  0  0  0
  1  2  1  0
  2  3  2  0
  4  2  1  0
  4  5  1  0
  6  7  1  1
  6  5  1  0
  8  6  1  0
  9  8  2  0
 11 10  1  0
 12 13  1  1
 12 14  1  0
 12 11  1  0
 14 15  1  6
 15  8  1  0
 16 14  1  0
 16 17  2  0
 18 16  1  0
 19 18  1  0
 19 20  1  1
 21 20  1  0
 22 23  1  0
 22 21  1  0
 23 24  1  0
 25 27  1  0
 25 19  1  0
 26 25  2  0
M  END
$$$$
