QIK.pdb
     RDKit          3D

 27 26  0  0  1  0  0  0  0  0999 V2000
   29.5559  -18.2294  -17.9811 N   0  0  0  0  0  0  0  0  0  0  0  0
   28.2107  -18.5331  -18.3241 C   0  0  0  0  0  0  0  0  0  0  0  0
   27.9214  -18.8149  -19.5089 O   0  0  0  0  0  0  0  0  0  0  0  0
   27.1877  -18.4996  -17.2284 C   0  0  0  0  0  0  0  0  0  0  0  0
   26.8264  -19.9203  -16.9219 C   0  0  0  0  0  0  0  0  0  0  0  0
   27.7074  -20.5304  -15.8804 C   0  0  2  0  0  0  0  0  0  0  0  0
   28.5446  -21.5906  -16.3484 N   0  0  0  0  0  0  0  0  0  0  0  0
   26.8474  -21.0579  -14.7561 C   0  0  0  0  0  0  0  0  0  0  0  0
   26.1850  -22.1147  -14.9210 O   0  0  0  0  0  0  0  0  0  0  0  0
   29.0432  -21.1736  -10.1511 C   0  0  0  0  0  0  0  0  0  0  0  0
   28.1024  -21.5143  -11.2502 C   0  0  0  0  0  0  0  0  0  0  0  0
   26.7406  -20.8463  -11.1442 C   0  0  2  0  0  0  0  0  0  0  0  0
   26.0149  -21.2572   -9.9151 C   0  0  0  0  0  0  0  0  0  0  0  0
   25.9695  -21.0228  -12.4361 C   0  0  2  0  0  0  0  0  0  0  0  0
   26.7713  -20.3865  -13.5181 N   0  0  0  0  0  0  0  0  0  0  0  0
   24.6325  -20.4153  -12.4477 C   0  0  0  0  0  0  0  0  0  0  0  0
   24.5393  -19.1571  -12.2295 O   0  0  0  0  0  0  0  0  0  0  0  0
   23.4392  -21.1082  -12.6867 N   0  0  0  0  0  0  0  0  0  0  0  0
   22.1380  -20.4424  -12.6404 C   0  0  1  0  0  0  0  0  0  0  0  0
   21.3129  -20.7601  -13.8380 C   0  0  0  0  0  0  0  0  0  0  0  0
   21.0379  -19.6315  -14.7477 C   0  0  0  0  0  0  0  0  0  0  0  0
   20.1624  -19.7358  -15.9136 C   0  0  0  0  0  0  0  0  0  0  0  0
   19.9945  -18.6129  -16.8693 C   0  0  0  0  0  0  0  0  0  0  0  0
   19.0520  -19.0995  -17.9143 N   0  0  0  0  0  0  0  0  0  0  0  0
   21.4004  -20.8918  -11.3881 C   0  0  0  0  0  0  0  0  0  0  0  0
   21.7563  -21.8428  -10.6844 O   0  0  0  0  0  0  0  0  0  0  0  0
   20.2743  -20.1655  -11.0580 O   0  0  0  0  0  0  0  0  0  0  0  0
  1  2  1  0
  2  3  2  0
  4  2  1  0
  4  5  1  0
  6  7  1  6
  6  5  1  0
  8  6  1  0
  9  8  2  0
 11 10  1  0
 12 13  1  1
 12 14  1  0
 12 11  1  0
 14 15  1  6
 15  8  1  0
 16 14  1  0
 16 17  2  0
 18 16  1  0
 19 18  1  0
 19 20  1  6
 21 20  1  0
 22 23  1  0
 22 21  1  0
 23 24  1  0
 25 27  1  0
 25 19  1  0
 26 25  2  0
M  END
$$$$
