QIK.pdb
     RDKit          3D

 27 26  0  0  1  0  0  0  0  0999 V2000
   29.9160  -29.4263  -20.4704 N   0  0  0  0  0  0  0  0  0  0  0  0
   29.3469  -30.7031  -20.2148 C   0  0  0  0  0  0  0  0  0  0  0  0
   29.7278  -31.6953  -20.8762 O   0  0  0  0  0  0  0  0  0  0  0  0
   28.2997  -30.7979  -19.1459 C   0  0  0  0  0  0  0  0  0  0  0  0
   28.2413  -29.4632  -18.4693 C   0  0  0  0  0  0  0  0  0  0  0  0
   29.0945  -29.3967  -17.2442 C   0  0  2  0  0  0  0  0  0  0  0  0
   28.6829  -30.2565  -16.1787 N   0  0  0  0  0  0  0  0  0  0  0  0
   29.1133  -27.9750  -16.7343 C   0  0  0  0  0  0  0  0  0  0  0  0
   28.4516  -27.6719  -15.7081 O   0  0  0  0  0  0  0  0  0  0  0  0
   33.3914  -25.9237  -15.1920 C   0  0  0  0  0  0  0  0  0  0  0  0
   31.9791  -26.2292  -15.5403 C   0  0  0  0  0  0  0  0  0  0  0  0
   31.3556  -25.2712  -16.5430 C   0  0  2  0  0  0  0  0  0  0  0  0
   31.6162  -23.8519  -16.1909 C   0  0  0  0  0  0  0  0  0  0  0  0
   29.8988  -25.6220  -16.7654 C   0  0  2  0  0  0  0  0  0  0  0  0
   29.8615  -26.9743  -17.3885 N   0  0  0  0  0  0  0  0  0  0  0  0
   29.1663  -24.6999  -17.6429 C   0  0  0  0  0  0  0  0  0  0  0  0
   29.3646  -24.7822  -18.9052 O   0  0  0  0  0  0  0  0  0  0  0  0
   28.2542  -23.7315  -17.2055 N   0  0  0  0  0  0  0  0  0  0  0  0
   27.5531  -22.8534  -18.1415 C   0  0  1  0  0  0  0  0  0  0  0  0
   26.2320  -22.4215  -17.6086 C   0  0  0  0  0  0  0  0  0  0  0  0
   25.4586  -21.5066  -18.4699 C   0  0  0  0  0  0  0  0  0  0  0  0
   24.2166  -20.8634  -18.0456 C   0  0  0  0  0  0  0  0  0  0  0  0
   23.4575  -19.9580  -18.9437 C   0  0  0  0  0  0  0  0  0  0  0  0
   22.1833  -19.6509  -18.2372 N   0  0  0  0  0  0  0  0  0  0  0  0
   28.4145  -21.6274  -18.4042 C   0  0  0  0  0  0  0  0  0  0  0  0
   29.1566  -21.1146  -17.5601 O   0  0  0  0  0  0  0  0  0  0  0  0
   28.3295  -21.0912  -19.6731 O   0  0  0  0  0  0  0  0  0  0  0  0
  1  2  1  0
  2  3  2  0
  4  2  1  0
  4  5  1  0
  6  7  1  1
  6  5  1  0
  8  6  1  0
  9  8  2  0
 11 10  1  0
 12 13  1  1
 12 14  1  0
 12 11  1  0
 14 15  1  6
 15  8  1  0
 16 14  1  0
 16 17  2  0
 18 16  1  0
 19 18  1  0
 19 20  1  1
 21 20  1  0
 22 23  1  0
 22 21  1  0
 23 24  1  0
 25 27  1  0
 25 19  1  0
 26 25  2  0
M  END
$$$$
