QIK.pdb
     RDKit          3D

 27 26  0  0  1  0  0  0  0  0999 V2000
   24.2729  -16.2600  -15.9235 N   0  0  0  0  0  0  0  0  0  0  0  0
   25.1931  -15.5361  -16.7290 C   0  0  0  0  0  0  0  0  0  0  0  0
   24.7668  -14.7918  -17.6408 O   0  0  0  0  0  0  0  0  0  0  0  0
   26.6547  -15.7044  -16.4399 C   0  0  0  0  0  0  0  0  0  0  0  0
   26.7631  -16.4915  -15.1706 C   0  0  0  0  0  0  0  0  0  0  0  0
   27.5787  -17.7339  -15.3270 C   0  0  2  0  0  0  0  0  0  0  0  0
   27.9133  -18.0663  -16.6766 N   0  0  0  0  0  0  0  0  0  0  0  0
   26.8283  -18.8949  -14.7182 C   0  0  0  0  0  0  0  0  0  0  0  0
   26.1854  -19.6803  -15.4615 O   0  0  0  0  0  0  0  0  0  0  0  0
   29.3007  -20.8313  -10.6876 C   0  0  0  0  0  0  0  0  0  0  0  0
   28.4117  -20.9548  -11.8723 C   0  0  0  0  0  0  0  0  0  0  0  0
   26.9317  -20.7794  -11.5710 C   0  0  2  0  0  0  0  0  0  0  0  0
   26.3659  -21.9564  -10.8633 C   0  0  0  0  0  0  0  0  0  0  0  0
   26.1885  -20.3635  -12.8239 C   0  0  2  0  0  0  0  0  0  0  0  0
   26.8335  -19.1182  -13.3256 N   0  0  0  0  0  0  0  0  0  0  0  0
   24.7589  -20.0866  -12.6333 C   0  0  0  0  0  0  0  0  0  0  0  0
   24.4146  -19.3377  -11.6535 O   0  0  0  0  0  0  0  0  0  0  0  0
   23.7318  -20.5763  -13.4495 N   0  0  0  0  0  0  0  0  0  0  0  0
   22.3328  -20.2097  -13.2325 C   0  0  1  0  0  0  0  0  0  0  0  0
   21.6644  -19.8097  -14.5010 C   0  0  0  0  0  0  0  0  0  0  0  0
   20.2510  -19.4028  -14.3831 C   0  0  0  0  0  0  0  0  0  0  0  0
   19.3844  -19.1696  -15.5368 C   0  0  0  0  0  0  0  0  0  0  0  0
   17.9945  -18.6723  -15.3839 C   0  0  0  0  0  0  0  0  0  0  0  0
   17.4697  -18.4865  -16.7649 N   0  0  0  0  0  0  0  0  0  0  0  0
   21.6003  -21.4001  -12.6319 C   0  0  0  0  0  0  0  0  0  0  0  0
   20.6108  -21.3002  -11.8991 O   0  0  0  0  0  0  0  0  0  0  0  0
   22.1063  -22.6436  -12.9518 O   0  0  0  0  0  0  0  0  0  0  0  0
  1  2  1  0
  2  3  2  0
  4  2  1  0
  4  5  1  0
  6  7  1  6
  6  5  1  0
  8  6  1  0
  9  8  2  0
 11 10  1  0
 12 13  1  6
 12 14  1  0
 12 11  1  0
 14 15  1  1
 15  8  1  0
 16 14  1  0
 16 17  2  0
 18 16  1  0
 19 18  1  0
 19 20  1  6
 21 20  1  0
 22 23  1  0
 22 21  1  0
 23 24  1  0
 25 27  1  0
 25 19  1  0
 26 25  2  0
M  END
$$$$
