MRC.pdb
     RDKit          3D

 26 25  0  0  1  0  0  0  0  0999 V2000
   30.3415  -17.8781  -17.1338 C   0  0  0  0  0  0  0  0  0  0  0  0
   28.7284  -17.0875  -16.8959 S   0  0  0  0  0  0  0  0  0  0  0  0
   27.4503  -17.9636  -17.8372 C   0  0  0  0  0  0  0  0  0  0  0  0
   26.5990  -18.8317  -16.9383 C   0  0  0  0  0  0  0  0  0  0  0  0
   27.4315  -19.8458  -16.1849 C   0  0  2  0  0  0  0  0  0  0  0  0
   28.0814  -20.7719  -17.0762 N   0  0  0  0  0  0  0  0  0  0  0  0
   26.6274  -20.6035  -15.2033 C   0  0  0  0  0  0  0  0  0  0  0  0
   26.0465  -21.6412  -15.5663 O   0  0  0  0  0  0  0  0  0  0  0  0
   22.1861  -20.2205   -9.6418 N   0  0  0  0  0  0  0  0  0  0  0  0
   22.6658  -20.8729   -8.4717 C   0  0  0  0  0  0  0  0  0  0  0  0
   21.7990  -21.3147   -7.5917 N   0  0  0  0  0  0  0  0  0  0  0  0
   24.0511  -21.0564   -8.2345 N   0  0  0  0  0  0  0  0  0  0  0  0
   24.9923  -20.5845   -9.1938 C   0  0  0  0  0  0  0  0  0  0  0  0
   24.7015  -21.0623  -10.6023 C   0  0  0  0  0  0  0  0  0  0  0  0
   25.7491  -20.4896  -11.5178 C   0  0  0  0  0  0  0  0  0  0  0  0
   25.5383  -20.7851  -12.9679 C   0  0  2  0  0  0  0  0  0  0  0  0
   26.4988  -20.1696  -13.8329 N   0  0  0  0  0  0  0  0  0  0  0  0
   24.1297  -20.4936  -13.4067 C   0  0  0  0  0  0  0  0  0  0  0  0
   23.7202  -19.3075  -13.5065 O   0  0  0  0  0  0  0  0  0  0  0  0
   22.1251  -21.8353   -6.7602 N   0  0  0  0  0  0  0  0  0  0  0  0
   23.2528  -21.5696  -13.7114 C   0  0  2  0  0  0  0  0  0  0  0  0
   21.9113  -21.3094  -14.1943 C   0  0  0  0  0  0  0  0  0  0  0  0
   21.4004  -22.4392  -15.0556 S   0  0  0  0  0  0  0  0  0  0  0  0
   19.7120  -21.9946  -15.5673 C   0  0  0  0  0  0  0  0  0  0  0  0
   20.9582  -21.1476  -13.0667 O   0  0  0  0  0  0  0  0  0  0  0  0
   19.7569  -20.5004  -13.3118 O   0  0  0  0  0  0  0  0  0  0  0  0
  2  1  1  0
  3  4  1  0
  3  2  1  0
  4  5  1  0
  5  7  1  0
  5  6  1  6
  7  8  2  0
 10 12  1  0
 10  9  1  0
 11 10  2  0
 13 14  1  0
 13 12  1  0
 14 15  1  0
 16 15  1  1
 17  7  1  0
 17 16  1  0
 18 19  2  0
 18 16  1  0
 20 18  1  0
 21 20  1  0
 21 22  1  6
 23 22  1  0
 24 25  1  0
 24 21  1  0
 26 24  2  0
M  END
$$$$
