MRC.pdb
     RDKit          3D

 26 25  0  0  1  0  0  0  0  0999 V2000
   18.1352  -13.0981   13.7055 C   0  0  0  0  0  0  0  0  0  0  0  0
   18.1325  -14.5713   14.7608 S   0  0  0  0  0  0  0  0  0  0  0  0
   17.9763  -16.0703   13.7529 C   0  0  0  0  0  0  0  0  0  0  0  0
   18.7286  -15.9399   12.4478 C   0  0  0  0  0  0  0  0  0  0  0  0
   18.5323  -17.1515   11.5632 C   0  0  2  0  0  0  0  0  0  0  0  0
   19.3435  -18.2623   11.9904 N   0  0  0  0  0  0  0  0  0  0  0  0
   18.8262  -16.8559   10.1452 C   0  0  0  0  0  0  0  0  0  0  0  0
   19.9834  -17.0153    9.7192 O   0  0  0  0  0  0  0  0  0  0  0  0
   14.8721  -18.6681    2.3724 N   0  0  0  0  0  0  0  0  0  0  0  0
   16.2924  -18.7132    2.4476 C   0  0  0  0  0  0  0  0  0  0  0  0
   16.9399  -19.5727    1.6973 N   0  0  0  0  0  0  0  0  0  0  0  0
   17.0215  -17.8562    3.3094 N   0  0  0  0  0  0  0  0  0  0  0  0
   16.7121  -17.8360    4.6996 C   0  0  0  0  0  0  0  0  0  0  0  0
   17.4964  -16.7942    5.4719 C   0  0  0  0  0  0  0  0  0  0  0  0
   17.2005  -16.9740    6.9360 C   0  0  0  0  0  0  0  0  0  0  0  0
   18.0966  -16.2044    7.8519 C   0  0  2  0  0  0  0  0  0  0  0  0
   17.8037  -16.3866    9.2415 N   0  0  0  0  0  0  0  0  0  0  0  0
   18.1644  -14.7473    7.4859 C   0  0  0  0  0  0  0  0  0  0  0  0
   17.2337  -13.9611    7.8026 O   0  0  0  0  0  0  0  0  0  0  0  0
   17.9735  -19.5662    1.6768 N   0  0  0  0  0  0  0  0  0  0  0  0
   19.2917  -14.2541    6.7749 C   0  0  2  0  0  0  0  0  0  0  0  0
   19.3410  -12.8711    6.3444 C   0  0  0  0  0  0  0  0  0  0  0  0
   20.7618  -12.3960    6.1578 S   0  0  0  0  0  0  0  0  0  0  0  0
   20.6762  -10.6450    5.6710 C   0  0  0  0  0  0  0  0  0  0  0  0
   18.6402  -12.6885    5.0477 O   0  0  0  0  0  0  0  0  0  0  0  0
   18.1656  -11.4249    4.7315 O   0  0  0  0  0  0  0  0  0  0  0  0
  2  1  1  0
  3  4  1  0
  3  2  1  0
  4  5  1  0
  5  7  1  0
  5  6  1  1
  7  8  2  0
 10 12  1  0
 10  9  1  0
 11 10  2  0
 13 14  1  0
 13 12  1  0
 14 15  1  0
 16 15  1  6
 17  7  1  0
 17 16  1  0
 18 19  2  0
 18 16  1  0
 20 18  1  0
 21 20  1  0
 21 22  1  1
 23 22  1  0
 24 25  1  0
 24 21  1  0
 26 24  2  0
M  END
$$$$
