MRC.pdb
     RDKit          3D

 26 25  0  0  1  0  0  0  0  0999 V2000
   10.6280   -9.6105   -6.7931 C   0  0  0  0  0  0  0  0  0  0  0  0
   11.8073   -9.1260   -8.0808 S   0  0  0  0  0  0  0  0  0  0  0  0
   12.5703   -7.5329   -7.6721 C   0  0  0  0  0  0  0  0  0  0  0  0
   13.5826   -7.1205   -8.7168 C   0  0  0  0  0  0  0  0  0  0  0  0
   15.0014   -7.3601   -8.2492 C   0  0  2  0  0  0  0  0  0  0  0  0
   15.3886   -6.4311   -7.2188 N   0  0  0  0  0  0  0  0  0  0  0  0
   15.9722   -7.2809   -9.3607 C   0  0  0  0  0  0  0  0  0  0  0  0
   16.5655   -6.2090   -9.5731 O   0  0  0  0  0  0  0  0  0  0  0  0
   17.9049  -10.1804  -16.8590 N   0  0  0  0  0  0  0  0  0  0  0  0
   18.8364  -11.0684  -16.2517 C   0  0  0  0  0  0  0  0  0  0  0  0
   19.2059  -12.1439  -16.9058 N   0  0  0  0  0  0  0  0  0  0  0  0
   19.3724  -10.8208  -14.9633 N   0  0  0  0  0  0  0  0  0  0  0  0
   18.5033  -10.8142  -13.8348 C   0  0  0  0  0  0  0  0  0  0  0  0
   18.2910   -9.4317  -13.2514 C   0  0  0  0  0  0  0  0  0  0  0  0
   17.4365   -9.5677  -12.0207 C   0  0  0  0  0  0  0  0  0  0  0  0
   17.1018   -8.2752  -11.3485 C   0  0  2  0  0  0  0  0  0  0  0  0
   16.2496   -8.4166  -10.2068 N   0  0  0  0  0  0  0  0  0  0  0  0
   16.5680   -7.2550  -12.3159 C   0  0  0  0  0  0  0  0  0  0  0  0
   15.4039   -7.3599  -12.7834 O   0  0  0  0  0  0  0  0  0  0  0  0
   19.8760  -12.8050  -16.4784 N   0  0  0  0  0  0  0  0  0  0  0  0
   17.3877   -6.1615  -12.7058 C   0  0  2  0  0  0  0  0  0  0  0  0
   16.9482   -5.2464  -13.7402 C   0  0  0  0  0  0  0  0  0  0  0  0
   16.5768   -3.8985  -13.1705 S   0  0  0  0  0  0  0  0  0  0  0  0
   16.1429   -2.8293  -14.5772 C   0  0  0  0  0  0  0  0  0  0  0  0
   18.0178   -5.0215  -14.7459 O   0  0  0  0  0  0  0  0  0  0  0  0
   17.6440   -4.8133  -16.0646 O   0  0  0  0  0  0  0  0  0  0  0  0
  2  1  1  0
  3  4  1  0
  3  2  1  0
  4  5  1  0
  5  7  1  0
  5  6  1  1
  7  8  2  0
 10 12  1  0
 10  9  1  0
 11 10  2  0
 13 14  1  0
 13 12  1  0
 14 15  1  0
 16 15  1  6
 17  7  1  0
 17 16  1  0
 18 19  2  0
 18 16  1  0
 20 18  1  0
 21 20  1  0
 21 22  1  1
 23 22  1  0
 24 25  1  0
 24 21  1  0
 26 24  2  0
M  END
$$$$
