MRC.pdb
     RDKit          3D

 26 25  0  0  1  0  0  0  0  0999 V2000
   26.3623  -11.6190  -15.3833 C   0  0  0  0  0  0  0  0  0  0  0  0
   25.1853  -10.4546  -14.6467 S   0  0  0  0  0  0  0  0  0  0  0  0
   23.5055  -10.7952  -15.2379 C   0  0  0  0  0  0  0  0  0  0  0  0
   22.4926   -9.8858  -14.5794 C   0  0  0  0  0  0  0  0  0  0  0  0
   21.0871  -10.1676  -15.0631 C   0  0  2  0  0  0  0  0  0  0  0  0
   20.9270   -9.8451  -16.4577 N   0  0  0  0  0  0  0  0  0  0  0  0
   20.0730   -9.4330  -14.2780 C   0  0  0  0  0  0  0  0  0  0  0  0
   19.8954   -8.2221  -14.4978 O   0  0  0  0  0  0  0  0  0  0  0  0
   12.9199  -12.4795  -12.2324 N   0  0  0  0  0  0  0  0  0  0  0  0
   13.1733  -11.8469  -10.9832 C   0  0  0  0  0  0  0  0  0  0  0  0
   12.3090  -12.0000  -10.0082 N   0  0  0  0  0  0  0  0  0  0  0  0
   14.3313  -11.0588  -10.7672 N   0  0  0  0  0  0  0  0  0  0  0  0
   14.8754  -10.3065  -11.8474 C   0  0  0  0  0  0  0  0  0  0  0  0
   16.0504   -9.4399  -11.4407 C   0  0  0  0  0  0  0  0  0  0  0  0
   17.3171  -10.1704  -11.7947 C   0  0  0  0  0  0  0  0  0  0  0  0
   18.3483   -9.3333  -12.4804 C   0  0  2  0  0  0  0  0  0  0  0  0
   19.2829  -10.0854  -13.2618 N   0  0  0  0  0  0  0  0  0  0  0  0
   19.0453   -8.4004  -11.5287 C   0  0  0  0  0  0  0  0  0  0  0  0
   19.8973   -8.8356  -10.7106 O   0  0  0  0  0  0  0  0  0  0  0  0
   12.4570  -11.5194   -9.1050 N   0  0  0  0  0  0  0  0  0  0  0  0
   18.7376   -7.0133  -11.5542 C   0  0  2  0  0  0  0  0  0  0  0  0
   19.3442   -6.1088  -10.5980 C   0  0  0  0  0  0  0  0  0  0  0  0
   19.9923   -4.9287  -11.2811 S   0  0  0  0  0  0  0  0  0  0  0  0
   20.5278   -3.7855   -9.9708 C   0  0  0  0  0  0  0  0  0  0  0  0
   18.3324   -5.5712   -9.6529 O   0  0  0  0  0  0  0  0  0  0  0  0
   18.7666   -5.1148   -8.4179 O   0  0  0  0  0  0  0  0  0  0  0  0
  2  1  1  0
  3  4  1  0
  3  2  1  0
  4  5  1  0
  5  7  1  0
  5  6  1  6
  7  8  2  0
 10 12  1  0
 10  9  1  0
 11 10  2  0
 13 14  1  0
 13 12  1  0
 14 15  1  0
 16 15  1  1
 17  7  1  0
 17 16  1  0
 18 19  2  0
 18 16  1  0
 20 18  1  0
 21 20  1  0
 21 22  1  6
 23 22  1  0
 24 25  1  0
 24 21  1  0
 26 24  2  0
M  END
$$$$
