MRC.pdb
     RDKit          3D

 26 25  0  0  1  0  0  0  0  0999 V2000
   28.3051  -18.9371   -4.9333 C   0  0  0  0  0  0  0  0  0  0  0  0
   28.3797  -20.6634   -5.4792 S   0  0  0  0  0  0  0  0  0  0  0  0
   29.4166  -20.8142   -6.9587 C   0  0  0  0  0  0  0  0  0  0  0  0
   28.7071  -20.2902   -8.1869 C   0  0  0  0  0  0  0  0  0  0  0  0
   28.7258  -21.2952   -9.3176 C   0  0  2  0  0  0  0  0  0  0  0  0
   30.0636  -21.5433   -9.7902 N   0  0  0  0  0  0  0  0  0  0  0  0
   27.8838  -20.8665  -10.4541 C   0  0  0  0  0  0  0  0  0  0  0  0
   28.0062  -19.7117  -10.8985 O   0  0  0  0  0  0  0  0  0  0  0  0
   26.9118  -24.1568  -17.8984 N   0  0  0  0  0  0  0  0  0  0  0  0
   27.7960  -23.6236  -16.9192 C   0  0  0  0  0  0  0  0  0  0  0  0
   29.0654  -23.9510  -16.9661 N   0  0  0  0  0  0  0  0  0  0  0  0
   27.3409  -22.7515  -15.8988 N   0  0  0  0  0  0  0  0  0  0  0  0
   25.9540  -22.4381  -15.8152 C   0  0  0  0  0  0  0  0  0  0  0  0
   25.6089  -21.5638  -14.6263 C   0  0  0  0  0  0  0  0  0  0  0  0
   26.3852  -22.0608  -13.4372 C   0  0  0  0  0  0  0  0  0  0  0  0
   26.1298  -21.3118  -12.1691 C   0  0  2  0  0  0  0  0  0  0  0  0
   26.9223  -21.7545  -11.0620 N   0  0  0  0  0  0  0  0  0  0  0  0
   24.6673  -21.2677  -11.8217 C   0  0  0  0  0  0  0  0  0  0  0  0
   24.1827  -22.0669  -10.9785 O   0  0  0  0  0  0  0  0  0  0  0  0
   29.7206  -23.5869  -16.2540 N   0  0  0  0  0  0  0  0  0  0  0  0
   23.8245  -20.3132  -12.4529 C   0  0  2  0  0  0  0  0  0  0  0  0
   22.4225  -20.2225  -12.0972 C   0  0  0  0  0  0  0  0  0  0  0  0
   21.8484  -18.8679  -12.4362 S   0  0  0  0  0  0  0  0  0  0  0  0
   20.1373  -18.8472  -11.8182 C   0  0  0  0  0  0  0  0  0  0  0  0
   21.6187  -21.2376  -12.8247 O   0  0  0  0  0  0  0  0  0  0  0  0
   20.6040  -21.8856  -12.1372 O   0  0  0  0  0  0  0  0  0  0  0  0
  2  1  1  0
  3  4  1  0
  3  2  1  0
  4  5  1  0
  5  7  1  0
  5  6  1  6
  7  8  2  0
 10 12  1  0
 10  9  1  0
 11 10  2  0
 13 14  1  0
 13 12  1  0
 14 15  1  0
 16 15  1  6
 17  7  1  0
 17 16  1  0
 18 19  2  0
 18 16  1  0
 20 18  1  0
 21 20  1  0
 21 22  1  6
 23 22  1  0
 24 25  1  0
 24 21  1  0
 26 24  2  0
M  END
$$$$
