MRC.pdb
     RDKit          3D

 26 25  0  0  1  0  0  0  0  0999 V2000
   26.7034  -16.6691  -16.1948 C   0  0  0  0  0  0  0  0  0  0  0  0
   28.3325  -17.3243  -15.7472 S   0  0  0  0  0  0  0  0  0  0  0  0
   28.1893  -19.0399  -15.1788 C   0  0  0  0  0  0  0  0  0  0  0  0
   26.7610  -19.3877  -14.8247 C   0  0  0  0  0  0  0  0  0  0  0  0
   26.6450  -20.7925  -14.2752 C   0  0  2  0  0  0  0  0  0  0  0  0
   26.9738  -21.7835  -15.2675 N   0  0  0  0  0  0  0  0  0  0  0  0
   25.2938  -21.0702  -13.7446 C   0  0  0  0  0  0  0  0  0  0  0  0
   24.4259  -21.5322  -14.5057 O   0  0  0  0  0  0  0  0  0  0  0  0
   20.5616  -22.7166   -7.0709 N   0  0  0  0  0  0  0  0  0  0  0  0
   19.7137  -22.8267   -8.2084 C   0  0  0  0  0  0  0  0  0  0  0  0
   18.4999  -23.2988   -8.0510 N   0  0  0  0  0  0  0  0  0  0  0  0
   20.1464  -22.4407   -9.5017 N   0  0  0  0  0  0  0  0  0  0  0  0
   21.5408  -22.3131   -9.7625 C   0  0  0  0  0  0  0  0  0  0  0  0
   21.9763  -20.8810  -10.0000 C   0  0  0  0  0  0  0  0  0  0  0  0
   23.4086  -20.8963  -10.4604 C   0  0  0  0  0  0  0  0  0  0  0  0
   23.5873  -20.8298  -11.9430 C   0  0  2  0  0  0  0  0  0  0  0  0
   24.9555  -20.8188  -12.3644 N   0  0  0  0  0  0  0  0  0  0  0  0
   22.8087  -19.6992  -12.5574 C   0  0  0  0  0  0  0  0  0  0  0  0
   22.9842  -18.5139  -12.1716 O   0  0  0  0  0  0  0  0  0  0  0  0
   17.8766  -23.4073   -8.8685 N   0  0  0  0  0  0  0  0  0  0  0  0
   21.8652  -19.9735  -13.5841 C   0  0  2  0  0  0  0  0  0  0  0  0
   21.0553  -18.9084  -14.1409 C   0  0  0  0  0  0  0  0  0  0  0  0
   21.1433  -18.8711  -15.6476 S   0  0  0  0  0  0  0  0  0  0  0  0
   22.8807  -18.5334  -16.0693 C   0  0  0  0  0  0  0  0  0  0  0  0
   19.6236  -19.0829  -13.7861 O   0  0  0  0  0  0  0  0  0  0  0  0
   18.7649  -18.0121  -13.9812 O   0  0  0  0  0  0  0  0  0  0  0  0
  2  1  1  0
  3  4  1  0
  3  2  1  0
  4  5  1  0
  5  7  1  0
  5  6  1  6
  7  8  2  0
 10 12  1  0
 10  9  1  0
 11 10  2  0
 13 14  1  0
 13 12  1  0
 14 15  1  0
 16 15  1  1
 17  7  1  0
 17 16  1  0
 18 19  2  0
 18 16  1  0
 20 18  1  0
 21 20  1  0
 21 22  1  6
 23 22  1  0
 24 25  1  0
 24 21  1  0
 26 24  2  0
M  END
$$$$
