MRC.pdb
     RDKit          3D

 26 25  0  0  1  0  0  0  0  0999 V2000
   20.0580  -25.3054  -14.4865 C   0  0  0  0  0  0  0  0  0  0  0  0
   21.3333  -26.5907  -14.5590 S   0  0  0  0  0  0  0  0  0  0  0  0
   22.9841  -25.8506  -14.4397 C   0  0  0  0  0  0  0  0  0  0  0  0
   22.9331  -24.4877  -13.7869 C   0  0  0  0  0  0  0  0  0  0  0  0
   24.2654  -23.7756  -13.8691 C   0  0  2  0  0  0  0  0  0  0  0  0
   25.0160  -23.9033  -12.6464 N   0  0  0  0  0  0  0  0  0  0  0  0
   24.1086  -22.3419  -14.1921 C   0  0  0  0  0  0  0  0  0  0  0  0
   24.1278  -21.5066  -13.2712 O   0  0  0  0  0  0  0  0  0  0  0  0
   28.9053  -22.3774  -16.2930 N   0  0  0  0  0  0  0  0  0  0  0  0
   29.0762  -21.5980  -17.4713 C   0  0  0  0  0  0  0  0  0  0  0  0
   29.6895  -22.1315  -18.5008 N   0  0  0  0  0  0  0  0  0  0  0  0
   28.6022  -20.2652  -17.5595 N   0  0  0  0  0  0  0  0  0  0  0  0
   27.6231  -19.8092  -16.6310 C   0  0  0  0  0  0  0  0  0  0  0  0
   26.3107  -20.5609  -16.7283 C   0  0  0  0  0  0  0  0  0  0  0  0
   25.3096  -19.8742  -15.8396 C   0  0  0  0  0  0  0  0  0  0  0  0
   23.9456  -20.4858  -15.8486 C   0  0  2  0  0  0  0  0  0  0  0  0
   23.9336  -21.8860  -15.5500 N   0  0  0  0  0  0  0  0  0  0  0  0
   23.1972  -20.1830  -17.1175 C   0  0  0  0  0  0  0  0  0  0  0  0
   23.4528  -20.8090  -18.1793 O   0  0  0  0  0  0  0  0  0  0  0  0
   29.8482  -21.5723  -19.3557 N   0  0  0  0  0  0  0  0  0  0  0  0
   22.1913  -19.1792  -17.1163 C   0  0  1  0  0  0  0  0  0  0  0  0
   21.4121  -18.9189  -18.3103 C   0  0  0  0  0  0  0  0  0  0  0  0
   20.1371  -18.1756  -17.9924 S   0  0  0  0  0  0  0  0  0  0  0  0
   19.3138  -19.0850  -16.6487 C   0  0  0  0  0  0  0  0  0  0  0  0
   22.1762  -18.0915  -19.2785 O   0  0  0  0  0  0  0  0  0  0  0  0
   21.6493  -17.9149  -20.5487 O   0  0  0  0  0  0  0  0  0  0  0  0
  2  1  1  0
  3  4  1  0
  3  2  1  0
  4  5  1  0
  5  7  1  0
  5  6  1  1
  7  8  2  0
 10 12  1  0
 10  9  1  0
 11 10  2  0
 13 14  1  0
 13 12  1  0
 14 15  1  0
 16 15  1  6
 17  7  1  0
 17 16  1  0
 18 19  2  0
 18 16  1  0
 20 18  1  0
 21 20  1  0
 21 22  1  6
 23 22  1  0
 24 25  1  0
 24 21  1  0
 26 24  2  0
M  END
$$$$
