MRC.pdb
     RDKit          3D

 26 25  0  0  1  0  0  0  0  0999 V2000
   29.6980  -20.0953   -7.0059 C   0  0  0  0  0  0  0  0  0  0  0  0
   28.0448  -19.5614   -6.4904 S   0  0  0  0  0  0  0  0  0  0  0  0
   26.7799  -20.6520   -7.1957 C   0  0  0  0  0  0  0  0  0  0  0  0
   26.1350  -20.0341   -8.4159 C   0  0  0  0  0  0  0  0  0  0  0  0
   26.5460  -20.7429   -9.6877 C   0  0  2  0  0  0  0  0  0  0  0  0
   27.9696  -20.6810   -9.8980 N   0  0  0  0  0  0  0  0  0  0  0  0
   25.8581  -20.1941  -10.8751 C   0  0  0  0  0  0  0  0  0  0  0  0
   25.9133  -18.9721  -11.0978 O   0  0  0  0  0  0  0  0  0  0  0  0
   28.6205  -20.0970  -17.8422 N   0  0  0  0  0  0  0  0  0  0  0  0
   28.4117  -21.1415  -16.8985 C   0  0  0  0  0  0  0  0  0  0  0  0
   28.8557  -22.3443  -17.1758 N   0  0  0  0  0  0  0  0  0  0  0  0
   27.7388  -20.9153  -15.6719 N   0  0  0  0  0  0  0  0  0  0  0  0
   27.3592  -19.5889  -15.3178 C   0  0  0  0  0  0  0  0  0  0  0  0
   26.5674  -19.5175  -14.0275 C   0  0  0  0  0  0  0  0  0  0  0  0
   25.3870  -20.4423  -14.1494 C   0  0  0  0  0  0  0  0  0  0  0  0
   24.5008  -20.4835  -12.9464 C   0  0  2  0  0  0  0  0  0  0  0  0
   25.1232  -21.0409  -11.7837 N   0  0  0  0  0  0  0  0  0  0  0  0
   23.1802  -21.1415  -13.2377 C   0  0  0  0  0  0  0  0  0  0  0  0
   23.1158  -22.3760  -13.4749 O   0  0  0  0  0  0  0  0  0  0  0  0
   28.7188  -23.1151  -16.5006 N   0  0  0  0  0  0  0  0  0  0  0  0
   21.9933  -20.3599  -13.2450 C   0  0  2  0  0  0  0  0  0  0  0  0
   20.7105  -20.9752  -13.5215 C   0  0  0  0  0  0  0  0  0  0  0  0
   19.7118  -20.6984  -12.4237 S   0  0  0  0  0  0  0  0  0  0  0  0
   19.7751  -18.9115  -12.0870 C   0  0  0  0  0  0  0  0  0  0  0  0
   20.1304  -20.4582  -14.7872 O   0  0  0  0  0  0  0  0  0  0  0  0
   20.7807  -19.4150  -15.4282 O   0  0  0  0  0  0  0  0  0  0  0  0
  2  1  1  0
  3  4  1  0
  3  2  1  0
  4  5  1  0
  5  7  1  0
  5  6  1  6
  7  8  2  0
 10 12  1  0
 10  9  1  0
 11 10  2  0
 13 14  1  0
 13 12  1  0
 14 15  1  0
 16 15  1  6
 17  7  1  0
 17 16  1  0
 18 19  2  0
 18 16  1  0
 20 18  1  0
 21 20  1  0
 21 22  1  1
 23 22  1  0
 24 25  1  0
 24 21  1  0
 26 24  2  0
M  END
$$$$
