MRC.pdb
     RDKit          3D

 26 25  0  0  1  0  0  0  0  0999 V2000
   32.1279  -21.5500  -10.5986 C   0  0  0  0  0  0  0  0  0  0  0  0
   31.2609  -22.0095   -9.0752 S   0  0  0  0  0  0  0  0  0  0  0  0
   29.7978  -20.9647   -8.8409 C   0  0  0  0  0  0  0  0  0  0  0  0
   29.0136  -20.8156  -10.1251 C   0  0  0  0  0  0  0  0  0  0  0  0
   27.8408  -21.7697  -10.1809 C   0  0  2  0  0  0  0  0  0  0  0  0
   28.2691  -23.1448  -10.1622 N   0  0  0  0  0  0  0  0  0  0  0  0
   26.9977  -21.5426  -11.3732 C   0  0  0  0  0  0  0  0  0  0  0  0
   27.1974  -22.2209  -12.3960 O   0  0  0  0  0  0  0  0  0  0  0  0
   19.0793  -20.7217  -11.2635 N   0  0  0  0  0  0  0  0  0  0  0  0
   19.6634  -21.6201  -12.1999 C   0  0  0  0  0  0  0  0  0  0  0  0
   18.9725  -22.6636  -12.5930 N   0  0  0  0  0  0  0  0  0  0  0  0
   20.9676  -21.4161  -12.7158 N   0  0  0  0  0  0  0  0  0  0  0  0
   21.3758  -20.1019  -13.0831 C   0  0  0  0  0  0  0  0  0  0  0  0
   22.8317  -20.0211  -13.4960 C   0  0  0  0  0  0  0  0  0  0  0  0
   23.6791  -20.3144  -12.2880 C   0  0  0  0  0  0  0  0  0  0  0  0
   25.1496  -20.3563  -12.5536 C   0  0  2  0  0  0  0  0  0  0  0  0
   25.9474  -20.5529  -11.3812 N   0  0  0  0  0  0  0  0  0  0  0  0
   25.6158  -19.1680  -13.3488 C   0  0  0  0  0  0  0  0  0  0  0  0
   26.0623  -18.1429  -12.7706 O   0  0  0  0  0  0  0  0  0  0  0  0
   19.3850  -23.3355  -13.2617 N   0  0  0  0  0  0  0  0  0  0  0  0
   25.5509  -19.2042  -14.7680 C   0  0  2  0  0  0  0  0  0  0  0  0
   26.3684  -18.3102  -15.5636 C   0  0  0  0  0  0  0  0  0  0  0  0
   27.8410  -18.5782  -15.3664 S   0  0  0  0  0  0  0  0  0  0  0  0
   28.7411  -17.3843  -16.4031 C   0  0  0  0  0  0  0  0  0  0  0  0
   26.0807  -18.4681  -17.0121 O   0  0  0  0  0  0  0  0  0  0  0  0
   26.2628  -17.3709  -17.8398 O   0  0  0  0  0  0  0  0  0  0  0  0
  2  1  1  0
  3  4  1  0
  3  2  1  0
  4  5  1  0
  5  7  1  0
  5  6  1  6
  7  8  2  0
 10 12  1  0
 10  9  1  0
 11 10  2  0
 13 14  1  0
 13 12  1  0
 14 15  1  0
 16 15  1  1
 17  7  1  0
 17 16  1  0
 18 19  2  0
 18 16  1  0
 20 18  1  0
 21 20  1  0
 21 22  1  1
 23 22  1  0
 24 25  1  0
 24 21  1  0
 26 24  2  0
M  END
$$$$
