MRC.pdb
     RDKit          3D

 26 25  0  0  1  0  0  0  0  0999 V2000
   34.0166  -21.6070  -12.2468 C   0  0  0  0  0  0  0  0  0  0  0  0
   34.6950  -23.1895  -11.6817 S   0  0  0  0  0  0  0  0  0  0  0  0
   34.3573  -24.4918  -12.8970 C   0  0  0  0  0  0  0  0  0  0  0  0
   33.3020  -24.0609  -13.8904 C   0  0  0  0  0  0  0  0  0  0  0  0
   33.0845  -25.1027  -14.9658 C   0  0  2  0  0  0  0  0  0  0  0  0
   34.3076  -25.4210  -15.6568 N   0  0  0  0  0  0  0  0  0  0  0  0
   32.0692  -24.6776  -15.9520 C   0  0  0  0  0  0  0  0  0  0  0  0
   32.4407  -24.2022  -17.0392 O   0  0  0  0  0  0  0  0  0  0  0  0
   25.9988  -28.8181  -17.0182 N   0  0  0  0  0  0  0  0  0  0  0  0
   25.8090  -27.5241  -17.5790 C   0  0  0  0  0  0  0  0  0  0  0  0
   24.6180  -26.9770  -17.5220 N   0  0  0  0  0  0  0  0  0  0  0  0
   26.8703  -26.8148  -18.1949 N   0  0  0  0  0  0  0  0  0  0  0  0
   28.1603  -27.4141  -18.2693 C   0  0  0  0  0  0  0  0  0  0  0  0
   29.2834  -26.4632  -17.9071 C   0  0  0  0  0  0  0  0  0  0  0  0
   28.7072  -25.3530  -17.0712 C   0  0  0  0  0  0  0  0  0  0  0  0
   29.6981  -24.3220  -16.6359 C   0  0  2  0  0  0  0  0  0  0  0  0
   30.6562  -24.8002  -15.6855 N   0  0  0  0  0  0  0  0  0  0  0  0
   29.0316  -23.0591  -16.1640 C   0  0  0  0  0  0  0  0  0  0  0  0
   28.4825  -23.0064  -15.0324 O   0  0  0  0  0  0  0  0  0  0  0  0
   24.4465  -26.0622  -17.9720 N   0  0  0  0  0  0  0  0  0  0  0  0
   29.0223  -21.9139  -17.0054 C   0  0  2  0  0  0  0  0  0  0  0  0
   28.4249  -20.6739  -16.5516 C   0  0  0  0  0  0  0  0  0  0  0  0
   29.1372  -19.4710  -17.1216 S   0  0  0  0  0  0  0  0  0  0  0  0
   30.2416  -20.0805  -18.4328 C   0  0  0  0  0  0  0  0  0  0  0  0
   27.0016  -20.5820  -16.9660 O   0  0  0  0  0  0  0  0  0  0  0  0
   26.2319  -19.5543  -16.4432 O   0  0  0  0  0  0  0  0  0  0  0  0
  2  1  1  0
  3  4  1  0
  3  2  1  0
  4  5  1  0
  5  7  1  0
  5  6  1  6
  7  8  2  0
 10 12  1  0
 10  9  1  0
 11 10  2  0
 13 14  1  0
 13 12  1  0
 14 15  1  0
 16 15  1  1
 17  7  1  0
 17 16  1  0
 18 19  2  0
 18 16  1  0
 20 18  1  0
 21 20  1  0
 21 22  1  6
 23 22  1  0
 24 25  1  0
 24 21  1  0
 26 24  2  0
M  END
$$$$
