GSE.pdb
     RDKit          3D

 20 19  0  0  1  0  0  0  0  0999 V2000
    7.2362  -13.2560   18.8449 N   0  0  0  0  0  0  0  0  0  0  0  0
    8.5760  -12.8595   19.1868 C   0  0  0  0  0  0  0  0  0  0  0  0
    9.4414  -14.0555   19.3437 C   0  0  0  0  0  0  0  0  0  0  0  0
    8.9026  -15.2010   19.2815 O   0  0  0  0  0  0  0  0  0  0  0  0
   13.5091  -14.2332   18.5721 O   0  0  0  0  0  0  0  0  0  0  0  0
   12.6393  -15.2990   18.5846 C   0  0  0  0  0  0  0  0  0  0  0  0
   11.6359  -15.1915   19.7393 C   0  0  2  0  0  0  0  0  0  0  0  0
   10.8444  -13.9972   19.5607 N   0  0  0  0  0  0  0  0  0  0  0  0
   12.3601  -15.2202   21.0146 C   0  0  0  0  0  0  0  0  0  0  0  0
   12.8397  -14.1094   21.4125 O   0  0  0  0  0  0  0  0  0  0  0  0
   12.5650  -16.3470   21.8180 N   0  0  0  0  0  0  0  0  0  0  0  0
   13.2888  -16.2500   23.0949 C   0  0  1  0  0  0  0  0  0  0  0  0
   12.8622  -17.4197   23.9125 C   0  0  0  0  0  0  0  0  0  0  0  0
   11.4124  -17.5026   24.2338 C   0  0  0  0  0  0  0  0  0  0  0  0
   10.9718  -18.7232   24.9181 C   0  0  0  0  0  0  0  0  0  0  0  0
   11.0741  -19.8197   24.3407 O   0  0  0  0  0  0  0  0  0  0  0  0
   14.7295  -16.2147   22.8062 C   0  0  0  0  0  0  0  0  0  0  0  0
   15.2765  -16.4186   21.5458 O   0  0  0  0  0  0  0  0  0  0  0  0
   10.4503  -18.6675   26.1816 O   0  0  0  0  0  0  0  0  0  0  0  0
   15.5662  -15.9896   23.7221 O   0  0  0  0  0  0  0  0  0  0  0  0
  2  1  1  0
  3  2  1  0
  4  3  2  0
  6  5  1  0
  7  6  1  6
  7  8  1  0
  8  3  1  0
  9 11  1  0
  9  7  1  0
 10  9  2  0
 12 17  1  0
 12 11  1  0
 13 14  1  0
 12 13  1  1
 14 15  1  0
 15 16  2  0
 17 18  1  0
 19 15  1  0
 20 17  2  0
M  END
$$$$
