GSE.pdb
     RDKit          3D

 20 19  0  0  1  0  0  0  0  0999 V2000
    8.7104  -14.8627   13.9905 N   0  0  0  0  0  0  0  0  0  0  0  0
    7.9357  -15.0028   15.1944 C   0  0  0  0  0  0  0  0  0  0  0  0
    8.6565  -14.3975   16.3424 C   0  0  0  0  0  0  0  0  0  0  0  0
    9.8852  -14.1195   16.2031 O   0  0  0  0  0  0  0  0  0  0  0  0
    7.0463  -14.0698   20.2500 O   0  0  0  0  0  0  0  0  0  0  0  0
    7.8349  -13.0522   19.7651 C   0  0  0  0  0  0  0  0  0  0  0  0
    8.8099  -13.5584   18.6951 C   0  0  2  0  0  0  0  0  0  0  0  0
    8.0526  -14.1083   17.5956 N   0  0  0  0  0  0  0  0  0  0  0  0
    9.7348  -14.5230   19.3000 C   0  0  0  0  0  0  0  0  0  0  0  0
    9.3986  -15.7489   19.2196 O   0  0  0  0  0  0  0  0  0  0  0  0
   10.9361  -14.2148   19.9474 N   0  0  0  0  0  0  0  0  0  0  0  0
   11.7353  -15.2591   20.6065 C   0  0  1  0  0  0  0  0  0  0  0  0
   13.1568  -14.8235   20.5164 C   0  0  0  0  0  0  0  0  0  0  0  0
   13.7925  -14.9299   19.1760 C   0  0  0  0  0  0  0  0  0  0  0  0
   15.1668  -14.4272   19.0719 C   0  0  0  0  0  0  0  0  0  0  0  0
   15.4764  -13.6828   18.1253 O   0  0  0  0  0  0  0  0  0  0  0  0
   11.2431  -15.4159   21.9825 C   0  0  0  0  0  0  0  0  0  0  0  0
   10.2412  -14.6355   22.5451 O   0  0  0  0  0  0  0  0  0  0  0  0
   16.1091  -14.7689   20.0030 O   0  0  0  0  0  0  0  0  0  0  0  0
   11.7249  -16.2979   22.7440 O   0  0  0  0  0  0  0  0  0  0  0  0
  2  1  1  0
  3  2  1  0
  4  3  2  0
  6  5  1  0
  7  6  1  1
  7  8  1  0
  8  3  1  0
  9 11  1  0
  9  7  1  0
 10  9  2  0
 12 17  1  0
 12 11  1  0
 13 14  1  0
 12 13  1  1
 14 15  1  0
 15 16  2  0
 17 18  1  0
 19 15  1  0
 20 17  2  0
M  END
$$$$
