GSE.pdb
     RDKit          3D

 20 19  0  0  1  0  0  0  0  0999 V2000
    7.8676  -15.9114   18.9142 N   0  0  0  0  0  0  0  0  0  0  0  0
    7.0965  -15.6951   20.1091 C   0  0  0  0  0  0  0  0  0  0  0  0
    7.9760  -15.2302   21.2110 C   0  0  0  0  0  0  0  0  0  0  0  0
    9.2294  -15.2337   21.0233 O   0  0  0  0  0  0  0  0  0  0  0  0
    6.5236  -14.3691   25.0436 O   0  0  0  0  0  0  0  0  0  0  0  0
    7.6141  -13.6504   24.6116 C   0  0  0  0  0  0  0  0  0  0  0  0
    8.3999  -14.4131   23.5380 C   0  0  2  0  0  0  0  0  0  0  0  0
    7.4988  -14.7789   22.4709 N   0  0  0  0  0  0  0  0  0  0  0  0
    9.0663  -15.5661   24.1530 C   0  0  0  0  0  0  0  0  0  0  0  0
    8.4227  -16.6650   24.1284 O   0  0  0  0  0  0  0  0  0  0  0  0
   10.3293  -15.5606   24.7548 N   0  0  0  0  0  0  0  0  0  0  0  0
   10.9407  -16.8025   25.2526 C   0  0  1  0  0  0  0  0  0  0  0  0
   12.3851  -16.7353   24.8952 C   0  0  0  0  0  0  0  0  0  0  0  0
   12.7133  -16.9000   23.4539 C   0  0  0  0  0  0  0  0  0  0  0  0
   14.1263  -16.7429   23.0918 C   0  0  0  0  0  0  0  0  0  0  0  0
   14.9542  -16.4460   23.9707 O   0  0  0  0  0  0  0  0  0  0  0  0
   10.6849  -16.8949   26.6970 C   0  0  0  0  0  0  0  0  0  0  0  0
   10.0028  -15.9325   27.4304 O   0  0  0  0  0  0  0  0  0  0  0  0
   14.5411  -16.9186   21.8001 O   0  0  0  0  0  0  0  0  0  0  0  0
   11.0872  -17.8879   27.3617 O   0  0  0  0  0  0  0  0  0  0  0  0
  2  1  1  0
  3  2  1  0
  4  3  2  0
  6  5  1  0
  7  6  1  1
  7  8  1  0
  8  3  1  0
  9 11  1  0
  9  7  1  0
 10  9  2  0
 12 17  1  0
 12 11  1  0
 13 14  1  0
 12 13  1  1
 14 15  1  0
 15 16  2  0
 17 18  1  0
 19 15  1  0
 20 17  2  0
M  END
$$$$
