GSE.pdb
     RDKit          3D

 20 19  0  0  1  0  0  0  0  0999 V2000
    8.9459  -17.1115   17.7236 N   0  0  0  0  0  0  0  0  0  0  0  0
    7.8512  -16.7329   18.5763 C   0  0  0  0  0  0  0  0  0  0  0  0
    8.3635  -16.1500   19.8418 C   0  0  0  0  0  0  0  0  0  0  0  0
    9.6106  -16.1945   20.0638 O   0  0  0  0  0  0  0  0  0  0  0  0
    7.4257  -13.7613   24.0026 O   0  0  0  0  0  0  0  0  0  0  0  0
    6.9736  -14.2590   22.8023 C   0  0  0  0  0  0  0  0  0  0  0  0
    8.0909  -14.9768   22.0355 C   0  0  2  0  0  0  0  0  0  0  0  0
    7.5394  -15.5414   20.8264 N   0  0  0  0  0  0  0  0  0  0  0  0
    8.7130  -15.9771   22.9095 C   0  0  0  0  0  0  0  0  0  0  0  0
    8.0627  -17.0598   23.0749 O   0  0  0  0  0  0  0  0  0  0  0  0
    9.9410  -15.8443   23.5665 N   0  0  0  0  0  0  0  0  0  0  0  0
   10.4958  -16.9426   24.3725 C   0  0  1  0  0  0  0  0  0  0  0  0
   11.8864  -17.1630   23.8864 C   0  0  0  0  0  0  0  0  0  0  0  0
   12.8132  -16.0054   24.0007 C   0  0  0  0  0  0  0  0  0  0  0  0
   14.1850  -16.2281   23.5309 C   0  0  0  0  0  0  0  0  0  0  0  0
   14.8377  -15.2743   23.0725 O   0  0  0  0  0  0  0  0  0  0  0  0
   10.4100  -16.5628   25.7897 C   0  0  0  0  0  0  0  0  0  0  0  0
   10.7912  -17.3863   26.8413 O   0  0  0  0  0  0  0  0  0  0  0  0
   14.7519  -17.4718   23.5913 O   0  0  0  0  0  0  0  0  0  0  0  0
    9.9704  -15.4309   26.1293 O   0  0  0  0  0  0  0  0  0  0  0  0
  2  1  1  0
  3  2  1  0
  4  3  2  0
  6  5  1  0
  7  6  1  1
  7  8  1  0
  8  3  1  0
  9 11  1  0
  9  7  1  0
 10  9  2  0
 12 17  1  0
 12 11  1  0
 13 14  1  0
 12 13  1  6
 14 15  1  0
 15 16  2  0
 17 18  1  0
 19 15  1  0
 20 17  2  0
M  END
$$$$
