GSE.pdb
     RDKit          3D

 20 19  0  0  1  0  0  0  0  0999 V2000
    8.0982  -13.4363   17.5874 N   0  0  0  0  0  0  0  0  0  0  0  0
    7.4227  -14.1642   18.6280 C   0  0  0  0  0  0  0  0  0  0  0  0
    8.1977  -14.0916   19.8921 C   0  0  0  0  0  0  0  0  0  0  0  0
    9.4247  -13.7802   19.8291 O   0  0  0  0  0  0  0  0  0  0  0  0
    6.6993  -15.2756   23.6752 O   0  0  0  0  0  0  0  0  0  0  0  0
    7.4965  -14.1580   23.5865 C   0  0  0  0  0  0  0  0  0  0  0  0
    8.4385  -14.2345   22.3789 C   0  0  2  0  0  0  0  0  0  0  0  0
    7.6480  -14.3509   21.1763 N   0  0  0  0  0  0  0  0  0  0  0  0
    9.3755  -15.3477   22.5651 C   0  0  0  0  0  0  0  0  0  0  0  0
    9.0811  -16.4343   21.9695 O   0  0  0  0  0  0  0  0  0  0  0  0
   10.5467  -15.3168   23.3297 N   0  0  0  0  0  0  0  0  0  0  0  0
   11.4160  -16.4984   23.4386 C   0  0  1  0  0  0  0  0  0  0  0  0
   12.7878  -16.0492   23.0713 C   0  0  0  0  0  0  0  0  0  0  0  0
   13.8737  -17.0519   23.2378 C   0  0  0  0  0  0  0  0  0  0  0  0
   15.2279  -16.5983   22.9022 C   0  0  0  0  0  0  0  0  0  0  0  0
   15.7867  -17.0401   21.8830 O   0  0  0  0  0  0  0  0  0  0  0  0
   11.3050  -17.0274   24.8054 C   0  0  0  0  0  0  0  0  0  0  0  0
   11.7420  -18.2884   25.1904 O   0  0  0  0  0  0  0  0  0  0  0  0
   15.8809  -15.6968   23.6975 O   0  0  0  0  0  0  0  0  0  0  0  0
   10.7893  -16.3363   25.7253 O   0  0  0  0  0  0  0  0  0  0  0  0
  2  1  1  0
  3  2  1  0
  4  3  2  0
  6  5  1  0
  7  6  1  1
  7  8  1  0
  8  3  1  0
  9 11  1  0
  9  7  1  0
 10  9  2  0
 12 17  1  0
 12 11  1  0
 13 14  1  0
 12 13  1  1
 14 15  1  0
 15 16  2  0
 17 18  1  0
 19 15  1  0
 20 17  2  0
M  END
$$$$
