NWV.pdb
     RDKit          3D

 30 31  0  0  1  0  0  0  0  0999 V2000
   29.3613  -18.1212  -15.4312 N   0  0  0  0  0  0  0  0  0  0  0  0
   28.0178  -18.1164  -15.9416 C   0  0  0  0  0  0  0  0  0  0  0  0
   27.7732  -17.2896  -16.8532 O   0  0  0  0  0  0  0  0  0  0  0  0
   27.0131  -19.0556  -15.3898 C   0  0  0  0  0  0  0  0  0  0  0  0
   27.6401  -19.8718  -14.2895 C   0  0  2  0  0  0  0  0  0  0  0  0
   28.6287  -20.7802  -14.7795 N   0  0  0  0  0  0  0  0  0  0  0  0
   26.6799  -20.5759  -13.4428 C   0  0  0  0  0  0  0  0  0  0  0  0
   26.1627  -21.6509  -13.8803 O   0  0  0  0  0  0  0  0  0  0  0  0
   26.2963  -20.1058  -12.1382 N   0  0  0  0  0  0  0  0  0  0  0  0
   25.2892  -20.8375  -11.4249 C   0  0  1  0  0  0  0  0  0  0  0  0
   25.3589  -20.6110   -9.9378 C   0  0  0  0  0  0  0  0  0  0  0  0
   26.7140  -20.8586   -9.4005 C   0  0  0  0  0  0  0  0  0  0  0  0
   27.6680  -21.6424  -10.0112 C   0  0  0  0  0  0  0  0  0  0  0  0
   28.7823  -21.6590   -9.2663 N   0  0  0  0  0  0  0  0  0  0  0  0
   28.5786  -20.8947   -8.1678 C   0  0  0  0  0  0  0  0  0  0  0  0
   29.4154  -20.5977   -7.1090 C   0  0  0  0  0  0  0  0  0  0  0  0
   28.9416  -19.7770   -6.1084 C   0  0  0  0  0  0  0  0  0  0  0  0
   27.6685  -19.2732   -6.1728 C   0  0  0  0  0  0  0  0  0  0  0  0
   26.8282  -19.5698   -7.2334 C   0  0  0  0  0  0  0  0  0  0  0  0
   27.2960  -20.3944   -8.2444 C   0  0  0  0  0  0  0  0  0  0  0  0
   23.9176  -20.4476  -11.9179 C   0  0  0  0  0  0  0  0  0  0  0  0
   23.5897  -19.2367  -11.9891 O   0  0  0  0  0  0  0  0  0  0  0  0
   21.7546  -22.9258  -14.4025 C   0  0  0  0  0  0  0  0  0  0  0  0
   21.5493  -21.4300  -14.3055 C   0  0  2  0  0  0  0  0  0  0  0  0
   22.5695  -20.7354  -15.1581 C   0  0  0  0  0  0  0  0  0  0  0  0
   21.6834  -21.0342  -12.8383 C   0  0  2  0  0  0  0  0  0  0  0  0
   22.9713  -21.4344  -12.3109 N   0  0  0  0  0  0  0  0  0  0  0  0
   20.5982  -21.6306  -12.0336 C   0  0  0  0  0  0  0  0  0  0  0  0
   20.8426  -22.6140  -11.2813 O   0  0  0  0  0  0  0  0  0  0  0  0
   19.2996  -21.1636  -12.0566 O   0  0  0  0  0  0  0  0  0  0  0  0
  2  1  1  0
  2  3  2  0
  4  5  1  0
  4  2  1  0
  5  7  1  0
  5  6  1  6
  7  8  2  0
  9 10  1  0
  9  7  1  0
 11 12  1  0
 10 11  1  1
 12 13  2  0
 14 13  1  0
 15 14  1  0
 16 15  2  0
 17 16  1  0
 18 19  1  0
 18 17  2  0
 19 20  2  0
 20 15  1  0
 20 12  1  0
 21 10  1  0
 21 22  2  0
 24 23  1  1
 24 26  1  0
 25 24  1  0
 26 27  1  1
 26 28  1  0
 27 21  1  0
 28 29  2  0
 28 30  1  0
M  END
$$$$
