NWV.pdb
     RDKit          3D

 30 31  0  0  1  0  0  0  0  0999 V2000
   27.1335  -20.4543  -17.9825 N   0  0  0  0  0  0  0  0  0  0  0  0
   27.6310  -20.1917  -16.6600 C   0  0  0  0  0  0  0  0  0  0  0  0
   28.7644  -19.6581  -16.5890 O   0  0  0  0  0  0  0  0  0  0  0  0
   26.8129  -20.5488  -15.4772 C   0  0  0  0  0  0  0  0  0  0  0  0
   27.6217  -21.4208  -14.5522 C   0  0  2  0  0  0  0  0  0  0  0  0
   27.8304  -22.7317  -15.0817 N   0  0  0  0  0  0  0  0  0  0  0  0
   27.0962  -21.5015  -13.1913 C   0  0  0  0  0  0  0  0  0  0  0  0
   26.0451  -22.1861  -12.9889 O   0  0  0  0  0  0  0  0  0  0  0  0
   27.7165  -20.8413  -12.0735 N   0  0  0  0  0  0  0  0  0  0  0  0
   27.0350  -20.8646  -10.8111 C   0  0  1  0  0  0  0  0  0  0  0  0
   27.8591  -20.2665   -9.7018 C   0  0  0  0  0  0  0  0  0  0  0  0
   27.1675  -20.3339   -8.3968 C   0  0  0  0  0  0  0  0  0  0  0  0
   25.8707  -20.7628   -8.2183 C   0  0  0  0  0  0  0  0  0  0  0  0
   25.5503  -20.7014   -6.9182 N   0  0  0  0  0  0  0  0  0  0  0  0
   26.6202  -20.2366   -6.2314 C   0  0  0  0  0  0  0  0  0  0  0  0
   26.7899  -19.9988   -4.8808 C   0  0  0  0  0  0  0  0  0  0  0  0
   28.0062  -19.5178   -4.4470 C   0  0  0  0  0  0  0  0  0  0  0  0
   29.0166  -19.2845   -5.3434 C   0  0  0  0  0  0  0  0  0  0  0  0
   28.8483  -19.5223   -6.6977 C   0  0  0  0  0  0  0  0  0  0  0  0
   27.6284  -20.0061   -7.1434 C   0  0  0  0  0  0  0  0  0  0  0  0
   25.7293  -20.1156  -10.9125 C   0  0  0  0  0  0  0  0  0  0  0  0
   25.7224  -18.8829  -11.1560 O   0  0  0  0  0  0  0  0  0  0  0  0
   23.1022  -21.4290  -13.1666 C   0  0  0  0  0  0  0  0  0  0  0  0
   23.1037  -20.0219  -12.6107 C   0  0  2  0  0  0  0  0  0  0  0  0
   24.2343  -19.2501  -13.2240 C   0  0  0  0  0  0  0  0  0  0  0  0
   23.2494  -20.1184  -11.0951 C   0  0  2  0  0  0  0  0  0  0  0  0
   24.4852  -20.7826  -10.7362 N   0  0  0  0  0  0  0  0  0  0  0  0
   22.0998  -20.8314  -10.5028 C   0  0  0  0  0  0  0  0  0  0  0  0
   22.2485  -22.0045  -10.0619 O   0  0  0  0  0  0  0  0  0  0  0  0
   20.8406  -20.2757  -10.4004 O   0  0  0  0  0  0  0  0  0  0  0  0
  2  1  1  0
  2  3  2  0
  4  5  1  0
  4  2  1  0
  5  7  1  0
  5  6  1  6
  7  8  2  0
  9 10  1  0
  9  7  1  0
 11 12  1  0
 10 11  1  1
 12 13  2  0
 14 13  1  0
 15 14  1  0
 16 15  2  0
 17 16  1  0
 18 19  1  0
 18 17  2  0
 19 20  2  0
 20 15  1  0
 20 12  1  0
 21 10  1  0
 21 22  2  0
 24 23  1  6
 24 26  1  0
 25 24  1  0
 26 27  1  6
 26 28  1  0
 27 21  1  0
 28 29  2  0
 28 30  1  0
M  END
$$$$
