NWV.pdb
     RDKit          3D

 30 31  0  0  1  0  0  0  0  0999 V2000
   25.8451  -26.2845  -17.6931 N   0  0  0  0  0  0  0  0  0  0  0  0
   27.0262  -26.2785  -16.8742 C   0  0  0  0  0  0  0  0  0  0  0  0
   27.4842  -27.4014  -16.5524 O   0  0  0  0  0  0  0  0  0  0  0  0
   27.6325  -24.9916  -16.4593 C   0  0  0  0  0  0  0  0  0  0  0  0
   26.7574  -23.8537  -16.9169 C   0  0  2  0  0  0  0  0  0  0  0  0
   27.1184  -23.3752  -18.2143 N   0  0  0  0  0  0  0  0  0  0  0  0
   26.6746  -22.7427  -15.9717 C   0  0  0  0  0  0  0  0  0  0  0  0
   27.7267  -22.4017  -15.3461 O   0  0  0  0  0  0  0  0  0  0  0  0
   25.4565  -22.0196  -15.7201 N   0  0  0  0  0  0  0  0  0  0  0  0
   25.5122  -20.8851  -14.8435 C   0  0  1  0  0  0  0  0  0  0  0  0
   24.7933  -19.6877  -15.4066 C   0  0  0  0  0  0  0  0  0  0  0  0
   25.5275  -19.0790  -16.5365 C   0  0  0  0  0  0  0  0  0  0  0  0
   24.9606  -18.7303  -17.7425 C   0  0  0  0  0  0  0  0  0  0  0  0
   25.8965  -18.2051  -18.5457 N   0  0  0  0  0  0  0  0  0  0  0  0
   27.0785  -18.2011  -17.8860 C   0  0  0  0  0  0  0  0  0  0  0  0
   28.3291  -17.7652  -18.2806 C   0  0  0  0  0  0  0  0  0  0  0  0
   29.3751  -17.8809  -17.3910 C   0  0  0  0  0  0  0  0  0  0  0  0
   29.1680  -18.4174  -16.1468 C   0  0  0  0  0  0  0  0  0  0  0  0
   27.9151  -18.8549  -15.7495 C   0  0  0  0  0  0  0  0  0  0  0  0
   26.8569  -18.7426  -16.6374 C   0  0  0  0  0  0  0  0  0  0  0  0
   24.9116  -21.2343  -13.5043 C   0  0  0  0  0  0  0  0  0  0  0  0
   24.0365  -22.1317  -13.4161 O   0  0  0  0  0  0  0  0  0  0  0  0
   26.7783  -21.1812   -9.8812 C   0  0  0  0  0  0  0  0  0  0  0  0
   25.5013  -20.3700   -9.8839 C   0  0  2  0  0  0  0  0  0  0  0  0
   24.7870  -20.5694   -8.5800 C   0  0  0  0  0  0  0  0  0  0  0  0
   24.6536  -20.8370  -11.0633 C   0  0  2  0  0  0  0  0  0  0  0  0
   25.3192  -20.5609  -12.3194 N   0  0  0  0  0  0  0  0  0  0  0  0
   23.3250  -20.1927  -11.0409 C   0  0  0  0  0  0  0  0  0  0  0  0
   23.1135  -19.1661  -11.7438 O   0  0  0  0  0  0  0  0  0  0  0  0
   22.2744  -20.6595  -10.2771 O   0  0  0  0  0  0  0  0  0  0  0  0
  2  1  1  0
  2  3  2  0
  4  5  1  0
  4  2  1  0
  5  7  1  0
  5  6  1  6
  7  8  2  0
  9 10  1  0
  9  7  1  0
 11 12  1  0
 10 11  1  6
 12 13  2  0
 14 13  1  0
 15 14  1  0
 16 15  2  0
 17 16  1  0
 18 19  1  0
 18 17  2  0
 19 20  2  0
 20 15  1  0
 20 12  1  0
 21 10  1  0
 21 22  2  0
 24 23  1  1
 24 26  1  0
 25 24  1  0
 26 27  1  6
 26 28  1  0
 27 21  1  0
 28 29  2  0
 28 30  1  0
M  END
$$$$
