NWV.pdb
     RDKit          3D

 30 31  0  0  1  0  0  0  0  0999 V2000
   28.4153  -19.6542  -17.4361 N   0  0  0  0  0  0  0  0  0  0  0  0
   27.7298  -20.9170  -17.4040 C   0  0  0  0  0  0  0  0  0  0  0  0
   28.0653  -21.7532  -18.2773 O   0  0  0  0  0  0  0  0  0  0  0  0
   26.6923  -21.1699  -16.3765 C   0  0  0  0  0  0  0  0  0  0  0  0
   27.3544  -21.5509  -15.0779 C   0  0  2  0  0  0  0  0  0  0  0  0
   28.1720  -22.7162  -15.2036 N   0  0  0  0  0  0  0  0  0  0  0  0
   26.4319  -21.6976  -13.9544 C   0  0  0  0  0  0  0  0  0  0  0  0
   25.6493  -22.6986  -13.9417 O   0  0  0  0  0  0  0  0  0  0  0  0
   26.3722  -20.7602  -12.8646 N   0  0  0  0  0  0  0  0  0  0  0  0
   25.3430  -20.9327  -11.8799 C   0  0  1  0  0  0  0  0  0  0  0  0
   25.6492  -20.2088  -10.5954 C   0  0  0  0  0  0  0  0  0  0  0  0
   26.9354  -20.6398  -10.0073 C   0  0  0  0  0  0  0  0  0  0  0  0
   27.8534  -21.4500  -10.6384 C   0  0  0  0  0  0  0  0  0  0  0  0
   28.9074  -21.6489   -9.8344 N   0  0  0  0  0  0  0  0  0  0  0  0
   28.6992  -20.9794   -8.6764 C   0  0  0  0  0  0  0  0  0  0  0  0
   29.4847  -20.8711   -7.5446 C   0  0  0  0  0  0  0  0  0  0  0  0
   29.0203  -20.1097   -6.4940 C   0  0  0  0  0  0  0  0  0  0  0  0
   27.8062  -19.4793   -6.5812 C   0  0  0  0  0  0  0  0  0  0  0  0
   27.0176  -19.5867   -7.7149 C   0  0  0  0  0  0  0  0  0  0  0  0
   27.4764  -20.3504   -8.7766 C   0  0  0  0  0  0  0  0  0  0  0  0
   24.0221  -20.4413  -12.4184 C   0  0  0  0  0  0  0  0  0  0  0  0
   23.9909  -19.5912  -13.3433 O   0  0  0  0  0  0  0  0  0  0  0  0
   21.4371  -22.6056  -13.8768 C   0  0  0  0  0  0  0  0  0  0  0  0
   21.4713  -21.0951  -13.9528 C   0  0  2  0  0  0  0  0  0  0  0  0
   22.6614  -20.6682  -14.7601 C   0  0  0  0  0  0  0  0  0  0  0  0
   21.5406  -20.5570  -12.5268 C   0  0  2  0  0  0  0  0  0  0  0  0
   22.7908  -20.9255  -11.8958 N   0  0  0  0  0  0  0  0  0  0  0  0
   20.4029  -21.0505  -11.7250 C   0  0  0  0  0  0  0  0  0  0  0  0
   20.6056  -21.8669  -10.7842 O   0  0  0  0  0  0  0  0  0  0  0  0
   19.0979  -20.6612  -11.9499 O   0  0  0  0  0  0  0  0  0  0  0  0
  2  1  1  0
  2  3  2  0
  4  5  1  0
  4  2  1  0
  5  7  1  0
  5  6  1  6
  7  8  2  0
  9 10  1  0
  9  7  1  0
 11 12  1  0
 10 11  1  1
 12 13  2  0
 14 13  1  0
 15 14  1  0
 16 15  2  0
 17 16  1  0
 18 19  1  0
 18 17  2  0
 19 20  2  0
 20 15  1  0
 20 12  1  0
 21 10  1  0
 21 22  2  0
 24 23  1  1
 24 26  1  0
 25 24  1  0
 26 27  1  1
 26 28  1  0
 27 21  1  0
 28 29  2  0
 28 30  1  0
M  END
$$$$
