NWV.pdb
     RDKit          3D

 30 31  0  0  1  0  0  0  0  0999 V2000
   39.6357  -13.8772  -15.7317 N   0  0  0  0  0  0  0  0  0  0  0  0
   40.4826  -12.7247  -15.8739 C   0  0  0  0  0  0  0  0  0  0  0  0
   41.7000  -12.8962  -15.6233 O   0  0  0  0  0  0  0  0  0  0  0  0
   39.9030  -11.4280  -16.2963 C   0  0  0  0  0  0  0  0  0  0  0  0
   38.4081  -11.5646  -16.4253 C   0  0  2  0  0  0  0  0  0  0  0  0
   38.0173  -12.1181  -17.6837 N   0  0  0  0  0  0  0  0  0  0  0  0
   37.6679  -10.3329  -16.1616 C   0  0  0  0  0  0  0  0  0  0  0  0
   37.4856   -9.5200  -17.1211 O   0  0  0  0  0  0  0  0  0  0  0  0
   37.1375  -10.0020  -14.8657 N   0  0  0  0  0  0  0  0  0  0  0  0
   36.4929   -8.7305  -14.7034 C   0  0  1  0  0  0  0  0  0  0  0  0
   35.1195   -8.8553  -14.0987 C   0  0  0  0  0  0  0  0  0  0  0  0
   34.0904   -9.1631  -15.1147 C   0  0  0  0  0  0  0  0  0  0  0  0
   33.7867  -10.4293  -15.5639 C   0  0  0  0  0  0  0  0  0  0  0  0
   32.8114  -10.3606  -16.4809 N   0  0  0  0  0  0  0  0  0  0  0  0
   32.4641   -9.0626  -16.6453 C   0  0  0  0  0  0  0  0  0  0  0  0
   31.5182   -8.4802  -17.4672 C   0  0  0  0  0  0  0  0  0  0  0  0
   31.3713   -7.1105  -17.4307 C   0  0  0  0  0  0  0  0  0  0  0  0
   32.1509   -6.3540  -16.5948 C   0  0  0  0  0  0  0  0  0  0  0  0
   33.0996   -6.9361  -15.7701 C   0  0  0  0  0  0  0  0  0  0  0  0
   33.2545   -8.3130  -15.8000 C   0  0  0  0  0  0  0  0  0  0  0  0
   37.3337   -7.8300  -13.8325 C   0  0  0  0  0  0  0  0  0  0  0  0
   37.9182   -8.2916  -12.8205 O   0  0  0  0  0  0  0  0  0  0  0  0
   38.4207   -3.9498  -15.1344 C   0  0  0  0  0  0  0  0  0  0  0  0
   39.2889   -4.7952  -14.2287 C   0  0  2  0  0  0  0  0  0  0  0  0
   40.1738   -5.6687  -15.0679 C   0  0  0  0  0  0  0  0  0  0  0  0
   38.3677   -5.6233  -13.3381 C   0  0  2  0  0  0  0  0  0  0  0  0
   37.4832   -6.4480  -14.1348 N   0  0  0  0  0  0  0  0  0  0  0  0
   37.5797   -4.7507  -12.4446 C   0  0  0  0  0  0  0  0  0  0  0  0
   36.4019   -4.4273  -12.7621 O   0  0  0  0  0  0  0  0  0  0  0  0
   38.0683   -4.2557  -11.2524 O   0  0  0  0  0  0  0  0  0  0  0  0
  2  1  1  0
  2  3  2  0
  4  5  1  0
  4  2  1  0
  5  7  1  0
  5  6  1  6
  7  8  2  0
  9 10  1  0
  9  7  1  0
 11 12  1  0
 10 11  1  1
 12 13  2  0
 14 13  1  0
 15 14  1  0
 16 15  2  0
 17 16  1  0
 18 19  1  0
 18 17  2  0
 19 20  2  0
 20 15  1  0
 20 12  1  0
 21 10  1  0
 21 22  2  0
 24 23  1  6
 24 26  1  0
 25 24  1  0
 26 27  1  6
 26 28  1  0
 27 21  1  0
 28 29  2  0
 28 30  1  0
M  END
$$$$
