NWV.pdb
     RDKit          3D

 30 31  0  0  1  0  0  0  0  0999 V2000
   29.8461  -18.0936  -13.9399 N   0  0  0  0  0  0  0  0  0  0  0  0
   28.7541  -18.7385  -14.6163 C   0  0  0  0  0  0  0  0  0  0  0  0
   28.6155  -18.4648  -15.8330 O   0  0  0  0  0  0  0  0  0  0  0  0
   27.8692  -19.6673  -13.8746 C   0  0  0  0  0  0  0  0  0  0  0  0
   28.4664  -19.9570  -12.5221 C   0  0  2  0  0  0  0  0  0  0  0  0
   29.6807  -20.7055  -12.6107 N   0  0  0  0  0  0  0  0  0  0  0  0
   27.5456  -20.5941  -11.5835 C   0  0  0  0  0  0  0  0  0  0  0  0
   27.4771  -21.8629  -11.5709 O   0  0  0  0  0  0  0  0  0  0  0  0
   26.7158  -19.8486  -10.6748 N   0  0  0  0  0  0  0  0  0  0  0  0
   25.6721  -20.5487   -9.9827 C   0  0  1  0  0  0  0  0  0  0  0  0
   25.3574  -19.9346   -8.6443 C   0  0  0  0  0  0  0  0  0  0  0  0
   26.5777  -19.6754   -7.8507 C   0  0  0  0  0  0  0  0  0  0  0  0
   27.5152  -18.7107   -8.1473 C   0  0  0  0  0  0  0  0  0  0  0  0
   28.4946  -18.7373   -7.2324 N   0  0  0  0  0  0  0  0  0  0  0  0
   28.2176  -19.7091   -6.3317 C   0  0  0  0  0  0  0  0  0  0  0  0
   28.9123  -20.1238   -5.2114 C   0  0  0  0  0  0  0  0  0  0  0  0
   28.3904  -21.1543   -4.4599 C   0  0  0  0  0  0  0  0  0  0  0  0
   27.2091  -21.7462   -4.8247 C   0  0  0  0  0  0  0  0  0  0  0  0
   26.5113  -21.3317   -5.9473 C   0  0  0  0  0  0  0  0  0  0  0  0
   27.0284  -20.2960   -6.7094 C   0  0  0  0  0  0  0  0  0  0  0  0
   24.4177  -20.5704  -10.8209 C   0  0  0  0  0  0  0  0  0  0  0  0
   24.0765  -19.5554  -11.4783 O   0  0  0  0  0  0  0  0  0  0  0  0
   23.4197  -23.3432  -13.3159 C   0  0  0  0  0  0  0  0  0  0  0  0
   22.2455  -23.1124  -12.3903 C   0  0  2  0  0  0  0  0  0  0  0  0
   20.9728  -23.1789  -13.1815 C   0  0  0  0  0  0  0  0  0  0  0  0
   22.4272  -21.7458  -11.7370 C   0  0  2  0  0  0  0  0  0  0  0  0
   23.5988  -21.7318  -10.8859 N   0  0  0  0  0  0  0  0  0  0  0  0
   21.2293  -21.3747  -10.9571 C   0  0  0  0  0  0  0  0  0  0  0  0
   21.2170  -21.5451   -9.7067 O   0  0  0  0  0  0  0  0  0  0  0  0
   20.0939  -20.8387  -11.5302 O   0  0  0  0  0  0  0  0  0  0  0  0
  2  1  1  0
  2  3  2  0
  4  5  1  0
  4  2  1  0
  5  7  1  0
  5  6  1  6
  7  8  2  0
  9 10  1  0
  9  7  1  0
 11 12  1  0
 10 11  1  1
 12 13  2  0
 14 13  1  0
 15 14  1  0
 16 15  2  0
 17 16  1  0
 18 19  1  0
 18 17  2  0
 19 20  2  0
 20 15  1  0
 20 12  1  0
 21 10  1  0
 21 22  2  0
 24 23  1  6
 24 26  1  0
 25 24  1  0
 26 27  1  1
 26 28  1  0
 27 21  1  0
 28 29  2  0
 28 30  1  0
M  END
$$$$
