NWV.pdb
     RDKit          3D

 30 31  0  0  1  0  0  0  0  0999 V2000
   26.2176  -20.5620  -17.2731 N   0  0  0  0  0  0  0  0  0  0  0  0
   26.0023  -19.8691  -16.0324 C   0  0  0  0  0  0  0  0  0  0  0  0
   26.3335  -18.6592  -16.0076 O   0  0  0  0  0  0  0  0  0  0  0  0
   25.4181  -20.5875  -14.8754 C   0  0  0  0  0  0  0  0  0  0  0  0
   26.3906  -20.5608  -13.7250 C   0  0  2  0  0  0  0  0  0  0  0  0
   27.5934  -21.2778  -14.0105 N   0  0  0  0  0  0  0  0  0  0  0  0
   25.8265  -21.0036  -12.4520 C   0  0  0  0  0  0  0  0  0  0  0  0
   25.4001  -22.1972  -12.3624 O   0  0  0  0  0  0  0  0  0  0  0  0
   25.7340  -20.1486  -11.2986 N   0  0  0  0  0  0  0  0  0  0  0  0
   25.1317  -20.6798  -10.1096 C   0  0  1  0  0  0  0  0  0  0  0  0
   25.6043  -19.9790   -8.8634 C   0  0  0  0  0  0  0  0  0  0  0  0
   26.9722  -20.3886   -8.4799 C   0  0  0  0  0  0  0  0  0  0  0  0
   27.8017  -21.1710   -9.2527 C   0  0  0  0  0  0  0  0  0  0  0  0
   28.9675  -21.3562   -8.6177 N   0  0  0  0  0  0  0  0  0  0  0  0
   28.9212  -20.7053   -7.4317 C   0  0  0  0  0  0  0  0  0  0  0  0
   29.8644  -20.5932   -6.4280 C   0  0  0  0  0  0  0  0  0  0  0  0
   29.5469  -19.8548   -5.3087 C   0  0  0  0  0  0  0  0  0  0  0  0
   28.3212  -19.2501   -5.2046 C   0  0  0  0  0  0  0  0  0  0  0  0
   27.3744  -19.3613   -6.2097 C   0  0  0  0  0  0  0  0  0  0  0  0
   27.6848  -20.1021   -7.3393 C   0  0  0  0  0  0  0  0  0  0  0  0
   23.6294  -20.5704  -10.1957 C   0  0  0  0  0  0  0  0  0  0  0  0
   23.0864  -19.4611  -10.4270 O   0  0  0  0  0  0  0  0  0  0  0  0
   21.4809  -21.9211  -12.6119 C   0  0  0  0  0  0  0  0  0  0  0  0
   20.8765  -22.4652  -11.3363 C   0  0  2  0  0  0  0  0  0  0  0  0
   19.3809  -22.4406  -11.4489 C   0  0  0  0  0  0  0  0  0  0  0  0
   21.3648  -21.5972  -10.1806 C   0  0  2  0  0  0  0  0  0  0  0  0
   22.7992  -21.7119  -10.0184 N   0  0  0  0  0  0  0  0  0  0  0  0
   20.6813  -21.9649   -8.9242 C   0  0  0  0  0  0  0  0  0  0  0  0
   21.2239  -22.7827   -8.1308 O   0  0  0  0  0  0  0  0  0  0  0  0
   19.4528  -21.4535   -8.5576 O   0  0  0  0  0  0  0  0  0  0  0  0
  2  1  1  0
  2  3  2  0
  4  5  1  0
  4  2  1  0
  5  7  1  0
  5  6  1  6
  7  8  2  0
  9 10  1  0
  9  7  1  0
 11 12  1  0
 10 11  1  1
 12 13  2  0
 14 13  1  0
 15 14  1  0
 16 15  2  0
 17 16  1  0
 18 19  1  0
 18 17  2  0
 19 20  2  0
 20 15  1  0
 20 12  1  0
 21 10  1  0
 21 22  2  0
 24 23  1  6
 24 26  1  0
 25 24  1  0
 26 27  1  1
 26 28  1  0
 27 21  1  0
 28 29  2  0
 28 30  1  0
M  END
$$$$
