NWV.pdb
     RDKit          3D

 30 31  0  0  1  0  0  0  0  0999 V2000
   27.9472  -25.3155  -19.6338 N   0  0  0  0  0  0  0  0  0  0  0  0
   27.2825  -26.4343  -19.0238 C   0  0  0  0  0  0  0  0  0  0  0  0
   26.9964  -27.3914  -19.7830 O   0  0  0  0  0  0  0  0  0  0  0  0
   26.9743  -26.4117  -17.5745 C   0  0  0  0  0  0  0  0  0  0  0  0
   27.4521  -25.1124  -16.9800 C   0  0  2  0  0  0  0  0  0  0  0  0
   28.5256  -25.2976  -16.0549 N   0  0  0  0  0  0  0  0  0  0  0  0
   26.3955  -24.3047  -16.3752 C   0  0  0  0  0  0  0  0  0  0  0  0
   26.0280  -24.5793  -15.1902 O   0  0  0  0  0  0  0  0  0  0  0  0
   25.7553  -23.2142  -17.0617 N   0  0  0  0  0  0  0  0  0  0  0  0
   24.7350  -22.4833  -16.3666 C   0  0  1  0  0  0  0  0  0  0  0  0
   24.5445  -21.0954  -16.9189 C   0  0  0  0  0  0  0  0  0  0  0  0
   23.5396  -20.3259  -16.1548 C   0  0  0  0  0  0  0  0  0  0  0  0
   23.6462  -20.0075  -14.8189 C   0  0  0  0  0  0  0  0  0  0  0  0
   22.5702  -19.3060  -14.4352 N   0  0  0  0  0  0  0  0  0  0  0  0
   21.7505  -19.1551  -15.5019 C   0  0  0  0  0  0  0  0  0  0  0  0
   20.5317  -18.5143  -15.6180 C   0  0  0  0  0  0  0  0  0  0  0  0
   19.9050  -18.5138  -16.8453 C   0  0  0  0  0  0  0  0  0  0  0  0
   20.4866  -19.1374  -17.9184 C   0  0  0  0  0  0  0  0  0  0  0  0
   21.7083  -19.7802  -17.8039 C   0  0  0  0  0  0  0  0  0  0  0  0
   22.3461  -19.7861  -16.5735 C   0  0  0  0  0  0  0  0  0  0  0  0
   23.4237  -23.2259  -16.4396 C   0  0  0  0  0  0  0  0  0  0  0  0
   23.0685  -23.7823  -17.5088 O   0  0  0  0  0  0  0  0  0  0  0  0
   22.1967  -26.1297  -14.7400 C   0  0  0  0  0  0  0  0  0  0  0  0
   21.1417  -25.0951  -14.4155 C   0  0  2  0  0  0  0  0  0  0  0  0
   19.7864  -25.7342  -14.4825 C   0  0  0  0  0  0  0  0  0  0  0  0
   21.2751  -23.9592  -15.4252 C   0  0  2  0  0  0  0  0  0  0  0  0
   22.5658  -23.3128  -15.3082 N   0  0  0  0  0  0  0  0  0  0  0  0
   20.1940  -22.9694  -15.2459 C   0  0  0  0  0  0  0  0  0  0  0  0
   20.3019  -22.0756  -14.3615 O   0  0  0  0  0  0  0  0  0  0  0  0
   19.0435  -22.9643  -16.0083 O   0  0  0  0  0  0  0  0  0  0  0  0
  2  1  1  0
  2  3  2  0
  4  5  1  0
  4  2  1  0
  5  7  1  0
  5  6  1  1
  7  8  2  0
  9 10  1  0
  9  7  1  0
 11 12  1  0
 10 11  1  6
 12 13  2  0
 14 13  1  0
 15 14  1  0
 16 15  2  0
 17 16  1  0
 18 19  1  0
 18 17  2  0
 19 20  2  0
 20 15  1  0
 20 12  1  0
 21 10  1  0
 21 22  2  0
 24 23  1  6
 24 26  1  0
 25 24  1  0
 26 27  1  1
 26 28  1  0
 27 21  1  0
 28 29  2  0
 28 30  1  0
M  END
$$$$
