NWV.pdb
     RDKit          3D

 30 31  0  0  1  0  0  0  0  0999 V2000
   18.2828  -11.5635  -20.0088 N   0  0  0  0  0  0  0  0  0  0  0  0
   17.8561  -11.4838  -18.6387 C   0  0  0  0  0  0  0  0  0  0  0  0
   16.6170  -11.4953  -18.4416 O   0  0  0  0  0  0  0  0  0  0  0  0
   18.8621  -11.3953  -17.5542 C   0  0  0  0  0  0  0  0  0  0  0  0
   20.2414  -11.3119  -18.1547 C   0  0  2  0  0  0  0  0  0  0  0  0
   20.7509  -12.5930  -18.5314 N   0  0  0  0  0  0  0  0  0  0  0  0
   21.2144  -10.6028  -17.3270 C   0  0  0  0  0  0  0  0  0  0  0  0
   21.4293  -11.0275  -16.1489 O   0  0  0  0  0  0  0  0  0  0  0  0
   21.9380   -9.4477  -17.7877 N   0  0  0  0  0  0  0  0  0  0  0  0
   22.8342   -8.8018  -16.8722 C   0  0  1  0  0  0  0  0  0  0  0  0
   24.2352   -8.6995  -17.4148 C   0  0  0  0  0  0  0  0  0  0  0  0
   24.9187  -10.0102  -17.4403 C   0  0  0  0  0  0  0  0  0  0  0  0
   24.7291  -10.9743  -18.4058 C   0  0  0  0  0  0  0  0  0  0  0  0
   25.4969  -12.0395  -18.1365 N   0  0  0  0  0  0  0  0  0  0  0  0
   26.1944  -11.7932  -17.0027 C   0  0  0  0  0  0  0  0  0  0  0  0
   27.1112  -12.5713  -16.3219 C   0  0  0  0  0  0  0  0  0  0  0  0
   27.6797  -12.0626  -15.1743 C   0  0  0  0  0  0  0  0  0  0  0  0
   27.3361  -10.8129  -14.7283 C   0  0  0  0  0  0  0  0  0  0  0  0
   26.4173  -10.0314  -15.4095 C   0  0  0  0  0  0  0  0  0  0  0  0
   25.8402  -10.5346  -16.5647 C   0  0  0  0  0  0  0  0  0  0  0  0
   22.3317   -7.4175  -16.5439 C   0  0  0  0  0  0  0  0  0  0  0  0
   22.0470   -6.6112  -17.4645 O   0  0  0  0  0  0  0  0  0  0  0  0
   19.6219   -6.7677  -13.9209 C   0  0  0  0  0  0  0  0  0  0  0  0
   20.0767   -5.7489  -14.9427 C   0  0  2  0  0  0  0  0  0  0  0  0
   19.5741   -6.1507  -16.2978 C   0  0  0  0  0  0  0  0  0  0  0  0
   21.6009   -5.6969  -14.9043 C   0  0  2  0  0  0  0  0  0  0  0  0
   22.1697   -6.9967  -15.1947 N   0  0  0  0  0  0  0  0  0  0  0  0
   22.0757   -5.2176  -13.5906 C   0  0  0  0  0  0  0  0  0  0  0  0
   22.5380   -6.0399  -12.7522 O   0  0  0  0  0  0  0  0  0  0  0  0
   22.0426   -3.8895  -13.2166 O   0  0  0  0  0  0  0  0  0  0  0  0
  2  1  1  0
  2  3  2  0
  4  5  1  0
  4  2  1  0
  5  7  1  0
  5  6  1  1
  7  8  2  0
  9 10  1  0
  9  7  1  0
 11 12  1  0
 10 11  1  6
 12 13  2  0
 14 13  1  0
 15 14  1  0
 16 15  2  0
 17 16  1  0
 18 19  1  0
 18 17  2  0
 19 20  2  0
 20 15  1  0
 20 12  1  0
 21 10  1  0
 21 22  2  0
 24 23  1  1
 24 26  1  0
 25 24  1  0
 26 27  1  1
 26 28  1  0
 27 21  1  0
 28 29  2  0
 28 30  1  0
M  END
$$$$
