ISG.pdb
     RDKit          3D

 19 18  0  0  1  0  0  0  0  0999 V2000
   28.1170  -11.7976  -16.0023 C   0  0  0  0  0  0  0  0  0  0  0  0
   26.6614  -12.1647  -16.1052 C   0  0  0  0  0  0  0  0  0  0  0  0
   25.8315  -10.9148  -16.1679 C   0  0  2  0  0  0  0  0  0  0  0  0
   26.0687  -10.0548  -14.9200 C   0  0  0  0  0  0  0  0  0  0  0  0
   24.3659  -11.1202  -16.3930 C   0  0  2  0  0  0  0  0  0  0  0  0
   24.2386  -11.8084  -17.7052 N   0  0  0  0  0  0  0  0  0  0  0  0
   23.5039   -9.9652  -16.4231 C   0  0  0  0  0  0  0  0  0  0  0  0
   23.6199   -9.1842  -17.4399 O   0  0  0  0  0  0  0  0  0  0  0  0
   19.4425   -7.5883  -15.9476 O   0  0  0  0  0  0  0  0  0  0  0  0
   20.2332   -8.7183  -15.7308 C   0  0  0  0  0  0  0  0  0  0  0  0
   21.7001   -8.3754  -15.7030 C   0  0  2  0  0  0  0  0  0  0  0  0
   22.5321   -9.5446  -15.4989 N   0  0  0  0  0  0  0  0  0  0  0  0
   21.9346   -7.4119  -14.5983 C   0  0  0  0  0  0  0  0  0  0  0  0
   22.1981   -7.7834  -13.4186 O   0  0  0  0  0  0  0  0  0  0  0  0
   21.8621   -6.0043  -14.8677 N   0  0  0  0  0  0  0  0  0  0  0  0
   22.1293   -5.0209  -13.8558 C   0  0  0  0  0  0  0  0  0  0  0  0
   21.9167   -3.6388  -14.3545 C   0  0  0  0  0  0  0  0  0  0  0  0
   22.1223   -2.5466  -13.5257 O   0  0  0  0  0  0  0  0  0  0  0  0
   21.5472   -3.4174  -15.5325 O   0  0  0  0  0  0  0  0  0  0  0  0
  2  1  1  0
  3  2  1  0
  3  4  1  1
  5  3  1  0
  5  7  1  0
  5  6  1  6
  7  8  2  0
 10  9  1  0
 11 10  1  1
 12 11  1  0
 12  7  1  0
 13 11  1  0
 13 15  1  0
 14 13  2  0
 16 15  1  0
 16 17  1  0
 17 18  1  0
 19 17  2  0
M  END
$$$$
