ISG.pdb
     RDKit          3D

 19 18  0  0  1  0  0  0  0  0999 V2000
   29.0072  -12.1861  -16.6148 C   0  0  0  0  0  0  0  0  0  0  0  0
   27.6753  -12.5868  -16.0408 C   0  0  0  0  0  0  0  0  0  0  0  0
   26.6614  -11.5178  -16.3307 C   0  0  2  0  0  0  0  0  0  0  0  0
   27.1002  -10.1853  -15.7102 C   0  0  0  0  0  0  0  0  0  0  0  0
   25.2517  -11.8387  -15.9425 C   0  0  2  0  0  0  0  0  0  0  0  0
   24.8802  -13.0641  -16.6988 N   0  0  0  0  0  0  0  0  0  0  0  0
   24.2281  -10.8526  -16.1836 C   0  0  0  0  0  0  0  0  0  0  0  0
   23.9587  -10.5890  -17.4145 O   0  0  0  0  0  0  0  0  0  0  0  0
   20.1683   -8.6144  -15.9800 O   0  0  0  0  0  0  0  0  0  0  0  0
   21.0789   -9.5888  -15.5669 C   0  0  0  0  0  0  0  0  0  0  0  0
   22.5014   -9.1038  -15.6741 C   0  0  2  0  0  0  0  0  0  0  0  0
   23.4569  -10.1154  -15.2686 N   0  0  0  0  0  0  0  0  0  0  0  0
   22.6560   -7.9111  -14.8039 C   0  0  0  0  0  0  0  0  0  0  0  0
   22.8088   -8.0001  -13.5517 O   0  0  0  0  0  0  0  0  0  0  0  0
   22.6328   -6.6036  -15.3948 N   0  0  0  0  0  0  0  0  0  0  0  0
   22.8477   -5.4140  -14.6194 C   0  0  0  0  0  0  0  0  0  0  0  0
   21.5974   -4.6333  -14.4420 C   0  0  0  0  0  0  0  0  0  0  0  0
   21.5898   -3.4683  -13.6905 O   0  0  0  0  0  0  0  0  0  0  0  0
   20.5169   -5.0004  -14.9623 O   0  0  0  0  0  0  0  0  0  0  0  0
  2  1  1  0
  3  2  1  0
  3  4  1  1
  5  3  1  0
  5  7  1  0
  5  6  1  6
  7  8  2  0
 10  9  1  0
 11 10  1  1
 12 11  1  0
 12  7  1  0
 13 11  1  0
 13 15  1  0
 14 13  2  0
 16 15  1  0
 16 17  1  0
 17 18  1  0
 19 17  2  0
M  END
$$$$
