ISG.pdb
     RDKit          3D

 19 18  0  0  1  0  0  0  0  0999 V2000
   14.3729   -6.4517   -7.1906 C   0  0  0  0  0  0  0  0  0  0  0  0
   14.1225   -7.3613   -8.3629 C   0  0  0  0  0  0  0  0  0  0  0  0
   15.3852   -7.5099   -9.1618 C   0  0  2  0  0  0  0  0  0  0  0  0
   15.9633   -6.1313   -9.5056 C   0  0  0  0  0  0  0  0  0  0  0  0
   15.2782   -8.3558  -10.3922 C   0  0  2  0  0  0  0  0  0  0  0  0
   15.2667   -9.7683   -9.9267 N   0  0  0  0  0  0  0  0  0  0  0  0
   16.3015   -8.2394  -11.4009 C   0  0  0  0  0  0  0  0  0  0  0  0
   17.3938   -8.8884  -11.1930 O   0  0  0  0  0  0  0  0  0  0  0  0
   18.0925   -7.4969  -15.8223 O   0  0  0  0  0  0  0  0  0  0  0  0
   16.9980   -7.4573  -14.9563 C   0  0  0  0  0  0  0  0  0  0  0  0
   17.4280   -7.4837  -13.5126 C   0  0  2  0  0  0  0  0  0  0  0  0
   16.2983   -7.5146  -12.6051 N   0  0  0  0  0  0  0  0  0  0  0  0
   18.2364   -6.2681  -13.2427 C   0  0  0  0  0  0  0  0  0  0  0  0
   17.7129   -5.1632  -12.9198 O   0  0  0  0  0  0  0  0  0  0  0  0
   19.6657   -6.3380  -13.3493 N   0  0  0  0  0  0  0  0  0  0  0  0
   20.5046   -5.2011  -13.0921 C   0  0  0  0  0  0  0  0  0  0  0  0
   21.9464   -5.5395  -13.1980 C   0  0  0  0  0  0  0  0  0  0  0  0
   22.9149   -4.5519  -13.1049 O   0  0  0  0  0  0  0  0  0  0  0  0
   22.3306   -6.7204  -13.3737 O   0  0  0  0  0  0  0  0  0  0  0  0
  2  1  1  0
  3  2  1  0
  3  4  1  6
  5  3  1  0
  5  7  1  0
  5  6  1  1
  7  8  2  0
 10  9  1  0
 11 10  1  6
 12 11  1  0
 12  7  1  0
 13 11  1  0
 13 15  1  0
 14 13  2  0
 16 15  1  0
 16 17  1  0
 17 18  1  0
 19 17  2  0
M  END
$$$$
