ISG.pdb
     RDKit          3D

 19 18  0  0  1  0  0  0  0  0999 V2000
   22.2503  -15.4644  -14.6605 C   0  0  0  0  0  0  0  0  0  0  0  0
   21.3940  -14.5245  -15.4650 C   0  0  0  0  0  0  0  0  0  0  0  0
   22.1182  -13.2229  -15.6546 C   0  0  2  0  0  0  0  0  0  0  0  0
   22.4397  -12.5893  -14.2951 C   0  0  0  0  0  0  0  0  0  0  0  0
   21.4446  -12.2304  -16.5501 C   0  0  2  0  0  0  0  0  0  0  0  0
   21.4148  -12.8444  -17.9043 N   0  0  0  0  0  0  0  0  0  0  0  0
   22.0224  -10.9163  -16.6818 C   0  0  0  0  0  0  0  0  0  0  0  0
   22.9325  -10.7730  -17.5810 O   0  0  0  0  0  0  0  0  0  0  0  0
   22.5413   -6.7856  -18.0259 O   0  0  0  0  0  0  0  0  0  0  0  0
   21.9265   -7.9922  -17.6861 C   0  0  0  0  0  0  0  0  0  0  0  0
   22.3261   -8.4530  -16.3084 C   0  0  2  0  0  0  0  0  0  0  0  0
   21.7443   -9.7366  -15.9701 N   0  0  0  0  0  0  0  0  0  0  0  0
   21.8715   -7.4379  -15.3252 C   0  0  0  0  0  0  0  0  0  0  0  0
   20.6525   -7.2790  -15.0286 O   0  0  0  0  0  0  0  0  0  0  0  0
   22.8427   -6.6003  -14.6814 N   0  0  0  0  0  0  0  0  0  0  0  0
   22.4956   -5.7311  -13.5922 C   0  0  0  0  0  0  0  0  0  0  0  0
   21.7927   -4.5094  -14.0589 C   0  0  0  0  0  0  0  0  0  0  0  0
   21.3238   -3.5713  -13.1522 O   0  0  0  0  0  0  0  0  0  0  0  0
   21.6025   -4.2892  -15.2789 O   0  0  0  0  0  0  0  0  0  0  0  0
  2  1  1  0
  3  2  1  0
  3  4  1  1
  5  3  1  0
  5  7  1  0
  5  6  1  6
  7  8  2  0
 10  9  1  0
 11 10  1  6
 12 11  1  0
 12  7  1  0
 13 11  1  0
 13 15  1  0
 14 13  2  0
 16 15  1  0
 16 17  1  0
 17 18  1  0
 19 17  2  0
M  END
$$$$
