ISG.pdb
     RDKit          3D

 19 18  0  0  1  0  0  0  0  0999 V2000
   26.3479  -14.0582  -15.3899 C   0  0  0  0  0  0  0  0  0  0  0  0
   24.9677  -13.9831  -15.9845 C   0  0  0  0  0  0  0  0  0  0  0  0
   24.4972  -12.5571  -15.9833 C   0  0  2  0  0  0  0  0  0  0  0  0
   24.4971  -11.9975  -14.5551 C   0  0  0  0  0  0  0  0  0  0  0  0
   23.1772  -12.3092  -16.6444 C   0  0  2  0  0  0  0  0  0  0  0  0
   23.3439  -12.7045  -18.0683 N   0  0  0  0  0  0  0  0  0  0  0  0
   22.6359  -10.9733  -16.6250 C   0  0  0  0  0  0  0  0  0  0  0  0
   23.1623  -10.1250  -17.4379 O   0  0  0  0  0  0  0  0  0  0  0  0
   19.0632   -9.8458  -17.0586 O   0  0  0  0  0  0  0  0  0  0  0  0
   19.5879   -9.0437  -16.0434 C   0  0  0  0  0  0  0  0  0  0  0  0
   21.0937   -9.0879  -16.0198 C   0  0  2  0  0  0  0  0  0  0  0  0
   21.5993  -10.4347  -15.8434 N   0  0  0  0  0  0  0  0  0  0  0  0
   21.5693   -8.2384  -14.8991 C   0  0  0  0  0  0  0  0  0  0  0  0
   21.7917   -8.7017  -13.7437 O   0  0  0  0  0  0  0  0  0  0  0  0
   21.7882   -6.8381  -15.1239 N   0  0  0  0  0  0  0  0  0  0  0  0
   22.2569   -5.9645  -14.0849 C   0  0  0  0  0  0  0  0  0  0  0  0
   22.4257   -4.5701  -14.5658 C   0  0  0  0  0  0  0  0  0  0  0  0
   22.7991   -3.5596  -13.6931 O   0  0  0  0  0  0  0  0  0  0  0  0
   22.2372   -4.2646  -15.7675 O   0  0  0  0  0  0  0  0  0  0  0  0
  2  1  1  0
  3  2  1  0
  3  4  1  1
  5  3  1  0
  5  7  1  0
  5  6  1  6
  7  8  2  0
 10  9  1  0
 11 10  1  1
 12 11  1  0
 12  7  1  0
 13 11  1  0
 13 15  1  0
 14 13  2  0
 16 15  1  0
 16 17  1  0
 17 18  1  0
 19 17  2  0
M  END
$$$$
