ISG.pdb
     RDKit          3D

 19 18  0  0  1  0  0  0  0  0999 V2000
   16.2853  -13.2602  -16.8598 C   0  0  0  0  0  0  0  0  0  0  0  0
   17.3847  -12.4440  -17.4837 C   0  0  0  0  0  0  0  0  0  0  0  0
   18.0731  -11.6345  -16.4227 C   0  0  2  0  0  0  0  0  0  0  0  0
   17.1452  -10.5238  -15.9144 C   0  0  0  0  0  0  0  0  0  0  0  0
   19.4078  -11.0717  -16.8004 C   0  0  2  0  0  0  0  0  0  0  0  0
   20.2422  -12.2275  -17.2243 N   0  0  0  0  0  0  0  0  0  0  0  0
   20.1534  -10.3386  -15.8080 C   0  0  0  0  0  0  0  0  0  0  0  0
   19.4675   -9.7076  -14.9199 O   0  0  0  0  0  0  0  0  0  0  0  0
   24.3716   -9.8191  -15.4100 O   0  0  0  0  0  0  0  0  0  0  0  0
   23.5389   -9.7608  -14.2909 C   0  0  0  0  0  0  0  0  0  0  0  0
   22.1424   -9.3296  -14.6568 C   0  0  2  0  0  0  0  0  0  0  0  0
   21.5429  -10.1996  -15.6491 N   0  0  0  0  0  0  0  0  0  0  0  0
   22.2052   -7.9476  -15.1951 C   0  0  0  0  0  0  0  0  0  0  0  0
   22.3521   -7.7056  -16.4275 O   0  0  0  0  0  0  0  0  0  0  0  0
   22.0963   -6.8374  -14.2924 N   0  0  0  0  0  0  0  0  0  0  0  0
   22.2065   -5.4777  -14.7414 C   0  0  0  0  0  0  0  0  0  0  0  0
   22.1432   -4.5137  -13.6140 C   0  0  0  0  0  0  0  0  0  0  0  0
   22.3381   -3.1580  -13.8288 O   0  0  0  0  0  0  0  0  0  0  0  0
   21.9133   -4.8925  -12.4407 O   0  0  0  0  0  0  0  0  0  0  0  0
  2  1  1  0
  3  2  1  0
  3  4  1  6
  5  3  1  0
  5  7  1  0
  5  6  1  1
  7  8  2  0
 10  9  1  0
 11 10  1  6
 12 11  1  0
 12  7  1  0
 13 11  1  0
 13 15  1  0
 14 13  2  0
 16 15  1  0
 16 17  1  0
 17 18  1  0
 19 17  2  0
M  END
$$$$
