ISG.pdb
     RDKit          3D

 19 18  0  0  1  0  0  0  0  0999 V2000
   16.7333  -11.9908  -19.3543 C   0  0  0  0  0  0  0  0  0  0  0  0
   18.0138  -12.6396  -18.9032 C   0  0  0  0  0  0  0  0  0  0  0  0
   18.7229  -11.7338  -17.9382 C   0  0  2  0  0  0  0  0  0  0  0  0
   19.0152  -10.3791  -18.5957 C   0  0  0  0  0  0  0  0  0  0  0  0
   19.9638  -12.2936  -17.3156 C   0  0  2  0  0  0  0  0  0  0  0  0
   19.5325  -13.4669  -16.5099 N   0  0  0  0  0  0  0  0  0  0  0  0
   20.7495  -11.4427  -16.4572 C   0  0  0  0  0  0  0  0  0  0  0  0
   20.2727  -11.2065  -15.2850 O   0  0  0  0  0  0  0  0  0  0  0  0
   24.4181  -11.4550  -15.0105 O   0  0  0  0  0  0  0  0  0  0  0  0
   24.1356  -10.2535  -15.6632 C   0  0  0  0  0  0  0  0  0  0  0  0
   22.6543   -9.9843  -15.7193 C   0  0  2  0  0  0  0  0  0  0  0  0
   21.9835  -10.8149  -16.6996 N   0  0  0  0  0  0  0  0  0  0  0  0
   22.4511   -8.5563  -16.0701 C   0  0  0  0  0  0  0  0  0  0  0  0
   22.4224   -8.1492  -17.2670 O   0  0  0  0  0  0  0  0  0  0  0  0
   22.2798   -7.5933  -15.0201 N   0  0  0  0  0  0  0  0  0  0  0  0
   22.1071   -6.1937  -15.2916 C   0  0  0  0  0  0  0  0  0  0  0  0
   22.1840   -5.3745  -14.0558 C   0  0  0  0  0  0  0  0  0  0  0  0
   22.1856   -3.9897  -14.1222 O   0  0  0  0  0  0  0  0  0  0  0  0
   22.2493   -5.9054  -12.9214 O   0  0  0  0  0  0  0  0  0  0  0  0
  2  1  1  0
  3  2  1  0
  3  4  1  6
  5  3  1  0
  5  7  1  0
  5  6  1  1
  7  8  2  0
 10  9  1  0
 11 10  1  6
 12 11  1  0
 12  7  1  0
 13 11  1  0
 13 15  1  0
 14 13  2  0
 16 15  1  0
 16 17  1  0
 17 18  1  0
 19 17  2  0
M  END
$$$$
