ISG.pdb
     RDKit          3D

 19 18  0  0  1  0  0  0  0  0999 V2000
   17.8860  -11.4889  -19.2498 C   0  0  0  0  0  0  0  0  0  0  0  0
   18.7228  -11.5746  -18.0021 C   0  0  0  0  0  0  0  0  0  0  0  0
   18.7875  -10.2250  -17.3471 C   0  0  2  0  0  0  0  0  0  0  0  0
   19.3465   -9.1843  -18.3256 C   0  0  0  0  0  0  0  0  0  0  0  0
   19.5246  -10.1707  -16.0453 C   0  0  2  0  0  0  0  0  0  0  0  0
   18.7981  -11.0778  -15.1173 N   0  0  0  0  0  0  0  0  0  0  0  0
   19.6663   -8.8970  -15.3852 C   0  0  0  0  0  0  0  0  0  0  0  0
   18.5943   -8.3765  -14.8981 O   0  0  0  0  0  0  0  0  0  0  0  0
   21.3188   -7.3518  -12.2945 O   0  0  0  0  0  0  0  0  0  0  0  0
   21.7579   -6.6730  -13.4328 C   0  0  0  0  0  0  0  0  0  0  0  0
   20.7779   -6.7995  -14.5702 C   0  0  2  0  0  0  0  0  0  0  0  0
   20.8150   -8.1131  -15.1815 N   0  0  0  0  0  0  0  0  0  0  0  0
   21.1130   -5.7768  -15.5927 C   0  0  0  0  0  0  0  0  0  0  0  0
   21.9342   -5.9970  -16.5288 O   0  0  0  0  0  0  0  0  0  0  0  0
   20.4879   -4.4868  -15.5261 N   0  0  0  0  0  0  0  0  0  0  0  0
   20.6622   -3.5024  -16.5571 C   0  0  0  0  0  0  0  0  0  0  0  0
   20.0179   -2.2114  -16.2070 C   0  0  0  0  0  0  0  0  0  0  0  0
   20.1991   -1.0902  -17.0020 O   0  0  0  0  0  0  0  0  0  0  0  0
   19.2948   -2.0954  -15.1888 O   0  0  0  0  0  0  0  0  0  0  0  0
  2  1  1  0
  3  2  1  0
  3  4  1  6
  5  3  1  0
  5  7  1  0
  5  6  1  1
  7  8  2  0
 10  9  1  0
 11 10  1  1
 12 11  1  0
 12  7  1  0
 13 11  1  0
 13 15  1  0
 14 13  2  0
 16 15  1  0
 16 17  1  0
 17 18  1  0
 19 17  2  0
M  END
$$$$
