ISG.pdb
     RDKit          3D

 19 18  0  0  1  0  0  0  0  0999 V2000
   15.5722  -12.8957  -16.3213 C   0  0  0  0  0  0  0  0  0  0  0  0
   16.9903  -12.8548  -16.8228 C   0  0  0  0  0  0  0  0  0  0  0  0
   17.7157  -11.7055  -16.1845 C   0  0  2  0  0  0  0  0  0  0  0  0
   16.9974  -10.3854  -16.4920 C   0  0  0  0  0  0  0  0  0  0  0  0
   19.1732  -11.5979  -16.5090 C   0  0  2  0  0  0  0  0  0  0  0  0
   19.7632  -12.9326  -16.2221 N   0  0  0  0  0  0  0  0  0  0  0  0
   19.9645  -10.6146  -15.8126 C   0  0  0  0  0  0  0  0  0  0  0  0
   19.3627   -9.9248  -14.9074 O   0  0  0  0  0  0  0  0  0  0  0  0
   23.8772  -10.4913  -14.4474 O   0  0  0  0  0  0  0  0  0  0  0  0
   23.4692   -9.3822  -15.1910 C   0  0  0  0  0  0  0  0  0  0  0  0
   21.9697   -9.2362  -15.1975 C   0  0  2  0  0  0  0  0  0  0  0  0
   21.3211  -10.2804  -15.9654 N   0  0  0  0  0  0  0  0  0  0  0  0
   21.6306   -7.9164  -15.7865 C   0  0  0  0  0  0  0  0  0  0  0  0
   21.4486   -7.7538  -17.0273 O   0  0  0  0  0  0  0  0  0  0  0  0
   21.5019   -6.7758  -14.9252 N   0  0  0  0  0  0  0  0  0  0  0  0
   21.0738   -5.4958  -15.4160 C   0  0  0  0  0  0  0  0  0  0  0  0
   21.1393   -4.4482  -14.3660 C   0  0  0  0  0  0  0  0  0  0  0  0
   20.8876   -3.1199  -14.6733 O   0  0  0  0  0  0  0  0  0  0  0  0
   21.4222   -4.7296  -13.1770 O   0  0  0  0  0  0  0  0  0  0  0  0
  2  1  1  0
  3  2  1  0
  3  4  1  6
  5  3  1  0
  5  7  1  0
  5  6  1  1
  7  8  2  0
 10  9  1  0
 11 10  1  6
 12 11  1  0
 12  7  1  0
 13 11  1  0
 13 15  1  0
 14 13  2  0
 16 15  1  0
 16 17  1  0
 17 18  1  0
 19 17  2  0
M  END
$$$$
