ISG.pdb
     RDKit          3D

 19 18  0  0  1  0  0  0  0  0999 V2000
   18.1686  -13.5202  -18.1811 C   0  0  0  0  0  0  0  0  0  0  0  0
   18.9414  -12.8920  -17.0532 C   0  0  0  0  0  0  0  0  0  0  0  0
   18.8468  -11.3966  -17.1514 C   0  0  2  0  0  0  0  0  0  0  0  0
   19.3852  -10.9166  -18.5052 C   0  0  0  0  0  0  0  0  0  0  0  0
   19.4826  -10.6318  -16.0326 C   0  0  2  0  0  0  0  0  0  0  0  0
   18.8402  -11.1138  -14.7809 N   0  0  0  0  0  0  0  0  0  0  0  0
   19.3918   -9.1931  -16.0412 C   0  0  0  0  0  0  0  0  0  0  0  0
   20.1241   -8.5733  -16.8996 O   0  0  0  0  0  0  0  0  0  0  0  0
   16.4504   -6.8430  -14.2772 O   0  0  0  0  0  0  0  0  0  0  0  0
   17.1298   -6.3884  -15.4090 C   0  0  0  0  0  0  0  0  0  0  0  0
   18.5446   -6.9045  -15.4548 C   0  0  2  0  0  0  0  0  0  0  0  0
   18.6121   -8.3370  -15.2446 N   0  0  0  0  0  0  0  0  0  0  0  0
   19.3272   -6.2194  -14.3955 C   0  0  0  0  0  0  0  0  0  0  0  0
   19.4383   -6.6857  -13.2253 O   0  0  0  0  0  0  0  0  0  0  0  0
   19.9861   -4.9815  -14.6996 N   0  0  0  0  0  0  0  0  0  0  0  0
   20.8694   -4.3401  -13.7663 C   0  0  0  0  0  0  0  0  0  0  0  0
   22.1942   -5.0075  -13.7068 C   0  0  0  0  0  0  0  0  0  0  0  0
   23.2453   -4.5684  -14.4970 O   0  0  0  0  0  0  0  0  0  0  0  0
   22.4027   -5.9822  -12.9455 O   0  0  0  0  0  0  0  0  0  0  0  0
  2  1  1  0
  3  2  1  0
  3  4  1  6
  5  3  1  0
  5  7  1  0
  5  6  1  1
  7  8  2  0
 10  9  1  0
 11 10  1  1
 12 11  1  0
 12  7  1  0
 13 11  1  0
 13 15  1  0
 14 13  2  0
 16 15  1  0
 16 17  1  0
 17 18  1  0
 19 17  2  0
M  END
$$$$
