YSR.pdb
     RDKit          3D

 30 30  0  0  1  0  0  0  0  0999 V2000
   27.3972  -15.5831  -15.4027 O   0  0  0  0  0  0  0  0  0  0  0  0
   27.5800  -14.3802  -16.0556 C   0  0  0  0  0  0  0  0  0  0  0  0
   26.9258  -13.2234  -15.6410 C   0  0  0  0  0  0  0  0  0  0  0  0
   27.1141  -12.0268  -16.2983 C   0  0  0  0  0  0  0  0  0  0  0  0
   27.9784  -11.9784  -17.4006 C   0  0  0  0  0  0  0  0  0  0  0  0
   28.1390  -10.6828  -18.0825 C   0  0  0  0  0  0  0  0  0  0  0  0
   27.0147  -10.4476  -19.0597 C   0  0  2  0  0  0  0  0  0  0  0  0
   27.1255  -11.5153  -20.0532 N   0  0  0  0  0  0  0  0  0  0  0  0
   27.1989   -9.1272  -19.7022 C   0  0  0  0  0  0  0  0  0  0  0  0
   28.0157   -8.9993  -20.6289 O   0  0  0  0  0  0  0  0  0  0  0  0
   28.6249  -13.1205  -17.8111 C   0  0  0  0  0  0  0  0  0  0  0  0
   28.4310  -14.3157  -17.1468 C   0  0  0  0  0  0  0  0  0  0  0  0
   24.5997   -6.0802  -18.7636 O   0  0  0  0  0  0  0  0  0  0  0  0
   25.1336   -6.0979  -20.0374 C   0  0  0  0  0  0  0  0  0  0  0  0
   26.5140   -6.7318  -19.9649 C   0  0  2  0  0  0  0  0  0  0  0  0
   26.4453   -8.0065  -19.2647 N   0  0  0  0  0  0  0  0  0  0  0  0
   27.4310   -5.8462  -19.2499 C   0  0  0  0  0  0  0  0  0  0  0  0
   27.8899   -6.2311  -18.1196 O   0  0  0  0  0  0  0  0  0  0  0  0
   33.7236   -5.0471  -14.9933 N   0  0  0  0  0  0  0  0  0  0  0  0
   33.4379   -5.8237  -16.1888 C   0  0  0  0  0  0  0  0  0  0  0  0
   33.9138   -6.9961  -16.3224 N   0  0  0  0  0  0  0  0  0  0  0  0
   32.6274   -5.2885  -17.2119 N   0  0  0  0  0  0  0  0  0  0  0  0
   31.9464   -4.0646  -17.1795 C   0  0  0  0  0  0  0  0  0  0  0  0
   31.1888   -3.5800  -18.3529 C   0  0  0  0  0  0  0  0  0  0  0  0
   30.1472   -4.5408  -18.8559 C   0  0  0  0  0  0  0  0  0  0  0  0
   28.8253   -3.8046  -18.9302 C   0  0  2  0  0  0  0  0  0  0  0  0
   27.8745   -4.5705  -19.6960 N   0  0  0  0  0  0  0  0  0  0  0  0
   28.9945   -2.4227  -19.4658 C   0  0  0  0  0  0  0  0  0  0  0  0
   28.7055   -2.2222  -20.6661 O   0  0  0  0  0  0  0  0  0  0  0  0
   29.4495   -1.3585  -18.7168 O   0  0  0  0  0  0  0  0  0  0  0  0
  2  1  1  0
  3  2  2  0
  4  3  1  0
  5 11  1  0
  5  4  2  0
  6  5  1  0
  7  6  1  0
  7  8  1  6
  9  7  1  0
  9 10  2  0
 11 12  2  0
 12  2  1  0
 13 14  1  0
 15 14  1  1
 15 16  1  0
 16  9  1  0
 17 15  1  0
 18 17  2  0
 19 20  1  0
 20 22  1  0
 21 20  2  0
 22 23  1  0
 23 24  1  0
 24 25  1  0
 26 25  1  6
 26 28  1  0
 26 27  1  0
 27 17  1  0
 28 30  1  0
 29 28  2  0
M  END
$$$$
