YSR.pdb
     RDKit          3D

 30 30  0  0  1  0  0  0  0  0999 V2000
   29.0312   -0.9618  -18.8246 O   0  0  0  0  0  0  0  0  0  0  0  0
   29.1723   -2.3214  -19.0201 C   0  0  0  0  0  0  0  0  0  0  0  0
   28.9402   -2.9032  -20.2633 C   0  0  0  0  0  0  0  0  0  0  0  0
   29.0835   -4.2611  -20.4496 C   0  0  0  0  0  0  0  0  0  0  0  0
   29.4690   -5.0649  -19.3682 C   0  0  0  0  0  0  0  0  0  0  0  0
   29.5958   -6.5126  -19.6080 C   0  0  0  0  0  0  0  0  0  0  0  0
   31.0462   -6.9214  -19.6690 C   0  0  2  0  0  0  0  0  0  0  0  0
   31.5672   -6.3439  -20.9078 N   0  0  0  0  0  0  0  0  0  0  0  0
   31.1323   -8.3981  -19.7150 C   0  0  0  0  0  0  0  0  0  0  0  0
   30.8940   -8.9984  -20.7758 O   0  0  0  0  0  0  0  0  0  0  0  0
   29.6983   -4.4913  -18.1397 C   0  0  0  0  0  0  0  0  0  0  0  0
   29.5527   -3.1296  -17.9611 C   0  0  0  0  0  0  0  0  0  0  0  0
   33.6022  -10.4877  -17.2422 O   0  0  0  0  0  0  0  0  0  0  0  0
   32.3456  -11.0559  -17.3197 C   0  0  0  0  0  0  0  0  0  0  0  0
   31.6843  -10.5732  -18.6012 C   0  0  2  0  0  0  0  0  0  0  0  0
   31.4870   -9.1314  -18.5523 N   0  0  0  0  0  0  0  0  0  0  0  0
   30.3864  -11.2246  -18.7670 C   0  0  0  0  0  0  0  0  0  0  0  0
   29.4211  -10.8568  -18.0125 O   0  0  0  0  0  0  0  0  0  0  0  0
   25.3917  -14.3684  -25.4170 N   0  0  0  0  0  0  0  0  0  0  0  0
   24.5785  -14.3986  -24.2122 C   0  0  0  0  0  0  0  0  0  0  0  0
   23.3501  -14.7242  -24.2741 N   0  0  0  0  0  0  0  0  0  0  0  0
   25.1421  -14.0712  -22.9612 N   0  0  0  0  0  0  0  0  0  0  0  0
   26.4512  -13.6297  -22.7282 C   0  0  0  0  0  0  0  0  0  0  0  0
   26.9570  -13.4290  -21.3537 C   0  0  0  0  0  0  0  0  0  0  0  0
   28.3585  -12.8887  -21.2834 C   0  0  0  0  0  0  0  0  0  0  0  0
   28.7468  -12.7771  -19.8234 C   0  0  2  0  0  0  0  0  0  0  0  0
   30.0828  -12.2495  -19.7054 N   0  0  0  0  0  0  0  0  0  0  0  0
   28.5925  -14.0791  -19.1120 C   0  0  0  0  0  0  0  0  0  0  0  0
   29.5998  -14.8140  -19.0143 O   0  0  0  0  0  0  0  0  0  0  0  0
   27.4082  -14.5169  -18.5587 O   0  0  0  0  0  0  0  0  0  0  0  0
  2  1  1  0
  3  2  2  0
  4  3  1  0
  5 11  1  0
  5  4  2  0
  6  5  1  0
  7  6  1  0
  7  8  1  6
  9  7  1  0
  9 10  2  0
 11 12  2  0
 12  2  1  0
 13 14  1  0
 15 14  1  1
 15 16  1  0
 16  9  1  0
 17 15  1  0
 18 17  2  0
 19 20  1  0
 20 22  1  0
 21 20  2  0
 22 23  1  0
 23 24  1  0
 24 25  1  0
 26 25  1  6
 26 28  1  0
 26 27  1  0
 27 17  1  0
 28 30  1  0
 29 28  2  0
M  END
$$$$
