YSR.pdb
     RDKit          3D

 30 30  0  0  1  0  0  0  0  0999 V2000
   21.9926  -19.5479  -22.1934 O   0  0  0  0  0  0  0  0  0  0  0  0
   21.8731  -19.9494  -20.8777 C   0  0  0  0  0  0  0  0  0  0  0  0
   22.4027  -21.1593  -20.4378 C   0  0  0  0  0  0  0  0  0  0  0  0
   22.2790  -21.5524  -19.1228 C   0  0  0  0  0  0  0  0  0  0  0  0
   21.6089  -20.7180  -18.2177 C   0  0  0  0  0  0  0  0  0  0  0  0
   21.4869  -21.1835  -16.8257 C   0  0  0  0  0  0  0  0  0  0  0  0
   22.4095  -20.4094  -15.9180 C   0  0  2  0  0  0  0  0  0  0  0  0
   23.7549  -20.9049  -16.2073 N   0  0  0  0  0  0  0  0  0  0  0  0
   22.0511  -20.6888  -14.5096 C   0  0  0  0  0  0  0  0  0  0  0  0
   22.5797  -21.6424  -13.9148 O   0  0  0  0  0  0  0  0  0  0  0  0
   21.0851  -19.5228  -18.6511 C   0  0  0  0  0  0  0  0  0  0  0  0
   21.2135  -19.1360  -19.9707 C   0  0  0  0  0  0  0  0  0  0  0  0
   19.3910  -18.2025  -12.6124 O   0  0  0  0  0  0  0  0  0  0  0  0
   20.3587  -18.7556  -11.7964 C   0  0  0  0  0  0  0  0  0  0  0  0
   20.8156  -20.0643  -12.4216 C   0  0  2  0  0  0  0  0  0  0  0  0
   21.1067  -19.8713  -13.8351 N   0  0  0  0  0  0  0  0  0  0  0  0
   19.7664  -21.0730  -12.2865 C   0  0  0  0  0  0  0  0  0  0  0  0
   18.9058  -21.1841  -13.2263 O   0  0  0  0  0  0  0  0  0  0  0  0
   17.9681  -26.9334   -5.9673 N   0  0  0  0  0  0  0  0  0  0  0  0
   17.5147  -25.5595   -6.1110 C   0  0  0  0  0  0  0  0  0  0  0  0
   17.0296  -24.9353   -5.1141 N   0  0  0  0  0  0  0  0  0  0  0  0
   17.6106  -24.9018   -7.3552 N   0  0  0  0  0  0  0  0  0  0  0  0
   17.2437  -25.4234   -8.6027 C   0  0  0  0  0  0  0  0  0  0  0  0
   17.3664  -24.6158   -9.8349 C   0  0  0  0  0  0  0  0  0  0  0  0
   18.5161  -23.6468   -9.8270 C   0  0  0  0  0  0  0  0  0  0  0  0
   18.4792  -22.8628  -11.1228 C   0  0  2  0  0  0  0  0  0  0  0  0
   19.6038  -21.9639  -11.1897 N   0  0  0  0  0  0  0  0  0  0  0  0
   17.1802  -22.1509  -11.2982 C   0  0  0  0  0  0  0  0  0  0  0  0
   17.0517  -21.0293  -10.7599 O   0  0  0  0  0  0  0  0  0  0  0  0
   16.1177  -22.6565  -12.0166 O   0  0  0  0  0  0  0  0  0  0  0  0
  2  1  1  0
  3  2  2  0
  4  3  1  0
  5 11  1  0
  5  4  2  0
  6  5  1  0
  7  6  1  0
  7  8  1  1
  9  7  1  0
  9 10  2  0
 11 12  2  0
 12  2  1  0
 13 14  1  0
 15 14  1  6
 15 16  1  0
 16  9  1  0
 17 15  1  0
 18 17  2  0
 19 20  1  0
 20 22  1  0
 21 20  2  0
 22 23  1  0
 23 24  1  0
 24 25  1  0
 26 25  1  1
 26 28  1  0
 26 27  1  0
 27 17  1  0
 28 30  1  0
 29 28  2  0
M  END
$$$$
