YSR.pdb
     RDKit          3D

 30 30  0  0  1  0  0  0  0  0999 V2000
   26.1251   -4.4835  -16.2311 O   0  0  0  0  0  0  0  0  0  0  0  0
   25.0908   -5.2789  -15.7793 C   0  0  0  0  0  0  0  0  0  0  0  0
   24.9321   -6.5867  -16.2291 C   0  0  0  0  0  0  0  0  0  0  0  0
   23.8970   -7.3739  -15.7729 C   0  0  0  0  0  0  0  0  0  0  0  0
   22.9924   -6.8455  -14.8417 C   0  0  0  0  0  0  0  0  0  0  0  0
   21.8929   -7.7161  -14.3921 C   0  0  0  0  0  0  0  0  0  0  0  0
   20.5605   -7.1771  -14.8488 C   0  0  2  0  0  0  0  0  0  0  0  0
   20.1469   -6.2233  -13.8199 N   0  0  0  0  0  0  0  0  0  0  0  0
   19.5905   -8.2915  -14.9356 C   0  0  0  0  0  0  0  0  0  0  0  0
   18.7106   -8.4141  -14.0677 O   0  0  0  0  0  0  0  0  0  0  0  0
   23.1481   -5.5537  -14.3970 C   0  0  0  0  0  0  0  0  0  0  0  0
   24.1883   -4.7714  -14.8589 C   0  0  0  0  0  0  0  0  0  0  0  0
   16.3196   -9.7365  -17.3351 O   0  0  0  0  0  0  0  0  0  0  0  0
   17.3817   -8.9962  -16.8535 C   0  0  0  0  0  0  0  0  0  0  0  0
   18.4842   -9.9595  -16.4424 C   0  0  2  0  0  0  0  0  0  0  0  0
   19.6606   -9.2202  -16.0070 N   0  0  0  0  0  0  0  0  0  0  0  0
   18.8496  -10.8094  -17.5740 C   0  0  0  0  0  0  0  0  0  0  0  0
   19.4429  -10.2713  -18.5714 O   0  0  0  0  0  0  0  0  0  0  0  0
   20.9196  -18.3413  -18.6946 N   0  0  0  0  0  0  0  0  0  0  0  0
   19.5093  -18.0720  -18.4655 C   0  0  0  0  0  0  0  0  0  0  0  0
   18.7564  -18.9688  -17.9679 N   0  0  0  0  0  0  0  0  0  0  0  0
   18.9606  -16.8131  -18.7882 N   0  0  0  0  0  0  0  0  0  0  0  0
   19.1015  -16.1309  -20.0038 C   0  0  0  0  0  0  0  0  0  0  0  0
   18.3657  -14.8757  -20.2656 C   0  0  0  0  0  0  0  0  0  0  0  0
   17.9742  -14.1188  -19.0268 C   0  0  0  0  0  0  0  0  0  0  0  0
   18.8939  -12.9221  -18.8966 C   0  0  2  0  0  0  0  0  0  0  0  0
   18.6062  -12.2068  -17.6788 N   0  0  0  0  0  0  0  0  0  0  0  0
   18.8212  -12.0392  -20.0967 C   0  0  0  0  0  0  0  0  0  0  0  0
   17.7639  -11.3987  -20.2873 O   0  0  0  0  0  0  0  0  0  0  0  0
   19.8483  -11.8896  -21.0040 O   0  0  0  0  0  0  0  0  0  0  0  0
  2  1  1  0
  3  2  2  0
  4  3  1  0
  5 11  1  0
  5  4  2  0
  6  5  1  0
  7  6  1  0
  7  8  1  1
  9  7  1  0
  9 10  2  0
 11 12  2  0
 12  2  1  0
 13 14  1  0
 15 14  1  6
 15 16  1  0
 16  9  1  0
 17 15  1  0
 18 17  2  0
 19 20  1  0
 20 22  1  0
 21 20  2  0
 22 23  1  0
 23 24  1  0
 24 25  1  0
 26 25  1  6
 26 28  1  0
 26 27  1  0
 27 17  1  0
 28 30  1  0
 29 28  2  0
M  END
$$$$
