YSR.pdb
     RDKit          3D

 30 30  0  0  1  0  0  0  0  0999 V2000
   26.7718  -20.3907  -21.3589 O   0  0  0  0  0  0  0  0  0  0  0  0
   25.9087  -20.1404  -20.3106 C   0  0  0  0  0  0  0  0  0  0  0  0
   25.9242  -18.9244  -19.6330 C   0  0  0  0  0  0  0  0  0  0  0  0
   25.0590  -18.6829  -18.5878 C   0  0  0  0  0  0  0  0  0  0  0  0
   24.1514  -19.6797  -18.2044 C   0  0  0  0  0  0  0  0  0  0  0  0
   23.2554  -19.3850  -17.0732 C   0  0  0  0  0  0  0  0  0  0  0  0
   21.8548  -19.1042  -17.5569 C   0  0  2  0  0  0  0  0  0  0  0  0
   21.9197  -17.8014  -18.2188 N   0  0  0  0  0  0  0  0  0  0  0  0
   20.9427  -19.0439  -16.3930 C   0  0  0  0  0  0  0  0  0  0  0  0
   20.6747  -17.9479  -15.8739 O   0  0  0  0  0  0  0  0  0  0  0  0
   24.1355  -20.8813  -18.8728 C   0  0  0  0  0  0  0  0  0  0  0  0
   25.0056  -21.1154  -19.9194 C   0  0  0  0  0  0  0  0  0  0  0  0
   17.6824  -19.9787  -16.3838 O   0  0  0  0  0  0  0  0  0  0  0  0
   18.1667  -19.4079  -15.2230 C   0  0  0  0  0  0  0  0  0  0  0  0
   19.3971  -20.1883  -14.7875 C   0  0  2  0  0  0  0  0  0  0  0  0
   20.3720  -20.2330  -15.8680 N   0  0  0  0  0  0  0  0  0  0  0  0
   19.0193  -21.5549  -14.4322 C   0  0  0  0  0  0  0  0  0  0  0  0
   18.8298  -22.3977  -15.3756 O   0  0  0  0  0  0  0  0  0  0  0  0
   18.7765  -26.5395   -6.8517 N   0  0  0  0  0  0  0  0  0  0  0  0
   18.5510  -25.2000   -7.3703 C   0  0  0  0  0  0  0  0  0  0  0  0
   18.2493  -24.2481   -6.5819 N   0  0  0  0  0  0  0  0  0  0  0  0
   18.6675  -24.9396   -8.7518 N   0  0  0  0  0  0  0  0  0  0  0  0
   17.9488  -25.5638   -9.7798 C   0  0  0  0  0  0  0  0  0  0  0  0
   18.1316  -25.1649  -11.1915 C   0  0  0  0  0  0  0  0  0  0  0  0
   18.3651  -23.6932  -11.3927 C   0  0  0  0  0  0  0  0  0  0  0  0
   18.5566  -23.4458  -12.8750 C   0  0  2  0  0  0  0  0  0  0  0  0
   18.8379  -22.0522  -13.1120 N   0  0  0  0  0  0  0  0  0  0  0  0
   17.3879  -23.9254  -13.6683 C   0  0  0  0  0  0  0  0  0  0  0  0
   16.4249  -23.1420  -13.8212 O   0  0  0  0  0  0  0  0  0  0  0  0
   17.3088  -25.1774  -14.2399 O   0  0  0  0  0  0  0  0  0  0  0  0
  2  1  1  0
  3  2  2  0
  4  3  1  0
  5 11  1  0
  5  4  2  0
  6  5  1  0
  7  6  1  0
  7  8  1  1
  9  7  1  0
  9 10  2  0
 11 12  2  0
 12  2  1  0
 13 14  1  0
 15 14  1  6
 15 16  1  0
 16  9  1  0
 17 15  1  0
 18 17  2  0
 19 20  1  0
 20 22  1  0
 21 20  2  0
 22 23  1  0
 23 24  1  0
 24 25  1  0
 26 25  1  1
 26 28  1  0
 26 27  1  0
 27 17  1  0
 28 30  1  0
 29 28  2  0
M  END
$$$$
