YSR.pdb
     RDKit          3D

 30 30  0  0  1  0  0  0  0  0999 V2000
   27.9523  -11.8429  -16.1826 O   0  0  0  0  0  0  0  0  0  0  0  0
   27.3327  -13.0636  -16.0023 C   0  0  0  0  0  0  0  0  0  0  0  0
   26.3062  -13.4868  -16.8421 C   0  0  0  0  0  0  0  0  0  0  0  0
   25.6932  -14.7068  -16.6552 C   0  0  0  0  0  0  0  0  0  0  0  0
   26.1128  -15.5310  -15.6020 C   0  0  0  0  0  0  0  0  0  0  0  0
   25.4206  -16.8195  -15.4295 C   0  0  0  0  0  0  0  0  0  0  0  0
   26.3987  -17.9660  -15.4866 C   0  0  2  0  0  0  0  0  0  0  0  0
   26.7970  -18.0756  -16.8897 N   0  0  0  0  0  0  0  0  0  0  0  0
   25.7195  -19.2053  -15.0474 C   0  0  0  0  0  0  0  0  0  0  0  0
   25.0729  -19.8792  -15.8661 O   0  0  0  0  0  0  0  0  0  0  0  0
   27.1264  -15.1138  -14.7717 C   0  0  0  0  0  0  0  0  0  0  0  0
   27.7358  -13.8898  -14.9659 C   0  0  0  0  0  0  0  0  0  0  0  0
   25.5910  -20.2768  -11.0045 O   0  0  0  0  0  0  0  0  0  0  0  0
   25.7426  -21.3014  -11.9183 C   0  0  0  0  0  0  0  0  0  0  0  0
   25.1500  -20.8476  -13.2432 C   0  0  2  0  0  0  0  0  0  0  0  0
   25.8045  -19.6278  -13.6947 N   0  0  0  0  0  0  0  0  0  0  0  0
   23.7201  -20.5886  -13.0858 C   0  0  0  0  0  0  0  0  0  0  0  0
   23.3428  -19.3913  -12.8401 O   0  0  0  0  0  0  0  0  0  0  0  0
   15.8524  -25.0812  -13.3461 N   0  0  0  0  0  0  0  0  0  0  0  0
   15.5717  -23.7031  -12.9770 C   0  0  0  0  0  0  0  0  0  0  0  0
   14.3744  -23.3233  -12.7746 N   0  0  0  0  0  0  0  0  0  0  0  0
   16.6227  -22.7730  -12.8356 N   0  0  0  0  0  0  0  0  0  0  0  0
   17.9859  -23.0194  -13.0455 C   0  0  0  0  0  0  0  0  0  0  0  0
   18.9926  -21.9523  -12.8628 C   0  0  0  0  0  0  0  0  0  0  0  0
   20.3971  -22.3614  -13.2106 C   0  0  0  0  0  0  0  0  0  0  0  0
   21.3272  -21.2330  -12.8147 C   0  0  2  0  0  0  0  0  0  0  0  0
   22.6829  -21.5572  -13.1813 N   0  0  0  0  0  0  0  0  0  0  0  0
   21.2018  -20.8992  -11.3663 C   0  0  0  0  0  0  0  0  0  0  0  0
   21.9885  -21.4553  -10.5687 O   0  0  0  0  0  0  0  0  0  0  0  0
   20.2722  -20.0166  -10.8588 O   0  0  0  0  0  0  0  0  0  0  0  0
  2  1  1  0
  3  2  2  0
  4  3  1  0
  5 11  1  0
  5  4  2  0
  6  5  1  0
  7  6  1  0
  7  8  1  6
  9  7  1  0
  9 10  2  0
 11 12  2  0
 12  2  1  0
 13 14  1  0
 15 14  1  1
 15 16  1  0
 16  9  1  0
 17 15  1  0
 18 17  2  0
 19 20  1  0
 20 22  1  0
 21 20  2  0
 22 23  1  0
 23 24  1  0
 24 25  1  0
 26 25  1  1
 26 28  1  0
 26 27  1  0
 27 17  1  0
 28 30  1  0
 29 28  2  0
M  END
$$$$
