YSR.pdb
     RDKit          3D

 30 30  0  0  1  0  0  0  0  0999 V2000
   29.1343  -19.3610   -4.9055 O   0  0  0  0  0  0  0  0  0  0  0  0
   28.5746  -19.5215   -6.1575 C   0  0  0  0  0  0  0  0  0  0  0  0
   29.3535  -19.8520   -7.2630 C   0  0  0  0  0  0  0  0  0  0  0  0
   28.7868  -20.0104   -8.5091 C   0  0  0  0  0  0  0  0  0  0  0  0
   27.4046  -19.8350   -8.6613 C   0  0  0  0  0  0  0  0  0  0  0  0
   26.8429  -19.9992  -10.0129 C   0  0  0  0  0  0  0  0  0  0  0  0
   26.2193  -21.3630  -10.1728 C   0  0  2  0  0  0  0  0  0  0  0  0
   27.3306  -22.2767  -10.4366 N   0  0  0  0  0  0  0  0  0  0  0  0
   25.2898  -21.3392  -11.3243 C   0  0  0  0  0  0  0  0  0  0  0  0
   25.6907  -21.6794  -12.4494 O   0  0  0  0  0  0  0  0  0  0  0  0
   26.6343  -19.5081   -7.5701 C   0  0  0  0  0  0  0  0  0  0  0  0
   27.2099  -19.3514   -6.3245 C   0  0  0  0  0  0  0  0  0  0  0  0
   21.3769  -20.3977  -10.5692 O   0  0  0  0  0  0  0  0  0  0  0  0
   21.5770  -21.4817  -11.4015 C   0  0  0  0  0  0  0  0  0  0  0  0
   22.9108  -21.2979  -12.1084 C   0  0  2  0  0  0  0  0  0  0  0  0
   23.9418  -20.9304  -11.1482 N   0  0  0  0  0  0  0  0  0  0  0  0
   22.7999  -20.2420  -13.1131 C   0  0  0  0  0  0  0  0  0  0  0  0
   22.9384  -19.0276  -12.7361 O   0  0  0  0  0  0  0  0  0  0  0  0
   23.2386  -21.2823  -20.4376 N   0  0  0  0  0  0  0  0  0  0  0  0
   23.0518  -19.8525  -20.6242 C   0  0  0  0  0  0  0  0  0  0  0  0
   22.4242  -19.4138  -21.6402 N   0  0  0  0  0  0  0  0  0  0  0  0
   23.5604  -18.9362  -19.6800 N   0  0  0  0  0  0  0  0  0  0  0  0
   24.3828  -19.2382  -18.5866 C   0  0  0  0  0  0  0  0  0  0  0  0
   23.9394  -18.9753  -17.2011 C   0  0  0  0  0  0  0  0  0  0  0  0
   22.6839  -19.7020  -16.8054 C   0  0  0  0  0  0  0  0  0  0  0  0
   22.3444  -19.3130  -15.3812 C   0  0  2  0  0  0  0  0  0  0  0  0
   22.5481  -20.4350  -14.4997 N   0  0  0  0  0  0  0  0  0  0  0  0
   20.9630  -18.7602  -15.2763 C   0  0  0  0  0  0  0  0  0  0  0  0
   20.0327  -19.5572  -15.0236 O   0  0  0  0  0  0  0  0  0  0  0  0
   20.6542  -17.4268  -15.4414 O   0  0  0  0  0  0  0  0  0  0  0  0
  2  1  1  0
  3  2  2  0
  4  3  1  0
  5 11  1  0
  5  4  2  0
  6  5  1  0
  7  6  1  0
  7  8  1  6
  9  7  1  0
  9 10  2  0
 11 12  2  0
 12  2  1  0
 13 14  1  0
 15 14  1  1
 15 16  1  0
 16  9  1  0
 17 15  1  0
 18 17  2  0
 19 20  1  0
 20 22  1  0
 21 20  2  0
 22 23  1  0
 23 24  1  0
 24 25  1  0
 26 25  1  6
 26 28  1  0
 26 27  1  0
 27 17  1  0
 28 30  1  0
 29 28  2  0
M  END
$$$$
