SPA.pdb
     RDKit          3D

 19 19  0  0  1  0  0  0  0  0999 V2000
    7.2252  -19.5456   19.8999 O   0  0  0  0  0  0  0  0  0  0  0  0
    6.3517  -18.4352   19.8176 C   0  0  0  0  0  0  0  0  0  0  0  0
    7.0476  -17.4516   18.8573 C   0  0  2  0  0  0  0  0  0  0  0  0
    7.4842  -18.3274   17.7521 N   0  0  0  0  0  0  0  0  0  0  0  0
    8.2508  -16.9407   19.5233 C   0  0  0  0  0  0  0  0  0  0  0  0
    9.3813  -17.3297   19.0984 O   0  0  0  0  0  0  0  0  0  0  0  0
    8.2238  -16.0290   20.6233 N   0  0  0  0  0  0  0  0  0  0  0  0
    7.0145  -15.5800   21.2797 C   0  0  0  0  0  0  0  0  0  0  0  0
    7.3710  -14.2469   21.9049 C   0  0  0  0  0  0  0  0  0  0  0  0
    8.7843  -13.9442   21.3953 C   0  0  0  0  0  0  0  0  0  0  0  0
    9.3128  -15.3711   21.3005 C   0  0  1  0  0  0  0  0  0  0  0  0
    9.4647  -15.9866   22.6407 C   0  0  0  0  0  0  0  0  0  0  0  0
    8.4843  -16.4558   23.2434 O   0  0  0  0  0  0  0  0  0  0  0  0
   12.4872  -17.6995   23.8248 C   0  0  0  0  0  0  0  0  0  0  0  0
   11.0687  -17.2445   24.0715 C   0  0  2  0  0  0  0  0  0  0  0  0
   10.7298  -16.0703   23.2983 N   0  0  0  0  0  0  0  0  0  0  0  0
   10.8287  -17.0028   25.5086 C   0  0  0  0  0  0  0  0  0  0  0  0
   10.4263  -15.8861   25.8949 O   0  0  0  0  0  0  0  0  0  0  0  0
   11.0525  -18.0179   26.4133 O   0  0  0  0  0  0  0  0  0  0  0  0
  1  2  1  0
  2  3  1  0
  3  5  1  0
  3  4  1  6
  5  6  2  0
  7 11  1  0
  7  5  1  0
  8  7  1  0
  9  8  1  0
  9 10  1  0
 10 11  1  0
 11 12  1  1
 12 13  2  0
 12 16  1  0
 15 14  1  1
 15 17  1  0
 16 15  1  0
 17 18  2  0
 17 19  1  0
M  END
$$$$
