SPA.pdb
     RDKit          3D

 19 19  0  0  1  0  0  0  0  0999 V2000
    6.8964  -19.1347   23.2826 O   0  0  0  0  0  0  0  0  0  0  0  0
    6.2406  -18.1956   22.4514 C   0  0  0  0  0  0  0  0  0  0  0  0
    7.2729  -17.8360   21.3654 C   0  0  2  0  0  0  0  0  0  0  0  0
    7.9615  -19.1205   21.1309 N   0  0  0  0  0  0  0  0  0  0  0  0
    8.2464  -16.9090   21.9531 C   0  0  0  0  0  0  0  0  0  0  0  0
    9.4119  -17.3438   22.2032 O   0  0  0  0  0  0  0  0  0  0  0  0
    7.9585  -15.5433   22.2597 N   0  0  0  0  0  0  0  0  0  0  0  0
    6.6478  -14.9408   22.1419 C   0  0  0  0  0  0  0  0  0  0  0  0
    6.9046  -13.4591   21.9588 C   0  0  0  0  0  0  0  0  0  0  0  0
    8.4262  -13.3428   21.8174 C   0  0  0  0  0  0  0  0  0  0  0  0
    8.8373  -14.4989   22.7224 C   0  0  1  0  0  0  0  0  0  0  0  0
    8.5178  -14.2197   24.1430 C   0  0  0  0  0  0  0  0  0  0  0  0
    7.3748  -14.4134   24.5910 O   0  0  0  0  0  0  0  0  0  0  0  0
    7.7420  -13.0642   26.6425 C   0  0  0  0  0  0  0  0  0  0  0  0
    9.1605  -13.5456   26.4526 C   0  0  2  0  0  0  0  0  0  0  0  0
    9.4954  -13.7203   25.0567 N   0  0  0  0  0  0  0  0  0  0  0  0
    9.4044  -14.7947   27.2020 C   0  0  0  0  0  0  0  0  0  0  0  0
    9.2968  -14.8075   28.4455 O   0  0  0  0  0  0  0  0  0  0  0  0
    9.7501  -15.9395   26.5173 O   0  0  0  0  0  0  0  0  0  0  0  0
  1  2  1  0
  2  3  1  0
  3  5  1  0
  3  4  1  1
  5  6  2  0
  7 11  1  0
  7  5  1  0
  8  7  1  0
  9  8  1  0
  9 10  1  0
 10 11  1  0
 11 12  1  1
 12 13  2  0
 12 16  1  0
 15 14  1  6
 15 17  1  0
 16 15  1  0
 17 18  2  0
 17 19  1  0
M  END
$$$$
