SPA.pdb
     RDKit          3D

 19 19  0  0  1  0  0  0  0  0999 V2000
    6.2692  -18.9362   18.4483 O   0  0  0  0  0  0  0  0  0  0  0  0
    7.4849  -18.6022   19.0913 C   0  0  0  0  0  0  0  0  0  0  0  0
    7.9040  -17.2537   18.4748 C   0  0  2  0  0  0  0  0  0  0  0  0
    8.6224  -17.6626   17.2518 N   0  0  0  0  0  0  0  0  0  0  0  0
    8.8776  -16.6256   19.3749 C   0  0  0  0  0  0  0  0  0  0  0  0
   10.1030  -16.6568   19.0472 O   0  0  0  0  0  0  0  0  0  0  0  0
    8.5258  -15.9795   20.5999 N   0  0  0  0  0  0  0  0  0  0  0  0
    7.1894  -15.9581   21.1551 C   0  0  0  0  0  0  0  0  0  0  0  0
    7.1441  -14.7288   22.0394 C   0  0  0  0  0  0  0  0  0  0  0  0
    8.4761  -14.0158   21.7823 C   0  0  0  0  0  0  0  0  0  0  0  0
    9.3511  -15.2361   21.5184 C   0  0  1  0  0  0  0  0  0  0  0  0
    9.5327  -16.0521   22.7428 C   0  0  0  0  0  0  0  0  0  0  0  0
    8.6106  -16.7603   23.1815 O   0  0  0  0  0  0  0  0  0  0  0  0
   12.6629  -17.4905   24.0809 C   0  0  0  0  0  0  0  0  0  0  0  0
   11.1739  -17.2582   24.1760 C   0  0  2  0  0  0  0  0  0  0  0  0
   10.7615  -16.0649   23.4708 N   0  0  0  0  0  0  0  0  0  0  0  0
   10.7317  -17.2040   25.5842 C   0  0  0  0  0  0  0  0  0  0  0  0
   11.0030  -18.1436   26.3599 O   0  0  0  0  0  0  0  0  0  0  0  0
   10.0205  -16.1112   26.0298 O   0  0  0  0  0  0  0  0  0  0  0  0
  1  2  1  0
  2  3  1  0
  3  5  1  0
  3  4  1  6
  5  6  2  0
  7 11  1  0
  7  5  1  0
  8  7  1  0
  9  8  1  0
  9 10  1  0
 10 11  1  0
 11 12  1  1
 12 13  2  0
 12 16  1  0
 15 14  1  1
 15 17  1  0
 16 15  1  0
 17 18  2  0
 17 19  1  0
M  END
$$$$
