SPA.pdb
     RDKit          3D

 19 19  0  0  1  0  0  0  0  0999 V2000
    7.6259  -16.4438   22.4500 O   0  0  0  0  0  0  0  0  0  0  0  0
    6.5208  -15.5876   22.6699 C   0  0  0  0  0  0  0  0  0  0  0  0
    7.0729  -14.1639   22.4638 C   0  0  2  0  0  0  0  0  0  0  0  0
    7.7037  -14.2476   21.1318 N   0  0  0  0  0  0  0  0  0  0  0  0
    8.1379  -13.9427   23.4483 C   0  0  0  0  0  0  0  0  0  0  0  0
    9.3385  -13.9251   23.0380 O   0  0  0  0  0  0  0  0  0  0  0  0
    7.9017  -13.7448   24.8437 N   0  0  0  0  0  0  0  0  0  0  0  0
    6.5940  -13.7870   25.4625 C   0  0  0  0  0  0  0  0  0  0  0  0
    6.7222  -12.9572   26.7236 C   0  0  0  0  0  0  0  0  0  0  0  0
    8.1223  -12.3394   26.6417 C   0  0  0  0  0  0  0  0  0  0  0  0
    8.8363  -13.4672   25.9051 C   0  0  1  0  0  0  0  0  0  0  0  0
    8.9537  -14.6809   26.7485 C   0  0  0  0  0  0  0  0  0  0  0  0
    7.9477  -15.3369   27.0679 O   0  0  0  0  0  0  0  0  0  0  0  0
   11.4811  -17.2500   27.1438 C   0  0  0  0  0  0  0  0  0  0  0  0
   10.3317  -16.4908   27.7622 C   0  0  2  0  0  0  0  0  0  0  0  0
   10.2134  -15.1512   27.2303 N   0  0  0  0  0  0  0  0  0  0  0  0
   10.4482  -16.4531   29.2340 C   0  0  0  0  0  0  0  0  0  0  0  0
   10.5318  -17.5175   29.8808 O   0  0  0  0  0  0  0  0  0  0  0  0
   10.4634  -15.2371   29.8819 O   0  0  0  0  0  0  0  0  0  0  0  0
  1  2  1  0
  2  3  1  0
  3  5  1  0
  3  4  1  6
  5  6  2  0
  7 11  1  0
  7  5  1  0
  8  7  1  0
  9  8  1  0
  9 10  1  0
 10 11  1  0
 11 12  1  1
 12 13  2  0
 12 16  1  0
 15 14  1  6
 15 17  1  0
 16 15  1  0
 17 18  2  0
 17 19  1  0
M  END
$$$$
