SPA.pdb
     RDKit          3D

 19 19  0  0  1  0  0  0  0  0999 V2000
    6.4931  -17.5667   20.8320 O   0  0  0  0  0  0  0  0  0  0  0  0
    6.4670  -18.3661   19.6645 C   0  0  0  0  0  0  0  0  0  0  0  0
    6.6391  -17.3735   18.4985 C   0  0  2  0  0  0  0  0  0  0  0  0
    6.7907  -18.2639   17.3309 N   0  0  0  0  0  0  0  0  0  0  0  0
    7.9104  -16.6661   18.6878 C   0  0  0  0  0  0  0  0  0  0  0  0
    8.9810  -17.2586   18.3522 O   0  0  0  0  0  0  0  0  0  0  0  0
    8.0131  -15.3471   19.2278 N   0  0  0  0  0  0  0  0  0  0  0  0
    6.9172  -14.6327   19.8469 C   0  0  0  0  0  0  0  0  0  0  0  0
    7.2652  -13.1653   19.7029 C   0  0  0  0  0  0  0  0  0  0  0  0
    8.5207  -13.1480   18.8241 C   0  0  0  0  0  0  0  0  0  0  0  0
    9.1480  -14.4603   19.2812 C   0  0  1  0  0  0  0  0  0  0  0  0
    9.6101  -14.3831   20.6878 C   0  0  0  0  0  0  0  0  0  0  0  0
   10.6298  -13.7407   20.9912 O   0  0  0  0  0  0  0  0  0  0  0  0
    8.2577  -14.6426   24.0828 C   0  0  0  0  0  0  0  0  0  0  0  0
    9.3853  -14.9032   23.1129 C   0  0  2  0  0  0  0  0  0  0  0  0
    8.9150  -15.0350   21.7517 N   0  0  0  0  0  0  0  0  0  0  0  0
   10.1633  -16.0950   23.5077 C   0  0  0  0  0  0  0  0  0  0  0  0
   10.8133  -16.0909   24.5733 O   0  0  0  0  0  0  0  0  0  0  0  0
   10.1637  -17.2052   22.6914 O   0  0  0  0  0  0  0  0  0  0  0  0
  1  2  1  0
  2  3  1  0
  3  5  1  0
  3  4  1  6
  5  6  2  0
  7 11  1  0
  7  5  1  0
  8  7  1  0
  9  8  1  0
  9 10  1  0
 10 11  1  0
 11 12  1  1
 12 13  2  0
 12 16  1  0
 15 14  1  1
 15 17  1  0
 16 15  1  0
 17 18  2  0
 17 19  1  0
M  END
$$$$
