SPA.pdb
     RDKit          3D

 19 19  0  0  1  0  0  0  0  0999 V2000
    8.6993  -18.8997   18.9639 O   0  0  0  0  0  0  0  0  0  0  0  0
    7.9403  -17.8593   18.3771 C   0  0  0  0  0  0  0  0  0  0  0  0
    8.9704  -16.7744   18.0082 C   0  0  2  0  0  0  0  0  0  0  0  0
   10.1102  -17.5643   17.5023 N   0  0  0  0  0  0  0  0  0  0  0  0
    9.3995  -16.1153   19.2467 C   0  0  0  0  0  0  0  0  0  0  0  0
   10.5768  -16.3356   19.6654 O   0  0  0  0  0  0  0  0  0  0  0  0
    8.5682  -15.2381   20.0093 N   0  0  0  0  0  0  0  0  0  0  0  0
    7.1863  -14.9459   19.6933 C   0  0  0  0  0  0  0  0  0  0  0  0
    6.9101  -13.5954   20.3218 C   0  0  0  0  0  0  0  0  0  0  0  0
    8.2728  -13.1211   20.8384 C   0  0  0  0  0  0  0  0  0  0  0  0
    8.8765  -14.4755   21.1928 C   0  0  1  0  0  0  0  0  0  0  0  0
    8.1779  -15.1002   22.3417 C   0  0  0  0  0  0  0  0  0  0  0  0
    7.0958  -15.6913   22.1870 O   0  0  0  0  0  0  0  0  0  0  0  0
    9.2540  -16.2007   25.7667 C   0  0  0  0  0  0  0  0  0  0  0  0
    8.2413  -15.9903   24.6667 C   0  0  2  0  0  0  0  0  0  0  0  0
    8.7071  -15.0544   23.6675 N   0  0  0  0  0  0  0  0  0  0  0  0
    6.9411  -15.5546   25.2154 C   0  0  0  0  0  0  0  0  0  0  0  0
    6.5327  -14.3939   25.0055 O   0  0  0  0  0  0  0  0  0  0  0  0
    6.1880  -16.4385   25.9574 O   0  0  0  0  0  0  0  0  0  0  0  0
  1  2  1  0
  2  3  1  0
  3  5  1  0
  3  4  1  1
  5  6  2  0
  7 11  1  0
  7  5  1  0
  8  7  1  0
  9  8  1  0
  9 10  1  0
 10 11  1  0
 11 12  1  1
 12 13  2  0
 12 16  1  0
 15 14  1  1
 15 17  1  0
 16 15  1  0
 17 18  2  0
 17 19  1  0
M  END
$$$$
