SPA.pdb
     RDKit          3D

 19 19  0  0  1  0  0  0  0  0999 V2000
    7.0835  -16.1047   21.8815 O   0  0  0  0  0  0  0  0  0  0  0  0
    6.1848  -15.0506   22.1714 C   0  0  0  0  0  0  0  0  0  0  0  0
    7.0480  -13.7744   22.1504 C   0  0  2  0  0  0  0  0  0  0  0  0
    7.7600  -13.8826   20.8618 N   0  0  0  0  0  0  0  0  0  0  0  0
    8.0450  -13.8825   23.2212 C   0  0  0  0  0  0  0  0  0  0  0  0
    9.2554  -14.0786   22.8949 O   0  0  0  0  0  0  0  0  0  0  0  0
    7.7323  -13.7789   24.6117 N   0  0  0  0  0  0  0  0  0  0  0  0
    6.3879  -13.6837   25.1394 C   0  0  0  0  0  0  0  0  0  0  0  0
    6.5340  -12.9993   26.4830 C   0  0  0  0  0  0  0  0  0  0  0  0
    8.0091  -12.5896   26.5522 C   0  0  0  0  0  0  0  0  0  0  0  0
    8.6122  -13.7391   25.7525 C   0  0  1  0  0  0  0  0  0  0  0  0
    8.4925  -15.0280   26.4753 C   0  0  0  0  0  0  0  0  0  0  0  0
    7.3946  -15.6000   26.5845 O   0  0  0  0  0  0  0  0  0  0  0  0
   10.7154  -17.5459   25.9366 C   0  0  0  0  0  0  0  0  0  0  0  0
    9.7521  -17.1078   27.0137 C   0  0  2  0  0  0  0  0  0  0  0  0
    9.6192  -15.6691   27.0750 N   0  0  0  0  0  0  0  0  0  0  0  0
   10.1453  -17.6462   28.3316 C   0  0  0  0  0  0  0  0  0  0  0  0
   10.4651  -16.8677   29.2535 O   0  0  0  0  0  0  0  0  0  0  0  0
   10.1551  -19.0096   28.5314 O   0  0  0  0  0  0  0  0  0  0  0  0
  1  2  1  0
  2  3  1  0
  3  5  1  0
  3  4  1  6
  5  6  2  0
  7 11  1  0
  7  5  1  0
  8  7  1  0
  9  8  1  0
  9 10  1  0
 10 11  1  0
 11 12  1  1
 12 13  2  0
 12 16  1  0
 15 14  1  6
 15 17  1  0
 16 15  1  0
 17 18  2  0
 17 19  1  0
M  END
$$$$
