CRL.pdb
     RDKit          3D

 26 25  0  0  1  0  0  0  0  0999 V2000
    6.6629  -21.0758   25.2883 N   0  0  0  0  0  0  0  0  0  0  0  0
    6.8552  -19.7611   25.8203 C   0  0  1  0  0  0  0  0  0  0  0  0
    7.7229  -19.8137   27.0586 C   0  0  0  0  0  0  0  0  0  0  0  0
    6.7322  -19.1797   28.4395 S   0  0  0  0  0  0  0  0  0  0  0  0
    7.4472  -18.9125   24.7513 C   0  0  0  0  0  0  0  0  0  0  0  0
    8.5569  -19.2263   24.2011 O   0  0  0  0  0  0  0  0  0  0  0  0
    6.8334  -12.5878   19.6342 N   0  0  0  0  0  0  0  0  0  0  0  0
    7.7503  -13.5519   19.0832 C   0  0  0  0  0  0  0  0  0  0  0  0
    7.9547  -13.6146   17.8279 N   0  0  0  0  0  0  0  0  0  0  0  0
    8.4214  -14.4304   19.9686 N   0  0  0  0  0  0  0  0  0  0  0  0
    7.6742  -15.4406   20.6879 C   0  0  0  0  0  0  0  0  0  0  0  0
    6.9256  -14.8159   21.8862 C   0  0  0  0  0  0  0  0  0  0  0  0
    6.4669  -15.8813   22.8098 C   0  0  0  0  0  0  0  0  0  0  0  0
    7.5415  -16.7529   23.4114 C   0  0  2  0  0  0  0  0  0  0  0  0
    6.8376  -17.7289   24.2818 N   0  0  0  0  0  0  0  0  0  0  0  0
    8.4262  -15.9396   24.2624 C   0  0  0  0  0  0  0  0  0  0  0  0
    7.9473  -14.8121   24.6506 O   0  0  0  0  0  0  0  0  0  0  0  0
    8.6371  -14.2801   17.4446 C   0  0  0  0  0  0  0  0  0  0  0  0
   10.0048  -14.7329   29.2761 C   0  0  1  0  0  0  0  0  0  0  0  0
   10.3869  -14.3461   27.8447 C   0  0  0  0  0  0  0  0  0  0  0  0
   10.2154  -12.8532   27.6472 C   0  0  0  0  0  0  0  0  0  0  0  0
    9.6128  -15.1560   26.8505 C   0  0  2  0  0  0  0  0  0  0  0  0
   10.4190  -15.3367   25.5848 N   0  0  0  0  0  0  0  0  0  0  0  0
    9.7230  -16.2713   24.6926 C   0  0  0  0  0  0  0  0  0  0  0  0
   11.7519  -15.8962   25.8437 O   0  0  0  0  0  0  0  0  0  0  0  0
   12.8980  -15.1095   25.6369 O   0  0  0  0  0  0  0  0  0  0  0  0
  2  3  1  0
  2  1  1  6
  3  4  1  0
  5  6  2  0
  5  2  1  0
  7  8  1  0
  8  9  2  0
 10  8  1  0
 10 11  1  0
 11 12  1  0
 13 12  1  0
 14 13  1  1
 14 15  1  0
 15  5  1  0
 16 14  1  0
 16 17  2  0
 19 21  1  0
 19 18  1  1
 20 19  1  0
 22 21  1  6
 22 23  1  0
 23 16  1  0
 24 22  1  0
 25 24  1  0
 26 24  2  0
M  END
$$$$
