CRL.pdb
     RDKit          3D

 26 25  0  0  1  0  0  0  0  0999 V2000
    7.8168  -14.4048   17.3947 N   0  0  0  0  0  0  0  0  0  0  0  0
    8.3873  -13.8309   18.5754 C   0  0  1  0  0  0  0  0  0  0  0  0
    7.7711  -12.4780   18.8562 C   0  0  0  0  0  0  0  0  0  0  0  0
    8.4490  -11.8928   20.4336 S   0  0  0  0  0  0  0  0  0  0  0  0
    8.1860  -14.7872   19.6971 C   0  0  0  0  0  0  0  0  0  0  0  0
    7.0888  -15.4292   19.8256 O   0  0  0  0  0  0  0  0  0  0  0  0
   12.4968  -20.1909   24.0439 N   0  0  0  0  0  0  0  0  0  0  0  0
   11.3333  -21.0170   23.8496 C   0  0  0  0  0  0  0  0  0  0  0  0
   11.1450  -22.0563   24.5608 N   0  0  0  0  0  0  0  0  0  0  0  0
   10.4010  -20.6483   22.8490 N   0  0  0  0  0  0  0  0  0  0  0  0
   10.6360  -19.4694   22.0421 C   0  0  0  0  0  0  0  0  0  0  0  0
    9.6999  -18.3181   22.4723 C   0  0  0  0  0  0  0  0  0  0  0  0
    9.8172  -17.1860   21.5219 C   0  0  0  0  0  0  0  0  0  0  0  0
    8.9541  -15.9818   21.8069 C   0  0  2  0  0  0  0  0  0  0  0  0
    9.1711  -15.0453   20.6748 N   0  0  0  0  0  0  0  0  0  0  0  0
    9.4120  -15.3193   23.0397 C   0  0  0  0  0  0  0  0  0  0  0  0
   10.1967  -14.3148   22.8766 O   0  0  0  0  0  0  0  0  0  0  0  0
   10.2824  -22.6054   24.4613 C   0  0  0  0  0  0  0  0  0  0  0  0
    8.2307  -12.4322   26.6744 C   0  0  1  0  0  0  0  0  0  0  0  0
    7.1784  -12.6665   25.5870 C   0  0  0  0  0  0  0  0  0  0  0  0
    5.8342  -12.9635   26.2212 C   0  0  0  0  0  0  0  0  0  0  0  0
    7.6227  -13.7378   24.6393 C   0  0  1  0  0  0  0  0  0  0  0  0
    8.6886  -14.5942   25.2834 N   0  0  0  0  0  0  0  0  0  0  0  0
    9.0763  -15.6670   24.3600 C   0  0  0  0  0  0  0  0  0  0  0  0
    8.2224  -15.2346   26.5201 O   0  0  0  0  0  0  0  0  0  0  0  0
    8.7923  -14.8797   27.7548 O   0  0  0  0  0  0  0  0  0  0  0  0
  2  3  1  0
  2  1  1  6
  3  4  1  0
  5  6  2  0
  5  2  1  0
  7  8  1  0
  8  9  2  0
 10  8  1  0
 10 11  1  0
 11 12  1  0
 13 12  1  0
 14 13  1  6
 14 15  1  0
 15  5  1  0
 16 14  1  0
 16 17  2  0
 19 21  1  0
 19 18  1  6
 20 19  1  0
 22 21  1  6
 22 23  1  0
 23 16  1  0
 24 22  1  0
 25 24  1  0
 26 24  2  0
M  END
$$$$
