CRL.pdb
     RDKit          3D

 26 25  0  0  1  0  0  0  0  0999 V2000
    4.8469  -14.0257   26.9715 N   0  0  0  0  0  0  0  0  0  0  0  0
    5.6043  -13.1442   26.1359 C   0  0  1  0  0  0  0  0  0  0  0  0
    6.5199  -12.2787   26.9734 C   0  0  0  0  0  0  0  0  0  0  0  0
    5.6416  -10.7268   27.3054 S   0  0  0  0  0  0  0  0  0  0  0  0
    6.3528  -13.9710   25.1514 C   0  0  0  0  0  0  0  0  0  0  0  0
    6.6940  -15.1716   25.4248 O   0  0  0  0  0  0  0  0  0  0  0  0
    9.8352  -15.5941   18.4646 N   0  0  0  0  0  0  0  0  0  0  0  0
    9.0089  -14.8442   17.5543 C   0  0  0  0  0  0  0  0  0  0  0  0
    9.2193  -14.8832   16.2990 N   0  0  0  0  0  0  0  0  0  0  0  0
    7.9551  -14.0610   18.0856 N   0  0  0  0  0  0  0  0  0  0  0  0
    8.1863  -13.2352   19.2522 C   0  0  0  0  0  0  0  0  0  0  0  0
    8.3309  -14.1080   20.5187 C   0  0  0  0  0  0  0  0  0  0  0  0
    7.4810  -13.5684   21.6072 C   0  0  0  0  0  0  0  0  0  0  0  0
    7.5333  -14.3041   22.9234 C   0  0  2  0  0  0  0  0  0  0  0  0
    6.7294  -13.4967   23.8761 N   0  0  0  0  0  0  0  0  0  0  0  0
    8.9196  -14.3448   23.4183 C   0  0  0  0  0  0  0  0  0  0  0  0
    9.5280  -13.2143   23.4712 O   0  0  0  0  0  0  0  0  0  0  0  0
    8.5952  -14.3867   15.6514 C   0  0  0  0  0  0  0  0  0  0  0  0
   11.4380  -15.9809   27.6251 C   0  0  1  0  0  0  0  0  0  0  0  0
   10.6961  -14.6700   27.3501 C   0  0  0  0  0  0  0  0  0  0  0  0
    9.9755  -14.2092   28.6014 C   0  0  0  0  0  0  0  0  0  0  0  0
    9.7812  -14.8138   26.1729 C   0  0  1  0  0  0  0  0  0  0  0  0
   10.5447  -15.3446   24.9813 N   0  0  0  0  0  0  0  0  0  0  0  0
    9.6330  -15.4809   23.8393 C   0  0  0  0  0  0  0  0  0  0  0  0
   11.1257  -16.6698   25.2323 O   0  0  0  0  0  0  0  0  0  0  0  0
   12.5205  -16.8419   25.2147 O   0  0  0  0  0  0  0  0  0  0  0  0
  2  3  1  0
  2  1  1  1
  3  4  1  0
  5  6  2  0
  5  2  1  0
  7  8  1  0
  8  9  2  0
 10  8  1  0
 10 11  1  0
 11 12  1  0
 13 12  1  0
 14 13  1  6
 14 15  1  0
 15  5  1  0
 16 14  1  0
 16 17  2  0
 19 21  1  0
 19 18  1  1
 20 19  1  0
 22 21  1  6
 22 23  1  0
 23 16  1  0
 24 22  1  0
 25 24  1  0
 26 24  2  0
M  END
$$$$
