CRL.pdb
     RDKit          3D

 26 25  0  0  1  0  0  0  0  0999 V2000
    7.9559  -14.5971   17.4721 N   0  0  0  0  0  0  0  0  0  0  0  0
    8.4970  -14.2844   18.7598 C   0  0  1  0  0  0  0  0  0  0  0  0
    8.3973  -12.7988   19.0285 C   0  0  0  0  0  0  0  0  0  0  0  0
    9.6692  -11.9820   18.0259 S   0  0  0  0  0  0  0  0  0  0  0  0
    7.7693  -15.0923   19.7750 C   0  0  0  0  0  0  0  0  0  0  0  0
    6.5154  -15.3123   19.6652 O   0  0  0  0  0  0  0  0  0  0  0  0
    9.2550  -19.6754   25.8807 N   0  0  0  0  0  0  0  0  0  0  0  0
    8.1405  -20.5394   25.5886 C   0  0  0  0  0  0  0  0  0  0  0  0
    7.4656  -21.0736   26.5271 N   0  0  0  0  0  0  0  0  0  0  0  0
    7.8102  -20.7828   24.2330 N   0  0  0  0  0  0  0  0  0  0  0  0
    8.3599  -19.9389   23.1929 C   0  0  0  0  0  0  0  0  0  0  0  0
    7.7524  -18.5201   23.2632 C   0  0  0  0  0  0  0  0  0  0  0  0
    8.1813  -17.7251   22.0875 C   0  0  0  0  0  0  0  0  0  0  0  0
    7.6443  -16.3179   22.0000 C   0  0  2  0  0  0  0  0  0  0  0  0
    8.3995  -15.6587   20.9043 N   0  0  0  0  0  0  0  0  0  0  0  0
    7.9320  -15.5948   23.2501 C   0  0  0  0  0  0  0  0  0  0  0  0
    9.1599  -15.2645   23.4353 O   0  0  0  0  0  0  0  0  0  0  0  0
    6.6295  -21.6312   26.3141 C   0  0  0  0  0  0  0  0  0  0  0  0
    5.5580  -11.9417   27.5756 C   0  0  2  0  0  0  0  0  0  0  0  0
    6.7708  -12.6366   26.9504 C   0  0  0  0  0  0  0  0  0  0  0  0
    7.8584  -11.6213   26.6608 C   0  0  0  0  0  0  0  0  0  0  0  0
    6.3689  -13.4186   25.7379 C   0  0  2  0  0  0  0  0  0  0  0  0
    7.4739  -14.3708   25.3419 N   0  0  0  0  0  0  0  0  0  0  0  0
    7.0090  -15.2285   24.2455 C   0  0  0  0  0  0  0  0  0  0  0  0
    7.8741  -15.2552   26.4439 O   0  0  0  0  0  0  0  0  0  0  0  0
    9.0227  -14.9631   27.1994 O   0  0  0  0  0  0  0  0  0  0  0  0
  2  3  1  0
  2  1  1  6
  3  4  1  0
  5  6  2  0
  5  2  1  0
  7  8  1  0
  8  9  2  0
 10  8  1  0
 10 11  1  0
 11 12  1  0
 13 12  1  0
 14 13  1  1
 14 15  1  0
 15  5  1  0
 16 14  1  0
 16 17  2  0
 19 21  1  0
 19 18  1  1
 20 19  1  0
 22 21  1  6
 22 23  1  0
 23 16  1  0
 24 22  1  0
 25 24  1  0
 26 24  2  0
M  END
$$$$
