CRL.pdb
     RDKit          3D

 26 25  0  0  1  0  0  0  0  0999 V2000
    6.7141  -21.2746   24.8528 N   0  0  0  0  0  0  0  0  0  0  0  0
    6.7994  -19.9456   25.3774 C   0  0  1  0  0  0  0  0  0  0  0  0
    7.4821  -19.9531   26.7276 C   0  0  0  0  0  0  0  0  0  0  0  0
    6.3308  -19.2147   27.9190 S   0  0  0  0  0  0  0  0  0  0  0  0
    7.5191  -19.1028   24.3851 C   0  0  0  0  0  0  0  0  0  0  0  0
    8.5963  -19.5118   23.8327 O   0  0  0  0  0  0  0  0  0  0  0  0
    8.4351  -12.1254   20.0457 N   0  0  0  0  0  0  0  0  0  0  0  0
    7.9980  -13.0817   19.0617 C   0  0  0  0  0  0  0  0  0  0  0  0
    8.4478  -13.0446   17.8710 N   0  0  0  0  0  0  0  0  0  0  0  0
    7.0556  -14.0664   19.4470 N   0  0  0  0  0  0  0  0  0  0  0  0
    6.6368  -14.1635   20.8295 C   0  0  0  0  0  0  0  0  0  0  0  0
    7.6925  -14.9180   21.6679 C   0  0  0  0  0  0  0  0  0  0  0  0
    7.0379  -15.9725   22.4790 C   0  0  0  0  0  0  0  0  0  0  0  0
    7.9504  -16.8370   23.3135 C   0  0  2  0  0  0  0  0  0  0  0  0
    7.0719  -17.8221   23.9941 N   0  0  0  0  0  0  0  0  0  0  0  0
    8.6046  -16.0191   24.3487 C   0  0  0  0  0  0  0  0  0  0  0  0
    8.2464  -14.7860   24.3964 O   0  0  0  0  0  0  0  0  0  0  0  0
    8.1715  -13.7606   17.1881 C   0  0  0  0  0  0  0  0  0  0  0  0
   10.0963  -13.0775   27.8676 C   0  0  1  0  0  0  0  0  0  0  0  0
    9.2636  -14.2772   28.3277 C   0  0  0  0  0  0  0  0  0  0  0  0
   10.0419  -15.0904   29.3427 C   0  0  0  0  0  0  0  0  0  0  0  0
    8.8115  -15.0917   27.1548 C   0  0  1  0  0  0  0  0  0  0  0  0
   10.0000  -15.5008   26.3153 N   0  0  0  0  0  0  0  0  0  0  0  0
    9.5645  -16.4479   25.2822 C   0  0  0  0  0  0  0  0  0  0  0  0
   11.0413  -16.1703   27.1055 O   0  0  0  0  0  0  0  0  0  0  0  0
   10.8395  -17.4817   27.5688 O   0  0  0  0  0  0  0  0  0  0  0  0
  2  3  1  0
  2  1  1  6
  3  4  1  0
  5  6  2  0
  5  2  1  0
  7  8  1  0
  8  9  2  0
 10  8  1  0
 10 11  1  0
 11 12  1  0
 13 12  1  0
 14 13  1  6
 14 15  1  0
 15  5  1  0
 16 14  1  0
 16 17  2  0
 19 21  1  0
 19 18  1  1
 20 19  1  0
 22 21  1  6
 22 23  1  0
 23 16  1  0
 24 22  1  0
 25 24  1  0
 26 24  2  0
M  END
$$$$
