CRL.pdb
     RDKit          3D

 26 25  0  0  1  0  0  0  0  0999 V2000
    4.8258  -13.5524   26.1387 N   0  0  0  0  0  0  0  0  0  0  0  0
    5.9257  -12.9053   25.4906 C   0  0  1  0  0  0  0  0  0  0  0  0
    6.7454  -12.1242   26.4942 C   0  0  0  0  0  0  0  0  0  0  0  0
    5.8006  -10.6360   26.9217 S   0  0  0  0  0  0  0  0  0  0  0  0
    6.7282  -13.9462   24.7936 C   0  0  0  0  0  0  0  0  0  0  0  0
    6.8008  -15.1370   25.2513 O   0  0  0  0  0  0  0  0  0  0  0  0
    7.6645  -14.0298   16.9011 N   0  0  0  0  0  0  0  0  0  0  0  0
    8.8771  -14.4821   17.5325 C   0  0  0  0  0  0  0  0  0  0  0  0
    9.9904  -14.4350   16.9161 N   0  0  0  0  0  0  0  0  0  0  0  0
    8.8053  -14.9813   18.8560 N   0  0  0  0  0  0  0  0  0  0  0  0
    7.5522  -14.9321   19.5795 C   0  0  0  0  0  0  0  0  0  0  0  0
    7.6021  -13.8537   20.6847 C   0  0  0  0  0  0  0  0  0  0  0  0
    8.7121  -14.1409   21.6249 C   0  0  0  0  0  0  0  0  0  0  0  0
    8.3217  -14.7124   22.9656 C   0  0  2  0  0  0  0  0  0  0  0  0
    7.4485  -13.6958   23.6056 N   0  0  0  0  0  0  0  0  0  0  0  0
    9.5194  -14.8776   23.8061 C   0  0  0  0  0  0  0  0  0  0  0  0
   10.2037  -13.8113   24.0206 O   0  0  0  0  0  0  0  0  0  0  0  0
   10.8210  -14.8964   17.3067 C   0  0  0  0  0  0  0  0  0  0  0  0
    9.1413  -15.4158   29.1653 C   0  0  1  0  0  0  0  0  0  0  0  0
   10.2320  -15.4517   28.0912 C   0  0  0  0  0  0  0  0  0  0  0  0
   11.2085  -14.3124   28.3049 C   0  0  0  0  0  0  0  0  0  0  0  0
    9.6285  -15.4497   26.7204 C   0  0  2  0  0  0  0  0  0  0  0  0
   10.6191  -15.9886   25.7139 N   0  0  0  0  0  0  0  0  0  0  0  0
    9.9801  -16.0683   24.3952 C   0  0  0  0  0  0  0  0  0  0  0  0
   11.0839  -17.3400   26.0524 O   0  0  0  0  0  0  0  0  0  0  0  0
   12.3369  -17.5213   26.6626 O   0  0  0  0  0  0  0  0  0  0  0  0
  2  3  1  0
  2  1  1  1
  3  4  1  0
  5  6  2  0
  5  2  1  0
  7  8  1  0
  8  9  2  0
 10  8  1  0
 10 11  1  0
 11 12  1  0
 13 12  1  0
 14 13  1  6
 14 15  1  0
 15  5  1  0
 16 14  1  0
 16 17  2  0
 19 21  1  0
 19 18  1  1
 20 19  1  0
 22 21  1  6
 22 23  1  0
 23 16  1  0
 24 22  1  0
 25 24  1  0
 26 24  2  0
M  END
$$$$
