CRL.pdb
     RDKit          3D

 26 25  0  0  1  0  0  0  0  0999 V2000
    9.6286  -14.0688   19.0532 N   0  0  0  0  0  0  0  0  0  0  0  0
    8.6071  -13.3197   19.7194 C   0  0  1  0  0  0  0  0  0  0  0  0
    7.4869  -12.9836   18.7596 C   0  0  0  0  0  0  0  0  0  0  0  0
    6.9503  -14.5364   17.9908 S   0  0  0  0  0  0  0  0  0  0  0  0
    8.1340  -14.1173   20.8827 C   0  0  0  0  0  0  0  0  0  0  0  0
    7.1312  -13.7368   21.5772 O   0  0  0  0  0  0  0  0  0  0  0  0
    9.1410  -18.7156   18.4003 N   0  0  0  0  0  0  0  0  0  0  0  0
    8.6493  -20.0404   18.6782 C   0  0  0  0  0  0  0  0  0  0  0  0
    8.0996  -20.7371   17.7650 N   0  0  0  0  0  0  0  0  0  0  0  0
    8.7905  -20.5530   19.9910 N   0  0  0  0  0  0  0  0  0  0  0  0
    9.2455  -19.6879   21.0590 C   0  0  0  0  0  0  0  0  0  0  0  0
    8.4195  -18.3828   21.0938 C   0  0  0  0  0  0  0  0  0  0  0  0
    8.8734  -17.5241   22.2140 C   0  0  0  0  0  0  0  0  0  0  0  0
    8.1833  -16.1899   22.3558 C   0  0  2  0  0  0  0  0  0  0  0  0
    8.7466  -15.3222   21.2903 N   0  0  0  0  0  0  0  0  0  0  0  0
    8.5200  -15.5891   23.6573 C   0  0  0  0  0  0  0  0  0  0  0  0
    9.7470  -15.2404   23.8118 O   0  0  0  0  0  0  0  0  0  0  0  0
    7.7272  -21.6709   17.9764 C   0  0  0  0  0  0  0  0  0  0  0  0
    6.4372  -11.5293   27.1669 C   0  0  1  0  0  0  0  0  0  0  0  0
    7.5492  -12.4251   26.6141 C   0  0  0  0  0  0  0  0  0  0  0  0
    8.0092  -11.9089   25.2654 C   0  0  0  0  0  0  0  0  0  0  0  0
    7.1062  -13.8552   26.5682 C   0  0  2  0  0  0  0  0  0  0  0  0
    8.1791  -14.7131   25.9377 N   0  0  0  0  0  0  0  0  0  0  0  0
    7.6437  -15.3558   24.7318 C   0  0  0  0  0  0  0  0  0  0  0  0
    8.6385  -15.7840   26.8316 O   0  0  0  0  0  0  0  0  0  0  0  0
    9.5574  -15.4999   27.8564 O   0  0  0  0  0  0  0  0  0  0  0  0
  2  3  1  0
  2  1  1  6
  3  4  1  0
  5  6  2  0
  5  2  1  0
  7  8  1  0
  8  9  2  0
 10  8  1  0
 10 11  1  0
 11 12  1  0
 13 12  1  0
 14 13  1  1
 14 15  1  0
 15  5  1  0
 16 14  1  0
 16 17  2  0
 19 21  1  0
 19 18  1  1
 20 19  1  0
 22 21  1  6
 22 23  1  0
 23 16  1  0
 24 22  1  0
 25 24  1  0
 26 24  2  0
M  END
$$$$
