CRL.pdb
     RDKit          3D

 26 25  0  0  1  0  0  0  0  0999 V2000
    7.7135  -21.2834   24.5084 N   0  0  0  0  0  0  0  0  0  0  0  0
    6.8062  -20.1802   24.4165 C   0  0  1  0  0  0  0  0  0  0  0  0
    6.2411  -19.8456   25.7795 C   0  0  0  0  0  0  0  0  0  0  0  0
    7.6331  -19.3628   26.8376 S   0  0  0  0  0  0  0  0  0  0  0  0
    7.5338  -19.0334   23.8095 C   0  0  0  0  0  0  0  0  0  0  0  0
    8.8093  -18.9685   23.8484 O   0  0  0  0  0  0  0  0  0  0  0  0
    8.3182  -12.4049   19.1390 N   0  0  0  0  0  0  0  0  0  0  0  0
    8.3225  -13.5142   18.2207 C   0  0  0  0  0  0  0  0  0  0  0  0
    8.9020  -13.4233   17.0904 N   0  0  0  0  0  0  0  0  0  0  0  0
    7.6677  -14.7108   18.6020 N   0  0  0  0  0  0  0  0  0  0  0  0
    6.6405  -14.6786   19.6218 C   0  0  0  0  0  0  0  0  0  0  0  0
    7.2572  -14.8775   21.0243 C   0  0  0  0  0  0  0  0  0  0  0  0
    6.7499  -16.1326   21.6289 C   0  0  0  0  0  0  0  0  0  0  0  0
    7.5893  -16.7310   22.7306 C   0  0  2  0  0  0  0  0  0  0  0  0
    6.8799  -17.9618   23.1635 N   0  0  0  0  0  0  0  0  0  0  0  0
    7.6405  -15.8082   23.8769 C   0  0  0  0  0  0  0  0  0  0  0  0
    6.6256  -15.8376   24.6645 O   0  0  0  0  0  0  0  0  0  0  0  0
    8.8849  -14.2119   16.4323 C   0  0  0  0  0  0  0  0  0  0  0  0
    5.6186  -12.5629   27.2339 C   0  0  1  0  0  0  0  0  0  0  0  0
    7.0763  -12.9457   26.9633 C   0  0  0  0  0  0  0  0  0  0  0  0
    7.9704  -11.7329   27.1274 C   0  0  0  0  0  0  0  0  0  0  0  0
    7.2154  -13.5920   25.6192 C   0  0  2  0  0  0  0  0  0  0  0  0
    8.5983  -14.1826   25.4656 N   0  0  0  0  0  0  0  0  0  0  0  0
    8.6778  -14.9142   24.1958 C   0  0  0  0  0  0  0  0  0  0  0  0
    8.9237  -15.1348   26.5353 O   0  0  0  0  0  0  0  0  0  0  0  0
   10.0554  -14.9272   27.3424 O   0  0  0  0  0  0  0  0  0  0  0  0
  2  3  1  0
  2  1  1  1
  3  4  1  0
  5  6  2  0
  5  2  1  0
  7  8  1  0
  8  9  2  0
 10  8  1  0
 10 11  1  0
 11 12  1  0
 13 12  1  0
 14 13  1  6
 14 15  1  0
 15  5  1  0
 16 14  1  0
 16 17  2  0
 19 21  1  0
 19 18  1  1
 20 19  1  0
 22 21  1  6
 22 23  1  0
 23 16  1  0
 24 22  1  0
 25 24  1  0
 26 24  2  0
M  END
$$$$
