CRL.pdb
     RDKit          3D

 26 25  0  0  1  0  0  0  0  0999 V2000
    6.4734  -20.1636   22.5808 N   0  0  0  0  0  0  0  0  0  0  0  0
    6.4634  -19.0762   23.5116 C   0  0  1  0  0  0  0  0  0  0  0  0
    6.7436  -19.5763   24.9117 C   0  0  0  0  0  0  0  0  0  0  0  0
    6.4977  -18.1800   26.0432 S   0  0  0  0  0  0  0  0  0  0  0  0
    7.4639  -18.0724   23.0595 C   0  0  0  0  0  0  0  0  0  0  0  0
    8.6737  -18.4093   22.8237 O   0  0  0  0  0  0  0  0  0  0  0  0
    8.4323  -12.1229   17.9063 N   0  0  0  0  0  0  0  0  0  0  0  0
    8.5678  -13.5560   17.9481 C   0  0  0  0  0  0  0  0  0  0  0  0
    8.5554  -14.2440   16.8765 N   0  0  0  0  0  0  0  0  0  0  0  0
    8.7158  -14.1854   19.2083 N   0  0  0  0  0  0  0  0  0  0  0  0
    7.8662  -15.3033   19.5614 C   0  0  0  0  0  0  0  0  0  0  0  0
    6.8099  -14.8776   20.6054 C   0  0  0  0  0  0  0  0  0  0  0  0
    7.4706  -14.5482   21.8912 C   0  0  0  0  0  0  0  0  0  0  0  0
    8.1871  -15.6808   22.5842 C   0  0  2  0  0  0  0  0  0  0  0  0
    7.1529  -16.7092   22.8643 N   0  0  0  0  0  0  0  0  0  0  0  0
    8.7275  -15.2162   23.8727 C   0  0  0  0  0  0  0  0  0  0  0  0
    9.7065  -14.3868   23.8023 O   0  0  0  0  0  0  0  0  0  0  0  0
    8.5189  -15.2698   16.9175 C   0  0  0  0  0  0  0  0  0  0  0  0
    8.2148  -11.9242   26.2445 C   0  0  2  0  0  0  0  0  0  0  0  0
    7.2377  -13.0998   26.3327 C   0  0  0  0  0  0  0  0  0  0  0  0
    5.9076  -12.6287   26.8859 C   0  0  0  0  0  0  0  0  0  0  0  0
    7.8300  -14.2250   27.1244 C   0  0  2  0  0  0  0  0  0  0  0  0
    8.8981  -14.9252   26.3160 N   0  0  0  0  0  0  0  0  0  0  0  0
    8.2815  -15.5791   25.1558 C   0  0  0  0  0  0  0  0  0  0  0  0
    9.5896  -15.9684   27.0844 O   0  0  0  0  0  0  0  0  0  0  0  0
   10.2913  -15.6324   28.2548 O   0  0  0  0  0  0  0  0  0  0  0  0
  2  3  1  0
  2  1  1  6
  3  4  1  0
  5  6  2  0
  5  2  1  0
  7  8  1  0
  8  9  2  0
 10  8  1  0
 10 11  1  0
 11 12  1  0
 13 12  1  0
 14 13  1  1
 14 15  1  0
 15  5  1  0
 16 14  1  0
 16 17  2  0
 19 21  1  0
 19 18  1  6
 20 19  1  0
 22 21  1  6
 22 23  1  0
 23 16  1  0
 24 22  1  0
 25 24  1  0
 26 24  2  0
M  END
$$$$
