WLA.pdb
     RDKit          3D

 28 29  0  0  1  0  0  0  0  0999 V2000
    5.9092  -18.3024   23.8825 N   0  0  0  0  0  0  0  0  0  0  0  0
    6.5320  -16.9834   24.0219 C   0  0  1  0  0  0  0  0  0  0  0  0
    6.9635  -16.7523   25.4289 C   0  0  0  0  0  0  0  0  0  0  0  0
    6.6824  -15.3883   25.9153 C   0  0  0  0  0  0  0  0  0  0  0  0
    5.3950  -14.8892   26.1493 C   0  0  0  0  0  0  0  0  0  0  0  0
    5.4857  -13.6344   26.6110 N   0  0  0  0  0  0  0  0  0  0  0  0
    6.7955  -13.2605   26.6992 C   0  0  0  0  0  0  0  0  0  0  0  0
    7.3950  -12.0838   27.1075 C   0  0  0  0  0  0  0  0  0  0  0  0
    8.7590  -11.9752   27.0887 C   0  0  0  0  0  0  0  0  0  0  0  0
    9.5054  -13.0496   26.6601 C   0  0  0  0  0  0  0  0  0  0  0  0
    8.8935  -14.2173   26.2560 C   0  0  0  0  0  0  0  0  0  0  0  0
    7.5124  -14.3583   26.2644 C   0  0  0  0  0  0  0  0  0  0  0  0
    7.5399  -16.8233   22.9753 C   0  0  0  0  0  0  0  0  0  0  0  0
    8.1104  -17.8622   22.4947 O   0  0  0  0  0  0  0  0  0  0  0  0
    7.4613  -14.6069   19.0430 C   0  0  0  0  0  0  0  0  0  0  0  0
    7.6176  -13.7610   20.2977 C   0  0  2  0  0  0  0  0  0  0  0  0
    7.5327  -12.3129   19.8495 C   0  0  0  0  0  0  0  0  0  0  0  0
    8.9455  -14.0928   20.8797 C   0  0  0  0  0  0  0  0  0  0  0  0
    9.0360  -15.5073   21.4328 C   0  0  2  0  0  0  0  0  0  0  0  0
    7.9722  -15.5903   22.4039 N   0  0  0  0  0  0  0  0  0  0  0  0
   10.3252  -15.7698   22.0722 C   0  0  0  0  0  0  0  0  0  0  0  0
   11.4143  -15.8461   21.3991 O   0  0  0  0  0  0  0  0  0  0  0  0
   11.7005  -15.5090   25.4427 C   0  0  0  0  0  0  0  0  0  0  0  0
   11.8044  -16.1249   24.0398 C   0  0  2  0  0  0  0  0  0  0  0  0
   10.4630  -15.9549   23.4711 N   0  0  0  0  0  0  0  0  0  0  0  0
   12.1950  -17.5324   24.1482 C   0  0  0  0  0  0  0  0  0  0  0  0
   11.4844  -18.5150   23.8459 O   0  0  0  0  0  0  0  0  0  0  0  0
   13.4702  -17.8334   24.6295 O   0  0  0  0  0  0  0  0  0  0  0  0
  2  1  1  1
  2 13  1  0
  3  2  1  0
  4  3  1  0
  5  4  2  0
  6  7  1  0
  6  5  1  0
  7 12  2  0
  8  9  2  0
  8  7  1  0
  9 10  1  0
 10 11  2  0
 12 11  1  0
 12  4  1  0
 13 14  2  0
 16 18  1  0
 16 15  1  6
 17 16  1  0
 19 18  1  1
 20 13  1  0
 20 19  1  0
 21 25  1  0
 21 19  1  0
 22 21  2  0
 24 23  1  1
 24 26  1  0
 24 25  1  0
 26 28  1  0
 27 26  2  0
M  END
$$$$
