WLA.pdb
     RDKit          3D

 28 29  0  0  1  0  0  0  0  0999 V2000
    6.5162  -17.1327   24.9354 N   0  0  0  0  0  0  0  0  0  0  0  0
    7.3345  -16.0099   24.4702 C   0  0  1  0  0  0  0  0  0  0  0  0
    8.3825  -15.6723   25.4738 C   0  0  0  0  0  0  0  0  0  0  0  0
    7.9072  -14.7739   26.5429 C   0  0  0  0  0  0  0  0  0  0  0  0
    7.9669  -15.0797   27.9083 C   0  0  0  0  0  0  0  0  0  0  0  0
    7.4837  -14.0473   28.6129 N   0  0  0  0  0  0  0  0  0  0  0  0
    7.0952  -13.0456   27.7711 C   0  0  0  0  0  0  0  0  0  0  0  0
    6.5403  -11.8020   28.0087 C   0  0  0  0  0  0  0  0  0  0  0  0
    6.2350  -10.9829   26.9559 C   0  0  0  0  0  0  0  0  0  0  0  0
    6.4905  -11.4218   25.6764 C   0  0  0  0  0  0  0  0  0  0  0  0
    7.0447  -12.6648   25.4546 C   0  0  0  0  0  0  0  0  0  0  0  0
    7.3659  -13.5181   26.5016 C   0  0  0  0  0  0  0  0  0  0  0  0
    7.7761  -16.2809   23.1033 C   0  0  0  0  0  0  0  0  0  0  0  0
    7.7530  -17.4831   22.6672 O   0  0  0  0  0  0  0  0  0  0  0  0
    6.5326  -14.0037   19.5624 C   0  0  0  0  0  0  0  0  0  0  0  0
    7.7081  -13.4842   20.3763 C   0  0  2  0  0  0  0  0  0  0  0  0
    7.9615  -12.0644   19.9017 C   0  0  0  0  0  0  0  0  0  0  0  0
    8.8585  -14.3845   20.0970 C   0  0  0  0  0  0  0  0  0  0  0  0
    8.8313  -15.6792   20.8955 C   0  0  2  0  0  0  0  0  0  0  0  0
    8.2437  -15.3167   22.1624 N   0  0  0  0  0  0  0  0  0  0  0  0
   10.1703  -16.2316   21.0995 C   0  0  0  0  0  0  0  0  0  0  0  0
   10.8826  -16.6639   20.1244 O   0  0  0  0  0  0  0  0  0  0  0  0
   12.8808  -16.0306   23.4232 C   0  0  0  0  0  0  0  0  0  0  0  0
   12.0857  -16.9695   22.5040 C   0  0  2  0  0  0  0  0  0  0  0  0
   10.7735  -16.3258   22.3792 N   0  0  0  0  0  0  0  0  0  0  0  0
   12.0040  -18.2997   23.1116 C   0  0  0  0  0  0  0  0  0  0  0  0
   10.9564  -18.8744   23.4780 O   0  0  0  0  0  0  0  0  0  0  0  0
   13.1870  -19.0132   23.3117 O   0  0  0  0  0  0  0  0  0  0  0  0
  2  1  1  1
  2 13  1  0
  3  2  1  0
  4  3  1  0
  5  4  2  0
  6  7  1  0
  6  5  1  0
  7 12  2  0
  8  9  2  0
  8  7  1  0
  9 10  1  0
 10 11  2  0
 12 11  1  0
 12  4  1  0
 13 14  2  0
 16 18  1  0
 16 15  1  6
 17 16  1  0
 19 18  1  6
 20 13  1  0
 20 19  1  0
 21 25  1  0
 21 19  1  0
 22 21  2  0
 24 23  1  1
 24 26  1  0
 24 25  1  0
 26 28  1  0
 27 26  2  0
M  END
$$$$
