WLA.pdb
     RDKit          3D

 28 29  0  0  1  0  0  0  0  0999 V2000
    6.2562  -18.1867   23.9705 N   0  0  0  0  0  0  0  0  0  0  0  0
    6.8577  -16.8506   23.9769 C   0  0  1  0  0  0  0  0  0  0  0  0
    7.3398  -16.4981   25.3416 C   0  0  0  0  0  0  0  0  0  0  0  0
    6.6848  -15.3037   25.9079 C   0  0  0  0  0  0  0  0  0  0  0  0
    5.3600  -15.2766   26.3611 C   0  0  0  0  0  0  0  0  0  0  0  0
    5.0827  -14.0561   26.8399 N   0  0  0  0  0  0  0  0  0  0  0  0
    6.1770  -13.2481   26.7274 C   0  0  0  0  0  0  0  0  0  0  0  0
    6.3881  -11.9255   27.0692 C   0  0  0  0  0  0  0  0  0  0  0  0
    7.6073  -11.3503   26.8344 C   0  0  0  0  0  0  0  0  0  0  0  0
    8.6009  -12.1100   26.2590 C   0  0  0  0  0  0  0  0  0  0  0  0
    8.3758  -13.4284   25.9236 C   0  0  0  0  0  0  0  0  0  0  0  0
    7.1503  -14.0401   26.1498 C   0  0  0  0  0  0  0  0  0  0  0  0
    7.8201  -16.7600   22.8803 C   0  0  0  0  0  0  0  0  0  0  0  0
    8.3566  -17.8308   22.4313 O   0  0  0  0  0  0  0  0  0  0  0  0
    7.1141  -14.4295   19.2692 C   0  0  0  0  0  0  0  0  0  0  0  0
    7.7422  -13.6317   20.4019 C   0  0  2  0  0  0  0  0  0  0  0  0
    7.7215  -12.1784   19.9630 C   0  0  0  0  0  0  0  0  0  0  0  0
    9.1264  -14.1467   20.5773 C   0  0  0  0  0  0  0  0  0  0  0  0
    9.1880  -15.5600   21.1372 C   0  0  2  0  0  0  0  0  0  0  0  0
    8.2412  -15.5651   22.2258 N   0  0  0  0  0  0  0  0  0  0  0  0
   10.5228  -15.9032   21.6272 C   0  0  0  0  0  0  0  0  0  0  0  0
   11.5145  -16.0763   20.8325 O   0  0  0  0  0  0  0  0  0  0  0  0
   12.3047  -15.8847   24.8396 C   0  0  0  0  0  0  0  0  0  0  0  0
   12.1785  -16.4261   23.4081 C   0  0  2  0  0  0  0  0  0  0  0  0
   10.8149  -16.0654   23.0052 N   0  0  0  0  0  0  0  0  0  0  0  0
   12.4004  -17.8739   23.4084 C   0  0  0  0  0  0  0  0  0  0  0  0
   11.5523  -18.7448   23.1184 O   0  0  0  0  0  0  0  0  0  0  0  0
   13.6634  -18.3529   23.7599 O   0  0  0  0  0  0  0  0  0  0  0  0
  2  1  1  1
  2 13  1  0
  3  2  1  0
  4  3  1  0
  5  4  2  0
  6  7  1  0
  6  5  1  0
  7 12  2  0
  8  9  2  0
  8  7  1  0
  9 10  1  0
 10 11  2  0
 12 11  1  0
 12  4  1  0
 13 14  2  0
 16 18  1  0
 16 15  1  6
 17 16  1  0
 19 18  1  1
 20 13  1  0
 20 19  1  0
 21 25  1  0
 21 19  1  0
 22 21  2  0
 24 23  1  1
 24 26  1  0
 24 25  1  0
 26 28  1  0
 27 26  2  0
M  END
$$$$
