WLA.pdb
     RDKit          3D

 28 29  0  0  1  0  0  0  0  0999 V2000
    6.2039  -18.2112   24.1227 N   0  0  0  0  0  0  0  0  0  0  0  0
    6.7905  -16.8703   24.0535 C   0  0  1  0  0  0  0  0  0  0  0  0
    7.2791  -16.4408   25.3937 C   0  0  0  0  0  0  0  0  0  0  0  0
    6.5702  -15.2636   25.9303 C   0  0  0  0  0  0  0  0  0  0  0  0
    5.2078  -15.2491   26.2540 C   0  0  0  0  0  0  0  0  0  0  0  0
    4.8831  -14.0436   26.7408 N   0  0  0  0  0  0  0  0  0  0  0  0
    5.9815  -13.2336   26.7591 C   0  0  0  0  0  0  0  0  0  0  0  0
    6.1560  -11.9222   27.1598 C   0  0  0  0  0  0  0  0  0  0  0  0
    7.3911  -11.3413   27.0614 C   0  0  0  0  0  0  0  0  0  0  0  0
    8.4370  -12.0840   26.5617 C   0  0  0  0  0  0  0  0  0  0  0  0
    8.2480  -13.3913   26.1661 C   0  0  0  0  0  0  0  0  0  0  0  0
    7.0076  -14.0085   26.2543 C   0  0  0  0  0  0  0  0  0  0  0  0
    7.7433  -16.8274   22.9458 C   0  0  0  0  0  0  0  0  0  0  0  0
    8.2307  -17.9226   22.4996 O   0  0  0  0  0  0  0  0  0  0  0  0
    6.7719  -14.3691   19.5370 C   0  0  0  0  0  0  0  0  0  0  0  0
    7.6293  -13.7294   20.6184 C   0  0  2  0  0  0  0  0  0  0  0  0
    7.6341  -12.2381   20.3328 C   0  0  0  0  0  0  0  0  0  0  0  0
    8.9860  -14.3282   20.5047 C   0  0  0  0  0  0  0  0  0  0  0  0
    9.1064  -15.7002   21.1510 C   0  0  2  0  0  0  0  0  0  0  0  0
    8.2052  -15.6557   22.2769 N   0  0  0  0  0  0  0  0  0  0  0  0
   10.4684  -15.9802   21.6051 C   0  0  0  0  0  0  0  0  0  0  0  0
   11.4403  -16.1354   20.7827 O   0  0  0  0  0  0  0  0  0  0  0  0
   12.4404  -15.5847   24.6187 C   0  0  0  0  0  0  0  0  0  0  0  0
   12.1971  -16.4035   23.3425 C   0  0  2  0  0  0  0  0  0  0  0  0
   10.8102  -16.0967   22.9762 N   0  0  0  0  0  0  0  0  0  0  0  0
   12.4029  -17.8261   23.6240 C   0  0  0  0  0  0  0  0  0  0  0  0
   11.5262  -18.7156   23.5798 O   0  0  0  0  0  0  0  0  0  0  0  0
   13.6834  -18.2558   23.9759 O   0  0  0  0  0  0  0  0  0  0  0  0
  2  1  1  1
  2 13  1  0
  3  2  1  0
  4  3  1  0
  5  4  2  0
  6  7  1  0
  6  5  1  0
  7 12  2  0
  8  9  2  0
  8  7  1  0
  9 10  1  0
 10 11  2  0
 12 11  1  0
 12  4  1  0
 13 14  2  0
 16 18  1  0
 16 15  1  6
 17 16  1  0
 19 18  1  1
 20 13  1  0
 20 19  1  0
 21 25  1  0
 21 19  1  0
 22 21  2  0
 24 23  1  1
 24 26  1  0
 24 25  1  0
 26 28  1  0
 27 26  2  0
M  END
$$$$
