WLA.pdb
     RDKit          3D

 28 29  0  0  1  0  0  0  0  0999 V2000
    6.5002  -17.5622   24.6046 N   0  0  0  0  0  0  0  0  0  0  0  0
    7.3354  -16.3743   24.4094 C   0  0  1  0  0  0  0  0  0  0  0  0
    8.2376  -16.1688   25.5769 C   0  0  0  0  0  0  0  0  0  0  0  0
    7.7136  -15.2064   26.5646 C   0  0  0  0  0  0  0  0  0  0  0  0
    7.4270  -15.5281   27.8971 C   0  0  0  0  0  0  0  0  0  0  0  0
    6.9966  -14.4299   28.5331 N   0  0  0  0  0  0  0  0  0  0  0  0
    6.9798  -13.3677   27.6762 C   0  0  0  0  0  0  0  0  0  0  0  0
    6.6171  -12.0453   27.8507 C   0  0  0  0  0  0  0  0  0  0  0  0
    6.6925  -11.1763   26.7964 C   0  0  0  0  0  0  0  0  0  0  0  0
    7.1316  -11.6451   25.5787 C   0  0  0  0  0  0  0  0  0  0  0  0
    7.4903  -12.9669   25.4196 C   0  0  0  0  0  0  0  0  0  0  0  0
    7.4253  -13.8724   26.4699 C   0  0  0  0  0  0  0  0  0  0  0  0
    7.9538  -16.4430   23.0866 C   0  0  0  0  0  0  0  0  0  0  0  0
    8.1308  -17.5855   22.5395 O   0  0  0  0  0  0  0  0  0  0  0  0
    6.6628  -14.2178   19.6800 C   0  0  0  0  0  0  0  0  0  0  0  0
    7.6514  -13.4612   20.5543 C   0  0  2  0  0  0  0  0  0  0  0  0
    7.6536  -12.0278   20.0539 C   0  0  0  0  0  0  0  0  0  0  0  0
    8.9736  -14.1197   20.3808 C   0  0  0  0  0  0  0  0  0  0  0  0
    9.0670  -15.4891   21.0371 C   0  0  2  0  0  0  0  0  0  0  0  0
    8.3950  -15.3352   22.3046 N   0  0  0  0  0  0  0  0  0  0  0  0
   10.4525  -15.9083   21.2478 C   0  0  0  0  0  0  0  0  0  0  0  0
   11.2521  -16.1279   20.2692 O   0  0  0  0  0  0  0  0  0  0  0  0
   12.9723  -15.9582   23.8571 C   0  0  0  0  0  0  0  0  0  0  0  0
   12.3452  -16.6882   22.6604 C   0  0  2  0  0  0  0  0  0  0  0  0
   11.0078  -16.0980   22.5385 N   0  0  0  0  0  0  0  0  0  0  0  0
   12.3024  -18.1274   22.9295 C   0  0  0  0  0  0  0  0  0  0  0  0
   11.2687  -18.8203   23.0454 O   0  0  0  0  0  0  0  0  0  0  0  0
   13.5095  -18.8130   23.0742 O   0  0  0  0  0  0  0  0  0  0  0  0
  2  1  1  1
  2 13  1  0
  3  2  1  0
  4  3  1  0
  5  4  2  0
  6  7  1  0
  6  5  1  0
  7 12  2  0
  8  9  2  0
  8  7  1  0
  9 10  1  0
 10 11  2  0
 12 11  1  0
 12  4  1  0
 13 14  2  0
 16 18  1  0
 16 15  1  6
 17 16  1  0
 19 18  1  1
 20 13  1  0
 20 19  1  0
 21 25  1  0
 21 19  1  0
 22 21  2  0
 24 23  1  1
 24 26  1  0
 24 25  1  0
 26 28  1  0
 27 26  2  0
M  END
$$$$
