PIE.pdb
     RDKit          3D

 25 25  0  0  1  0  0  0  0  0999 V2000
    8.4450  -18.1683   17.2146 N   0  0  0  0  0  0  0  0  0  0  0  0
    7.2628  -18.1268   16.3573 C   0  0  0  0  0  0  0  0  0  0  0  0
    7.7727  -17.4668   15.0649 C   0  0  0  0  0  0  0  0  0  0  0  0
    8.6181  -16.3683   15.7010 C   0  0  0  0  0  0  0  0  0  0  0  0
    9.3161  -17.1230   16.7850 C   0  0  1  0  0  0  0  0  0  0  0  0
    9.7722  -16.2547   17.8969 C   0  0  0  0  0  0  0  0  0  0  0  0
   10.9548  -15.8401   17.8566 O   0  0  0  0  0  0  0  0  0  0  0  0
    6.4710  -12.6537   20.0911 C   0  0  0  0  0  0  0  0  0  0  0  0
    7.7111  -13.3445   19.5924 C   0  0  0  0  0  0  0  0  0  0  0  0
    8.3461  -14.2438   20.6270 C   0  0  2  0  0  0  0  0  0  0  0  0
    8.7010  -13.4346   21.8392 C   0  0  0  0  0  0  0  0  0  0  0  0
    9.4904  -15.0039   20.0500 C   0  0  2  0  0  0  0  0  0  0  0  0
    8.9645  -15.8728   18.9843 N   0  0  0  0  0  0  0  0  0  0  0  0
   10.2225  -15.8069   21.0600 C   0  0  0  0  0  0  0  0  0  0  0  0
    9.6585  -16.8313   21.5012 O   0  0  0  0  0  0  0  0  0  0  0  0
   11.4927  -15.4740   21.5321 N   0  0  0  0  0  0  0  0  0  0  0  0
   12.3088  -16.3014   22.4295 C   0  0  1  0  0  0  0  0  0  0  0  0
   13.7313  -15.9581   22.3269 C   0  0  0  0  0  0  0  0  0  0  0  0
   14.6398  -16.7519   23.1918 C   0  0  0  0  0  0  0  0  0  0  0  0
   16.0757  -16.4077   23.0027 C   0  0  0  0  0  0  0  0  0  0  0  0
   16.8684  -17.3278   22.5898 O   0  0  0  0  0  0  0  0  0  0  0  0
   11.7463  -16.4858   23.7389 C   0  0  0  0  0  0  0  0  0  0  0  0
   11.8693  -17.4817   24.4873 O   0  0  0  0  0  0  0  0  0  0  0  0
   16.5920  -15.1620   23.2468 O   0  0  0  0  0  0  0  0  0  0  0  0
   10.9593  -15.4438   24.2714 O   0  0  0  0  0  0  0  0  0  0  0  0
  1  5  1  0
  2  1  1  0
  3  2  1  0
  3  4  1  0
  4  5  1  0
  5  6  1  1
  6  7  2  0
  9 10  1  0
  9  8  1  0
 10 12  1  0
 10 11  1  1
 12 13  1  6
 12 14  1  0
 13  6  1  0
 14 15  2  0
 14 16  1  0
 16 17  1  0
 17 22  1  0
 17 18  1  1
 19 18  1  0
 19 20  1  0
 20 21  2  0
 22 23  2  0
 22 25  1  0
 24 20  1  0
M  END
$$$$
