PIE.pdb
     RDKit          3D

 25 25  0  0  1  0  0  0  0  0999 V2000
    7.0847  -14.9850   20.7956 N   0  0  0  0  0  0  0  0  0  0  0  0
    6.2019  -14.1803   19.9544 C   0  0  0  0  0  0  0  0  0  0  0  0
    7.1714  -13.3115   19.1351 C   0  0  0  0  0  0  0  0  0  0  0  0
    8.1352  -12.9433   20.2582 C   0  0  0  0  0  0  0  0  0  0  0  0
    8.3035  -14.2587   20.9461 C   0  0  1  0  0  0  0  0  0  0  0  0
    8.7277  -14.1249   22.3605 C   0  0  0  0  0  0  0  0  0  0  0  0
    9.9089  -13.7639   22.5763 O   0  0  0  0  0  0  0  0  0  0  0  0
    5.8576  -11.7677   26.0389 C   0  0  0  0  0  0  0  0  0  0  0  0
    6.9856  -12.3682   25.2447 C   0  0  0  0  0  0  0  0  0  0  0  0
    7.3735  -13.7500   25.7163 C   0  0  2  0  0  0  0  0  0  0  0  0
    7.7554  -13.6921   27.1658 C   0  0  0  0  0  0  0  0  0  0  0  0
    8.4199  -14.3446   24.8377 C   0  0  2  0  0  0  0  0  0  0  0  0
    7.8916  -14.3773   23.4641 N   0  0  0  0  0  0  0  0  0  0  0  0
    8.8349  -15.7029   25.2663 C   0  0  0  0  0  0  0  0  0  0  0  0
    7.9407  -16.5678   25.3867 O   0  0  0  0  0  0  0  0  0  0  0  0
   10.1585  -16.0518   25.5372 N   0  0  0  0  0  0  0  0  0  0  0  0
   10.6215  -17.3904   25.9243 C   0  0  1  0  0  0  0  0  0  0  0  0
   11.9250  -17.6988   25.3261 C   0  0  0  0  0  0  0  0  0  0  0  0
   11.9685  -18.9311   24.4996 C   0  0  0  0  0  0  0  0  0  0  0  0
   13.2996  -19.1715   23.8781 C   0  0  0  0  0  0  0  0  0  0  0  0
   13.9647  -20.2021   24.2538 O   0  0  0  0  0  0  0  0  0  0  0  0
   10.4166  -17.7094   27.3104 C   0  0  0  0  0  0  0  0  0  0  0  0
   10.2960  -16.9098   28.2660 O   0  0  0  0  0  0  0  0  0  0  0  0
   13.8489  -18.3503   22.9285 O   0  0  0  0  0  0  0  0  0  0  0  0
   10.3378  -19.0709   27.6694 O   0  0  0  0  0  0  0  0  0  0  0  0
  1  5  1  0
  2  1  1  0
  3  2  1  0
  3  4  1  0
  4  5  1  0
  5  6  1  1
  6  7  2  0
  9 10  1  0
  9  8  1  0
 10 12  1  0
 10 11  1  1
 12 13  1  6
 12 14  1  0
 13  6  1  0
 14 15  2  0
 14 16  1  0
 16 17  1  0
 17 22  1  0
 17 18  1  1
 19 18  1  0
 19 20  1  0
 20 21  2  0
 22 23  2  0
 22 25  1  0
 24 20  1  0
M  END
$$$$
