PIE.pdb
     RDKit          3D

 25 25  0  0  1  0  0  0  0  0999 V2000
    8.0931  -18.9806   18.2745 N   0  0  0  0  0  0  0  0  0  0  0  0
    6.9008  -19.0483   17.4329 C   0  0  0  0  0  0  0  0  0  0  0  0
    7.3728  -18.4760   16.0855 C   0  0  0  0  0  0  0  0  0  0  0  0
    8.1858  -17.3020   16.6208 C   0  0  0  0  0  0  0  0  0  0  0  0
    8.9219  -17.9436   17.7514 C   0  0  1  0  0  0  0  0  0  0  0  0
    9.3592  -16.9743   18.7847 C   0  0  0  0  0  0  0  0  0  0  0  0
   10.5394  -16.5558   18.7198 O   0  0  0  0  0  0  0  0  0  0  0  0
    6.5496  -12.6766   20.2033 C   0  0  0  0  0  0  0  0  0  0  0  0
    7.6724  -13.6446   19.9465 C   0  0  0  0  0  0  0  0  0  0  0  0
    7.9328  -14.5733   21.1093 C   0  0  2  0  0  0  0  0  0  0  0  0
    8.1517  -13.7640   22.3532 C   0  0  0  0  0  0  0  0  0  0  0  0
    9.0391  -15.5231   20.8024 C   0  0  2  0  0  0  0  0  0  0  0  0
    8.5365  -16.5016   19.8241 N   0  0  0  0  0  0  0  0  0  0  0  0
    9.5613  -16.2149   22.0065 C   0  0  0  0  0  0  0  0  0  0  0  0
    8.8249  -17.0688   22.5457 O   0  0  0  0  0  0  0  0  0  0  0  0
   10.8183  -15.9579   22.5552 N   0  0  0  0  0  0  0  0  0  0  0  0
   11.4712  -16.7626   23.5955 C   0  0  1  0  0  0  0  0  0  0  0  0
   12.9325  -16.6812   23.4957 C   0  0  0  0  0  0  0  0  0  0  0  0
   13.6825  -17.4560   24.5158 C   0  0  0  0  0  0  0  0  0  0  0  0
   15.1536  -17.2376   24.4508 C   0  0  0  0  0  0  0  0  0  0  0  0
   15.7006  -17.1475   23.2940 O   0  0  0  0  0  0  0  0  0  0  0  0
   10.8707  -16.6480   24.8959 C   0  0  0  0  0  0  0  0  0  0  0  0
   10.3850  -15.6214   25.4227 O   0  0  0  0  0  0  0  0  0  0  0  0
   15.9505  -17.1287   25.5603 O   0  0  0  0  0  0  0  0  0  0  0  0
   10.8054  -17.8068   25.6969 O   0  0  0  0  0  0  0  0  0  0  0  0
  1  5  1  0
  2  1  1  0
  3  2  1  0
  3  4  1  0
  4  5  1  0
  5  6  1  1
  6  7  2  0
  9 10  1  0
  9  8  1  0
 10 12  1  0
 10 11  1  1
 12 13  1  6
 12 14  1  0
 13  6  1  0
 14 15  2  0
 14 16  1  0
 16 17  1  0
 17 22  1  0
 17 18  1  1
 19 18  1  0
 19 20  1  0
 20 21  2  0
 22 23  2  0
 22 25  1  0
 24 20  1  0
M  END
$$$$
