PIE.pdb
     RDKit          3D

 25 25  0  0  1  0  0  0  0  0999 V2000
    7.1092  -15.9849   21.2969 N   0  0  0  0  0  0  0  0  0  0  0  0
    6.1108  -15.3013   20.4782 C   0  0  0  0  0  0  0  0  0  0  0  0
    6.9511  -14.4159   19.5424 C   0  0  0  0  0  0  0  0  0  0  0  0
    7.9580  -13.9087   20.5693 C   0  0  0  0  0  0  0  0  0  0  0  0
    8.2752  -15.1628   21.3165 C   0  0  1  0  0  0  0  0  0  0  0  0
    8.7837  -14.9105   22.6863 C   0  0  0  0  0  0  0  0  0  0  0  0
   10.0033  -14.6467   22.8089 O   0  0  0  0  0  0  0  0  0  0  0  0
    6.1476  -11.7481   25.7047 C   0  0  0  0  0  0  0  0  0  0  0  0
    7.2451  -12.5707   25.0862 C   0  0  0  0  0  0  0  0  0  0  0  0
    7.6073  -13.7879   25.9045 C   0  0  2  0  0  0  0  0  0  0  0  0
    8.0947  -13.3527   27.2548 C   0  0  0  0  0  0  0  0  0  0  0  0
    8.5617  -14.6656   25.1703 C   0  0  2  0  0  0  0  0  0  0  0  0
    7.9864  -14.9501   23.8454 N   0  0  0  0  0  0  0  0  0  0  0  0
    8.8590  -15.9291   25.8887 C   0  0  0  0  0  0  0  0  0  0  0  0
    7.9153  -16.7303   26.0611 O   0  0  0  0  0  0  0  0  0  0  0  0
   10.1258  -16.2571   26.3734 N   0  0  0  0  0  0  0  0  0  0  0  0
   10.7791  -17.5638   26.2262 C   0  0  1  0  0  0  0  0  0  0  0  0
   10.5989  -18.1021   24.8736 C   0  0  0  0  0  0  0  0  0  0  0  0
   11.2644  -19.4034   24.6144 C   0  0  0  0  0  0  0  0  0  0  0  0
   10.3118  -20.5457   24.5555 C   0  0  0  0  0  0  0  0  0  0  0  0
    9.0754  -20.2905   24.3282 O   0  0  0  0  0  0  0  0  0  0  0  0
   12.0846  -17.6428   26.8215 C   0  0  0  0  0  0  0  0  0  0  0  0
   13.0454  -16.8574   26.6571 O   0  0  0  0  0  0  0  0  0  0  0  0
   10.6873  -21.8519   24.7316 O   0  0  0  0  0  0  0  0  0  0  0  0
   12.3467  -18.7172   27.6966 O   0  0  0  0  0  0  0  0  0  0  0  0
  1  5  1  0
  2  1  1  0
  3  2  1  0
  3  4  1  0
  4  5  1  0
  5  6  1  1
  6  7  2  0
  9 10  1  0
  9  8  1  0
 10 12  1  0
 10 11  1  1
 12 13  1  6
 12 14  1  0
 13  6  1  0
 14 15  2  0
 14 16  1  0
 16 17  1  0
 17 22  1  0
 17 18  1  6
 19 18  1  0
 19 20  1  0
 20 21  2  0
 22 23  2  0
 22 25  1  0
 24 20  1  0
M  END
$$$$
