PIE.pdb
     RDKit          3D

 25 25  0  0  1  0  0  0  0  0999 V2000
    6.6808  -15.3159   21.2291 N   0  0  0  0  0  0  0  0  0  0  0  0
    5.7634  -14.4325   20.5132 C   0  0  0  0  0  0  0  0  0  0  0  0
    6.6675  -13.7144   19.4969 C   0  0  0  0  0  0  0  0  0  0  0  0
    7.8511  -13.4364   20.4176 C   0  0  0  0  0  0  0  0  0  0  0  0
    7.9835  -14.7421   21.1311 C   0  0  1  0  0  0  0  0  0  0  0  0
    8.6639  -14.6213   22.4429 C   0  0  0  0  0  0  0  0  0  0  0  0
    9.9096  -14.4784   22.4352 O   0  0  0  0  0  0  0  0  0  0  0  0
    5.8050  -12.2458   26.1938 C   0  0  0  0  0  0  0  0  0  0  0  0
    7.0109  -12.6291   25.3798 C   0  0  0  0  0  0  0  0  0  0  0  0
    7.7294  -13.8436   25.9194 C   0  0  2  0  0  0  0  0  0  0  0  0
    8.3168  -13.5190   27.2609 C   0  0  0  0  0  0  0  0  0  0  0  0
    8.7191  -14.3650   24.9351 C   0  0  2  0  0  0  0  0  0  0  0  0
    8.0010  -14.6579   23.6839 N   0  0  0  0  0  0  0  0  0  0  0  0
    9.4363  -15.5713   25.4161 C   0  0  0  0  0  0  0  0  0  0  0  0
    8.7541  -16.5915   25.6530 O   0  0  0  0  0  0  0  0  0  0  0  0
   10.8170  -15.6165   25.6132 N   0  0  0  0  0  0  0  0  0  0  0  0
   11.5956  -16.8297   25.8919 C   0  0  1  0  0  0  0  0  0  0  0  0
   12.8847  -16.8100   25.1921 C   0  0  0  0  0  0  0  0  0  0  0  0
   13.7626  -17.9797   25.4457 C   0  0  0  0  0  0  0  0  0  0  0  0
   15.0795  -17.8823   24.7585 C   0  0  0  0  0  0  0  0  0  0  0  0
   15.8242  -16.8710   25.0199 O   0  0  0  0  0  0  0  0  0  0  0  0
   11.5750  -17.2426   27.2682 C   0  0  0  0  0  0  0  0  0  0  0  0
   11.4376  -16.5170   28.2790 O   0  0  0  0  0  0  0  0  0  0  0  0
   15.5351  -18.8148   23.8636 O   0  0  0  0  0  0  0  0  0  0  0  0
   11.7245  -18.6169   27.5469 O   0  0  0  0  0  0  0  0  0  0  0  0
  1  5  1  0
  2  1  1  0
  3  2  1  0
  3  4  1  0
  4  5  1  0
  5  6  1  1
  6  7  2  0
  9 10  1  0
  9  8  1  0
 10 12  1  0
 10 11  1  1
 12 13  1  6
 12 14  1  0
 13  6  1  0
 14 15  2  0
 14 16  1  0
 16 17  1  0
 17 22  1  0
 17 18  1  1
 19 18  1  0
 19 20  1  0
 20 21  2  0
 22 23  2  0
 22 25  1  0
 24 20  1  0
M  END
$$$$
