GRN.pdb
     RDKit          3D

 24 23  0  0  1  0  0  0  0  0999 V2000
   23.5820  -20.3483   -7.7006 N   0  0  0  0  0  0  0  0  0  0  0  0
   24.1422  -21.2367   -8.6683 C   0  0  0  0  0  0  0  0  0  0  0  0
   24.4352  -20.5444   -9.9660 C   0  0  0  0  0  0  0  0  0  0  0  0
   24.0454  -19.3593  -10.1015 O   0  0  0  0  0  0  0  0  0  0  0  0
   28.5175  -22.9659  -17.3694 N   0  0  0  0  0  0  0  0  0  0  0  0
   28.3875  -21.5560  -17.5408 C   0  0  0  0  0  0  0  0  0  0  0  0
   28.6466  -20.9362  -18.6256 N   0  0  0  0  0  0  0  0  0  0  0  0
   27.9350  -20.7893  -16.4124 N   0  0  0  0  0  0  0  0  0  0  0  0
   27.5132  -21.4236  -15.1942 C   0  0  0  0  0  0  0  0  0  0  0  0
   27.0921  -20.3653  -14.1754 C   0  0  0  0  0  0  0  0  0  0  0  0
   26.6542  -21.0340  -12.9057 C   0  0  0  0  0  0  0  0  0  0  0  0
   25.4076  -20.4646  -12.2889 C   0  0  2  0  0  0  0  0  0  0  0  0
   25.1218  -21.1670  -11.0234 N   0  0  0  0  0  0  0  0  0  0  0  0
   24.2702  -20.5998  -13.2122 C   0  0  0  0  0  0  0  0  0  0  0  0
   23.6644  -21.6760  -13.3530 O   0  0  0  0  0  0  0  0  0  0  0  0
   28.4703  -19.9073  -18.7020 N   0  0  0  0  0  0  0  0  0  0  0  0
   20.2228  -19.3043  -16.0151 C   0  0  0  0  0  0  0  0  0  0  0  0
   20.8791  -18.0732  -15.7072 O   0  0  0  0  0  0  0  0  0  0  0  0
   20.3672  -16.9691  -16.0485 C   0  0  0  0  0  0  0  0  0  0  0  0
   22.1551  -18.1317  -14.9888 C   0  0  2  0  0  0  0  0  0  0  0  0
   22.5760  -19.5364  -14.7102 N   0  0  0  0  0  0  0  0  0  0  0  0
   23.8424  -19.4755  -13.9704 C   0  0  0  0  0  0  0  0  0  0  0  0
   22.7866  -20.3546  -15.9174 O   0  0  0  0  0  0  0  0  0  0  0  0
   21.8406  -21.2141  -16.4499 O   0  0  0  0  0  0  0  0  0  0  0  0
  1  2  1  0
  2  3  1  0
  3 13  1  0
  3  4  2  0
  5  6  1  0
  6  8  1  0
  7  6  2  0
  8  9  1  0
  9 10  1  0
 11 10  1  0
 12 11  1  6
 12 14  1  0
 13 12  1  0
 14 21  1  0
 14 15  2  0
 16 17  1  0
 17 19  1  0
 18 17  2  0
 20 19  1  1
 20 22  1  0
 21 20  1  0
 22 23  1  0
 24 22  2  0
M  END
$$$$
