GRN.pdb
     RDKit          3D

 24 23  0  0  1  0  0  0  0  0999 V2000
   19.5022  -30.7425   -9.5889 N   0  0  0  0  0  0  0  0  0  0  0  0
   19.9210  -31.7124  -10.5499 C   0  0  0  0  0  0  0  0  0  0  0  0
   20.5508  -31.0773  -11.7538 C   0  0  0  0  0  0  0  0  0  0  0  0
   20.3150  -29.8638  -11.9697 O   0  0  0  0  0  0  0  0  0  0  0  0
   26.0820  -34.7765  -17.2631 N   0  0  0  0  0  0  0  0  0  0  0  0
   24.9496  -34.2269  -17.9337 C   0  0  0  0  0  0  0  0  0  0  0  0
   24.5873  -34.5469  -19.1145 N   0  0  0  0  0  0  0  0  0  0  0  0
   24.1702  -33.2480  -17.2265 N   0  0  0  0  0  0  0  0  0  0  0  0
   24.7305  -32.4751  -16.1527 C   0  0  0  0  0  0  0  0  0  0  0  0
   23.6983  -31.4716  -15.6401 C   0  0  0  0  0  0  0  0  0  0  0  0
   23.0164  -32.0264  -14.4243 C   0  0  0  0  0  0  0  0  0  0  0  0
   21.9146  -31.1676  -13.8704 C   0  0  2  0  0  0  0  0  0  0  0  0
   21.3852  -31.7831  -12.6385 N   0  0  0  0  0  0  0  0  0  0  0  0
   20.8388  -31.0102  -14.8616 C   0  0  0  0  0  0  0  0  0  0  0  0
   19.9556  -31.8717  -15.0129 O   0  0  0  0  0  0  0  0  0  0  0  0
   23.7477  -34.0988  -19.5501 N   0  0  0  0  0  0  0  0  0  0  0  0
   17.5531  -28.9943  -18.1395 C   0  0  0  0  0  0  0  0  0  0  0  0
   18.1071  -27.9288  -17.3656 O   0  0  0  0  0  0  0  0  0  0  0  0
   17.6357  -26.7592  -17.4519 C   0  0  0  0  0  0  0  0  0  0  0  0
   19.2311  -28.2335  -16.4760 C   0  0  1  0  0  0  0  0  0  0  0  0
   19.6824  -29.6500  -16.6102 N   0  0  0  0  0  0  0  0  0  0  0  0
   20.7972  -29.8448  -15.6753 C   0  0  0  0  0  0  0  0  0  0  0  0
   20.1460  -30.0107  -17.9615 O   0  0  0  0  0  0  0  0  0  0  0  0
   19.3043  -30.3245  -19.0152 O   0  0  0  0  0  0  0  0  0  0  0  0
  1  2  1  0
  2  3  1  0
  3 13  1  0
  3  4  2  0
  5  6  1  0
  6  8  1  0
  7  6  2  0
  8  9  1  0
  9 10  1  0
 11 10  1  0
 12 11  1  6
 12 14  1  0
 13 12  1  0
 14 21  1  0
 14 15  2  0
 16 17  1  0
 17 19  1  0
 18 17  2  0
 20 19  1  1
 20 22  1  0
 21 20  1  0
 22 23  1  0
 24 22  2  0
M  END
$$$$
