GRN.pdb
     RDKit          3D

 24 23  0  0  1  0  0  0  0  0999 V2000
   16.6306  -22.2279  -13.1575 N   0  0  0  0  0  0  0  0  0  0  0  0
   17.7746  -22.8406  -13.7538 C   0  0  0  0  0  0  0  0  0  0  0  0
   18.9679  -21.9322  -13.7474 C   0  0  0  0  0  0  0  0  0  0  0  0
   18.7664  -20.6971  -13.6537 O   0  0  0  0  0  0  0  0  0  0  0  0
   27.0317  -21.9918  -13.5573 N   0  0  0  0  0  0  0  0  0  0  0  0
   26.8678  -20.5759  -13.6042 C   0  0  0  0  0  0  0  0  0  0  0  0
   27.7256  -19.7681  -14.0936 N   0  0  0  0  0  0  0  0  0  0  0  0
   25.6537  -20.0301  -13.0618 N   0  0  0  0  0  0  0  0  0  0  0  0
   24.5214  -20.8641  -12.7673 C   0  0  0  0  0  0  0  0  0  0  0  0
   23.9612  -21.4562  -14.0600 C   0  0  0  0  0  0  0  0  0  0  0  0
   22.7107  -22.2289  -13.7600 C   0  0  0  0  0  0  0  0  0  0  0  0
   21.4306  -21.5001  -14.0581 C   0  0  2  0  0  0  0  0  0  0  0  0
   20.2878  -22.4077  -13.8417 N   0  0  0  0  0  0  0  0  0  0  0  0
   21.4314  -21.0070  -15.4442 C   0  0  0  0  0  0  0  0  0  0  0  0
   20.8480  -21.6163  -16.3571 O   0  0  0  0  0  0  0  0  0  0  0  0
   27.5137  -18.7449  -14.1556 N   0  0  0  0  0  0  0  0  0  0  0  0
   21.7176  -17.8980  -19.4300 C   0  0  0  0  0  0  0  0  0  0  0  0
   20.5472  -18.0474  -18.6244 O   0  0  0  0  0  0  0  0  0  0  0  0
   19.4397  -17.5725  -19.0056 C   0  0  0  0  0  0  0  0  0  0  0  0
   20.6718  -18.7631  -17.3516 C   0  0  1  0  0  0  0  0  0  0  0  0
   22.0577  -19.2706  -17.1287 N   0  0  0  0  0  0  0  0  0  0  0  0
   22.1151  -19.8012  -15.7613 C   0  0  0  0  0  0  0  0  0  0  0  0
   23.1064  -18.2452  -17.2694 O   0  0  0  0  0  0  0  0  0  0  0  0
   23.5146  -17.4041  -16.2480 O   0  0  0  0  0  0  0  0  0  0  0  0
  1  2  1  0
  2  3  1  0
  3 13  1  0
  3  4  2  0
  5  6  1  0
  6  8  1  0
  7  6  2  0
  8  9  1  0
  9 10  1  0
 11 10  1  0
 12 11  1  6
 12 14  1  0
 13 12  1  0
 14 21  1  0
 14 15  2  0
 16 17  1  0
 17 19  1  0
 18 17  2  0
 20 19  1  6
 20 22  1  0
 21 20  1  0
 22 23  1  0
 24 22  2  0
M  END
$$$$
