GRN.pdb
     RDKit          3D

 24 23  0  0  1  0  0  0  0  0999 V2000
   24.5063  -21.1278   -7.9750 N   0  0  0  0  0  0  0  0  0  0  0  0
   25.3510  -21.3113   -9.1119 C   0  0  0  0  0  0  0  0  0  0  0  0
   24.9081  -20.4847  -10.2823 C   0  0  0  0  0  0  0  0  0  0  0  0
   23.7843  -19.9299  -10.2188 O   0  0  0  0  0  0  0  0  0  0  0  0
   25.0345  -17.7146  -17.0992 N   0  0  0  0  0  0  0  0  0  0  0  0
   25.8996  -16.5882  -16.9694 C   0  0  0  0  0  0  0  0  0  0  0  0
   25.6634  -15.4382  -17.4691 N   0  0  0  0  0  0  0  0  0  0  0  0
   27.1164  -16.7682  -16.2257 N   0  0  0  0  0  0  0  0  0  0  0  0
   27.3142  -17.9084  -15.3742 C   0  0  0  0  0  0  0  0  0  0  0  0
   26.1479  -18.0352  -14.3949 C   0  0  0  0  0  0  0  0  0  0  0  0
   26.3694  -19.2169  -13.4974 C   0  0  0  0  0  0  0  0  0  0  0  0
   25.2088  -19.5605  -12.6068 C   0  0  2  0  0  0  0  0  0  0  0  0
   25.6960  -20.3110  -11.4339 N   0  0  0  0  0  0  0  0  0  0  0  0
   24.2156  -20.3583  -13.3428 C   0  0  0  0  0  0  0  0  0  0  0  0
   24.3925  -21.5647  -13.5842 O   0  0  0  0  0  0  0  0  0  0  0  0
   26.3601  -14.6638  -17.3670 N   0  0  0  0  0  0  0  0  0  0  0  0
   19.2090  -22.3775  -13.5460 C   0  0  0  0  0  0  0  0  0  0  0  0
   19.5845  -21.1154  -14.1002 O   0  0  0  0  0  0  0  0  0  0  0  0
   18.9278  -20.6121  -15.0557 C   0  0  0  0  0  0  0  0  0  0  0  0
   20.7467  -20.4288  -13.5295 C   0  0  1  0  0  0  0  0  0  0  0  0
   21.9572  -20.5675  -14.3919 N   0  0  0  0  0  0  0  0  0  0  0  0
   23.0160  -19.7438  -13.7960 C   0  0  0  0  0  0  0  0  0  0  0  0
   21.7602  -20.1279  -15.7844 O   0  0  0  0  0  0  0  0  0  0  0  0
   21.3116  -20.9501  -16.8041 O   0  0  0  0  0  0  0  0  0  0  0  0
  1  2  1  0
  2  3  1  0
  3 13  1  0
  3  4  2  0
  5  6  1  0
  6  8  1  0
  7  6  2  0
  8  9  1  0
  9 10  1  0
 11 10  1  0
 12 11  1  6
 12 14  1  0
 13 12  1  0
 14 21  1  0
 14 15  2  0
 16 17  1  0
 17 19  1  0
 18 17  2  0
 20 19  1  1
 20 22  1  0
 21 20  1  0
 22 23  1  0
 24 22  2  0
M  END
$$$$
