GRN.pdb
     RDKit          3D

 24 23  0  0  1  0  0  0  0  0999 V2000
   37.6212   -9.3915  -14.9882 N   0  0  0  0  0  0  0  0  0  0  0  0
   36.2463   -9.5537  -14.6374 C   0  0  0  0  0  0  0  0  0  0  0  0
   35.3524   -9.5429  -15.8416 C   0  0  0  0  0  0  0  0  0  0  0  0
   35.7017   -8.8491  -16.8272 O   0  0  0  0  0  0  0  0  0  0  0  0
   31.3576  -14.6324  -20.9207 N   0  0  0  0  0  0  0  0  0  0  0  0
   30.5046  -13.5078  -21.1246 C   0  0  0  0  0  0  0  0  0  0  0  0
   29.6781  -13.3972  -22.0904 N   0  0  0  0  0  0  0  0  0  0  0  0
   30.5876  -12.4314  -20.1757 N   0  0  0  0  0  0  0  0  0  0  0  0
   31.4485  -12.5069  -19.0279 C   0  0  0  0  0  0  0  0  0  0  0  0
   31.2461  -11.2770  -18.1438 C   0  0  0  0  0  0  0  0  0  0  0  0
   32.2499  -11.2870  -17.0288 C   0  0  0  0  0  0  0  0  0  0  0  0
   33.2149  -10.1349  -17.0368 C   0  0  2  0  0  0  0  0  0  0  0  0
   34.1521  -10.2725  -15.9057 N   0  0  0  0  0  0  0  0  0  0  0  0
   32.4905   -8.8578  -16.9430 C   0  0  0  0  0  0  0  0  0  0  0  0
   31.9202   -8.5029  -15.8971 O   0  0  0  0  0  0  0  0  0  0  0  0
   29.1097  -12.5256  -22.2032 N   0  0  0  0  0  0  0  0  0  0  0  0
   32.4078   -3.2506  -18.6984 C   0  0  0  0  0  0  0  0  0  0  0  0
   31.6708   -4.4598  -18.8872 O   0  0  0  0  0  0  0  0  0  0  0  0
   30.4269   -4.4264  -19.1094 C   0  0  0  0  0  0  0  0  0  0  0  0
   32.3980   -5.7302  -18.8153 C   0  0  1  0  0  0  0  0  0  0  0  0
   31.6716   -6.7447  -17.9960 N   0  0  0  0  0  0  0  0  0  0  0  0
   32.4337   -7.9969  -18.0732 C   0  0  0  0  0  0  0  0  0  0  0  0
   30.2956   -7.0141  -18.4491 O   0  0  0  0  0  0  0  0  0  0  0  0
   29.1774   -6.3434  -17.9833 O   0  0  0  0  0  0  0  0  0  0  0  0
  1  2  1  0
  2  3  1  0
  3 13  1  0
  3  4  2  0
  5  6  1  0
  6  8  1  0
  7  6  2  0
  8  9  1  0
  9 10  1  0
 11 10  1  0
 12 11  1  1
 12 14  1  0
 13 12  1  0
 14 21  1  0
 14 15  2  0
 16 17  1  0
 17 19  1  0
 18 17  2  0
 20 19  1  1
 20 22  1  0
 21 20  1  0
 22 23  1  0
 24 22  2  0
M  END
$$$$
