GRN.pdb
     RDKit          3D

 24 23  0  0  1  0  0  0  0  0999 V2000
   26.5827  -20.1484   -7.5998 N   0  0  0  0  0  0  0  0  0  0  0  0
   25.6158  -20.9153   -8.3184 C   0  0  0  0  0  0  0  0  0  0  0  0
   25.4359  -20.4217   -9.7231 C   0  0  0  0  0  0  0  0  0  0  0  0
   25.5790  -19.1935   -9.9378 O   0  0  0  0  0  0  0  0  0  0  0  0
   27.9383  -19.1793  -17.1492 N   0  0  0  0  0  0  0  0  0  0  0  0
   28.4075  -20.4944  -16.8587 C   0  0  0  0  0  0  0  0  0  0  0  0
   29.1338  -21.1892  -17.6446 N   0  0  0  0  0  0  0  0  0  0  0  0
   28.0326  -21.0687  -15.5955 N   0  0  0  0  0  0  0  0  0  0  0  0
   27.2983  -20.3157  -14.6167 C   0  0  0  0  0  0  0  0  0  0  0  0
   27.2341  -21.0934  -13.3028 C   0  0  0  0  0  0  0  0  0  0  0  0
   25.8418  -21.6105  -13.0906 C   0  0  0  0  0  0  0  0  0  0  0  0
   24.9895  -20.7748  -12.1775 C   0  0  2  0  0  0  0  0  0  0  0  0
   25.1166  -21.2739  -10.7950 N   0  0  0  0  0  0  0  0  0  0  0  0
   23.5826  -20.8189  -12.6054 C   0  0  0  0  0  0  0  0  0  0  0  0
   22.8262  -21.7489  -12.2767 O   0  0  0  0  0  0  0  0  0  0  0  0
   29.4271  -22.1575  -17.3765 N   0  0  0  0  0  0  0  0  0  0  0  0
   19.4331  -17.0113  -15.0867 C   0  0  0  0  0  0  0  0  0  0  0  0
   19.8542  -18.1651  -14.3570 O   0  0  0  0  0  0  0  0  0  0  0  0
   19.0089  -19.0122  -13.9501 C   0  0  0  0  0  0  0  0  0  0  0  0
   21.2867  -18.3332  -14.0974 C   0  0  2  0  0  0  0  0  0  0  0  0
   21.6261  -19.7376  -13.7225 N   0  0  0  0  0  0  0  0  0  0  0  0
   23.0616  -19.7748  -13.4180 C   0  0  0  0  0  0  0  0  0  0  0  0
   21.3535  -20.7275  -14.7793 O   0  0  0  0  0  0  0  0  0  0  0  0
   22.1564  -20.9206  -15.8908 O   0  0  0  0  0  0  0  0  0  0  0  0
  1  2  1  0
  2  3  1  0
  3 13  1  0
  3  4  2  0
  5  6  1  0
  6  8  1  0
  7  6  2  0
  8  9  1  0
  9 10  1  0
 11 10  1  0
 12 11  1  6
 12 14  1  0
 13 12  1  0
 14 21  1  0
 14 15  2  0
 16 17  1  0
 17 19  1  0
 18 17  2  0
 20 19  1  1
 20 22  1  0
 21 20  1  0
 22 23  1  0
 24 22  2  0
M  END
$$$$
