SLM.pdb
     RDKit          3D

 23 22  0  0  1  0  0  0  0  0999 V2000
   21.1150  -13.1636  -21.6060 O   0  0  0  0  0  0  0  0  0  0  0  0
   21.4635  -12.5887  -20.3850 C   0  0  0  0  0  0  0  0  0  0  0  0
   22.5251  -13.4431  -19.7281 C   0  0  2  0  0  0  0  0  0  0  0  0
   21.8753  -14.6431  -19.2383 N   0  0  0  0  0  0  0  0  0  0  0  0
   23.1514  -12.6841  -18.6061 C   0  0  0  0  0  0  0  0  0  0  0  0
   22.5678  -12.6462  -17.4944 O   0  0  0  0  0  0  0  0  0  0  0  0
   28.6922  -10.2714  -17.1032 C   0  0  0  0  0  0  0  0  0  0  0  0
   27.2242  -10.3730  -16.8889 C   0  0  2  0  0  0  0  0  0  0  0  0
   26.9495  -10.7467  -15.4412 C   0  0  0  0  0  0  0  0  0  0  0  0
   26.4665  -11.2232  -17.8426 C   0  0  0  0  0  0  0  0  0  0  0  0
   24.9821  -11.2104  -17.7266 C   0  0  2  0  0  0  0  0  0  0  0  0
   24.3809  -12.0114  -18.7697 N   0  0  0  0  0  0  0  0  0  0  0  0
   24.5459   -9.7956  -17.9500 C   0  0  0  0  0  0  0  0  0  0  0  0
   24.5421   -9.2861  -19.1049 O   0  0  0  0  0  0  0  0  0  0  0  0
   20.0882   -6.2329  -14.3462 C   0  0  0  0  0  0  0  0  0  0  0  0
   21.6005   -5.2589  -14.4865 S   0  0  0  0  0  0  0  0  0  0  0  0
   22.5614   -5.6997  -15.9593 C   0  0  0  0  0  0  0  0  0  0  0  0
   22.9102   -7.1531  -15.8616 C   0  0  0  0  0  0  0  0  0  0  0  0
   23.6995   -7.6075  -17.0249 C   0  0  2  0  0  0  0  0  0  0  0  0
   24.1298   -9.0000  -16.8780 N   0  0  0  0  0  0  0  0  0  0  0  0
   24.9010   -6.8099  -17.2878 C   0  0  0  0  0  0  0  0  0  0  0  0
   26.0761   -7.0533  -16.5757 O   0  0  0  0  0  0  0  0  0  0  0  0
   24.9128   -5.9107  -18.1342 O   0  0  0  0  0  0  0  0  0  0  0  0
  2  1  1  0
  3  5  1  0
  3  2  1  0
  3  4  1  1
  5  6  2  0
  8  7  1  6
  8  9  1  0
  8 10  1  0
 11 10  1  6
 11 13  1  0
 12 11  1  0
 12  5  1  0
 13 20  1  0
 13 14  2  0
 15 16  1  0
 16 17  1  0
 17 18  1  0
 19 18  1  1
 19 21  1  0
 20 19  1  0
 21 22  1  0
 23 21  2  0
M  END
$$$$
