SLM.pdb
     RDKit          3D

 23 22  0  0  1  0  0  0  0  0999 V2000
   26.0823  -18.3666  -17.1546 O   0  0  0  0  0  0  0  0  0  0  0  0
   27.3376  -18.2073  -16.5700 C   0  0  0  0  0  0  0  0  0  0  0  0
   27.9143  -19.5737  -16.2714 C   0  0  2  0  0  0  0  0  0  0  0  0
   28.0470  -20.2745  -17.5337 N   0  0  0  0  0  0  0  0  0  0  0  0
   26.9995  -20.3098  -15.3502 C   0  0  0  0  0  0  0  0  0  0  0  0
   26.3663  -21.3038  -15.7848 O   0  0  0  0  0  0  0  0  0  0  0  0
   25.6040  -20.2890   -9.2362 C   0  0  0  0  0  0  0  0  0  0  0  0
   25.4095  -20.8048  -10.6173 C   0  0  2  0  0  0  0  0  0  0  0  0
   25.4891  -22.3228  -10.6057 C   0  0  0  0  0  0  0  0  0  0  0  0
   26.2565  -20.2054  -11.6803 C   0  0  0  0  0  0  0  0  0  0  0  0
   25.9651  -20.6089  -13.0836 C   0  0  2  0  0  0  0  0  0  0  0  0
   26.8332  -19.9121  -14.0067 N   0  0  0  0  0  0  0  0  0  0  0  0
   24.5647  -20.1666  -13.3758 C   0  0  0  0  0  0  0  0  0  0  0  0
   24.2382  -18.9485  -13.3232 O   0  0  0  0  0  0  0  0  0  0  0  0
   21.1576  -22.0531  -18.3649 C   0  0  0  0  0  0  0  0  0  0  0  0
   19.8859  -22.1522  -17.0888 S   0  0  0  0  0  0  0  0  0  0  0  0
   20.3244  -21.1944  -15.6133 C   0  0  0  0  0  0  0  0  0  0  0  0
   21.7442  -21.5173  -15.2618 C   0  0  0  0  0  0  0  0  0  0  0  0
   22.2169  -20.7271  -14.1064 C   0  0  2  0  0  0  0  0  0  0  0  0
   23.5791  -21.0983  -13.7161 N   0  0  0  0  0  0  0  0  0  0  0  0
   21.3778  -20.8453  -12.9103 C   0  0  0  0  0  0  0  0  0  0  0  0
   20.2838  -19.9976  -12.7324 O   0  0  0  0  0  0  0  0  0  0  0  0
   21.6075  -21.6854  -12.0347 O   0  0  0  0  0  0  0  0  0  0  0  0
  2  1  1  0
  3  5  1  0
  3  2  1  0
  3  4  1  6
  5  6  2  0
  8  7  1  1
  8  9  1  0
  8 10  1  0
 11 10  1  1
 11 13  1  0
 12 11  1  0
 12  5  1  0
 13 20  1  0
 13 14  2  0
 15 16  1  0
 16 17  1  0
 17 18  1  0
 19 18  1  6
 19 21  1  0
 20 19  1  0
 21 22  1  0
 23 21  2  0
M  END
$$$$
