SLM.pdb
     RDKit          3D

 23 22  0  0  1  0  0  0  0  0999 V2000
   25.1736  -22.0829  -15.6651 O   0  0  0  0  0  0  0  0  0  0  0  0
   25.6767  -23.2418  -16.2539 C   0  0  0  0  0  0  0  0  0  0  0  0
   27.0321  -22.9368  -16.8526 C   0  0  2  0  0  0  0  0  0  0  0  0
   26.8158  -22.0851  -18.0059 N   0  0  0  0  0  0  0  0  0  0  0  0
   27.6981  -24.2111  -17.2523 C   0  0  0  0  0  0  0  0  0  0  0  0
   27.3966  -24.7383  -18.3518 O   0  0  0  0  0  0  0  0  0  0  0  0
   32.1946  -25.0947  -17.7396 C   0  0  0  0  0  0  0  0  0  0  0  0
   31.7127  -25.1594  -16.3343 C   0  0  2  0  0  0  0  0  0  0  0  0
   32.9021  -25.3011  -15.3982 C   0  0  0  0  0  0  0  0  0  0  0  0
   30.6437  -26.1475  -16.0388 C   0  0  0  0  0  0  0  0  0  0  0  0
   29.3770  -26.0233  -16.8114 C   0  0  2  0  0  0  0  0  0  0  0  0
   28.6555  -24.8319  -16.4224 N   0  0  0  0  0  0  0  0  0  0  0  0
   28.5268  -27.1967  -16.4341 C   0  0  0  0  0  0  0  0  0  0  0  0
   28.2640  -27.4538  -15.2266 O   0  0  0  0  0  0  0  0  0  0  0  0
   22.3513  -31.3232  -18.7001 C   0  0  0  0  0  0  0  0  0  0  0  0
   23.3856  -29.8540  -18.5344 S   0  0  0  0  0  0  0  0  0  0  0  0
   24.9761  -30.2250  -17.7473 C   0  0  0  0  0  0  0  0  0  0  0  0
   25.7528  -28.9473  -17.6576 C   0  0  0  0  0  0  0  0  0  0  0  0
   27.1120  -29.1677  -17.1220 C   0  0  2  0  0  0  0  0  0  0  0  0
   28.0005  -28.0411  -17.4166 N   0  0  0  0  0  0  0  0  0  0  0  0
   27.7692  -30.3784  -17.6231 C   0  0  0  0  0  0  0  0  0  0  0  0
   28.6952  -30.2961  -18.6638 O   0  0  0  0  0  0  0  0  0  0  0  0
   27.5291  -31.4930  -17.1488 O   0  0  0  0  0  0  0  0  0  0  0  0
  2  1  1  0
  3  5  1  0
  3  2  1  0
  3  4  1  6
  5  6  2  0
  8  7  1  6
  8  9  1  0
  8 10  1  0
 11 10  1  1
 11 13  1  0
 12 11  1  0
 12  5  1  0
 13 20  1  0
 13 14  2  0
 15 16  1  0
 16 17  1  0
 17 18  1  0
 19 18  1  6
 19 21  1  0
 20 19  1  0
 21 22  1  0
 23 21  2  0
M  END
$$$$
