SLM.pdb
     RDKit          3D

 23 22  0  0  1  0  0  0  0  0999 V2000
   24.9374  -17.9882  -14.4017 O   0  0  0  0  0  0  0  0  0  0  0  0
   25.9778  -17.1638  -14.8270 C   0  0  0  0  0  0  0  0  0  0  0  0
   27.2257  -18.0014  -14.9990 C   0  0  2  0  0  0  0  0  0  0  0  0
   27.5836  -17.9642  -16.4035 N   0  0  0  0  0  0  0  0  0  0  0  0
   26.9507  -19.4007  -14.5591 C   0  0  0  0  0  0  0  0  0  0  0  0
   26.8468  -20.3036  -15.4262 O   0  0  0  0  0  0  0  0  0  0  0  0
   29.7327  -21.6496  -11.8359 C   0  0  0  0  0  0  0  0  0  0  0  0
   28.7338  -20.8182  -11.1133 C   0  0  2  0  0  0  0  0  0  0  0  0
   29.1043  -20.7491   -9.6406 C   0  0  0  0  0  0  0  0  0  0  0  0
   27.3035  -21.1632  -11.3177 C   0  0  0  0  0  0  0  0  0  0  0  0
   26.7835  -21.0899  -12.7110 C   0  0  2  0  0  0  0  0  0  0  0  0
   26.8059  -19.7271  -13.1940 N   0  0  0  0  0  0  0  0  0  0  0  0
   25.3489  -21.5153  -12.6571 C   0  0  0  0  0  0  0  0  0  0  0  0
   25.0162  -22.6391  -12.1885 O   0  0  0  0  0  0  0  0  0  0  0  0
   20.6148  -17.9441  -10.8018 C   0  0  0  0  0  0  0  0  0  0  0  0
   19.6977  -18.8264  -12.0809 S   0  0  0  0  0  0  0  0  0  0  0  0
   20.6188  -20.2509  -12.7205 C   0  0  0  0  0  0  0  0  0  0  0  0
   22.0795  -19.9698  -12.5439 C   0  0  0  0  0  0  0  0  0  0  0  0
   22.9182  -21.0363  -13.1286 C   0  0  2  0  0  0  0  0  0  0  0  0
   24.3371  -20.6725  -13.1276 N   0  0  0  0  0  0  0  0  0  0  0  0
   22.5656  -21.3949  -14.5056 C   0  0  0  0  0  0  0  0  0  0  0  0
   21.5332  -22.3002  -14.7538 O   0  0  0  0  0  0  0  0  0  0  0  0
   23.1609  -20.9156  -15.4756 O   0  0  0  0  0  0  0  0  0  0  0  0
  2  1  1  0
  3  5  1  0
  3  2  1  0
  3  4  1  6
  5  6  2  0
  8  7  1  6
  8  9  1  0
  8 10  1  0
 11 10  1  1
 11 13  1  0
 12 11  1  0
 12  5  1  0
 13 20  1  0
 13 14  2  0
 15 16  1  0
 16 17  1  0
 17 18  1  0
 19 18  1  6
 19 21  1  0
 20 19  1  0
 21 22  1  0
 23 21  2  0
M  END
$$$$
