SLM.pdb
     RDKit          3D

 23 22  0  0  1  0  0  0  0  0999 V2000
   24.6420  -20.4210  -13.2633 O   0  0  0  0  0  0  0  0  0  0  0  0
   25.4931  -19.6997  -12.4277 C   0  0  0  0  0  0  0  0  0  0  0  0
   26.5474  -20.6356  -11.8789 C   0  0  2  0  0  0  0  0  0  0  0  0
   26.6132  -21.7824  -12.7636 N   0  0  0  0  0  0  0  0  0  0  0  0
   26.1712  -21.0537  -10.4965 C   0  0  0  0  0  0  0  0  0  0  0  0
   25.8104  -22.2398  -10.2947 O   0  0  0  0  0  0  0  0  0  0  0  0
   27.7986  -21.0434   -5.7433 C   0  0  0  0  0  0  0  0  0  0  0  0
   27.6388  -19.7569   -6.4718 C   0  0  2  0  0  0  0  0  0  0  0  0
   28.0876  -18.6114   -5.5788 C   0  0  0  0  0  0  0  0  0  0  0  0
   26.3140  -19.5001   -7.0926 C   0  0  0  0  0  0  0  0  0  0  0  0
   25.8209  -20.5067   -8.0727 C   0  0  2  0  0  0  0  0  0  0  0  0
   26.2129  -20.1460   -9.4171 N   0  0  0  0  0  0  0  0  0  0  0  0
   24.3252  -20.4594   -8.0216 C   0  0  0  0  0  0  0  0  0  0  0  0
   23.6815  -19.5119   -8.5518 O   0  0  0  0  0  0  0  0  0  0  0  0
   20.2170  -25.4401   -8.7641 C   0  0  0  0  0  0  0  0  0  0  0  0
   19.5794  -24.6221   -7.2876 S   0  0  0  0  0  0  0  0  0  0  0  0
   20.1175  -22.8943   -7.1792 C   0  0  0  0  0  0  0  0  0  0  0  0
   21.6108  -22.8705   -7.2950 C   0  0  0  0  0  0  0  0  0  0  0  0
   22.1387  -21.4907   -7.3036 C   0  0  2  0  0  0  0  0  0  0  0  0
   23.6013  -21.4699   -7.3812 N   0  0  0  0  0  0  0  0  0  0  0  0
   21.7570  -20.6910   -6.1358 C   0  0  0  0  0  0  0  0  0  0  0  0
   22.4917  -20.7793   -4.9527 O   0  0  0  0  0  0  0  0  0  0  0  0
   20.7883  -19.9254   -6.1598 O   0  0  0  0  0  0  0  0  0  0  0  0
  2  1  1  0
  3  5  1  0
  3  2  1  0
  3  4  1  6
  5  6  2  0
  8  7  1  1
  8  9  1  0
  8 10  1  0
 11 10  1  1
 11 13  1  0
 12 11  1  0
 12  5  1  0
 13 20  1  0
 13 14  2  0
 15 16  1  0
 16 17  1  0
 17 18  1  0
 19 18  1  1
 19 21  1  0
 20 19  1  0
 21 22  1  0
 23 21  2  0
M  END
$$$$
