MCF.pdb
     RDKit          3D

 26 26  0  0  1  0  0  0  0  0999 V2000
    7.7495  -11.6223   20.3479 C   0  0  0  0  0  0  0  0  0  0  0  0
    7.6130  -12.4834   18.7697 S   0  0  0  0  0  0  0  0  0  0  0  0
    7.9171  -14.2369   18.9325 C   0  0  0  0  0  0  0  0  0  0  0  0
    7.3576  -14.8170   20.1799 C   0  0  0  0  0  0  0  0  0  0  0  0
    7.4835  -16.2933   20.3287 C   0  0  2  0  0  0  0  0  0  0  0  0
    6.7485  -17.0810   19.3919 N   0  0  0  0  0  0  0  0  0  0  0  0
    7.1664  -16.7010   21.7296 C   0  0  0  0  0  0  0  0  0  0  0  0
    5.9530  -16.7985   22.1148 O   0  0  0  0  0  0  0  0  0  0  0  0
    8.1531  -16.9979   22.6986 N   0  0  0  0  0  0  0  0  0  0  0  0
    7.7572  -17.3787   24.0468 C   0  0  1  0  0  0  0  0  0  0  0  0
    7.9776  -18.8793   24.2242 C   0  0  0  0  0  0  0  0  0  0  0  0
    6.4437  -19.7635   23.9039 S   0  0  0  0  0  0  0  0  0  0  0  0
    8.6682  -16.6997   24.9959 C   0  0  0  0  0  0  0  0  0  0  0  0
    9.8515  -16.5325   24.5957 O   0  0  0  0  0  0  0  0  0  0  0  0
    8.2075  -16.2823   26.2548 N   0  0  0  0  0  0  0  0  0  0  0  0
    9.1219  -15.7296   27.2350 C   0  0  1  0  0  0  0  0  0  0  0  0
    8.5263  -14.6314   28.0338 C   0  0  0  0  0  0  0  0  0  0  0  0
    8.0412  -13.5344   27.2083 C   0  0  0  0  0  0  0  0  0  0  0  0
    6.7391  -13.5690   26.7333 C   0  0  0  0  0  0  0  0  0  0  0  0
    6.2828  -12.5144   25.9630 C   0  0  0  0  0  0  0  0  0  0  0  0
    7.1114  -11.4492   25.6747 C   0  0  0  0  0  0  0  0  0  0  0  0
    8.4204  -11.3872   26.1366 C   0  0  0  0  0  0  0  0  0  0  0  0
    8.8527  -12.4630   26.9098 C   0  0  0  0  0  0  0  0  0  0  0  0
    9.7373  -16.8319   28.0181 C   0  0  0  0  0  0  0  0  0  0  0  0
    9.3347  -18.1640   27.9181 O   0  0  0  0  0  0  0  0  0  0  0  0
   10.6732  -16.6363   28.8312 O   0  0  0  0  0  0  0  0  0  0  0  0
  2  1  1  0
  3  2  1  0
  4  3  1  0
  4  5  1  0
  5  7  1  0
  5  6  1  6
  7  8  2  0
  9  7  1  0
  9 10  1  0
 10 11  1  6
 11 12  1  0
 13 15  1  0
 13 10  1  0
 14 13  2  0
 16 15  1  0
 16 17  1  1
 18 17  1  0
 18 19  2  0
 20 19  1  0
 21 20  2  0
 22 23  2  0
 22 21  1  0
 23 18  1  0
 24 16  1  0
 24 25  1  0
 26 24  2  0
M  END
$$$$
