MCF.pdb
     RDKit          3D

 26 26  0  0  1  0  0  0  0  0999 V2000
    9.5398  -12.1698   19.1698 C   0  0  0  0  0  0  0  0  0  0  0  0
    8.4864  -12.0734   20.6299 S   0  0  0  0  0  0  0  0  0  0  0  0
    7.5694  -13.5838   20.8977 C   0  0  0  0  0  0  0  0  0  0  0  0
    8.3542  -14.8085   20.5987 C   0  0  0  0  0  0  0  0  0  0  0  0
    7.6686  -16.1047   20.8587 C   0  0  2  0  0  0  0  0  0  0  0  0
    6.2852  -16.1611   20.5106 N   0  0  0  0  0  0  0  0  0  0  0  0
    7.8771  -16.5249   22.2762 C   0  0  0  0  0  0  0  0  0  0  0  0
    6.9299  -16.4220   23.1263 O   0  0  0  0  0  0  0  0  0  0  0  0
    9.0971  -17.0490   22.7638 N   0  0  0  0  0  0  0  0  0  0  0  0
    9.1700  -17.5852   24.1153 C   0  0  1  0  0  0  0  0  0  0  0  0
   10.1097  -18.7888   24.1223 C   0  0  0  0  0  0  0  0  0  0  0  0
   10.0742  -19.5813   25.7372 S   0  0  0  0  0  0  0  0  0  0  0  0
    9.7910  -16.5555   24.9789 C   0  0  0  0  0  0  0  0  0  0  0  0
   10.7134  -15.8795   24.4494 O   0  0  0  0  0  0  0  0  0  0  0  0
    9.3537  -16.3722   26.3004 N   0  0  0  0  0  0  0  0  0  0  0  0
    9.9999  -15.4085   27.1701 C   0  0  1  0  0  0  0  0  0  0  0  0
    9.0443  -14.6562   28.0184 C   0  0  0  0  0  0  0  0  0  0  0  0
    8.0771  -13.8966   27.2387 C   0  0  0  0  0  0  0  0  0  0  0  0
    8.4367  -12.6545   26.7385 C   0  0  0  0  0  0  0  0  0  0  0  0
    7.5163  -11.9477   25.9856 C   0  0  0  0  0  0  0  0  0  0  0  0
    6.2640  -12.4726   25.7390 C   0  0  0  0  0  0  0  0  0  0  0  0
    5.8757  -13.7142   26.2272 C   0  0  0  0  0  0  0  0  0  0  0  0
    6.8231  -14.4033   26.9820 C   0  0  0  0  0  0  0  0  0  0  0  0
   11.1208  -16.0635   27.8921 C   0  0  0  0  0  0  0  0  0  0  0  0
   11.4402  -17.4145   27.7528 O   0  0  0  0  0  0  0  0  0  0  0  0
   11.8658  -15.4373   28.6847 O   0  0  0  0  0  0  0  0  0  0  0  0
  2  1  1  0
  3  2  1  0
  4  3  1  0
  4  5  1  0
  5  7  1  0
  5  6  1  1
  7  8  2  0
  9  7  1  0
  9 10  1  0
 10 11  1  6
 11 12  1  0
 13 15  1  0
 13 10  1  0
 14 13  2  0
 16 15  1  0
 16 17  1  1
 18 17  1  0
 18 19  2  0
 20 19  1  0
 21 20  2  0
 22 23  2  0
 22 21  1  0
 23 18  1  0
 24 16  1  0
 24 25  1  0
 26 24  2  0
M  END
$$$$
