MCF.pdb
     RDKit          3D

 26 26  0  0  1  0  0  0  0  0999 V2000
    9.9188  -12.2374   19.7166 C   0  0  0  0  0  0  0  0  0  0  0  0
    8.3873  -12.4188   18.7825 S   0  0  0  0  0  0  0  0  0  0  0  0
    7.7916  -14.1037   18.7896 C   0  0  0  0  0  0  0  0  0  0  0  0
    8.8805  -15.1122   18.7389 C   0  0  0  0  0  0  0  0  0  0  0  0
    8.4662  -16.5317   18.9150 C   0  0  2  0  0  0  0  0  0  0  0  0
    7.4896  -17.0169   17.9935 N   0  0  0  0  0  0  0  0  0  0  0  0
    8.0338  -16.7736   20.3235 C   0  0  0  0  0  0  0  0  0  0  0  0
    6.8303  -16.5379   20.6790 O   0  0  0  0  0  0  0  0  0  0  0  0
    8.8963  -17.2638   21.3317 N   0  0  0  0  0  0  0  0  0  0  0  0
    8.4043  -17.4310   22.6916 C   0  0  1  0  0  0  0  0  0  0  0  0
    8.4478  -18.9131   23.0570 C   0  0  0  0  0  0  0  0  0  0  0  0
    9.9735  -19.6471   22.4481 S   0  0  0  0  0  0  0  0  0  0  0  0
    9.3452  -16.7405   23.6025 C   0  0  0  0  0  0  0  0  0  0  0  0
   10.5509  -16.7247   23.2362 O   0  0  0  0  0  0  0  0  0  0  0  0
    8.8867  -16.1516   24.7917 N   0  0  0  0  0  0  0  0  0  0  0  0
    9.8115  -15.5200   25.7128 C   0  0  1  0  0  0  0  0  0  0  0  0
    9.6670  -14.0451   25.7641 C   0  0  0  0  0  0  0  0  0  0  0  0
    8.3136  -13.6237   26.0972 C   0  0  0  0  0  0  0  0  0  0  0  0
    7.3326  -13.6615   25.1182 C   0  0  0  0  0  0  0  0  0  0  0  0
    6.0463  -13.2742   25.4487 C   0  0  0  0  0  0  0  0  0  0  0  0
    5.7490  -12.8583   26.7306 C   0  0  0  0  0  0  0  0  0  0  0  0
    6.7111  -12.8098   27.7319 C   0  0  0  0  0  0  0  0  0  0  0  0
    7.9974  -13.2057   27.3702 C   0  0  0  0  0  0  0  0  0  0  0  0
    9.7600  -16.2158   27.0244 C   0  0  0  0  0  0  0  0  0  0  0  0
   10.6321  -15.9374   28.0773 O   0  0  0  0  0  0  0  0  0  0  0  0
    8.9172  -17.1109   27.2767 O   0  0  0  0  0  0  0  0  0  0  0  0
  2  1  1  0
  3  2  1  0
  4  3  1  0
  4  5  1  0
  5  7  1  0
  5  6  1  6
  7  8  2  0
  9  7  1  0
  9 10  1  0
 10 11  1  1
 11 12  1  0
 13 15  1  0
 13 10  1  0
 14 13  2  0
 16 15  1  0
 16 17  1  1
 18 17  1  0
 18 19  2  0
 20 19  1  0
 21 20  2  0
 22 23  2  0
 22 21  1  0
 23 18  1  0
 24 16  1  0
 24 25  1  0
 26 24  2  0
M  END
$$$$
