MCF.pdb
     RDKit          3D

 26 26  0  0  1  0  0  0  0  0999 V2000
    7.9341  -11.7752   19.6278 C   0  0  0  0  0  0  0  0  0  0  0  0
    8.0156  -13.0806   18.3868 S   0  0  0  0  0  0  0  0  0  0  0  0
    8.3043  -14.6856   19.1179 C   0  0  0  0  0  0  0  0  0  0  0  0
    7.9595  -14.7445   20.5611 C   0  0  0  0  0  0  0  0  0  0  0  0
    8.2682  -16.0250   21.2558 C   0  0  2  0  0  0  0  0  0  0  0  0
    7.7090  -17.2026   20.6738 N   0  0  0  0  0  0  0  0  0  0  0  0
    7.9127  -15.9274   22.7027 C   0  0  0  0  0  0  0  0  0  0  0  0
    8.6357  -15.2408   23.5004 O   0  0  0  0  0  0  0  0  0  0  0  0
    6.7884  -16.5667   23.2753 N   0  0  0  0  0  0  0  0  0  0  0  0
    6.8768  -17.1328   24.6136 C   0  0  1  0  0  0  0  0  0  0  0  0
    7.0885  -18.6409   24.5022 C   0  0  0  0  0  0  0  0  0  0  0  0
    7.0452  -19.3858   26.1394 S   0  0  0  0  0  0  0  0  0  0  0  0
    8.0878  -16.5797   25.2610 C   0  0  0  0  0  0  0  0  0  0  0  0
    8.8430  -15.8966   24.5185 O   0  0  0  0  0  0  0  0  0  0  0  0
    8.3463  -16.8221   26.6196 N   0  0  0  0  0  0  0  0  0  0  0  0
    9.3515  -16.0581   27.3326 C   0  0  1  0  0  0  0  0  0  0  0  0
    8.7881  -14.9079   28.0799 C   0  0  0  0  0  0  0  0  0  0  0  0
    8.1517  -13.9291   27.2097 C   0  0  0  0  0  0  0  0  0  0  0  0
    8.9429  -13.0403   26.4982 C   0  0  0  0  0  0  0  0  0  0  0  0
    8.3295  -12.1246   25.6621 C   0  0  0  0  0  0  0  0  0  0  0  0
    6.9550  -12.0993   25.5411 C   0  0  0  0  0  0  0  0  0  0  0  0
    6.1369  -12.9773   26.2416 C   0  0  0  0  0  0  0  0  0  0  0  0
    6.7822  -13.8882   27.0758 C   0  0  0  0  0  0  0  0  0  0  0  0
   10.2083  -16.9792   28.1230 C   0  0  0  0  0  0  0  0  0  0  0  0
   11.4269  -16.6015   28.6876 O   0  0  0  0  0  0  0  0  0  0  0  0
    9.8884  -18.1734   28.3395 O   0  0  0  0  0  0  0  0  0  0  0  0
  2  1  1  0
  3  2  1  0
  4  3  1  0
  4  5  1  0
  5  7  1  0
  5  6  1  6
  7  8  2  0
  9  7  1  0
  9 10  1  0
 10 11  1  6
 11 12  1  0
 13 15  1  0
 13 10  1  0
 14 13  2  0
 16 15  1  0
 16 17  1  1
 18 17  1  0
 18 19  2  0
 20 19  1  0
 21 20  2  0
 22 23  2  0
 22 21  1  0
 23 18  1  0
 24 16  1  0
 24 25  1  0
 26 24  2  0
M  END
$$$$
