MCF.pdb
     RDKit          3D

 26 26  0  0  1  0  0  0  0  0999 V2000
    7.7934  -12.6042   21.6094 C   0  0  0  0  0  0  0  0  0  0  0  0
    7.9958  -12.4905   19.8214 S   0  0  0  0  0  0  0  0  0  0  0  0
    7.6444  -14.0411   19.0054 C   0  0  0  0  0  0  0  0  0  0  0  0
    7.2268  -15.1160   19.9410 C   0  0  0  0  0  0  0  0  0  0  0  0
    8.0638  -16.3477   19.9379 C   0  0  2  0  0  0  0  0  0  0  0  0
    7.6998  -17.3486   18.9871 N   0  0  0  0  0  0  0  0  0  0  0  0
    8.1408  -16.9244   21.3130 C   0  0  0  0  0  0  0  0  0  0  0  0
    7.0740  -17.1903   21.9623 O   0  0  0  0  0  0  0  0  0  0  0  0
    9.3589  -17.2077   21.9738 N   0  0  0  0  0  0  0  0  0  0  0  0
    9.3444  -17.7577   23.3216 C   0  0  1  0  0  0  0  0  0  0  0  0
    9.9510  -19.1588   23.2931 C   0  0  0  0  0  0  0  0  0  0  0  0
   11.4874  -19.1396   22.3570 S   0  0  0  0  0  0  0  0  0  0  0  0
   10.2357  -16.9251   24.1608 C   0  0  0  0  0  0  0  0  0  0  0  0
   11.3008  -16.5360   23.6107 O   0  0  0  0  0  0  0  0  0  0  0  0
    9.8838  -16.6094   25.4828 N   0  0  0  0  0  0  0  0  0  0  0  0
   10.8123  -15.9147   26.3533 C   0  0  1  0  0  0  0  0  0  0  0  0
   10.8060  -14.4448   26.1580 C   0  0  0  0  0  0  0  0  0  0  0  0
    9.5002  -13.8500   26.4060 C   0  0  0  0  0  0  0  0  0  0  0  0
    8.5075  -13.9717   25.4459 C   0  0  0  0  0  0  0  0  0  0  0  0
    7.2656  -13.4168   25.6977 C   0  0  0  0  0  0  0  0  0  0  0  0
    7.0230  -12.7548   26.8840 C   0  0  0  0  0  0  0  0  0  0  0  0
    7.9982  -12.6170   27.8642 C   0  0  0  0  0  0  0  0  0  0  0  0
    9.2390  -13.1857   27.5833 C   0  0  0  0  0  0  0  0  0  0  0  0
   10.6229  -16.3769   27.7524 C   0  0  0  0  0  0  0  0  0  0  0  0
    9.6257  -17.2734   28.1378 O   0  0  0  0  0  0  0  0  0  0  0  0
   11.3574  -15.9881   28.6930 O   0  0  0  0  0  0  0  0  0  0  0  0
  2  1  1  0
  3  2  1  0
  4  3  1  0
  4  5  1  0
  5  7  1  0
  5  6  1  6
  7  8  2  0
  9  7  1  0
  9 10  1  0
 10 11  1  6
 11 12  1  0
 13 15  1  0
 13 10  1  0
 14 13  2  0
 16 15  1  0
 16 17  1  1
 18 17  1  0
 18 19  2  0
 20 19  1  0
 21 20  2  0
 22 23  2  0
 22 21  1  0
 23 18  1  0
 24 16  1  0
 24 25  1  0
 26 24  2  0
M  END
$$$$
