MCF.pdb
     RDKit          3D

 26 26  0  0  1  0  0  0  0  0999 V2000
    9.2259  -11.6937   20.0864 C   0  0  0  0  0  0  0  0  0  0  0  0
    8.3433  -12.3369   18.6517 S   0  0  0  0  0  0  0  0  0  0  0  0
    7.8513  -14.0405   18.8737 C   0  0  0  0  0  0  0  0  0  0  0  0
    8.9823  -14.9384   19.2199 C   0  0  0  0  0  0  0  0  0  0  0  0
    8.6412  -16.3748   19.4151 C   0  0  2  0  0  0  0  0  0  0  0  0
    7.7827  -16.9528   18.4316 N   0  0  0  0  0  0  0  0  0  0  0  0
    8.0996  -16.5959   20.7888 C   0  0  0  0  0  0  0  0  0  0  0  0
    6.8595  -16.4125   21.0312 O   0  0  0  0  0  0  0  0  0  0  0  0
    8.8935  -17.0098   21.8838 N   0  0  0  0  0  0  0  0  0  0  0  0
    8.2619  -17.3723   23.1443 C   0  0  1  0  0  0  0  0  0  0  0  0
    8.3635  -18.8841   23.3343 C   0  0  0  0  0  0  0  0  0  0  0  0
   10.0801  -19.4032   23.1903 S   0  0  0  0  0  0  0  0  0  0  0  0
    9.0436  -16.7526   24.2382 C   0  0  0  0  0  0  0  0  0  0  0  0
   10.2245  -16.4210   23.9484 O   0  0  0  0  0  0  0  0  0  0  0  0
    8.4722  -16.5622   25.5064 N   0  0  0  0  0  0  0  0  0  0  0  0
    9.2127  -15.9015   26.5636 C   0  0  1  0  0  0  0  0  0  0  0  0
    8.3434  -15.1592   27.5081 C   0  0  0  0  0  0  0  0  0  0  0  0
    7.6178  -14.0709   26.8682 C   0  0  0  0  0  0  0  0  0  0  0  0
    6.3111  -14.2798   26.4546 C   0  0  0  0  0  0  0  0  0  0  0  0
    5.6249  -13.2349   25.8620 C   0  0  0  0  0  0  0  0  0  0  0  0
    6.2333  -12.0086   25.6874 C   0  0  0  0  0  0  0  0  0  0  0  0
    7.5412  -11.7702   26.0916 C   0  0  0  0  0  0  0  0  0  0  0  0
    8.2076  -12.8405   26.6852 C   0  0  0  0  0  0  0  0  0  0  0  0
   10.1595  -16.8637   27.1838 C   0  0  0  0  0  0  0  0  0  0  0  0
   10.1068  -18.2412   26.9690 O   0  0  0  0  0  0  0  0  0  0  0  0
   11.0827  -16.4970   27.9511 O   0  0  0  0  0  0  0  0  0  0  0  0
  2  1  1  0
  3  2  1  0
  4  3  1  0
  4  5  1  0
  5  7  1  0
  5  6  1  6
  7  8  2  0
  9  7  1  0
  9 10  1  0
 10 11  1  1
 11 12  1  0
 13 15  1  0
 13 10  1  0
 14 13  2  0
 16 15  1  0
 16 17  1  1
 18 17  1  0
 18 19  2  0
 20 19  1  0
 21 20  2  0
 22 23  2  0
 22 21  1  0
 23 18  1  0
 24 16  1  0
 24 25  1  0
 26 24  2  0
M  END
$$$$
