MCF.pdb
     RDKit          3D

 26 26  0  0  1  0  0  0  0  0999 V2000
    8.8724  -11.8628   19.5374 C   0  0  0  0  0  0  0  0  0  0  0  0
    7.4119  -12.8446   19.9296 S   0  0  0  0  0  0  0  0  0  0  0  0
    7.6480  -14.5771   19.5604 C   0  0  0  0  0  0  0  0  0  0  0  0
    9.0132  -15.0655   19.8812 C   0  0  0  0  0  0  0  0  0  0  0  0
    9.0952  -16.4137   20.5085 C   0  0  2  0  0  0  0  0  0  0  0  0
    8.4713  -17.4771   19.7887 N   0  0  0  0  0  0  0  0  0  0  0  0
    8.5976  -16.3608   21.9152 C   0  0  0  0  0  0  0  0  0  0  0  0
    8.4258  -15.2376   22.4976 O   0  0  0  0  0  0  0  0  0  0  0  0
    8.2916  -17.5114   22.6789 N   0  0  0  0  0  0  0  0  0  0  0  0
    7.6501  -17.3726   23.9783 C   0  0  1  0  0  0  0  0  0  0  0  0
    7.1772  -18.7464   24.4483 C   0  0  0  0  0  0  0  0  0  0  0  0
    6.3048  -18.5887   26.0139 S   0  0  0  0  0  0  0  0  0  0  0  0
    8.6767  -16.9222   24.9452 C   0  0  0  0  0  0  0  0  0  0  0  0
    9.8707  -17.1859   24.6397 O   0  0  0  0  0  0  0  0  0  0  0  0
    8.3061  -16.2467   26.1188 N   0  0  0  0  0  0  0  0  0  0  0  0
    9.3108  -15.7142   27.0186 C   0  0  1  0  0  0  0  0  0  0  0  0
    8.7913  -14.6453   27.9054 C   0  0  0  0  0  0  0  0  0  0  0  0
    7.9234  -13.7074   27.2072 C   0  0  0  0  0  0  0  0  0  0  0  0
    8.4894  -12.7417   26.3891 C   0  0  0  0  0  0  0  0  0  0  0  0
    7.6556  -11.8655   25.7177 C   0  0  0  0  0  0  0  0  0  0  0  0
    6.2860  -11.9541   25.8622 C   0  0  0  0  0  0  0  0  0  0  0  0
    5.6907  -12.9110   26.6751 C   0  0  0  0  0  0  0  0  0  0  0  0
    6.5549  -13.7798   27.3386 C   0  0  0  0  0  0  0  0  0  0  0  0
   10.0086  -16.8330   27.7030 C   0  0  0  0  0  0  0  0  0  0  0  0
    9.7001  -18.1768   27.4898 O   0  0  0  0  0  0  0  0  0  0  0  0
   10.9349  -16.6418   28.5280 O   0  0  0  0  0  0  0  0  0  0  0  0
  2  1  1  0
  3  2  1  0
  4  3  1  0
  4  5  1  0
  5  7  1  0
  5  6  1  6
  7  8  2  0
  9  7  1  0
  9 10  1  0
 10 11  1  1
 11 12  1  0
 13 15  1  0
 13 10  1  0
 14 13  2  0
 16 15  1  0
 16 17  1  1
 18 17  1  0
 18 19  2  0
 20 19  1  0
 21 20  2  0
 22 23  2  0
 22 21  1  0
 23 18  1  0
 24 16  1  0
 24 25  1  0
 26 24  2  0
M  END
$$$$
