MMA.pdb
     RDKit          3D

 22 21  0  0  1  0  0  0  0  0999 V2000
   15.2461  -14.7405  -19.6440 C   0  0  0  0  0  0  0  0  0  0  0  0
   15.8280  -13.9893  -18.0848 S   0  0  0  0  0  0  0  0  0  0  0  0
   16.3429  -12.2644  -18.4198 C   0  0  0  0  0  0  0  0  0  0  0  0
   16.9082  -11.6631  -17.1473 C   0  0  0  0  0  0  0  0  0  0  0  0
   17.3803  -10.2638  -17.4764 C   0  0  2  0  0  0  0  0  0  0  0  0
   18.3780  -10.2685  -18.5152 N   0  0  0  0  0  0  0  0  0  0  0  0
   17.9749   -9.6884  -16.2418 C   0  0  0  0  0  0  0  0  0  0  0  0
   17.3556   -9.5667  -15.1633 O   0  0  0  0  0  0  0  0  0  0  0  0
   23.9478  -10.8975  -14.4187 C   0  0  0  0  0  0  0  0  0  0  0  0
   23.5427   -9.5148  -13.3503 S   0  0  0  0  0  0  0  0  0  0  0  0
   21.9503   -8.7676  -13.7291 C   0  0  0  0  0  0  0  0  0  0  0  0
   21.3000   -9.3701  -14.9605 C   0  0  0  0  0  0  0  0  0  0  0  0
   19.9452   -8.6774  -15.0738 C   0  0  2  0  0  0  0  0  0  0  0  0
   19.3247   -9.2484  -16.2799 N   0  0  0  0  0  0  0  0  0  0  0  0
   20.0470   -7.2280  -15.1757 C   0  0  0  0  0  0  0  0  0  0  0  0
   20.5302   -6.5602  -14.2327 O   0  0  0  0  0  0  0  0  0  0  0  0
   19.5493   -4.7293  -17.9374 C   0  0  0  0  0  0  0  0  0  0  0  0
   19.6635   -5.0995  -16.4723 C   0  0  2  0  0  0  0  0  0  0  0  0
   19.6074   -6.5416  -16.3309 N   0  0  0  0  0  0  0  0  0  0  0  0
   18.5549   -4.4690  -15.7533 C   0  0  0  0  0  0  0  0  0  0  0  0
   18.5939   -3.1277  -15.3640 O   0  0  0  0  0  0  0  0  0  0  0  0
   17.5325   -5.1527  -15.4752 O   0  0  0  0  0  0  0  0  0  0  0  0
  1  2  1  0
  3  2  1  0
  4  3  1  0
  5  4  1  0
  5  6  1  6
  7  5  1  0
  8  7  2  0
  9 10  1  0
 11 10  1  0
 12 11  1  0
 13 12  1  6
 13 14  1  0
 14  7  1  0
 15 13  1  0
 15 19  1  0
 16 15  2  0
 18 17  1  6
 18 19  1  0
 18 20  1  0
 20 21  1  0
 22 20  2  0
M  END
$$$$
