MMA.pdb
     RDKit          3D

 22 21  0  0  1  0  0  0  0  0999 V2000
   14.1214  -10.4464  -20.8087 C   0  0  0  0  0  0  0  0  0  0  0  0
   15.5497   -9.6773  -19.9706 S   0  0  0  0  0  0  0  0  0  0  0  0
   14.9783   -8.9359  -18.3969 C   0  0  0  0  0  0  0  0  0  0  0  0
   16.1171   -8.1439  -17.7834 C   0  0  0  0  0  0  0  0  0  0  0  0
   16.8587   -9.0683  -16.8428 C   0  0  2  0  0  0  0  0  0  0  0  0
   16.0264   -9.4928  -15.7466 N   0  0  0  0  0  0  0  0  0  0  0  0
   18.0218   -8.3187  -16.3005 C   0  0  0  0  0  0  0  0  0  0  0  0
   17.9325   -7.4440  -15.4125 O   0  0  0  0  0  0  0  0  0  0  0  0
   24.0552   -9.9183  -13.5651 C   0  0  0  0  0  0  0  0  0  0  0  0
   24.1533   -9.1376  -15.1770 S   0  0  0  0  0  0  0  0  0  0  0  0
   22.7382   -8.0893  -15.5455 C   0  0  0  0  0  0  0  0  0  0  0  0
   21.5929   -8.8554  -16.1808 C   0  0  0  0  0  0  0  0  0  0  0  0
   20.4766   -7.8297  -16.3549 C   0  0  2  0  0  0  0  0  0  0  0  0
   19.3141   -8.6058  -16.8150 N   0  0  0  0  0  0  0  0  0  0  0  0
   20.8079   -6.7745  -17.3026 C   0  0  0  0  0  0  0  0  0  0  0  0
   21.0642   -7.0540  -18.4962 O   0  0  0  0  0  0  0  0  0  0  0  0
   21.0374   -3.0097  -17.0831 C   0  0  0  0  0  0  0  0  0  0  0  0
   21.2042   -4.3343  -17.8003 C   0  0  2  0  0  0  0  0  0  0  0  0
   20.8487   -5.4183  -16.9050 N   0  0  0  0  0  0  0  0  0  0  0  0
   22.6010   -4.4534  -18.2223 C   0  0  0  0  0  0  0  0  0  0  0  0
   23.5554   -5.1113  -17.4423 O   0  0  0  0  0  0  0  0  0  0  0  0
   22.9579   -3.9491  -19.3216 O   0  0  0  0  0  0  0  0  0  0  0  0
  1  2  1  0
  3  2  1  0
  4  3  1  0
  5  4  1  0
  5  6  1  1
  7  5  1  0
  8  7  2  0
  9 10  1  0
 11 10  1  0
 12 11  1  0
 13 12  1  6
 13 14  1  0
 14  7  1  0
 15 13  1  0
 15 19  1  0
 16 15  2  0
 18 17  1  1
 18 19  1  0
 18 20  1  0
 20 21  1  0
 22 20  2  0
M  END
$$$$
