MMA.pdb
     RDKit          3D

 22 21  0  0  1  0  0  0  0  0999 V2000
   26.7461  -17.2261  -18.2528 C   0  0  0  0  0  0  0  0  0  0  0  0
   27.9641  -16.6407  -17.0250 S   0  0  0  0  0  0  0  0  0  0  0  0
   28.6655  -18.0913  -16.1552 C   0  0  0  0  0  0  0  0  0  0  0  0
   27.5292  -18.9633  -15.6564 C   0  0  0  0  0  0  0  0  0  0  0  0
   28.1446  -20.1643  -14.9722 C   0  0  2  0  0  0  0  0  0  0  0  0
   28.6614  -21.1133  -15.9244 N   0  0  0  0  0  0  0  0  0  0  0  0
   27.0782  -20.8201  -14.1709 C   0  0  0  0  0  0  0  0  0  0  0  0
   26.4010  -21.7892  -14.5758 O   0  0  0  0  0  0  0  0  0  0  0  0
   26.7760  -20.3525   -7.5243 C   0  0  0  0  0  0  0  0  0  0  0  0
   25.0923  -20.7014   -8.0349 S   0  0  0  0  0  0  0  0  0  0  0  0
   24.9525  -21.1260   -9.7778 C   0  0  0  0  0  0  0  0  0  0  0  0
   26.0595  -20.5176  -10.6183 C   0  0  0  0  0  0  0  0  0  0  0  0
   25.7544  -20.9486  -12.0499 C   0  0  2  0  0  0  0  0  0  0  0  0
   26.8057  -20.3240  -12.8685 N   0  0  0  0  0  0  0  0  0  0  0  0
   24.4306  -20.5434  -12.5027 C   0  0  0  0  0  0  0  0  0  0  0  0
   24.1104  -19.3327  -12.5176 O   0  0  0  0  0  0  0  0  0  0  0  0
   21.5784  -22.2818  -14.2135 C   0  0  0  0  0  0  0  0  0  0  0  0
   22.1468  -21.1469  -13.3854 C   0  0  2  0  0  0  0  0  0  0  0  0
   23.4796  -21.4968  -12.9338 N   0  0  0  0  0  0  0  0  0  0  0  0
   21.2588  -20.9247  -12.2429 C   0  0  0  0  0  0  0  0  0  0  0  0
   20.0337  -20.2661  -12.3760 O   0  0  0  0  0  0  0  0  0  0  0  0
   21.6054  -21.3383  -11.1032 O   0  0  0  0  0  0  0  0  0  0  0  0
  1  2  1  0
  3  2  1  0
  4  3  1  0
  5  4  1  0
  5  6  1  6
  7  5  1  0
  8  7  2  0
  9 10  1  0
 11 10  1  0
 12 11  1  0
 13 12  1  1
 13 14  1  0
 14  7  1  0
 15 13  1  0
 15 19  1  0
 16 15  2  0
 18 17  1  6
 18 19  1  0
 18 20  1  0
 20 21  1  0
 22 20  2  0
M  END
$$$$
