MMA.pdb
     RDKit          3D

 22 21  0  0  1  0  0  0  0  0999 V2000
   21.5738  -11.9648    7.4912 C   0  0  0  0  0  0  0  0  0  0  0  0
   21.0308  -10.9805    6.0524 S   0  0  0  0  0  0  0  0  0  0  0  0
   19.3295  -11.4865    5.6025 C   0  0  0  0  0  0  0  0  0  0  0  0
   18.9947  -12.7806    6.3193 C   0  0  0  0  0  0  0  0  0  0  0  0
   17.6109  -13.2012    5.8753 C   0  0  2  0  0  0  0  0  0  0  0  0
   16.5942  -12.3252    6.3981 N   0  0  0  0  0  0  0  0  0  0  0  0
   17.3722  -14.5750    6.3900 C   0  0  0  0  0  0  0  0  0  0  0  0
   16.8385  -14.8212    7.4928 O   0  0  0  0  0  0  0  0  0  0  0  0
   16.4227  -22.1572    4.8401 C   0  0  0  0  0  0  0  0  0  0  0  0
   16.8533  -20.5416    4.1906 S   0  0  0  0  0  0  0  0  0  0  0  0
   17.1228  -19.3093    5.4737 C   0  0  0  0  0  0  0  0  0  0  0  0
   17.3552  -17.9198    4.9102 C   0  0  0  0  0  0  0  0  0  0  0  0
   17.6677  -17.0466    6.1219 C   0  0  2  0  0  0  0  0  0  0  0  0
   17.7703  -15.6785    5.5896 N   0  0  0  0  0  0  0  0  0  0  0  0
   18.8929  -17.4327    6.8083 C   0  0  0  0  0  0  0  0  0  0  0  0
   20.0078  -17.2258    6.2767 O   0  0  0  0  0  0  0  0  0  0  0  0
   19.6865  -18.5676   10.2975 C   0  0  0  0  0  0  0  0  0  0  0  0
   20.0478  -18.3870    8.8368 C   0  0  2  0  0  0  0  0  0  0  0  0
   18.8576  -18.0460    8.0818 N   0  0  0  0  0  0  0  0  0  0  0  0
   20.6238  -19.6417    8.3494 C   0  0  0  0  0  0  0  0  0  0  0  0
   21.9932  -19.9071    8.4304 O   0  0  0  0  0  0  0  0  0  0  0  0
   19.8655  -20.5115    7.8409 O   0  0  0  0  0  0  0  0  0  0  0  0
  1  2  1  0
  3  2  1  0
  4  3  1  0
  5  4  1  0
  5  6  1  1
  7  5  1  0
  8  7  2  0
  9 10  1  0
 11 10  1  0
 12 11  1  0
 13 12  1  6
 13 14  1  0
 14  7  1  0
 15 13  1  0
 15 19  1  0
 16 15  2  0
 18 17  1  1
 18 19  1  0
 18 20  1  0
 20 21  1  0
 22 20  2  0
M  END
$$$$
