MMA.pdb
     RDKit          3D

 22 21  0  0  1  0  0  0  0  0999 V2000
   22.2681  -14.6030  -14.8933 C   0  0  0  0  0  0  0  0  0  0  0  0
   21.3107  -15.1619  -16.3442 S   0  0  0  0  0  0  0  0  0  0  0  0
   20.3181  -13.7562  -16.9702 C   0  0  0  0  0  0  0  0  0  0  0  0
   21.0965  -12.4715  -16.7602 C   0  0  0  0  0  0  0  0  0  0  0  0
   20.2815  -11.3440  -17.3550 C   0  0  2  0  0  0  0  0  0  0  0  0
   19.9915  -11.5727  -18.7471 N   0  0  0  0  0  0  0  0  0  0  0  0
   21.0808  -10.0972  -17.2294 C   0  0  0  0  0  0  0  0  0  0  0  0
   22.1960  -10.0399  -16.6683 O   0  0  0  0  0  0  0  0  0  0  0  0
   22.4456   -2.8800  -19.9295 C   0  0  0  0  0  0  0  0  0  0  0  0
   21.4518   -4.3689  -20.0428 S   0  0  0  0  0  0  0  0  0  0  0  0
   21.7836   -5.5462  -18.7232 C   0  0  0  0  0  0  0  0  0  0  0  0
   20.9865   -6.8288  -18.8699 C   0  0  0  0  0  0  0  0  0  0  0  0
   21.2880   -7.6310  -17.6074 C   0  0  2  0  0  0  0  0  0  0  0  0
   20.5554   -8.8961  -17.7755 N   0  0  0  0  0  0  0  0  0  0  0  0
   20.8831   -6.9520  -16.3842 C   0  0  0  0  0  0  0  0  0  0  0  0
   19.6750   -6.6999  -16.1710 O   0  0  0  0  0  0  0  0  0  0  0  0
   22.0585   -6.5593  -13.0008 C   0  0  0  0  0  0  0  0  0  0  0  0
   21.4900   -5.8366  -14.2055 C   0  0  2  0  0  0  0  0  0  0  0  0
   21.8339   -6.5624  -15.4128 N   0  0  0  0  0  0  0  0  0  0  0  0
   22.0559   -4.4867  -14.2384 C   0  0  0  0  0  0  0  0  0  0  0  0
   22.8355   -4.0379  -15.3075 O   0  0  0  0  0  0  0  0  0  0  0  0
   21.8358   -3.7025  -13.2758 O   0  0  0  0  0  0  0  0  0  0  0  0
  1  2  1  0
  3  2  1  0
  4  3  1  0
  5  4  1  0
  5  6  1  6
  7  5  1  0
  8  7  2  0
  9 10  1  0
 11 10  1  0
 12 11  1  0
 13 12  1  6
 13 14  1  0
 14  7  1  0
 15 13  1  0
 15 19  1  0
 16 15  2  0
 18 17  1  1
 18 19  1  0
 18 20  1  0
 20 21  1  0
 22 20  2  0
M  END
$$$$
