MMA.pdb
     RDKit          3D

 22 21  0  0  1  0  0  0  0  0999 V2000
   25.4742  -17.7649  -16.0332 C   0  0  0  0  0  0  0  0  0  0  0  0
   23.6837  -17.9300  -15.7157 S   0  0  0  0  0  0  0  0  0  0  0  0
   22.8874  -16.3026  -15.9807 C   0  0  0  0  0  0  0  0  0  0  0  0
   23.7835  -15.2177  -15.4145 C   0  0  0  0  0  0  0  0  0  0  0  0
   23.0923  -13.8916  -15.6441 C   0  0  2  0  0  0  0  0  0  0  0  0
   22.6386  -13.7554  -17.0042 N   0  0  0  0  0  0  0  0  0  0  0  0
   24.0769  -12.8161  -15.3562 C   0  0  0  0  0  0  0  0  0  0  0  0
   24.6354  -12.6630  -14.2488 O   0  0  0  0  0  0  0  0  0  0  0  0
   29.9890   -8.6540  -18.0401 C   0  0  0  0  0  0  0  0  0  0  0  0
   28.7634   -9.9383  -18.2967 S   0  0  0  0  0  0  0  0  0  0  0  0
   27.4639   -9.9383  -17.0522 C   0  0  0  0  0  0  0  0  0  0  0  0
   26.4273  -11.0206  -17.2894 C   0  0  0  0  0  0  0  0  0  0  0  0
   25.4175  -10.8591  -16.1570 C   0  0  2  0  0  0  0  0  0  0  0  0
   24.4091  -11.9045  -16.3933 N   0  0  0  0  0  0  0  0  0  0  0  0
   24.8021   -9.5395  -16.1190 C   0  0  0  0  0  0  0  0  0  0  0  0
   25.5053   -8.5187  -15.9399 O   0  0  0  0  0  0  0  0  0  0  0  0
   21.7216   -8.0491  -17.4071 C   0  0  0  0  0  0  0  0  0  0  0  0
   22.7512   -8.0829  -16.2955 C   0  0  2  0  0  0  0  0  0  0  0  0
   23.4071   -9.3761  -16.2817 N   0  0  0  0  0  0  0  0  0  0  0  0
   22.0622   -7.8425  -15.0262 C   0  0  0  0  0  0  0  0  0  0  0  0
   21.9931   -8.8163  -14.0266 O   0  0  0  0  0  0  0  0  0  0  0  0
   21.5137   -6.7251  -14.8246 O   0  0  0  0  0  0  0  0  0  0  0  0
  1  2  1  0
  3  2  1  0
  4  3  1  0
  5  4  1  0
  5  6  1  6
  7  5  1  0
  8  7  2  0
  9 10  1  0
 11 10  1  0
 12 11  1  0
 13 12  1  6
 13 14  1  0
 14  7  1  0
 15 13  1  0
 15 19  1  0
 16 15  2  0
 18 17  1  6
 18 19  1  0
 18 20  1  0
 20 21  1  0
 22 20  2  0
M  END
$$$$
