MMA.pdb
     RDKit          3D

 22 21  0  0  1  0  0  0  0  0999 V2000
   29.5256  -18.6225  -16.7634 C   0  0  0  0  0  0  0  0  0  0  0  0
   29.2041  -16.8305  -16.6239 S   0  0  0  0  0  0  0  0  0  0  0  0
   27.5560  -16.5865  -15.8644 C   0  0  0  0  0  0  0  0  0  0  0  0
   26.8375  -17.9211  -15.8073 C   0  0  0  0  0  0  0  0  0  0  0  0
   25.4424  -17.6640  -15.2809 C   0  0  2  0  0  0  0  0  0  0  0  0
   25.4576  -16.7929  -14.1341 N   0  0  0  0  0  0  0  0  0  0  0  0
   24.8646  -18.9739  -14.8815 C   0  0  0  0  0  0  0  0  0  0  0  0
   24.6303  -19.9037  -15.6829 O   0  0  0  0  0  0  0  0  0  0  0  0
   25.4252  -20.6266   -8.6728 C   0  0  0  0  0  0  0  0  0  0  0  0
   26.5795  -21.0731   -9.9711 S   0  0  0  0  0  0  0  0  0  0  0  0
   25.8927  -20.8930  -11.6244 C   0  0  0  0  0  0  0  0  0  0  0  0
   24.4018  -20.6116  -11.6107 C   0  0  0  0  0  0  0  0  0  0  0  0
   24.0074  -20.4855  -13.0793 C   0  0  2  0  0  0  0  0  0  0  0  0
   24.5576  -19.1911  -13.5121 N   0  0  0  0  0  0  0  0  0  0  0  0
   22.5679  -20.5390  -13.2948 C   0  0  0  0  0  0  0  0  0  0  0  0
   21.8553  -19.5367  -13.0582 O   0  0  0  0  0  0  0  0  0  0  0  0
   20.2358  -22.9883  -14.9273 C   0  0  0  0  0  0  0  0  0  0  0  0
   20.5140  -21.8175  -14.0062 C   0  0  2  0  0  0  0  0  0  0  0  0
   21.9414  -21.7130  -13.7727 N   0  0  0  0  0  0  0  0  0  0  0  0
   19.8026  -22.0466  -12.7472 C   0  0  0  0  0  0  0  0  0  0  0  0
   18.4326  -21.8048  -12.6177 O   0  0  0  0  0  0  0  0  0  0  0  0
   20.4410  -22.4751  -11.7477 O   0  0  0  0  0  0  0  0  0  0  0  0
  1  2  1  0
  3  2  1  0
  4  3  1  0
  5  4  1  0
  5  6  1  1
  7  5  1  0
  8  7  2  0
  9 10  1  0
 11 10  1  0
 12 11  1  0
 13 12  1  1
 13 14  1  0
 14  7  1  0
 15 13  1  0
 15 19  1  0
 16 15  2  0
 18 17  1  6
 18 19  1  0
 18 20  1  0
 20 21  1  0
 22 20  2  0
M  END
$$$$
