MMA.pdb
     RDKit          3D

 22 21  0  0  1  0  0  0  0  0999 V2000
   22.4532  -21.6238  -21.6150 C   0  0  0  0  0  0  0  0  0  0  0  0
   22.3983  -19.8368  -21.2436 S   0  0  0  0  0  0  0  0  0  0  0  0
   23.8938  -19.3894  -20.2865 C   0  0  0  0  0  0  0  0  0  0  0  0
   23.9142  -20.1930  -19.0003 C   0  0  0  0  0  0  0  0  0  0  0  0
   22.8984  -19.5770  -18.0634 C   0  0  2  0  0  0  0  0  0  0  0  0
   23.3064  -18.2686  -17.6206 N   0  0  0  0  0  0  0  0  0  0  0  0
   22.7795  -20.4691  -16.8805 C   0  0  0  0  0  0  0  0  0  0  0  0
   22.6236  -21.7067  -16.9559 O   0  0  0  0  0  0  0  0  0  0  0  0
   24.1610  -21.5533   -9.2703 C   0  0  0  0  0  0  0  0  0  0  0  0
   24.3466  -20.4923  -10.7046 S   0  0  0  0  0  0  0  0  0  0  0  0
   23.2946  -20.9718  -12.0833 C   0  0  0  0  0  0  0  0  0  0  0  0
   23.5103  -20.1075  -13.3115 C   0  0  0  0  0  0  0  0  0  0  0  0
   22.6346  -20.7302  -14.3948 C   0  0  2  0  0  0  0  0  0  0  0  0
   22.8457  -19.8910  -15.5850 N   0  0  0  0  0  0  0  0  0  0  0  0
   21.2240  -20.7807  -14.0355 C   0  0  0  0  0  0  0  0  0  0  0  0
   20.5827  -19.7228  -13.8408 O   0  0  0  0  0  0  0  0  0  0  0  0
   18.6842  -23.5535  -13.7217 C   0  0  0  0  0  0  0  0  0  0  0  0
   19.1419  -22.1188  -13.5520 C   0  0  2  0  0  0  0  0  0  0  0  0
   20.5463  -22.0140  -13.8978 N   0  0  0  0  0  0  0  0  0  0  0  0
   18.9259  -21.7315  -12.1567 C   0  0  0  0  0  0  0  0  0  0  0  0
   17.7590  -21.0851  -11.7411 O   0  0  0  0  0  0  0  0  0  0  0  0
   19.8163  -21.9871  -11.3012 O   0  0  0  0  0  0  0  0  0  0  0  0
  1  2  1  0
  3  2  1  0
  4  3  1  0
  5  4  1  0
  5  6  1  1
  7  5  1  0
  8  7  2  0
  9 10  1  0
 11 10  1  0
 12 11  1  0
 13 12  1  1
 13 14  1  0
 14  7  1  0
 15 13  1  0
 15 19  1  0
 16 15  2  0
 18 17  1  1
 18 19  1  0
 18 20  1  0
 20 21  1  0
 22 20  2  0
M  END
$$$$
