MMA.pdb
     RDKit          3D

 22 21  0  0  1  0  0  0  0  0999 V2000
   29.9192  -18.2930  -17.1504 C   0  0  0  0  0  0  0  0  0  0  0  0
   29.5744  -16.5097  -16.9631 S   0  0  0  0  0  0  0  0  0  0  0  0
   27.9385  -16.3080  -16.1657 C   0  0  0  0  0  0  0  0  0  0  0  0
   27.2724  -17.6664  -16.0576 C   0  0  0  0  0  0  0  0  0  0  0  0
   25.8951  -17.4516  -15.4694 C   0  0  2  0  0  0  0  0  0  0  0  0
   25.9051  -16.4399  -14.4443 N   0  0  0  0  0  0  0  0  0  0  0  0
   25.4572  -18.7390  -14.8694 C   0  0  0  0  0  0  0  0  0  0  0  0
   25.2803  -19.7875  -15.5259 O   0  0  0  0  0  0  0  0  0  0  0  0
   26.0701  -20.0036   -8.4140 C   0  0  0  0  0  0  0  0  0  0  0  0
   25.0537  -21.3541   -9.0143 S   0  0  0  0  0  0  0  0  0  0  0  0
   24.7437  -21.2766  -10.7850 C   0  0  0  0  0  0  0  0  0  0  0  0
   25.1474  -19.9456  -11.3915 C   0  0  0  0  0  0  0  0  0  0  0  0
   24.7213  -20.0296  -12.8542 C   0  0  2  0  0  0  0  0  0  0  0  0
   25.2238  -18.7908  -13.4695 N   0  0  0  0  0  0  0  0  0  0  0  0
   23.2802  -20.1508  -13.0273 C   0  0  0  0  0  0  0  0  0  0  0  0
   22.5376  -19.1557  -12.8637 O   0  0  0  0  0  0  0  0  0  0  0  0
   21.0286  -22.7849  -14.4583 C   0  0  0  0  0  0  0  0  0  0  0  0
   21.2641  -21.5454  -13.6188 C   0  0  2  0  0  0  0  0  0  0  0  0
   22.6855  -21.3838  -13.3814 N   0  0  0  0  0  0  0  0  0  0  0  0
   20.5467  -21.7071  -12.3528 C   0  0  0  0  0  0  0  0  0  0  0  0
   19.1555  -21.6052  -12.2734 O   0  0  0  0  0  0  0  0  0  0  0  0
   21.1994  -21.9456  -11.3006 O   0  0  0  0  0  0  0  0  0  0  0  0
  1  2  1  0
  3  2  1  0
  4  3  1  0
  5  4  1  0
  5  6  1  1
  7  5  1  0
  8  7  2  0
  9 10  1  0
 11 10  1  0
 12 11  1  0
 13 12  1  1
 13 14  1  0
 14  7  1  0
 15 13  1  0
 15 19  1  0
 16 15  2  0
 18 17  1  6
 18 19  1  0
 18 20  1  0
 20 21  1  0
 22 20  2  0
M  END
$$$$
