MMA.pdb
     RDKit          3D

 22 21  0  0  1  0  0  0  0  0999 V2000
   30.0562  -21.2304  -17.8848 C   0  0  0  0  0  0  0  0  0  0  0  0
   28.9377  -20.2816  -18.9724 S   0  0  0  0  0  0  0  0  0  0  0  0
   27.8054  -19.2901  -17.9295 C   0  0  0  0  0  0  0  0  0  0  0  0
   27.3993  -20.1137  -16.7224 C   0  0  0  0  0  0  0  0  0  0  0  0
   26.4537  -19.2713  -15.8946 C   0  0  2  0  0  0  0  0  0  0  0  0
   27.1538  -18.5217  -14.8835 N   0  0  0  0  0  0  0  0  0  0  0  0
   25.4946  -20.1929  -15.2314 C   0  0  0  0  0  0  0  0  0  0  0  0
   24.8370  -21.0659  -15.8374 O   0  0  0  0  0  0  0  0  0  0  0  0
   25.4707  -20.5894   -8.6572 C   0  0  0  0  0  0  0  0  0  0  0  0
   26.6276  -21.4060   -9.7582 S   0  0  0  0  0  0  0  0  0  0  0  0
   26.0792  -21.4321  -11.4717 C   0  0  0  0  0  0  0  0  0  0  0  0
   24.6988  -20.8290  -11.6530 C   0  0  0  0  0  0  0  0  0  0  0  0
   24.3835  -20.9961  -13.1366 C   0  0  2  0  0  0  0  0  0  0  0  0
   25.3075  -20.0830  -13.8279 N   0  0  0  0  0  0  0  0  0  0  0  0
   22.9993  -20.6877  -13.4686 C   0  0  0  0  0  0  0  0  0  0  0  0
   22.5943  -19.5027  -13.4539 O   0  0  0  0  0  0  0  0  0  0  0  0
   20.1078  -22.6222  -14.8767 C   0  0  0  0  0  0  0  0  0  0  0  0
   20.6805  -21.4625  -14.0868 C   0  0  2  0  0  0  0  0  0  0  0  0
   22.0833  -21.7081  -13.8135 N   0  0  0  0  0  0  0  0  0  0  0  0
   19.9267  -21.3433  -12.8374 C   0  0  0  0  0  0  0  0  0  0  0  0
   20.4847  -21.6823  -11.6021 O   0  0  0  0  0  0  0  0  0  0  0  0
   18.7385  -20.9224  -12.8722 O   0  0  0  0  0  0  0  0  0  0  0  0
  1  2  1  0
  3  2  1  0
  4  3  1  0
  5  4  1  0
  5  6  1  1
  7  5  1  0
  8  7  2  0
  9 10  1  0
 11 10  1  0
 12 11  1  0
 13 12  1  1
 13 14  1  0
 14  7  1  0
 15 13  1  0
 15 19  1  0
 16 15  2  0
 18 17  1  6
 18 19  1  0
 18 20  1  0
 20 21  1  0
 22 20  2  0
M  END
$$$$
