IGF.pdb
     RDKit          3D

 24 24  0  0  1  0  0  0  0  0999 V2000
   25.3196  -21.0159  -18.1853 C   0  0  0  0  0  0  0  0  0  0  0  0
   24.7212  -21.3862  -16.8458 C   0  0  0  0  0  0  0  0  0  0  0  0
   25.4501  -20.7063  -15.7003 C   0  0  2  0  0  0  0  0  0  0  0  0
   26.7925  -21.3317  -15.5402 C   0  0  0  0  0  0  0  0  0  0  0  0
   24.5406  -20.8393  -14.4971 C   0  0  2  0  0  0  0  0  0  0  0  0
   23.2652  -20.2301  -14.9306 N   0  0  0  0  0  0  0  0  0  0  0  0
   24.9769  -20.0331  -13.3358 C   0  0  0  0  0  0  0  0  0  0  0  0
   24.9018  -18.7833  -13.2990 O   0  0  0  0  0  0  0  0  0  0  0  0
   25.5206  -20.6877  -12.1689 N   0  0  0  0  0  0  0  0  0  0  0  0
   26.1835  -19.9122  -11.1545 C   0  0  0  0  0  0  0  0  0  0  0  0
   26.6425  -20.7390  -10.0256 C   0  0  0  0  0  0  0  0  0  0  0  0
   27.7403  -21.4147  -10.1522 O   0  0  0  0  0  0  0  0  0  0  0  0
   26.0090  -20.8904   -8.7774 N   0  0  0  0  0  0  0  0  0  0  0  0
   26.7190  -20.9905   -7.5208 C   0  0  1  0  0  0  0  0  0  0  0  0
   27.5901  -19.7656   -7.4024 C   0  0  0  0  0  0  0  0  0  0  0  0
   28.3322  -19.6459   -6.1472 C   0  0  0  0  0  0  0  0  0  0  0  0
   28.0093  -18.6424   -5.2610 C   0  0  0  0  0  0  0  0  0  0  0  0
   28.6955  -18.5055   -4.0614 C   0  0  0  0  0  0  0  0  0  0  0  0
   29.7064  -19.3976   -3.7803 C   0  0  0  0  0  0  0  0  0  0  0  0
   30.0499  -20.4104   -4.6488 C   0  0  0  0  0  0  0  0  0  0  0  0
   29.3521  -20.5164   -5.8234 C   0  0  0  0  0  0  0  0  0  0  0  0
   25.8565  -21.1184   -6.3418 C   0  0  0  0  0  0  0  0  0  0  0  0
   26.2038  -21.7873   -5.1805 O   0  0  0  0  0  0  0  0  0  0  0  0
   24.7140  -20.5997   -6.3480 O   0  0  0  0  0  0  0  0  0  0  0  0
  2  1  1  0
  3  2  1  0
  3  5  1  0
  3  4  1  1
  5  6  1  6
  7  5  1  0
  7  9  1  0
  8  7  2  0
 10  9  1  0
 11 10  1  0
 12 11  2  0
 13 11  1  0
 14 22  1  0
 14 13  1  0
 15 16  1  0
 14 15  1  1
 16 21  2  0
 16 17  1  0
 17 18  2  0
 18 19  1  0
 20 19  2  0
 21 20  1  0
 22 23  1  0
 24 22  2  0
M  END
$$$$
