IGF.pdb
     RDKit          3D

 24 24  0  0  1  0  0  0  0  0999 V2000
   25.8037  -13.3454  -15.1747 C   0  0  0  0  0  0  0  0  0  0  0  0
   25.5018  -14.5990  -15.9664 C   0  0  0  0  0  0  0  0  0  0  0  0
   25.9589  -15.8475  -15.2328 C   0  0  2  0  0  0  0  0  0  0  0  0
   27.4429  -15.8202  -15.1068 C   0  0  0  0  0  0  0  0  0  0  0  0
   25.4110  -17.0148  -16.0263 C   0  0  2  0  0  0  0  0  0  0  0  0
   23.9483  -16.8000  -16.0346 N   0  0  0  0  0  0  0  0  0  0  0  0
   25.6040  -18.3224  -15.3616 C   0  0  0  0  0  0  0  0  0  0  0  0
   24.6995  -18.9108  -14.7256 O   0  0  0  0  0  0  0  0  0  0  0  0
   26.8869  -18.9822  -15.4304 N   0  0  0  0  0  0  0  0  0  0  0  0
   26.9591  -20.3767  -15.7769 C   0  0  0  0  0  0  0  0  0  0  0  0
   26.5381  -21.2530  -14.6708 C   0  0  0  0  0  0  0  0  0  0  0  0
   26.5932  -22.5366  -14.8354 O   0  0  0  0  0  0  0  0  0  0  0  0
   26.0649  -20.8500  -13.4075 N   0  0  0  0  0  0  0  0  0  0  0  0
   25.3261  -21.7128  -12.5114 C   0  0  1  0  0  0  0  0  0  0  0  0
   26.2207  -22.0016  -11.3326 C   0  0  0  0  0  0  0  0  0  0  0  0
   26.0954  -21.0708  -10.2107 C   0  0  0  0  0  0  0  0  0  0  0  0
   26.9015  -19.9553  -10.1612 C   0  0  0  0  0  0  0  0  0  0  0  0
   26.8036  -19.0538   -9.1094 C   0  0  0  0  0  0  0  0  0  0  0  0
   25.8810  -19.3029   -8.1177 C   0  0  0  0  0  0  0  0  0  0  0  0
   25.0624  -20.4108   -8.1426 C   0  0  0  0  0  0  0  0  0  0  0  0
   25.1856  -21.2796   -9.1951 C   0  0  0  0  0  0  0  0  0  0  0  0
   24.0443  -21.1649  -12.0565 C   0  0  0  0  0  0  0  0  0  0  0  0
   22.9516  -21.9265  -11.6790 O   0  0  0  0  0  0  0  0  0  0  0  0
   23.8871  -19.9218  -11.9926 O   0  0  0  0  0  0  0  0  0  0  0  0
  2  1  1  0
  3  2  1  0
  3  5  1  0
  3  4  1  6
  5  6  1  1
  7  5  1  0
  7  9  1  0
  8  7  2  0
 10  9  1  0
 11 10  1  0
 12 11  2  0
 13 11  1  0
 14 22  1  0
 14 13  1  0
 15 16  1  0
 14 15  1  1
 16 21  2  0
 16 17  1  0
 17 18  2  0
 18 19  1  0
 20 19  2  0
 21 20  1  0
 22 23  1  0
 24 22  2  0
M  END
$$$$
