IGF.pdb
     RDKit          3D

 24 24  0  0  1  0  0  0  0  0999 V2000
   22.6516  -18.1462  -19.5716 C   0  0  0  0  0  0  0  0  0  0  0  0
   23.4485  -17.3234  -18.5830 C   0  0  0  0  0  0  0  0  0  0  0  0
   24.3472  -18.1962  -17.7248 C   0  0  2  0  0  0  0  0  0  0  0  0
   23.5210  -19.2513  -17.0744 C   0  0  0  0  0  0  0  0  0  0  0  0
   25.0421  -17.2533  -16.7655 C   0  0  2  0  0  0  0  0  0  0  0  0
   25.7882  -16.3230  -17.6394 N   0  0  0  0  0  0  0  0  0  0  0  0
   26.0742  -17.9119  -15.9348 C   0  0  0  0  0  0  0  0  0  0  0  0
   27.0342  -18.5578  -16.4146 O   0  0  0  0  0  0  0  0  0  0  0  0
   26.0022  -17.8251  -14.4950 N   0  0  0  0  0  0  0  0  0  0  0  0
   26.8531  -18.6533  -13.6826 C   0  0  0  0  0  0  0  0  0  0  0  0
   26.0877  -19.5611  -12.8114 C   0  0  0  0  0  0  0  0  0  0  0  0
   24.9384  -19.9970  -13.2199 O   0  0  0  0  0  0  0  0  0  0  0  0
   26.4677  -20.0308  -11.5398 N   0  0  0  0  0  0  0  0  0  0  0  0
   25.7302  -21.0293  -10.7966 C   0  0  1  0  0  0  0  0  0  0  0  0
   26.6777  -21.6207   -9.7837 C   0  0  0  0  0  0  0  0  0  0  0  0
   26.9891  -20.7597   -8.6426 C   0  0  0  0  0  0  0  0  0  0  0  0
   26.6649  -19.4221   -8.6933 C   0  0  0  0  0  0  0  0  0  0  0  0
   26.9470  -18.5814   -7.6246 C   0  0  0  0  0  0  0  0  0  0  0  0
   27.5589  -19.1181   -6.5136 C   0  0  0  0  0  0  0  0  0  0  0  0
   27.8941  -20.4522   -6.4366 C   0  0  0  0  0  0  0  0  0  0  0  0
   27.6011  -21.2531   -7.5092 C   0  0  0  0  0  0  0  0  0  0  0  0
   24.5231  -20.5269  -10.1328 C   0  0  0  0  0  0  0  0  0  0  0  0
   23.4562  -21.3150   -9.7364 O   0  0  0  0  0  0  0  0  0  0  0  0
   24.4111  -19.3008   -9.8910 O   0  0  0  0  0  0  0  0  0  0  0  0
  2  1  1  0
  3  2  1  0
  3  5  1  0
  3  4  1  1
  5  6  1  6
  7  5  1  0
  7  9  1  0
  8  7  2  0
 10  9  1  0
 11 10  1  0
 12 11  2  0
 13 11  1  0
 14 22  1  0
 14 13  1  0
 15 16  1  0
 14 15  1  1
 16 21  2  0
 16 17  1  0
 17 18  2  0
 18 19  1  0
 20 19  2  0
 21 20  1  0
 22 23  1  0
 24 22  2  0
M  END
$$$$
