IGF.pdb
     RDKit          3D

 24 24  0  0  1  0  0  0  0  0999 V2000
   25.8108  -15.6445  -16.0743 C   0  0  0  0  0  0  0  0  0  0  0  0
   25.5799  -16.0613  -14.6382 C   0  0  0  0  0  0  0  0  0  0  0  0
   26.4317  -17.2602  -14.2598 C   0  0  2  0  0  0  0  0  0  0  0  0
   27.7928  -17.0909  -14.8409 C   0  0  0  0  0  0  0  0  0  0  0  0
   25.6764  -18.4747  -14.7564 C   0  0  2  0  0  0  0  0  0  0  0  0
   24.3855  -18.4249  -14.0375 N   0  0  0  0  0  0  0  0  0  0  0  0
   26.2922  -19.7581  -14.3528 C   0  0  0  0  0  0  0  0  0  0  0  0
   26.7039  -20.6112  -15.1724 O   0  0  0  0  0  0  0  0  0  0  0  0
   26.4426  -20.0749  -12.9519 N   0  0  0  0  0  0  0  0  0  0  0  0
   27.0918  -21.2969  -12.5580 C   0  0  0  0  0  0  0  0  0  0  0  0
   27.2256  -21.4161  -11.0962 C   0  0  0  0  0  0  0  0  0  0  0  0
   27.6661  -22.5277  -10.5981 O   0  0  0  0  0  0  0  0  0  0  0  0
   26.9214  -20.4311  -10.1374 N   0  0  0  0  0  0  0  0  0  0  0  0
   26.9785  -20.6529   -8.7088 C   0  0  1  0  0  0  0  0  0  0  0  0
   27.9123  -19.6179   -8.1343 C   0  0  0  0  0  0  0  0  0  0  0  0
   28.1306  -19.7066   -6.6903 C   0  0  0  0  0  0  0  0  0  0  0  0
   28.9354  -20.7038   -6.1857 C   0  0  0  0  0  0  0  0  0  0  0  0
   29.1618  -20.8115   -4.8197 C   0  0  0  0  0  0  0  0  0  0  0  0
   28.5617  -19.8969   -3.9829 C   0  0  0  0  0  0  0  0  0  0  0  0
   27.7522  -18.8899   -4.4610 C   0  0  0  0  0  0  0  0  0  0  0  0
   27.5504  -18.8130   -5.8142 C   0  0  0  0  0  0  0  0  0  0  0  0
   25.6792  -20.5993   -8.0312 C   0  0  0  0  0  0  0  0  0  0  0  0
   25.3916  -21.2223   -6.8289 O   0  0  0  0  0  0  0  0  0  0  0  0
   24.7350  -19.9542   -8.5474 O   0  0  0  0  0  0  0  0  0  0  0  0
  2  1  1  0
  3  2  1  0
  3  5  1  0
  3  4  1  6
  5  6  1  1
  7  5  1  0
  7  9  1  0
  8  7  2  0
 10  9  1  0
 11 10  1  0
 12 11  2  0
 13 11  1  0
 14 22  1  0
 14 13  1  0
 15 16  1  0
 14 15  1  1
 16 21  2  0
 16 17  1  0
 17 18  2  0
 18 19  1  0
 20 19  2  0
 21 20  1  0
 22 23  1  0
 24 22  2  0
M  END
$$$$
