IGF.pdb
     RDKit          3D

 24 24  0  0  1  0  0  0  0  0999 V2000
   19.0511  -21.9931  -15.9140 C   0  0  0  0  0  0  0  0  0  0  0  0
   20.0351  -20.9383  -15.4574 C   0  0  0  0  0  0  0  0  0  0  0  0
   20.4698  -21.1635  -14.0200 C   0  0  2  0  0  0  0  0  0  0  0  0
   19.2623  -21.2040  -13.1487 C   0  0  0  0  0  0  0  0  0  0  0  0
   21.4426  -20.0472  -13.7045 C   0  0  2  0  0  0  0  0  0  0  0  0
   22.5735  -20.2719  -14.6300 N   0  0  0  0  0  0  0  0  0  0  0  0
   22.0297  -20.1415  -12.3497 C   0  0  0  0  0  0  0  0  0  0  0  0
   21.5299  -19.5877  -11.3435 O   0  0  0  0  0  0  0  0  0  0  0  0
   23.2388  -20.9031  -12.1409 N   0  0  0  0  0  0  0  0  0  0  0  0
   23.8495  -20.9375  -10.8387 C   0  0  0  0  0  0  0  0  0  0  0  0
   25.2372  -20.4448  -10.8557 C   0  0  0  0  0  0  0  0  0  0  0  0
   25.4976  -19.3331  -11.4674 O   0  0  0  0  0  0  0  0  0  0  0  0
   26.3584  -21.0584  -10.2654 N   0  0  0  0  0  0  0  0  0  0  0  0
   27.7080  -20.5497  -10.3791 C   0  0  1  0  0  0  0  0  0  0  0  0
   28.4963  -21.1163   -9.2255 C   0  0  0  0  0  0  0  0  0  0  0  0
   28.2620  -20.4724   -7.9328 C   0  0  0  0  0  0  0  0  0  0  0  0
   29.2066  -19.6091   -7.4236 C   0  0  0  0  0  0  0  0  0  0  0  0
   29.0104  -18.9824   -6.1999 C   0  0  0  0  0  0  0  0  0  0  0  0
   27.8486  -19.2456   -5.5087 C   0  0  0  0  0  0  0  0  0  0  0  0
   26.8876  -20.1047   -5.9948 C   0  0  0  0  0  0  0  0  0  0  0  0
   27.1135  -20.7058   -7.2054 C   0  0  0  0  0  0  0  0  0  0  0  0
   28.3709  -20.8586  -11.6500 C   0  0  0  0  0  0  0  0  0  0  0  0
   29.3599  -20.0837  -12.2314 O   0  0  0  0  0  0  0  0  0  0  0  0
   28.0450  -21.8894  -12.2868 O   0  0  0  0  0  0  0  0  0  0  0  0
  2  1  1  0
  3  2  1  0
  3  5  1  0
  3  4  1  1
  5  6  1  6
  7  5  1  0
  7  9  1  0
  8  7  2  0
 10  9  1  0
 11 10  1  0
 12 11  2  0
 13 11  1  0
 14 22  1  0
 14 13  1  0
 15 16  1  0
 14 15  1  1
 16 21  2  0
 16 17  1  0
 17 18  2  0
 18 19  1  0
 20 19  2  0
 21 20  1  0
 22 23  1  0
 24 22  2  0
M  END
$$$$
