FWY.pdb
     RDKit          3D

 38 41  0  0  1  0  0  0  0  0999 V2000
    6.0814  -18.7310   22.1618 N   0  0  0  0  0  0  0  0  0  0  0  0
    6.0449  -17.7294   21.0926 C   0  0  1  0  0  0  0  0  0  0  0  0
    4.6044  -17.3133   20.9533 C   0  0  0  0  0  0  0  0  0  0  0  0
    3.6768  -18.4029   20.6662 C   0  0  0  0  0  0  0  0  0  0  0  0
    4.0708  -19.7088   20.7622 C   0  0  0  0  0  0  0  0  0  0  0  0
    3.1973  -20.7643   20.4951 C   0  0  0  0  0  0  0  0  0  0  0  0
    1.8901  -20.4869   20.1208 C   0  0  0  0  0  0  0  0  0  0  0  0
    1.4785  -19.1717   20.0199 C   0  0  0  0  0  0  0  0  0  0  0  0
    2.3769  -18.1373   20.2939 C   0  0  0  0  0  0  0  0  0  0  0  0
    6.9394  -16.6061   21.4604 C   0  0  0  0  0  0  0  0  0  0  0  0
    7.0097  -15.5692   20.7633 O   0  0  0  0  0  0  0  0  0  0  0  0
    7.7556  -16.6836   22.6388 N   0  0  0  0  0  0  0  0  0  0  0  0
    8.8198  -15.7336   22.9210 C   0  0  1  0  0  0  0  0  0  0  0  0
    8.9350  -15.6134   24.4241 C   0  0  0  0  0  0  0  0  0  0  0  0
    7.7404  -15.0717   25.0752 C   0  0  0  0  0  0  0  0  0  0  0  0
    6.7202  -15.8045   25.6109 C   0  0  0  0  0  0  0  0  0  0  0  0
    5.8109  -14.9491   26.1144 N   0  0  0  0  0  0  0  0  0  0  0  0
    6.2289  -13.6757   25.9118 C   0  0  0  0  0  0  0  0  0  0  0  0
    5.7139  -12.4231   26.2113 C   0  0  0  0  0  0  0  0  0  0  0  0
    6.4161  -11.2921   25.8544 C   0  0  0  0  0  0  0  0  0  0  0  0
    7.6309  -11.3476   25.2004 C   0  0  0  0  0  0  0  0  0  0  0  0
    8.1420  -12.5804   24.9032 C   0  0  0  0  0  0  0  0  0  0  0  0
    7.4559  -13.7417   25.2510 C   0  0  0  0  0  0  0  0  0  0  0  0
   10.1420  -16.2773   22.4452 C   0  0  0  0  0  0  0  0  0  0  0  0
   10.2228  -17.1219   21.5346 O   0  0  0  0  0  0  0  0  0  0  0  0
   10.7877  -15.7768   30.7804 O   0  0  0  0  0  0  0  0  0  0  0  0
   10.7095  -15.5762   29.3919 C   0  0  0  0  0  0  0  0  0  0  0  0
   11.1964  -16.5225   28.5240 C   0  0  0  0  0  0  0  0  0  0  0  0
   11.1287  -16.3447   27.1668 C   0  0  0  0  0  0  0  0  0  0  0  0
   10.5663  -15.2035   26.6370 C   0  0  0  0  0  0  0  0  0  0  0  0
   10.5154  -15.0426   25.1829 C   0  0  0  0  0  0  0  0  0  0  0  0
   11.5458  -15.8975   24.5217 C   0  0  2  0  0  0  0  0  0  0  0  0
   11.3190  -15.7928   23.0736 N   0  0  0  0  0  0  0  0  0  0  0  0
   11.4826  -17.3280   24.8716 C   0  0  0  0  0  0  0  0  0  0  0  0
   12.2437  -17.8769   25.9206 O   0  0  0  0  0  0  0  0  0  0  0  0
   10.0720  -14.2412   27.4824 C   0  0  0  0  0  0  0  0  0  0  0  0
   10.1478  -14.4364   28.8632 C   0  0  0  0  0  0  0  0  0  0  0  0
   10.7507  -18.1473   24.2618 O   0  0  0  0  0  0  0  0  0  0  0  0
  2  1  1  1
  2  3  1  0
  3  4  1  0
  4  5  2  0
  5  6  1  0
  7  6  2  0
  8  7  1  0
  9  8  2  0
  9  4  1  0
 10  2  1  0
 11 10  2  0
 12 10  1  0
 13 12  1  0
 14 15  1  0
 13 14  1  1
 15 23  1  0
 16 17  1  0
 16 15  2  0
 17 18  1  0
 18 23  2  0
 18 19  1  0
 19 20  2  0
 20 21  1  0
 22 21  2  0
 23 22  1  0
 24 13  1  0
 24 25  2  0
 27 37  2  0
 27 26  1  0
 28 27  1  0
 29 30  1  0
 29 28  2  0
 30 36  2  0
 31 30  1  0
 32 31  1  1
 32 33  1  0
 33 24  1  0
 34 32  1  0
 35 34  1  0
 36 37  1  0
 38 34  2  0
M  END
$$$$
