FWY.pdb
     RDKit          3D

 38 41  0  0  1  0  0  0  0  0999 V2000
    7.8722  -15.8869   21.5250 N   0  0  0  0  0  0  0  0  0  0  0  0
    9.0575  -15.0265   21.4761 C   0  0  1  0  0  0  0  0  0  0  0  0
    8.5597  -13.6396   21.1659 C   0  0  0  0  0  0  0  0  0  0  0  0
    7.7444  -13.5367   19.9598 C   0  0  0  0  0  0  0  0  0  0  0  0
    7.3984  -14.6497   19.2448 C   0  0  0  0  0  0  0  0  0  0  0  0
    6.6165  -14.5717   18.0911 C   0  0  0  0  0  0  0  0  0  0  0  0
    6.1746  -13.3316   17.6518 C   0  0  0  0  0  0  0  0  0  0  0  0
    6.5169  -12.1986   18.3647 C   0  0  0  0  0  0  0  0  0  0  0  0
    7.3009  -12.3098   19.5158 C   0  0  0  0  0  0  0  0  0  0  0  0
    9.7626  -15.1115   22.7772 C   0  0  0  0  0  0  0  0  0  0  0  0
   10.6810  -14.3163   23.0779 O   0  0  0  0  0  0  0  0  0  0  0  0
    9.4037  -16.1205   23.7331 N   0  0  0  0  0  0  0  0  0  0  0  0
   10.1446  -16.3331   24.9663 C   0  0  1  0  0  0  0  0  0  0  0  0
    9.1374  -16.6114   26.0594 C   0  0  0  0  0  0  0  0  0  0  0  0
    7.9404  -15.7697   25.9997 C   0  0  0  0  0  0  0  0  0  0  0  0
    6.7024  -16.1690   25.5841 C   0  0  0  0  0  0  0  0  0  0  0  0
    5.8711  -15.1140   25.6741 N   0  0  0  0  0  0  0  0  0  0  0  0
    6.5539  -14.0404   26.1414 C   0  0  0  0  0  0  0  0  0  0  0  0
    6.2209  -12.7247   26.4275 C   0  0  0  0  0  0  0  0  0  0  0  0
    7.1854  -11.8639   26.9056 C   0  0  0  0  0  0  0  0  0  0  0  0
    8.4922  -12.2564   27.1171 C   0  0  0  0  0  0  0  0  0  0  0  0
    8.8246  -13.5525   26.8361 C   0  0  0  0  0  0  0  0  0  0  0  0
    7.8721  -14.4462   26.3520 C   0  0  0  0  0  0  0  0  0  0  0  0
   10.9919  -17.5742   24.8564 C   0  0  0  0  0  0  0  0  0  0  0  0
   10.4982  -18.6985   24.6533 O   0  0  0  0  0  0  0  0  0  0  0  0
   15.7051  -14.7899   18.4954 O   0  0  0  0  0  0  0  0  0  0  0  0
   14.9846  -15.0614   19.6708 C   0  0  0  0  0  0  0  0  0  0  0  0
   13.9261  -15.9360   19.6513 C   0  0  0  0  0  0  0  0  0  0  0  0
   13.2118  -16.2134   20.7875 C   0  0  0  0  0  0  0  0  0  0  0  0
   13.5413  -15.6168   21.9854 C   0  0  0  0  0  0  0  0  0  0  0  0
   12.7539  -15.9308   23.1787 C   0  0  0  0  0  0  0  0  0  0  0  0
   13.2810  -17.1558   23.8506 C   0  0  2  0  0  0  0  0  0  0  0  0
   12.3972  -17.4275   24.9927 N   0  0  0  0  0  0  0  0  0  0  0  0
   14.6518  -17.0329   24.3782 C   0  0  0  0  0  0  0  0  0  0  0  0
   14.9646  -16.1914   25.4622 O   0  0  0  0  0  0  0  0  0  0  0  0
   14.5952  -14.7381   22.0327 C   0  0  0  0  0  0  0  0  0  0  0  0
   15.3140  -14.4653   20.8668 C   0  0  0  0  0  0  0  0  0  0  0  0
   15.6259  -17.6662   23.8996 O   0  0  0  0  0  0  0  0  0  0  0  0
  2  1  1  1
  2  3  1  0
  3  4  1  0
  4  5  2  0
  5  6  1  0
  7  6  2  0
  8  7  1  0
  9  8  2  0
  9  4  1  0
 10  2  1  0
 11 10  2  0
 12 10  1  0
 13 12  1  0
 14 15  1  0
 13 14  1  1
 15 23  1  0
 16 17  1  0
 16 15  2  0
 17 18  1  0
 18 23  2  0
 18 19  1  0
 19 20  2  0
 20 21  1  0
 22 21  2  0
 23 22  1  0
 24 13  1  0
 24 25  2  0
 27 37  2  0
 27 26  1  0
 28 27  1  0
 29 30  1  0
 29 28  2  0
 30 36  2  0
 31 30  1  0
 32 31  1  1
 32 33  1  0
 33 24  1  0
 34 32  1  0
 35 34  1  0
 36 37  1  0
 38 34  2  0
M  END
$$$$
