FWY.pdb
     RDKit          3D

 38 41  0  0  1  0  0  0  0  0999 V2000
    8.6914  -15.0404   19.6959 N   0  0  0  0  0  0  0  0  0  0  0  0
    8.7670  -16.2603   20.5045 C   0  0  1  0  0  0  0  0  0  0  0  0
    9.6297  -17.2245   19.7339 C   0  0  0  0  0  0  0  0  0  0  0  0
    9.0267  -17.7431   18.5103 C   0  0  0  0  0  0  0  0  0  0  0  0
    9.7875  -18.0052   17.4048 C   0  0  0  0  0  0  0  0  0  0  0  0
    9.2295  -18.5048   16.2269 C   0  0  0  0  0  0  0  0  0  0  0  0
    7.8637  -18.7444   16.1698 C   0  0  0  0  0  0  0  0  0  0  0  0
    7.0830  -18.4840   17.2796 C   0  0  0  0  0  0  0  0  0  0  0  0
    7.6715  -17.9842   18.4441 C   0  0  0  0  0  0  0  0  0  0  0  0
    9.3261  -15.9176   21.8339 C   0  0  0  0  0  0  0  0  0  0  0  0
   10.3119  -15.1560   21.9536 O   0  0  0  0  0  0  0  0  0  0  0  0
    8.7423  -16.4586   23.0286 N   0  0  0  0  0  0  0  0  0  0  0  0
    9.3570  -16.3134   24.3385 C   0  0  1  0  0  0  0  0  0  0  0  0
    8.2730  -16.5125   25.3739 C   0  0  0  0  0  0  0  0  0  0  0  0
    7.2791  -15.4378   25.4151 C   0  0  0  0  0  0  0  0  0  0  0  0
    5.9330  -15.5868   25.2404 C   0  0  0  0  0  0  0  0  0  0  0  0
    5.3606  -14.3734   25.3498 N   0  0  0  0  0  0  0  0  0  0  0  0
    6.3168  -13.4439   25.5925 C   0  0  0  0  0  0  0  0  0  0  0  0
    6.3115  -12.0710   25.7903 C   0  0  0  0  0  0  0  0  0  0  0  0
    7.4981  -11.4091   26.0216 C   0  0  0  0  0  0  0  0  0  0  0  0
    8.7150  -12.0599   26.0664 C   0  0  0  0  0  0  0  0  0  0  0  0
    8.7247  -13.4131   25.8716 C   0  0  0  0  0  0  0  0  0  0  0  0
    7.5419  -14.1101   25.6360 C   0  0  0  0  0  0  0  0  0  0  0  0
   10.3582  -17.4157   24.5680 C   0  0  0  0  0  0  0  0  0  0  0  0
   10.6593  -18.2339   23.6797 O   0  0  0  0  0  0  0  0  0  0  0  0
   18.6293  -17.9010   24.9063 O   0  0  0  0  0  0  0  0  0  0  0  0
   17.2662  -17.5832   25.0292 C   0  0  0  0  0  0  0  0  0  0  0  0
   16.3486  -18.1047   24.1507 C   0  0  0  0  0  0  0  0  0  0  0  0
   15.0150  -17.8064   24.2549 C   0  0  0  0  0  0  0  0  0  0  0  0
   14.5599  -16.9698   25.2510 C   0  0  0  0  0  0  0  0  0  0  0  0
   13.1299  -16.6672   25.3302 C   0  0  0  0  0  0  0  0  0  0  0  0
   12.3977  -17.7623   26.0333 C   0  0  2  0  0  0  0  0  0  0  0  0
   10.9635  -17.5007   25.8492 N   0  0  0  0  0  0  0  0  0  0  0  0
   12.6448  -17.8418   27.4842 C   0  0  0  0  0  0  0  0  0  0  0  0
   13.5735  -18.7429   28.0377 O   0  0  0  0  0  0  0  0  0  0  0  0
   15.4563  -16.4344   26.1427 C   0  0  0  0  0  0  0  0  0  0  0  0
   16.8122  -16.7476   26.0241 C   0  0  0  0  0  0  0  0  0  0  0  0
   12.0475  -17.1161   28.3182 O   0  0  0  0  0  0  0  0  0  0  0  0
  2  1  1  6
  2  3  1  0
  3  4  1  0
  4  5  2  0
  5  6  1  0
  7  6  2  0
  8  7  1  0
  9  8  2  0
  9  4  1  0
 10  2  1  0
 11 10  2  0
 12 10  1  0
 13 12  1  0
 14 15  1  0
 13 14  1  1
 15 23  1  0
 16 17  1  0
 16 15  2  0
 17 18  1  0
 18 23  2  0
 18 19  1  0
 19 20  2  0
 20 21  1  0
 22 21  2  0
 23 22  1  0
 24 13  1  0
 24 25  2  0
 27 37  2  0
 27 26  1  0
 28 27  1  0
 29 30  1  0
 29 28  2  0
 30 36  2  0
 31 30  1  0
 32 31  1  1
 32 33  1  0
 33 24  1  0
 34 32  1  0
 35 34  1  0
 36 37  1  0
 38 34  2  0
M  END
$$$$
