FWY.pdb
     RDKit          3D

 38 41  0  0  1  0  0  0  0  0999 V2000
    6.3860  -17.4283   21.4222 N   0  0  0  0  0  0  0  0  0  0  0  0
    7.8225  -17.1397   21.4482 C   0  0  1  0  0  0  0  0  0  0  0  0
    8.1804  -16.6541   20.0684 C   0  0  0  0  0  0  0  0  0  0  0  0
    7.8371  -15.2611   19.8010 C   0  0  0  0  0  0  0  0  0  0  0  0
    8.7764  -14.2720   19.8963 C   0  0  0  0  0  0  0  0  0  0  0  0
    8.4680  -12.9347   19.6409 C   0  0  0  0  0  0  0  0  0  0  0  0
    7.1725  -12.5929   19.2795 C   0  0  0  0  0  0  0  0  0  0  0  0
    6.2132  -13.5823   19.1794 C   0  0  0  0  0  0  0  0  0  0  0  0
    6.5534  -14.9118   19.4415 C   0  0  0  0  0  0  0  0  0  0  0  0
    8.0879  -16.1332   22.5036 C   0  0  0  0  0  0  0  0  0  0  0  0
    7.5213  -15.0175   22.5023 O   0  0  0  0  0  0  0  0  0  0  0  0
    9.0127  -16.4192   23.5637 N   0  0  0  0  0  0  0  0  0  0  0  0
    9.5852  -15.3824   24.4075 C   0  0  1  0  0  0  0  0  0  0  0  0
    8.8879  -15.4505   25.7476 C   0  0  0  0  0  0  0  0  0  0  0  0
    7.5638  -14.8250   25.7665 C   0  0  0  0  0  0  0  0  0  0  0  0
    6.3683  -15.4826   25.7112 C   0  0  0  0  0  0  0  0  0  0  0  0
    5.3844  -14.5649   25.7524 N   0  0  0  0  0  0  0  0  0  0  0  0
    5.9268  -13.3254   25.8334 C   0  0  0  0  0  0  0  0  0  0  0  0
    5.4105  -12.0399   25.9037 C   0  0  0  0  0  0  0  0  0  0  0  0
    6.2668  -10.9626   25.9802 C   0  0  0  0  0  0  0  0  0  0  0  0
    7.6402  -11.1048   25.9903 C   0  0  0  0  0  0  0  0  0  0  0  0
    8.1532  -12.3702   25.9210 C   0  0  0  0  0  0  0  0  0  0  0  0
    7.3135  -13.4789   25.8430 C   0  0  0  0  0  0  0  0  0  0  0  0
   11.0377  -15.6766   24.6797 C   0  0  0  0  0  0  0  0  0  0  0  0
   11.8531  -14.7815   24.9675 O   0  0  0  0  0  0  0  0  0  0  0  0
   10.2870  -15.8605   30.5779 O   0  0  0  0  0  0  0  0  0  0  0  0
   10.8516  -16.5203   29.4734 C   0  0  0  0  0  0  0  0  0  0  0  0
   11.9107  -15.9650   28.7984 C   0  0  0  0  0  0  0  0  0  0  0  0
   12.4748  -16.5938   27.7192 C   0  0  0  0  0  0  0  0  0  0  0  0
   11.9888  -17.8072   27.2825 C   0  0  0  0  0  0  0  0  0  0  0  0
   12.6106  -18.4488   26.1230 C   0  0  0  0  0  0  0  0  0  0  0  0
   12.8028  -17.4649   25.0163 C   0  0  2  0  0  0  0  0  0  0  0  0
   11.4632  -17.0284   24.5986 N   0  0  0  0  0  0  0  0  0  0  0  0
   13.4806  -17.9995   23.8216 C   0  0  0  0  0  0  0  0  0  0  0  0
   12.8504  -18.0541   22.5643 O   0  0  0  0  0  0  0  0  0  0  0  0
   10.9303  -18.3846   27.9393 C   0  0  0  0  0  0  0  0  0  0  0  0
   10.3659  -17.7321   29.0376 C   0  0  0  0  0  0  0  0  0  0  0  0
   14.6575  -18.4390   23.8449 O   0  0  0  0  0  0  0  0  0  0  0  0
  2  1  1  6
  2  3  1  0
  3  4  1  0
  4  5  2  0
  5  6  1  0
  7  6  2  0
  8  7  1  0
  9  8  2  0
  9  4  1  0
 10  2  1  0
 11 10  2  0
 12 10  1  0
 13 12  1  0
 14 15  1  0
 13 14  1  1
 15 23  1  0
 16 17  1  0
 16 15  2  0
 17 18  1  0
 18 23  2  0
 18 19  1  0
 19 20  2  0
 20 21  1  0
 22 21  2  0
 23 22  1  0
 24 13  1  0
 24 25  2  0
 27 37  2  0
 27 26  1  0
 28 27  1  0
 29 30  1  0
 29 28  2  0
 30 36  2  0
 31 30  1  0
 32 31  1  1
 32 33  1  0
 33 24  1  0
 34 32  1  0
 35 34  1  0
 36 37  1  0
 38 34  2  0
M  END
$$$$
