FWY.pdb
     RDKit          3D

 38 41  0  0  1  0  0  0  0  0999 V2000
    7.6134  -17.6070   20.9341 N   0  0  0  0  0  0  0  0  0  0  0  0
    8.8370  -16.8339   20.7042 C   0  0  1  0  0  0  0  0  0  0  0  0
    8.4648  -15.7284   19.7518 C   0  0  0  0  0  0  0  0  0  0  0  0
    7.8795  -14.5488   20.3809 C   0  0  0  0  0  0  0  0  0  0  0  0
    7.6304  -14.5162   21.7250 C   0  0  0  0  0  0  0  0  0  0  0  0
    7.0744  -13.3960   22.3451 C   0  0  0  0  0  0  0  0  0  0  0  0
    6.7632  -12.2801   21.5809 C   0  0  0  0  0  0  0  0  0  0  0  0
    7.0097  -12.2995   20.2215 C   0  0  0  0  0  0  0  0  0  0  0  0
    7.5671  -13.4361   19.6303 C   0  0  0  0  0  0  0  0  0  0  0  0
    9.3364  -16.3328   22.0068 C   0  0  0  0  0  0  0  0  0  0  0  0
   10.2880  -15.5230   22.0760 O   0  0  0  0  0  0  0  0  0  0  0  0
    8.7325  -16.7708   23.2333 N   0  0  0  0  0  0  0  0  0  0  0  0
    9.3235  -16.5109   24.5364 C   0  0  1  0  0  0  0  0  0  0  0  0
    8.2339  -16.6797   25.5714 C   0  0  0  0  0  0  0  0  0  0  0  0
    7.3044  -15.5510   25.6524 C   0  0  0  0  0  0  0  0  0  0  0  0
    5.9883  -15.5716   25.2888 C   0  0  0  0  0  0  0  0  0  0  0  0
    5.4741  -14.3476   25.5111 N   0  0  0  0  0  0  0  0  0  0  0  0
    6.4384  -13.5376   26.0126 C   0  0  0  0  0  0  0  0  0  0  0  0
    6.4819  -12.2118   26.4176 C   0  0  0  0  0  0  0  0  0  0  0  0
    7.6609  -11.6814   26.8956 C   0  0  0  0  0  0  0  0  0  0  0  0
    8.8227  -12.4212   26.9923 C   0  0  0  0  0  0  0  0  0  0  0  0
    8.7841  -13.7285   26.5940 C   0  0  0  0  0  0  0  0  0  0  0  0
    7.6076  -14.2931   26.1067 C   0  0  0  0  0  0  0  0  0  0  0  0
   10.3629  -17.5546   24.8534 C   0  0  0  0  0  0  0  0  0  0  0  0
   10.2580  -18.7335   24.4685 O   0  0  0  0  0  0  0  0  0  0  0  0
   14.5578  -17.0027   20.1642 O   0  0  0  0  0  0  0  0  0  0  0  0
   14.3830  -17.1431   21.5512 C   0  0  0  0  0  0  0  0  0  0  0  0
   14.0351  -16.0608   22.3214 C   0  0  0  0  0  0  0  0  0  0  0  0
   13.8600  -16.1784   23.6756 C   0  0  0  0  0  0  0  0  0  0  0  0
   14.0301  -17.3946   24.3010 C   0  0  0  0  0  0  0  0  0  0  0  0
   13.8411  -17.4840   25.7498 C   0  0  0  0  0  0  0  0  0  0  0  0
   12.5186  -18.0982   26.0717 C   0  0  2  0  0  0  0  0  0  0  0  0
   11.4894  -17.1526   25.6179 N   0  0  0  0  0  0  0  0  0  0  0  0
   12.2823  -18.3465   27.5053 C   0  0  0  0  0  0  0  0  0  0  0  0
   11.2046  -17.7646   28.1987 O   0  0  0  0  0  0  0  0  0  0  0  0
   14.3782  -18.4930   23.5544 C   0  0  0  0  0  0  0  0  0  0  0  0
   14.5531  -18.3579   22.1754 C   0  0  0  0  0  0  0  0  0  0  0  0
   13.0214  -19.0888   28.1994 O   0  0  0  0  0  0  0  0  0  0  0  0
  2  1  1  1
  2  3  1  0
  3  4  1  0
  4  5  2  0
  5  6  1  0
  7  6  2  0
  8  7  1  0
  9  8  2  0
  9  4  1  0
 10  2  1  0
 11 10  2  0
 12 10  1  0
 13 12  1  0
 14 15  1  0
 13 14  1  1
 15 23  1  0
 16 17  1  0
 16 15  2  0
 17 18  1  0
 18 23  2  0
 18 19  1  0
 19 20  2  0
 20 21  1  0
 22 21  2  0
 23 22  1  0
 24 13  1  0
 24 25  2  0
 27 37  2  0
 27 26  1  0
 28 27  1  0
 29 30  1  0
 29 28  2  0
 30 36  2  0
 31 30  1  0
 32 31  1  1
 32 33  1  0
 33 24  1  0
 34 32  1  0
 35 34  1  0
 36 37  1  0
 38 34  2  0
M  END
$$$$
