FWY.pdb
     RDKit          3D

 38 41  0  0  1  0  0  0  0  0999 V2000
    7.5759  -13.3744   19.3214 N   0  0  0  0  0  0  0  0  0  0  0  0
    7.8312  -14.7151   19.8553 C   0  0  1  0  0  0  0  0  0  0  0  0
    8.5762  -15.4622   18.7809 C   0  0  0  0  0  0  0  0  0  0  0  0
    7.7584  -16.3776   17.9915 C   0  0  0  0  0  0  0  0  0  0  0  0
    6.4015  -16.4293   18.1526 C   0  0  0  0  0  0  0  0  0  0  0  0
    5.6023  -17.2955   17.4046 C   0  0  0  0  0  0  0  0  0  0  0  0
    6.1961  -18.1308   16.4688 C   0  0  0  0  0  0  0  0  0  0  0  0
    7.5663  -18.0890   16.2957 C   0  0  0  0  0  0  0  0  0  0  0  0
    8.3389  -17.2109   17.0600 C   0  0  0  0  0  0  0  0  0  0  0  0
    8.6032  -14.5882   21.1144 C   0  0  0  0  0  0  0  0  0  0  0  0
    9.4324  -13.6664   21.2845 O   0  0  0  0  0  0  0  0  0  0  0  0
    8.4150  -15.5317   22.1798 N   0  0  0  0  0  0  0  0  0  0  0  0
    9.3353  -15.6454   23.3000 C   0  0  1  0  0  0  0  0  0  0  0  0
    8.5230  -16.0191   24.5195 C   0  0  0  0  0  0  0  0  0  0  0  0
    7.5060  -15.0317   24.8877 C   0  0  0  0  0  0  0  0  0  0  0  0
    6.1757  -15.1048   24.5884 C   0  0  0  0  0  0  0  0  0  0  0  0
    5.5726  -14.0138   25.0963 N   0  0  0  0  0  0  0  0  0  0  0  0
    6.4935  -13.2380   25.7187 C   0  0  0  0  0  0  0  0  0  0  0  0
    6.4480  -12.0317   26.4017 C   0  0  0  0  0  0  0  0  0  0  0  0
    7.6051  -11.5012   26.9303 C   0  0  0  0  0  0  0  0  0  0  0  0
    8.8308  -12.1255   26.8100 C   0  0  0  0  0  0  0  0  0  0  0  0
    8.8801  -13.3148   26.1373 C   0  0  0  0  0  0  0  0  0  0  0  0
    7.7278  -13.8762   25.5921 C   0  0  0  0  0  0  0  0  0  0  0  0
   10.2925  -16.7866   23.0727 C   0  0  0  0  0  0  0  0  0  0  0  0
    9.9666  -17.8106   22.4448 O   0  0  0  0  0  0  0  0  0  0  0  0
   14.6673  -13.4209   19.2860 O   0  0  0  0  0  0  0  0  0  0  0  0
   14.1729  -14.5515   19.9578 C   0  0  0  0  0  0  0  0  0  0  0  0
   15.0334  -15.4224   20.5798 C   0  0  0  0  0  0  0  0  0  0  0  0
   14.5698  -16.5302   21.2402 C   0  0  0  0  0  0  0  0  0  0  0  0
   13.2192  -16.7985   21.2961 C   0  0  0  0  0  0  0  0  0  0  0  0
   12.7583  -17.9935   22.0047 C   0  0  0  0  0  0  0  0  0  0  0  0
   12.6172  -17.7184   23.4656 C   0  0  2  0  0  0  0  0  0  0  0  0
   11.6034  -16.6635   23.6031 N   0  0  0  0  0  0  0  0  0  0  0  0
   13.8427  -17.2357   24.1271 C   0  0  0  0  0  0  0  0  0  0  0  0
   15.0229  -18.0014   24.1687 O   0  0  0  0  0  0  0  0  0  0  0  0
   12.3369  -15.9440   20.6824 C   0  0  0  0  0  0  0  0  0  0  0  0
   12.8240  -14.8191   20.0133 C   0  0  0  0  0  0  0  0  0  0  0  0
   13.9158  -16.1167   24.6941 O   0  0  0  0  0  0  0  0  0  0  0  0
  2  1  1  6
  2  3  1  0
  3  4  1  0
  4  5  2  0
  5  6  1  0
  7  6  2  0
  8  7  1  0
  9  8  2  0
  9  4  1  0
 10  2  1  0
 11 10  2  0
 12 10  1  0
 13 12  1  0
 14 15  1  0
 13 14  1  1
 15 23  1  0
 16 17  1  0
 16 15  2  0
 17 18  1  0
 18 23  2  0
 18 19  1  0
 19 20  2  0
 20 21  1  0
 22 21  2  0
 23 22  1  0
 24 13  1  0
 24 25  2  0
 27 37  2  0
 27 26  1  0
 28 27  1  0
 29 30  1  0
 29 28  2  0
 30 36  2  0
 31 30  1  0
 32 31  1  6
 32 33  1  0
 33 24  1  0
 34 32  1  0
 35 34  1  0
 36 37  1  0
 38 34  2  0
M  END
$$$$
