FWY.pdb
     RDKit          3D

 38 41  0  0  1  0  0  0  0  0999 V2000
    8.3756  -16.4042   21.5367 N   0  0  0  0  0  0  0  0  0  0  0  0
    9.7899  -16.0641   21.7149 C   0  0  1  0  0  0  0  0  0  0  0  0
    9.9315  -14.6215   21.3069 C   0  0  0  0  0  0  0  0  0  0  0  0
    8.7097  -14.0054   20.7994 C   0  0  0  0  0  0  0  0  0  0  0  0
    8.7080  -12.7192   20.3353 C   0  0  0  0  0  0  0  0  0  0  0  0
    7.5504  -12.1142   19.8429 C   0  0  0  0  0  0  0  0  0  0  0  0
    6.3639  -12.8336   19.8212 C   0  0  0  0  0  0  0  0  0  0  0  0
    6.3512  -14.1343   20.2871 C   0  0  0  0  0  0  0  0  0  0  0  0
    7.5267  -14.7118   20.7738 C   0  0  0  0  0  0  0  0  0  0  0  0
   10.1642  -16.3057   23.1286 C   0  0  0  0  0  0  0  0  0  0  0  0
   11.3203  -16.0756   23.5489 O   0  0  0  0  0  0  0  0  0  0  0  0
    9.1972  -16.8159   24.0589 N   0  0  0  0  0  0  0  0  0  0  0  0
    9.5048  -17.0542   25.4601 C   0  0  1  0  0  0  0  0  0  0  0  0
    8.2360  -16.8229   26.2497 C   0  0  0  0  0  0  0  0  0  0  0  0
    7.5411  -15.5778   25.9159 C   0  0  0  0  0  0  0  0  0  0  0  0
    6.3481  -15.4796   25.2588 C   0  0  0  0  0  0  0  0  0  0  0  0
    6.0411  -14.1741   25.1428 N   0  0  0  0  0  0  0  0  0  0  0  0
    7.0179  -13.4286   25.7151 C   0  0  0  0  0  0  0  0  0  0  0  0
    7.2283  -12.0687   25.8892 C   0  0  0  0  0  0  0  0  0  0  0  0
    8.3629  -11.6300   26.5372 C   0  0  0  0  0  0  0  0  0  0  0  0
    9.3182  -12.4963   27.0306 C   0  0  0  0  0  0  0  0  0  0  0  0
    9.1147  -13.8376   26.8609 C   0  0  0  0  0  0  0  0  0  0  0  0
    7.9778  -14.3116   26.2104 C   0  0  0  0  0  0  0  0  0  0  0  0
    9.8693  -18.5005   25.6738 C   0  0  0  0  0  0  0  0  0  0  0  0
    9.1137  -19.4313   25.3394 O   0  0  0  0  0  0  0  0  0  0  0  0
   16.1282  -22.8501   21.9837 O   0  0  0  0  0  0  0  0  0  0  0  0
   15.1846  -21.9830   22.5598 C   0  0  0  0  0  0  0  0  0  0  0  0
   15.5913  -20.9543   23.3736 C   0  0  0  0  0  0  0  0  0  0  0  0
   14.6858  -20.0984   23.9443 C   0  0  0  0  0  0  0  0  0  0  0  0
   13.3357  -20.2508   23.7132 C   0  0  0  0  0  0  0  0  0  0  0  0
   12.3952  -19.3226   24.3430 C   0  0  0  0  0  0  0  0  0  0  0  0
   12.0642  -19.7678   25.7294 C   0  0  2  0  0  0  0  0  0  0  0  0
   11.1222  -18.7825   26.2784 N   0  0  0  0  0  0  0  0  0  0  0  0
   13.2129  -19.8347   26.6505 C   0  0  0  0  0  0  0  0  0  0  0  0
   13.8696  -18.6794   27.1141 O   0  0  0  0  0  0  0  0  0  0  0  0
   12.9020  -21.2713   22.9035 C   0  0  0  0  0  0  0  0  0  0  0  0
   13.8365  -22.1356   22.3289 C   0  0  0  0  0  0  0  0  0  0  0  0
   13.6796  -20.9192   27.0807 O   0  0  0  0  0  0  0  0  0  0  0  0
  2  1  1  1
  2  3  1  0
  3  4  1  0
  4  5  2  0
  5  6  1  0
  7  6  2  0
  8  7  1  0
  9  8  2  0
  9  4  1  0
 10  2  1  0
 11 10  2  0
 12 10  1  0
 13 12  1  0
 14 15  1  0
 13 14  1  1
 15 23  1  0
 16 17  1  0
 16 15  2  0
 17 18  1  0
 18 23  2  0
 18 19  1  0
 19 20  2  0
 20 21  1  0
 22 21  2  0
 23 22  1  0
 24 13  1  0
 24 25  2  0
 27 37  2  0
 27 26  1  0
 28 27  1  0
 29 30  1  0
 29 28  2  0
 30 36  2  0
 31 30  1  0
 32 31  1  6
 32 33  1  0
 33 24  1  0
 34 32  1  0
 35 34  1  0
 36 37  1  0
 38 34  2  0
M  END
$$$$
