AWE.pdb
     RDKit          3D

 29 30  0  0  1  0  0  0  0  0999 V2000
    7.1964  -13.8809   20.3652 C   0  0  0  0  0  0  0  0  0  0  0  0
    7.6405  -15.2986   20.7549 C   0  0  2  0  0  0  0  0  0  0  0  0
    6.4095  -16.0212   21.0067 N   0  0  0  0  0  0  0  0  0  0  0  0
    8.4183  -15.1958   21.9868 C   0  0  0  0  0  0  0  0  0  0  0  0
    9.2333  -14.2510   22.1342 O   0  0  0  0  0  0  0  0  0  0  0  0
    8.3171  -16.1284   23.0835 N   0  0  0  0  0  0  0  0  0  0  0  0
    9.0913  -16.0122   24.2728 C   0  0  1  0  0  0  0  0  0  0  0  0
    8.3303  -15.9955   25.5393 C   0  0  0  0  0  0  0  0  0  0  0  0
    7.2688  -14.9730   25.6437 C   0  0  0  0  0  0  0  0  0  0  0  0
    5.9082  -15.0955   25.5056 C   0  0  0  0  0  0  0  0  0  0  0  0
    5.3094  -13.8910   25.6917 N   0  0  0  0  0  0  0  0  0  0  0  0
    6.2632  -12.9736   25.9521 C   0  0  0  0  0  0  0  0  0  0  0  0
    6.1943  -11.6199   26.2128 C   0  0  0  0  0  0  0  0  0  0  0  0
    7.3237  -10.8748   26.4548 C   0  0  0  0  0  0  0  0  0  0  0  0
    8.5349  -11.5267   26.4284 C   0  0  0  0  0  0  0  0  0  0  0  0
    8.6084  -12.8790   26.1683 C   0  0  0  0  0  0  0  0  0  0  0  0
    7.4687  -13.6317   25.9240 C   0  0  0  0  0  0  0  0  0  0  0  0
   10.2082  -16.9913   24.3448 C   0  0  0  0  0  0  0  0  0  0  0  0
   10.0041  -18.2356   24.1476 O   0  0  0  0  0  0  0  0  0  0  0  0
   11.5336  -16.6150   24.6298 N   0  0  0  0  0  0  0  0  0  0  0  0
   12.6428  -17.5935   24.7617 C   0  0  1  0  0  0  0  0  0  0  0  0
   13.9147  -16.9190   24.3774 C   0  0  0  0  0  0  0  0  0  0  0  0
   13.9883  -16.4688   22.9673 C   0  0  0  0  0  0  0  0  0  0  0  0
   15.2033  -15.7467   22.5699 C   0  0  0  0  0  0  0  0  0  0  0  0
   16.1855  -15.5159   23.3439 O   0  0  0  0  0  0  0  0  0  0  0  0
   12.5007  -18.1917   26.0672 C   0  0  0  0  0  0  0  0  0  0  0  0
   11.7442  -17.6587   26.9387 O   0  0  0  0  0  0  0  0  0  0  0  0
   15.3420  -15.2628   21.2575 O   0  0  0  0  0  0  0  0  0  0  0  0
   13.1330  -19.3477   26.4734 O   0  0  0  0  0  0  0  0  0  0  0  0
  2  1  1  1
  2  3  1  0
  4  2  1  0
  4  5  2  0
  6  4  1  0
  7  6  1  0
  7  8  1  1
  9  8  1  0
  9 10  2  0
 11 10  1  0
 12 11  1  0
 13 12  2  0
 14 13  1  0
 15 14  2  0
 15 16  1  0
 16 17  2  0
 17 12  1  0
 17  9  1  0
 18  7  1  0
 19 18  2  0
 20 18  1  0
 21 20  1  0
 21 22  1  1
 22 23  1  0
 24 23  1  0
 24 28  1  0
 25 24  2  0
 26 21  1  0
 26 29  1  0
 27 26  2  0
M  END
$$$$
