AWE.pdb
     RDKit          3D

 29 30  0  0  1  0  0  0  0  0999 V2000
    7.5297  -17.1561   20.0868 C   0  0  0  0  0  0  0  0  0  0  0  0
    7.0120  -16.0175   20.9782 C   0  0  2  0  0  0  0  0  0  0  0  0
    6.8877  -14.8758   20.0937 N   0  0  0  0  0  0  0  0  0  0  0  0
    8.0282  -15.7527   21.9930 C   0  0  0  0  0  0  0  0  0  0  0  0
    8.9708  -14.9609   21.7417 O   0  0  0  0  0  0  0  0  0  0  0  0
    8.0307  -16.3516   23.3061 N   0  0  0  0  0  0  0  0  0  0  0  0
    9.0110  -16.0490   24.2934 C   0  0  1  0  0  0  0  0  0  0  0  0
    8.4998  -15.8146   25.6599 C   0  0  0  0  0  0  0  0  0  0  0  0
    7.3591  -14.8824   25.7738 C   0  0  0  0  0  0  0  0  0  0  0  0
    6.0092  -15.1340   25.7681 C   0  0  0  0  0  0  0  0  0  0  0  0
    5.3173  -13.9738   25.9068 N   0  0  0  0  0  0  0  0  0  0  0  0
    6.1988  -12.9577   26.0044 C   0  0  0  0  0  0  0  0  0  0  0  0
    6.0247  -11.5971   26.1576 C   0  0  0  0  0  0  0  0  0  0  0  0
    7.0952  -10.7384   26.2357 C   0  0  0  0  0  0  0  0  0  0  0  0
    8.3560  -11.2830   26.1552 C   0  0  0  0  0  0  0  0  0  0  0  0
    8.5347  -12.6418   26.0021 C   0  0  0  0  0  0  0  0  0  0  0  0
    7.4545  -13.5091   25.9235 C   0  0  0  0  0  0  0  0  0  0  0  0
   10.1412  -17.0152   24.3147 C   0  0  0  0  0  0  0  0  0  0  0  0
    9.9359  -18.2685   24.1882 O   0  0  0  0  0  0  0  0  0  0  0  0
   11.4811  -16.6163   24.4729 N   0  0  0  0  0  0  0  0  0  0  0  0
   12.6070  -17.5797   24.5692 C   0  0  1  0  0  0  0  0  0  0  0  0
   13.8513  -16.8977   24.1146 C   0  0  0  0  0  0  0  0  0  0  0  0
   13.8657  -16.4981   22.6875 C   0  0  0  0  0  0  0  0  0  0  0  0
   15.0213  -15.7133   22.2357 C   0  0  0  0  0  0  0  0  0  0  0  0
   15.1898  -15.3074   21.0424 O   0  0  0  0  0  0  0  0  0  0  0  0
   12.5331  -18.1569   25.8897 C   0  0  0  0  0  0  0  0  0  0  0  0
   13.1425  -19.2413   26.1512 O   0  0  0  0  0  0  0  0  0  0  0  0
   16.0334  -15.3564   23.1436 O   0  0  0  0  0  0  0  0  0  0  0  0
   11.8363  -17.6106   26.9467 O   0  0  0  0  0  0  0  0  0  0  0  0
  2  1  1  6
  2  3  1  0
  4  2  1  0
  4  5  2  0
  6  4  1  0
  7  6  1  0
  7  8  1  1
  9  8  1  0
  9 10  2  0
 11 10  1  0
 12 11  1  0
 13 12  2  0
 14 13  1  0
 15 14  2  0
 15 16  1  0
 16 17  2  0
 17 12  1  0
 17  9  1  0
 18  7  1  0
 19 18  2  0
 20 18  1  0
 21 20  1  0
 21 22  1  1
 22 23  1  0
 24 23  1  0
 24 28  1  0
 25 24  2  0
 26 21  1  0
 26 29  1  0
 27 26  2  0
M  END
$$$$
