AWE.pdb
     RDKit          3D

 29 30  0  0  1  0  0  0  0  0999 V2000
    7.7109  -15.7269   19.4829 C   0  0  0  0  0  0  0  0  0  0  0  0
    7.2255  -14.6994   20.5161 C   0  0  2  0  0  0  0  0  0  0  0  0
    7.3806  -13.4128   19.8668 N   0  0  0  0  0  0  0  0  0  0  0  0
    8.1118  -14.7830   21.6738 C   0  0  0  0  0  0  0  0  0  0  0  0
    9.1314  -14.0513   21.7342 O   0  0  0  0  0  0  0  0  0  0  0  0
    7.8970  -15.6717   22.7904 N   0  0  0  0  0  0  0  0  0  0  0  0
    8.7933  -15.7604   23.8931 C   0  0  1  0  0  0  0  0  0  0  0  0
    8.1667  -15.8685   25.2271 C   0  0  0  0  0  0  0  0  0  0  0  0
    7.1170  -14.8745   25.5321 C   0  0  0  0  0  0  0  0  0  0  0  0
    5.7506  -14.9782   25.4445 C   0  0  0  0  0  0  0  0  0  0  0  0
    5.1679  -13.8152   25.8342 N   0  0  0  0  0  0  0  0  0  0  0  0
    6.1380  -12.9439   26.1789 C   0  0  0  0  0  0  0  0  0  0  0  0
    6.0890  -11.6432   26.6381 C   0  0  0  0  0  0  0  0  0  0  0  0
    7.2327  -10.9393   26.9309 C   0  0  0  0  0  0  0  0  0  0  0  0
    8.4378  -11.5778   26.7498 C   0  0  0  0  0  0  0  0  0  0  0  0
    8.4915  -12.8773   26.2912 C   0  0  0  0  0  0  0  0  0  0  0  0
    7.3373  -13.5884   25.9956 C   0  0  0  0  0  0  0  0  0  0  0  0
    9.8383  -16.8038   23.7184 C   0  0  0  0  0  0  0  0  0  0  0  0
    9.5235  -18.0064   23.4294 O   0  0  0  0  0  0  0  0  0  0  0  0
   11.2125  -16.5362   23.8584 N   0  0  0  0  0  0  0  0  0  0  0  0
   12.2373  -17.6040   23.9798 C   0  0  1  0  0  0  0  0  0  0  0  0
   13.5252  -17.0850   23.4392 C   0  0  0  0  0  0  0  0  0  0  0  0
   13.4755  -16.6152   22.0344 C   0  0  0  0  0  0  0  0  0  0  0  0
   14.7062  -16.0239   21.4946 C   0  0  0  0  0  0  0  0  0  0  0  0
   14.8531  -14.7880   21.2339 O   0  0  0  0  0  0  0  0  0  0  0  0
   12.1586  -18.0871   25.3372 C   0  0  0  0  0  0  0  0  0  0  0  0
   12.7839  -19.1389   25.6814 O   0  0  0  0  0  0  0  0  0  0  0  0
   15.8262  -16.8329   21.2364 O   0  0  0  0  0  0  0  0  0  0  0  0
   11.4404  -17.4800   26.3456 O   0  0  0  0  0  0  0  0  0  0  0  0
  2  1  1  6
  2  3  1  0
  4  2  1  0
  4  5  2  0
  6  4  1  0
  7  6  1  0
  7  8  1  1
  9  8  1  0
  9 10  2  0
 11 10  1  0
 12 11  1  0
 13 12  2  0
 14 13  1  0
 15 14  2  0
 15 16  1  0
 16 17  2  0
 17 12  1  0
 17  9  1  0
 18  7  1  0
 19 18  2  0
 20 18  1  0
 21 20  1  0
 21 22  1  1
 22 23  1  0
 24 23  1  0
 24 28  1  0
 25 24  2  0
 26 21  1  0
 26 29  1  0
 27 26  2  0
M  END
$$$$
