AWE.pdb
     RDKit          3D

 29 30  0  0  1  0  0  0  0  0999 V2000
    7.4266  -16.5820   19.6290 C   0  0  0  0  0  0  0  0  0  0  0  0
    7.1030  -15.3714   20.5170 C   0  0  2  0  0  0  0  0  0  0  0  0
    7.1980  -14.2241   19.6361 N   0  0  0  0  0  0  0  0  0  0  0  0
    8.1322  -15.2924   21.5501 C   0  0  0  0  0  0  0  0  0  0  0  0
    9.1727  -14.6187   21.3452 O   0  0  0  0  0  0  0  0  0  0  0  0
    8.0404  -15.9514   22.8307 N   0  0  0  0  0  0  0  0  0  0  0  0
    9.0078  -15.7795   23.8612 C   0  0  1  0  0  0  0  0  0  0  0  0
    8.4965  -15.8542   25.2455 C   0  0  0  0  0  0  0  0  0  0  0  0
    7.3583  -14.9677   25.5643 C   0  0  0  0  0  0  0  0  0  0  0  0
    6.0200  -15.2542   25.6756 C   0  0  0  0  0  0  0  0  0  0  0  0
    5.3265  -14.1308   25.9936 N   0  0  0  0  0  0  0  0  0  0  0  0
    6.1956  -13.1044   26.0939 C   0  0  0  0  0  0  0  0  0  0  0  0
    6.0151  -11.7686   26.3912 C   0  0  0  0  0  0  0  0  0  0  0  0
    7.0727  -10.8919   26.4377 C   0  0  0  0  0  0  0  0  0  0  0  0
    8.3272  -11.3924   26.1758 C   0  0  0  0  0  0  0  0  0  0  0  0
    8.5122  -12.7261   25.8782 C   0  0  0  0  0  0  0  0  0  0  0  0
    7.4450  -13.6117   25.8314 C   0  0  0  0  0  0  0  0  0  0  0  0
   10.2030  -16.6488   23.6959 C   0  0  0  0  0  0  0  0  0  0  0  0
   10.0868  -17.8559   23.2980 O   0  0  0  0  0  0  0  0  0  0  0  0
   11.5108  -16.2040   23.9629 N   0  0  0  0  0  0  0  0  0  0  0  0
   12.7151  -17.0387   23.7221 C   0  0  1  0  0  0  0  0  0  0  0  0
   13.8237  -16.1491   23.2748 C   0  0  0  0  0  0  0  0  0  0  0  0
   15.1324  -16.8188   23.0868 C   0  0  0  0  0  0  0  0  0  0  0  0
   16.2536  -15.9667   22.6716 C   0  0  0  0  0  0  0  0  0  0  0  0
   16.5332  -15.6886   21.4627 O   0  0  0  0  0  0  0  0  0  0  0  0
   12.8730  -17.8674   24.8928 C   0  0  0  0  0  0  0  0  0  0  0  0
   13.2970  -19.0607   24.7822 O   0  0  0  0  0  0  0  0  0  0  0  0
   17.1006  -15.3920   23.6350 O   0  0  0  0  0  0  0  0  0  0  0  0
   12.6015  -17.4629   26.1827 O   0  0  0  0  0  0  0  0  0  0  0  0
  2  1  1  6
  2  3  1  0
  4  2  1  0
  4  5  2  0
  6  4  1  0
  7  6  1  0
  7  8  1  1
  9  8  1  0
  9 10  2  0
 11 10  1  0
 12 11  1  0
 13 12  2  0
 14 13  1  0
 15 14  2  0
 15 16  1  0
 16 17  2  0
 17 12  1  0
 17  9  1  0
 18  7  1  0
 19 18  2  0
 20 18  1  0
 21 20  1  0
 21 22  1  1
 22 23  1  0
 24 23  1  0
 24 28  1  0
 25 24  2  0
 26 21  1  0
 26 29  1  0
 27 26  2  0
M  END
$$$$
