GIQ.pdb
     RDKit          3D

 22 21  0  0  1  0  0  0  0  0999 V2000
    4.7063  -17.2493   21.7720 N   0  0  0  0  0  0  0  0  0  0  0  0
    4.8351  -17.0228   23.1924 C   0  0  0  0  0  0  0  0  0  0  0  0
    6.0675  -16.2169   23.4773 C   0  0  0  0  0  0  0  0  0  0  0  0
    6.9868  -16.1782   22.6336 O   0  0  0  0  0  0  0  0  0  0  0  0
    5.6507  -11.9299   26.5714 C   0  0  0  0  0  0  0  0  0  0  0  0
    6.2035  -12.9352   25.6138 C   0  0  0  0  0  0  0  0  0  0  0  0
    7.1171  -13.9644   26.2430 C   0  0  2  0  0  0  0  0  0  0  0  0
    8.3283  -13.2422   26.8249 C   0  0  0  0  0  0  0  0  0  0  0  0
    7.4808  -14.9606   25.1747 C   0  0  2  0  0  0  0  0  0  0  0  0
    6.2008  -15.4972   24.6961 N   0  0  0  0  0  0  0  0  0  0  0  0
    8.3559  -16.0604   25.6407 C   0  0  0  0  0  0  0  0  0  0  0  0
    7.8977  -16.8309   26.5529 O   0  0  0  0  0  0  0  0  0  0  0  0
   12.2476  -16.1442   22.3830 N   0  0  0  0  0  0  0  0  0  0  0  0
   11.2676  -17.1895   22.0785 C   0  0  0  0  0  0  0  0  0  0  0  0
   10.8938  -17.1493   20.8894 O   0  0  0  0  0  0  0  0  0  0  0  0
   10.8478  -18.1126   23.1254 C   0  0  0  0  0  0  0  0  0  0  0  0
   11.3266  -17.9641   24.5067 C   0  0  0  0  0  0  0  0  0  0  0  0
   10.4028  -17.5524   25.5783 C   0  0  2  0  0  0  0  0  0  0  0  0
    9.6344  -16.3583   25.1955 N   0  0  0  0  0  0  0  0  0  0  0  0
   11.1025  -17.3028   26.8555 C   0  0  0  0  0  0  0  0  0  0  0  0
   11.0879  -16.1109   27.5389 O   0  0  0  0  0  0  0  0  0  0  0  0
   11.7816  -18.2603   27.3839 O   0  0  0  0  0  0  0  0  0  0  0  0
  2  3  1  0
  2  1  1  0
  3  4  2  0
  5  6  1  0
  6  7  1  0
  7  9  1  0
  7  8  1  6
  9 11  1  0
  9 10  1  1
 10  3  1  0
 11 12  2  0
 11 19  1  0
 14 13  1  0
 14 16  1  0
 15 14  2  0
 17 16  1  0
 18 17  1  6
 18 20  1  0
 19 18  1  0
 20 22  2  0
 20 21  1  0
M  END
$$$$
