GIQ.pdb
     RDKit          3D

 22 21  0  0  1  0  0  0  0  0999 V2000
    5.1109  -19.1336   24.5110 N   0  0  0  0  0  0  0  0  0  0  0  0
    5.4950  -18.1594   25.5054 C   0  0  0  0  0  0  0  0  0  0  0  0
    6.2776  -17.0505   24.8670 C   0  0  0  0  0  0  0  0  0  0  0  0
    6.7106  -17.1922   23.7048 O   0  0  0  0  0  0  0  0  0  0  0  0
    5.3496  -12.1409   26.5818 C   0  0  0  0  0  0  0  0  0  0  0  0
    5.8737  -13.2088   25.6773 C   0  0  0  0  0  0  0  0  0  0  0  0
    7.2931  -13.6413   25.9742 C   0  0  2  0  0  0  0  0  0  0  0  0
    8.2300  -12.4865   25.6338 C   0  0  0  0  0  0  0  0  0  0  0  0
    7.5671  -14.8816   25.1662 C   0  0  2  0  0  0  0  0  0  0  0  0
    6.5317  -15.8410   25.5696 N   0  0  0  0  0  0  0  0  0  0  0  0
    8.9134  -15.4606   25.3778 C   0  0  0  0  0  0  0  0  0  0  0  0
    9.1210  -16.0814   26.4766 O   0  0  0  0  0  0  0  0  0  0  0  0
   11.5455  -19.5835   26.8625 N   0  0  0  0  0  0  0  0  0  0  0  0
   12.2994  -19.2175   25.6612 C   0  0  0  0  0  0  0  0  0  0  0  0
   13.5312  -19.2479   25.8536 O   0  0  0  0  0  0  0  0  0  0  0  0
   11.5857  -18.8720   24.4383 C   0  0  0  0  0  0  0  0  0  0  0  0
   10.6346  -17.7525   24.4035 C   0  0  0  0  0  0  0  0  0  0  0  0
   11.1124  -16.3620   24.4994 C   0  0  2  0  0  0  0  0  0  0  0  0
    9.9924  -15.4088   24.5093 N   0  0  0  0  0  0  0  0  0  0  0  0
   12.0484  -16.0151   23.4100 C   0  0  0  0  0  0  0  0  0  0  0  0
   11.6820  -15.4651   22.2053 O   0  0  0  0  0  0  0  0  0  0  0  0
   13.3047  -16.2367   23.5826 O   0  0  0  0  0  0  0  0  0  0  0  0
  2  3  1  0
  2  1  1  0
  3  4  2  0
  5  6  1  0
  6  7  1  0
  7  9  1  0
  7  8  1  6
  9 11  1  0
  9 10  1  1
 10  3  1  0
 11 12  2  0
 11 19  1  0
 14 13  1  0
 14 16  1  0
 15 14  2  0
 17 16  1  0
 18 17  1  6
 18 20  1  0
 19 18  1  0
 20 22  2  0
 20 21  1  0
M  END
$$$$
