GIQ.pdb
     RDKit          3D

 22 21  0  0  1  0  0  0  0  0999 V2000
    6.8709  -19.0086   27.4629 N   0  0  0  0  0  0  0  0  0  0  0  0
    7.8436  -17.9921   27.1372 C   0  0  0  0  0  0  0  0  0  0  0  0
    7.3249  -17.1142   26.0374 C   0  0  0  0  0  0  0  0  0  0  0  0
    6.9503  -17.6288   24.9635 O   0  0  0  0  0  0  0  0  0  0  0  0
    5.7947  -12.1847   27.3842 C   0  0  0  0  0  0  0  0  0  0  0  0
    5.9698  -13.3817   26.5070 C   0  0  0  0  0  0  0  0  0  0  0  0
    7.2569  -13.3932   25.7113 C   0  0  2  0  0  0  0  0  0  0  0  0
    7.1966  -12.2697   24.6811 C   0  0  0  0  0  0  0  0  0  0  0  0
    7.3931  -14.7575   25.0898 C   0  0  2  0  0  0  0  0  0  0  0  0
    7.2550  -15.7040   26.2035 N   0  0  0  0  0  0  0  0  0  0  0  0
    8.6757  -14.9794   24.3841 C   0  0  0  0  0  0  0  0  0  0  0  0
    9.7510  -14.6831   25.0101 O   0  0  0  0  0  0  0  0  0  0  0  0
   10.6225  -19.8170   25.2115 N   0  0  0  0  0  0  0  0  0  0  0  0
   11.3008  -19.0107   24.1939 C   0  0  0  0  0  0  0  0  0  0  0  0
   12.1875  -19.6555   23.5996 O   0  0  0  0  0  0  0  0  0  0  0  0
   10.9038  -17.6233   23.9894 C   0  0  0  0  0  0  0  0  0  0  0  0
   10.5972  -17.1103   22.6470 C   0  0  0  0  0  0  0  0  0  0  0  0
   10.1524  -15.7178   22.4620 C   0  0  2  0  0  0  0  0  0  0  0  0
    8.8504  -15.4803   23.1034 N   0  0  0  0  0  0  0  0  0  0  0  0
   10.0785  -15.3383   21.0359 C   0  0  0  0  0  0  0  0  0  0  0  0
    8.9174  -15.0558   20.3577 O   0  0  0  0  0  0  0  0  0  0  0  0
   11.1720  -15.2607   20.3611 O   0  0  0  0  0  0  0  0  0  0  0  0
  2  3  1  0
  2  1  1  0
  3  4  2  0
  5  6  1  0
  6  7  1  0
  7  9  1  0
  7  8  1  6
  9 11  1  0
  9 10  1  1
 10  3  1  0
 11 12  2  0
 11 19  1  0
 14 13  1  0
 14 16  1  0
 15 14  2  0
 17 16  1  0
 18 17  1  6
 18 20  1  0
 19 18  1  0
 20 22  2  0
 20 21  1  0
M  END
$$$$
