GIQ.pdb
     RDKit          3D

 22 21  0  0  1  0  0  0  0  0999 V2000
    4.6357  -18.4121   23.0090 N   0  0  0  0  0  0  0  0  0  0  0  0
    4.8366  -17.7451   24.2739 C   0  0  0  0  0  0  0  0  0  0  0  0
    6.0040  -16.8077   24.1840 C   0  0  0  0  0  0  0  0  0  0  0  0
    6.7881  -16.8916   23.2163 O   0  0  0  0  0  0  0  0  0  0  0  0
    5.6156  -11.9877   26.5099 C   0  0  0  0  0  0  0  0  0  0  0  0
    6.1291  -13.0813   25.6304 C   0  0  0  0  0  0  0  0  0  0  0  0
    7.1851  -13.9565   26.2698 C   0  0  2  0  0  0  0  0  0  0  0  0
    8.4037  -13.0928   26.5802 C   0  0  0  0  0  0  0  0  0  0  0  0
    7.4850  -15.0779   25.3114 C   0  0  2  0  0  0  0  0  0  0  0  0
    6.2276  -15.8255   25.1871 N   0  0  0  0  0  0  0  0  0  0  0  0
    8.5757  -15.9782   25.7503 C   0  0  0  0  0  0  0  0  0  0  0  0
    8.3607  -16.7043   26.7810 O   0  0  0  0  0  0  0  0  0  0  0  0
   11.9568  -16.5123   21.2982 N   0  0  0  0  0  0  0  0  0  0  0  0
   12.9239  -16.4564   22.3970 C   0  0  0  0  0  0  0  0  0  0  0  0
   13.9331  -15.7869   22.0993 O   0  0  0  0  0  0  0  0  0  0  0  0
   12.6355  -17.1458   23.6483 C   0  0  0  0  0  0  0  0  0  0  0  0
   11.2863  -17.6445   23.9481 C   0  0  0  0  0  0  0  0  0  0  0  0
   10.6482  -17.3442   25.2418 C   0  0  2  0  0  0  0  0  0  0  0  0
    9.8226  -16.1295   25.1641 N   0  0  0  0  0  0  0  0  0  0  0  0
   11.6341  -17.2040   26.3334 C   0  0  0  0  0  0  0  0  0  0  0  0
   12.4372  -18.2162   26.8008 O   0  0  0  0  0  0  0  0  0  0  0  0
   11.7658  -16.0565   26.9017 O   0  0  0  0  0  0  0  0  0  0  0  0
  2  3  1  0
  2  1  1  0
  3  4  2  0
  5  6  1  0
  6  7  1  0
  7  9  1  0
  7  8  1  6
  9 11  1  0
  9 10  1  1
 10  3  1  0
 11 12  2  0
 11 19  1  0
 14 13  1  0
 14 16  1  0
 15 14  2  0
 17 16  1  0
 18 17  1  6
 18 20  1  0
 19 18  1  0
 20 22  2  0
 20 21  1  0
M  END
$$$$
