MDI.pdb
     RDKit          3D

 25 24  0  0  1  0  0  0  0  0999 V2000
    8.5791  -11.8506   20.3584 C   0  0  0  0  0  0  0  0  0  0  0  0
    8.0669  -12.3836   18.6988 S   0  0  0  0  0  0  0  0  0  0  0  0
    7.4088  -14.0964   18.7668 C   0  0  0  0  0  0  0  0  0  0  0  0
    7.4977  -14.5358   20.1866 C   0  0  0  0  0  0  0  0  0  0  0  0
    8.4008  -15.6842   20.4635 C   0  0  2  0  0  0  0  0  0  0  0  0
    8.0956  -16.8031   19.5975 N   0  0  0  0  0  0  0  0  0  0  0  0
    8.5082  -16.0823   21.8814 C   0  0  0  0  0  0  0  0  0  0  0  0
    7.5746  -15.7973   22.6746 O   0  0  0  0  0  0  0  0  0  0  0  0
    9.6247  -16.7800   22.4140 N   0  0  0  0  0  0  0  0  0  0  0  0
    9.7421  -17.2094   23.7761 C   0  0  1  0  0  0  0  0  0  0  0  0
   10.6847  -18.3381   24.0055 C   0  0  0  0  0  0  0  0  0  0  0  0
   10.4870  -19.3817   22.9838 C   0  0  0  0  0  0  0  0  0  0  0  0
    9.4865  -20.1278   23.0576 O   0  0  0  0  0  0  0  0  0  0  0  0
   10.0309  -16.0530   24.6943 C   0  0  0  0  0  0  0  0  0  0  0  0
   11.0748  -15.4021   24.4727 O   0  0  0  0  0  0  0  0  0  0  0  0
   11.3701  -19.5768   21.9316 O   0  0  0  0  0  0  0  0  0  0  0  0
    6.3421  -12.6663   25.9426 C   0  0  0  0  0  0  0  0  0  0  0  0
    7.6033  -13.4563   25.7081 C   0  0  0  0  0  0  0  0  0  0  0  0
    8.3218  -13.8011   26.9937 C   0  0  2  0  0  0  0  0  0  0  0  0
    8.5561  -12.5898   27.8177 C   0  0  0  0  0  0  0  0  0  0  0  0
    9.5139  -14.6590   26.7371 C   0  0  2  0  0  0  0  0  0  0  0  0
    9.2011  -15.6851   25.7589 N   0  0  0  0  0  0  0  0  0  0  0  0
   10.1145  -15.2329   27.9578 C   0  0  0  0  0  0  0  0  0  0  0  0
    9.7692  -16.4142   28.2717 O   0  0  0  0  0  0  0  0  0  0  0  0
   11.0051  -14.6128   28.7786 O   0  0  0  0  0  0  0  0  0  0  0  0
  2  3  1  0
  2  1  1  0
  4  5  1  0
  4  3  1  0
  5  7  1  0
  5  6  1  6
  7  8  2  0
  9 10  1  0
  9  7  1  0
 10 11  1  6
 12 11  1  0
 13 12  2  0
 14 10  1  0
 14 15  2  0
 16 12  1  0
 18 17  1  0
 19 18  1  0
 19 20  1  6
 21 22  1  6
 21 19  1  0
 22 14  1  0
 23 21  1  0
 24 23  2  0
 25 23  1  0
M  END
$$$$
