MDI.pdb
     RDKit          3D

 25 24  0  0  1  0  0  0  0  0999 V2000
    8.2910  -11.3237   19.0114 C   0  0  0  0  0  0  0  0  0  0  0  0
    8.2346  -12.8827   19.9425 S   0  0  0  0  0  0  0  0  0  0  0  0
    6.5061  -13.4956   20.0330 C   0  0  0  0  0  0  0  0  0  0  0  0
    6.5249  -14.7120   20.8914 C   0  0  0  0  0  0  0  0  0  0  0  0
    7.4585  -15.7932   20.4783 C   0  0  2  0  0  0  0  0  0  0  0  0
    6.8119  -16.7164   19.5703 N   0  0  0  0  0  0  0  0  0  0  0  0
    8.1598  -16.4838   21.5791 C   0  0  0  0  0  0  0  0  0  0  0  0
    7.4935  -17.1451   22.4162 O   0  0  0  0  0  0  0  0  0  0  0  0
    9.5687  -16.4443   21.7536 N   0  0  0  0  0  0  0  0  0  0  0  0
   10.2603  -16.9397   22.9067 C   0  0  1  0  0  0  0  0  0  0  0  0
   11.6610  -17.3807   22.6643 C   0  0  0  0  0  0  0  0  0  0  0  0
   11.6745  -18.7337   22.0803 C   0  0  0  0  0  0  0  0  0  0  0  0
   10.7066  -19.1087   21.3836 O   0  0  0  0  0  0  0  0  0  0  0  0
   10.1766  -15.9724   24.0560 C   0  0  0  0  0  0  0  0  0  0  0  0
   10.9344  -14.9791   24.0153 O   0  0  0  0  0  0  0  0  0  0  0  0
   12.7241  -19.6212   22.2702 O   0  0  0  0  0  0  0  0  0  0  0  0
    6.9325  -12.2720   26.8707 C   0  0  0  0  0  0  0  0  0  0  0  0
    7.8036  -13.4308   27.2806 C   0  0  0  0  0  0  0  0  0  0  0  0
    7.8829  -14.5040   26.2176 C   0  0  2  0  0  0  0  0  0  0  0  0
    6.6765  -15.3671   26.2368 C   0  0  0  0  0  0  0  0  0  0  0  0
    9.1948  -15.2114   26.2561 C   0  0  2  0  0  0  0  0  0  0  0  0
    9.3081  -16.1339   25.1409 N   0  0  0  0  0  0  0  0  0  0  0  0
    9.4824  -15.8736   27.5442 C   0  0  0  0  0  0  0  0  0  0  0  0
    9.6546  -15.1232   28.5542 O   0  0  0  0  0  0  0  0  0  0  0  0
    9.5799  -17.2151   27.7496 O   0  0  0  0  0  0  0  0  0  0  0  0
  2  3  1  0
  2  1  1  0
  4  5  1  0
  4  3  1  0
  5  7  1  0
  5  6  1  1
  7  8  2  0
  9 10  1  0
  9  7  1  0
 10 11  1  6
 12 11  1  0
 13 12  2  0
 14 10  1  0
 14 15  2  0
 16 12  1  0
 18 17  1  0
 19 18  1  0
 19 20  1  1
 21 22  1  6
 21 19  1  0
 22 14  1  0
 23 21  1  0
 24 23  2  0
 25 23  1  0
M  END
$$$$
