MDI.pdb
     RDKit          3D

 25 24  0  0  1  0  0  0  0  0999 V2000
    9.4361  -12.1632   19.9877 C   0  0  0  0  0  0  0  0  0  0  0  0
    7.6319  -12.1691   20.2019 S   0  0  0  0  0  0  0  0  0  0  0  0
    7.1037  -13.7268   21.0179 C   0  0  0  0  0  0  0  0  0  0  0  0
    7.7372  -14.8440   20.2647 C   0  0  0  0  0  0  0  0  0  0  0  0
    7.4996  -16.2124   20.7959 C   0  0  2  0  0  0  0  0  0  0  0  0
    6.0889  -16.5356   20.7809 N   0  0  0  0  0  0  0  0  0  0  0  0
    8.1316  -16.5089   22.0971 C   0  0  0  0  0  0  0  0  0  0  0  0
    7.4119  -16.6099   23.1236 O   0  0  0  0  0  0  0  0  0  0  0  0
    9.5306  -16.6889   22.2625 N   0  0  0  0  0  0  0  0  0  0  0  0
   10.1707  -16.9911   23.5085 C   0  0  1  0  0  0  0  0  0  0  0  0
   11.5160  -17.6172   23.3941 C   0  0  0  0  0  0  0  0  0  0  0  0
   11.4354  -18.8542   22.5969 C   0  0  0  0  0  0  0  0  0  0  0  0
   10.5008  -19.6574   22.8075 O   0  0  0  0  0  0  0  0  0  0  0  0
   10.1941  -15.7939   24.4194 C   0  0  0  0  0  0  0  0  0  0  0  0
   10.9727  -14.8653   24.1128 O   0  0  0  0  0  0  0  0  0  0  0  0
   12.3596  -19.1724   21.6121 O   0  0  0  0  0  0  0  0  0  0  0  0
    6.4627  -12.7662   25.7348 C   0  0  0  0  0  0  0  0  0  0  0  0
    7.7709  -13.4888   25.5456 C   0  0  0  0  0  0  0  0  0  0  0  0
    8.4085  -13.8914   26.8569 C   0  0  2  0  0  0  0  0  0  0  0  0
    8.5738  -12.7212   27.7536 C   0  0  0  0  0  0  0  0  0  0  0  0
    9.6251  -14.7246   26.6367 C   0  0  2  0  0  0  0  0  0  0  0  0
    9.4010  -15.6793   25.5663 N   0  0  0  0  0  0  0  0  0  0  0  0
   10.1316  -15.3821   27.8580 C   0  0  0  0  0  0  0  0  0  0  0  0
   10.6130  -14.6309   28.7618 O   0  0  0  0  0  0  0  0  0  0  0  0
   10.1303  -16.7201   28.1051 O   0  0  0  0  0  0  0  0  0  0  0  0
  2  3  1  0
  2  1  1  0
  4  5  1  0
  4  3  1  0
  5  7  1  0
  5  6  1  1
  7  8  2  0
  9 10  1  0
  9  7  1  0
 10 11  1  6
 12 11  1  0
 13 12  2  0
 14 10  1  0
 14 15  2  0
 16 12  1  0
 18 17  1  0
 19 18  1  0
 19 20  1  6
 21 22  1  6
 21 19  1  0
 22 14  1  0
 23 21  1  0
 24 23  2  0
 25 23  1  0
M  END
$$$$
