MDI.pdb
     RDKit          3D

 25 24  0  0  1  0  0  0  0  0999 V2000
    7.1993  -11.9811   25.0836 C   0  0  0  0  0  0  0  0  0  0  0  0
    6.1870  -13.0943   26.1019 S   0  0  0  0  0  0  0  0  0  0  0  0
    6.5232  -14.8403   25.6440 C   0  0  0  0  0  0  0  0  0  0  0  0
    6.1650  -14.9851   24.2061 C   0  0  0  0  0  0  0  0  0  0  0  0
    6.7692  -16.1409   23.4917 C   0  0  2  0  0  0  0  0  0  0  0  0
    6.3516  -17.3926   24.0865 N   0  0  0  0  0  0  0  0  0  0  0  0
    8.2305  -16.0723   23.2914 C   0  0  0  0  0  0  0  0  0  0  0  0
    8.7232  -15.0935   22.6739 O   0  0  0  0  0  0  0  0  0  0  0  0
    9.1305  -17.0651   23.7619 N   0  0  0  0  0  0  0  0  0  0  0  0
   10.5586  -16.9637   23.7011 C   0  0  1  0  0  0  0  0  0  0  0  0
   11.0870  -16.1094   22.6029 C   0  0  0  0  0  0  0  0  0  0  0  0
   12.1914  -16.7967   21.9101 C   0  0  0  0  0  0  0  0  0  0  0  0
   11.9919  -17.9255   21.4112 O   0  0  0  0  0  0  0  0  0  0  0  0
   11.1395  -16.5734   25.0330 C   0  0  0  0  0  0  0  0  0  0  0  0
   12.3542  -16.2793   25.0557 O   0  0  0  0  0  0  0  0  0  0  0  0
   13.4572  -16.2424   21.7846 O   0  0  0  0  0  0  0  0  0  0  0  0
    8.6965  -13.0880   27.6639 C   0  0  0  0  0  0  0  0  0  0  0  0
    9.5877  -14.1539   27.0816 C   0  0  0  0  0  0  0  0  0  0  0  0
   10.1590  -15.0753   28.1364 C   0  0  2  0  0  0  0  0  0  0  0  0
   10.8518  -14.3074   29.2000 C   0  0  0  0  0  0  0  0  0  0  0  0
   10.9356  -16.1898   27.5220 C   0  0  2  0  0  0  0  0  0  0  0  0
   10.3959  -16.5272   26.2172 N   0  0  0  0  0  0  0  0  0  0  0  0
   11.0621  -17.3810   28.3854 C   0  0  0  0  0  0  0  0  0  0  0  0
   10.2428  -18.3304   28.1843 O   0  0  0  0  0  0  0  0  0  0  0  0
   11.9763  -17.5559   29.3778 O   0  0  0  0  0  0  0  0  0  0  0  0
  2  3  1  0
  2  1  1  0
  4  5  1  0
  4  3  1  0
  5  7  1  0
  5  6  1  1
  7  8  2  0
  9 10  1  0
  9  7  1  0
 10 11  1  6
 12 11  1  0
 13 12  2  0
 14 10  1  0
 14 15  2  0
 16 12  1  0
 18 17  1  0
 19 18  1  0
 19 20  1  1
 21 22  1  6
 21 19  1  0
 22 14  1  0
 23 21  1  0
 24 23  2  0
 25 23  1  0
M  END
$$$$
