MDI.pdb
     RDKit          3D

 25 24  0  0  1  0  0  0  0  0999 V2000
    8.1536  -11.5352   20.6656 C   0  0  0  0  0  0  0  0  0  0  0  0
    8.1276  -12.3122   19.0234 S   0  0  0  0  0  0  0  0  0  0  0  0
    7.7052  -14.0922   19.1798 C   0  0  0  0  0  0  0  0  0  0  0  0
    8.2240  -14.5435   20.5005 C   0  0  0  0  0  0  0  0  0  0  0  0
    8.0067  -15.9755   20.8371 C   0  0  2  0  0  0  0  0  0  0  0  0
    6.6453  -16.3740   20.5493 N   0  0  0  0  0  0  0  0  0  0  0  0
    8.4398  -16.3848   22.1882 C   0  0  0  0  0  0  0  0  0  0  0  0
    7.5817  -16.5113   23.0991 O   0  0  0  0  0  0  0  0  0  0  0  0
    9.7934  -16.6478   22.5279 N   0  0  0  0  0  0  0  0  0  0  0  0
   10.2354  -17.1141   23.8088 C   0  0  1  0  0  0  0  0  0  0  0  0
   11.4657  -17.9514   23.7881 C   0  0  0  0  0  0  0  0  0  0  0  0
   11.4095  -18.9108   22.6709 C   0  0  0  0  0  0  0  0  0  0  0  0
   10.5918  -19.8554   22.7166 O   0  0  0  0  0  0  0  0  0  0  0  0
   10.3526  -15.9840   24.7950 C   0  0  0  0  0  0  0  0  0  0  0  0
   11.3241  -15.2099   24.6551 O   0  0  0  0  0  0  0  0  0  0  0  0
   12.2318  -18.8133   21.5575 O   0  0  0  0  0  0  0  0  0  0  0  0
    6.3781  -12.9777   26.1032 C   0  0  0  0  0  0  0  0  0  0  0  0
    7.6875  -13.6881   25.8790 C   0  0  0  0  0  0  0  0  0  0  0  0
    8.3781  -14.0581   27.1729 C   0  0  2  0  0  0  0  0  0  0  0  0
    8.5003  -12.8828   28.0699 C   0  0  0  0  0  0  0  0  0  0  0  0
    9.6331  -14.8223   26.9202 C   0  0  2  0  0  0  0  0  0  0  0  0
    9.4429  -15.7687   25.8359 N   0  0  0  0  0  0  0  0  0  0  0  0
   10.1919  -15.4734   28.1219 C   0  0  0  0  0  0  0  0  0  0  0  0
    9.9155  -16.7007   28.2958 O   0  0  0  0  0  0  0  0  0  0  0  0
   10.9769  -14.8795   29.0613 O   0  0  0  0  0  0  0  0  0  0  0  0
  2  3  1  0
  2  1  1  0
  4  5  1  0
  4  3  1  0
  5  7  1  0
  5  6  1  1
  7  8  2  0
  9 10  1  0
  9  7  1  0
 10 11  1  6
 12 11  1  0
 13 12  2  0
 14 10  1  0
 14 15  2  0
 16 12  1  0
 18 17  1  0
 19 18  1  0
 19 20  1  6
 21 22  1  6
 21 19  1  0
 22 14  1  0
 23 21  1  0
 24 23  2  0
 25 23  1  0
M  END
$$$$
