MDI.pdb
     RDKit          3D

 25 24  0  0  1  0  0  0  0  0999 V2000
    8.9609  -11.9016   19.3658 C   0  0  0  0  0  0  0  0  0  0  0  0
    7.5100  -12.2819   18.3406 S   0  0  0  0  0  0  0  0  0  0  0  0
    7.3905  -14.0944   18.0728 C   0  0  0  0  0  0  0  0  0  0  0  0
    7.3429  -14.7267   19.4200 C   0  0  0  0  0  0  0  0  0  0  0  0
    8.6537  -15.0816   20.0257 C   0  0  2  0  0  0  0  0  0  0  0  0
    9.4537  -15.8632   19.1070 N   0  0  0  0  0  0  0  0  0  0  0  0
    8.5904  -15.6855   21.3717 C   0  0  0  0  0  0  0  0  0  0  0  0
    7.6358  -15.3907   22.1358 O   0  0  0  0  0  0  0  0  0  0  0  0
    9.5623  -16.5956   21.8656 N   0  0  0  0  0  0  0  0  0  0  0  0
    9.5716  -17.1358   23.1929 C   0  0  1  0  0  0  0  0  0  0  0  0
   10.5675  -18.2161   23.4302 C   0  0  0  0  0  0  0  0  0  0  0  0
   10.5443  -19.1828   22.3180 C   0  0  0  0  0  0  0  0  0  0  0  0
    9.5347  -19.9016   22.1537 O   0  0  0  0  0  0  0  0  0  0  0  0
    9.6777  -16.0492   24.2281 C   0  0  0  0  0  0  0  0  0  0  0  0
   10.6666  -15.2886   24.1500 O   0  0  0  0  0  0  0  0  0  0  0  0
   11.6035  -19.3339   21.4346 O   0  0  0  0  0  0  0  0  0  0  0  0
    6.8123  -11.6732   26.9868 C   0  0  0  0  0  0  0  0  0  0  0  0
    7.8589  -12.7422   27.1641 C   0  0  0  0  0  0  0  0  0  0  0  0
    7.7208  -13.8644   26.1593 C   0  0  2  0  0  0  0  0  0  0  0  0
    6.3494  -14.4303   26.1735 C   0  0  0  0  0  0  0  0  0  0  0  0
    8.8356  -14.8465   26.2843 C   0  0  2  0  0  0  0  0  0  0  0  0
    8.7398  -15.8593   25.2486 N   0  0  0  0  0  0  0  0  0  0  0  0
    8.9582  -15.4481   27.6271 C   0  0  0  0  0  0  0  0  0  0  0  0
    9.2913  -14.6755   28.5785 O   0  0  0  0  0  0  0  0  0  0  0  0
    8.7468  -16.7553   27.9402 O   0  0  0  0  0  0  0  0  0  0  0  0
  2  3  1  0
  2  1  1  0
  4  5  1  0
  4  3  1  0
  5  7  1  0
  5  6  1  6
  7  8  2  0
  9 10  1  0
  9  7  1  0
 10 11  1  6
 12 11  1  0
 13 12  2  0
 14 10  1  0
 14 15  2  0
 16 12  1  0
 18 17  1  0
 19 18  1  0
 19 20  1  1
 21 22  1  6
 21 19  1  0
 22 14  1  0
 23 21  1  0
 24 23  2  0
 25 23  1  0
M  END
$$$$
