MDI.pdb
     RDKit          3D

 25 24  0  0  1  0  0  0  0  0999 V2000
    5.6618  -11.6437   26.7079 C   0  0  0  0  0  0  0  0  0  0  0  0
    6.5040  -11.6926   25.0988 S   0  0  0  0  0  0  0  0  0  0  0  0
    6.1642  -13.2917   24.2629 C   0  0  0  0  0  0  0  0  0  0  0  0
    7.2711  -14.2156   24.6344 C   0  0  0  0  0  0  0  0  0  0  0  0
    7.2213  -15.5753   24.0344 C   0  0  2  0  0  0  0  0  0  0  0  0
    5.9904  -16.2510   24.3855 N   0  0  0  0  0  0  0  0  0  0  0  0
    8.4119  -16.4174   24.2659 C   0  0  0  0  0  0  0  0  0  0  0  0
    8.4754  -17.1237   25.3048 O   0  0  0  0  0  0  0  0  0  0  0  0
    9.5117  -16.4779   23.3694 N   0  0  0  0  0  0  0  0  0  0  0  0
   10.7625  -17.1152   23.6572 C   0  0  1  0  0  0  0  0  0  0  0  0
   11.7694  -17.0577   22.5628 C   0  0  0  0  0  0  0  0  0  0  0  0
   12.9014  -17.9515   22.8654 C   0  0  0  0  0  0  0  0  0  0  0  0
   12.6770  -19.1495   23.1436 O   0  0  0  0  0  0  0  0  0  0  0  0
   11.3369  -16.6350   24.9623 C   0  0  0  0  0  0  0  0  0  0  0  0
   12.1687  -15.7037   24.9053 O   0  0  0  0  0  0  0  0  0  0  0  0
   14.2201  -17.5200   22.8558 O   0  0  0  0  0  0  0  0  0  0  0  0
    9.1436  -14.2495   28.9659 C   0  0  0  0  0  0  0  0  0  0  0  0
    9.6426  -15.5476   28.3868 C   0  0  0  0  0  0  0  0  0  0  0  0
   11.0749  -15.4594   27.9087 C   0  0  2  0  0  0  0  0  0  0  0  0
   11.2499  -14.3458   26.9442 C   0  0  0  0  0  0  0  0  0  0  0  0
   11.5853  -16.7903   27.4718 C   0  0  2  0  0  0  0  0  0  0  0  0
   10.9879  -17.1736   26.2054 N   0  0  0  0  0  0  0  0  0  0  0  0
   11.4405  -17.8520   28.4877 C   0  0  0  0  0  0  0  0  0  0  0  0
   12.0730  -17.6987   29.5783 O   0  0  0  0  0  0  0  0  0  0  0  0
   10.6910  -18.9808   28.3636 O   0  0  0  0  0  0  0  0  0  0  0  0
  2  3  1  0
  2  1  1  0
  4  5  1  0
  4  3  1  0
  5  7  1  0
  5  6  1  1
  7  8  2  0
  9 10  1  0
  9  7  1  0
 10 11  1  6
 12 11  1  0
 13 12  2  0
 14 10  1  0
 14 15  2  0
 16 12  1  0
 18 17  1  0
 19 18  1  0
 19 20  1  6
 21 22  1  6
 21 19  1  0
 22 14  1  0
 23 21  1  0
 24 23  2  0
 25 23  1  0
M  END
$$$$
