MDI.pdb
     RDKit          3D

 25 24  0  0  1  0  0  0  0  0999 V2000
    7.0922  -11.5941   18.6002 C   0  0  0  0  0  0  0  0  0  0  0  0
    7.2623  -12.8045   17.2560 S   0  0  0  0  0  0  0  0  0  0  0  0
    7.7551  -14.4353   17.9409 C   0  0  0  0  0  0  0  0  0  0  0  0
    7.9501  -14.2464   19.4049 C   0  0  0  0  0  0  0  0  0  0  0  0
    9.1098  -14.9537   20.0098 C   0  0  2  0  0  0  0  0  0  0  0  0
    9.7269  -15.8479   19.0534 N   0  0  0  0  0  0  0  0  0  0  0  0
    8.8497  -15.6091   21.3072 C   0  0  0  0  0  0  0  0  0  0  0  0
    8.0723  -15.0611   22.1303 O   0  0  0  0  0  0  0  0  0  0  0  0
    9.4372  -16.8443   21.6896 N   0  0  0  0  0  0  0  0  0  0  0  0
    9.3131  -17.4372   22.9883 C   0  0  1  0  0  0  0  0  0  0  0  0
   10.0709  -18.7035   23.1815 C   0  0  0  0  0  0  0  0  0  0  0  0
    9.7896  -19.2665   24.5142 C   0  0  0  0  0  0  0  0  0  0  0  0
   10.6769  -19.2276   25.3940 O   0  0  0  0  0  0  0  0  0  0  0  0
    9.6112  -16.4431   24.0775 C   0  0  0  0  0  0  0  0  0  0  0  0
   10.7570  -15.9435   24.0888 O   0  0  0  0  0  0  0  0  0  0  0  0
    8.5713  -19.8445   24.8413 O   0  0  0  0  0  0  0  0  0  0  0  0
    6.9304  -11.9792   27.1329 C   0  0  0  0  0  0  0  0  0  0  0  0
    7.9823  -13.0555   27.2010 C   0  0  0  0  0  0  0  0  0  0  0  0
    7.7153  -14.1922   26.2394 C   0  0  2  0  0  0  0  0  0  0  0  0
    6.4505  -14.8913   26.5746 C   0  0  0  0  0  0  0  0  0  0  0  0
    8.9178  -15.0578   26.0735 C   0  0  2  0  0  0  0  0  0  0  0  0
    8.6833  -16.0640   25.0536 N   0  0  0  0  0  0  0  0  0  0  0  0
    9.4037  -15.6584   27.3319 C   0  0  0  0  0  0  0  0  0  0  0  0
    9.8715  -14.8664   28.2076 O   0  0  0  0  0  0  0  0  0  0  0  0
    9.3965  -16.9835   27.6406 O   0  0  0  0  0  0  0  0  0  0  0  0
  2  3  1  0
  2  1  1  0
  4  5  1  0
  4  3  1  0
  5  7  1  0
  5  6  1  6
  7  8  2  0
  9 10  1  0
  9  7  1  0
 10 11  1  6
 12 11  1  0
 13 12  2  0
 14 10  1  0
 14 15  2  0
 16 12  1  0
 18 17  1  0
 19 18  1  0
 19 20  1  1
 21 22  1  6
 21 19  1  0
 22 14  1  0
 23 21  1  0
 24 23  2  0
 25 23  1  0
M  END
$$$$
