MDI.pdb
     RDKit          3D

 25 24  0  0  1  0  0  0  0  0999 V2000
    8.3015  -11.4594   20.3118 C   0  0  0  0  0  0  0  0  0  0  0  0
    8.0783  -12.8996   19.2269 S   0  0  0  0  0  0  0  0  0  0  0  0
    6.8585  -14.0565   19.9654 C   0  0  0  0  0  0  0  0  0  0  0  0
    7.4595  -14.5675   21.2282 C   0  0  0  0  0  0  0  0  0  0  0  0
    7.8218  -16.0096   21.2467 C   0  0  2  0  0  0  0  0  0  0  0  0
    6.6958  -16.8311   20.8565 N   0  0  0  0  0  0  0  0  0  0  0  0
    8.4656  -16.4885   22.4863 C   0  0  0  0  0  0  0  0  0  0  0  0
    7.7518  -16.9483   23.4142 O   0  0  0  0  0  0  0  0  0  0  0  0
    9.8696  -16.4591   22.6984 N   0  0  0  0  0  0  0  0  0  0  0  0
   10.5230  -16.9200   23.8876 C   0  0  1  0  0  0  0  0  0  0  0  0
   11.8751  -17.5065   23.6807 C   0  0  0  0  0  0  0  0  0  0  0  0
   11.8114  -18.5944   22.6886 C   0  0  0  0  0  0  0  0  0  0  0  0
   12.1738  -18.3718   21.5130 O   0  0  0  0  0  0  0  0  0  0  0  0
   10.5385  -15.8581   24.9534 C   0  0  0  0  0  0  0  0  0  0  0  0
   11.4906  -15.0484   24.9309 O   0  0  0  0  0  0  0  0  0  0  0  0
   11.3624  -19.8692   23.0024 O   0  0  0  0  0  0  0  0  0  0  0  0
    6.3050  -13.2517   26.3777 C   0  0  0  0  0  0  0  0  0  0  0  0
    7.6674  -13.8447   26.1298 C   0  0  0  0  0  0  0  0  0  0  0  0
    8.3802  -14.2211   27.4097 C   0  0  2  0  0  0  0  0  0  0  0  0
    8.4472  -13.0704   28.3437 C   0  0  0  0  0  0  0  0  0  0  0  0
    9.6707  -14.9134   27.1301 C   0  0  2  0  0  0  0  0  0  0  0  0
    9.5568  -15.7419   25.9434 N   0  0  0  0  0  0  0  0  0  0  0  0
   10.2054  -15.6734   28.2776 C   0  0  0  0  0  0  0  0  0  0  0  0
   11.1043  -15.1100   28.9758 O   0  0  0  0  0  0  0  0  0  0  0  0
    9.8235  -16.9231   28.6570 O   0  0  0  0  0  0  0  0  0  0  0  0
  2  3  1  0
  2  1  1  0
  4  5  1  0
  4  3  1  0
  5  7  1  0
  5  6  1  1
  7  8  2  0
  9 10  1  0
  9  7  1  0
 10 11  1  6
 12 11  1  0
 13 12  2  0
 14 10  1  0
 14 15  2  0
 16 12  1  0
 18 17  1  0
 19 18  1  0
 19 20  1  6
 21 22  1  6
 21 19  1  0
 22 14  1  0
 23 21  1  0
 24 23  2  0
 25 23  1  0
M  END
$$$$
