ALS.pdb
     RDKit          3D

 20 19  0  0  1  0  0  0  0  0999 V2000
   19.0246  -10.7230  -19.6400 C   0  0  0  0  0  0  0  0  0  0  0  0
   20.5308  -10.9837  -19.6652 C   0  0  2  0  0  0  0  0  0  0  0  0
   20.7035  -12.4101  -19.8062 N   0  0  0  0  0  0  0  0  0  0  0  0
   21.1426  -10.5367  -18.4118 C   0  0  0  0  0  0  0  0  0  0  0  0
   20.4439  -10.6359  -17.3440 O   0  0  0  0  0  0  0  0  0  0  0  0
   24.3143  -10.3857  -14.2748 C   0  0  0  0  0  0  0  0  0  0  0  0
   24.9873   -9.7491  -15.4660 C   0  0  1  0  0  0  0  0  0  0  0  0
   26.4282  -10.2829  -15.4712 C   0  0  0  0  0  0  0  0  0  0  0  0
   24.3737  -10.1532  -16.7455 C   0  0  0  0  0  0  0  0  0  0  0  0
   23.0088   -9.6837  -17.0590 C   0  0  2  0  0  0  0  0  0  0  0  0
   22.4594  -10.0040  -18.3220 N   0  0  0  0  0  0  0  0  0  0  0  0
   23.0315   -8.1779  -16.9117 C   0  0  0  0  0  0  0  0  0  0  0  0
   23.7076   -7.5131  -17.7313 O   0  0  0  0  0  0  0  0  0  0  0  0
   19.9832   -6.1378  -15.4500 O   0  0  0  0  0  0  0  0  0  0  0  0
   20.9840   -5.4627  -16.1487 C   0  0  0  0  0  0  0  0  0  0  0  0
   22.3093   -6.0668  -15.7454 C   0  0  2  0  0  0  0  0  0  0  0  0
   22.3213   -7.5007  -15.8885 N   0  0  0  0  0  0  0  0  0  0  0  0
   22.6457   -5.6355  -14.3737 C   0  0  0  0  0  0  0  0  0  0  0  0
   22.6974   -6.4977  -13.2908 O   0  0  0  0  0  0  0  0  0  0  0  0
   22.8984   -4.4245  -14.1773 O   0  0  0  0  0  0  0  0  0  0  0  0
  2  1  1  1
  2  4  1  0
  3  2  1  0
  4  5  2  0
  7  6  1  1
  7  9  1  0
  8  7  1  0
 10  9  1  6
 10 12  1  0
 11 10  1  0
 11  4  1  0
 12 13  2  0
 15 14  1  0
 16 15  1  1
 16 18  1  0
 17 16  1  0
 17 12  1  0
 18 20  2  0
 18 19  1  0
M  END
$$$$
