ALS.pdb
     RDKit          3D

 20 19  0  0  1  0  0  0  0  0999 V2000
   33.7794  -23.4297  -20.8232 C   0  0  0  0  0  0  0  0  0  0  0  0
   34.6391  -23.6236  -19.5741 C   0  0  2  0  0  0  0  0  0  0  0  0
   35.9353  -24.0702  -20.0268 N   0  0  0  0  0  0  0  0  0  0  0  0
   34.0454  -24.6416  -18.7044 C   0  0  0  0  0  0  0  0  0  0  0  0
   34.1315  -25.8627  -19.0785 O   0  0  0  0  0  0  0  0  0  0  0  0
   33.8981  -24.3646  -13.0634 C   0  0  0  0  0  0  0  0  0  0  0  0
   34.1403  -24.8380  -14.4756 C   0  0  1  0  0  0  0  0  0  0  0  0
   34.9380  -26.1453  -14.3509 C   0  0  0  0  0  0  0  0  0  0  0  0
   32.8887  -25.1632  -15.1859 C   0  0  0  0  0  0  0  0  0  0  0  0
   32.9383  -25.3955  -16.6437 C   0  0  2  0  0  0  0  0  0  0  0  0
   33.3855  -24.3454  -17.4787 N   0  0  0  0  0  0  0  0  0  0  0  0
   31.5358  -25.7793  -17.0623 C   0  0  0  0  0  0  0  0  0  0  0  0
   30.7732  -24.8751  -17.4765 O   0  0  0  0  0  0  0  0  0  0  0  0
   30.5639  -29.5280  -18.2309 O   0  0  0  0  0  0  0  0  0  0  0  0
   29.5547  -29.0017  -17.4247 C   0  0  0  0  0  0  0  0  0  0  0  0
   29.7292  -27.5007  -17.3965 C   0  0  2  0  0  0  0  0  0  0  0  0
   31.0601  -27.1135  -17.0023 N   0  0  0  0  0  0  0  0  0  0  0  0
   28.6906  -26.9041  -16.5327 C   0  0  0  0  0  0  0  0  0  0  0  0
   27.3393  -26.9214  -16.8364 O   0  0  0  0  0  0  0  0  0  0  0  0
   29.0496  -26.3522  -15.4672 O   0  0  0  0  0  0  0  0  0  0  0  0
  2  1  1  6
  2  4  1  0
  3  2  1  0
  4  5  2  0
  7  6  1  1
  7  9  1  0
  8  7  1  0
 10  9  1  1
 10 12  1  0
 11 10  1  0
 11  4  1  0
 12 13  2  0
 15 14  1  0
 16 15  1  1
 16 18  1  0
 17 16  1  0
 17 12  1  0
 18 20  2  0
 18 19  1  0
M  END
$$$$
