ALS.pdb
     RDKit          3D

 20 19  0  0  1  0  0  0  0  0999 V2000
   20.7270   -8.6253  -20.7796 C   0  0  0  0  0  0  0  0  0  0  0  0
   21.4028   -9.5386  -19.7568 C   0  0  2  0  0  0  0  0  0  0  0  0
   20.8449  -10.8570  -19.9441 N   0  0  0  0  0  0  0  0  0  0  0  0
   21.1182   -9.0738  -18.3974 C   0  0  0  0  0  0  0  0  0  0  0  0
   19.9165   -9.1892  -17.9721 O   0  0  0  0  0  0  0  0  0  0  0  0
   23.6662  -10.8328  -14.1092 C   0  0  0  0  0  0  0  0  0  0  0  0
   22.5535  -10.3140  -14.9866 C   0  0  1  0  0  0  0  0  0  0  0  0
   21.2453  -10.6777  -14.2674 C   0  0  0  0  0  0  0  0  0  0  0  0
   22.5772   -8.8449  -15.1211 C   0  0  0  0  0  0  0  0  0  0  0  0
   21.7750   -8.2159  -16.1899 C   0  0  2  0  0  0  0  0  0  0  0  0
   22.0986   -8.5068  -17.5354 N   0  0  0  0  0  0  0  0  0  0  0  0
   21.8837   -6.7211  -15.9810 C   0  0  0  0  0  0  0  0  0  0  0  0
   22.8936   -6.1322  -16.4325 O   0  0  0  0  0  0  0  0  0  0  0  0
   19.8631   -2.5774  -14.5070 O   0  0  0  0  0  0  0  0  0  0  0  0
   19.6948   -3.9606  -14.5703 C   0  0  0  0  0  0  0  0  0  0  0  0
   20.9999   -4.5580  -15.0438 C   0  0  2  0  0  0  0  0  0  0  0  0
   20.8919   -5.9722  -15.2988 N   0  0  0  0  0  0  0  0  0  0  0  0
   22.0639   -4.2415  -14.0700 C   0  0  0  0  0  0  0  0  0  0  0  0
   22.8442   -3.0987  -14.1327 O   0  0  0  0  0  0  0  0  0  0  0  0
   22.2735   -5.0494  -13.1360 O   0  0  0  0  0  0  0  0  0  0  0  0
  2  1  1  6
  2  4  1  0
  3  2  1  0
  4  5  2  0
  7  6  1  1
  7  9  1  0
  8  7  1  0
 10  9  1  1
 10 12  1  0
 11 10  1  0
 11  4  1  0
 12 13  2  0
 15 14  1  0
 16 15  1  1
 16 18  1  0
 17 16  1  0
 17 12  1  0
 18 20  2  0
 18 19  1  0
M  END
$$$$
