ALS.pdb
     RDKit          3D

 20 19  0  0  1  0  0  0  0  0999 V2000
   16.7372  -10.9475  -17.8292 C   0  0  0  0  0  0  0  0  0  0  0  0
   17.7530   -9.8682  -18.2038 C   0  0  2  0  0  0  0  0  0  0  0  0
   18.5158  -10.3833  -19.3161 N   0  0  0  0  0  0  0  0  0  0  0  0
   18.6484   -9.6028  -17.0755 C   0  0  0  0  0  0  0  0  0  0  0  0
   18.1122   -9.3625  -15.9384 O   0  0  0  0  0  0  0  0  0  0  0  0
   22.0562  -10.6529  -13.5845 C   0  0  0  0  0  0  0  0  0  0  0  0
   22.8331   -9.8381  -14.5893 C   0  0  1  0  0  0  0  0  0  0  0  0
   24.1900  -10.5422  -14.7440 C   0  0  0  0  0  0  0  0  0  0  0  0
   22.1987   -9.8279  -15.9213 C   0  0  0  0  0  0  0  0  0  0  0  0
   20.8571   -9.2270  -16.0652 C   0  0  2  0  0  0  0  0  0  0  0  0
   20.0680   -9.5987  -17.1782 N   0  0  0  0  0  0  0  0  0  0  0  0
   21.0628   -7.7282  -16.1000 C   0  0  0  0  0  0  0  0  0  0  0  0
   21.5529   -7.2218  -17.1364 O   0  0  0  0  0  0  0  0  0  0  0  0
   18.6188   -5.1139  -15.3987 O   0  0  0  0  0  0  0  0  0  0  0  0
   19.6713   -4.7153  -14.5747 C   0  0  0  0  0  0  0  0  0  0  0  0
   20.9090   -5.4573  -15.0240 C   0  0  2  0  0  0  0  0  0  0  0  0
   20.7232   -6.8863  -15.0111 N   0  0  0  0  0  0  0  0  0  0  0  0
   22.0593   -5.0320  -14.2015 C   0  0  0  0  0  0  0  0  0  0  0  0
   22.5665   -3.7430  -14.2024 O   0  0  0  0  0  0  0  0  0  0  0  0
   22.6072   -5.8819  -13.4623 O   0  0  0  0  0  0  0  0  0  0  0  0
  2  1  1  1
  2  4  1  0
  3  2  1  0
  4  5  2  0
  7  6  1  1
  7  9  1  0
  8  7  1  0
 10  9  1  6
 10 12  1  0
 11 10  1  0
 11  4  1  0
 12 13  2  0
 15 14  1  0
 16 15  1  1
 16 18  1  0
 17 16  1  0
 17 12  1  0
 18 20  2  0
 18 19  1  0
M  END
$$$$
