ALS.pdb
     RDKit          3D

 20 19  0  0  1  0  0  0  0  0999 V2000
   17.5390   -9.4359  -19.0114 C   0  0  0  0  0  0  0  0  0  0  0  0
   18.6169  -10.3407  -18.4143 C   0  0  2  0  0  0  0  0  0  0  0  0
   17.9582  -11.5591  -18.0070 N   0  0  0  0  0  0  0  0  0  0  0  0
   19.2270   -9.6988  -17.2477 C   0  0  0  0  0  0  0  0  0  0  0  0
   18.4745   -9.4685  -16.2382 O   0  0  0  0  0  0  0  0  0  0  0  0
   24.3051  -10.8091  -15.1573 C   0  0  0  0  0  0  0  0  0  0  0  0
   22.8399  -10.5862  -15.4411 C   0  0  1  0  0  0  0  0  0  0  0  0
   22.0884  -11.0916  -14.1999 C   0  0  0  0  0  0  0  0  0  0  0  0
   22.5044   -9.1578  -15.5959 C   0  0  0  0  0  0  0  0  0  0  0  0
   21.1275   -8.7888  -15.9828 C   0  0  2  0  0  0  0  0  0  0  0  0
   20.5980   -9.3226  -17.1804 N   0  0  0  0  0  0  0  0  0  0  0  0
   21.1010   -7.2787  -16.0759 C   0  0  0  0  0  0  0  0  0  0  0  0
   21.3940   -6.7479  -17.1728 O   0  0  0  0  0  0  0  0  0  0  0  0
   18.3714   -4.9469  -15.0469 O   0  0  0  0  0  0  0  0  0  0  0  0
   19.4866   -4.4450  -14.3761 C   0  0  0  0  0  0  0  0  0  0  0  0
   20.7163   -5.0138  -15.0458 C   0  0  2  0  0  0  0  0  0  0  0  0
   20.7595   -6.4526  -14.9755 N   0  0  0  0  0  0  0  0  0  0  0  0
   21.9217   -4.3859  -14.4686 C   0  0  0  0  0  0  0  0  0  0  0  0
   22.2043   -3.0337  -14.5707 O   0  0  0  0  0  0  0  0  0  0  0  0
   22.7337   -5.1142  -13.8528 O   0  0  0  0  0  0  0  0  0  0  0  0
  2  1  1  1
  2  4  1  0
  3  2  1  0
  4  5  2  0
  7  6  1  1
  7  9  1  0
  8  7  1  0
 10  9  1  6
 10 12  1  0
 11 10  1  0
 11  4  1  0
 12 13  2  0
 15 14  1  0
 16 15  1  1
 16 18  1  0
 17 16  1  0
 17 12  1  0
 18 20  2  0
 18 19  1  0
M  END
$$$$
