ALS.pdb
     RDKit          3D

 20 19  0  0  1  0  0  0  0  0999 V2000
   17.0454   -9.2536  -17.9974 C   0  0  0  0  0  0  0  0  0  0  0  0
   18.1679  -10.2914  -18.0038 C   0  0  2  0  0  0  0  0  0  0  0  0
   17.5637  -11.5595  -17.6702 N   0  0  0  0  0  0  0  0  0  0  0  0
   19.1783   -9.9499  -17.0000 C   0  0  0  0  0  0  0  0  0  0  0  0
   18.7992   -9.8781  -15.7796 O   0  0  0  0  0  0  0  0  0  0  0  0
   23.2387   -9.9776  -13.8099 C   0  0  0  0  0  0  0  0  0  0  0  0
   23.7147   -9.5508  -15.1767 C   0  0  1  0  0  0  0  0  0  0  0  0
   25.0233  -10.3168  -15.4255 C   0  0  0  0  0  0  0  0  0  0  0  0
   22.7781   -9.9386  -16.2487 C   0  0  0  0  0  0  0  0  0  0  0  0
   21.4417   -9.3107  -16.2867 C   0  0  2  0  0  0  0  0  0  0  0  0
   20.5443   -9.6969  -17.3091 N   0  0  0  0  0  0  0  0  0  0  0  0
   21.6742   -7.8189  -16.3885 C   0  0  0  0  0  0  0  0  0  0  0  0
   22.3203   -7.3862  -17.3714 O   0  0  0  0  0  0  0  0  0  0  0  0
   19.2286   -5.2602  -16.1850 O   0  0  0  0  0  0  0  0  0  0  0  0
   20.1835   -4.6697  -15.3573 C   0  0  0  0  0  0  0  0  0  0  0  0
   21.4501   -5.4870  -15.4664 C   0  0  2  0  0  0  0  0  0  0  0  0
   21.1909   -6.9038  -15.4196 N   0  0  0  0  0  0  0  0  0  0  0  0
   22.4021   -5.0545  -14.4237 C   0  0  0  0  0  0  0  0  0  0  0  0
   22.8746   -5.8891  -13.4243 O   0  0  0  0  0  0  0  0  0  0  0  0
   22.8051   -3.8687  -14.4426 O   0  0  0  0  0  0  0  0  0  0  0  0
  2  1  1  1
  2  4  1  0
  3  2  1  0
  4  5  2  0
  7  6  1  1
  7  9  1  0
  8  7  1  0
 10  9  1  6
 10 12  1  0
 11 10  1  0
 11  4  1  0
 12 13  2  0
 15 14  1  0
 16 15  1  1
 16 18  1  0
 17 16  1  0
 17 12  1  0
 18 20  2  0
 18 19  1  0
M  END
$$$$
