ALS.pdb
     RDKit          3D

 20 19  0  0  1  0  0  0  0  0999 V2000
   18.2449   -8.4096  -19.5254 C   0  0  0  0  0  0  0  0  0  0  0  0
   18.9829   -9.5879  -18.8898 C   0  0  2  0  0  0  0  0  0  0  0  0
   17.9985  -10.6179  -18.6564 N   0  0  0  0  0  0  0  0  0  0  0  0
   19.5806   -9.1825  -17.6156 C   0  0  0  0  0  0  0  0  0  0  0  0
   18.7893   -8.7917  -16.6886 O   0  0  0  0  0  0  0  0  0  0  0  0
   24.0582  -11.4571  -14.9932 C   0  0  0  0  0  0  0  0  0  0  0  0
   22.7007  -10.9271  -15.3845 C   0  0  1  0  0  0  0  0  0  0  0  0
   21.7757  -11.2161  -14.1921 C   0  0  0  0  0  0  0  0  0  0  0  0
   22.7003   -9.4654  -15.5856 C   0  0  0  0  0  0  0  0  0  0  0  0
   21.4725   -8.8175  -16.0898 C   0  0  2  0  0  0  0  0  0  0  0  0
   20.9804   -9.2010  -17.3589 N   0  0  0  0  0  0  0  0  0  0  0  0
   21.7531   -7.3307  -16.1115 C   0  0  0  0  0  0  0  0  0  0  0  0
   22.4607   -6.8753  -17.0402 O   0  0  0  0  0  0  0  0  0  0  0  0
   19.2940   -4.6090  -14.4816 O   0  0  0  0  0  0  0  0  0  0  0  0
   20.2680   -4.2139  -15.3985 C   0  0  0  0  0  0  0  0  0  0  0  0
   21.5112   -5.0279  -15.1229 C   0  0  2  0  0  0  0  0  0  0  0  0
   21.2477   -6.4447  -15.1269 N   0  0  0  0  0  0  0  0  0  0  0  0
   22.1228   -4.5729  -13.8582 C   0  0  0  0  0  0  0  0  0  0  0  0
   22.6221   -3.2953  -13.6652 O   0  0  0  0  0  0  0  0  0  0  0  0
   22.1947   -5.3852  -12.9075 O   0  0  0  0  0  0  0  0  0  0  0  0
  2  1  1  1
  2  4  1  0
  3  2  1  0
  4  5  2  0
  7  6  1  1
  7  9  1  0
  8  7  1  0
 10  9  1  6
 10 12  1  0
 11 10  1  0
 11  4  1  0
 12 13  2  0
 15 14  1  0
 16 15  1  1
 16 18  1  0
 17 16  1  0
 17 12  1  0
 18 20  2  0
 18 19  1  0
M  END
$$$$
