ALS.pdb
     RDKit          3D

 20 19  0  0  1  0  0  0  0  0999 V2000
   17.3049   -9.1541  -19.3451 C   0  0  0  0  0  0  0  0  0  0  0  0
   18.1764  -10.2917  -18.8129 C   0  0  2  0  0  0  0  0  0  0  0  0
   17.3050  -11.4259  -18.6161 N   0  0  0  0  0  0  0  0  0  0  0  0
   18.7817   -9.9101  -17.5349 C   0  0  0  0  0  0  0  0  0  0  0  0
   18.0450   -9.9706  -16.4899 O   0  0  0  0  0  0  0  0  0  0  0  0
   21.4856   -9.7424  -13.1391 C   0  0  0  0  0  0  0  0  0  0  0  0
   22.3913   -9.4702  -14.3149 C   0  0  1  0  0  0  0  0  0  0  0  0
   23.6393  -10.3393  -14.0958 C   0  0  0  0  0  0  0  0  0  0  0  0
   21.7945   -9.8888  -15.5977 C   0  0  0  0  0  0  0  0  0  0  0  0
   20.6384   -9.1349  -16.1236 C   0  0  2  0  0  0  0  0  0  0  0  0
   20.1316   -9.4805  -17.3978 N   0  0  0  0  0  0  0  0  0  0  0  0
   21.0541   -7.6801  -16.1493 C   0  0  0  0  0  0  0  0  0  0  0  0
   21.8654   -7.3118  -17.0307 O   0  0  0  0  0  0  0  0  0  0  0  0
   18.7634   -4.7690  -15.8309 O   0  0  0  0  0  0  0  0  0  0  0  0
   19.7881   -4.4189  -14.9517 C   0  0  0  0  0  0  0  0  0  0  0  0
   20.9540   -5.3430  -15.2186 C   0  0  2  0  0  0  0  0  0  0  0  0
   20.5618   -6.7297  -15.2197 N   0  0  0  0  0  0  0  0  0  0  0  0
   22.0311   -5.0637  -14.2478 C   0  0  0  0  0  0  0  0  0  0  0  0
   22.7954   -3.9086  -14.2634 O   0  0  0  0  0  0  0  0  0  0  0  0
   22.2676   -5.9166  -13.3616 O   0  0  0  0  0  0  0  0  0  0  0  0
  2  1  1  1
  2  4  1  0
  3  2  1  0
  4  5  2  0
  7  6  1  1
  7  9  1  0
  8  7  1  0
 10  9  1  6
 10 12  1  0
 11 10  1  0
 11  4  1  0
 12 13  2  0
 15 14  1  0
 16 15  1  1
 16 18  1  0
 17 16  1  0
 17 12  1  0
 18 20  2  0
 18 19  1  0
M  END
$$$$
