ALS.pdb
     RDKit          3D

 20 19  0  0  1  0  0  0  0  0999 V2000
   27.0875  -18.8119  -16.2767 C   0  0  0  0  0  0  0  0  0  0  0  0
   27.6922  -19.6549  -15.1538 C   0  0  2  0  0  0  0  0  0  0  0  0
   28.5944  -20.5933  -15.7781 N   0  0  0  0  0  0  0  0  0  0  0  0
   26.6382  -20.3845  -14.4452 C   0  0  0  0  0  0  0  0  0  0  0  0
   26.2495  -21.4966  -14.9456 O   0  0  0  0  0  0  0  0  0  0  0  0
   25.8356  -20.2796   -8.8040 C   0  0  0  0  0  0  0  0  0  0  0  0
   26.1386  -20.6242  -10.2415 C   0  0  1  0  0  0  0  0  0  0  0  0
   26.6104  -22.0865  -10.2340 C   0  0  0  0  0  0  0  0  0  0  0  0
   24.9421  -20.5621  -11.1026 C   0  0  0  0  0  0  0  0  0  0  0  0
   25.1042  -20.7452  -12.5592 C   0  0  2  0  0  0  0  0  0  0  0  0
   26.0315  -19.9249  -13.2425 N   0  0  0  0  0  0  0  0  0  0  0  0
   23.7356  -20.5366  -13.1701 C   0  0  0  0  0  0  0  0  0  0  0  0
   23.3825  -19.3661  -13.4459 O   0  0  0  0  0  0  0  0  0  0  0  0
   21.9525  -23.1243  -15.6019 O   0  0  0  0  0  0  0  0  0  0  0  0
   21.0221  -22.7081  -14.6496 C   0  0  0  0  0  0  0  0  0  0  0  0
   21.5450  -21.4340  -14.0272 C   0  0  2  0  0  0  0  0  0  0  0  0
   22.8484  -21.6095  -13.4382 N   0  0  0  0  0  0  0  0  0  0  0  0
   20.5547  -20.9207  -13.0595 C   0  0  0  0  0  0  0  0  0  0  0  0
   19.3016  -20.4539  -13.4209 O   0  0  0  0  0  0  0  0  0  0  0  0
   20.8631  -20.9061  -11.8456 O   0  0  0  0  0  0  0  0  0  0  0  0
  2  1  1  6
  2  4  1  0
  3  2  1  0
  4  5  2  0
  7  6  1  1
  7  9  1  0
  8  7  1  0
 10  9  1  1
 10 12  1  0
 11 10  1  0
 11  4  1  0
 12 13  2  0
 15 14  1  0
 16 15  1  1
 16 18  1  0
 17 16  1  0
 17 12  1  0
 18 20  2  0
 18 19  1  0
M  END
$$$$
