ALS.pdb
     RDKit          3D

 20 19  0  0  1  0  0  0  0  0999 V2000
   21.3387   -9.7396  -20.8030 C   0  0  0  0  0  0  0  0  0  0  0  0
   22.2329  -10.6892  -20.0056 C   0  0  2  0  0  0  0  0  0  0  0  0
   21.5280  -11.9460  -19.9149 N   0  0  0  0  0  0  0  0  0  0  0  0
   22.4631  -10.1574  -18.6605 C   0  0  0  0  0  0  0  0  0  0  0  0
   21.5146  -10.2718  -17.8087 O   0  0  0  0  0  0  0  0  0  0  0  0
   27.3775  -10.2471  -15.8992 C   0  0  0  0  0  0  0  0  0  0  0  0
   25.9510  -10.4106  -16.3632 C   0  0  1  0  0  0  0  0  0  0  0  0
   25.2837  -11.3538  -15.3503 C   0  0  0  0  0  0  0  0  0  0  0  0
   25.1971   -9.1426  -16.3327 C   0  0  0  0  0  0  0  0  0  0  0  0
   23.8412   -9.1075  -16.9173 C   0  0  2  0  0  0  0  0  0  0  0  0
   23.6739   -9.5272  -18.2573 N   0  0  0  0  0  0  0  0  0  0  0  0
   23.3623   -7.6770  -16.7976 C   0  0  0  0  0  0  0  0  0  0  0  0
   23.7587   -6.8469  -17.6487 O   0  0  0  0  0  0  0  0  0  0  0  0
   20.0176   -6.6818  -14.6768 O   0  0  0  0  0  0  0  0  0  0  0  0
   20.4951   -5.8262  -15.6695 C   0  0  0  0  0  0  0  0  0  0  0  0
   22.0046   -5.8970  -15.6458 C   0  0  2  0  0  0  0  0  0  0  0  0
   22.4893   -7.2488  -15.7659 N   0  0  0  0  0  0  0  0  0  0  0  0
   22.5062   -5.2254  -14.4301 C   0  0  0  0  0  0  0  0  0  0  0  0
   22.3027   -3.8825  -14.1578 O   0  0  0  0  0  0  0  0  0  0  0  0
   23.1508   -5.9056  -13.5990 O   0  0  0  0  0  0  0  0  0  0  0  0
  2  1  1  6
  2  4  1  0
  3  2  1  0
  4  5  2  0
  7  6  1  1
  7  9  1  0
  8  7  1  0
 10  9  1  6
 10 12  1  0
 11 10  1  0
 11  4  1  0
 12 13  2  0
 15 14  1  0
 16 15  1  1
 16 18  1  0
 17 16  1  0
 17 12  1  0
 18 20  2  0
 18 19  1  0
M  END
$$$$
