ALS.pdb
     RDKit          3D

 20 19  0  0  1  0  0  0  0  0999 V2000
   20.4435  -19.7133  -12.0888 C   0  0  0  0  0  0  0  0  0  0  0  0
   21.3958  -20.8929  -11.8916 C   0  0  2  0  0  0  0  0  0  0  0  0
   20.8475  -21.6958  -10.8243 N   0  0  0  0  0  0  0  0  0  0  0  0
   22.7254  -20.4114  -11.5103 C   0  0  0  0  0  0  0  0  0  0  0  0
   23.2303  -19.4591  -12.2007 O   0  0  0  0  0  0  0  0  0  0  0  0
   26.6929  -18.7030   -8.2982 C   0  0  0  0  0  0  0  0  0  0  0  0
   26.7446  -20.1811   -8.5974 C   0  0  1  0  0  0  0  0  0  0  0  0
   27.2559  -20.8533   -7.3138 C   0  0  0  0  0  0  0  0  0  0  0  0
   25.4120  -20.7484   -8.8792 C   0  0  0  0  0  0  0  0  0  0  0  0
   24.8056  -20.5140  -10.2055 C   0  0  2  0  0  0  0  0  0  0  0  0
   23.4757  -20.9425  -10.4237 N   0  0  0  0  0  0  0  0  0  0  0  0
   25.7035  -21.1998  -11.2120 C   0  0  0  0  0  0  0  0  0  0  0  0
   25.8929  -22.4330  -11.0929 O   0  0  0  0  0  0  0  0  0  0  0  0
   26.7957  -19.3641  -14.8047 O   0  0  0  0  0  0  0  0  0  0  0  0
   26.6297  -20.7447  -14.6954 C   0  0  0  0  0  0  0  0  0  0  0  0
   27.0884  -21.1516  -13.3140 C   0  0  2  0  0  0  0  0  0  0  0  0
   26.3313  -20.5017  -12.2743 N   0  0  0  0  0  0  0  0  0  0  0  0
   28.5395  -20.9081  -13.1895 C   0  0  0  0  0  0  0  0  0  0  0  0
   29.4947  -21.5722  -13.9414 O   0  0  0  0  0  0  0  0  0  0  0  0
   28.9293  -20.0549  -12.3594 O   0  0  0  0  0  0  0  0  0  0  0  0
  2  1  1  1
  2  4  1  0
  3  2  1  0
  4  5  2  0
  7  6  1  1
  7  9  1  0
  8  7  1  0
 10  9  1  1
 10 12  1  0
 11 10  1  0
 11  4  1  0
 12 13  2  0
 15 14  1  0
 16 15  1  6
 16 18  1  0
 17 16  1  0
 17 12  1  0
 18 20  2  0
 18 19  1  0
M  END
$$$$
