AAV.pdb
     RDKit          3D

 18 17  0  0  1  0  0  0  0  0999 V2000
    5.9554  -18.6060   24.7107 C   0  0  0  0  0  0  0  0  0  0  0  0
    6.3532  -18.4316   23.2624 C   0  0  2  0  0  0  0  0  0  0  0  0
    6.8755  -19.6760   22.7836 N   0  0  0  0  0  0  0  0  0  0  0  0
    7.2828  -17.2978   23.0656 C   0  0  0  0  0  0  0  0  0  0  0  0
    8.4854  -17.4555   23.3867 O   0  0  0  0  0  0  0  0  0  0  0  0
    7.1367  -13.8407   21.4224 C   0  0  0  0  0  0  0  0  0  0  0  0
    7.7599  -14.9537   22.2198 C   0  0  2  0  0  0  0  0  0  0  0  0
    6.8886  -16.0380   22.5322 N   0  0  0  0  0  0  0  0  0  0  0  0
    8.3843  -14.3222   23.4355 C   0  0  0  0  0  0  0  0  0  0  0  0
    9.3809  -13.5897   23.2509 O   0  0  0  0  0  0  0  0  0  0  0  0
    6.0658  -13.9154   26.7631 C   0  0  0  0  0  0  0  0  0  0  0  0
    7.2780  -13.0425   26.5800 C   0  0  2  0  0  0  0  0  0  0  0  0
    6.9356  -11.8058   25.8005 C   0  0  0  0  0  0  0  0  0  0  0  0
    8.3987  -13.8390   25.9080 C   0  0  2  0  0  0  0  0  0  0  0  0
    7.8995  -14.5223   24.7314 N   0  0  0  0  0  0  0  0  0  0  0  0
    8.8163  -14.8872   26.9006 C   0  0  0  0  0  0  0  0  0  0  0  0
    8.5001  -16.0996   26.7359 O   0  0  0  0  0  0  0  0  0  0  0  0
    9.5574  -14.5607   28.0226 O   0  0  0  0  0  0  0  0  0  0  0  0
  2  1  1  1
  2  3  1  0
  4  2  1  0
  4  5  2  0
  7  6  1  1
  7  8  1  0
  8  4  1  0
  9  7  1  0
  9 15  1  0
 10  9  2  0
 12 11  1  6
 12 14  1  0
 13 12  1  0
 14 15  1  6
 14 16  1  0
 16 17  2  0
 16 18  1  0
M  END
$$$$
