AAV.pdb
     RDKit          3D

 18 17  0  0  1  0  0  0  0  0999 V2000
    8.6304  -12.5031   19.3673 C   0  0  0  0  0  0  0  0  0  0  0  0
    8.3070  -13.9802   19.3758 C   0  0  2  0  0  0  0  0  0  0  0  0
    7.3269  -14.2347   18.3634 N   0  0  0  0  0  0  0  0  0  0  0  0
    7.8974  -14.4600   20.7139 C   0  0  0  0  0  0  0  0  0  0  0  0
    6.7308  -14.2089   21.1014 O   0  0  0  0  0  0  0  0  0  0  0  0
    9.0442  -17.0412   23.2023 C   0  0  0  0  0  0  0  0  0  0  0  0
    8.3888  -15.7329   22.8531 C   0  0  2  0  0  0  0  0  0  0  0  0
    8.7534  -15.1907   21.5860 N   0  0  0  0  0  0  0  0  0  0  0  0
    8.6513  -14.7940   24.0003 C   0  0  0  0  0  0  0  0  0  0  0  0
    9.7915  -14.2855   24.0733 O   0  0  0  0  0  0  0  0  0  0  0  0
    5.8110  -12.3571   25.3100 C   0  0  0  0  0  0  0  0  0  0  0  0
    6.5386  -12.9473   26.4879 C   0  0  2  0  0  0  0  0  0  0  0  0
    6.7144  -11.9273   27.5756 C   0  0  0  0  0  0  0  0  0  0  0  0
    7.8816  -13.5254   26.0362 C   0  0  2  0  0  0  0  0  0  0  0  0
    7.6873  -14.4794   24.9627 N   0  0  0  0  0  0  0  0  0  0  0  0
    8.4298  -14.2747   27.2179 C   0  0  0  0  0  0  0  0  0  0  0  0
    8.9085  -13.6584   28.2120 O   0  0  0  0  0  0  0  0  0  0  0  0
    8.4284  -15.6580   27.2563 O   0  0  0  0  0  0  0  0  0  0  0  0
  2  1  1  1
  2  3  1  0
  4  2  1  0
  4  5  2  0
  7  6  1  1
  7  8  1  0
  8  4  1  0
  9  7  1  0
  9 15  1  0
 10  9  2  0
 12 11  1  6
 12 14  1  0
 13 12  1  0
 14 15  1  6
 14 16  1  0
 16 17  2  0
 16 18  1  0
M  END
$$$$
