AAV.pdb
     RDKit          3D

 18 17  0  0  1  0  0  0  0  0999 V2000
    8.2772  -12.3062   19.2680 C   0  0  0  0  0  0  0  0  0  0  0  0
    8.3612  -13.8159   19.2524 C   0  0  2  0  0  0  0  0  0  0  0  0
    7.6591  -14.2962   18.1005 N   0  0  0  0  0  0  0  0  0  0  0  0
    7.8854  -14.4201   20.5160 C   0  0  0  0  0  0  0  0  0  0  0  0
    6.6493  -14.5674   20.6733 O   0  0  0  0  0  0  0  0  0  0  0  0
    8.8110  -16.9284   22.8944 C   0  0  0  0  0  0  0  0  0  0  0  0
    8.3525  -15.5017   22.7633 C   0  0  2  0  0  0  0  0  0  0  0  0
    8.7519  -14.8437   21.5633 N   0  0  0  0  0  0  0  0  0  0  0  0
    8.7954  -14.7851   24.0110 C   0  0  0  0  0  0  0  0  0  0  0  0
   10.0048  -14.4781   24.0950 O   0  0  0  0  0  0  0  0  0  0  0  0
    5.8929  -13.4409   26.7558 C   0  0  0  0  0  0  0  0  0  0  0  0
    7.2232  -12.7444   26.6540 C   0  0  2  0  0  0  0  0  0  0  0  0
    7.1536  -11.5931   25.6928 C   0  0  0  0  0  0  0  0  0  0  0  0
    8.3084  -13.7466   26.2540 C   0  0  2  0  0  0  0  0  0  0  0  0
    7.9219  -14.4595   25.0529 N   0  0  0  0  0  0  0  0  0  0  0  0
    8.3832  -14.7467   27.3732 C   0  0  0  0  0  0  0  0  0  0  0  0
    7.8075  -15.8679   27.2811 O   0  0  0  0  0  0  0  0  0  0  0  0
    9.0816  -14.4739   28.5362 O   0  0  0  0  0  0  0  0  0  0  0  0
  2  1  1  1
  2  3  1  0
  4  2  1  0
  4  5  2  0
  7  6  1  6
  7  8  1  0
  8  4  1  0
  9  7  1  0
  9 15  1  0
 10  9  2  0
 12 11  1  6
 12 14  1  0
 13 12  1  0
 14 15  1  6
 14 16  1  0
 16 17  2  0
 16 18  1  0
M  END
$$$$
