AAV.pdb
     RDKit          3D

 18 17  0  0  1  0  0  0  0  0999 V2000
    5.8335  -18.4429   24.5085 C   0  0  0  0  0  0  0  0  0  0  0  0
    6.3141  -18.3524   23.0777 C   0  0  2  0  0  0  0  0  0  0  0  0
    6.9025  -19.6072   22.7178 N   0  0  0  0  0  0  0  0  0  0  0  0
    7.2190  -17.2028   22.8585 C   0  0  0  0  0  0  0  0  0  0  0  0
    8.4010  -17.2930   23.2695 O   0  0  0  0  0  0  0  0  0  0  0  0
    7.0786  -13.8718   20.9722 C   0  0  0  0  0  0  0  0  0  0  0  0
    7.6749  -14.9011   21.8929 C   0  0  2  0  0  0  0  0  0  0  0  0
    6.8230  -16.0002   22.2073 N   0  0  0  0  0  0  0  0  0  0  0  0
    8.1692  -14.1641   23.1090 C   0  0  0  0  0  0  0  0  0  0  0  0
    9.0721  -13.3163   22.9357 O   0  0  0  0  0  0  0  0  0  0  0  0
    6.0365  -12.2676   25.3548 C   0  0  0  0  0  0  0  0  0  0  0  0
    6.8655  -13.0879   26.3061 C   0  0  2  0  0  0  0  0  0  0  0  0
    7.2725  -12.2749   27.5009 C   0  0  0  0  0  0  0  0  0  0  0  0
    8.0814  -13.6636   25.5765 C   0  0  2  0  0  0  0  0  0  0  0  0
    7.6654  -14.3899   24.3934 N   0  0  0  0  0  0  0  0  0  0  0  0
    8.7038  -14.6518   26.5223 C   0  0  0  0  0  0  0  0  0  0  0  0
    8.4874  -15.8910   26.4012 O   0  0  0  0  0  0  0  0  0  0  0  0
    9.5306  -14.2392   27.5523 O   0  0  0  0  0  0  0  0  0  0  0  0
  2  1  1  1
  2  3  1  0
  4  2  1  0
  4  5  2  0
  7  6  1  6
  7  8  1  0
  8  4  1  0
  9  7  1  0
  9 15  1  0
 10  9  2  0
 12 11  1  6
 12 14  1  0
 13 12  1  0
 14 15  1  6
 14 16  1  0
 16 17  2  0
 16 18  1  0
M  END
$$$$
