VFN.pdb
     RDKit          3D

 27 27  0  0  1  0  0  0  0  0999 V2000
   20.1875  -12.9907  -20.5008 C   0  0  0  0  0  0  0  0  0  0  0  0
   20.2599  -14.4793  -20.3297 C   0  0  1  0  0  0  0  0  0  0  0  0
   19.6650  -15.1996  -21.5139 C   0  0  0  0  0  0  0  0  0  0  0  0
   21.6567  -14.9187  -20.0202 C   0  0  2  0  0  0  0  0  0  0  0  0
   21.6342  -16.3494  -19.7986 N   0  0  0  0  0  0  0  0  0  0  0  0
   22.2560  -14.2124  -18.8772 C   0  0  0  0  0  0  0  0  0  0  0  0
   22.0052  -14.4905  -17.6785 O   0  0  0  0  0  0  0  0  0  0  0  0
   23.1699  -13.1560  -19.1579 N   0  0  0  0  0  0  0  0  0  0  0  0
   23.8088  -12.3380  -18.1787 C   0  0  1  0  0  0  0  0  0  0  0  0
   25.3216  -12.4502  -18.1276 C   0  0  0  0  0  0  0  0  0  0  0  0
   25.9308  -11.5730  -17.0948 C   0  0  0  0  0  0  0  0  0  0  0  0
   26.1223  -11.9436  -15.7807 C   0  0  0  0  0  0  0  0  0  0  0  0
   26.6878  -11.0798  -14.8442 C   0  0  0  0  0  0  0  0  0  0  0  0
   27.0526   -9.8305  -15.2815 C   0  0  0  0  0  0  0  0  0  0  0  0
   26.8703   -9.4415  -16.5892 C   0  0  0  0  0  0  0  0  0  0  0  0
   26.3130  -10.2912  -17.5143 C   0  0  0  0  0  0  0  0  0  0  0  0
   23.3098  -10.9580  -18.1283 C   0  0  0  0  0  0  0  0  0  0  0  0
   23.2886  -10.2773  -19.2122 O   0  0  0  0  0  0  0  0  0  0  0  0
   21.1231   -6.5046  -16.7686 N   0  0  0  0  0  0  0  0  0  0  0  0
   20.4064   -7.5730  -16.1209 C   0  0  0  0  0  0  0  0  0  0  0  0
   19.3292   -7.2706  -15.5645 O   0  0  0  0  0  0  0  0  0  0  0  0
   21.0052   -8.9223  -16.1721 C   0  0  0  0  0  0  0  0  0  0  0  0
   22.3259   -8.9694  -16.9124 C   0  0  2  0  0  0  0  0  0  0  0  0
   22.8477  -10.3317  -16.9435 N   0  0  0  0  0  0  0  0  0  0  0  0
   23.3141   -8.0735  -16.3048 C   0  0  0  0  0  0  0  0  0  0  0  0
   23.8660   -8.3270  -15.0663 O   0  0  0  0  0  0  0  0  0  0  0  0
   23.6855   -7.0386  -16.9082 O   0  0  0  0  0  0  0  0  0  0  0  0
  2  1  1  6
  2  4  1  0
  3  2  1  0
  4  5  1  1
  6  7  2  0
  6  4  1  0
  8  6  1  0
  9  8  1  0
  9 17  1  0
  9 10  1  6
 11 12  2  0
 11 10  1  0
 13 12  1  0
 14 13  2  0
 15 14  1  0
 15 16  2  0
 16 11  1  0
 17 24  1  0
 18 17  2  0
 19 20  1  0
 20 22  1  0
 21 20  2  0
 23 22  1  1
 23 25  1  0
 24 23  1  0
 25 27  2  0
 25 26  1  0
M  END
$$$$
