VFN.pdb
     RDKit          3D

 27 27  0  0  1  0  0  0  0  0999 V2000
   18.6459  -14.1514  -18.1680 C   0  0  0  0  0  0  0  0  0  0  0  0
   18.6557  -14.1483  -16.6679 C   0  0  1  0  0  0  0  0  0  0  0  0
   19.9384  -14.7263  -16.1241 C   0  0  0  0  0  0  0  0  0  0  0  0
   18.3556  -12.7843  -16.1301 C   0  0  2  0  0  0  0  0  0  0  0  0
   17.0279  -12.4137  -16.5734 N   0  0  0  0  0  0  0  0  0  0  0  0
   19.3481  -11.7686  -16.5149 C   0  0  0  0  0  0  0  0  0  0  0  0
   20.5404  -11.7768  -16.1204 O   0  0  0  0  0  0  0  0  0  0  0  0
   18.9215  -10.7227  -17.3831 N   0  0  0  0  0  0  0  0  0  0  0  0
   19.7279   -9.6246  -17.8075 C   0  0  1  0  0  0  0  0  0  0  0  0
   20.0900   -9.6180  -19.2816 C   0  0  0  0  0  0  0  0  0  0  0  0
   20.8483  -10.8269  -19.6950 C   0  0  0  0  0  0  0  0  0  0  0  0
   20.2663  -12.0414  -19.9899 C   0  0  0  0  0  0  0  0  0  0  0  0
   21.0221  -13.1519  -20.3620 C   0  0  0  0  0  0  0  0  0  0  0  0
   22.3842  -12.9924  -20.4258 C   0  0  0  0  0  0  0  0  0  0  0  0
   22.9845  -11.7882  -20.1357 C   0  0  0  0  0  0  0  0  0  0  0  0
   22.2416  -10.6919  -19.7685 C   0  0  0  0  0  0  0  0  0  0  0  0
   19.2887   -8.3210  -17.2942 C   0  0  0  0  0  0  0  0  0  0  0  0
   20.0187   -7.2959  -17.5286 O   0  0  0  0  0  0  0  0  0  0  0  0
   15.9738   -3.9042  -16.9853 N   0  0  0  0  0  0  0  0  0  0  0  0
   15.8244   -5.1382  -16.2578 C   0  0  0  0  0  0  0  0  0  0  0  0
   15.1745   -5.0870  -15.1918 O   0  0  0  0  0  0  0  0  0  0  0  0
   16.4491   -6.3466  -16.8333 C   0  0  0  0  0  0  0  0  0  0  0  0
   17.6620   -6.8252  -16.0623 C   0  0  2  0  0  0  0  0  0  0  0  0
   18.0975   -8.1297  -16.5501 N   0  0  0  0  0  0  0  0  0  0  0  0
   17.3890   -6.8993  -14.6241 C   0  0  0  0  0  0  0  0  0  0  0  0
   17.2499   -8.1047  -13.9681 O   0  0  0  0  0  0  0  0  0  0  0  0
   17.2735   -5.8498  -13.9471 O   0  0  0  0  0  0  0  0  0  0  0  0
  2  1  1  6
  2  4  1  0
  3  2  1  0
  4  5  1  6
  6  7  2  0
  6  4  1  0
  8  6  1  0
  9  8  1  0
  9 17  1  0
  9 10  1  6
 11 12  2  0
 11 10  1  0
 13 12  1  0
 14 13  2  0
 15 14  1  0
 15 16  2  0
 16 11  1  0
 17 24  1  0
 18 17  2  0
 19 20  1  0
 20 22  1  0
 21 20  2  0
 23 22  1  6
 23 25  1  0
 24 23  1  0
 25 27  2  0
 25 26  1  0
M  END
$$$$
