VFN.pdb
     RDKit          3D

 27 27  0  0  1  0  0  0  0  0999 V2000
   20.4013  -15.1446  -18.8558 C   0  0  0  0  0  0  0  0  0  0  0  0
   20.8359  -13.9419  -18.0715 C   0  0  1  0  0  0  0  0  0  0  0  0
   19.7760  -13.5134  -17.0875 C   0  0  0  0  0  0  0  0  0  0  0  0
   22.1694  -14.1694  -17.4313 C   0  0  2  0  0  0  0  0  0  0  0  0
   22.0988  -15.4079  -16.6845 N   0  0  0  0  0  0  0  0  0  0  0  0
   22.6089  -13.0562  -16.5757 C   0  0  0  0  0  0  0  0  0  0  0  0
   22.3959  -13.0032  -15.3392 O   0  0  0  0  0  0  0  0  0  0  0  0
   23.3142  -11.9845  -17.1953 N   0  0  0  0  0  0  0  0  0  0  0  0
   23.7825  -10.8128  -16.5289 C   0  0  1  0  0  0  0  0  0  0  0  0
   25.2297  -10.4460  -16.8029 C   0  0  0  0  0  0  0  0  0  0  0  0
   26.1729  -11.5533  -16.5007 C   0  0  0  0  0  0  0  0  0  0  0  0
   26.4676  -12.5782  -17.3746 C   0  0  0  0  0  0  0  0  0  0  0  0
   27.3514  -13.6030  -17.0405 C   0  0  0  0  0  0  0  0  0  0  0  0
   27.9261  -13.5560  -15.7945 C   0  0  0  0  0  0  0  0  0  0  0  0
   27.6454  -12.5413  -14.9077 C   0  0  0  0  0  0  0  0  0  0  0  0
   26.7744  -11.5298  -15.2348 C   0  0  0  0  0  0  0  0  0  0  0  0
   22.8560   -9.6752  -16.5884 C   0  0  0  0  0  0  0  0  0  0  0  0
   22.3100   -9.3917  -17.7109 O   0  0  0  0  0  0  0  0  0  0  0  0
   19.1612   -6.3636  -15.3323 N   0  0  0  0  0  0  0  0  0  0  0  0
   18.9317   -7.7463  -15.6638 C   0  0  0  0  0  0  0  0  0  0  0  0
   17.7450   -8.0895  -15.8524 O   0  0  0  0  0  0  0  0  0  0  0  0
   20.1123   -8.6297  -15.7508 C   0  0  0  0  0  0  0  0  0  0  0  0
   21.4201   -7.9198  -15.4672 C   0  0  2  0  0  0  0  0  0  0  0  0
   22.5291   -8.8681  -15.4699 N   0  0  0  0  0  0  0  0  0  0  0  0
   21.3783   -7.2092  -14.1859 C   0  0  0  0  0  0  0  0  0  0  0  0
   22.2096   -7.5440  -13.1374 O   0  0  0  0  0  0  0  0  0  0  0  0
   20.5712   -6.2650  -14.0120 O   0  0  0  0  0  0  0  0  0  0  0  0
  2  1  1  1
  2  4  1  0
  3  2  1  0
  4  5  1  1
  6  7  2  0
  6  4  1  0
  8  6  1  0
  9  8  1  0
  9 17  1  0
  9 10  1  6
 11 12  2  0
 11 10  1  0
 13 12  1  0
 14 13  2  0
 15 14  1  0
 15 16  2  0
 16 11  1  0
 17 24  1  0
 18 17  2  0
 19 20  1  0
 20 22  1  0
 21 20  2  0
 23 22  1  1
 23 25  1  0
 24 23  1  0
 25 27  2  0
 25 26  1  0
M  END
$$$$
