VFN.pdb
     RDKit          3D

 27 27  0  0  1  0  0  0  0  0999 V2000
   25.9939  -18.6791  -15.3432 C   0  0  0  0  0  0  0  0  0  0  0  0
   27.2822  -19.4456  -15.4011 C   0  0  1  0  0  0  0  0  0  0  0  0
   28.3716  -18.6427  -16.0670 C   0  0  0  0  0  0  0  0  0  0  0  0
   27.6716  -19.9474  -14.0459 C   0  0  2  0  0  0  0  0  0  0  0  0
   28.8714  -20.7443  -14.1946 N   0  0  0  0  0  0  0  0  0  0  0  0
   26.6077  -20.7078  -13.3719 C   0  0  0  0  0  0  0  0  0  0  0  0
   26.3216  -21.8989  -13.6489 O   0  0  0  0  0  0  0  0  0  0  0  0
   25.8675  -20.0459  -12.3502 N   0  0  0  0  0  0  0  0  0  0  0  0
   24.7569  -20.6012  -11.6469 C   0  0  1  0  0  0  0  0  0  0  0  0
   24.5610  -20.0845  -10.2332 C   0  0  0  0  0  0  0  0  0  0  0  0
   25.7801  -20.2202   -9.3950 C   0  0  0  0  0  0  0  0  0  0  0  0
   26.2239  -19.2570   -8.5141 C   0  0  0  0  0  0  0  0  0  0  0  0
   27.3822  -19.4254   -7.7571 C   0  0  0  0  0  0  0  0  0  0  0  0
   28.0750  -20.5993   -7.9211 C   0  0  0  0  0  0  0  0  0  0  0  0
   27.6484  -21.5734   -8.7951 C   0  0  0  0  0  0  0  0  0  0  0  0
   26.5068  -21.4098   -9.5424 C   0  0  0  0  0  0  0  0  0  0  0  0
   23.5196  -20.6716  -12.4343 C   0  0  0  0  0  0  0  0  0  0  0  0
   23.0959  -19.6048  -13.0009 O   0  0  0  0  0  0  0  0  0  0  0  0
   19.2607  -22.2356  -14.8955 N   0  0  0  0  0  0  0  0  0  0  0  0
   19.9319  -23.4547  -14.5244 C   0  0  0  0  0  0  0  0  0  0  0  0
   19.4072  -24.5232  -14.9044 O   0  0  0  0  0  0  0  0  0  0  0  0
   21.1730  -23.3337  -13.7326 C   0  0  0  0  0  0  0  0  0  0  0  0
   21.5135  -21.9060  -13.3577 C   0  0  2  0  0  0  0  0  0  0  0  0
   22.7626  -21.8578  -12.6049 N   0  0  0  0  0  0  0  0  0  0  0  0
   20.4395  -21.2853  -12.5770 C   0  0  0  0  0  0  0  0  0  0  0  0
   20.6296  -20.8675  -11.2762 O   0  0  0  0  0  0  0  0  0  0  0  0
   19.3044  -21.1180  -13.0835 O   0  0  0  0  0  0  0  0  0  0  0  0
  2  1  1  1
  2  4  1  0
  3  2  1  0
  4  5  1  6
  6  7  2  0
  6  4  1  0
  8  6  1  0
  9  8  1  0
  9 17  1  0
  9 10  1  1
 11 12  2  0
 11 10  1  0
 13 12  1  0
 14 13  2  0
 15 14  1  0
 15 16  2  0
 16 11  1  0
 17 24  1  0
 18 17  2  0
 19 20  1  0
 20 22  1  0
 21 20  2  0
 23 22  1  1
 23 25  1  0
 24 23  1  0
 25 27  2  0
 25 26  1  0
M  END
$$$$
