VFN.pdb
     RDKit          3D

 27 27  0  0  1  0  0  0  0  0999 V2000
   18.6235  -13.5330  -17.3588 C   0  0  0  0  0  0  0  0  0  0  0  0
   18.9602  -12.3942  -16.4422 C   0  0  1  0  0  0  0  0  0  0  0  0
   20.4473  -12.2951  -16.2098 C   0  0  0  0  0  0  0  0  0  0  0  0
   18.3589  -11.1137  -16.9307 C   0  0  2  0  0  0  0  0  0  0  0  0
   18.8519  -10.8735  -18.2709 N   0  0  0  0  0  0  0  0  0  0  0  0
   18.6262   -9.9649  -16.0513 C   0  0  0  0  0  0  0  0  0  0  0  0
   18.2861   -9.9197  -14.8433 O   0  0  0  0  0  0  0  0  0  0  0  0
   19.3092   -8.8475  -16.6124 N   0  0  0  0  0  0  0  0  0  0  0  0
   19.6963   -7.6750  -15.8969 C   0  0  1  0  0  0  0  0  0  0  0  0
   21.1924   -7.4369  -15.8039 C   0  0  0  0  0  0  0  0  0  0  0  0
   21.9084   -8.5315  -15.0994 C   0  0  0  0  0  0  0  0  0  0  0  0
   22.7504   -9.4297  -15.7201 C   0  0  0  0  0  0  0  0  0  0  0  0
   23.3910  -10.4489  -15.0174 C   0  0  0  0  0  0  0  0  0  0  0  0
   23.1516  -10.5284  -13.6678 C   0  0  0  0  0  0  0  0  0  0  0  0
   22.3149   -9.6413  -13.0294 C   0  0  0  0  0  0  0  0  0  0  0  0
   21.6821   -8.6357  -13.7199 C   0  0  0  0  0  0  0  0  0  0  0  0
   18.9204   -6.4766  -16.2400 C   0  0  0  0  0  0  0  0  0  0  0  0
   18.8588   -6.1211  -17.4682 O   0  0  0  0  0  0  0  0  0  0  0  0
   14.2267   -2.9486  -14.3839 N   0  0  0  0  0  0  0  0  0  0  0  0
   15.4626   -3.1299  -15.1009 C   0  0  0  0  0  0  0  0  0  0  0  0
   15.8149   -2.2001  -15.8578 O   0  0  0  0  0  0  0  0  0  0  0  0
   16.1987   -4.3911  -14.8788 C   0  0  0  0  0  0  0  0  0  0  0  0
   17.5107   -4.4655  -15.6323 C   0  0  2  0  0  0  0  0  0  0  0  0
   18.2321   -5.6857  -15.2860 N   0  0  0  0  0  0  0  0  0  0  0  0
   18.3529   -3.2972  -15.3604 C   0  0  0  0  0  0  0  0  0  0  0  0
   19.5569   -3.4033  -14.6956 O   0  0  0  0  0  0  0  0  0  0  0  0
   17.9906   -2.1555  -15.7325 O   0  0  0  0  0  0  0  0  0  0  0  0
  2  1  1  6
  2  4  1  0
  3  2  1  0
  4  5  1  6
  6  7  2  0
  6  4  1  0
  8  6  1  0
  9  8  1  0
  9 17  1  0
  9 10  1  6
 11 12  2  0
 11 10  1  0
 13 12  1  0
 14 13  2  0
 15 14  1  0
 15 16  2  0
 16 11  1  0
 17 24  1  0
 18 17  2  0
 19 20  1  0
 20 22  1  0
 21 20  2  0
 23 22  1  1
 23 25  1  0
 24 23  1  0
 25 27  2  0
 25 26  1  0
M  END
$$$$
