VFN.pdb
     RDKit          3D

 27 27  0  0  1  0  0  0  0  0999 V2000
   27.5615  -20.4088  -18.4250 C   0  0  0  0  0  0  0  0  0  0  0  0
   26.9326  -20.5697  -17.0726 C   0  0  1  0  0  0  0  0  0  0  0  0
   25.4744  -20.9389  -17.1834 C   0  0  0  0  0  0  0  0  0  0  0  0
   27.7141  -21.5243  -16.2253 C   0  0  2  0  0  0  0  0  0  0  0  0
   27.7806  -22.7894  -16.9264 N   0  0  0  0  0  0  0  0  0  0  0  0
   27.1649  -21.6944  -14.8711 C   0  0  0  0  0  0  0  0  0  0  0  0
   26.2537  -22.5108  -14.5875 O   0  0  0  0  0  0  0  0  0  0  0  0
   27.7042  -20.8825  -13.8319 N   0  0  0  0  0  0  0  0  0  0  0  0
   27.2115  -20.8228  -12.4940 C   0  0  1  0  0  0  0  0  0  0  0  0
   28.1990  -20.3091  -11.4620 C   0  0  0  0  0  0  0  0  0  0  0  0
   27.6073  -20.1943  -10.1041 C   0  0  0  0  0  0  0  0  0  0  0  0
   26.6702  -19.2484   -9.7464 C   0  0  0  0  0  0  0  0  0  0  0  0
   26.1528  -19.1726   -8.4543 C   0  0  0  0  0  0  0  0  0  0  0  0
   26.6146  -20.0847   -7.5379 C   0  0  0  0  0  0  0  0  0  0  0  0
   27.5495  -21.0371   -7.8752 C   0  0  0  0  0  0  0  0  0  0  0  0
   28.0612  -21.1138   -9.1483 C   0  0  0  0  0  0  0  0  0  0  0  0
   25.8664  -20.2469  -12.3726 C   0  0  0  0  0  0  0  0  0  0  0  0
   25.6073  -19.1643  -13.0049 O   0  0  0  0  0  0  0  0  0  0  0  0
   20.5278  -21.8484  -13.3376 N   0  0  0  0  0  0  0  0  0  0  0  0
   21.4640  -20.7548  -13.2946 C   0  0  0  0  0  0  0  0  0  0  0  0
   20.9986  -19.6092  -13.4744 O   0  0  0  0  0  0  0  0  0  0  0  0
   22.8820  -21.0832  -13.0432 C   0  0  0  0  0  0  0  0  0  0  0  0
   23.4228  -20.4839  -11.7614 C   0  0  2  0  0  0  0  0  0  0  0  0
   24.8322  -20.8220  -11.5923 N   0  0  0  0  0  0  0  0  0  0  0  0
   22.6607  -20.9363  -10.5940 C   0  0  0  0  0  0  0  0  0  0  0  0
   23.2609  -21.5910   -9.5386 O   0  0  0  0  0  0  0  0  0  0  0  0
   21.4245  -20.7347  -10.5284 O   0  0  0  0  0  0  0  0  0  0  0  0
  2  1  1  6
  2  4  1  0
  3  2  1  0
  4  5  1  6
  6  7  2  0
  6  4  1  0
  8  6  1  0
  9  8  1  0
  9 17  1  0
  9 10  1  1
 11 12  2  0
 11 10  1  0
 13 12  1  0
 14 13  2  0
 15 14  1  0
 15 16  2  0
 16 11  1  0
 17 24  1  0
 18 17  2  0
 19 20  1  0
 20 22  1  0
 21 20  2  0
 23 22  1  6
 23 25  1  0
 24 23  1  0
 25 27  2  0
 25 26  1  0
M  END
$$$$
