GNR.pdb
     RDKit          3D

 24 23  0  0  1  0  0  0  0  0999 V2000
   26.6543  -25.9724  -16.4485 N   0  0  0  0  0  0  0  0  0  0  0  0
   26.3536  -24.7066  -17.0657 C   0  0  0  0  0  0  0  0  0  0  0  0
   25.7337  -23.7556  -16.0962 C   0  0  0  0  0  0  0  0  0  0  0  0
   26.2004  -23.7176  -14.9413 O   0  0  0  0  0  0  0  0  0  0  0  0
   24.5832  -18.1661  -15.2842 N   0  0  0  0  0  0  0  0  0  0  0  0
   24.2384  -19.5091  -14.9980 C   0  0  0  0  0  0  0  0  0  0  0  0
   23.7494  -19.7547  -13.8694 O   0  0  0  0  0  0  0  0  0  0  0  0
   24.4781  -20.5224  -16.0447 C   0  0  0  0  0  0  0  0  0  0  0  0
   24.1769  -21.9243  -15.5560 C   0  0  2  0  0  0  0  0  0  0  0  0
   24.6485  -22.9186  -16.4686 N   0  0  0  0  0  0  0  0  0  0  0  0
   22.7037  -22.0068  -15.3726 C   0  0  0  0  0  0  0  0  0  0  0  0
   21.9709  -21.8506  -16.3763 O   0  0  0  0  0  0  0  0  0  0  0  0
   16.3482  -23.7831  -10.4975 N   0  0  0  0  0  0  0  0  0  0  0  0
   17.3930  -24.5537   -9.9014 C   0  0  0  0  0  0  0  0  0  0  0  0
   17.3113  -24.9393   -8.6675 N   0  0  0  0  0  0  0  0  0  0  0  0
   18.5579  -24.9310  -10.6198 N   0  0  0  0  0  0  0  0  0  0  0  0
   18.6736  -24.5656  -12.0395 C   0  0  0  0  0  0  0  0  0  0  0  0
   19.0065  -23.0917  -12.1781 C   0  0  0  0  0  0  0  0  0  0  0  0
   20.4354  -23.0338  -12.6484 C   0  0  0  0  0  0  0  0  0  0  0  0
   20.6449  -22.3201  -13.9379 C   0  0  2  0  0  0  0  0  0  0  0  0
   22.1096  -22.2521  -14.1224 N   0  0  0  0  0  0  0  0  0  0  0  0
   20.2077  -20.9133  -13.8075 C   0  0  0  0  0  0  0  0  0  0  0  0
   21.0024  -19.9640  -13.5531 O   0  0  0  0  0  0  0  0  0  0  0  0
   18.8872  -20.5749  -13.9631 O   0  0  0  0  0  0  0  0  0  0  0  0
  2  1  1  0
  2  3  1  0
  3 10  1  0
  4  3  2  0
  6  5  1  0
  6  7  2  0
  8  6  1  0
  9  8  1  6
  9 11  1  0
 10  9  1  0
 11 21  1  0
 11 12  2  0
 13 14  1  0
 14 16  1  0
 15 14  2  0
 16 17  1  0
 17 18  1  0
 18 19  1  0
 20 19  1  1
 21 20  1  0
 22 20  1  0
 22 24  1  0
 23 22  2  0
M  END
$$$$
