GNR.pdb
     RDKit          3D

 24 23  0  0  1  0  0  0  0  0999 V2000
   28.0553  -24.9739  -16.4044 N   0  0  0  0  0  0  0  0  0  0  0  0
   27.1163  -24.1297  -17.0966 C   0  0  0  0  0  0  0  0  0  0  0  0
   26.5289  -23.1005  -16.1887 C   0  0  0  0  0  0  0  0  0  0  0  0
   26.4968  -23.3532  -14.9687 O   0  0  0  0  0  0  0  0  0  0  0  0
   27.9911  -19.4696  -14.8648 N   0  0  0  0  0  0  0  0  0  0  0  0
   27.3365  -19.3091  -16.1099 C   0  0  0  0  0  0  0  0  0  0  0  0
   28.0436  -19.0158  -17.1036 O   0  0  0  0  0  0  0  0  0  0  0  0
   25.8728  -19.4978  -16.1507 C   0  0  0  0  0  0  0  0  0  0  0  0
   25.4731  -20.9120  -15.7831 C   0  0  2  0  0  0  0  0  0  0  0  0
   26.0214  -21.8723  -16.6893 N   0  0  0  0  0  0  0  0  0  0  0  0
   23.9868  -20.9504  -15.7810 C   0  0  0  0  0  0  0  0  0  0  0  0
   23.3926  -20.9974  -16.8826 O   0  0  0  0  0  0  0  0  0  0  0  0
   17.1199  -22.9407  -12.3180 N   0  0  0  0  0  0  0  0  0  0  0  0
   18.1689  -23.8167  -11.9021 C   0  0  0  0  0  0  0  0  0  0  0  0
   17.9861  -25.0984  -11.8630 N   0  0  0  0  0  0  0  0  0  0  0  0
   19.4473  -23.3349  -11.5159 N   0  0  0  0  0  0  0  0  0  0  0  0
   19.7053  -21.8874  -11.5426 C   0  0  0  0  0  0  0  0  0  0  0  0
   19.8727  -21.4091  -12.9729 C   0  0  0  0  0  0  0  0  0  0  0  0
   21.3572  -21.3289  -13.2101 C   0  0  0  0  0  0  0  0  0  0  0  0
   21.7536  -20.9512  -14.5944 C   0  0  2  0  0  0  0  0  0  0  0  0
   23.2313  -20.9359  -14.5956 N   0  0  0  0  0  0  0  0  0  0  0  0
   21.3541  -19.5532  -14.8650 C   0  0  0  0  0  0  0  0  0  0  0  0
   21.9340  -18.5568  -14.3471 O   0  0  0  0  0  0  0  0  0  0  0  0
   20.3113  -19.2763  -15.7125 O   0  0  0  0  0  0  0  0  0  0  0  0
  2  1  1  0
  2  3  1  0
  3 10  1  0
  4  3  2  0
  6  5  1  0
  6  7  2  0
  8  6  1  0
  9  8  1  6
  9 11  1  0
 10  9  1  0
 11 21  1  0
 11 12  2  0
 13 14  1  0
 14 16  1  0
 15 14  2  0
 16 17  1  0
 17 18  1  0
 18 19  1  0
 20 19  1  1
 21 20  1  0
 22 20  1  0
 22 24  1  0
 23 22  2  0
M  END
$$$$
