GNR.pdb
     RDKit          3D

 24 23  0  0  1  0  0  0  0  0999 V2000
   30.8076  -19.7489  -19.9357 N   0  0  0  0  0  0  0  0  0  0  0  0
   31.0698  -20.4025  -18.6797 C   0  0  0  0  0  0  0  0  0  0  0  0
   30.0494  -21.4507  -18.3816 C   0  0  0  0  0  0  0  0  0  0  0  0
   29.1212  -21.6059  -19.1986 O   0  0  0  0  0  0  0  0  0  0  0  0
   31.8139  -25.5654  -17.3252 N   0  0  0  0  0  0  0  0  0  0  0  0
   30.4762  -25.1902  -17.5982 C   0  0  0  0  0  0  0  0  0  0  0  0
   30.0300  -25.4271  -18.7463 O   0  0  0  0  0  0  0  0  0  0  0  0
   29.7036  -24.5488  -16.5159 C   0  0  0  0  0  0  0  0  0  0  0  0
   29.1126  -23.2233  -16.9502 C   0  0  2  0  0  0  0  0  0  0  0  0
   30.1258  -22.2485  -17.2093 N   0  0  0  0  0  0  0  0  0  0  0  0
   28.1989  -22.7845  -15.8623 C   0  0  0  0  0  0  0  0  0  0  0  0
   28.6034  -22.8631  -14.6795 O   0  0  0  0  0  0  0  0  0  0  0  0
   26.3135  -21.1497   -9.3498 N   0  0  0  0  0  0  0  0  0  0  0  0
   25.0660  -20.8256   -9.9659 C   0  0  0  0  0  0  0  0  0  0  0  0
   23.9596  -20.8871   -9.2953 N   0  0  0  0  0  0  0  0  0  0  0  0
   24.9758  -20.4254  -11.3250 N   0  0  0  0  0  0  0  0  0  0  0  0
   26.2033  -20.3428  -12.1304 C   0  0  0  0  0  0  0  0  0  0  0  0
   25.8929  -19.7855  -13.5072 C   0  0  0  0  0  0  0  0  0  0  0  0
   26.7135  -20.5958  -14.4749 C   0  0  0  0  0  0  0  0  0  0  0  0
   26.0251  -21.7897  -15.0377 C   0  0  2  0  0  0  0  0  0  0  0  0
   26.9076  -22.2888  -16.1129 N   0  0  0  0  0  0  0  0  0  0  0  0
   24.7819  -21.3737  -15.7223 C   0  0  0  0  0  0  0  0  0  0  0  0
   24.7473  -21.0169  -16.9343 O   0  0  0  0  0  0  0  0  0  0  0  0
   23.5857  -21.3598  -15.0506 O   0  0  0  0  0  0  0  0  0  0  0  0
  2  1  1  0
  2  3  1  0
  3 10  1  0
  4  3  2  0
  6  5  1  0
  6  7  2  0
  8  6  1  0
  9  8  1  1
  9 11  1  0
 10  9  1  0
 11 21  1  0
 11 12  2  0
 13 14  1  0
 14 16  1  0
 15 14  2  0
 16 17  1  0
 17 18  1  0
 18 19  1  0
 20 19  1  6
 21 20  1  0
 22 20  1  0
 22 24  1  0
 23 22  2  0
M  END
$$$$
