GNR.pdb
     RDKit          3D

 24 23  0  0  1  0  0  0  0  0999 V2000
   28.6411  -17.2203  -18.3354 N   0  0  0  0  0  0  0  0  0  0  0  0
   27.7525  -17.0034  -17.2233 C   0  0  0  0  0  0  0  0  0  0  0  0
   27.2387  -18.2914  -16.6705 C   0  0  0  0  0  0  0  0  0  0  0  0
   26.1098  -18.6711  -17.0372 O   0  0  0  0  0  0  0  0  0  0  0  0
   28.4307  -21.4210  -17.5335 N   0  0  0  0  0  0  0  0  0  0  0  0
   28.9472  -21.9691  -16.3346 C   0  0  0  0  0  0  0  0  0  0  0  0
   29.7083  -22.9615  -16.4311 O   0  0  0  0  0  0  0  0  0  0  0  0
   28.5550  -21.3361  -15.0598 C   0  0  0  0  0  0  0  0  0  0  0  0
   27.4735  -20.2932  -15.2540 C   0  0  2  0  0  0  0  0  0  0  0  0
   28.0036  -19.0645  -15.7572 N   0  0  0  0  0  0  0  0  0  0  0  0
   26.8182  -20.1043  -13.9327 C   0  0  0  0  0  0  0  0  0  0  0  0
   27.4260  -19.4461  -13.0574 O   0  0  0  0  0  0  0  0  0  0  0  0
   18.2799  -21.1428  -12.4115 N   0  0  0  0  0  0  0  0  0  0  0  0
   18.7520  -20.7208  -11.1309 C   0  0  0  0  0  0  0  0  0  0  0  0
   17.9211  -20.4260  -10.1821 N   0  0  0  0  0  0  0  0  0  0  0  0
   20.1359  -20.6044  -10.8365 N   0  0  0  0  0  0  0  0  0  0  0  0
   21.1169  -20.8084  -11.9129 C   0  0  0  0  0  0  0  0  0  0  0  0
   22.5072  -20.4314  -11.4361 C   0  0  0  0  0  0  0  0  0  0  0  0
   23.4143  -20.6136  -12.6238 C   0  0  0  0  0  0  0  0  0  0  0  0
   24.8576  -20.3656  -12.3570 C   0  0  2  0  0  0  0  0  0  0  0  0
   25.5509  -20.6342  -13.6341 N   0  0  0  0  0  0  0  0  0  0  0  0
   25.3745  -21.3837  -11.4170 C   0  0  0  0  0  0  0  0  0  0  0  0
   25.6876  -22.5555  -11.7720 O   0  0  0  0  0  0  0  0  0  0  0  0
   25.5399  -21.0871  -10.0877 O   0  0  0  0  0  0  0  0  0  0  0  0
  2  1  1  0
  2  3  1  0
  3 10  1  0
  4  3  2  0
  6  5  1  0
  6  7  2  0
  8  6  1  0
  9  8  1  1
  9 11  1  0
 10  9  1  0
 11 21  1  0
 11 12  2  0
 13 14  1  0
 14 16  1  0
 15 14  2  0
 16 17  1  0
 17 18  1  0
 18 19  1  0
 20 19  1  6
 21 20  1  0
 22 20  1  0
 22 24  1  0
 23 22  2  0
M  END
$$$$
