GNR.pdb
     RDKit          3D

 24 23  0  0  1  0  0  0  0  0999 V2000
   29.2124  -20.2653  -17.0400 N   0  0  0  0  0  0  0  0  0  0  0  0
   29.3523  -19.5931  -15.7743 C   0  0  0  0  0  0  0  0  0  0  0  0
   28.9605  -20.4765  -14.6363 C   0  0  0  0  0  0  0  0  0  0  0  0
   27.9933  -21.2443  -14.8040 O   0  0  0  0  0  0  0  0  0  0  0  0
   32.4761  -21.7971  -10.8965 N   0  0  0  0  0  0  0  0  0  0  0  0
   31.1917  -22.1093  -11.4039 C   0  0  0  0  0  0  0  0  0  0  0  0
   31.0726  -23.1638  -12.0726 O   0  0  0  0  0  0  0  0  0  0  0  0
   30.0868  -21.1746  -11.1113 C   0  0  0  0  0  0  0  0  0  0  0  0
   29.0967  -21.0916  -12.2548 C   0  0  2  0  0  0  0  0  0  0  0  0
   29.6605  -20.4496  -13.4010 N   0  0  0  0  0  0  0  0  0  0  0  0
   27.9122  -20.3529  -11.7431 C   0  0  0  0  0  0  0  0  0  0  0  0
   27.8396  -19.1220  -11.9632 O   0  0  0  0  0  0  0  0  0  0  0  0
   22.3355  -18.5693  -15.1416 N   0  0  0  0  0  0  0  0  0  0  0  0
   21.3301  -19.5084  -14.7567 C   0  0  0  0  0  0  0  0  0  0  0  0
   20.0752  -19.2536  -14.9521 N   0  0  0  0  0  0  0  0  0  0  0  0
   21.6495  -20.7511  -14.1493 N   0  0  0  0  0  0  0  0  0  0  0  0
   23.0567  -21.0677  -13.8630 C   0  0  0  0  0  0  0  0  0  0  0  0
   23.4404  -20.5610  -12.4852 C   0  0  0  0  0  0  0  0  0  0  0  0
   24.8946  -20.9080  -12.3080 C   0  0  0  0  0  0  0  0  0  0  0  0
   25.4928  -20.4714  -11.0167 C   0  0  2  0  0  0  0  0  0  0  0  0
   26.8794  -20.9824  -11.0268 N   0  0  0  0  0  0  0  0  0  0  0  0
   24.8316  -21.1748   -9.8962 C   0  0  0  0  0  0  0  0  0  0  0  0
   25.2918  -22.2309   -9.3763 O   0  0  0  0  0  0  0  0  0  0  0  0
   23.6625  -20.6946   -9.3626 O   0  0  0  0  0  0  0  0  0  0  0  0
  2  1  1  0
  2  3  1  0
  3 10  1  0
  4  3  2  0
  6  5  1  0
  6  7  2  0
  8  6  1  0
  9  8  1  1
  9 11  1  0
 10  9  1  0
 11 21  1  0
 11 12  2  0
 13 14  1  0
 14 16  1  0
 15 14  2  0
 16 17  1  0
 17 18  1  0
 18 19  1  0
 20 19  1  6
 21 20  1  0
 22 20  1  0
 22 24  1  0
 23 22  2  0
M  END
$$$$
