GNR.pdb
     RDKit          3D

 24 23  0  0  1  0  0  0  0  0999 V2000
   28.3823  -20.3148  -15.5859 N   0  0  0  0  0  0  0  0  0  0  0  0
   27.4990  -21.4001  -15.9258 C   0  0  0  0  0  0  0  0  0  0  0  0
   26.4348  -21.5863  -14.8955 C   0  0  0  0  0  0  0  0  0  0  0  0
   25.5434  -22.4259  -15.1271 O   0  0  0  0  0  0  0  0  0  0  0  0
   25.1454  -22.0087   -9.5385 N   0  0  0  0  0  0  0  0  0  0  0  0
   24.8035  -20.8821  -10.3248 C   0  0  0  0  0  0  0  0  0  0  0  0
   23.7149  -20.3104  -10.0771 O   0  0  0  0  0  0  0  0  0  0  0  0
   25.7493  -20.4610  -11.3774 C   0  0  0  0  0  0  0  0  0  0  0  0
   25.3959  -21.0523  -12.7266 C   0  0  2  0  0  0  0  0  0  0  0  0
   26.4303  -20.8364  -13.6895 N   0  0  0  0  0  0  0  0  0  0  0  0
   24.1172  -20.4221  -13.1489 C   0  0  0  0  0  0  0  0  0  0  0  0
   24.1093  -19.1905  -13.3768 O   0  0  0  0  0  0  0  0  0  0  0  0
   20.1440  -21.5376  -20.0643 N   0  0  0  0  0  0  0  0  0  0  0  0
   19.5170  -20.3852  -19.4991 C   0  0  0  0  0  0  0  0  0  0  0  0
   18.9229  -19.5163  -20.2540 N   0  0  0  0  0  0  0  0  0  0  0  0
   19.5125  -20.1363  -18.1014 N   0  0  0  0  0  0  0  0  0  0  0  0
   20.2102  -21.0705  -17.2053 C   0  0  0  0  0  0  0  0  0  0  0  0
   20.1662  -20.5612  -15.7766 C   0  0  0  0  0  0  0  0  0  0  0  0
   21.4884  -20.9380  -15.1633 C   0  0  0  0  0  0  0  0  0  0  0  0
   21.6612  -20.5315  -13.7417 C   0  0  2  0  0  0  0  0  0  0  0  0
   22.9267  -21.1540  -13.3001 N   0  0  0  0  0  0  0  0  0  0  0  0
   20.6122  -21.1610  -12.9107 C   0  0  0  0  0  0  0  0  0  0  0  0
   20.7095  -22.3325  -12.4463 O   0  0  0  0  0  0  0  0  0  0  0  0
   19.4624  -20.4789  -12.6023 O   0  0  0  0  0  0  0  0  0  0  0  0
  2  1  1  0
  2  3  1  0
  3 10  1  0
  4  3  2  0
  6  5  1  0
  6  7  2  0
  8  6  1  0
  9  8  1  1
  9 11  1  0
 10  9  1  0
 11 21  1  0
 11 12  2  0
 13 14  1  0
 14 16  1  0
 15 14  2  0
 16 17  1  0
 17 18  1  0
 18 19  1  0
 20 19  1  6
 21 20  1  0
 22 20  1  0
 22 24  1  0
 23 22  2  0
M  END
$$$$
