GMD.pdb
     RDKit          3D

 21 20  0  0  1  0  0  0  0  0999 V2000
    6.5046  -16.6855   20.1735 N   0  0  0  0  0  0  0  0  0  0  0  0
    7.6911  -15.9140   19.9748 C   0  0  0  0  0  0  0  0  0  0  0  0
    8.2846  -15.4404   21.2522 C   0  0  0  0  0  0  0  0  0  0  0  0
    9.5102  -15.1455   21.2710 O   0  0  0  0  0  0  0  0  0  0  0  0
    7.0661  -11.4704   27.6932 C   0  0  0  0  0  0  0  0  0  0  0  0
    6.4706  -12.3361   26.2197 S   0  0  0  0  0  0  0  0  0  0  0  0
    7.4297  -13.8379   25.8885 C   0  0  0  0  0  0  0  0  0  0  0  0
    6.8711  -14.4690   24.6259 C   0  0  0  0  0  0  0  0  0  0  0  0
    8.0096  -14.8337   23.6672 C   0  0  2  0  0  0  0  0  0  0  0  0
    7.4789  -15.3282   22.4131 N   0  0  0  0  0  0  0  0  0  0  0  0
    8.8136  -15.8840   24.3610 C   0  0  0  0  0  0  0  0  0  0  0  0
    8.2738  -17.0024   24.5357 O   0  0  0  0  0  0  0  0  0  0  0  0
   10.1215  -15.6820   24.8188 N   0  0  0  0  0  0  0  0  0  0  0  0
   10.8624  -16.7945   25.3652 C   0  0  1  0  0  0  0  0  0  0  0  0
   12.3304  -16.6233   25.1752 C   0  0  0  0  0  0  0  0  0  0  0  0
   12.6807  -16.6843   23.7448 C   0  0  0  0  0  0  0  0  0  0  0  0
   12.1013  -17.5845   23.0441 O   0  0  0  0  0  0  0  0  0  0  0  0
   10.4871  -16.8755   26.8122 C   0  0  0  0  0  0  0  0  0  0  0  0
    9.7557  -16.0388   27.3939 O   0  0  0  0  0  0  0  0  0  0  0  0
   13.5621  -15.8825   23.0759 O   0  0  0  0  0  0  0  0  0  0  0  0
   10.9733  -17.9353   27.5587 O   0  0  0  0  0  0  0  0  0  0  0  0
  2  1  1  0
  3  2  1  0
  4  3  2  0
  6  7  1  0
  6  5  1  0
  7  8  1  0
  9  8  1  1
  9 11  1  0
  9 10  1  0
 10  3  1  0
 11 13  1  0
 12 11  2  0
 13 14  1  0
 14 15  1  1
 14 18  1  0
 16 17  2  0
 16 15  1  0
 18 19  2  0
 18 21  1  0
 20 16  1  0
M  END
$$$$
