GMD.pdb
     RDKit          3D

 21 20  0  0  1  0  0  0  0  0999 V2000
    6.9593  -18.3401   20.8407 N   0  0  0  0  0  0  0  0  0  0  0  0
    6.7233  -18.0255   22.2146 C   0  0  0  0  0  0  0  0  0  0  0  0
    7.8669  -17.3133   22.8417 C   0  0  0  0  0  0  0  0  0  0  0  0
    8.9442  -17.2214   22.1934 O   0  0  0  0  0  0  0  0  0  0  0  0
    9.4644  -14.1518   29.4867 C   0  0  0  0  0  0  0  0  0  0  0  0
    8.9016  -13.4642   27.9101 S   0  0  0  0  0  0  0  0  0  0  0  0
    9.5266  -14.4162   26.5000 C   0  0  0  0  0  0  0  0  0  0  0  0
    8.3641  -15.2103   25.9322 C   0  0  0  0  0  0  0  0  0  0  0  0
    8.8559  -16.1563   24.8313 C   0  0  2  0  0  0  0  0  0  0  0  0
    7.7340  -16.7559   24.1382 N   0  0  0  0  0  0  0  0  0  0  0  0
    9.6804  -17.1956   25.5176 C   0  0  0  0  0  0  0  0  0  0  0  0
    9.0707  -18.1190   26.1076 O   0  0  0  0  0  0  0  0  0  0  0  0
   11.0807  -17.1877   25.5332 N   0  0  0  0  0  0  0  0  0  0  0  0
   11.7933  -18.3826   25.9196 C   0  0  1  0  0  0  0  0  0  0  0  0
   12.9493  -18.6487   25.0177 C   0  0  0  0  0  0  0  0  0  0  0  0
   13.6898  -19.8442   25.4594 C   0  0  0  0  0  0  0  0  0  0  0  0
   13.0197  -20.7496   26.0662 O   0  0  0  0  0  0  0  0  0  0  0  0
   12.2222  -18.1725   27.3384 C   0  0  0  0  0  0  0  0  0  0  0  0
   12.1510  -17.0719   27.9358 O   0  0  0  0  0  0  0  0  0  0  0  0
   15.0222  -20.0977   25.2939 O   0  0  0  0  0  0  0  0  0  0  0  0
   12.7286  -19.2541   28.0387 O   0  0  0  0  0  0  0  0  0  0  0  0
  2  1  1  0
  3  2  1  0
  4  3  2  0
  6  7  1  0
  6  5  1  0
  7  8  1  0
  9  8  1  1
  9 11  1  0
  9 10  1  0
 10  3  1  0
 11 13  1  0
 12 11  2  0
 13 14  1  0
 14 15  1  6
 14 18  1  0
 16 17  2  0
 16 15  1  0
 18 19  2  0
 18 21  1  0
 20 16  1  0
M  END
$$$$
