GMD.pdb
     RDKit          3D

 21 20  0  0  1  0  0  0  0  0999 V2000
    7.5292  -13.6072   19.4183 N   0  0  0  0  0  0  0  0  0  0  0  0
    6.9877  -14.3821   20.4900 C   0  0  0  0  0  0  0  0  0  0  0  0
    7.7894  -14.2713   21.7363 C   0  0  0  0  0  0  0  0  0  0  0  0
    9.0108  -13.9745   21.6391 O   0  0  0  0  0  0  0  0  0  0  0  0
    7.4442  -12.1983   27.8568 C   0  0  0  0  0  0  0  0  0  0  0  0
    7.0152  -11.5088   26.2395 S   0  0  0  0  0  0  0  0  0  0  0  0
    6.2576  -12.7508   25.1584 C   0  0  0  0  0  0  0  0  0  0  0  0
    6.9747  -14.0669   25.4001 C   0  0  0  0  0  0  0  0  0  0  0  0
    7.9218  -14.3760   24.2357 C   0  0  2  0  0  0  0  0  0  0  0  0
    7.1810  -14.4967   22.9966 N   0  0  0  0  0  0  0  0  0  0  0  0
    8.5985  -15.6613   24.5837 C   0  0  0  0  0  0  0  0  0  0  0  0
    7.8979  -16.7014   24.5815 O   0  0  0  0  0  0  0  0  0  0  0  0
    9.9576  -15.7583   24.9074 N   0  0  0  0  0  0  0  0  0  0  0  0
   10.5391  -17.0578   25.1483 C   0  0  1  0  0  0  0  0  0  0  0  0
   11.9916  -17.0797   24.8163 C   0  0  0  0  0  0  0  0  0  0  0  0
   12.2042  -16.7751   23.3899 C   0  0  0  0  0  0  0  0  0  0  0  0
   12.6704  -15.6175   23.1077 O   0  0  0  0  0  0  0  0  0  0  0  0
   10.2861  -17.3674   26.5910 C   0  0  0  0  0  0  0  0  0  0  0  0
    9.7707  -16.5599   27.4006 O   0  0  0  0  0  0  0  0  0  0  0  0
   11.9574  -17.5950   22.3251 O   0  0  0  0  0  0  0  0  0  0  0  0
   10.6399  -18.6187   27.0663 O   0  0  0  0  0  0  0  0  0  0  0  0
  2  1  1  0
  3  2  1  0
  4  3  2  0
  6  7  1  0
  6  5  1  0
  7  8  1  0
  9  8  1  1
  9 11  1  0
  9 10  1  0
 10  3  1  0
 11 13  1  0
 12 11  2  0
 13 14  1  0
 14 15  1  1
 14 18  1  0
 16 17  2  0
 16 15  1  0
 18 19  2  0
 18 21  1  0
 20 16  1  0
M  END
$$$$
