GAK.pdb
     RDKit          3D

 19 18  0  0  1  0  0  0  0  0999 V2000
   21.0444  -14.6256  -18.6461 N   0  0  0  0  0  0  0  0  0  0  0  0
   21.7170  -13.3580  -18.8484 C   0  0  0  0  0  0  0  0  0  0  0  0
   21.6248  -12.5784  -17.6081 C   0  0  0  0  0  0  0  0  0  0  0  0
   20.5254  -12.4224  -17.0417 O   0  0  0  0  0  0  0  0  0  0  0  0
   24.0377  -10.8874  -15.2560 C   0  0  0  0  0  0  0  0  0  0  0  0
   22.6336  -11.1065  -15.8180 C   0  0  2  0  0  0  0  0  0  0  0  0
   22.7578  -11.9623  -16.9831 N   0  0  0  0  0  0  0  0  0  0  0  0
   21.9719   -9.8247  -16.1394 C   0  0  0  0  0  0  0  0  0  0  0  0
   22.2230   -9.2375  -17.2166 O   0  0  0  0  0  0  0  0  0  0  0  0
   21.0546   -9.2770  -15.2120 N   0  0  0  0  0  0  0  0  0  0  0  0
   20.3946   -7.9718  -15.4366 C   0  0  1  0  0  0  0  0  0  0  0  0
   18.9214   -8.0923  -15.2663 C   0  0  0  0  0  0  0  0  0  0  0  0
   18.2597   -8.7752  -16.4357 C   0  0  0  0  0  0  0  0  0  0  0  0
   16.7476   -8.8892  -16.1650 C   0  0  0  0  0  0  0  0  0  0  0  0
   16.1143   -9.5392  -17.4015 C   0  0  0  0  0  0  0  0  0  0  0  0
   14.6784   -9.6524  -17.1300 N   0  0  0  0  0  0  0  0  0  0  0  0
   21.0519   -6.9397  -14.6203 C   0  0  0  0  0  0  0  0  0  0  0  0
   21.7897   -7.2537  -13.6290 O   0  0  0  0  0  0  0  0  0  0  0  0
   20.9158   -5.5911  -14.8717 O   0  0  0  0  0  0  0  0  0  0  0  0
  2  3  1  0
  2  1  1  0
  3  7  1  0
  4  3  2  0
  6  5  1  6
  7  6  1  0
  8 10  1  0
  8  6  1  0
  9  8  2  0
 11 10  1  0
 11 17  1  0
 11 12  1  1
 13 12  1  0
 13 14  1  0
 14 15  1  0
 15 16  1  0
 17 18  2  0
 17 19  1  0
M  END
$$$$
