GAK.pdb
     RDKit          3D

 19 18  0  0  1  0  0  0  0  0999 V2000
   19.4822  -12.1495  -17.5766 N   0  0  0  0  0  0  0  0  0  0  0  0
   19.1979  -10.7876  -17.9824 C   0  0  0  0  0  0  0  0  0  0  0  0
   20.1058   -9.8874  -17.2613 C   0  0  0  0  0  0  0  0  0  0  0  0
   20.2783  -10.0167  -16.0335 O   0  0  0  0  0  0  0  0  0  0  0  0
   22.4937   -7.1164  -18.1842 C   0  0  0  0  0  0  0  0  0  0  0  0
   21.6878   -7.9185  -17.1632 C   0  0  2  0  0  0  0  0  0  0  0  0
   20.8333   -8.8308  -17.9001 N   0  0  0  0  0  0  0  0  0  0  0  0
   20.9131   -7.0340  -16.2678 C   0  0  0  0  0  0  0  0  0  0  0  0
   19.7750   -6.6349  -16.6051 O   0  0  0  0  0  0  0  0  0  0  0  0
   21.4787   -6.6490  -15.0296 N   0  0  0  0  0  0  0  0  0  0  0  0
   20.7125   -5.8877  -14.0182 C   0  0  1  0  0  0  0  0  0  0  0  0
   19.9534   -6.8100  -13.1312 C   0  0  0  0  0  0  0  0  0  0  0  0
   19.1460   -6.0759  -12.0915 C   0  0  0  0  0  0  0  0  0  0  0  0
   18.4306   -7.1004  -11.1908 C   0  0  0  0  0  0  0  0  0  0  0  0
   17.6375   -6.3071  -10.1447 C   0  0  0  0  0  0  0  0  0  0  0  0
   17.0676   -7.2868   -9.2152 N   0  0  0  0  0  0  0  0  0  0  0  0
   21.6031   -4.9339  -13.3396 C   0  0  0  0  0  0  0  0  0  0  0  0
   22.8708   -5.0565  -13.4015 O   0  0  0  0  0  0  0  0  0  0  0  0
   21.1324   -3.8648  -12.6076 O   0  0  0  0  0  0  0  0  0  0  0  0
  2  3  1  0
  2  1  1  0
  3  7  1  0
  4  3  2  0
  6  5  1  6
  7  6  1  0
  8 10  1  0
  8  6  1  0
  9  8  2  0
 11 10  1  0
 11 17  1  0
 11 12  1  1
 13 12  1  0
 13 14  1  0
 14 15  1  0
 15 16  1  0
 17 18  2  0
 17 19  1  0
M  END
$$$$
