GAK.pdb
     RDKit          3D

 19 18  0  0  1  0  0  0  0  0999 V2000
   25.4024  -21.1563  -10.3517 N   0  0  0  0  0  0  0  0  0  0  0  0
   26.3252  -21.3057  -11.4591 C   0  0  0  0  0  0  0  0  0  0  0  0
   26.0945  -20.2105  -12.4088 C   0  0  0  0  0  0  0  0  0  0  0  0
   25.0532  -19.5282  -12.3437 O   0  0  0  0  0  0  0  0  0  0  0  0
   28.1028  -18.1890  -14.7896 C   0  0  0  0  0  0  0  0  0  0  0  0
   26.7586  -18.8029  -14.4004 C   0  0  2  0  0  0  0  0  0  0  0  0
   27.0222  -19.8618  -13.4440 N   0  0  0  0  0  0  0  0  0  0  0  0
   26.0240  -19.2952  -15.5845 C   0  0  0  0  0  0  0  0  0  0  0  0
   26.2302  -20.4514  -16.0194 O   0  0  0  0  0  0  0  0  0  0  0  0
   25.0887  -18.4403  -16.2136 N   0  0  0  0  0  0  0  0  0  0  0  0
   24.2723  -18.8809  -17.3663 C   0  0  1  0  0  0  0  0  0  0  0  0
   22.9573  -18.1848  -17.3749 C   0  0  0  0  0  0  0  0  0  0  0  0
   22.1004  -18.5852  -18.5483 C   0  0  0  0  0  0  0  0  0  0  0  0
   20.8340  -17.7087  -18.5720 C   0  0  0  0  0  0  0  0  0  0  0  0
   19.9948  -18.1586  -19.7744 C   0  0  0  0  0  0  0  0  0  0  0  0
   18.6288  -18.3619  -19.2831 N   0  0  0  0  0  0  0  0  0  0  0  0
   25.0633  -18.7719  -18.6016 C   0  0  0  0  0  0  0  0  0  0  0  0
   25.7654  -17.7360  -18.8459 O   0  0  0  0  0  0  0  0  0  0  0  0
   25.0967  -19.7659  -19.5563 O   0  0  0  0  0  0  0  0  0  0  0  0
  2  3  1  0
  2  1  1  0
  3  7  1  0
  4  3  2  0
  6  5  1  6
  7  6  1  0
  8 10  1  0
  8  6  1  0
  9  8  2  0
 11 10  1  0
 11 17  1  0
 11 12  1  6
 13 12  1  0
 13 14  1  0
 14 15  1  0
 15 16  1  0
 17 18  2  0
 17 19  1  0
M  END
$$$$
