GAK.pdb
     RDKit          3D

 19 18  0  0  1  0  0  0  0  0999 V2000
   14.0227  -10.2426  -10.7509 N   0  0  0  0  0  0  0  0  0  0  0  0
   14.8312   -9.6978   -9.6787 C   0  0  0  0  0  0  0  0  0  0  0  0
   15.5771   -8.5448  -10.1971 C   0  0  0  0  0  0  0  0  0  0  0  0
   15.7191   -8.3863  -11.4254 O   0  0  0  0  0  0  0  0  0  0  0  0
   16.9911   -5.3700   -8.7663 C   0  0  0  0  0  0  0  0  0  0  0  0
   16.8900   -6.4079   -9.8833 C   0  0  2  0  0  0  0  0  0  0  0  0
   16.1748   -7.5532   -9.3525 N   0  0  0  0  0  0  0  0  0  0  0  0
   18.2235   -6.7783  -10.4019 C   0  0  0  0  0  0  0  0  0  0  0  0
   18.9550   -7.5646   -9.7578 O   0  0  0  0  0  0  0  0  0  0  0  0
   18.6552   -6.2306  -11.6328 N   0  0  0  0  0  0  0  0  0  0  0  0
   19.9610   -6.5809  -12.2341 C   0  0  1  0  0  0  0  0  0  0  0  0
   19.7757   -7.4840  -13.4020 C   0  0  0  0  0  0  0  0  0  0  0  0
   21.0731   -7.7916  -14.1047 C   0  0  0  0  0  0  0  0  0  0  0  0
   20.8003   -8.7656  -15.2663 C   0  0  0  0  0  0  0  0  0  0  0  0
   22.1371   -9.0062  -15.9786 C   0  0  0  0  0  0  0  0  0  0  0  0
   21.8669   -9.9333  -17.0813 N   0  0  0  0  0  0  0  0  0  0  0  0
   20.7321   -5.3544  -12.4882 C   0  0  0  0  0  0  0  0  0  0  0  0
   20.1580   -4.2812  -12.8680 O   0  0  0  0  0  0  0  0  0  0  0  0
   22.1003   -5.2878  -12.3331 O   0  0  0  0  0  0  0  0  0  0  0  0
  2  3  1  0
  2  1  1  0
  3  7  1  0
  4  3  2  0
  6  5  1  1
  7  6  1  0
  8 10  1  0
  8  6  1  0
  9  8  2  0
 11 10  1  0
 11 17  1  0
 11 12  1  6
 13 12  1  0
 13 14  1  0
 14 15  1  0
 15 16  1  0
 17 18  2  0
 17 19  1  0
M  END
$$$$
