GAK.pdb
     RDKit          3D

 19 18  0  0  1  0  0  0  0  0999 V2000
   16.8238  -14.6211  -15.0056 N   0  0  0  0  0  0  0  0  0  0  0  0
   16.4025  -13.2419  -14.8623 C   0  0  0  0  0  0  0  0  0  0  0  0
   17.3567  -12.3864  -15.5779 C   0  0  0  0  0  0  0  0  0  0  0  0
   18.4202  -12.8619  -16.0215 O   0  0  0  0  0  0  0  0  0  0  0  0
   17.3972   -8.8930  -16.9553 C   0  0  0  0  0  0  0  0  0  0  0  0
   18.1210  -10.1443  -16.4597 C   0  0  2  0  0  0  0  0  0  0  0  0
   17.1374  -10.9890  -15.8083 N   0  0  0  0  0  0  0  0  0  0  0  0
   19.2417   -9.8019  -15.5591 C   0  0  0  0  0  0  0  0  0  0  0  0
   19.0463   -9.6751  -14.3286 O   0  0  0  0  0  0  0  0  0  0  0  0
   20.5319   -9.6211  -16.1106 N   0  0  0  0  0  0  0  0  0  0  0  0
   21.7093   -9.3095  -15.2703 C   0  0  1  0  0  0  0  0  0  0  0  0
   22.9514   -9.8493  -15.8863 C   0  0  0  0  0  0  0  0  0  0  0  0
   24.1672   -9.6250  -15.0242 C   0  0  0  0  0  0  0  0  0  0  0  0
   25.4214  -10.0895  -15.7883 C   0  0  0  0  0  0  0  0  0  0  0  0
   25.6415  -11.5671  -15.4409 C   0  0  0  0  0  0  0  0  0  0  0  0
   26.8881  -11.9734  -16.0962 N   0  0  0  0  0  0  0  0  0  0  0  0
   21.7229   -7.8732  -14.9532 C   0  0  0  0  0  0  0  0  0  0  0  0
   21.4395   -6.9998  -15.8379 O   0  0  0  0  0  0  0  0  0  0  0  0
   22.0358   -7.3886  -13.7011 O   0  0  0  0  0  0  0  0  0  0  0  0
  2  3  1  0
  2  1  1  0
  3  7  1  0
  4  3  2  0
  6  5  1  1
  7  6  1  0
  8 10  1  0
  8  6  1  0
  9  8  2  0
 11 10  1  0
 11 17  1  0
 11 12  1  6
 13 12  1  0
 13 14  1  0
 14 15  1  0
 15 16  1  0
 17 18  2  0
 17 19  1  0
M  END
$$$$
