GAK.pdb
     RDKit          3D

 19 18  0  0  1  0  0  0  0  0999 V2000
   25.4511  -15.7772  -16.7875 N   0  0  0  0  0  0  0  0  0  0  0  0
   26.4669  -14.7747  -17.0391 C   0  0  0  0  0  0  0  0  0  0  0  0
   26.0751  -13.5336  -16.3604 C   0  0  0  0  0  0  0  0  0  0  0  0
   24.9435  -13.4249  -15.8489 O   0  0  0  0  0  0  0  0  0  0  0  0
   27.7303  -10.2549  -15.4929 C   0  0  0  0  0  0  0  0  0  0  0  0
   26.4959  -11.1361  -15.6796 C   0  0  2  0  0  0  0  0  0  0  0  0
   26.9403  -12.3971  -16.2433 N   0  0  0  0  0  0  0  0  0  0  0  0
   25.4816  -10.4760  -16.5280 C   0  0  0  0  0  0  0  0  0  0  0  0
   25.6031  -10.4783  -17.7744 O   0  0  0  0  0  0  0  0  0  0  0  0
   24.3772   -9.8452  -15.9086 N   0  0  0  0  0  0  0  0  0  0  0  0
   23.3041   -9.1927  -16.6911 C   0  0  1  0  0  0  0  0  0  0  0  0
   21.9713   -9.7270  -16.3013 C   0  0  0  0  0  0  0  0  0  0  0  0
   20.8427   -9.0602  -17.0453 C   0  0  0  0  0  0  0  0  0  0  0  0
   19.5012   -9.6217  -16.5377 C   0  0  0  0  0  0  0  0  0  0  0  0
   18.4000   -9.0430  -17.4348 C   0  0  0  0  0  0  0  0  0  0  0  0
   17.1269   -9.5675  -16.9319 N   0  0  0  0  0  0  0  0  0  0  0  0
   23.4564   -7.7317  -16.6147 C   0  0  0  0  0  0  0  0  0  0  0  0
   22.8825   -6.9640  -17.4555 O   0  0  0  0  0  0  0  0  0  0  0  0
   24.2147   -7.1104  -15.6455 O   0  0  0  0  0  0  0  0  0  0  0  0
  2  3  1  0
  2  1  1  0
  3  7  1  0
  4  3  2  0
  6  5  1  6
  7  6  1  0
  8 10  1  0
  8  6  1  0
  9  8  2  0
 11 10  1  0
 11 17  1  0
 11 12  1  1
 13 12  1  0
 13 14  1  0
 14 15  1  0
 15 16  1  0
 17 18  2  0
 17 19  1  0
M  END
$$$$
