GAK.pdb
     RDKit          3D

 19 18  0  0  1  0  0  0  0  0999 V2000
   14.2440  -13.7494  -15.2221 N   0  0  0  0  0  0  0  0  0  0  0  0
   15.0308  -12.9014  -14.3490 C   0  0  0  0  0  0  0  0  0  0  0  0
   15.8476  -12.0080  -15.1792 C   0  0  0  0  0  0  0  0  0  0  0  0
   15.5658  -11.8309  -16.3806 O   0  0  0  0  0  0  0  0  0  0  0  0
   16.7743   -9.1470  -15.7264 C   0  0  0  0  0  0  0  0  0  0  0  0
   17.7120  -10.3280  -15.4794 C   0  0  2  0  0  0  0  0  0  0  0  0
   16.9895  -11.3002  -14.6806 N   0  0  0  0  0  0  0  0  0  0  0  0
   18.9668   -9.8974  -14.8281 C   0  0  0  0  0  0  0  0  0  0  0  0
   18.9956   -9.6808  -13.5950 O   0  0  0  0  0  0  0  0  0  0  0  0
   20.1280   -9.7356  -15.6198 N   0  0  0  0  0  0  0  0  0  0  0  0
   21.4606   -9.4995  -15.0216 C   0  0  1  0  0  0  0  0  0  0  0  0
   22.5183  -10.1921  -15.8061 C   0  0  0  0  0  0  0  0  0  0  0  0
   23.8940   -9.9884  -15.2249 C   0  0  0  0  0  0  0  0  0  0  0  0
   24.9166  -10.7879  -16.0542 C   0  0  0  0  0  0  0  0  0  0  0  0
   26.2686  -10.6718  -15.3394 C   0  0  0  0  0  0  0  0  0  0  0  0
   27.2489  -11.3720  -16.1745 N   0  0  0  0  0  0  0  0  0  0  0  0
   21.6588   -8.0572  -14.8119 C   0  0  0  0  0  0  0  0  0  0  0  0
   21.3788   -7.2133  -15.7258 O   0  0  0  0  0  0  0  0  0  0  0  0
   22.1498   -7.5350  -13.6343 O   0  0  0  0  0  0  0  0  0  0  0  0
  2  3  1  0
  2  1  1  0
  3  7  1  0
  4  3  2  0
  6  5  1  1
  7  6  1  0
  8 10  1  0
  8  6  1  0
  9  8  2  0
 11 10  1  0
 11 17  1  0
 11 12  1  6
 13 12  1  0
 13 14  1  0
 14 15  1  0
 15 16  1  0
 17 18  2  0
 17 19  1  0
M  END
$$$$
