GAK.pdb
     RDKit          3D

 19 18  0  0  1  0  0  0  0  0999 V2000
   16.1600  -11.0629  -14.9646 N   0  0  0  0  0  0  0  0  0  0  0  0
   15.8036   -9.7445  -14.4797 C   0  0  0  0  0  0  0  0  0  0  0  0
   16.8895   -8.8155  -14.8145 C   0  0  0  0  0  0  0  0  0  0  0  0
   18.0049   -9.2490  -15.1638 O   0  0  0  0  0  0  0  0  0  0  0  0
   17.1594   -5.0958  -15.3470 C   0  0  0  0  0  0  0  0  0  0  0  0
   17.7803   -6.4874  -15.2329 C   0  0  2  0  0  0  0  0  0  0  0  0
   16.7459   -7.3904  -14.7642 N   0  0  0  0  0  0  0  0  0  0  0  0
   18.9592   -6.4839  -14.3415 C   0  0  0  0  0  0  0  0  0  0  0  0
   18.8121   -6.5618  -13.1003 O   0  0  0  0  0  0  0  0  0  0  0  0
   20.2496   -6.3914  -14.9140 N   0  0  0  0  0  0  0  0  0  0  0  0
   21.4805   -6.5259  -14.1039 C   0  0  1  0  0  0  0  0  0  0  0  0
   22.5215   -7.2809  -14.8523 C   0  0  0  0  0  0  0  0  0  0  0  0
   22.0866   -8.6846  -15.1876 C   0  0  0  0  0  0  0  0  0  0  0  0
   23.1645   -9.3524  -16.0622 C   0  0  0  0  0  0  0  0  0  0  0  0
   22.6601  -10.7594  -16.4063 C   0  0  0  0  0  0  0  0  0  0  0  0
   23.7386  -11.4261  -17.1417 N   0  0  0  0  0  0  0  0  0  0  0  0
   21.8854   -5.2052  -13.5987 C   0  0  0  0  0  0  0  0  0  0  0  0
   21.5554   -4.1358  -14.2096 O   0  0  0  0  0  0  0  0  0  0  0  0
   22.6329   -5.0422  -12.4519 O   0  0  0  0  0  0  0  0  0  0  0  0
  2  3  1  0
  2  1  1  0
  3  7  1  0
  4  3  2  0
  6  5  1  1
  7  6  1  0
  8 10  1  0
  8  6  1  0
  9  8  2  0
 11 10  1  0
 11 17  1  0
 11 12  1  6
 13 12  1  0
 13 14  1  0
 14 15  1  0
 15 16  1  0
 17 18  2  0
 17 19  1  0
M  END
$$$$
