RSR.pdb
     RDKit          3D

 29 28  0  0  1  0  0  0  0  0999 V2000
    8.4488  -11.7743   17.9023 N   0  0  0  0  0  0  0  0  0  0  0  0
    8.1445  -12.7724   18.8584 C   0  0  0  0  0  0  0  0  0  0  0  0
    9.0600  -13.4090   19.4855 N   0  0  0  0  0  0  0  0  0  0  0  0
    6.7768  -13.0956   19.1458 N   0  0  0  0  0  0  0  0  0  0  0  0
    6.4278  -13.9541   20.2501 C   0  0  0  0  0  0  0  0  0  0  0  0
    6.5469  -15.4006   19.9471 C   0  0  0  0  0  0  0  0  0  0  0  0
    7.6778  -16.0810   20.6046 C   0  0  0  0  0  0  0  0  0  0  0  0
    7.7951  -17.5468   20.2823 C   0  0  2  0  0  0  0  0  0  0  0  0
    6.6344  -18.3192   20.4623 N   0  0  0  0  0  0  0  0  0  0  0  0
    8.9990  -18.1448   20.9051 C   0  0  0  0  0  0  0  0  0  0  0  0
    8.8757  -18.6112   22.1081 O   0  0  0  0  0  0  0  0  0  0  0  0
    8.9157  -14.1807   20.1394 O   0  0  0  0  0  0  0  0  0  0  0  0
   12.9038  -17.5875   19.5962 C   0  0  0  0  0  0  0  0  0  0  0  0
   12.6539  -18.7923   20.2421 C   0  0  1  0  0  0  0  0  0  0  0  0
   11.4217  -18.6885   21.1043 N   0  0  0  0  0  0  0  0  0  0  0  0
   10.2658  -18.2502   20.3056 C   0  0  0  0  0  0  0  0  0  0  0  0
   11.6642  -17.6496   22.1381 O   0  0  0  0  0  0  0  0  0  0  0  0
   10.8920  -16.6828   22.3397 N   0  0  0  0  0  0  0  0  0  0  0  0
    8.5634  -15.2109   28.0737 C   0  0  0  0  0  0  0  0  0  0  0  0
    9.8561  -15.1541   28.6447 N   0  0  0  0  0  0  0  0  0  0  0  0
   10.2708  -14.1711   29.3520 N   0  0  0  0  0  0  0  0  0  0  0  0
   10.7600  -16.2446   28.4284 C   0  0  0  0  0  0  0  0  0  0  0  0
   10.6909  -16.9798   27.1886 C   0  0  0  0  0  0  0  0  0  0  0  0
   11.8657  -16.5377   26.3141 C   0  0  0  0  0  0  0  0  0  0  0  0
   11.8489  -17.3142   25.0322 C   0  0  1  0  0  0  0  0  0  0  0  0
   12.9427  -16.8493   24.0970 N   0  0  0  0  0  0  0  0  0  0  0  0
   12.8248  -17.7562   22.9363 C   0  0  0  0  0  0  0  0  0  0  0  0
   14.2440  -16.9972   24.7450 O   0  0  0  0  0  0  0  0  0  0  0  0
   14.9934  -16.0262   25.3510 O   0  0  0  0  0  0  0  0  0  0  0  0
  1  2  1  0
  2  3  2  0
  4  2  1  0
  5  4  1  0
  6  5  1  0
  7  6  1  0
  8  9  1  1
  8  7  1  0
 10  8  1  0
 11 10  2  0
 14 13  1  6
 13 12  1  0
 14 15  1  0
 15 10  1  0
 16 17  2  0
 16 14  1  0
 18 19  1  0
 19 21  1  0
 20 19  2  0
 21 22  1  0
 22 23  1  0
 23 24  1  0
 25 24  1  6
 25 26  1  0
 26 16  1  0
 27 28  1  0
 27 25  1  0
 29 27  2  0
M  END
$$$$
