RSR.pdb
     RDKit          3D

 29 28  0  0  1  0  0  0  0  0999 V2000
   11.7332  -25.0262    9.7410 N   0  0  0  0  0  0  0  0  0  0  0  0
   11.9947  -23.8035   10.4039 C   0  0  0  0  0  0  0  0  0  0  0  0
   12.7303  -22.8959    9.8824 N   0  0  0  0  0  0  0  0  0  0  0  0
   11.4297  -23.5557   11.6989 N   0  0  0  0  0  0  0  0  0  0  0  0
   10.5719  -24.5224   12.3375 C   0  0  0  0  0  0  0  0  0  0  0  0
   10.1831  -24.1587   13.7214 C   0  0  0  0  0  0  0  0  0  0  0  0
    8.8522  -24.6375   14.1378 C   0  0  0  0  0  0  0  0  0  0  0  0
    7.9516  -23.5673   14.6944 C   0  0  2  0  0  0  0  0  0  0  0  0
    7.4189  -22.6561   13.7658 N   0  0  0  0  0  0  0  0  0  0  0  0
    8.5549  -22.9119   15.8782 C   0  0  0  0  0  0  0  0  0  0  0  0
    9.0073  -21.7072   15.7238 O   0  0  0  0  0  0  0  0  0  0  0  0
   12.9837  -22.0054   10.3145 O   0  0  0  0  0  0  0  0  0  0  0  0
    7.4265  -23.7078   19.5345 C   0  0  0  0  0  0  0  0  0  0  0  0
    8.0886  -22.5047   19.3226 C   0  0  1  0  0  0  0  0  0  0  0  0
    9.1659  -22.6662   18.2805 N   0  0  0  0  0  0  0  0  0  0  0  0
    8.6811  -23.4829   17.1562 C   0  0  0  0  0  0  0  0  0  0  0  0
   10.3039  -23.3948   18.8978 O   0  0  0  0  0  0  0  0  0  0  0  0
   10.4936  -24.6259   18.7563 N   0  0  0  0  0  0  0  0  0  0  0  0
   16.6070  -23.4009   16.1250 C   0  0  0  0  0  0  0  0  0  0  0  0
   15.7561  -24.5300   16.1639 N   0  0  0  0  0  0  0  0  0  0  0  0
   15.9980  -25.6160   15.5309 N   0  0  0  0  0  0  0  0  0  0  0  0
   14.5574  -24.4704   16.9465 C   0  0  0  0  0  0  0  0  0  0  0  0
   14.2236  -23.2435   17.6290 C   0  0  0  0  0  0  0  0  0  0  0  0
   14.5160  -23.4396   19.1178 C   0  0  0  0  0  0  0  0  0  0  0  0
   13.5618  -22.6108   19.9236 C   0  0  2  0  0  0  0  0  0  0  0  0
   12.3351  -23.4076   20.3072 N   0  0  0  0  0  0  0  0  0  0  0  0
   11.2207  -22.6630   19.6848 C   0  0  0  0  0  0  0  0  0  0  0  0
   12.1971  -23.4343   21.7617 O   0  0  0  0  0  0  0  0  0  0  0  0
   12.7222  -24.3456   22.6366 O   0  0  0  0  0  0  0  0  0  0  0  0
  1  2  1  0
  2  3  2  0
  4  2  1  0
  5  4  1  0
  6  5  1  0
  7  6  1  0
  8  9  1  6
  8  7  1  0
 10  8  1  0
 11 10  2  0
 14 13  1  6
 13 12  1  0
 14 15  1  0
 15 10  1  0
 16 17  2  0
 16 14  1  0
 18 19  1  0
 19 21  1  0
 20 19  2  0
 21 22  1  0
 22 23  1  0
 23 24  1  0
 25 24  1  6
 25 26  1  0
 26 16  1  0
 27 28  1  0
 27 25  1  0
 29 27  2  0
M  END
$$$$
