RSR.pdb
     RDKit          3D

 29 28  0  0  1  0  0  0  0  0999 V2000
    8.4304  -13.8843   13.1748 N   0  0  0  0  0  0  0  0  0  0  0  0
    7.7436  -13.6870   14.3964 C   0  0  0  0  0  0  0  0  0  0  0  0
    7.7724  -12.5673   15.0146 N   0  0  0  0  0  0  0  0  0  0  0  0
    6.9894  -14.7609   14.9757 N   0  0  0  0  0  0  0  0  0  0  0  0
    7.5683  -15.6298   15.9697 C   0  0  0  0  0  0  0  0  0  0  0  0
    7.3908  -15.1518   17.3619 C   0  0  0  0  0  0  0  0  0  0  0  0
    7.8923  -16.0693   18.4014 C   0  0  0  0  0  0  0  0  0  0  0  0
    7.0999  -16.0530   19.6813 C   0  0  2  0  0  0  0  0  0  0  0  0
    5.7947  -15.5370   19.5995 N   0  0  0  0  0  0  0  0  0  0  0  0
    7.8864  -15.4820   20.7994 C   0  0  0  0  0  0  0  0  0  0  0  0
    8.7965  -14.6091   20.5002 O   0  0  0  0  0  0  0  0  0  0  0  0
    7.3320  -12.3656   15.9142 O   0  0  0  0  0  0  0  0  0  0  0  0
    7.0684  -15.7778   24.8415 C   0  0  0  0  0  0  0  0  0  0  0  0
    7.9269  -14.7880   24.3788 C   0  0  1  0  0  0  0  0  0  0  0  0
    8.6692  -15.2571   23.1534 N   0  0  0  0  0  0  0  0  0  0  0  0
    7.7331  -15.8050   22.1586 C   0  0  0  0  0  0  0  0  0  0  0  0
    9.5811  -16.3586   23.5561 O   0  0  0  0  0  0  0  0  0  0  0  0
    9.2509  -17.5679   23.5428 N   0  0  0  0  0  0  0  0  0  0  0  0
   15.0337  -14.3434   18.3420 C   0  0  0  0  0  0  0  0  0  0  0  0
   15.2125  -14.7195   19.6937 N   0  0  0  0  0  0  0  0  0  0  0  0
   16.3234  -14.5968   20.3176 N   0  0  0  0  0  0  0  0  0  0  0  0
   14.1029  -15.2687   20.4150 C   0  0  0  0  0  0  0  0  0  0  0  0
   14.3045  -15.7371   21.7649 C   0  0  0  0  0  0  0  0  0  0  0  0
   12.9541  -16.2135   22.3034 C   0  0  0  0  0  0  0  0  0  0  0  0
   13.1267  -16.7056   23.7086 C   0  0  2  0  0  0  0  0  0  0  0  0
   11.8051  -17.1391   24.3023 N   0  0  0  0  0  0  0  0  0  0  0  0
   10.8887  -16.0270   23.9753 C   0  0  0  0  0  0  0  0  0  0  0  0
   11.9400  -17.2962   25.7487 O   0  0  0  0  0  0  0  0  0  0  0  0
   12.5251  -18.3294   26.4284 O   0  0  0  0  0  0  0  0  0  0  0  0
  1  2  1  0
  2  3  2  0
  4  2  1  0
  5  4  1  0
  6  5  1  0
  7  6  1  0
  8  9  1  6
  8  7  1  0
 10  8  1  0
 11 10  2  0
 14 13  1  6
 13 12  1  0
 14 15  1  0
 15 10  1  0
 16 17  2  0
 16 14  1  0
 18 19  1  0
 19 21  1  0
 20 19  2  0
 21 22  1  0
 22 23  1  0
 23 24  1  0
 25 24  1  6
 25 26  1  0
 26 16  1  0
 27 28  1  0
 27 25  1  0
 29 27  2  0
M  END
$$$$
