RSR.pdb
     RDKit          3D

 29 28  0  0  1  0  0  0  0  0999 V2000
    7.7581  -13.2776   15.0306 N   0  0  0  0  0  0  0  0  0  0  0  0
    7.9205  -14.1122   16.1620 C   0  0  0  0  0  0  0  0  0  0  0  0
    8.6441  -15.1665   16.1257 N   0  0  0  0  0  0  0  0  0  0  0  0
    7.2620  -13.7850   17.3937 N   0  0  0  0  0  0  0  0  0  0  0  0
    7.7897  -12.7765   18.2784 C   0  0  0  0  0  0  0  0  0  0  0  0
    8.9729  -13.2184   19.0551 C   0  0  0  0  0  0  0  0  0  0  0  0
    8.6974  -14.2498   20.0721 C   0  0  0  0  0  0  0  0  0  0  0  0
    9.3398  -15.5830   19.7968 C   0  0  2  0  0  0  0  0  0  0  0  0
    8.9815  -16.2102   18.5907 N   0  0  0  0  0  0  0  0  0  0  0  0
    9.2525  -16.4807   20.9722 C   0  0  0  0  0  0  0  0  0  0  0  0
    8.2913  -17.3500   20.9853 O   0  0  0  0  0  0  0  0  0  0  0  0
    8.7742  -15.8331   16.8890 O   0  0  0  0  0  0  0  0  0  0  0  0
   11.7587  -18.8063   22.0827 C   0  0  0  0  0  0  0  0  0  0  0  0
   10.4435  -18.8580   22.5280 C   0  0  1  0  0  0  0  0  0  0  0  0
   10.0216  -17.5275   23.0976 N   0  0  0  0  0  0  0  0  0  0  0  0
   10.1212  -16.4719   22.0769 C   0  0  0  0  0  0  0  0  0  0  0  0
   10.9597  -17.1729   24.1935 O   0  0  0  0  0  0  0  0  0  0  0  0
   12.1101  -16.7154   23.9965 N   0  0  0  0  0  0  0  0  0  0  0  0
   12.9416  -18.9736   31.6405 C   0  0  0  0  0  0  0  0  0  0  0  0
   12.0067  -18.0994   32.2421 N   0  0  0  0  0  0  0  0  0  0  0  0
   11.5643  -18.2533   33.4333 N   0  0  0  0  0  0  0  0  0  0  0  0
   11.5193  -16.9800   31.4921 C   0  0  0  0  0  0  0  0  0  0  0  0
   10.6788  -17.2159   30.3431 C   0  0  0  0  0  0  0  0  0  0  0  0
   11.5077  -16.9331   29.0887 C   0  0  0  0  0  0  0  0  0  0  0  0
   10.6808  -17.2228   27.8726 C   0  0  1  0  0  0  0  0  0  0  0  0
   11.4603  -16.9546   26.6048 N   0  0  0  0  0  0  0  0  0  0  0  0
   10.5338  -17.3600   25.5274 C   0  0  0  0  0  0  0  0  0  0  0  0
   12.6716  -17.7716   26.5864 O   0  0  0  0  0  0  0  0  0  0  0  0
   13.9299  -17.4136   26.9869 O   0  0  0  0  0  0  0  0  0  0  0  0
  1  2  1  0
  2  3  2  0
  4  2  1  0
  5  4  1  0
  6  5  1  0
  7  6  1  0
  8  9  1  6
  8  7  1  0
 10  8  1  0
 11 10  2  0
 14 13  1  6
 13 12  1  0
 14 15  1  0
 15 10  1  0
 16 17  2  0
 16 14  1  0
 18 19  1  0
 19 21  1  0
 20 19  2  0
 21 22  1  0
 22 23  1  0
 23 24  1  0
 25 24  1  6
 25 26  1  0
 26 16  1  0
 27 28  1  0
 27 25  1  0
 29 27  2  0
M  END
$$$$
