RSR.pdb
     RDKit          3D

 29 28  0  0  1  0  0  0  0  0999 V2000
   12.4847  -20.4154   16.0071 N   0  0  0  0  0  0  0  0  0  0  0  0
   12.1699  -19.1715   15.4099 C   0  0  0  0  0  0  0  0  0  0  0  0
   11.5262  -19.0952   14.3069 N   0  0  0  0  0  0  0  0  0  0  0  0
   12.5765  -17.9500   16.0423 N   0  0  0  0  0  0  0  0  0  0  0  0
   12.1847  -16.6676   15.5127 C   0  0  0  0  0  0  0  0  0  0  0  0
   10.7769  -16.3032   15.8021 C   0  0  0  0  0  0  0  0  0  0  0  0
   10.5350  -15.7965   17.1654 C   0  0  0  0  0  0  0  0  0  0  0  0
    9.1211  -15.3472   17.4209 C   0  0  2  0  0  0  0  0  0  0  0  0
    8.6017  -14.3890   16.5330 N   0  0  0  0  0  0  0  0  0  0  0  0
    8.9111  -15.0000   18.8458 C   0  0  0  0  0  0  0  0  0  0  0  0
    9.9559  -14.6640   19.5353 O   0  0  0  0  0  0  0  0  0  0  0  0
   11.2266  -18.2352   13.8438 O   0  0  0  0  0  0  0  0  0  0  0  0
    5.4720  -15.5346   21.2189 C   0  0  0  0  0  0  0  0  0  0  0  0
    6.1456  -14.3222   21.3042 C   0  0  1  0  0  0  0  0  0  0  0  0
    7.5864  -14.4835   20.8911 N   0  0  0  0  0  0  0  0  0  0  0  0
    7.6765  -15.0037   19.5173 C   0  0  0  0  0  0  0  0  0  0  0  0
    8.2168  -15.4875   21.7863 O   0  0  0  0  0  0  0  0  0  0  0  0
    8.5115  -16.6499   21.4207 N   0  0  0  0  0  0  0  0  0  0  0  0
    9.8466  -16.7461   29.1790 C   0  0  0  0  0  0  0  0  0  0  0  0
   11.2435  -16.9182   29.0402 N   0  0  0  0  0  0  0  0  0  0  0  0
   11.9413  -17.6631   29.8126 N   0  0  0  0  0  0  0  0  0  0  0  0
   11.9274  -16.2292   27.9864 C   0  0  0  0  0  0  0  0  0  0  0  0
   11.1793  -15.3519   27.1185 C   0  0  0  0  0  0  0  0  0  0  0  0
   10.4966  -16.2136   26.0547 C   0  0  0  0  0  0  0  0  0  0  0  0
    9.7816  -15.3256   25.0816 C   0  0  2  0  0  0  0  0  0  0  0  0
    9.0955  -16.1356   24.0044 N   0  0  0  0  0  0  0  0  0  0  0  0
    8.4998  -15.1136   23.1189 C   0  0  0  0  0  0  0  0  0  0  0  0
    8.0604  -16.9767   24.6012 O   0  0  0  0  0  0  0  0  0  0  0  0
    8.2034  -18.2262   25.1398 O   0  0  0  0  0  0  0  0  0  0  0  0
  1  2  1  0
  2  3  2  0
  4  2  1  0
  5  4  1  0
  6  5  1  0
  7  6  1  0
  8  9  1  6
  8  7  1  0
 10  8  1  0
 11 10  2  0
 14 13  1  6
 13 12  1  0
 14 15  1  0
 15 10  1  0
 16 17  2  0
 16 14  1  0
 18 19  1  0
 19 21  1  0
 20 19  2  0
 21 22  1  0
 22 23  1  0
 23 24  1  0
 25 24  1  6
 25 26  1  0
 26 16  1  0
 27 28  1  0
 27 25  1  0
 29 27  2  0
M  END
$$$$
