RSR.pdb
     RDKit          3D

 29 28  0  0  1  0  0  0  0  0999 V2000
   16.0872  -13.2184   18.1140 N   0  0  0  0  0  0  0  0  0  0  0  0
   16.2899  -14.6150   18.0083 C   0  0  0  0  0  0  0  0  0  0  0  0
   17.3856  -15.1681   18.3695 N   0  0  0  0  0  0  0  0  0  0  0  0
   15.2504  -15.4520   17.4823 N   0  0  0  0  0  0  0  0  0  0  0  0
   13.8992  -14.9685   17.3450 C   0  0  0  0  0  0  0  0  0  0  0  0
   13.2257  -14.6934   18.6369 C   0  0  0  0  0  0  0  0  0  0  0  0
   12.3829  -15.7922   19.1433 C   0  0  0  0  0  0  0  0  0  0  0  0
   10.9032  -15.5230   19.0777 C   0  0  2  0  0  0  0  0  0  0  0  0
   10.4843  -14.5716   18.1313 N   0  0  0  0  0  0  0  0  0  0  0  0
   10.3321  -15.2986   20.4262 C   0  0  0  0  0  0  0  0  0  0  0  0
   10.2622  -14.0740   20.8451 O   0  0  0  0  0  0  0  0  0  0  0  0
   17.6222  -16.1567   18.2677 O   0  0  0  0  0  0  0  0  0  0  0  0
    8.8242  -18.2144   23.0794 C   0  0  0  0  0  0  0  0  0  0  0  0
    8.3214  -16.9191   23.0962 C   0  0  1  0  0  0  0  0  0  0  0  0
    9.3660  -15.9364   22.6317 N   0  0  0  0  0  0  0  0  0  0  0  0
    9.8594  -16.2985   21.2933 C   0  0  0  0  0  0  0  0  0  0  0  0
   10.5206  -16.0107   23.5636 O   0  0  0  0  0  0  0  0  0  0  0  0
   11.5881  -16.6101   23.2937 N   0  0  0  0  0  0  0  0  0  0  0  0
   10.1665  -17.1861   31.7049 C   0  0  0  0  0  0  0  0  0  0  0  0
   10.1128  -15.8162   31.3573 N   0  0  0  0  0  0  0  0  0  0  0  0
   10.3416  -14.8695   32.1878 N   0  0  0  0  0  0  0  0  0  0  0  0
    9.7855  -15.4533   30.0104 C   0  0  0  0  0  0  0  0  0  0  0  0
   10.8516  -15.1816   29.0766 C   0  0  0  0  0  0  0  0  0  0  0  0
   10.2180  -14.8385   27.7270 C   0  0  0  0  0  0  0  0  0  0  0  0
   11.2886  -14.3993   26.7743 C   0  0  1  0  0  0  0  0  0  0  0  0
   11.5664  -15.4630   25.7358 N   0  0  0  0  0  0  0  0  0  0  0  0
   10.4109  -15.3726   24.8191 C   0  0  0  0  0  0  0  0  0  0  0  0
   11.6241  -16.7757   26.3750 O   0  0  0  0  0  0  0  0  0  0  0  0
   12.7254  -17.4187   26.8704 O   0  0  0  0  0  0  0  0  0  0  0  0
  1  2  1  0
  2  3  2  0
  4  2  1  0
  5  4  1  0
  6  5  1  0
  7  6  1  0
  8  9  1  6
  8  7  1  0
 10  8  1  0
 11 10  2  0
 14 13  1  6
 13 12  1  0
 14 15  1  0
 15 10  1  0
 16 17  2  0
 16 14  1  0
 18 19  1  0
 19 21  1  0
 20 19  2  0
 21 22  1  0
 22 23  1  0
 23 24  1  0
 25 24  1  6
 25 26  1  0
 26 16  1  0
 27 28  1  0
 27 25  1  0
 29 27  2  0
M  END
$$$$
