RSR.pdb
     RDKit          3D

 29 28  0  0  1  0  0  0  0  0999 V2000
    7.6234  -13.1665   21.8959 N   0  0  0  0  0  0  0  0  0  0  0  0
    7.6752  -13.1396   20.4818 C   0  0  0  0  0  0  0  0  0  0  0  0
    8.1607  -12.1437   19.8423 N   0  0  0  0  0  0  0  0  0  0  0  0
    7.1728  -14.2501   19.7254 N   0  0  0  0  0  0  0  0  0  0  0  0
    7.1604  -14.2282   18.2840 C   0  0  0  0  0  0  0  0  0  0  0  0
    8.0829  -15.2073   17.6606 C   0  0  0  0  0  0  0  0  0  0  0  0
    9.2147  -15.6212   18.5102 C   0  0  0  0  0  0  0  0  0  0  0  0
   10.0770  -16.7023   17.9153 C   0  0  2  0  0  0  0  0  0  0  0  0
    9.4238  -17.8953   17.5598 N   0  0  0  0  0  0  0  0  0  0  0  0
   11.3025  -16.9224   18.7183 C   0  0  0  0  0  0  0  0  0  0  0  0
   11.3867  -18.0331   19.3808 O   0  0  0  0  0  0  0  0  0  0  0  0
    8.0574  -11.9633   18.8419 O   0  0  0  0  0  0  0  0  0  0  0  0
   14.1926  -14.0500   19.8656 C   0  0  0  0  0  0  0  0  0  0  0  0
   14.6142  -15.3397   19.5658 C   0  0  1  0  0  0  0  0  0  0  0  0
   13.4883  -16.3247   19.7525 N   0  0  0  0  0  0  0  0  0  0  0  0
   12.3834  -16.0306   18.8258 C   0  0  0  0  0  0  0  0  0  0  0  0
   12.9607  -16.1710   21.1326 O   0  0  0  0  0  0  0  0  0  0  0  0
   11.8993  -15.5605   21.4020 N   0  0  0  0  0  0  0  0  0  0  0  0
    6.4807  -18.1094   25.8853 C   0  0  0  0  0  0  0  0  0  0  0  0
    7.5810  -18.7093   25.2297 N   0  0  0  0  0  0  0  0  0  0  0  0
    7.4915  -19.7896   24.5490 N   0  0  0  0  0  0  0  0  0  0  0  0
    8.8690  -18.0885   25.3238 C   0  0  0  0  0  0  0  0  0  0  0  0
    9.9756  -18.6501   24.5873 C   0  0  0  0  0  0  0  0  0  0  0  0
   11.1721  -17.7105   24.7482 C   0  0  0  0  0  0  0  0  0  0  0  0
   11.8355  -17.5206   23.4176 C   0  0  1  0  0  0  0  0  0  0  0  0
   13.0916  -16.6884   23.5467 N   0  0  0  0  0  0  0  0  0  0  0  0
   13.6920  -16.7426   22.1975 C   0  0  0  0  0  0  0  0  0  0  0  0
   13.9820  -17.2869   24.5387 O   0  0  0  0  0  0  0  0  0  0  0  0
   15.0396  -18.1260   24.3173 O   0  0  0  0  0  0  0  0  0  0  0  0
  1  2  1  0
  2  3  2  0
  4  2  1  0
  5  4  1  0
  6  5  1  0
  7  6  1  0
  8  9  1  1
  8  7  1  0
 10  8  1  0
 11 10  2  0
 14 13  1  6
 13 12  1  0
 14 15  1  0
 15 10  1  0
 16 17  2  0
 16 14  1  0
 18 19  1  0
 19 21  1  0
 20 19  2  0
 21 22  1  0
 22 23  1  0
 23 24  1  0
 25 24  1  6
 25 26  1  0
 26 16  1  0
 27 28  1  0
 27 25  1  0
 29 27  2  0
M  END
$$$$
