RSR.pdb
     RDKit          3D

 29 28  0  0  1  0  0  0  0  0999 V2000
    6.6378  -13.1281   14.4869 N   0  0  0  0  0  0  0  0  0  0  0  0
    8.0106  -13.4124   14.2931 C   0  0  0  0  0  0  0  0  0  0  0  0
    8.5997  -13.1747   13.1826 N   0  0  0  0  0  0  0  0  0  0  0  0
    8.7809  -13.9850   15.3591 N   0  0  0  0  0  0  0  0  0  0  0  0
    8.1713  -14.3338   16.6181 C   0  0  0  0  0  0  0  0  0  0  0  0
    8.1484  -13.2249   17.6020 C   0  0  0  0  0  0  0  0  0  0  0  0
    7.4638  -13.5351   18.8704 C   0  0  0  0  0  0  0  0  0  0  0  0
    7.7599  -14.9055   19.4187 C   0  0  2  0  0  0  0  0  0  0  0  0
    6.8850  -15.9348   19.0295 N   0  0  0  0  0  0  0  0  0  0  0  0
    8.0030  -14.8647   20.8796 C   0  0  0  0  0  0  0  0  0  0  0  0
    7.1849  -14.1619   21.5983 O   0  0  0  0  0  0  0  0  0  0  0  0
    9.6002  -13.2717   12.9999 O   0  0  0  0  0  0  0  0  0  0  0  0
    7.7485  -17.6890   22.9629 C   0  0  0  0  0  0  0  0  0  0  0  0
    7.7468  -16.3857   23.4448 C   0  0  1  0  0  0  0  0  0  0  0  0
    8.9979  -15.6595   23.0205 N   0  0  0  0  0  0  0  0  0  0  0  0
    9.0454  -15.5213   21.5560 C   0  0  0  0  0  0  0  0  0  0  0  0
   10.1699  -16.4775   23.4257 O   0  0  0  0  0  0  0  0  0  0  0  0
   10.9785  -16.9774   22.6085 N   0  0  0  0  0  0  0  0  0  0  0  0
   12.0568  -19.8559   31.3712 C   0  0  0  0  0  0  0  0  0  0  0  0
   13.2595  -19.9872   30.6388 N   0  0  0  0  0  0  0  0  0  0  0  0
   14.3515  -20.4178   31.1494 N   0  0  0  0  0  0  0  0  0  0  0  0
   13.2729  -19.6225   29.2532 C   0  0  0  0  0  0  0  0  0  0  0  0
   12.2598  -18.7251   28.7526 C   0  0  0  0  0  0  0  0  0  0  0  0
   12.4685  -18.5754   27.2444 C   0  0  0  0  0  0  0  0  0  0  0  0
   11.4277  -17.6504   26.6896 C   0  0  1  0  0  0  0  0  0  0  0  0
   11.5511  -17.5267   25.1874 N   0  0  0  0  0  0  0  0  0  0  0  0
   10.3853  -16.7038   24.8033 C   0  0  0  0  0  0  0  0  0  0  0  0
   11.4800  -18.8511   24.5742 O   0  0  0  0  0  0  0  0  0  0  0  0
   10.3799  -19.4746   24.0519 O   0  0  0  0  0  0  0  0  0  0  0  0
  1  2  1  0
  2  3  2  0
  4  2  1  0
  5  4  1  0
  6  5  1  0
  7  6  1  0
  8  9  1  1
  8  7  1  0
 10  8  1  0
 11 10  2  0
 14 13  1  1
 13 12  1  0
 14 15  1  0
 15 10  1  0
 16 17  2  0
 16 14  1  0
 18 19  1  0
 19 21  1  0
 20 19  2  0
 21 22  1  0
 22 23  1  0
 23 24  1  0
 25 24  1  1
 25 26  1  0
 26 16  1  0
 27 28  1  0
 27 25  1  0
 29 27  2  0
M  END
$$$$
