RSR.pdb
     RDKit          3D

 29 28  0  0  1  0  0  0  0  0999 V2000
    6.7413  -14.5849   14.6435 N   0  0  0  0  0  0  0  0  0  0  0  0
    7.4259  -13.4178   15.0580 C   0  0  0  0  0  0  0  0  0  0  0  0
    8.0492  -12.6693   14.2285 N   0  0  0  0  0  0  0  0  0  0  0  0
    7.4348  -13.0466   16.4436 N   0  0  0  0  0  0  0  0  0  0  0  0
    6.9832  -13.9587   17.4646 C   0  0  0  0  0  0  0  0  0  0  0  0
    7.5246  -15.3319   17.3254 C   0  0  0  0  0  0  0  0  0  0  0  0
    7.1509  -16.2589   18.4094 C   0  0  0  0  0  0  0  0  0  0  0  0
    7.7601  -17.6306   18.2932 C   0  0  2  0  0  0  0  0  0  0  0  0
    6.8734  -18.6843   18.0105 N   0  0  0  0  0  0  0  0  0  0  0  0
    8.6693  -17.9185   19.4269 C   0  0  0  0  0  0  0  0  0  0  0  0
    8.1244  -18.1824   20.5729 O   0  0  0  0  0  0  0  0  0  0  0  0
    8.6114  -11.8492   14.4635 O   0  0  0  0  0  0  0  0  0  0  0  0
   12.8716  -18.0060   19.3229 C   0  0  0  0  0  0  0  0  0  0  0  0
   12.1852  -18.9503   20.0766 C   0  0  1  0  0  0  0  0  0  0  0  0
   10.8517  -18.4076   20.5236 N   0  0  0  0  0  0  0  0  0  0  0  0
   10.0735  -17.9297   19.3694 C   0  0  0  0  0  0  0  0  0  0  0  0
   11.0982  -17.2379   21.4055 O   0  0  0  0  0  0  0  0  0  0  0  0
   11.0721  -16.0513   21.0019 N   0  0  0  0  0  0  0  0  0  0  0  0
   11.2468  -16.4000   30.0417 C   0  0  0  0  0  0  0  0  0  0  0  0
   10.9416  -15.1112   29.5458 N   0  0  0  0  0  0  0  0  0  0  0  0
   10.5286  -14.1517   30.2856 N   0  0  0  0  0  0  0  0  0  0  0  0
   11.0964  -14.8506   28.1453 C   0  0  0  0  0  0  0  0  0  0  0  0
   10.7675  -15.8872   27.1968 C   0  0  0  0  0  0  0  0  0  0  0  0
   11.0282  -15.3390   25.7926 C   0  0  0  0  0  0  0  0  0  0  0  0
   10.7688  -16.4168   24.7837 C   0  0  1  0  0  0  0  0  0  0  0  0
   11.7173  -16.3077   23.6109 N   0  0  0  0  0  0  0  0  0  0  0  0
   11.3761  -17.4741   22.7703 C   0  0  0  0  0  0  0  0  0  0  0  0
   13.0981  -16.3896   24.0817 O   0  0  0  0  0  0  0  0  0  0  0  0
   13.9566  -15.3571   24.3441 O   0  0  0  0  0  0  0  0  0  0  0  0
  1  2  1  0
  2  3  2  0
  4  2  1  0
  5  4  1  0
  6  5  1  0
  7  6  1  0
  8  9  1  1
  8  7  1  0
 10  8  1  0
 11 10  2  0
 14 13  1  6
 13 12  1  0
 14 15  1  0
 15 10  1  0
 16 17  2  0
 16 14  1  0
 18 19  1  0
 19 21  1  0
 20 19  2  0
 21 22  1  0
 22 23  1  0
 23 24  1  0
 25 24  1  6
 25 26  1  0
 26 16  1  0
 27 28  1  0
 27 25  1  0
 29 27  2  0
M  END
$$$$
