NAN.pdb
     RDKit          3D

 22 21  0  0  1  0  0  0  0  0999 V2000
   10.6173  -19.1192   15.3222 N   0  0  0  0  0  0  0  0  0  0  0  0
    9.7255  -18.1795   15.8556 C   0  0  0  0  0  0  0  0  0  0  0  0
    8.6015  -18.0331   15.2775 O   0  0  0  0  0  0  0  0  0  0  0  0
    9.9638  -17.3310   17.0374 C   0  0  0  0  0  0  0  0  0  0  0  0
    9.0833  -17.7737   18.2145 C   0  0  2  0  0  0  0  0  0  0  0  0
    7.7151  -17.6018   17.8337 N   0  0  0  0  0  0  0  0  0  0  0  0
    9.4045  -16.8706   19.3340 C   0  0  0  0  0  0  0  0  0  0  0  0
   10.6094  -16.6880   19.6387 O   0  0  0  0  0  0  0  0  0  0  0  0
    7.5575  -14.6941   21.7778 C   0  0  0  0  0  0  0  0  0  0  0  0
    8.7522  -15.4365   21.2177 C   0  0  2  0  0  0  0  0  0  0  0  0
    8.3729  -16.1968   20.0817 N   0  0  0  0  0  0  0  0  0  0  0  0
    9.3936  -16.2507   22.2852 C   0  0  0  0  0  0  0  0  0  0  0  0
    8.9577  -17.3979   22.5251 O   0  0  0  0  0  0  0  0  0  0  0  0
   12.9082  -17.6392   21.9980 N   0  0  0  0  0  0  0  0  0  0  0  0
   13.2509  -16.6073   22.9057 C   0  0  0  0  0  0  0  0  0  0  0  0
   14.2144  -15.8581   22.5217 O   0  0  0  0  0  0  0  0  0  0  0  0
   12.5778  -16.3759   24.1993 C   0  0  0  0  0  0  0  0  0  0  0  0
   11.1028  -16.5150   24.1331 C   0  0  2  0  0  0  0  0  0  0  0  0
   10.4920  -15.7759   23.0523 N   0  0  0  0  0  0  0  0  0  0  0  0
   10.4269  -16.2866   25.4239 C   0  0  0  0  0  0  0  0  0  0  0  0
   10.5381  -16.9559   26.4649 O   0  0  0  0  0  0  0  0  0  0  0  0
    9.5509  -15.1841   25.4973 O   0  0  0  0  0  0  0  0  0  0  0  0
  2  1  1  0
  3  2  2  0
  4  2  1  0
  4  5  1  0
  5  6  1  6
  7  5  1  0
  8  7  2  0
 10  9  1  1
 10 11  1  0
 10 12  1  0
 11  7  1  0
 12 19  1  0
 13 12  2  0
 14 15  1  0
 15 17  1  0
 16 15  2  0
 18 17  1  1
 18 20  1  0
 19 18  1  0
 20 22  1  0
 21 20  2  0
M  END
$$$$
