NAN.pdb
     RDKit          3D

 22 21  0  0  1  0  0  0  0  0999 V2000
    6.9861  -19.8292   18.6956 N   0  0  0  0  0  0  0  0  0  0  0  0
    7.4422  -18.8974   19.6372 C   0  0  0  0  0  0  0  0  0  0  0  0
    7.1306  -17.6762   19.4627 O   0  0  0  0  0  0  0  0  0  0  0  0
    8.2595  -19.1959   20.8274 C   0  0  0  0  0  0  0  0  0  0  0  0
    7.3699  -19.4306   22.0563 C   0  0  2  0  0  0  0  0  0  0  0  0
    6.1326  -18.7442   21.8454 N   0  0  0  0  0  0  0  0  0  0  0  0
    8.0802  -18.8335   23.2013 C   0  0  0  0  0  0  0  0  0  0  0  0
    8.7621  -19.5796   23.9472 O   0  0  0  0  0  0  0  0  0  0  0  0
    5.7201  -17.2726   24.2128 C   0  0  0  0  0  0  0  0  0  0  0  0
    7.1705  -16.9862   24.5392 C   0  0  2  0  0  0  0  0  0  0  0  0
    8.0099  -17.4215   23.4817 N   0  0  0  0  0  0  0  0  0  0  0  0
    7.5243  -17.5810   25.8564 C   0  0  0  0  0  0  0  0  0  0  0  0
    6.9075  -17.2123   26.8798 O   0  0  0  0  0  0  0  0  0  0  0  0
    6.8996  -21.7109   26.2003 N   0  0  0  0  0  0  0  0  0  0  0  0
    7.4165  -20.9873   27.3027 C   0  0  0  0  0  0  0  0  0  0  0  0
    6.5628  -20.7343   28.2215 O   0  0  0  0  0  0  0  0  0  0  0  0
    8.8190  -20.5424   27.4254 C   0  0  0  0  0  0  0  0  0  0  0  0
    8.9911  -19.0770   27.2764 C   0  0  2  0  0  0  0  0  0  0  0  0
    8.5438  -18.5605   26.0034 N   0  0  0  0  0  0  0  0  0  0  0  0
   10.3390  -18.5984   27.6359 C   0  0  0  0  0  0  0  0  0  0  0  0
   11.2008  -18.1240   26.8766 O   0  0  0  0  0  0  0  0  0  0  0  0
   10.7031  -18.6838   28.9954 O   0  0  0  0  0  0  0  0  0  0  0  0
  2  1  1  0
  3  2  2  0
  4  2  1  0
  4  5  1  0
  5  6  1  6
  7  5  1  0
  8  7  2  0
 10  9  1  6
 10 11  1  0
 10 12  1  0
 11  7  1  0
 12 19  1  0
 13 12  2  0
 14 15  1  0
 15 17  1  0
 16 15  2  0
 18 17  1  6
 18 20  1  0
 19 18  1  0
 20 22  1  0
 21 20  2  0
M  END
$$$$
