NAN.pdb
     RDKit          3D

 22 21  0  0  1  0  0  0  0  0999 V2000
    7.3834  -12.4989   13.5586 N   0  0  0  0  0  0  0  0  0  0  0  0
    7.9539  -13.6826   14.0445 C   0  0  0  0  0  0  0  0  0  0  0  0
    8.3614  -14.5375   13.1948 O   0  0  0  0  0  0  0  0  0  0  0  0
    8.1314  -14.0414   15.4635 C   0  0  0  0  0  0  0  0  0  0  0  0
    8.8231  -15.4050   15.6000 C   0  0  2  0  0  0  0  0  0  0  0  0
    8.0603  -16.3647   14.8625 N   0  0  0  0  0  0  0  0  0  0  0  0
    8.7925  -15.7427   17.0343 C   0  0  0  0  0  0  0  0  0  0  0  0
    9.4670  -15.0484   17.8348 O   0  0  0  0  0  0  0  0  0  0  0  0
    6.8565  -17.9146   19.3582 C   0  0  0  0  0  0  0  0  0  0  0  0
    8.0884  -17.1526   18.9176 C   0  0  2  0  0  0  0  0  0  0  0  0
    8.0104  -16.8450   17.5349 N   0  0  0  0  0  0  0  0  0  0  0  0
    9.3154  -17.9094   19.2854 C   0  0  0  0  0  0  0  0  0  0  0  0
    9.5040  -18.2260   20.4803 O   0  0  0  0  0  0  0  0  0  0  0  0
   10.8080  -20.4748   15.4355 N   0  0  0  0  0  0  0  0  0  0  0  0
   11.7077  -19.8608   16.3408 C   0  0  0  0  0  0  0  0  0  0  0  0
   12.4821  -18.9893   15.8137 O   0  0  0  0  0  0  0  0  0  0  0  0
   11.7801  -20.1680   17.7832 C   0  0  0  0  0  0  0  0  0  0  0  0
   11.5114  -18.9972   18.6527 C   0  0  2  0  0  0  0  0  0  0  0  0
   10.2930  -18.2922   18.3272 N   0  0  0  0  0  0  0  0  0  0  0  0
   12.6649  -18.0898   18.7991 C   0  0  0  0  0  0  0  0  0  0  0  0
   13.7447  -18.3246   19.3675 O   0  0  0  0  0  0  0  0  0  0  0  0
   12.5397  -16.8048   18.2324 O   0  0  0  0  0  0  0  0  0  0  0  0
  2  1  1  0
  3  2  2  0
  4  2  1  0
  4  5  1  0
  5  6  1  6
  7  5  1  0
  8  7  2  0
 10  9  1  6
 10 11  1  0
 10 12  1  0
 11  7  1  0
 12 19  1  0
 13 12  2  0
 14 15  1  0
 15 17  1  0
 16 15  2  0
 18 17  1  6
 18 20  1  0
 19 18  1  0
 20 22  1  0
 21 20  2  0
M  END
$$$$
