YVY.pdb
     RDKit          3D

 32 33  0  0  1  0  0  0  0  0999 V2000
    0.4075  -20.7435   21.6847 O   0  0  0  0  0  0  0  0  0  0  0  0
    1.6217  -20.0798   21.7673 C   0  0  0  0  0  0  0  0  0  0  0  0
    2.6219  -20.4608   22.6249 C   0  0  0  0  0  0  0  0  0  0  0  0
    3.8180  -19.7716   22.6761 C   0  0  0  0  0  0  0  0  0  0  0  0
    4.0613  -18.6724   21.8700 C   0  0  0  0  0  0  0  0  0  0  0  0
    5.3553  -17.9353   21.9327 C   0  0  0  0  0  0  0  0  0  0  0  0
    5.9251  -17.8661   20.5427 C   0  0  2  0  0  0  0  0  0  0  0  0
    6.2721  -19.1859   20.0992 N   0  0  0  0  0  0  0  0  0  0  0  0
    7.0978  -16.9530   20.5233 C   0  0  0  0  0  0  0  0  0  0  0  0
    8.2253  -17.4081   20.2016 O   0  0  0  0  0  0  0  0  0  0  0  0
    3.0471  -18.2995   21.0118 C   0  0  0  0  0  0  0  0  0  0  0  0
    1.8381  -18.9838   20.9496 C   0  0  0  0  0  0  0  0  0  0  0  0
    9.0913  -12.4258   20.6111 C   0  0  0  0  0  0  0  0  0  0  0  0
    7.8462  -13.2799   20.6318 C   0  0  1  0  0  0  0  0  0  0  0  0
    7.0449  -13.0304   19.3856 C   0  0  0  0  0  0  0  0  0  0  0  0
    8.1802  -14.7462   20.8171 C   0  0  2  0  0  0  0  0  0  0  0  0
    7.0169  -15.5750   20.8524 N   0  0  0  0  0  0  0  0  0  0  0  0
    9.0290  -14.9235   22.0497 C   0  0  0  0  0  0  0  0  0  0  0  0
   10.1811  -14.4038   22.0050 O   0  0  0  0  0  0  0  0  0  0  0  0
    5.5137  -11.1493   26.7165 O   0  0  0  0  0  0  0  0  0  0  0  0
    6.2004  -12.3379   26.4165 C   0  0  0  0  0  0  0  0  0  0  0  0
    5.5403  -13.5435   26.5067 C   0  0  0  0  0  0  0  0  0  0  0  0
    6.2638  -14.6756   26.2007 C   0  0  0  0  0  0  0  0  0  0  0  0
    7.5895  -14.6277   25.8192 C   0  0  0  0  0  0  0  0  0  0  0  0
    8.3439  -15.8625   25.5053 C   0  0  0  0  0  0  0  0  0  0  0  0
    9.2749  -15.7559   24.3549 C   0  0  2  0  0  0  0  0  0  0  0  0
    8.5093  -15.6348   23.1474 N   0  0  0  0  0  0  0  0  0  0  0  0
   10.3113  -16.8125   24.2789 C   0  0  0  0  0  0  0  0  0  0  0  0
   10.4169  -17.5973   23.3077 O   0  0  0  0  0  0  0  0  0  0  0  0
    8.2489  -13.4216   25.7296 C   0  0  0  0  0  0  0  0  0  0  0  0
    7.5200  -12.2743   26.0383 C   0  0  0  0  0  0  0  0  0  0  0  0
   11.2277  -16.9814   25.3047 O   0  0  0  0  0  0  0  0  0  0  0  0
  2  1  1  0
  3  2  2  0
  4  3  1  0
  5 11  1  0
  5  4  2  0
  6  7  1  0
  6  5  1  0
  7  8  1  1
  9  7  1  0
  9 17  1  0
 10  9  2  0
 11 12  2  0
 12  2  1  0
 14 13  1  6
 14 15  1  0
 14 16  1  0
 16 17  1  1
 16 18  1  0
 18 27  1  0
 19 18  2  0
 20 21  1  0
 21 31  2  0
 21 22  1  0
 22 23  2  0
 23 24  1  0
 24 25  1  0
 26 25  1  1
 26 28  1  0
 27 26  1  0
 28 29  2  0
 28 32  1  0
 30 24  2  0
 31 30  1  0
M  END
$$$$
