YVY.pdb
     RDKit          3D

 32 33  0  0  1  0  0  0  0  0999 V2000
    3.2034  -23.7191   18.9099 O   0  0  0  0  0  0  0  0  0  0  0  0
    4.1268  -22.7662   19.3109 C   0  0  0  0  0  0  0  0  0  0  0  0
    5.4485  -23.0571   19.5332 C   0  0  0  0  0  0  0  0  0  0  0  0
    6.3366  -22.0772   19.9322 C   0  0  0  0  0  0  0  0  0  0  0  0
    5.9371  -20.7655   20.1250 C   0  0  0  0  0  0  0  0  0  0  0  0
    6.9032  -19.7154   20.5558 C   0  0  0  0  0  0  0  0  0  0  0  0
    6.8933  -18.6171   19.5286 C   0  0  2  0  0  0  0  0  0  0  0  0
    7.3935  -19.1208   18.2815 N   0  0  0  0  0  0  0  0  0  0  0  0
    7.6930  -17.4631   20.0164 C   0  0  0  0  0  0  0  0  0  0  0  0
    8.9384  -17.4611   19.8414 O   0  0  0  0  0  0  0  0  0  0  0  0
    4.6051  -20.4862   19.8980 C   0  0  0  0  0  0  0  0  0  0  0  0
    3.6998  -21.4623   19.4961 C   0  0  0  0  0  0  0  0  0  0  0  0
    8.1451  -12.8459   21.6716 C   0  0  0  0  0  0  0  0  0  0  0  0
    7.2364  -13.9518   21.1904 C   0  0  1  0  0  0  0  0  0  0  0  0
    6.6708  -13.5885   19.8467 C   0  0  0  0  0  0  0  0  0  0  0  0
    7.9485  -15.2890   21.1724 C   0  0  2  0  0  0  0  0  0  0  0  0
    7.1225  -16.3454   20.6791 N   0  0  0  0  0  0  0  0  0  0  0  0
    8.4879  -15.5975   22.5455 C   0  0  0  0  0  0  0  0  0  0  0  0
    7.6239  -15.7361   23.4587 O   0  0  0  0  0  0  0  0  0  0  0  0
    7.2759  -19.8011   28.2031 O   0  0  0  0  0  0  0  0  0  0  0  0
    8.0702  -19.2599   27.1782 C   0  0  0  0  0  0  0  0  0  0  0  0
    9.4038  -19.0089   27.4146 C   0  0  0  0  0  0  0  0  0  0  0  0
   10.1332  -18.4783   26.3730 C   0  0  0  0  0  0  0  0  0  0  0  0
    9.5745  -18.2030   25.1412 C   0  0  0  0  0  0  0  0  0  0  0  0
   10.3819  -17.6241   24.0432 C   0  0  0  0  0  0  0  0  0  0  0  0
   10.4050  -16.1414   23.9932 C   0  0  2  0  0  0  0  0  0  0  0  0
    9.8786  -15.7109   22.7297 N   0  0  0  0  0  0  0  0  0  0  0  0
   11.7089  -15.5170   24.3194 C   0  0  0  0  0  0  0  0  0  0  0  0
   12.5059  -15.1031   23.4454 O   0  0  0  0  0  0  0  0  0  0  0  0
    8.2408  -18.4540   24.9057 C   0  0  0  0  0  0  0  0  0  0  0  0
    7.4998  -18.9909   25.9571 C   0  0  0  0  0  0  0  0  0  0  0  0
   12.1111  -15.3629   25.6366 O   0  0  0  0  0  0  0  0  0  0  0  0
  2  1  1  0
  3  2  2  0
  4  3  1  0
  5 11  1  0
  5  4  2  0
  6  7  1  0
  6  5  1  0
  7  8  1  6
  9  7  1  0
  9 17  1  0
 10  9  2  0
 11 12  2  0
 12  2  1  0
 14 13  1  6
 14 15  1  0
 14 16  1  0
 16 17  1  1
 16 18  1  0
 18 27  1  0
 19 18  2  0
 20 21  1  0
 21 31  2  0
 21 22  1  0
 22 23  2  0
 23 24  1  0
 24 25  1  0
 26 25  1  6
 26 28  1  0
 27 26  1  0
 28 29  2  0
 28 32  1  0
 30 24  2  0
 31 30  1  0
M  END
$$$$
