YVY.pdb
     RDKit          3D

 32 33  0  0  1  0  0  0  0  0999 V2000
    5.7406  -10.5400   26.1549 O   0  0  0  0  0  0  0  0  0  0  0  0
    5.9594  -11.9087   26.1395 C   0  0  0  0  0  0  0  0  0  0  0  0
    4.9618  -12.8250   26.3547 C   0  0  0  0  0  0  0  0  0  0  0  0
    5.2224  -14.1813   26.3308 C   0  0  0  0  0  0  0  0  0  0  0  0
    6.4933  -14.6756   26.0902 C   0  0  0  0  0  0  0  0  0  0  0  0
    6.7644  -16.1411   26.0664 C   0  0  0  0  0  0  0  0  0  0  0  0
    6.2637  -16.6910   24.7594 C   0  0  2  0  0  0  0  0  0  0  0  0
    5.8133  -18.0405   24.9467 N   0  0  0  0  0  0  0  0  0  0  0  0
    7.3354  -16.6061   23.7329 C   0  0  0  0  0  0  0  0  0  0  0  0
    8.0379  -17.6213   23.4930 O   0  0  0  0  0  0  0  0  0  0  0  0
    7.4877  -13.7435   25.8753 C   0  0  0  0  0  0  0  0  0  0  0  0
    7.2401  -12.3753   25.8964 C   0  0  0  0  0  0  0  0  0  0  0  0
    9.1119  -14.5632   19.6355 C   0  0  0  0  0  0  0  0  0  0  0  0
    8.1049  -14.5506   20.7606 C   0  0  1  0  0  0  0  0  0  0  0  0
    6.7494  -14.9166   20.2259 C   0  0  0  0  0  0  0  0  0  0  0  0
    8.5348  -15.4490   21.9024 C   0  0  2  0  0  0  0  0  0  0  0  0
    7.6158  -15.4260   22.9962 N   0  0  0  0  0  0  0  0  0  0  0  0
    9.9307  -15.0856   22.3389 C   0  0  0  0  0  0  0  0  0  0  0  0
   10.2031  -13.8506   22.3425 O   0  0  0  0  0  0  0  0  0  0  0  0
   11.8380  -15.4681   30.3786 O   0  0  0  0  0  0  0  0  0  0  0  0
   11.4330  -15.6215   29.0419 C   0  0  0  0  0  0  0  0  0  0  0  0
   11.0065  -16.8544   28.5999 C   0  0  0  0  0  0  0  0  0  0  0  0
   10.6214  -16.9453   27.2801 C   0  0  0  0  0  0  0  0  0  0  0  0
   10.6534  -15.8644   26.4223 C   0  0  0  0  0  0  0  0  0  0  0  0
   10.2419  -15.9948   25.0058 C   0  0  0  0  0  0  0  0  0  0  0  0
   11.3559  -16.1557   24.0391 C   0  0  2  0  0  0  0  0  0  0  0  0
   10.8254  -16.1079   22.7068 N   0  0  0  0  0  0  0  0  0  0  0  0
   12.2314  -17.3287   24.2712 C   0  0  0  0  0  0  0  0  0  0  0  0
   11.8665  -18.5075   24.0526 O   0  0  0  0  0  0  0  0  0  0  0  0
   11.0803  -14.6319   26.8651 C   0  0  0  0  0  0  0  0  0  0  0  0
   11.4705  -14.5362   28.1997 C   0  0  0  0  0  0  0  0  0  0  0  0
   13.5207  -17.1666   24.7529 O   0  0  0  0  0  0  0  0  0  0  0  0
  2  1  1  0
  3  2  2  0
  4  3  1  0
  5 11  1  0
  5  4  2  0
  6  7  1  0
  6  5  1  0
  7  8  1  1
  9  7  1  0
  9 17  1  0
 10  9  2  0
 11 12  2  0
 12  2  1  0
 14 13  1  6
 14 15  1  0
 14 16  1  0
 16 17  1  1
 16 18  1  0
 18 27  1  0
 19 18  2  0
 20 21  1  0
 21 31  2  0
 21 22  1  0
 22 23  2  0
 23 24  1  0
 24 25  1  0
 26 25  1  1
 26 28  1  0
 27 26  1  0
 28 29  2  0
 28 32  1  0
 30 24  2  0
 31 30  1  0
M  END
$$$$
