YVY.pdb
     RDKit          3D

 32 33  0  0  1  0  0  0  0  0999 V2000
    6.9676  -20.8034   18.3069 O   0  0  0  0  0  0  0  0  0  0  0  0
    7.5059  -19.9886   19.2907 C   0  0  0  0  0  0  0  0  0  0  0  0
    8.7430  -19.4068   19.1814 C   0  0  0  0  0  0  0  0  0  0  0  0
    9.2429  -18.6007   20.1856 C   0  0  0  0  0  0  0  0  0  0  0  0
    8.5238  -18.3444   21.3409 C   0  0  0  0  0  0  0  0  0  0  0  0
    9.0720  -17.4732   22.4190 C   0  0  0  0  0  0  0  0  0  0  0  0
    8.6257  -16.0615   22.1556 C   0  0  2  0  0  0  0  0  0  0  0  0
    9.2993  -15.5531   20.9951 N   0  0  0  0  0  0  0  0  0  0  0  0
    8.8820  -15.2198   23.3536 C   0  0  0  0  0  0  0  0  0  0  0  0
   10.0273  -14.7296   23.5261 O   0  0  0  0  0  0  0  0  0  0  0  0
    7.2810  -18.9357   21.4385 C   0  0  0  0  0  0  0  0  0  0  0  0
    6.7650  -19.7493   20.4356 C   0  0  0  0  0  0  0  0  0  0  0  0
    7.4004  -12.6632   27.3095 C   0  0  0  0  0  0  0  0  0  0  0  0
    7.0468  -13.3883   26.0330 C   0  0  1  0  0  0  0  0  0  0  0  0
    6.5262  -12.4043   25.0239 C   0  0  0  0  0  0  0  0  0  0  0  0
    8.2197  -14.1885   25.5043 C   0  0  2  0  0  0  0  0  0  0  0  0
    7.8925  -14.9331   24.3296 N   0  0  0  0  0  0  0  0  0  0  0  0
    8.7633  -15.0764   26.5941 C   0  0  0  0  0  0  0  0  0  0  0  0
    8.0099  -16.0241   26.9599 O   0  0  0  0  0  0  0  0  0  0  0  0
   12.2889  -18.8907   22.9582 O   0  0  0  0  0  0  0  0  0  0  0  0
   12.1934  -18.2063   24.1815 C   0  0  0  0  0  0  0  0  0  0  0  0
   11.7289  -18.8702   25.2954 C   0  0  0  0  0  0  0  0  0  0  0  0
   11.6569  -18.1487   26.4671 C   0  0  0  0  0  0  0  0  0  0  0  0
   12.0276  -16.8213   26.5445 C   0  0  0  0  0  0  0  0  0  0  0  0
   11.9304  -16.0691   27.8163 C   0  0  0  0  0  0  0  0  0  0  0  0
   10.5622  -15.6281   28.1836 C   0  0  2  0  0  0  0  0  0  0  0  0
   10.0384  -14.8104   27.1273 N   0  0  0  0  0  0  0  0  0  0  0  0
   10.4372  -14.9976   29.5190 C   0  0  0  0  0  0  0  0  0  0  0  0
   10.7429  -15.5847   30.5830 O   0  0  0  0  0  0  0  0  0  0  0  0
   12.4917  -16.1581   25.4300 C   0  0  0  0  0  0  0  0  0  0  0  0
   12.5660  -16.8849   24.2430 C   0  0  0  0  0  0  0  0  0  0  0  0
    9.9638  -13.7016   29.6493 O   0  0  0  0  0  0  0  0  0  0  0  0
  2  1  1  0
  3  2  2  0
  4  3  1  0
  5 11  1  0
  5  4  2  0
  6  7  1  0
  6  5  1  0
  7  8  1  6
  9  7  1  0
  9 17  1  0
 10  9  2  0
 11 12  2  0
 12  2  1  0
 14 13  1  1
 14 15  1  0
 14 16  1  0
 16 17  1  6
 16 18  1  0
 18 27  1  0
 19 18  2  0
 20 21  1  0
 21 31  2  0
 21 22  1  0
 22 23  2  0
 23 24  1  0
 24 25  1  0
 26 25  1  6
 26 28  1  0
 27 26  1  0
 28 29  2  0
 28 32  1  0
 30 24  2  0
 31 30  1  0
M  END
$$$$
