YVY.pdb
     RDKit          3D

 32 33  0  0  1  0  0  0  0  0999 V2000
   10.4980  -23.8438   16.6556 O   0  0  0  0  0  0  0  0  0  0  0  0
   10.5110  -22.6772   17.4044 C   0  0  0  0  0  0  0  0  0  0  0  0
    9.3983  -22.1869   18.0388 C   0  0  0  0  0  0  0  0  0  0  0  0
    9.4541  -21.0199   18.7756 C   0  0  0  0  0  0  0  0  0  0  0  0
   10.6270  -20.2959   18.9073 C   0  0  0  0  0  0  0  0  0  0  0  0
   10.6770  -19.0376   19.7046 C   0  0  0  0  0  0  0  0  0  0  0  0
    9.8795  -17.9890   18.9794 C   0  0  2  0  0  0  0  0  0  0  0  0
   10.4553  -17.7564   17.6858 N   0  0  0  0  0  0  0  0  0  0  0  0
    9.8274  -16.7445   19.7904 C   0  0  0  0  0  0  0  0  0  0  0  0
   10.8227  -15.9756   19.8000 O   0  0  0  0  0  0  0  0  0  0  0  0
   11.7390  -20.7999   18.2643 C   0  0  0  0  0  0  0  0  0  0  0  0
   11.6976  -21.9733   17.5192 C   0  0  0  0  0  0  0  0  0  0  0  0
    7.4113  -13.2604   22.2823 C   0  0  0  0  0  0  0  0  0  0  0  0
    7.4019  -14.4390   21.3384 C   0  0  1  0  0  0  0  0  0  0  0  0
    7.0287  -13.9752   19.9590 C   0  0  0  0  0  0  0  0  0  0  0  0
    8.7240  -15.1787   21.3586 C   0  0  2  0  0  0  0  0  0  0  0  0
    8.7009  -16.3680   20.5670 N   0  0  0  0  0  0  0  0  0  0  0  0
    9.1265  -15.4642   22.7826 C   0  0  0  0  0  0  0  0  0  0  0  0
    8.4828  -16.3852   23.3632 O   0  0  0  0  0  0  0  0  0  0  0  0
   10.6357  -15.6286   31.0743 O   0  0  0  0  0  0  0  0  0  0  0  0
   10.3422  -15.4170   29.7166 C   0  0  0  0  0  0  0  0  0  0  0  0
    9.9984  -16.4885   28.9222 C   0  0  0  0  0  0  0  0  0  0  0  0
    9.7210  -16.2210   27.5993 C   0  0  0  0  0  0  0  0  0  0  0  0
    9.7786  -14.9464   27.0727 C   0  0  0  0  0  0  0  0  0  0  0  0
    9.4840  -14.6910   25.6442 C   0  0  0  0  0  0  0  0  0  0  0  0
   10.5920  -15.0020   24.7077 C   0  0  2  0  0  0  0  0  0  0  0  0
   10.1633  -14.7143   23.3689 N   0  0  0  0  0  0  0  0  0  0  0  0
   11.1793  -16.3554   24.8485 C   0  0  0  0  0  0  0  0  0  0  0  0
   10.5869  -17.3983   24.4856 O   0  0  0  0  0  0  0  0  0  0  0  0
   10.1228  -13.8755   27.8677 C   0  0  0  0  0  0  0  0  0  0  0  0
   10.4039  -14.1424   29.2066 C   0  0  0  0  0  0  0  0  0  0  0  0
   12.4379  -16.5276   25.4025 O   0  0  0  0  0  0  0  0  0  0  0  0
  2  1  1  0
  3  2  2  0
  4  3  1  0
  5 11  1  0
  5  4  2  0
  6  7  1  0
  6  5  1  0
  7  8  1  6
  9  7  1  0
  9 17  1  0
 10  9  2  0
 11 12  2  0
 12  2  1  0
 14 13  1  1
 14 15  1  0
 14 16  1  0
 16 17  1  6
 16 18  1  0
 18 27  1  0
 19 18  2  0
 20 21  1  0
 21 31  2  0
 21 22  1  0
 22 23  2  0
 23 24  1  0
 24 25  1  0
 26 25  1  1
 26 28  1  0
 27 26  1  0
 28 29  2  0
 28 32  1  0
 30 24  2  0
 31 30  1  0
M  END
$$$$
