YVY.pdb
     RDKit          3D

 32 33  0  0  1  0  0  0  0  0999 V2000
    4.2550  -24.0142   24.2159 O   0  0  0  0  0  0  0  0  0  0  0  0
    5.0131  -22.8684   24.0314 C   0  0  0  0  0  0  0  0  0  0  0  0
    4.4701  -21.6089   24.0258 C   0  0  0  0  0  0  0  0  0  0  0  0
    5.2615  -20.4924   23.8385 C   0  0  0  0  0  0  0  0  0  0  0  0
    6.6296  -20.5916   23.6491 C   0  0  0  0  0  0  0  0  0  0  0  0
    7.4751  -19.3807   23.4477 C   0  0  0  0  0  0  0  0  0  0  0  0
    7.2522  -18.8787   22.0478 C   0  0  2  0  0  0  0  0  0  0  0  0
    7.6063  -19.9033   21.1077 N   0  0  0  0  0  0  0  0  0  0  0  0
    8.0356  -17.6349   21.8274 C   0  0  0  0  0  0  0  0  0  0  0  0
    8.5020  -17.3974   20.6838 O   0  0  0  0  0  0  0  0  0  0  0  0
    7.1632  -21.8641   23.6568 C   0  0  0  0  0  0  0  0  0  0  0  0
    6.3788  -22.9970   23.8442 C   0  0  0  0  0  0  0  0  0  0  0  0
    7.1981  -15.5501   20.5196 C   0  0  0  0  0  0  0  0  0  0  0  0
    7.6728  -14.6492   21.6346 C   0  0  1  0  0  0  0  0  0  0  0  0
    6.4890  -14.1370   22.4051 C   0  0  0  0  0  0  0  0  0  0  0  0
    8.6798  -15.3487   22.5247 C   0  0  2  0  0  0  0  0  0  0  0  0
    8.2917  -16.6848   22.8499 N   0  0  0  0  0  0  0  0  0  0  0  0
    8.9269  -14.5231   23.7610 C   0  0  0  0  0  0  0  0  0  0  0  0
    7.9098  -14.2750   24.4705 O   0  0  0  0  0  0  0  0  0  0  0  0
   10.1930  -17.3587   30.9228 O   0  0  0  0  0  0  0  0  0  0  0  0
   10.0440  -16.5650   29.7729 C   0  0  0  0  0  0  0  0  0  0  0  0
    9.2910  -17.0331   28.7188 C   0  0  0  0  0  0  0  0  0  0  0  0
    9.1799  -16.2119   27.6180 C   0  0  0  0  0  0  0  0  0  0  0  0
    9.7863  -14.9737   27.5524 C   0  0  0  0  0  0  0  0  0  0  0  0
    9.6564  -14.1169   26.3518 C   0  0  0  0  0  0  0  0  0  0  0  0
   10.7660  -14.2318   25.3735 C   0  0  2  0  0  0  0  0  0  0  0  0
   10.2341  -14.0879   24.0487 N   0  0  0  0  0  0  0  0  0  0  0  0
   11.6225  -15.4316   25.5255 C   0  0  0  0  0  0  0  0  0  0  0  0
   12.7053  -15.4226   26.1562 O   0  0  0  0  0  0  0  0  0  0  0  0
   10.5394  -14.5064   28.6070 C   0  0  0  0  0  0  0  0  0  0  0  0
   10.6539  -15.3345   29.7223 C   0  0  0  0  0  0  0  0  0  0  0  0
   11.2531  -16.6423   24.9612 O   0  0  0  0  0  0  0  0  0  0  0  0
  2  1  1  0
  3  2  2  0
  4  3  1  0
  5 11  1  0
  5  4  2  0
  6  7  1  0
  6  5  1  0
  7  8  1  6
  9  7  1  0
  9 17  1  0
 10  9  2  0
 11 12  2  0
 12  2  1  0
 14 13  1  6
 14 15  1  0
 14 16  1  0
 16 17  1  1
 16 18  1  0
 18 27  1  0
 19 18  2  0
 20 21  1  0
 21 31  2  0
 21 22  1  0
 22 23  2  0
 23 24  1  0
 24 25  1  0
 26 25  1  1
 26 28  1  0
 27 26  1  0
 28 29  2  0
 28 32  1  0
 30 24  2  0
 31 30  1  0
M  END
$$$$
