YVY.pdb
     RDKit          3D

 32 33  0  0  1  0  0  0  0  0999 V2000
    9.1512  -12.8744   14.6643 O   0  0  0  0  0  0  0  0  0  0  0  0
    8.7095  -13.3077   15.9047 C   0  0  0  0  0  0  0  0  0  0  0  0
    9.2675  -14.3733   16.5635 C   0  0  0  0  0  0  0  0  0  0  0  0
    8.7972  -14.7730   17.7993 C   0  0  0  0  0  0  0  0  0  0  0  0
    7.7484  -14.1215   18.4260 C   0  0  0  0  0  0  0  0  0  0  0  0
    7.2481  -14.5605   19.7596 C   0  0  0  0  0  0  0  0  0  0  0  0
    6.9689  -16.0367   19.6948 C   0  0  2  0  0  0  0  0  0  0  0  0
    5.8712  -16.2796   18.8031 N   0  0  0  0  0  0  0  0  0  0  0  0
    6.6951  -16.5585   21.0594 C   0  0  0  0  0  0  0  0  0  0  0  0
    5.7829  -16.0320   21.7467 O   0  0  0  0  0  0  0  0  0  0  0  0
    7.1959  -13.0512   17.7528 C   0  0  0  0  0  0  0  0  0  0  0  0
    7.6590  -12.6377   16.5084 C   0  0  0  0  0  0  0  0  0  0  0  0
    6.5652  -20.0469   24.4215 C   0  0  0  0  0  0  0  0  0  0  0  0
    6.8779  -19.5884   23.0172 C   0  0  1  0  0  0  0  0  0  0  0  0
    5.7849  -20.0347   22.0879 C   0  0  0  0  0  0  0  0  0  0  0  0
    7.1077  -18.0920   22.9585 C   0  0  2  0  0  0  0  0  0  0  0  0
    7.4156  -17.6342   21.6405 N   0  0  0  0  0  0  0  0  0  0  0  0
    8.1749  -17.7012   23.9482 C   0  0  0  0  0  0  0  0  0  0  0  0
    9.3344  -18.1486   23.7139 O   0  0  0  0  0  0  0  0  0  0  0  0
   11.7402  -13.6755   30.9581 O   0  0  0  0  0  0  0  0  0  0  0  0
   10.9100  -14.0935   29.9044 C   0  0  0  0  0  0  0  0  0  0  0  0
   11.3282  -13.9230   28.6031 C   0  0  0  0  0  0  0  0  0  0  0  0
   10.4730  -14.3517   27.6115 C   0  0  0  0  0  0  0  0  0  0  0  0
    9.2491  -14.9281   27.8859 C   0  0  0  0  0  0  0  0  0  0  0  0
    8.3470  -15.3709   26.7984 C   0  0  0  0  0  0  0  0  0  0  0  0
    8.8247  -16.5415   26.0219 C   0  0  2  0  0  0  0  0  0  0  0  0
    7.8333  -16.8859   25.0435 N   0  0  0  0  0  0  0  0  0  0  0  0
    9.2651  -17.7018   26.8319 C   0  0  0  0  0  0  0  0  0  0  0  0
   10.4711  -17.9872   27.0172 O   0  0  0  0  0  0  0  0  0  0  0  0
    8.8316  -15.0980   29.1875 C   0  0  0  0  0  0  0  0  0  0  0  0
    9.6943  -14.6656   30.1933 C   0  0  0  0  0  0  0  0  0  0  0  0
    8.3387  -18.5405   27.4309 O   0  0  0  0  0  0  0  0  0  0  0  0
  2  1  1  0
  3  2  2  0
  4  3  1  0
  5 11  1  0
  5  4  2  0
  6  7  1  0
  6  5  1  0
  7  8  1  6
  9  7  1  0
  9 17  1  0
 10  9  2  0
 11 12  2  0
 12  2  1  0
 14 13  1  1
 14 15  1  0
 14 16  1  0
 16 17  1  6
 16 18  1  0
 18 27  1  0
 19 18  2  0
 20 21  1  0
 21 31  2  0
 21 22  1  0
 22 23  2  0
 23 24  1  0
 24 25  1  0
 26 25  1  1
 26 28  1  0
 27 26  1  0
 28 29  2  0
 28 32  1  0
 30 24  2  0
 31 30  1  0
M  END
$$$$
