SMA.pdb
     RDKit          3D

 20 19  0  0  1  0  0  0  0  0999 V2000
   16.2828   -7.7889  -20.4679 O   0  0  0  0  0  0  0  0  0  0  0  0
   16.6724   -7.6256  -19.1407 C   0  0  0  0  0  0  0  0  0  0  0  0
   17.3447   -8.8886  -18.6557 C   0  0  2  0  0  0  0  0  0  0  0  0
   16.3709   -9.9391  -18.5516 N   0  0  0  0  0  0  0  0  0  0  0  0
   17.9279   -8.6683  -17.3060 C   0  0  0  0  0  0  0  0  0  0  0  0
   17.2472   -8.9407  -16.2686 O   0  0  0  0  0  0  0  0  0  0  0  0
   23.3822   -9.8836  -12.1654 C   0  0  0  0  0  0  0  0  0  0  0  0
   22.5968  -10.1575  -13.7797 S   0  0  0  0  0  0  0  0  0  0  0  0
   21.4764   -8.7839  -14.1626 C   0  0  0  0  0  0  0  0  0  0  0  0
   20.8766   -9.0625  -15.5249 C   0  0  0  0  0  0  0  0  0  0  0  0
   19.8623   -7.9856  -15.8301 C   0  0  2  0  0  0  0  0  0  0  0  0
   19.2331   -8.1591  -17.1038 N   0  0  0  0  0  0  0  0  0  0  0  0
   20.4761   -6.6322  -15.7604 C   0  0  0  0  0  0  0  0  0  0  0  0
   21.4278   -6.3255  -16.5415 O   0  0  0  0  0  0  0  0  0  0  0  0
   19.6467   -3.4361  -14.1011 C   0  0  0  0  0  0  0  0  0  0  0  0
   20.6396   -4.3645  -14.7957 C   0  0  2  0  0  0  0  0  0  0  0  0
   20.0151   -5.6706  -14.8312 N   0  0  0  0  0  0  0  0  0  0  0  0
   21.8624   -4.3715  -13.9403 C   0  0  0  0  0  0  0  0  0  0  0  0
   22.5571   -3.3340  -13.9056 O   0  0  0  0  0  0  0  0  0  0  0  0
   22.1656   -5.5212  -13.2309 O   0  0  0  0  0  0  0  0  0  0  0  0
  2  3  1  0
  2  1  1  0
  3  4  1  1
  5  3  1  0
  5  6  2  0
  8  7  1  0
  9  8  1  0
  9 10  1  0
 11 10  1  6
 11 12  1  0
 11 13  1  0
 12  5  1  0
 13 17  1  0
 14 13  2  0
 16 15  1  1
 16 18  1  0
 17 16  1  0
 18 19  2  0
 18 20  1  0
M  END
$$$$
