SMA.pdb
     RDKit          3D

 20 19  0  0  1  0  0  0  0  0999 V2000
   15.2606  -10.0270  -18.3404 O   0  0  0  0  0  0  0  0  0  0  0  0
   16.1502   -9.6889  -17.3234 C   0  0  0  0  0  0  0  0  0  0  0  0
   17.2567  -10.7156  -17.2625 C   0  0  2  0  0  0  0  0  0  0  0  0
   16.7246  -11.9652  -16.7957 N   0  0  0  0  0  0  0  0  0  0  0  0
   18.3055  -10.2769  -16.3043 C   0  0  0  0  0  0  0  0  0  0  0  0
   18.0791  -10.3150  -15.0548 O   0  0  0  0  0  0  0  0  0  0  0  0
   25.7458  -10.0072  -14.1702 C   0  0  0  0  0  0  0  0  0  0  0  0
   24.4211  -10.6475  -15.2347 S   0  0  0  0  0  0  0  0  0  0  0  0
   22.9295   -9.6342  -15.0419 C   0  0  0  0  0  0  0  0  0  0  0  0
   21.8795  -10.2023  -15.9735 C   0  0  0  0  0  0  0  0  0  0  0  0
   20.6205   -9.3796  -15.8334 C   0  0  2  0  0  0  0  0  0  0  0  0
   19.5762   -9.8066  -16.7140 N   0  0  0  0  0  0  0  0  0  0  0  0
   20.8945   -7.9340  -16.0535 C   0  0  0  0  0  0  0  0  0  0  0  0
   21.3319   -7.5341  -17.1754 O   0  0  0  0  0  0  0  0  0  0  0  0
   19.9021   -4.7778  -14.5956 C   0  0  0  0  0  0  0  0  0  0  0  0
   21.0038   -5.5965  -15.2635 C   0  0  2  0  0  0  0  0  0  0  0  0
   20.6747   -6.9866  -15.0264 N   0  0  0  0  0  0  0  0  0  0  0  0
   22.2725   -5.2150  -14.5765 C   0  0  0  0  0  0  0  0  0  0  0  0
   22.7052   -4.0562  -14.7500 O   0  0  0  0  0  0  0  0  0  0  0  0
   22.9044   -6.1588  -13.7848 O   0  0  0  0  0  0  0  0  0  0  0  0
  2  3  1  0
  2  1  1  0
  3  4  1  1
  5  3  1  0
  5  6  2  0
  8  7  1  0
  9  8  1  0
  9 10  1  0
 11 10  1  6
 11 12  1  0
 11 13  1  0
 12  5  1  0
 13 17  1  0
 14 13  2  0
 16 15  1  1
 16 18  1  0
 17 16  1  0
 18 19  2  0
 18 20  1  0
M  END
$$$$
