SMA.pdb
     RDKit          3D

 20 19  0  0  1  0  0  0  0  0999 V2000
   18.0672  -13.5155  -16.3097 O   0  0  0  0  0  0  0  0  0  0  0  0
   18.9195  -12.6576  -15.6187 C   0  0  0  0  0  0  0  0  0  0  0  0
   19.0692  -11.3685  -16.3920 C   0  0  2  0  0  0  0  0  0  0  0  0
   19.7885  -11.6216  -17.6091 N   0  0  0  0  0  0  0  0  0  0  0  0
   19.8482  -10.3846  -15.5948 C   0  0  0  0  0  0  0  0  0  0  0  0
   19.4385  -10.0334  -14.4447 O   0  0  0  0  0  0  0  0  0  0  0  0
   25.5192  -12.3226  -15.5300 C   0  0  0  0  0  0  0  0  0  0  0  0
   25.4403  -10.6485  -14.8306 S   0  0  0  0  0  0  0  0  0  0  0  0
   23.7169  -10.2060  -14.4802 C   0  0  0  0  0  0  0  0  0  0  0  0
   23.3285   -9.1142  -15.4550 C   0  0  0  0  0  0  0  0  0  0  0  0
   21.8454   -8.8604  -15.3226 C   0  0  2  0  0  0  0  0  0  0  0  0
   21.0526   -9.8004  -16.0549 N   0  0  0  0  0  0  0  0  0  0  0  0
   21.4954   -7.4785  -15.7484 C   0  0  0  0  0  0  0  0  0  0  0  0
   21.5846   -7.1487  -16.9704 O   0  0  0  0  0  0  0  0  0  0  0  0
   19.4221   -4.7900  -14.8398 C   0  0  0  0  0  0  0  0  0  0  0  0
   20.8505   -5.1491  -15.2407 C   0  0  2  0  0  0  0  0  0  0  0  0
   21.0605   -6.5151  -14.8085 N   0  0  0  0  0  0  0  0  0  0  0  0
   21.7351   -4.2037  -14.4984 C   0  0  0  0  0  0  0  0  0  0  0  0
   22.3150   -4.6267  -13.4762 O   0  0  0  0  0  0  0  0  0  0  0  0
   21.8690   -2.9112  -14.9763 O   0  0  0  0  0  0  0  0  0  0  0  0
  2  3  1  0
  2  1  1  0
  3  4  1  6
  5  3  1  0
  5  6  2  0
  8  7  1  0
  9  8  1  0
  9 10  1  0
 11 10  1  6
 11 12  1  0
 11 13  1  0
 12  5  1  0
 13 17  1  0
 14 13  2  0
 16 15  1  1
 16 18  1  0
 17 16  1  0
 18 19  2  0
 18 20  1  0
M  END
$$$$
