SMA.pdb
     RDKit          3D

 20 19  0  0  1  0  0  0  0  0999 V2000
   20.7745  -10.5745  -19.4773 O   0  0  0  0  0  0  0  0  0  0  0  0
   20.6971  -11.8425  -18.9063 C   0  0  0  0  0  0  0  0  0  0  0  0
   22.0619  -12.2507  -18.4033 C   0  0  2  0  0  0  0  0  0  0  0  0
   22.0034  -13.5938  -17.8979 N   0  0  0  0  0  0  0  0  0  0  0  0
   22.4811  -11.3593  -17.2897 C   0  0  0  0  0  0  0  0  0  0  0  0
   21.9919  -11.5217  -16.1286 O   0  0  0  0  0  0  0  0  0  0  0  0
   28.1892  -12.3847  -14.7729 C   0  0  0  0  0  0  0  0  0  0  0  0
   27.6283  -10.8851  -15.6300 S   0  0  0  0  0  0  0  0  0  0  0  0
   25.8160  -10.8444  -15.6817 C   0  0  0  0  0  0  0  0  0  0  0  0
   25.4155   -9.5103  -16.2759 C   0  0  0  0  0  0  0  0  0  0  0  0
   23.9105   -9.4747  -16.4001 C   0  0  2  0  0  0  0  0  0  0  0  0
   23.4193  -10.3118  -17.4519 N   0  0  0  0  0  0  0  0  0  0  0  0
   23.4195   -8.0849  -16.6021 C   0  0  0  0  0  0  0  0  0  0  0  0
   23.6171   -7.4961  -17.7086 O   0  0  0  0  0  0  0  0  0  0  0  0
   21.1974   -5.7743  -14.7553 C   0  0  0  0  0  0  0  0  0  0  0  0
   22.2614   -6.0507  -15.8145 C   0  0  2  0  0  0  0  0  0  0  0  0
   22.7297   -7.3999  -15.5748 N   0  0  0  0  0  0  0  0  0  0  0  0
   23.3443   -5.0512  -15.5789 C   0  0  0  0  0  0  0  0  0  0  0  0
   24.3712   -5.4329  -14.9788 O   0  0  0  0  0  0  0  0  0  0  0  0
   23.1590   -3.7570  -16.0344 O   0  0  0  0  0  0  0  0  0  0  0  0
  2  3  1  0
  2  1  1  0
  3  4  1  1
  5  3  1  0
  5  6  2  0
  8  7  1  0
  9  8  1  0
  9 10  1  0
 11 10  1  6
 11 12  1  0
 11 13  1  0
 12  5  1  0
 13 17  1  0
 14 13  2  0
 16 15  1  1
 16 18  1  0
 17 16  1  0
 18 19  2  0
 18 20  1  0
M  END
$$$$
