SMA.pdb
     RDKit          3D

 20 19  0  0  1  0  0  0  0  0999 V2000
   28.5984  -19.7292  -16.7882 O   0  0  0  0  0  0  0  0  0  0  0  0
   27.3698  -20.2574  -16.3990 C   0  0  0  0  0  0  0  0  0  0  0  0
   27.5860  -21.2811  -15.3093 C   0  0  2  0  0  0  0  0  0  0  0  0
   28.0558  -22.5073  -15.8912 N   0  0  0  0  0  0  0  0  0  0  0  0
   26.3018  -21.5649  -14.6159 C   0  0  0  0  0  0  0  0  0  0  0  0
   25.6494  -22.6187  -14.8952 O   0  0  0  0  0  0  0  0  0  0  0  0
   26.3594  -21.0169   -8.0093 C   0  0  0  0  0  0  0  0  0  0  0  0
   25.8249  -20.0097   -9.4228 S   0  0  0  0  0  0  0  0  0  0  0  0
   24.7564  -20.9905  -10.5114 C   0  0  0  0  0  0  0  0  0  0  0  0
   24.3866  -20.1102  -11.6867 C   0  0  0  0  0  0  0  0  0  0  0  0
   24.5103  -20.9253  -12.9523 C   0  0  2  0  0  0  0  0  0  0  0  0
   25.7484  -20.7063  -13.6361 N   0  0  0  0  0  0  0  0  0  0  0  0
   23.3779  -20.6565  -13.8789 C   0  0  0  0  0  0  0  0  0  0  0  0
   23.3461  -19.5782  -14.5471 O   0  0  0  0  0  0  0  0  0  0  0  0
   20.7209  -22.5931  -15.4736 C   0  0  0  0  0  0  0  0  0  0  0  0
   21.2150  -21.2660  -14.9038 C   0  0  2  0  0  0  0  0  0  0  0  0
   22.3250  -21.5886  -14.0316 N   0  0  0  0  0  0  0  0  0  0  0  0
   20.0692  -20.6973  -14.1352 C   0  0  0  0  0  0  0  0  0  0  0  0
   20.1545  -20.6763  -12.8892 O   0  0  0  0  0  0  0  0  0  0  0  0
   18.9736  -20.2235  -14.8368 O   0  0  0  0  0  0  0  0  0  0  0  0
  2  3  1  0
  2  1  1  0
  3  4  1  6
  5  3  1  0
  5  6  2  0
  8  7  1  0
  9  8  1  0
  9 10  1  0
 11 10  1  1
 11 12  1  0
 11 13  1  0
 12  5  1  0
 13 17  1  0
 14 13  2  0
 16 15  1  1
 16 18  1  0
 17 16  1  0
 18 19  2  0
 18 20  1  0
M  END
$$$$
