LGK.pdb
     RDKit          3D

 22 21  0  0  1  0  0  0  0  0999 V2000
    8.3732  -13.9297   19.0366 C   0  0  0  0  0  0  0  0  0  0  0  0
    7.6259  -13.9178   20.3518 C   0  0  2  0  0  0  0  0  0  0  0  0
    6.9615  -12.5703   20.5901 C   0  0  0  0  0  0  0  0  0  0  0  0
    8.5997  -14.2406   21.4618 C   0  0  0  0  0  0  0  0  0  0  0  0
    9.2264  -15.5905   21.2969 C   0  0  2  0  0  0  0  0  0  0  0  0
    8.2376  -16.6111   21.3491 N   0  0  0  0  0  0  0  0  0  0  0  0
   10.3826  -15.7860   22.1993 C   0  0  0  0  0  0  0  0  0  0  0  0
   11.2768  -14.9084   22.1611 O   0  0  0  0  0  0  0  0  0  0  0  0
   10.5276  -16.8888   23.0838 N   0  0  0  0  0  0  0  0  0  0  0  0
   11.6412  -17.0737   23.9687 C   0  0  0  0  0  0  0  0  0  0  0  0
   11.5061  -16.4802   25.2972 C   0  0  0  0  0  0  0  0  0  0  0  0
   12.5216  -16.4064   26.0800 O   0  0  0  0  0  0  0  0  0  0  0  0
   10.3156  -15.9694   25.8048 N   0  0  0  0  0  0  0  0  0  0  0  0
   10.2526  -15.3764   27.2125 C   0  0  1  0  0  0  0  0  0  0  0  0
    8.8634  -14.8243   27.2210 C   0  0  0  0  0  0  0  0  0  0  0  0
    8.5434  -13.4652   26.8304 C   0  0  0  0  0  0  0  0  0  0  0  0
    7.1395  -13.0124   26.8617 C   0  0  0  0  0  0  0  0  0  0  0  0
    7.0322  -11.5068   26.5392 C   0  0  0  0  0  0  0  0  0  0  0  0
    5.6912  -11.0368   26.6977 N   0  0  0  0  0  0  0  0  0  0  0  0
   10.5022  -16.5596   28.0500 C   0  0  0  0  0  0  0  0  0  0  0  0
   11.0256  -16.4604   29.3636 O   0  0  0  0  0  0  0  0  0  0  0  0
   10.2771  -17.7128   27.6747 O   0  0  0  0  0  0  0  0  0  0  0  0
  2  1  1  6
  3  2  1  0
  4  5  1  0
  4  2  1  0
  5  6  1  1
  7  5  1  0
  7  8  2  0
  9  7  1  0
 10  9  1  0
 10 11  1  0
 11 13  1  0
 12 11  2  0
 13 14  1  0
 14 15  1  1
 14 20  1  0
 16 15  1  0
 17 16  1  0
 18 17  1  0
 19 18  1  0
 20 22  2  0
 20 21  1  0
M  END
$$$$
