LGK.pdb
     RDKit          3D

 22 21  0  0  1  0  0  0  0  0999 V2000
    9.2771  -13.0915   19.3231 C   0  0  0  0  0  0  0  0  0  0  0  0
    7.8649  -13.5914   19.1133 C   0  0  2  0  0  0  0  0  0  0  0  0
    7.0421  -12.5866   18.3213 C   0  0  0  0  0  0  0  0  0  0  0  0
    7.2402  -13.8512   20.4649 C   0  0  0  0  0  0  0  0  0  0  0  0
    7.9878  -14.8837   21.2505 C   0  0  2  0  0  0  0  0  0  0  0  0
    8.1459  -16.0744   20.4893 N   0  0  0  0  0  0  0  0  0  0  0  0
    7.4262  -15.0720   22.6064 C   0  0  0  0  0  0  0  0  0  0  0  0
    7.3602  -14.0516   23.3313 O   0  0  0  0  0  0  0  0  0  0  0  0
    6.9697  -16.3178   23.1156 N   0  0  0  0  0  0  0  0  0  0  0  0
    6.5500  -16.5318   24.4703 C   0  0  0  0  0  0  0  0  0  0  0  0
    7.6152  -16.8051   25.4328 C   0  0  0  0  0  0  0  0  0  0  0  0
    7.3597  -16.8327   26.6911 O   0  0  0  0  0  0  0  0  0  0  0  0
    8.9397  -17.0457   25.0813 N   0  0  0  0  0  0  0  0  0  0  0  0
   10.0257  -17.1690   26.1504 C   0  0  1  0  0  0  0  0  0  0  0  0
   10.2931  -18.6393   26.1084 C   0  0  0  0  0  0  0  0  0  0  0  0
   10.6912  -19.4105   27.2698 C   0  0  0  0  0  0  0  0  0  0  0  0
   11.0100  -20.8428   27.1154 C   0  0  0  0  0  0  0  0  0  0  0  0
   11.3201  -21.4948   28.4797 C   0  0  0  0  0  0  0  0  0  0  0  0
   11.6336  -22.8820   28.3321 N   0  0  0  0  0  0  0  0  0  0  0  0
   11.0756  -16.2875   25.6173 C   0  0  0  0  0  0  0  0  0  0  0  0
   12.1679  -15.8482   26.4067 O   0  0  0  0  0  0  0  0  0  0  0  0
   11.0826  -15.8700   24.4567 O   0  0  0  0  0  0  0  0  0  0  0  0
  2  1  1  1
  3  2  1  0
  4  5  1  0
  4  2  1  0
  5  6  1  6
  7  5  1  0
  7  8  2  0
  9  7  1  0
 10  9  1  0
 10 11  1  0
 11 13  1  0
 12 11  2  0
 13 14  1  0
 14 15  1  6
 14 20  1  0
 16 15  1  0
 17 16  1  0
 18 17  1  0
 19 18  1  0
 20 22  2  0
 20 21  1  0
M  END
$$$$
