LGK.pdb
     RDKit          3D

 22 21  0  0  1  0  0  0  0  0999 V2000
    7.3479  -21.7067   19.6436 C   0  0  0  0  0  0  0  0  0  0  0  0
    7.5870  -20.8150   18.4452 C   0  0  2  0  0  0  0  0  0  0  0  0
    8.0312  -21.6287   17.2391 C   0  0  0  0  0  0  0  0  0  0  0  0
    8.6303  -19.7847   18.8121 C   0  0  0  0  0  0  0  0  0  0  0  0
    8.1813  -18.8886   19.9246 C   0  0  2  0  0  0  0  0  0  0  0  0
    6.9067  -18.3294   19.6335 N   0  0  0  0  0  0  0  0  0  0  0  0
    9.2235  -17.9135   20.3146 C   0  0  0  0  0  0  0  0  0  0  0  0
   10.2617  -18.3830   20.8370 O   0  0  0  0  0  0  0  0  0  0  0  0
    9.1109  -16.5086   20.1319 N   0  0  0  0  0  0  0  0  0  0  0  0
   10.1434  -15.5667   20.4546 C   0  0  0  0  0  0  0  0  0  0  0  0
   10.2898  -15.2408   21.8716 C   0  0  0  0  0  0  0  0  0  0  0  0
   11.2085  -14.4308   22.2583 O   0  0  0  0  0  0  0  0  0  0  0  0
    9.4820  -15.7607   22.8780 N   0  0  0  0  0  0  0  0  0  0  0  0
    9.7652  -15.4545   24.3489 C   0  0  1  0  0  0  0  0  0  0  0  0
    8.4096  -15.0257   24.8108 C   0  0  0  0  0  0  0  0  0  0  0  0
    8.1334  -13.7131   25.3612 C   0  0  0  0  0  0  0  0  0  0  0  0
    6.7744  -13.3992   25.8424 C   0  0  0  0  0  0  0  0  0  0  0  0
    6.6721  -11.9297   26.3036 C   0  0  0  0  0  0  0  0  0  0  0  0
    5.3725  -11.6387   26.8235 N   0  0  0  0  0  0  0  0  0  0  0  0
   10.2540  -16.7524   24.8388 C   0  0  0  0  0  0  0  0  0  0  0  0
   11.0475  -16.8703   26.0074 O   0  0  0  0  0  0  0  0  0  0  0  0
   10.0122  -17.8223   24.2746 O   0  0  0  0  0  0  0  0  0  0  0  0
  2  1  1  1
  3  2  1  0
  4  5  1  0
  4  2  1  0
  5  6  1  6
  7  5  1  0
  7  8  2  0
  9  7  1  0
 10  9  1  0
 10 11  1  0
 11 13  1  0
 12 11  2  0
 13 14  1  0
 14 15  1  1
 14 20  1  0
 16 15  1  0
 17 16  1  0
 18 17  1  0
 19 18  1  0
 20 22  2  0
 20 21  1  0
M  END
$$$$
