LGK.pdb
     RDKit          3D

 22 21  0  0  1  0  0  0  0  0999 V2000
    9.1409  -12.3260   18.6538 C   0  0  0  0  0  0  0  0  0  0  0  0
    8.1743  -13.4220   18.2629 C   0  0  2  0  0  0  0  0  0  0  0  0
    6.8613  -12.8393   17.7625 C   0  0  0  0  0  0  0  0  0  0  0  0
    7.9446  -14.3121   19.4627 C   0  0  0  0  0  0  0  0  0  0  0  0
    9.2212  -14.8667   20.0149 C   0  0  2  0  0  0  0  0  0  0  0  0
    9.9393  -15.5682   19.0077 N   0  0  0  0  0  0  0  0  0  0  0  0
    9.0097  -15.6136   21.2745 C   0  0  0  0  0  0  0  0  0  0  0  0
    8.3131  -15.0483   22.1500 O   0  0  0  0  0  0  0  0  0  0  0  0
    9.5416  -16.9052   21.5359 N   0  0  0  0  0  0  0  0  0  0  0  0
    9.3855  -17.6073   22.7769 C   0  0  0  0  0  0  0  0  0  0  0  0
    9.7308  -16.8569   23.9824 C   0  0  0  0  0  0  0  0  0  0  0  0
   10.9363  -16.4573   24.1736 O   0  0  0  0  0  0  0  0  0  0  0  0
    8.8213  -16.5287   24.9829 N   0  0  0  0  0  0  0  0  0  0  0  0
    9.2777  -15.8145   26.2553 C   0  0  1  0  0  0  0  0  0  0  0  0
    8.0398  -15.0541   26.6079 C   0  0  0  0  0  0  0  0  0  0  0  0
    7.9234  -13.6151   26.4752 C   0  0  0  0  0  0  0  0  0  0  0  0
    6.6599  -12.9515   26.8496 C   0  0  0  0  0  0  0  0  0  0  0  0
    6.7015  -11.4449   26.5164 C   0  0  0  0  0  0  0  0  0  0  0  0
    5.5111  -10.7843   26.9527 N   0  0  0  0  0  0  0  0  0  0  0  0
    9.6328  -16.9458   27.1257 C   0  0  0  0  0  0  0  0  0  0  0  0
   10.4848  -16.7982   28.2489 O   0  0  0  0  0  0  0  0  0  0  0  0
    9.2201  -18.0938   26.9440 O   0  0  0  0  0  0  0  0  0  0  0  0
  2  1  1  1
  3  2  1  0
  4  5  1  0
  4  2  1  0
  5  6  1  6
  7  5  1  0
  7  8  2  0
  9  7  1  0
 10  9  1  0
 10 11  1  0
 11 13  1  0
 12 11  2  0
 13 14  1  0
 14 15  1  1
 14 20  1  0
 16 15  1  0
 17 16  1  0
 18 17  1  0
 19 18  1  0
 20 22  2  0
 20 21  1  0
M  END
$$$$
