LGK.pdb
     RDKit          3D

 22 21  0  0  1  0  0  0  0  0999 V2000
    9.3996  -13.2645   19.2613 C   0  0  0  0  0  0  0  0  0  0  0  0
    7.8996  -13.4514   19.3186 C   0  0  2  0  0  0  0  0  0  0  0  0
    7.1792  -12.1140   19.2389 C   0  0  0  0  0  0  0  0  0  0  0  0
    7.5528  -14.1729   20.6006 C   0  0  0  0  0  0  0  0  0  0  0  0
    8.1217  -15.5572   20.6486 C   0  0  2  0  0  0  0  0  0  0  0  0
    7.6171  -16.3432   19.5762 N   0  0  0  0  0  0  0  0  0  0  0  0
    7.9983  -16.1681   21.9905 C   0  0  0  0  0  0  0  0  0  0  0  0
    6.8352  -16.3120   22.4350 O   0  0  0  0  0  0  0  0  0  0  0  0
    9.1020  -16.5892   22.7806 N   0  0  0  0  0  0  0  0  0  0  0  0
    9.0086  -16.9736   24.1593 C   0  0  0  0  0  0  0  0  0  0  0  0
    9.5804  -16.0359   25.1234 C   0  0  0  0  0  0  0  0  0  0  0  0
   10.4575  -15.1759   24.7485 O   0  0  0  0  0  0  0  0  0  0  0  0
    9.2386  -15.9997   26.4716 N   0  0  0  0  0  0  0  0  0  0  0  0
    9.9352  -15.0359   27.4324 C   0  0  1  0  0  0  0  0  0  0  0  0
    8.7738  -14.2178   27.8980 C   0  0  0  0  0  0  0  0  0  0  0  0
    8.1130  -13.2281   27.0698 C   0  0  0  0  0  0  0  0  0  0  0  0
    6.9724  -12.4687   27.6167 C   0  0  0  0  0  0  0  0  0  0  0  0
    6.4713  -11.4125   26.6088 C   0  0  0  0  0  0  0  0  0  0  0  0
    5.3084  -10.7398   27.0978 N   0  0  0  0  0  0  0  0  0  0  0  0
   10.5301  -15.9608   28.4093 C   0  0  0  0  0  0  0  0  0  0  0  0
   11.5841  -15.5731   29.2742 O   0  0  0  0  0  0  0  0  0  0  0  0
   10.1599  -17.1294   28.5459 O   0  0  0  0  0  0  0  0  0  0  0  0
  2  1  1  1
  3  2  1  0
  4  5  1  0
  4  2  1  0
  5  6  1  6
  7  5  1  0
  7  8  2  0
  9  7  1  0
 10  9  1  0
 10 11  1  0
 11 13  1  0
 12 11  2  0
 13 14  1  0
 14 15  1  1
 14 20  1  0
 16 15  1  0
 17 16  1  0
 18 17  1  0
 19 18  1  0
 20 22  2  0
 20 21  1  0
M  END
$$$$
