LGK.pdb
     RDKit          3D

 22 21  0  0  1  0  0  0  0  0999 V2000
    9.5571  -12.6017   20.1890 C   0  0  0  0  0  0  0  0  0  0  0  0
    8.2948  -13.2787   19.7026 C   0  0  2  0  0  0  0  0  0  0  0  0
    7.4053  -12.3001   18.9508 C   0  0  0  0  0  0  0  0  0  0  0  0
    7.5687  -13.8577   20.8951 C   0  0  0  0  0  0  0  0  0  0  0  0
    8.3776  -14.8982   21.6061 C   0  0  2  0  0  0  0  0  0  0  0  0
    9.0243  -15.7538   20.6724 N   0  0  0  0  0  0  0  0  0  0  0  0
    7.6021  -15.5875   22.6609 C   0  0  0  0  0  0  0  0  0  0  0  0
    7.1041  -16.6963   22.3550 O   0  0  0  0  0  0  0  0  0  0  0  0
    7.3983  -15.0705   23.9689 N   0  0  0  0  0  0  0  0  0  0  0  0
    6.6293  -15.7269   24.9863 C   0  0  0  0  0  0  0  0  0  0  0  0
    7.3217  -16.7747   25.7334 C   0  0  0  0  0  0  0  0  0  0  0  0
    6.7038  -17.4373   26.6437 O   0  0  0  0  0  0  0  0  0  0  0  0
    8.6529  -17.1255   25.5314 N   0  0  0  0  0  0  0  0  0  0  0  0
    9.3175  -18.2076   26.3826 C   0  0  1  0  0  0  0  0  0  0  0  0
    9.8822  -19.0925   25.3181 C   0  0  0  0  0  0  0  0  0  0  0  0
   10.1278  -20.5089   25.5065 C   0  0  0  0  0  0  0  0  0  0  0  0
   10.6947  -21.3009   24.3982 C   0  0  0  0  0  0  0  0  0  0  0  0
   10.9506  -22.7605   24.8302 C   0  0  0  0  0  0  0  0  0  0  0  0
   11.5611  -23.5130   23.7789 N   0  0  0  0  0  0  0  0  0  0  0  0
   10.2784  -17.4227   27.1726 C   0  0  0  0  0  0  0  0  0  0  0  0
   10.4777  -16.0353   26.9609 O   0  0  0  0  0  0  0  0  0  0  0  0
   10.9742  -17.9088   28.0675 O   0  0  0  0  0  0  0  0  0  0  0  0
  2  1  1  1
  3  2  1  0
  4  5  1  0
  4  2  1  0
  5  6  1  6
  7  5  1  0
  7  8  2  0
  9  7  1  0
 10  9  1  0
 10 11  1  0
 11 13  1  0
 12 11  2  0
 13 14  1  0
 14 15  1  6
 14 20  1  0
 16 15  1  0
 17 16  1  0
 18 17  1  0
 19 18  1  0
 20 22  2  0
 20 21  1  0
M  END
$$$$
