LGK.pdb
     RDKit          3D

 22 21  0  0  1  0  0  0  0  0999 V2000
    9.0902  -12.4388   20.2183 C   0  0  0  0  0  0  0  0  0  0  0  0
    8.2194  -13.5811   19.7437 C   0  0  2  0  0  0  0  0  0  0  0  0
    7.3583  -13.1575   18.5635 C   0  0  0  0  0  0  0  0  0  0  0  0
    7.3597  -14.0430   20.8979 C   0  0  0  0  0  0  0  0  0  0  0  0
    8.1717  -14.4382   22.0923 C   0  0  2  0  0  0  0  0  0  0  0  0
    9.1096  -15.4500   21.7474 N   0  0  0  0  0  0  0  0  0  0  0  0
    7.3278  -14.7360   23.2706 C   0  0  0  0  0  0  0  0  0  0  0  0
    6.3838  -13.9431   23.4974 O   0  0  0  0  0  0  0  0  0  0  0  0
    7.5272  -15.8457   24.1356 N   0  0  0  0  0  0  0  0  0  0  0  0
    6.6643  -16.1814   25.2311 C   0  0  0  0  0  0  0  0  0  0  0  0
    6.9792  -17.4232   25.9342 C   0  0  0  0  0  0  0  0  0  0  0  0
    6.2328  -17.8295   26.8972 O   0  0  0  0  0  0  0  0  0  0  0  0
    8.0694  -18.2337   25.6335 N   0  0  0  0  0  0  0  0  0  0  0  0
    8.5024  -19.3513   26.5828 C   0  0  1  0  0  0  0  0  0  0  0  0
    8.7397  -20.4645   25.6135 C   0  0  0  0  0  0  0  0  0  0  0  0
    7.6708  -21.2222   24.9928 C   0  0  0  0  0  0  0  0  0  0  0  0
    7.9983  -22.2407   23.9767 C   0  0  0  0  0  0  0  0  0  0  0  0
    6.7186  -22.8521   23.3677 C   0  0  0  0  0  0  0  0  0  0  0  0
    7.0335  -23.8548   22.3984 N   0  0  0  0  0  0  0  0  0  0  0  0
    9.6894  -18.7622   27.2211 C   0  0  0  0  0  0  0  0  0  0  0  0
   10.2427  -19.2837   28.4174 O   0  0  0  0  0  0  0  0  0  0  0  0
   10.2840  -17.7814   26.7676 O   0  0  0  0  0  0  0  0  0  0  0  0
  2  1  1  1
  3  2  1  0
  4  5  1  0
  4  2  1  0
  5  6  1  6
  7  5  1  0
  7  8  2  0
  9  7  1  0
 10  9  1  0
 10 11  1  0
 11 13  1  0
 12 11  2  0
 13 14  1  0
 14 15  1  6
 14 20  1  0
 16 15  1  0
 17 16  1  0
 18 17  1  0
 19 18  1  0
 20 22  2  0
 20 21  1  0
M  END
$$$$
