LGK.pdb
     RDKit          3D

 22 21  0  0  1  0  0  0  0  0999 V2000
    8.6004  -13.4853   18.9311 C   0  0  0  0  0  0  0  0  0  0  0  0
    7.4429  -13.7588   19.8658 C   0  0  2  0  0  0  0  0  0  0  0  0
    6.8249  -12.4612   20.3639 C   0  0  0  0  0  0  0  0  0  0  0  0
    7.9443  -14.5937   21.0217 C   0  0  0  0  0  0  0  0  0  0  0  0
    8.4785  -15.9205   20.5784 C   0  0  2  0  0  0  0  0  0  0  0  0
    7.4158  -16.7886   20.2054 N   0  0  0  0  0  0  0  0  0  0  0  0
    9.4457  -16.4867   21.5443 C   0  0  0  0  0  0  0  0  0  0  0  0
    9.0800  -17.5112   22.1670 O   0  0  0  0  0  0  0  0  0  0  0  0
   10.7345  -15.9430   21.7956 N   0  0  0  0  0  0  0  0  0  0  0  0
   11.6803  -16.5001   22.7188 C   0  0  0  0  0  0  0  0  0  0  0  0
   11.3045  -16.4429   24.1298 C   0  0  0  0  0  0  0  0  0  0  0  0
   12.1661  -16.7193   25.0413 O   0  0  0  0  0  0  0  0  0  0  0  0
   10.0348  -16.1011   24.5846 N   0  0  0  0  0  0  0  0  0  0  0  0
    9.7432  -15.9785   26.0803 C   0  0  1  0  0  0  0  0  0  0  0  0
    8.4304  -15.2637   26.0511 C   0  0  0  0  0  0  0  0  0  0  0  0
    8.3014  -13.8275   26.2014 C   0  0  0  0  0  0  0  0  0  0  0  0
    6.9574  -13.2233   26.2756 C   0  0  0  0  0  0  0  0  0  0  0  0
    7.0435  -11.6918   26.4476 C   0  0  0  0  0  0  0  0  0  0  0  0
    5.7422  -11.1034   26.5134 N   0  0  0  0  0  0  0  0  0  0  0  0
    9.7227  -17.3880   26.5004 C   0  0  0  0  0  0  0  0  0  0  0  0
    9.9607  -17.7817   27.8412 O   0  0  0  0  0  0  0  0  0  0  0  0
    9.4997  -18.3210   25.7252 O   0  0  0  0  0  0  0  0  0  0  0  0
  2  1  1  6
  3  2  1  0
  4  5  1  0
  4  2  1  0
  5  6  1  1
  7  5  1  0
  7  8  2  0
  9  7  1  0
 10  9  1  0
 10 11  1  0
 11 13  1  0
 12 11  2  0
 13 14  1  0
 14 15  1  6
 14 20  1  0
 16 15  1  0
 17 16  1  0
 18 17  1  0
 19 18  1  0
 20 22  2  0
 20 21  1  0
M  END
$$$$
