LGK.pdb
     RDKit          3D

 22 21  0  0  1  0  0  0  0  0999 V2000
    7.7404  -13.9115   18.4070 C   0  0  0  0  0  0  0  0  0  0  0  0
    7.3917  -13.6595   19.8572 C   0  0  2  0  0  0  0  0  0  0  0  0
    6.8988  -12.2348   20.0607 C   0  0  0  0  0  0  0  0  0  0  0  0
    8.6161  -13.9302   20.7010 C   0  0  0  0  0  0  0  0  0  0  0  0
    9.0606  -15.3579   20.6209 C   0  0  2  0  0  0  0  0  0  0  0  0
    7.9906  -16.2345   20.9510 N   0  0  0  0  0  0  0  0  0  0  0  0
   10.3208  -15.5953   21.3589 C   0  0  0  0  0  0  0  0  0  0  0  0
   11.2602  -14.7967   21.1333 O   0  0  0  0  0  0  0  0  0  0  0  0
   10.5156  -16.6544   22.2862 N   0  0  0  0  0  0  0  0  0  0  0  0
   11.6486  -16.7660   23.1587 C   0  0  0  0  0  0  0  0  0  0  0  0
   11.3806  -16.5661   24.5813 C   0  0  0  0  0  0  0  0  0  0  0  0
   12.3429  -16.5924   25.4316 O   0  0  0  0  0  0  0  0  0  0  0  0
   10.1139  -16.3424   25.1115 N   0  0  0  0  0  0  0  0  0  0  0  0
    9.8954  -16.2798   26.6234 C   0  0  1  0  0  0  0  0  0  0  0  0
    8.5852  -15.5625   26.6866 C   0  0  0  0  0  0  0  0  0  0  0  0
    8.4472  -14.1348   26.4749 C   0  0  0  0  0  0  0  0  0  0  0  0
    7.1110  -13.5146   26.5580 C   0  0  0  0  0  0  0  0  0  0  0  0
    7.1966  -11.9822   26.3937 C   0  0  0  0  0  0  0  0  0  0  0  0
    5.9023  -11.3796   26.4689 N   0  0  0  0  0  0  0  0  0  0  0  0
    9.8904  -17.7050   26.9870 C   0  0  0  0  0  0  0  0  0  0  0  0
    9.8264  -18.7341   26.0142 O   0  0  0  0  0  0  0  0  0  0  0  0
    9.9407  -18.1053   28.1526 O   0  0  0  0  0  0  0  0  0  0  0  0
  2  1  1  6
  3  2  1  0
  4  5  1  0
  4  2  1  0
  5  6  1  1
  7  5  1  0
  7  8  2  0
  9  7  1  0
 10  9  1  0
 10 11  1  0
 11 13  1  0
 12 11  2  0
 13 14  1  0
 14 15  1  6
 14 20  1  0
 16 15  1  0
 17 16  1  0
 18 17  1  0
 19 18  1  0
 20 22  2  0
 20 21  1  0
M  END
$$$$
