LGK.pdb
     RDKit          3D

 22 21  0  0  1  0  0  0  0  0999 V2000
    9.6639  -12.9224   18.6547 C   0  0  0  0  0  0  0  0  0  0  0  0
    8.2160  -13.3401   18.5228 C   0  0  2  0  0  0  0  0  0  0  0  0
    7.2898  -12.1372   18.6184 C   0  0  0  0  0  0  0  0  0  0  0  0
    7.9043  -14.3459   19.6070 C   0  0  0  0  0  0  0  0  0  0  0  0
    8.9224  -15.4416   19.6794 C   0  0  2  0  0  0  0  0  0  0  0  0
    8.7887  -16.3229   18.5715 N   0  0  0  0  0  0  0  0  0  0  0  0
    8.9488  -16.0960   21.0061 C   0  0  0  0  0  0  0  0  0  0  0  0
    7.9039  -16.0102   21.6932 O   0  0  0  0  0  0  0  0  0  0  0  0
   10.0686  -16.7985   21.5277 N   0  0  0  0  0  0  0  0  0  0  0  0
   10.0874  -17.4563   22.8022 C   0  0  0  0  0  0  0  0  0  0  0  0
   10.1394  -16.5811   23.9714 C   0  0  0  0  0  0  0  0  0  0  0  0
   11.0889  -15.7257   24.0984 O   0  0  0  0  0  0  0  0  0  0  0  0
    9.2053  -16.6023   25.0023 N   0  0  0  0  0  0  0  0  0  0  0  0
    9.4121  -15.7675   26.2664 C   0  0  1  0  0  0  0  0  0  0  0  0
    8.0597  -15.1483   26.4164 C   0  0  0  0  0  0  0  0  0  0  0  0
    7.8530  -13.7327   26.6520 C   0  0  0  0  0  0  0  0  0  0  0  0
    6.4780  -13.2047   26.7391 C   0  0  0  0  0  0  0  0  0  0  0  0
    6.4802  -11.6727   26.9277 C   0  0  0  0  0  0  0  0  0  0  0  0
    5.1525  -11.1686   27.0921 N   0  0  0  0  0  0  0  0  0  0  0  0
    9.7844  -16.7960   27.2498 C   0  0  0  0  0  0  0  0  0  0  0  0
    9.8780  -18.1691   26.9104 O   0  0  0  0  0  0  0  0  0  0  0  0
   10.0394  -16.5421   28.4296 O   0  0  0  0  0  0  0  0  0  0  0  0
  2  1  1  1
  3  2  1  0
  4  5  1  0
  4  2  1  0
  5  6  1  6
  7  5  1  0
  7  8  2  0
  9  7  1  0
 10  9  1  0
 10 11  1  0
 11 13  1  0
 12 11  2  0
 13 14  1  0
 14 15  1  1
 14 20  1  0
 16 15  1  0
 17 16  1  0
 18 17  1  0
 19 18  1  0
 20 22  2  0
 20 21  1  0
M  END
$$$$
