CPH.pdb
     RDKit          3D

 24 25  0  0  1  0  0  0  0  0999 V2000
    8.5703  -17.8160   17.5638 N   0  0  0  0  0  0  0  0  0  0  0  0
    7.7745  -16.8010   18.2141 C   0  0  1  0  0  0  0  0  0  0  0  0
    6.5203  -17.5424   18.7050 C   0  0  0  0  0  0  0  0  0  0  0  0
    6.9949  -18.7889   19.9297 S   0  0  0  0  0  0  0  0  0  0  0  0
    8.5337  -16.2913   19.4237 C   0  0  0  0  0  0  0  0  0  0  0  0
    9.1742  -17.2033   20.0173 O   0  0  0  0  0  0  0  0  0  0  0  0
    8.4895  -14.9413   19.7922 N   0  0  0  0  0  0  0  0  0  0  0  0
    8.3388  -13.8555   18.7994 C   0  0  0  0  0  0  0  0  0  0  0  0
    7.2831  -13.0169   19.4653 C   0  0  0  0  0  0  0  0  0  0  0  0
    7.3192  -13.3494   20.9293 C   0  0  0  0  0  0  0  0  0  0  0  0
    8.5999  -14.2367   21.0088 C   0  0  1  0  0  0  0  0  0  0  0  0
    8.6280  -14.9448   22.2692 C   0  0  0  0  0  0  0  0  0  0  0  0
    7.7195  -14.9121   23.1048 O   0  0  0  0  0  0  0  0  0  0  0  0
    9.7654  -15.7351   22.5863 N   0  0  0  0  0  0  0  0  0  0  0  0
    9.9352  -16.3313   23.9151 C   0  0  1  0  0  0  0  0  0  0  0  0
    9.6221  -17.7987   23.7369 C   0  0  0  0  0  0  0  0  0  0  0  0
    8.1865  -18.0797   23.5293 C   0  0  0  0  0  0  0  0  0  0  0  0
    7.1276  -17.2025   23.4798 C   0  0  0  0  0  0  0  0  0  0  0  0
    5.9819  -17.8661   23.2803 N   0  0  0  0  0  0  0  0  0  0  0  0
    6.2930  -19.1796   23.1994 C   0  0  0  0  0  0  0  0  0  0  0  0
    7.6269  -19.3040   23.3506 N   0  0  0  0  0  0  0  0  0  0  0  0
   11.3427  -16.2128   24.3661 C   0  0  0  0  0  0  0  0  0  0  0  0
   12.2662  -15.7846   23.6612 O   0  0  0  0  0  0  0  0  0  0  0  0
   11.6816  -16.6043   25.6739 O   0  0  0  0  0  0  0  0  0  0  0  0
  2  1  1  1
  2  5  1  0
  3  2  1  0
  4  3  1  0
  5  6  2  0
  7 11  1  0
  7  5  1  0
  8  7  1  0
  9 10  1  0
  9  8  1  0
 10 11  1  0
 11 12  1  1
 12 13  2  0
 12 14  1  0
 14 15  1  0
 15 16  1  6
 15 22  1  0
 16 17  1  0
 17 18  2  0
 17 21  1  0
 18 19  1  0
 19 20  1  0
 21 20  2  0
 22 24  1  0
 23 22  2  0
M  END
$$$$
