CPH.pdb
     RDKit          3D

 24 25  0  0  1  0  0  0  0  0999 V2000
    8.1698  -19.0024   20.9046 N   0  0  0  0  0  0  0  0  0  0  0  0
    7.4466  -18.1903   21.8552 C   0  0  1  0  0  0  0  0  0  0  0  0
    7.1120  -19.1464   23.0117 C   0  0  0  0  0  0  0  0  0  0  0  0
    6.1284  -18.2713   24.2549 S   0  0  0  0  0  0  0  0  0  0  0  0
    8.3766  -17.1129   22.3784 C   0  0  0  0  0  0  0  0  0  0  0  0
    9.3296  -17.5810   23.0618 O   0  0  0  0  0  0  0  0  0  0  0  0
    8.1494  -15.7599   22.0992 N   0  0  0  0  0  0  0  0  0  0  0  0
    7.5469  -15.3056   20.8271 C   0  0  0  0  0  0  0  0  0  0  0  0
    6.5351  -14.3175   21.3380 C   0  0  0  0  0  0  0  0  0  0  0  0
    6.9893  -13.8934   22.7050 C   0  0  0  0  0  0  0  0  0  0  0  0
    8.4041  -14.5473   22.7726 C   0  0  1  0  0  0  0  0  0  0  0  0
    8.8779  -14.5499   24.1388 C   0  0  0  0  0  0  0  0  0  0  0  0
    9.0520  -13.5320   24.8156 O   0  0  0  0  0  0  0  0  0  0  0  0
    9.1677  -15.7938   24.7614 N   0  0  0  0  0  0  0  0  0  0  0  0
    9.4357  -15.8839   26.2002 C   0  0  1  0  0  0  0  0  0  0  0  0
    8.0829  -15.7798   26.8652 C   0  0  0  0  0  0  0  0  0  0  0  0
    7.4047  -14.4876   26.6348 C   0  0  0  0  0  0  0  0  0  0  0  0
    7.7090  -13.2442   27.1396 C   0  0  0  0  0  0  0  0  0  0  0  0
    6.8378  -12.3327   26.6892 N   0  0  0  0  0  0  0  0  0  0  0  0
    5.9623  -12.9819   25.8887 C   0  0  0  0  0  0  0  0  0  0  0  0
    6.3089  -14.2844   25.8589 N   0  0  0  0  0  0  0  0  0  0  0  0
   10.0163  -17.2044   26.5429 C   0  0  0  0  0  0  0  0  0  0  0  0
   10.1842  -18.1235   25.7303 O   0  0  0  0  0  0  0  0  0  0  0  0
   10.4113  -17.4594   27.8686 O   0  0  0  0  0  0  0  0  0  0  0  0
  2  1  1  6
  2  5  1  0
  3  2  1  0
  4  3  1  0
  5  6  2  0
  7 11  1  0
  7  5  1  0
  8  7  1  0
  9 10  1  0
  9  8  1  0
 10 11  1  0
 11 12  1  1
 12 13  2  0
 12 14  1  0
 14 15  1  0
 15 16  1  1
 15 22  1  0
 16 17  1  0
 17 18  2  0
 17 21  1  0
 18 19  1  0
 19 20  1  0
 21 20  2  0
 22 24  1  0
 23 22  2  0
M  END
$$$$
