CPH.pdb
     RDKit          3D

 24 25  0  0  1  0  0  0  0  0999 V2000
    9.1791  -18.5348   19.8786 N   0  0  0  0  0  0  0  0  0  0  0  0
    8.2196  -18.0607   20.8485 C   0  0  1  0  0  0  0  0  0  0  0  0
    7.9387  -19.2761   21.7471 C   0  0  0  0  0  0  0  0  0  0  0  0
    6.8142  -18.7944   23.0822 S   0  0  0  0  0  0  0  0  0  0  0  0
    8.8744  -16.9834   21.6911 C   0  0  0  0  0  0  0  0  0  0  0  0
    9.7846  -17.4359   22.4400 O   0  0  0  0  0  0  0  0  0  0  0  0
    8.4683  -15.6463   21.6029 N   0  0  0  0  0  0  0  0  0  0  0  0
    7.7760  -15.1074   20.4122 C   0  0  0  0  0  0  0  0  0  0  0  0
    6.6618  -14.3374   21.0654 C   0  0  0  0  0  0  0  0  0  0  0  0
    7.0979  -14.0456   22.4725 C   0  0  0  0  0  0  0  0  0  0  0  0
    8.5859  -14.5127   22.4334 C   0  0  1  0  0  0  0  0  0  0  0  0
    9.0959  -14.6374   23.7807 C   0  0  0  0  0  0  0  0  0  0  0  0
    9.7858  -13.7824   24.3442 O   0  0  0  0  0  0  0  0  0  0  0  0
    8.7950  -15.8120   24.5215 N   0  0  0  0  0  0  0  0  0  0  0  0
    9.1377  -15.9277   25.9425 C   0  0  1  0  0  0  0  0  0  0  0  0
    7.8348  -15.7380   26.6837 C   0  0  0  0  0  0  0  0  0  0  0  0
    7.3334  -14.3484   26.6593 C   0  0  0  0  0  0  0  0  0  0  0  0
    6.0693  -13.8856   26.3744 C   0  0  0  0  0  0  0  0  0  0  0  0
    6.0333  -12.5496   26.4550 N   0  0  0  0  0  0  0  0  0  0  0  0
    7.2765  -12.1387   26.7931 C   0  0  0  0  0  0  0  0  0  0  0  0
    8.0591  -13.2296   26.9154 N   0  0  0  0  0  0  0  0  0  0  0  0
    9.6477  -17.2857   26.2491 C   0  0  0  0  0  0  0  0  0  0  0  0
    9.6720  -18.2203   25.4372 O   0  0  0  0  0  0  0  0  0  0  0  0
   10.1424  -17.5607   27.5368 O   0  0  0  0  0  0  0  0  0  0  0  0
  2  1  1  6
  2  5  1  0
  3  2  1  0
  4  3  1  0
  5  6  2  0
  7 11  1  0
  7  5  1  0
  8  7  1  0
  9 10  1  0
  9  8  1  0
 10 11  1  0
 11 12  1  1
 12 13  2  0
 12 14  1  0
 14 15  1  0
 15 16  1  1
 15 22  1  0
 16 17  1  0
 17 18  2  0
 17 21  1  0
 18 19  1  0
 19 20  1  0
 21 20  2  0
 22 24  1  0
 23 22  2  0
M  END
$$$$
