CPH.pdb
     RDKit          3D

 24 25  0  0  1  0  0  0  0  0999 V2000
    8.2488  -15.2313   21.3781 N   0  0  0  0  0  0  0  0  0  0  0  0
    7.3890  -15.1882   22.5379 C   0  0  1  0  0  0  0  0  0  0  0  0
    6.7588  -16.5886   22.6097 C   0  0  0  0  0  0  0  0  0  0  0  0
    5.9554  -16.8088   24.2175 S   0  0  0  0  0  0  0  0  0  0  0  0
    8.2484  -14.9860   23.7707 C   0  0  0  0  0  0  0  0  0  0  0  0
    9.1435  -15.8683   23.8913 O   0  0  0  0  0  0  0  0  0  0  0  0
    8.0234  -13.9153   24.6445 N   0  0  0  0  0  0  0  0  0  0  0  0
    7.4997  -12.6126   24.1798 C   0  0  0  0  0  0  0  0  0  0  0  0
    6.4449  -12.3522   25.2192 C   0  0  0  0  0  0  0  0  0  0  0  0
    6.8038  -13.1756   26.4226 C   0  0  0  0  0  0  0  0  0  0  0  0
    8.2190  -13.6972   26.0239 C   0  0  1  0  0  0  0  0  0  0  0  0
    8.6027  -14.7866   26.8939 C   0  0  0  0  0  0  0  0  0  0  0  0
    7.8360  -15.6783   27.2701 O   0  0  0  0  0  0  0  0  0  0  0  0
    9.9443  -14.8539   27.3571 N   0  0  0  0  0  0  0  0  0  0  0  0
   10.3927  -15.9308   28.2455 C   0  0  1  0  0  0  0  0  0  0  0  0
   11.8368  -16.1776   27.8757 C   0  0  0  0  0  0  0  0  0  0  0  0
   12.0147  -16.7655   26.5320 C   0  0  0  0  0  0  0  0  0  0  0  0
   11.0882  -17.3848   25.7248 C   0  0  0  0  0  0  0  0  0  0  0  0
   11.6598  -17.7855   24.5823 N   0  0  0  0  0  0  0  0  0  0  0  0
   12.9625  -17.4275   24.6432 C   0  0  0  0  0  0  0  0  0  0  0  0
   13.1724  -16.8112   25.8237 N   0  0  0  0  0  0  0  0  0  0  0  0
   10.3489  -15.4937   29.6616 C   0  0  0  0  0  0  0  0  0  0  0  0
   10.1185  -14.3328   30.0253 O   0  0  0  0  0  0  0  0  0  0  0  0
   10.5798  -16.4359   30.6802 O   0  0  0  0  0  0  0  0  0  0  0  0
  2  1  1  6
  2  5  1  0
  3  2  1  0
  4  3  1  0
  5  6  2  0
  7 11  1  0
  7  5  1  0
  8  7  1  0
  9 10  1  0
  9  8  1  0
 10 11  1  0
 11 12  1  1
 12 13  2  0
 12 14  1  0
 14 15  1  0
 15 16  1  6
 15 22  1  0
 16 17  1  0
 17 18  2  0
 17 21  1  0
 18 19  1  0
 19 20  1  0
 21 20  2  0
 22 24  1  0
 23 22  2  0
M  END
$$$$
