CPH.pdb
     RDKit          3D

 24 25  0  0  1  0  0  0  0  0999 V2000
    9.9715  -15.3615   15.5461 N   0  0  0  0  0  0  0  0  0  0  0  0
    8.8687  -15.4510   16.4745 C   0  0  1  0  0  0  0  0  0  0  0  0
    8.3157  -16.8734   16.2890 C   0  0  0  0  0  0  0  0  0  0  0  0
    7.2297  -17.2863   17.6779 S   0  0  0  0  0  0  0  0  0  0  0  0
    9.4117  -15.3284   17.8850 C   0  0  0  0  0  0  0  0  0  0  0  0
   10.2884  -16.1982   18.1473 O   0  0  0  0  0  0  0  0  0  0  0  0
    8.9496  -14.3349   18.7566 N   0  0  0  0  0  0  0  0  0  0  0  0
    8.5241  -13.0009   18.2803 C   0  0  0  0  0  0  0  0  0  0  0  0
    7.2381  -12.8331   19.0412 C   0  0  0  0  0  0  0  0  0  0  0  0
    7.3084  -13.7514   20.2273 C   0  0  0  0  0  0  0  0  0  0  0  0
    8.7913  -14.2306   20.1540 C   0  0  1  0  0  0  0  0  0  0  0  0
    8.9752  -15.3862   21.0036 C   0  0  0  0  0  0  0  0  0  0  0  0
    8.2958  -16.4148   20.9339 O   0  0  0  0  0  0  0  0  0  0  0  0
    9.9987  -15.3567   21.9888 N   0  0  0  0  0  0  0  0  0  0  0  0
   10.2095  -16.4817   22.9053 C   0  0  1  0  0  0  0  0  0  0  0  0
   11.6595  -16.3914   23.3206 C   0  0  0  0  0  0  0  0  0  0  0  0
   12.0438  -17.3722   24.3566 C   0  0  0  0  0  0  0  0  0  0  0  0
   11.3778  -17.7268   25.5073 C   0  0  0  0  0  0  0  0  0  0  0  0
   12.0723  -18.6522   26.1810 N   0  0  0  0  0  0  0  0  0  0  0  0
   13.1945  -18.9027   25.4691 C   0  0  0  0  0  0  0  0  0  0  0  0
   13.1729  -18.1265   24.3670 N   0  0  0  0  0  0  0  0  0  0  0  0
    9.3730  -16.3311   24.1201 C   0  0  0  0  0  0  0  0  0  0  0  0
    8.8298  -15.2732   24.4650 O   0  0  0  0  0  0  0  0  0  0  0  0
    9.1646  -17.4441   24.9546 O   0  0  0  0  0  0  0  0  0  0  0  0
  2  1  1  6
  2  5  1  0
  3  2  1  0
  4  3  1  0
  5  6  2  0
  7 11  1  0
  7  5  1  0
  8  7  1  0
  9 10  1  0
  9  8  1  0
 10 11  1  0
 11 12  1  1
 12 13  2  0
 12 14  1  0
 14 15  1  0
 15 16  1  1
 15 22  1  0
 16 17  1  0
 17 18  2  0
 17 21  1  0
 18 19  1  0
 19 20  1  0
 21 20  2  0
 22 24  1  0
 23 22  2  0
M  END
$$$$
