CPH.pdb
     RDKit          3D

 24 25  0  0  1  0  0  0  0  0999 V2000
    7.0904  -15.9647   20.8866 N   0  0  0  0  0  0  0  0  0  0  0  0
    6.6970  -15.9035   22.2750 C   0  0  1  0  0  0  0  0  0  0  0  0
    6.4043  -17.3620   22.6632 C   0  0  0  0  0  0  0  0  0  0  0  0
    6.2875  -17.4967   24.4652 S   0  0  0  0  0  0  0  0  0  0  0  0
    7.8784  -15.4183   23.0924 C   0  0  0  0  0  0  0  0  0  0  0  0
    8.9185  -16.1089   22.9039 O   0  0  0  0  0  0  0  0  0  0  0  0
    7.7651  -14.3155   23.9477 N   0  0  0  0  0  0  0  0  0  0  0  0
    6.6614  -13.3376   23.8345 C   0  0  0  0  0  0  0  0  0  0  0  0
    6.2595  -13.2065   25.2775 C   0  0  0  0  0  0  0  0  0  0  0  0
    7.4367  -13.6435   26.1010 C   0  0  0  0  0  0  0  0  0  0  0  0
    8.5371  -13.7916   25.0051 C   0  0  1  0  0  0  0  0  0  0  0  0
    9.6594  -14.5338   25.5348 C   0  0  0  0  0  0  0  0  0  0  0  0
   10.6805  -14.0145   25.9955 O   0  0  0  0  0  0  0  0  0  0  0  0
    9.6037  -15.9536   25.5345 N   0  0  0  0  0  0  0  0  0  0  0  0
   10.6277  -16.7585   26.2080 C   0  0  1  0  0  0  0  0  0  0  0  0
   10.0949  -16.9966   27.6018 C   0  0  0  0  0  0  0  0  0  0  0  0
   10.0982  -15.7898   28.4542 C   0  0  0  0  0  0  0  0  0  0  0  0
   11.1468  -15.2013   29.1231 C   0  0  0  0  0  0  0  0  0  0  0  0
   10.7247  -14.1217   29.7931 N   0  0  0  0  0  0  0  0  0  0  0  0
    9.3975  -14.0046   29.5615 C   0  0  0  0  0  0  0  0  0  0  0  0
    9.0232  -15.0154   28.7516 N   0  0  0  0  0  0  0  0  0  0  0  0
   10.7803  -18.0748   25.5429 C   0  0  0  0  0  0  0  0  0  0  0  0
   10.0711  -18.4687   24.6074 O   0  0  0  0  0  0  0  0  0  0  0  0
   11.7867  -18.9545   25.9806 O   0  0  0  0  0  0  0  0  0  0  0  0
  2  1  1  6
  2  5  1  0
  3  2  1  0
  4  3  1  0
  5  6  2  0
  7 11  1  0
  7  5  1  0
  8  7  1  0
  9 10  1  0
  9  8  1  0
 10 11  1  0
 11 12  1  1
 12 13  2  0
 12 14  1  0
 14 15  1  0
 15 16  1  1
 15 22  1  0
 16 17  1  0
 17 18  2  0
 17 21  1  0
 18 19  1  0
 19 20  1  0
 21 20  2  0
 22 24  1  0
 23 22  2  0
M  END
$$$$
