DPE.pdb
     RDKit          3D

 25 25  0  0  1  0  0  0  0  0999 V2000
    9.6919  -15.1783   14.5878 N   0  0  0  0  0  0  0  0  0  0  0  0
    8.8869  -15.1881   15.7671 C   0  0  1  0  0  0  0  0  0  0  0  0
    8.1937  -16.4905   15.9968 C   0  0  0  0  0  0  0  0  0  0  0  0
    7.4743  -17.0418   14.8424 C   0  0  0  0  0  0  0  0  0  0  0  0
    7.4352  -16.3827   13.7704 O   0  0  0  0  0  0  0  0  0  0  0  0
    9.5506  -14.6488   16.9680 C   0  0  0  0  0  0  0  0  0  0  0  0
   10.8272  -14.5812   16.8920 O   0  0  0  0  0  0  0  0  0  0  0  0
    6.8165  -18.2589   14.8318 O   0  0  0  0  0  0  0  0  0  0  0  0
    8.9216  -14.2196   18.1462 N   0  0  0  0  0  0  0  0  0  0  0  0
    7.4618  -14.2819   18.3345 C   0  0  0  0  0  0  0  0  0  0  0  0
    7.1836  -13.5157   19.6143 C   0  0  0  0  0  0  0  0  0  0  0  0
    8.4266  -12.6839   19.7555 C   0  0  0  0  0  0  0  0  0  0  0  0
    9.5042  -13.6651   19.3426 C   0  0  1  0  0  0  0  0  0  0  0  0
    9.7562  -14.6789   20.3918 C   0  0  0  0  0  0  0  0  0  0  0  0
    8.8989  -15.5865   20.5369 O   0  0  0  0  0  0  0  0  0  0  0  0
   10.8850  -14.6834   21.2238 N   0  0  0  0  0  0  0  0  0  0  0  0
   11.4782  -15.8924   21.8185 C   0  0  1  0  0  0  0  0  0  0  0  0
   12.9212  -15.9875   21.4957 C   0  0  0  0  0  0  0  0  0  0  0  0
   13.6028  -14.6618   21.5051 C   0  0  0  0  0  0  0  0  0  0  0  0
   15.0126  -14.7554   21.0750 C   0  0  0  0  0  0  0  0  0  0  0  0
   15.9351  -15.2217   21.7730 O   0  0  0  0  0  0  0  0  0  0  0  0
   11.1361  -15.8770   23.2502 C   0  0  0  0  0  0  0  0  0  0  0  0
   11.4894  -16.8883   23.9502 O   0  0  0  0  0  0  0  0  0  0  0  0
   15.3909  -14.2991   19.7952 O   0  0  0  0  0  0  0  0  0  0  0  0
   10.4706  -14.8632   23.8919 O   0  0  0  0  0  0  0  0  0  0  0  0
  2  1  1  6
  2  3  1  0
  3  4  1  0
  4  5  2  0
  4  8  1  0
  6  2  1  0
  6  9  1  0
  7  6  2  0
  9 13  1  0
 10  9  1  0
 10 11  1  0
 11 12  1  0
 13 12  1  0
 14 16  1  0
 13 14  1  1
 15 14  2  0
 17 18  1  1
 17 22  1  0
 17 16  1  0
 19 20  1  0
 19 18  1  0
 20 24  1  0
 21 20  2  0
 22 25  1  0
 23 22  2  0
M  END
$$$$
