DPE.pdb
     RDKit          3D

 25 25  0  0  1  0  0  0  0  0999 V2000
   12.2305  -16.2678   17.8782 N   0  0  0  0  0  0  0  0  0  0  0  0
   11.7672  -15.0216   18.3992 C   0  0  1  0  0  0  0  0  0  0  0  0
   12.6362  -13.8666   18.0248 C   0  0  0  0  0  0  0  0  0  0  0  0
   14.0792  -14.0729   18.1962 C   0  0  0  0  0  0  0  0  0  0  0  0
   14.5628  -14.0980   19.3583 O   0  0  0  0  0  0  0  0  0  0  0  0
   10.3280  -14.7706   18.2016 C   0  0  0  0  0  0  0  0  0  0  0  0
    9.8604  -15.1771   17.0808 O   0  0  0  0  0  0  0  0  0  0  0  0
   14.9790  -14.2467   17.1597 O   0  0  0  0  0  0  0  0  0  0  0  0
    9.4590  -14.1441   19.1074 N   0  0  0  0  0  0  0  0  0  0  0  0
    8.0422  -13.8849   18.7979 C   0  0  0  0  0  0  0  0  0  0  0  0
    7.5365  -12.9972   19.9198 C   0  0  0  0  0  0  0  0  0  0  0  0
    8.8157  -12.4391   20.4756 C   0  0  0  0  0  0  0  0  0  0  0  0
    9.7251  -13.6498   20.4352 C   0  0  1  0  0  0  0  0  0  0  0  0
    9.3902  -14.6249   21.4978 C   0  0  0  0  0  0  0  0  0  0  0  0
    8.4230  -15.3995   21.2881 O   0  0  0  0  0  0  0  0  0  0  0  0
   10.0838  -14.7316   22.7119 N   0  0  0  0  0  0  0  0  0  0  0  0
   10.8818  -15.9005   23.1169 C   0  0  1  0  0  0  0  0  0  0  0  0
   12.3215  -15.6780   22.8457 C   0  0  0  0  0  0  0  0  0  0  0  0
   13.1839  -16.7725   23.3753 C   0  0  0  0  0  0  0  0  0  0  0  0
   14.6160  -16.5379   23.1003 C   0  0  0  0  0  0  0  0  0  0  0  0
   15.1552  -15.4136   23.0711 O   0  0  0  0  0  0  0  0  0  0  0  0
   10.5261  -16.1983   24.5140 C   0  0  0  0  0  0  0  0  0  0  0  0
   11.0114  -17.2640   25.0301 O   0  0  0  0  0  0  0  0  0  0  0  0
   15.4730  -17.6290   22.8474 O   0  0  0  0  0  0  0  0  0  0  0  0
    9.7173  -15.4222   25.3051 O   0  0  0  0  0  0  0  0  0  0  0  0
  2  1  1  6
  2  3  1  0
  3  4  1  0
  4  5  2  0
  4  8  1  0
  6  2  1  0
  6  9  1  0
  7  6  2  0
  9 13  1  0
 10  9  1  0
 10 11  1  0
 11 12  1  0
 13 12  1  0
 14 16  1  0
 13 14  1  1
 15 14  2  0
 17 18  1  1
 17 22  1  0
 17 16  1  0
 19 20  1  0
 19 18  1  0
 20 24  1  0
 21 20  2  0
 22 25  1  0
 23 22  2  0
M  END
$$$$
