DPE.pdb
     RDKit          3D

 25 25  0  0  1  0  0  0  0  0999 V2000
    9.4734  -17.6339   19.2086 N   0  0  0  0  0  0  0  0  0  0  0  0
    8.5877  -17.2836   20.2724 C   0  0  1  0  0  0  0  0  0  0  0  0
    7.9139  -18.4636   20.8912 C   0  0  0  0  0  0  0  0  0  0  0  0
    7.3552  -19.4434   19.9521 C   0  0  0  0  0  0  0  0  0  0  0  0
    6.5497  -19.0554   19.0657 O   0  0  0  0  0  0  0  0  0  0  0  0
    9.1509  -16.3389   21.2542 C   0  0  0  0  0  0  0  0  0  0  0  0
   10.4128  -16.4486   21.4430 O   0  0  0  0  0  0  0  0  0  0  0  0
    7.6466  -20.7959   19.9584 O   0  0  0  0  0  0  0  0  0  0  0  0
    8.4435  -15.3648   21.9744 N   0  0  0  0  0  0  0  0  0  0  0  0
    6.9975  -15.1431   21.8001 C   0  0  0  0  0  0  0  0  0  0  0  0
    6.6854  -13.8716   22.5671 C   0  0  0  0  0  0  0  0  0  0  0  0
    8.0418  -13.2354   22.6798 C   0  0  0  0  0  0  0  0  0  0  0  0
    8.9231  -14.4339   22.9652 C   0  0  1  0  0  0  0  0  0  0  0  0
    8.7550  -14.9222   24.3529 C   0  0  0  0  0  0  0  0  0  0  0  0
    7.6852  -15.5209   24.6298 O   0  0  0  0  0  0  0  0  0  0  0  0
    9.7117  -14.7559   25.3646 N   0  0  0  0  0  0  0  0  0  0  0  0
    9.8584  -15.6453   26.5285 C   0  0  1  0  0  0  0  0  0  0  0  0
   10.9554  -16.6183   26.3160 C   0  0  0  0  0  0  0  0  0  0  0  0
   11.1139  -17.5666   27.4553 C   0  0  0  0  0  0  0  0  0  0  0  0
   12.2178  -18.5231   27.2365 C   0  0  0  0  0  0  0  0  0  0  0  0
   12.9307  -18.5578   26.2136 O   0  0  0  0  0  0  0  0  0  0  0  0
    9.9814  -14.7816   27.7142 C   0  0  0  0  0  0  0  0  0  0  0  0
    9.7678  -15.3171   28.8566 O   0  0  0  0  0  0  0  0  0  0  0  0
   12.5252  -19.4824   28.2236 O   0  0  0  0  0  0  0  0  0  0  0  0
   10.3090  -13.4494   27.6898 O   0  0  0  0  0  0  0  0  0  0  0  0
  2  1  1  6
  2  3  1  0
  3  4  1  0
  4  5  2  0
  4  8  1  0
  6  2  1  0
  6  9  1  0
  7  6  2  0
  9 13  1  0
 10  9  1  0
 10 11  1  0
 11 12  1  0
 13 12  1  0
 14 16  1  0
 13 14  1  1
 15 14  2  0
 17 18  1  6
 17 22  1  0
 17 16  1  0
 19 20  1  0
 19 18  1  0
 20 24  1  0
 21 20  2  0
 22 25  1  0
 23 22  2  0
M  END
$$$$
