DPE.pdb
     RDKit          3D

 25 25  0  0  1  0  0  0  0  0999 V2000
    9.1391  -16.9350   16.1792 N   0  0  0  0  0  0  0  0  0  0  0  0
    8.2649  -16.5947   17.2558 C   0  0  1  0  0  0  0  0  0  0  0  0
    7.2511  -17.6512   17.5484 C   0  0  0  0  0  0  0  0  0  0  0  0
    6.7748  -18.4158   16.3896 C   0  0  0  0  0  0  0  0  0  0  0  0
    7.6093  -18.8397   15.5477 O   0  0  0  0  0  0  0  0  0  0  0  0
    8.9435  -16.0740   18.4565 C   0  0  0  0  0  0  0  0  0  0  0  0
   10.1380  -16.5030   18.6273 O   0  0  0  0  0  0  0  0  0  0  0  0
    5.4488  -18.7186   16.1365 O   0  0  0  0  0  0  0  0  0  0  0  0
    8.4074  -15.1798   19.3952 N   0  0  0  0  0  0  0  0  0  0  0  0
    7.0860  -14.5507   19.2272 C   0  0  0  0  0  0  0  0  0  0  0  0
    6.9961  -13.4963   20.3147 C   0  0  0  0  0  0  0  0  0  0  0  0
    8.4416  -13.2901   20.6682 C   0  0  0  0  0  0  0  0  0  0  0  0
    8.9740  -14.7077   20.6339 C   0  0  1  0  0  0  0  0  0  0  0  0
    8.5332  -15.4895   21.8114 C   0  0  0  0  0  0  0  0  0  0  0  0
    7.5724  -16.2838   21.6517 O   0  0  0  0  0  0  0  0  0  0  0  0
    9.1208  -15.3945   23.0811 N   0  0  0  0  0  0  0  0  0  0  0  0
   10.1634  -16.3019   23.5880 C   0  0  1  0  0  0  0  0  0  0  0  0
   11.2844  -16.4103   22.6250 C   0  0  0  0  0  0  0  0  0  0  0  0
   11.5250  -17.8111   22.1755 C   0  0  0  0  0  0  0  0  0  0  0  0
   12.9602  -18.0931   21.9703 C   0  0  0  0  0  0  0  0  0  0  0  0
   13.8895  -17.3970   22.4257 O   0  0  0  0  0  0  0  0  0  0  0  0
   10.5153  -15.8369   24.9396 C   0  0  0  0  0  0  0  0  0  0  0  0
   11.2003  -16.6295   25.6744 O   0  0  0  0  0  0  0  0  0  0  0  0
   13.3568  -19.2158   21.2143 O   0  0  0  0  0  0  0  0  0  0  0  0
   10.1682  -14.6205   25.4711 O   0  0  0  0  0  0  0  0  0  0  0  0
  2  1  1  6
  2  3  1  0
  3  4  1  0
  4  5  2  0
  4  8  1  0
  6  2  1  0
  6  9  1  0
  7  6  2  0
  9 13  1  0
 10  9  1  0
 10 11  1  0
 11 12  1  0
 13 12  1  0
 14 16  1  0
 13 14  1  1
 15 14  2  0
 17 18  1  6
 17 22  1  0
 17 16  1  0
 19 20  1  0
 19 18  1  0
 20 24  1  0
 21 20  2  0
 22 25  1  0
 23 22  2  0
M  END
$$$$
