DPE.pdb
     RDKit          3D

 25 25  0  0  1  0  0  0  0  0999 V2000
    8.5808  -14.3566   16.4512 N   0  0  0  0  0  0  0  0  0  0  0  0
    8.1052  -14.8811   17.6912 C   0  0  1  0  0  0  0  0  0  0  0  0
    7.7970  -16.3410   17.6342 C   0  0  0  0  0  0  0  0  0  0  0  0
    8.9406  -17.2242   17.3769 C   0  0  0  0  0  0  0  0  0  0  0  0
   10.0829  -16.7199   17.2165 O   0  0  0  0  0  0  0  0  0  0  0  0
    8.8991  -14.4873   18.8693 C   0  0  0  0  0  0  0  0  0  0  0  0
   10.1242  -14.2072   18.6227 O   0  0  0  0  0  0  0  0  0  0  0  0
    8.8679  -18.6033   17.2931 O   0  0  0  0  0  0  0  0  0  0  0  0
    8.4401  -14.3984   20.1920 N   0  0  0  0  0  0  0  0  0  0  0  0
    7.0494  -14.7021   20.5715 C   0  0  0  0  0  0  0  0  0  0  0  0
    6.9157  -14.2577   22.0162 C   0  0  0  0  0  0  0  0  0  0  0  0
    8.0691  -13.3054   22.1569 C   0  0  0  0  0  0  0  0  0  0  0  0
    9.1576  -14.0213   21.3842 C   0  0  1  0  0  0  0  0  0  0  0  0
    9.6924  -15.1809   22.1336 C   0  0  0  0  0  0  0  0  0  0  0  0
    9.0673  -16.2673   22.0412 O   0  0  0  0  0  0  0  0  0  0  0  0
   10.8442  -15.1356   22.9321 N   0  0  0  0  0  0  0  0  0  0  0  0
   11.7574  -16.2706   23.1443 C   0  0  1  0  0  0  0  0  0  0  0  0
   13.1710  -15.8403   23.0339 C   0  0  0  0  0  0  0  0  0  0  0  0
   14.1325  -16.9202   23.3963 C   0  0  0  0  0  0  0  0  0  0  0  0
   15.5322  -16.4489   23.3847 C   0  0  0  0  0  0  0  0  0  0  0  0
   16.1134  -15.9356   24.3616 O   0  0  0  0  0  0  0  0  0  0  0  0
   11.3708  -16.8985   24.4183 C   0  0  0  0  0  0  0  0  0  0  0  0
   10.6638  -16.2024   25.2264 O   0  0  0  0  0  0  0  0  0  0  0  0
   16.3057  -16.5662   22.2111 O   0  0  0  0  0  0  0  0  0  0  0  0
   11.7075  -18.1711   24.8053 O   0  0  0  0  0  0  0  0  0  0  0  0
  2  1  1  6
  2  3  1  0
  3  4  1  0
  4  5  2  0
  4  8  1  0
  6  2  1  0
  6  9  1  0
  7  6  2  0
  9 13  1  0
 10  9  1  0
 10 11  1  0
 11 12  1  0
 13 12  1  0
 14 16  1  0
 13 14  1  1
 15 14  2  0
 17 18  1  1
 17 22  1  0
 17 16  1  0
 19 20  1  0
 19 18  1  0
 20 24  1  0
 21 20  2  0
 22 25  1  0
 23 22  2  0
M  END
$$$$
