DPE.pdb
     RDKit          3D

 25 25  0  0  1  0  0  0  0  0999 V2000
    9.8687  -15.4643   15.1594 N   0  0  0  0  0  0  0  0  0  0  0  0
    9.0525  -15.4757   16.3310 C   0  0  1  0  0  0  0  0  0  0  0  0
    8.3815  -16.7882   16.5692 C   0  0  0  0  0  0  0  0  0  0  0  0
    7.7757  -17.4176   15.3898 C   0  0  0  0  0  0  0  0  0  0  0  0
    7.0746  -16.7187   14.6120 O   0  0  0  0  0  0  0  0  0  0  0  0
    9.6940  -14.9100   17.5318 C   0  0  0  0  0  0  0  0  0  0  0  0
   10.9739  -14.8859   17.4965 O   0  0  0  0  0  0  0  0  0  0  0  0
    7.9133  -18.7518   15.0506 O   0  0  0  0  0  0  0  0  0  0  0  0
    9.0414  -14.4146   18.6704 N   0  0  0  0  0  0  0  0  0  0  0  0
    7.5735  -14.3678   18.7865 C   0  0  0  0  0  0  0  0  0  0  0  0
    7.2899  -13.5596   20.0390 C   0  0  0  0  0  0  0  0  0  0  0  0
    8.5820  -12.8171   20.2294 C   0  0  0  0  0  0  0  0  0  0  0  0
    9.6039  -13.8811   19.8859 C   0  0  1  0  0  0  0  0  0  0  0  0
    9.7298  -14.8906   20.9616 C   0  0  0  0  0  0  0  0  0  0  0  0
    8.8765  -15.8128   20.9921 O   0  0  0  0  0  0  0  0  0  0  0  0
   10.7364  -14.8757   21.9378 N   0  0  0  0  0  0  0  0  0  0  0  0
   11.1278  -16.0392   22.7505 C   0  0  1  0  0  0  0  0  0  0  0  0
   12.5775  -16.0081   23.0554 C   0  0  0  0  0  0  0  0  0  0  0  0
   13.4253  -16.0392   21.8297 C   0  0  0  0  0  0  0  0  0  0  0  0
   14.8647  -15.9333   22.1432 C   0  0  0  0  0  0  0  0  0  0  0  0
   15.3783  -15.0072   22.8020 O   0  0  0  0  0  0  0  0  0  0  0  0
   10.2239  -16.0735   23.9119 C   0  0  0  0  0  0  0  0  0  0  0  0
    9.5068  -15.0363   24.1299 O   0  0  0  0  0  0  0  0  0  0  0  0
   15.7598  -16.9237   21.6882 O   0  0  0  0  0  0  0  0  0  0  0  0
   10.0893  -17.1304   24.7764 O   0  0  0  0  0  0  0  0  0  0  0  0
  2  1  1  6
  2  3  1  0
  3  4  1  0
  4  5  2  0
  4  8  1  0
  6  2  1  0
  6  9  1  0
  7  6  2  0
  9 13  1  0
 10  9  1  0
 10 11  1  0
 11 12  1  0
 13 12  1  0
 14 16  1  0
 13 14  1  1
 15 14  2  0
 17 18  1  1
 17 22  1  0
 17 16  1  0
 19 20  1  0
 19 18  1  0
 20 24  1  0
 21 20  2  0
 22 25  1  0
 23 22  2  0
M  END
$$$$
