DPE.pdb
     RDKit          3D

 25 25  0  0  1  0  0  0  0  0999 V2000
    7.9450  -14.1269   20.8947 N   0  0  0  0  0  0  0  0  0  0  0  0
    7.2892  -14.2321   22.1587 C   0  0  1  0  0  0  0  0  0  0  0  0
    6.4299  -15.4474   22.2777 C   0  0  0  0  0  0  0  0  0  0  0  0
    7.1292  -16.7342   22.1825 C   0  0  0  0  0  0  0  0  0  0  0  0
    6.4708  -17.8015   22.2941 O   0  0  0  0  0  0  0  0  0  0  0  0
    8.1630  -14.0062   23.3244 C   0  0  0  0  0  0  0  0  0  0  0  0
    9.4048  -14.2429   23.1191 O   0  0  0  0  0  0  0  0  0  0  0  0
    8.4895  -16.8783   21.9748 O   0  0  0  0  0  0  0  0  0  0  0  0
    7.7609  -13.5700   24.5956 N   0  0  0  0  0  0  0  0  0  0  0  0
    6.3512  -13.3123   24.9369 C   0  0  0  0  0  0  0  0  0  0  0  0
    6.3781  -12.6420   26.2980 C   0  0  0  0  0  0  0  0  0  0  0  0
    7.7923  -12.1401   26.3698 C   0  0  0  0  0  0  0  0  0  0  0  0
    8.5617  -13.2948   25.7624 C   0  0  1  0  0  0  0  0  0  0  0  0
    8.6524  -14.4444   26.6910 C   0  0  0  0  0  0  0  0  0  0  0  0
    7.6676  -15.2234   26.7450 O   0  0  0  0  0  0  0  0  0  0  0  0
    9.7630  -14.7100   27.5050 N   0  0  0  0  0  0  0  0  0  0  0  0
   10.6087  -15.9101   27.3969 C   0  0  1  0  0  0  0  0  0  0  0  0
   11.7924  -15.6483   26.5448 C   0  0  0  0  0  0  0  0  0  0  0  0
   12.7501  -16.7905   26.5215 C   0  0  0  0  0  0  0  0  0  0  0  0
   13.9550  -16.4928   25.7209 C   0  0  0  0  0  0  0  0  0  0  0  0
   14.1746  -15.4049   25.1519 O   0  0  0  0  0  0  0  0  0  0  0  0
   10.8881  -16.3619   28.7698 C   0  0  0  0  0  0  0  0  0  0  0  0
   10.7674  -15.5005   29.7083 O   0  0  0  0  0  0  0  0  0  0  0  0
   14.9544  -17.4748   25.5598 O   0  0  0  0  0  0  0  0  0  0  0  0
   11.2653  -17.6334   29.1209 O   0  0  0  0  0  0  0  0  0  0  0  0
  2  1  1  6
  2  3  1  0
  3  4  1  0
  4  5  2  0
  4  8  1  0
  6  2  1  0
  6  9  1  0
  7  6  2  0
  9 13  1  0
 10  9  1  0
 10 11  1  0
 11 12  1  0
 13 12  1  0
 14 16  1  0
 13 14  1  1
 15 14  2  0
 17 18  1  1
 17 22  1  0
 17 16  1  0
 19 20  1  0
 19 18  1  0
 20 24  1  0
 21 20  2  0
 22 25  1  0
 23 22  2  0
M  END
$$$$
