HTD.pdb
     RDKit          3D

 26 26  0  0  1  0  0  0  0  0999 V2000
   10.0808  -15.7002   17.1794 N   0  0  0  0  0  0  0  0  0  0  0  0
   10.9239  -14.7778   17.9163 C   0  0  1  0  0  0  0  0  0  0  0  0
   10.2498  -14.5101   19.2402 C   0  0  0  0  0  0  0  0  0  0  0  0
    9.0024  -13.7388   19.0744 C   0  0  0  0  0  0  0  0  0  0  0  0
    8.4997  -13.2454   17.8998 C   0  0  0  0  0  0  0  0  0  0  0  0
    7.3354  -12.6033   18.2005 N   0  0  0  0  0  0  0  0  0  0  0  0
    7.1318  -12.7006   19.5181 C   0  0  0  0  0  0  0  0  0  0  0  0
    8.1588  -13.4013   20.0628 N   0  0  0  0  0  0  0  0  0  0  0  0
   12.2232  -15.4897   18.2084 C   0  0  0  0  0  0  0  0  0  0  0  0
   12.2064  -16.7582   18.2863 O   0  0  0  0  0  0  0  0  0  0  0  0
   15.2790  -15.4142   16.1650 C   0  0  0  0  0  0  0  0  0  0  0  0
   15.6736  -14.9853   17.5553 C   0  0  1  0  0  0  0  0  0  0  0  0
   15.9515  -13.6430   17.6668 O   0  0  0  0  0  0  0  0  0  0  0  0
   14.6572  -15.4653   18.5816 C   0  0  2  0  0  0  0  0  0  0  0  0
   13.4282  -14.7582   18.3903 N   0  0  0  0  0  0  0  0  0  0  0  0
   15.2676  -15.2542   19.9121 C   0  0  0  0  0  0  0  0  0  0  0  0
   15.0816  -14.1303   20.4506 O   0  0  0  0  0  0  0  0  0  0  0  0
   16.0342  -16.1922   20.6273 N   0  0  0  0  0  0  0  0  0  0  0  0
   16.6462  -15.9829   21.8961 C   0  0  1  0  0  0  0  0  0  0  0  0
   16.7622  -17.2295   22.7452 C   0  0  0  0  0  0  0  0  0  0  0  0
   16.6167  -16.9117   24.1965 C   0  0  0  0  0  0  0  0  0  0  0  0
   16.6049  -15.7291   24.6260 O   0  0  0  0  0  0  0  0  0  0  0  0
   17.9407  -15.2928   21.8404 C   0  0  0  0  0  0  0  0  0  0  0  0
   18.7230  -15.5636   20.8894 O   0  0  0  0  0  0  0  0  0  0  0  0
   16.4835  -17.9078   25.1754 O   0  0  0  0  0  0  0  0  0  0  0  0
   18.3465  -14.3589   22.7807 O   0  0  0  0  0  0  0  0  0  0  0  0
  2  1  1  6
  2  9  1  0
  3  4  1  0
  3  2  1  0
  4  8  1  0
  5  6  1  0
  5  4  2  0
  6  7  1  0
  7  8  2  0
  9 15  1  0
  9 10  2  0
 12 11  1  6
 12 14  1  0
 13 12  1  0
 14 16  1  0
 14 15  1  1
 16 17  2  0
 16 18  1  0
 18 19  1  0
 19 23  1  0
 19 20  1  6
 20 21  1  0
 21 25  1  0
 21 22  2  0
 23 26  1  0
 24 23  2  0
M  END
$$$$
