HTD.pdb
     RDKit          3D

 26 26  0  0  1  0  0  0  0  0999 V2000
    8.5661  -13.1503   16.7598 N   0  0  0  0  0  0  0  0  0  0  0  0
    8.8228  -14.4105   17.4312 C   0  0  1  0  0  0  0  0  0  0  0  0
    9.8943  -15.1290   16.6475 C   0  0  0  0  0  0  0  0  0  0  0  0
    9.3543  -15.7508   15.4228 C   0  0  0  0  0  0  0  0  0  0  0  0
    8.1398  -15.4918   14.8451 C   0  0  0  0  0  0  0  0  0  0  0  0
    8.0472  -16.2795   13.7364 N   0  0  0  0  0  0  0  0  0  0  0  0
    9.1701  -16.9984   13.6385 C   0  0  0  0  0  0  0  0  0  0  0  0
    9.9810  -16.6754   14.6780 N   0  0  0  0  0  0  0  0  0  0  0  0
    9.3978  -14.0885   18.7898 C   0  0  0  0  0  0  0  0  0  0  0  0
   10.2320  -13.1335   18.8758 O   0  0  0  0  0  0  0  0  0  0  0  0
    7.7345  -12.9316   21.8327 C   0  0  0  0  0  0  0  0  0  0  0  0
    8.4442  -14.2126   22.1907 C   0  0  1  0  0  0  0  0  0  0  0  0
    7.6024  -15.2860   22.3660 O   0  0  0  0  0  0  0  0  0  0  0  0
    9.5731  -14.5010   21.2113 C   0  0  2  0  0  0  0  0  0  0  0  0
    9.0143  -14.8347   19.9372 N   0  0  0  0  0  0  0  0  0  0  0  0
   10.3860  -15.5820   21.8095 C   0  0  0  0  0  0  0  0  0  0  0  0
   10.0291  -16.7648   21.5616 O   0  0  0  0  0  0  0  0  0  0  0  0
   11.5177  -15.4086   22.6269 N   0  0  0  0  0  0  0  0  0  0  0  0
   12.2906  -16.4468   23.2210 C   0  0  1  0  0  0  0  0  0  0  0  0
   13.7245  -16.0653   23.5158 C   0  0  0  0  0  0  0  0  0  0  0  0
   14.4198  -15.5814   22.2865 C   0  0  0  0  0  0  0  0  0  0  0  0
   14.8501  -16.3697   21.4053 O   0  0  0  0  0  0  0  0  0  0  0  0
   11.6802  -17.0555   24.4092 C   0  0  0  0  0  0  0  0  0  0  0  0
   10.6098  -16.5587   24.8535 O   0  0  0  0  0  0  0  0  0  0  0  0
   14.6387  -14.2190   22.0327 O   0  0  0  0  0  0  0  0  0  0  0  0
   12.2211  -18.1487   25.0675 O   0  0  0  0  0  0  0  0  0  0  0  0
  2  1  1  6
  2  9  1  0
  3  4  1  0
  3  2  1  0
  4  8  1  0
  5  6  1  0
  5  4  2  0
  6  7  1  0
  7  8  2  0
  9 15  1  0
  9 10  2  0
 12 11  1  6
 12 14  1  0
 13 12  1  0
 14 16  1  0
 14 15  1  6
 16 17  2  0
 16 18  1  0
 18 19  1  0
 19 23  1  0
 19 20  1  1
 20 21  1  0
 21 25  1  0
 21 22  2  0
 23 26  1  0
 24 23  2  0
M  END
$$$$
