HTD.pdb
     RDKit          3D

 26 26  0  0  1  0  0  0  0  0999 V2000
    9.0337  -15.1976   14.8584 N   0  0  0  0  0  0  0  0  0  0  0  0
    8.5874  -15.9758   15.9986 C   0  0  1  0  0  0  0  0  0  0  0  0
    9.1794  -17.3576   15.8609 C   0  0  0  0  0  0  0  0  0  0  0  0
    8.5202  -18.1327   14.7919 C   0  0  0  0  0  0  0  0  0  0  0  0
    7.4114  -18.9255   14.9258 C   0  0  0  0  0  0  0  0  0  0  0  0
    7.1420  -19.4488   13.6962 N   0  0  0  0  0  0  0  0  0  0  0  0
    8.0575  -18.9907   12.8365 C   0  0  0  0  0  0  0  0  0  0  0  0
    8.9113  -18.1771   13.5084 N   0  0  0  0  0  0  0  0  0  0  0  0
    9.1878  -15.3497   17.2345 C   0  0  0  0  0  0  0  0  0  0  0  0
   10.3631  -14.8726   17.1534 O   0  0  0  0  0  0  0  0  0  0  0  0
    7.6201  -12.5971   19.3796 C   0  0  0  0  0  0  0  0  0  0  0  0
    7.9717  -13.7754   20.2518 C   0  0  1  0  0  0  0  0  0  0  0  0
    6.8817  -14.4950   20.6825 O   0  0  0  0  0  0  0  0  0  0  0  0
    9.0299  -14.6460   19.5891 C   0  0  2  0  0  0  0  0  0  0  0  0
    8.4560  -15.2973   18.4519 N   0  0  0  0  0  0  0  0  0  0  0  0
    9.5215  -15.5778   20.6271 C   0  0  0  0  0  0  0  0  0  0  0  0
    9.0737  -16.7551   20.5918 O   0  0  0  0  0  0  0  0  0  0  0  0
   10.4408  -15.2687   21.6461 N   0  0  0  0  0  0  0  0  0  0  0  0
   10.8871  -16.1523   22.6699 C   0  0  1  0  0  0  0  0  0  0  0  0
   12.3338  -15.9631   23.0693 C   0  0  0  0  0  0  0  0  0  0  0  0
   13.2509  -16.2179   21.9193 C   0  0  0  0  0  0  0  0  0  0  0  0
   13.0134  -17.1012   21.0552 O   0  0  0  0  0  0  0  0  0  0  0  0
   10.0365  -16.1762   23.8660 C   0  0  0  0  0  0  0  0  0  0  0  0
   10.2514  -17.0636   24.7357 O   0  0  0  0  0  0  0  0  0  0  0  0
   14.4354  -15.4913   21.7259 O   0  0  0  0  0  0  0  0  0  0  0  0
    9.0089  -15.2729   24.0876 O   0  0  0  0  0  0  0  0  0  0  0  0
  2  1  1  6
  2  9  1  0
  3  4  1  0
  3  2  1  0
  4  8  1  0
  5  6  1  0
  5  4  2  0
  6  7  1  0
  7  8  2  0
  9 15  1  0
  9 10  2  0
 12 11  1  6
 12 14  1  0
 13 12  1  0
 14 16  1  0
 14 15  1  6
 16 17  2  0
 16 18  1  0
 18 19  1  0
 19 23  1  0
 19 20  1  1
 20 21  1  0
 21 25  1  0
 21 22  2  0
 23 26  1  0
 24 23  2  0
M  END
$$$$
