HTD.pdb
     RDKit          3D

 26 26  0  0  1  0  0  0  0  0999 V2000
   12.2914  -13.8722   17.2536 N   0  0  0  0  0  0  0  0  0  0  0  0
   11.5849  -14.9908   17.8488 C   0  0  1  0  0  0  0  0  0  0  0  0
   12.5761  -16.1186   18.0050 C   0  0  0  0  0  0  0  0  0  0  0  0
   12.8533  -16.7872   16.7188 C   0  0  0  0  0  0  0  0  0  0  0  0
   13.7997  -16.4225   15.7984 C   0  0  0  0  0  0  0  0  0  0  0  0
   13.7165  -17.3082   14.7655 N   0  0  0  0  0  0  0  0  0  0  0  0
   12.7492  -18.1876   15.0449 C   0  0  0  0  0  0  0  0  0  0  0  0
   12.2128  -17.8702   16.2507 N   0  0  0  0  0  0  0  0  0  0  0  0
   11.1599  -14.5694   19.2352 C   0  0  0  0  0  0  0  0  0  0  0  0
   11.9111  -13.7673   19.8738 O   0  0  0  0  0  0  0  0  0  0  0  0
    7.8868  -12.9628   20.2397 C   0  0  0  0  0  0  0  0  0  0  0  0
    8.0870  -14.2085   21.0648 C   0  0  1  0  0  0  0  0  0  0  0  0
    7.2621  -15.2504   20.7105 O   0  0  0  0  0  0  0  0  0  0  0  0
    9.5560  -14.6050   21.1035 C   0  0  2  0  0  0  0  0  0  0  0  0
    9.9534  -15.0582   19.8060 N   0  0  0  0  0  0  0  0  0  0  0  0
    9.6898  -15.6295   22.1617 C   0  0  0  0  0  0  0  0  0  0  0  0
    9.8339  -16.8225   21.7824 O   0  0  0  0  0  0  0  0  0  0  0  0
    9.6708  -15.3922   23.5482 N   0  0  0  0  0  0  0  0  0  0  0  0
    9.7484  -16.3813   24.5698 C   0  0  1  0  0  0  0  0  0  0  0  0
   10.0533  -15.8328   25.9462 C   0  0  0  0  0  0  0  0  0  0  0  0
   10.2356  -16.9325   26.9392 C   0  0  0  0  0  0  0  0  0  0  0  0
   11.0481  -17.8753   26.7541 O   0  0  0  0  0  0  0  0  0  0  0  0
    8.5901  -17.2808   24.6347 C   0  0  0  0  0  0  0  0  0  0  0  0
    8.6562  -18.2885   25.3896 O   0  0  0  0  0  0  0  0  0  0  0  0
    9.5152  -16.9876   28.1419 O   0  0  0  0  0  0  0  0  0  0  0  0
    7.4275  -17.0785   23.9077 O   0  0  0  0  0  0  0  0  0  0  0  0
  2  1  1  1
  2  9  1  0
  3  4  1  0
  3  2  1  0
  4  8  1  0
  5  6  1  0
  5  4  2  0
  6  7  1  0
  7  8  2  0
  9 15  1  0
  9 10  2  0
 12 11  1  6
 12 14  1  0
 13 12  1  0
 14 16  1  0
 14 15  1  6
 16 17  2  0
 16 18  1  0
 18 19  1  0
 19 23  1  0
 19 20  1  1
 20 21  1  0
 21 25  1  0
 21 22  2  0
 23 26  1  0
 24 23  2  0
M  END
$$$$
