HTD.pdb
     RDKit          3D

 26 26  0  0  1  0  0  0  0  0999 V2000
   12.4618  -17.4410   17.8067 N   0  0  0  0  0  0  0  0  0  0  0  0
   13.1183  -18.3037   18.7709 C   0  0  1  0  0  0  0  0  0  0  0  0
   14.5025  -18.5967   18.2449 C   0  0  0  0  0  0  0  0  0  0  0  0
   14.4608  -19.4139   17.0165 C   0  0  0  0  0  0  0  0  0  0  0  0
   14.6963  -18.9779   15.7397 C   0  0  0  0  0  0  0  0  0  0  0  0
   14.5559  -20.0551   14.9161 N   0  0  0  0  0  0  0  0  0  0  0  0
   14.2443  -21.1173   15.6655 C   0  0  0  0  0  0  0  0  0  0  0  0
   14.1843  -20.7266   16.9640 N   0  0  0  0  0  0  0  0  0  0  0  0
   13.2795  -17.5128   20.0471 C   0  0  0  0  0  0  0  0  0  0  0  0
   13.7023  -16.3173   19.9612 O   0  0  0  0  0  0  0  0  0  0  0  0
   10.8625  -16.2615   22.4857 C   0  0  0  0  0  0  0  0  0  0  0  0
   11.7832  -17.2121   23.2078 C   0  0  1  0  0  0  0  0  0  0  0  0
   11.2223  -18.4402   23.4699 O   0  0  0  0  0  0  0  0  0  0  0  0
   13.1251  -17.3151   22.4969 C   0  0  2  0  0  0  0  0  0  0  0  0
   12.9663  -18.0926   21.3065 N   0  0  0  0  0  0  0  0  0  0  0  0
   14.0751  -17.8974   23.4693 C   0  0  0  0  0  0  0  0  0  0  0  0
   14.3008  -19.1334   23.3726 O   0  0  0  0  0  0  0  0  0  0  0  0
   14.7469  -17.1978   24.4882 N   0  0  0  0  0  0  0  0  0  0  0  0
   15.6583  -17.7563   25.4292 C   0  0  1  0  0  0  0  0  0  0  0  0
   16.8836  -16.9079   25.6890 C   0  0  0  0  0  0  0  0  0  0  0  0
   17.5025  -16.4451   24.4118 C   0  0  0  0  0  0  0  0  0  0  0  0
   17.7590  -17.2347   23.4663 O   0  0  0  0  0  0  0  0  0  0  0  0
   15.0480  -18.1574   26.7026 C   0  0  0  0  0  0  0  0  0  0  0  0
   15.7560  -18.7892   27.5330 O   0  0  0  0  0  0  0  0  0  0  0  0
   17.8383  -15.1026   24.1814 O   0  0  0  0  0  0  0  0  0  0  0  0
   13.7328  -17.8771   27.0381 O   0  0  0  0  0  0  0  0  0  0  0  0
  2  1  1  6
  2  9  1  0
  3  4  1  0
  3  2  1  0
  4  8  1  0
  5  6  1  0
  5  4  2  0
  6  7  1  0
  7  8  2  0
  9 15  1  0
  9 10  2  0
 12 11  1  6
 12 14  1  0
 13 12  1  0
 14 16  1  0
 14 15  1  6
 16 17  2  0
 16 18  1  0
 18 19  1  0
 19 23  1  0
 19 20  1  1
 20 21  1  0
 21 25  1  0
 21 22  2  0
 23 26  1  0
 24 23  2  0
M  END
$$$$
