HTD.pdb
     RDKit          3D

 26 26  0  0  1  0  0  0  0  0999 V2000
   12.2586  -14.8984   15.1667 N   0  0  0  0  0  0  0  0  0  0  0  0
   11.1994  -15.5045   15.9511 C   0  0  1  0  0  0  0  0  0  0  0  0
   11.5156  -16.9753   16.0757 C   0  0  0  0  0  0  0  0  0  0  0  0
   11.2183  -17.7077   14.8293 C   0  0  0  0  0  0  0  0  0  0  0  0
   10.4374  -17.2690   13.7932 C   0  0  0  0  0  0  0  0  0  0  0  0
   10.4338  -18.2528   12.8495 N   0  0  0  0  0  0  0  0  0  0  0  0
   11.1890  -19.2623   13.2943 C   0  0  0  0  0  0  0  0  0  0  0  0
   11.6761  -18.9305   14.5170 N   0  0  0  0  0  0  0  0  0  0  0  0
   11.2684  -14.9100   17.3375 C   0  0  0  0  0  0  0  0  0  0  0  0
   12.3964  -14.5035   17.7591 O   0  0  0  0  0  0  0  0  0  0  0  0
    8.4013  -12.5462   18.9443 C   0  0  0  0  0  0  0  0  0  0  0  0
    8.8257  -13.6801   19.8426 C   0  0  1  0  0  0  0  0  0  0  0  0
    7.8841  -14.6748   19.9674 O   0  0  0  0  0  0  0  0  0  0  0  0
   10.1947  -14.2097   19.4401 C   0  0  2  0  0  0  0  0  0  0  0  0
   10.1027  -14.8097   18.1445 N   0  0  0  0  0  0  0  0  0  0  0  0
   10.6154  -15.1465   20.5044 C   0  0  0  0  0  0  0  0  0  0  0  0
   10.3422  -16.3642   20.3300 O   0  0  0  0  0  0  0  0  0  0  0  0
   11.2906  -14.8010   21.6892 N   0  0  0  0  0  0  0  0  0  0  0  0
   11.7136  -15.7027   22.7072 C   0  0  1  0  0  0  0  0  0  0  0  0
   12.9631  -15.2706   23.4424 C   0  0  0  0  0  0  0  0  0  0  0  0
   14.1539  -15.2868   22.5422 C   0  0  0  0  0  0  0  0  0  0  0  0
   14.1258  -15.8194   21.4026 O   0  0  0  0  0  0  0  0  0  0  0  0
   10.6671  -16.0671   23.6700 C   0  0  0  0  0  0  0  0  0  0  0  0
   10.9253  -16.9550   24.5273 O   0  0  0  0  0  0  0  0  0  0  0  0
   15.3802  -14.7105   22.9060 O   0  0  0  0  0  0  0  0  0  0  0  0
    9.4094  -15.4849   23.6840 O   0  0  0  0  0  0  0  0  0  0  0  0
  2  1  1  6
  2  9  1  0
  3  4  1  0
  3  2  1  0
  4  8  1  0
  5  6  1  0
  5  4  2  0
  6  7  1  0
  7  8  2  0
  9 15  1  0
  9 10  2  0
 12 11  1  6
 12 14  1  0
 13 12  1  0
 14 16  1  0
 14 15  1  6
 16 17  2  0
 16 18  1  0
 18 19  1  0
 19 23  1  0
 19 20  1  1
 20 21  1  0
 21 25  1  0
 21 22  2  0
 23 26  1  0
 24 23  2  0
M  END
$$$$
