HTD.pdb
     RDKit          3D

 26 26  0  0  1  0  0  0  0  0999 V2000
    9.3631  -18.3882   17.8810 N   0  0  0  0  0  0  0  0  0  0  0  0
   10.7029  -17.9734   18.2519 C   0  0  1  0  0  0  0  0  0  0  0  0
   11.3345  -17.3459   17.0328 C   0  0  0  0  0  0  0  0  0  0  0  0
   11.5295  -18.3285   15.9489 C   0  0  0  0  0  0  0  0  0  0  0  0
   12.5562  -19.2284   15.8402 C   0  0  0  0  0  0  0  0  0  0  0  0
   12.3469  -19.9389   14.6958 N   0  0  0  0  0  0  0  0  0  0  0  0
   11.2269  -19.4879   14.1219 C   0  0  0  0  0  0  0  0  0  0  0  0
   10.7179  -18.4930   14.8922 N   0  0  0  0  0  0  0  0  0  0  0  0
   10.5669  -16.8911   19.2962 C   0  0  0  0  0  0  0  0  0  0  0  0
   11.6151  -16.2652   19.6496 O   0  0  0  0  0  0  0  0  0  0  0  0
    7.6703  -14.3425   22.3743 C   0  0  0  0  0  0  0  0  0  0  0  0
    7.7781  -15.3842   21.2899 C   0  0  1  0  0  0  0  0  0  0  0  0
    7.0737  -15.0766   20.1494 O   0  0  0  0  0  0  0  0  0  0  0  0
    9.2338  -15.7294   21.0100 C   0  0  2  0  0  0  0  0  0  0  0  0
    9.3009  -16.5844   19.8649 N   0  0  0  0  0  0  0  0  0  0  0  0
    9.7683  -16.3417   22.2457 C   0  0  0  0  0  0  0  0  0  0  0  0
    9.3559  -17.4977   22.5312 O   0  0  0  0  0  0  0  0  0  0  0  0
   10.6924  -15.7515   23.1270 N   0  0  0  0  0  0  0  0  0  0  0  0
   11.1551  -16.3079   24.3536 C   0  0  1  0  0  0  0  0  0  0  0  0
   12.5225  -15.8224   24.7813 C   0  0  0  0  0  0  0  0  0  0  0  0
   13.5795  -16.2717   23.8276 C   0  0  0  0  0  0  0  0  0  0  0  0
   13.3753  -17.1774   22.9784 O   0  0  0  0  0  0  0  0  0  0  0  0
   10.2098  -16.1891   25.4703 C   0  0  0  0  0  0  0  0  0  0  0  0
   10.4405  -16.8447   26.5223 O   0  0  0  0  0  0  0  0  0  0  0  0
   14.8673  -15.7152   23.8148 O   0  0  0  0  0  0  0  0  0  0  0  0
    9.0762  -15.3928   25.4266 O   0  0  0  0  0  0  0  0  0  0  0  0
  2  1  1  6
  2  9  1  0
  3  4  1  0
  3  2  1  0
  4  8  1  0
  5  6  1  0
  5  4  2  0
  6  7  1  0
  7  8  2  0
  9 15  1  0
  9 10  2  0
 12 11  1  1
 12 14  1  0
 13 12  1  0
 14 16  1  0
 14 15  1  6
 16 17  2  0
 16 18  1  0
 18 19  1  0
 19 23  1  0
 19 20  1  1
 20 21  1  0
 21 25  1  0
 21 22  2  0
 23 26  1  0
 24 23  2  0
M  END
$$$$
