HTD.pdb
     RDKit          3D

 26 26  0  0  1  0  0  0  0  0999 V2000
    9.4764  -15.5780   13.7015 N   0  0  0  0  0  0  0  0  0  0  0  0
    9.2154  -16.1837   14.9937 C   0  0  1  0  0  0  0  0  0  0  0  0
    9.9024  -17.5277   15.0088 C   0  0  0  0  0  0  0  0  0  0  0  0
    9.1787  -18.5228   14.1937 C   0  0  0  0  0  0  0  0  0  0  0  0
    8.1013  -19.2706   14.5884 C   0  0  0  0  0  0  0  0  0  0  0  0
    7.7481  -20.0542   13.5302 N   0  0  0  0  0  0  0  0  0  0  0  0
    8.5834  -19.7941   12.5194 C   0  0  0  0  0  0  0  0  0  0  0  0
    9.4691  -18.8485   12.9241 N   0  0  0  0  0  0  0  0  0  0  0  0
    9.8856  -15.3236   16.0383 C   0  0  0  0  0  0  0  0  0  0  0  0
   10.9888  -14.7682   15.7387 O   0  0  0  0  0  0  0  0  0  0  0  0
    7.8812  -12.8396   18.5507 C   0  0  0  0  0  0  0  0  0  0  0  0
    8.8617  -13.7562   19.2370 C   0  0  1  0  0  0  0  0  0  0  0  0
    8.2696  -14.7715   19.9512 O   0  0  0  0  0  0  0  0  0  0  0  0
    9.9138  -14.2581   18.2583 C   0  0  2  0  0  0  0  0  0  0  0  0
    9.2959  -15.1428   17.3190 N   0  0  0  0  0  0  0  0  0  0  0  0
   10.9761  -14.8929   19.0682 C   0  0  0  0  0  0  0  0  0  0  0  0
   10.9236  -16.1458   19.1925 O   0  0  0  0  0  0  0  0  0  0  0  0
   12.0357  -14.2259   19.7095 N   0  0  0  0  0  0  0  0  0  0  0  0
   13.0982  -14.8394   20.4326 C   0  0  1  0  0  0  0  0  0  0  0  0
   14.2556  -13.9160   20.7425 C   0  0  0  0  0  0  0  0  0  0  0  0
   15.3851  -14.6576   21.3772 C   0  0  0  0  0  0  0  0  0  0  0  0
   15.3282  -15.8922   21.6129 O   0  0  0  0  0  0  0  0  0  0  0  0
   12.6783  -15.5421   21.6511 C   0  0  0  0  0  0  0  0  0  0  0  0
   13.5452  -16.1917   22.2964 O   0  0  0  0  0  0  0  0  0  0  0  0
   16.5821  -14.0289   21.7518 O   0  0  0  0  0  0  0  0  0  0  0  0
   11.3770  -15.5279   22.1280 O   0  0  0  0  0  0  0  0  0  0  0  0
  2  1  1  6
  2  9  1  0
  3  4  1  0
  3  2  1  0
  4  8  1  0
  5  6  1  0
  5  4  2  0
  6  7  1  0
  7  8  2  0
  9 15  1  0
  9 10  2  0
 12 11  1  6
 12 14  1  0
 13 12  1  0
 14 16  1  0
 14 15  1  6
 16 17  2  0
 16 18  1  0
 18 19  1  0
 19 23  1  0
 19 20  1  1
 20 21  1  0
 21 25  1  0
 21 22  2  0
 23 26  1  0
 24 23  2  0
M  END
$$$$
