GQL.pdb
     RDKit          3D

 22 21  0  0  1  0  0  0  0  0999 V2000
    7.7531  -12.6674   18.7299 N   0  0  0  0  0  0  0  0  0  0  0  0
    8.6084  -13.6345   19.3391 C   0  0  0  0  0  0  0  0  0  0  0  0
    7.9784  -14.2871   20.5246 C   0  0  0  0  0  0  0  0  0  0  0  0
    6.8809  -13.8283   20.9324 O   0  0  0  0  0  0  0  0  0  0  0  0
    5.2983  -18.6003   23.7981 N   0  0  0  0  0  0  0  0  0  0  0  0
    6.3162  -18.8240   22.8467 C   0  0  0  0  0  0  0  0  0  0  0  0
    5.9882  -19.3116   21.7419 O   0  0  0  0  0  0  0  0  0  0  0  0
    7.7626  -18.4957   23.1239 C   0  0  0  0  0  0  0  0  0  0  0  0
    8.2062  -17.5368   22.0898 C   0  0  0  0  0  0  0  0  0  0  0  0
    7.9106  -16.0925   22.3112 C   0  0  2  0  0  0  0  0  0  0  0  0
    8.5555  -15.3805   21.1953 N   0  0  0  0  0  0  0  0  0  0  0  0
    8.4452  -15.5507   23.5688 C   0  0  0  0  0  0  0  0  0  0  0  0
    9.6918  -15.3425   23.6511 O   0  0  0  0  0  0  0  0  0  0  0  0
    7.8246  -11.6388   25.3347 C   0  0  0  0  0  0  0  0  0  0  0  0
    6.8292  -12.6068   25.9099 C   0  0  2  0  0  0  0  0  0  0  0  0
    5.8760  -11.8297   26.8283 C   0  0  0  0  0  0  0  0  0  0  0  0
    7.5013  -13.6921   26.6603 C   0  0  0  0  0  0  0  0  0  0  0  0
    8.2779  -14.6957   25.8904 C   0  0  2  0  0  0  0  0  0  0  0  0
    7.6805  -15.2293   24.7218 N   0  0  0  0  0  0  0  0  0  0  0  0
    8.8341  -15.7812   26.7349 C   0  0  0  0  0  0  0  0  0  0  0  0
    8.4775  -16.9555   26.5018 O   0  0  0  0  0  0  0  0  0  0  0  0
    9.7271  -15.5570   27.7664 O   0  0  0  0  0  0  0  0  0  0  0  0
  1  2  1  0
  2  3  1  0
  3  4  2  0
  5  6  1  0
  6  8  1  0
  7  6  2  0
  8  9  1  0
 10  9  1  6
 11  3  1  0
 11 10  1  0
 12 19  1  0
 12 10  1  0
 13 12  2  0
 15 14  1  1
 15 17  1  0
 15 16  1  0
 18 17  1  1
 18 20  1  0
 18 19  1  0
 20 22  1  0
 21 20  2  0
M  END
$$$$
