GQL.pdb
     RDKit          3D

 22 21  0  0  1  0  0  0  0  0999 V2000
   13.5322  -17.8941   21.1115 N   0  0  0  0  0  0  0  0  0  0  0  0
   12.1357  -18.0433   21.3674 C   0  0  0  0  0  0  0  0  0  0  0  0
   11.5406  -16.8333   22.0077 C   0  0  0  0  0  0  0  0  0  0  0  0
   12.3109  -16.0639   22.6371 O   0  0  0  0  0  0  0  0  0  0  0  0
    6.6437  -13.1142   20.2590 N   0  0  0  0  0  0  0  0  0  0  0  0
    7.7129  -13.8451   19.6986 C   0  0  0  0  0  0  0  0  0  0  0  0
    7.6164  -14.1998   18.5025 O   0  0  0  0  0  0  0  0  0  0  0  0
    8.9459  -14.2023   20.4916 C   0  0  0  0  0  0  0  0  0  0  0  0
    8.4979  -14.8700   21.7321 C   0  0  0  0  0  0  0  0  0  0  0  0
    9.5451  -15.3985   22.6521 C   0  0  2  0  0  0  0  0  0  0  0  0
   10.1705  -16.5230   21.9363 N   0  0  0  0  0  0  0  0  0  0  0  0
    9.0280  -15.9027   23.9325 C   0  0  0  0  0  0  0  0  0  0  0  0
    8.6976  -17.1231   24.0078 O   0  0  0  0  0  0  0  0  0  0  0  0
    9.6874  -13.6975   29.2574 C   0  0  0  0  0  0  0  0  0  0  0  0
    9.7443  -14.5127   27.9961 C   0  0  2  0  0  0  0  0  0  0  0  0
   10.4572  -13.6844   26.9182 C   0  0  0  0  0  0  0  0  0  0  0  0
    8.3895  -14.8996   27.5403 C   0  0  0  0  0  0  0  0  0  0  0  0
    8.2725  -15.6810   26.2838 C   0  0  2  0  0  0  0  0  0  0  0  0
    8.8637  -15.1365   25.1171 N   0  0  0  0  0  0  0  0  0  0  0  0
    6.8893  -16.1384   26.0037 C   0  0  0  0  0  0  0  0  0  0  0  0
    6.2787  -15.6258   25.0421 O   0  0  0  0  0  0  0  0  0  0  0  0
    6.2436  -17.1036   26.7541 O   0  0  0  0  0  0  0  0  0  0  0  0
  1  2  1  0
  2  3  1  0
  3  4  2  0
  5  6  1  0
  6  8  1  0
  7  6  2  0
  8  9  1  0
 10  9  1  6
 11  3  1  0
 11 10  1  0
 12 19  1  0
 12 10  1  0
 13 12  2  0
 15 14  1  1
 15 17  1  0
 15 16  1  0
 18 17  1  1
 18 20  1  0
 18 19  1  0
 20 22  1  0
 21 20  2  0
M  END
$$$$
