GQL.pdb
     RDKit          3D

 22 21  0  0  1  0  0  0  0  0999 V2000
    6.0463  -19.7151   22.2656 N   0  0  0  0  0  0  0  0  0  0  0  0
    5.8219  -18.3907   22.7490 C   0  0  0  0  0  0  0  0  0  0  0  0
    6.9388  -17.4615   22.4064 C   0  0  0  0  0  0  0  0  0  0  0  0
    8.0390  -17.9670   22.0666 O   0  0  0  0  0  0  0  0  0  0  0  0
    8.8390  -12.5900   19.7119 N   0  0  0  0  0  0  0  0  0  0  0  0
    7.8336  -13.4251   19.1798 C   0  0  0  0  0  0  0  0  0  0  0  0
    7.7753  -13.5521   17.9363 O   0  0  0  0  0  0  0  0  0  0  0  0
    6.8461  -14.1544   20.0571 C   0  0  0  0  0  0  0  0  0  0  0  0
    7.2764  -13.9688   21.4592 C   0  0  0  0  0  0  0  0  0  0  0  0
    7.9109  -15.1281   22.1490 C   0  0  2  0  0  0  0  0  0  0  0  0
    6.8118  -16.0613   22.4479 N   0  0  0  0  0  0  0  0  0  0  0  0
    8.5790  -14.7888   23.4136 C   0  0  0  0  0  0  0  0  0  0  0  0
    9.0611  -13.6250   23.5447 O   0  0  0  0  0  0  0  0  0  0  0  0
    8.1337  -12.2768   26.5900 C   0  0  0  0  0  0  0  0  0  0  0  0
    7.1061  -13.1441   25.9187 C   0  0  2  0  0  0  0  0  0  0  0  0
    5.7145  -12.6841   26.3747 C   0  0  0  0  0  0  0  0  0  0  0  0
    7.3106  -14.5746   26.2425 C   0  0  0  0  0  0  0  0  0  0  0  0
    8.6012  -15.1994   25.8590 C   0  0  2  0  0  0  0  0  0  0  0  0
    8.7352  -15.6587   24.5255 N   0  0  0  0  0  0  0  0  0  0  0  0
    9.0593  -16.2355   26.8169 C   0  0  0  0  0  0  0  0  0  0  0  0
    9.0408  -15.9651   28.0363 O   0  0  0  0  0  0  0  0  0  0  0  0
    9.5053  -17.4846   26.4264 O   0  0  0  0  0  0  0  0  0  0  0  0
  1  2  1  0
  2  3  1  0
  3  4  2  0
  5  6  1  0
  6  8  1  0
  7  6  2  0
  8  9  1  0
 10  9  1  1
 11  3  1  0
 11 10  1  0
 12 19  1  0
 12 10  1  0
 13 12  2  0
 15 14  1  1
 15 17  1  0
 15 16  1  0
 18 17  1  1
 18 20  1  0
 18 19  1  0
 20 22  1  0
 21 20  2  0
M  END
$$$$
