GQL.pdb
     RDKit          3D

 22 21  0  0  1  0  0  0  0  0999 V2000
    6.9765  -18.8929   20.2249 N   0  0  0  0  0  0  0  0  0  0  0  0
    6.5384  -17.6593   20.7945 C   0  0  0  0  0  0  0  0  0  0  0  0
    7.6300  -16.6435   20.8642 C   0  0  0  0  0  0  0  0  0  0  0  0
    8.8163  -17.0500   20.7698 O   0  0  0  0  0  0  0  0  0  0  0  0
    9.6818  -13.0970   18.4119 N   0  0  0  0  0  0  0  0  0  0  0  0
    8.3183  -13.2915   18.1050 C   0  0  0  0  0  0  0  0  0  0  0  0
    8.0157  -13.5458   16.9177 O   0  0  0  0  0  0  0  0  0  0  0  0
    7.2370  -13.2021   19.1536 C   0  0  0  0  0  0  0  0  0  0  0  0
    7.9018  -13.0343   20.4634 C   0  0  0  0  0  0  0  0  0  0  0  0
    8.4511  -14.2530   21.1233 C   0  0  2  0  0  0  0  0  0  0  0  0
    7.3883  -15.2678   21.0292 N   0  0  0  0  0  0  0  0  0  0  0  0
    8.7872  -14.0737   22.5431 C   0  0  0  0  0  0  0  0  0  0  0  0
    9.5720  -13.1315   22.8600 O   0  0  0  0  0  0  0  0  0  0  0  0
    8.3208  -12.8090   27.2693 C   0  0  0  0  0  0  0  0  0  0  0  0
    7.1462  -12.5034   26.3829 C   0  0  2  0  0  0  0  0  0  0  0  0
    5.8803  -13.0562   27.0522 C   0  0  0  0  0  0  0  0  0  0  0  0
    7.3183  -13.0915   25.0348 C   0  0  0  0  0  0  0  0  0  0  0  0
    8.1115  -14.3401   24.9140 C   0  0  2  0  0  0  0  0  0  0  0  0
    8.3030  -14.8707   23.6144 N   0  0  0  0  0  0  0  0  0  0  0  0
    7.6791  -15.4035   25.8538 C   0  0  0  0  0  0  0  0  0  0  0  0
    7.9724  -15.2821   27.0620 O   0  0  0  0  0  0  0  0  0  0  0  0
    6.9680  -16.5213   25.4583 O   0  0  0  0  0  0  0  0  0  0  0  0
  1  2  1  0
  2  3  1  0
  3  4  2  0
  5  6  1  0
  6  8  1  0
  7  6  2  0
  8  9  1  0
 10  9  1  1
 11  3  1  0
 11 10  1  0
 12 19  1  0
 12 10  1  0
 13 12  2  0
 15 14  1  1
 15 17  1  0
 15 16  1  0
 18 17  1  6
 18 20  1  0
 18 19  1  0
 20 22  1  0
 21 20  2  0
M  END
$$$$
