GQL.pdb
     RDKit          3D

 22 21  0  0  1  0  0  0  0  0999 V2000
   12.0641  -19.2317   20.8808 N   0  0  0  0  0  0  0  0  0  0  0  0
   10.6914  -19.0307   21.2175 C   0  0  0  0  0  0  0  0  0  0  0  0
   10.3270  -17.5849   21.2880 C   0  0  0  0  0  0  0  0  0  0  0  0
   11.2621  -16.7441   21.2955 O   0  0  0  0  0  0  0  0  0  0  0  0
    8.2935  -14.4803   18.2305 N   0  0  0  0  0  0  0  0  0  0  0  0
    7.7157  -13.6207   19.1889 C   0  0  0  0  0  0  0  0  0  0  0  0
    7.8448  -12.3872   19.0225 O   0  0  0  0  0  0  0  0  0  0  0  0
    6.9606  -14.1428   20.3863 C   0  0  0  0  0  0  0  0  0  0  0  0
    7.4196  -15.5265   20.6317 C   0  0  0  0  0  0  0  0  0  0  0  0
    8.6183  -15.7161   21.4975 C   0  0  2  0  0  0  0  0  0  0  0  0
    8.9970  -17.1309   21.3456 N   0  0  0  0  0  0  0  0  0  0  0  0
    8.3815  -15.4572   22.9250 C   0  0  0  0  0  0  0  0  0  0  0  0
    7.7869  -16.3445   23.6057 O   0  0  0  0  0  0  0  0  0  0  0  0
    5.4605  -12.1063   26.5699 C   0  0  0  0  0  0  0  0  0  0  0  0
    6.8203  -12.7453   26.5338 C   0  0  2  0  0  0  0  0  0  0  0  0
    7.8241  -11.7798   27.1789 C   0  0  0  0  0  0  0  0  0  0  0  0
    7.2297  -13.0682   25.1478 C   0  0  0  0  0  0  0  0  0  0  0  0
    8.3402  -14.0339   24.9552 C   0  0  2  0  0  0  0  0  0  0  0  0
    8.7667  -14.2844   23.6276 N   0  0  0  0  0  0  0  0  0  0  0  0
    8.1444  -15.3078   25.6899 C   0  0  0  0  0  0  0  0  0  0  0  0
    7.2011  -16.0513   25.3466 O   0  0  0  0  0  0  0  0  0  0  0  0
    8.9542  -15.7121   26.7352 O   0  0  0  0  0  0  0  0  0  0  0  0
  1  2  1  0
  2  3  1  0
  3  4  2  0
  5  6  1  0
  6  8  1  0
  7  6  2  0
  8  9  1  0
 10  9  1  6
 11  3  1  0
 11 10  1  0
 12 19  1  0
 12 10  1  0
 13 12  2  0
 15 14  1  6
 15 17  1  0
 15 16  1  0
 18 17  1  6
 18 20  1  0
 18 19  1  0
 20 22  1  0
 21 20  2  0
M  END
$$$$
