GQL.pdb
     RDKit          3D

 22 21  0  0  1  0  0  0  0  0999 V2000
    3.7872  -18.3884   20.7820 N   0  0  0  0  0  0  0  0  0  0  0  0
    5.1669  -18.4468   21.1441 C   0  0  0  0  0  0  0  0  0  0  0  0
    5.3989  -18.0708   22.5699 C   0  0  0  0  0  0  0  0  0  0  0  0
    4.4621  -17.5017   23.1863 O   0  0  0  0  0  0  0  0  0  0  0  0
    6.6611  -21.5878   26.4513 N   0  0  0  0  0  0  0  0  0  0  0  0
    7.3097  -20.6062   27.2304 C   0  0  0  0  0  0  0  0  0  0  0  0
    7.4222  -20.8141   28.4593 O   0  0  0  0  0  0  0  0  0  0  0  0
    7.8601  -19.3364   26.6294 C   0  0  0  0  0  0  0  0  0  0  0  0
    7.4721  -19.3159   25.2030 C   0  0  0  0  0  0  0  0  0  0  0  0
    6.8118  -18.0853   24.6816 C   0  0  2  0  0  0  0  0  0  0  0  0
    6.6076  -18.3242   23.2431 N   0  0  0  0  0  0  0  0  0  0  0  0
    7.6094  -16.8597   24.8325 C   0  0  0  0  0  0  0  0  0  0  0  0
    8.6420  -16.7227   24.1120 O   0  0  0  0  0  0  0  0  0  0  0  0
    6.6862  -12.2340   24.6284 C   0  0  0  0  0  0  0  0  0  0  0  0
    6.4392  -12.9132   25.9461 C   0  0  2  0  0  0  0  0  0  0  0  0
    5.8235  -11.8885   26.9089 C   0  0  0  0  0  0  0  0  0  0  0  0
    7.6902  -13.4685   26.5115 C   0  0  0  0  0  0  0  0  0  0  0  0
    8.2282  -14.7192   25.9206 C   0  0  2  0  0  0  0  0  0  0  0  0
    7.3243  -15.7924   25.7252 N   0  0  0  0  0  0  0  0  0  0  0  0
    9.4684  -15.1946   26.5816 C   0  0  0  0  0  0  0  0  0  0  0  0
    9.4362  -16.2869   27.1868 O   0  0  0  0  0  0  0  0  0  0  0  0
   10.6569  -14.4885   26.5606 O   0  0  0  0  0  0  0  0  0  0  0  0
  1  2  1  0
  2  3  1  0
  3  4  2  0
  5  6  1  0
  6  8  1  0
  7  6  2  0
  8  9  1  0
 10  9  1  6
 11  3  1  0
 11 10  1  0
 12 19  1  0
 12 10  1  0
 13 12  2  0
 15 14  1  6
 15 17  1  0
 15 16  1  0
 18 17  1  1
 18 20  1  0
 18 19  1  0
 20 22  1  0
 21 20  2  0
M  END
$$$$
