EIG.pdb
     RDKit          3D

 22 21  0  0  1  0  0  0  0  0999 V2000
   17.9200  -12.5069  -16.4432 N   0  0  0  0  0  0  0  0  0  0  0  0
   18.6180  -11.4396  -17.0510 C   0  0  1  0  0  0  0  0  0  0  0  0
   17.7896  -10.6567  -17.9973 C   0  0  0  0  0  0  0  0  0  0  0  0
   17.1027  -11.4550  -19.0348 C   0  0  0  0  0  0  0  0  0  0  0  0
   16.2767  -10.7504  -19.9999 C   0  0  0  0  0  0  0  0  0  0  0  0
   15.6221  -11.1989  -20.9579 O   0  0  0  0  0  0  0  0  0  0  0  0
   19.3288  -10.5681  -16.0584 C   0  0  0  0  0  0  0  0  0  0  0  0
   18.9744  -10.5332  -14.8507 O   0  0  0  0  0  0  0  0  0  0  0  0
   16.1809   -9.3446  -19.8581 O   0  0  0  0  0  0  0  0  0  0  0  0
   22.4461  -11.1748  -13.7508 C   0  0  0  0  0  0  0  0  0  0  0  0
   22.8474  -10.8274  -15.1908 C   0  0  0  0  0  0  0  0  0  0  0  0
   22.6101   -9.3685  -15.3710 C   0  0  2  0  0  0  0  0  0  0  0  0
   23.3415   -8.5532  -14.3075 C   0  0  0  0  0  0  0  0  0  0  0  0
   21.1895   -8.9439  -15.4927 C   0  0  2  0  0  0  0  0  0  0  0  0
   20.4255   -9.7474  -16.4282 N   0  0  0  0  0  0  0  0  0  0  0  0
   21.0497   -7.5087  -15.8451 C   0  0  0  0  0  0  0  0  0  0  0  0
   21.8914   -6.9974  -16.6566 O   0  0  0  0  0  0  0  0  0  0  0  0
   20.0074   -6.7396  -15.2877 N   0  0  0  0  0  0  0  0  0  0  0  0
   19.9394   -5.3210  -15.5405 C   0  0  0  0  0  0  0  0  0  0  0  0
   18.8359   -4.6575  -14.8443 C   0  0  0  0  0  0  0  0  0  0  0  0
   17.9631   -4.0066  -15.4551 O   0  0  0  0  0  0  0  0  0  0  0  0
   18.7503   -4.7514  -13.4511 O   0  0  0  0  0  0  0  0  0  0  0  0
  2  1  1  1
  2  7  1  0
  3  2  1  0
  3  4  1  0
  5  4  1  0
  5  6  2  0
  7  8  2  0
  9  5  1  0
 10 11  1  0
 11 12  1  0
 12 13  1  1
 12 14  1  0
 14 16  1  0
 14 15  1  6
 15  7  1  0
 16 17  2  0
 18 16  1  0
 18 19  1  0
 19 20  1  0
 20 21  2  0
 20 22  1  0
M  END
$$$$
