EIG.pdb
     RDKit          3D

 22 21  0  0  1  0  0  0  0  0999 V2000
   17.3738   -9.4800  -14.1476 N   0  0  0  0  0  0  0  0  0  0  0  0
   18.0280   -8.5598  -14.9966 C   0  0  1  0  0  0  0  0  0  0  0  0
   17.2888   -7.2874  -15.1677 C   0  0  0  0  0  0  0  0  0  0  0  0
   15.8305   -7.4332  -15.3614 C   0  0  0  0  0  0  0  0  0  0  0  0
   15.0536   -6.2313  -15.6109 C   0  0  0  0  0  0  0  0  0  0  0  0
   14.9683   -5.1900  -14.9358 O   0  0  0  0  0  0  0  0  0  0  0  0
   19.4636   -8.3400  -14.6213 C   0  0  0  0  0  0  0  0  0  0  0  0
   19.8894   -8.6342  -13.4736 O   0  0  0  0  0  0  0  0  0  0  0  0
   14.2658   -6.2087  -16.7875 O   0  0  0  0  0  0  0  0  0  0  0  0
   23.4351   -9.8949  -17.9493 C   0  0  0  0  0  0  0  0  0  0  0  0
   22.5681   -9.6404  -16.7088 C   0  0  0  0  0  0  0  0  0  0  0  0
   22.6705   -8.1886  -16.3941 C   0  0  2  0  0  0  0  0  0  0  0  0
   24.1257   -7.7611  -16.2204 C   0  0  0  0  0  0  0  0  0  0  0  0
   21.8274   -7.6986  -15.2705 C   0  0  2  0  0  0  0  0  0  0  0  0
   20.4039   -7.7945  -15.5331 N   0  0  0  0  0  0  0  0  0  0  0  0
   22.1630   -6.3101  -14.8669 C   0  0  0  0  0  0  0  0  0  0  0  0
   23.2843   -6.0973  -14.2962 O   0  0  0  0  0  0  0  0  0  0  0  0
   21.2539   -5.2605  -15.1131 N   0  0  0  0  0  0  0  0  0  0  0  0
   21.6291   -3.8966  -14.8305 C   0  0  0  0  0  0  0  0  0  0  0  0
   20.5496   -2.9355  -15.0623 C   0  0  0  0  0  0  0  0  0  0  0  0
   19.4479   -3.2787  -15.5384 O   0  0  0  0  0  0  0  0  0  0  0  0
   20.7519   -1.5886  -14.7428 O   0  0  0  0  0  0  0  0  0  0  0  0
  2  1  1  1
  2  7  1  0
  3  2  1  0
  3  4  1  0
  5  4  1  0
  5  6  2  0
  7  8  2  0
  9  5  1  0
 10 11  1  0
 11 12  1  0
 12 13  1  1
 12 14  1  0
 14 16  1  0
 14 15  1  6
 15  7  1  0
 16 17  2  0
 18 16  1  0
 18 19  1  0
 19 20  1  0
 20 21  2  0
 20 22  1  0
M  END
$$$$
