EIG.pdb
     RDKit          3D

 22 21  0  0  1  0  0  0  0  0999 V2000
   27.3387  -20.6771  -16.0856 N   0  0  0  0  0  0  0  0  0  0  0  0
   26.2721  -21.5975  -16.1901 C   0  0  1  0  0  0  0  0  0  0  0  0
   26.6543  -22.8709  -16.8436 C   0  0  0  0  0  0  0  0  0  0  0  0
   27.4249  -22.7236  -18.0966 C   0  0  0  0  0  0  0  0  0  0  0  0
   27.0973  -23.6040  -19.2046 C   0  0  0  0  0  0  0  0  0  0  0  0
   27.5364  -24.7368  -19.4715 O   0  0  0  0  0  0  0  0  0  0  0  0
   25.5608  -21.8153  -14.8875 C   0  0  0  0  0  0  0  0  0  0  0  0
   24.6902  -22.7163  -14.7632 O   0  0  0  0  0  0  0  0  0  0  0  0
   26.1405  -23.1341  -20.1369 O   0  0  0  0  0  0  0  0  0  0  0  0
   28.0757  -20.9896  -10.0675 C   0  0  0  0  0  0  0  0  0  0  0  0
   27.2948  -21.5713  -11.2537 C   0  0  0  0  0  0  0  0  0  0  0  0
   25.9788  -20.8758  -11.2941 C   0  0  2  0  0  0  0  0  0  0  0  0
   25.2032  -21.0826   -9.9955 C   0  0  0  0  0  0  0  0  0  0  0  0
   25.1255  -21.1524  -12.4810 C   0  0  2  0  0  0  0  0  0  0  0  0
   25.8316  -21.0236  -13.7416 N   0  0  0  0  0  0  0  0  0  0  0  0
   23.9008  -20.3142  -12.5128 C   0  0  0  0  0  0  0  0  0  0  0  0
   24.0325  -19.0497  -12.6230 O   0  0  0  0  0  0  0  0  0  0  0  0
   22.6279  -20.9142  -12.4208 N   0  0  0  0  0  0  0  0  0  0  0  0
   21.4462  -20.0932  -12.3190 C   0  0  0  0  0  0  0  0  0  0  0  0
   20.2067  -20.8657  -12.2221 C   0  0  0  0  0  0  0  0  0  0  0  0
   20.1833  -22.1036  -12.3820 O   0  0  0  0  0  0  0  0  0  0  0  0
   19.0069  -20.2028  -11.9419 O   0  0  0  0  0  0  0  0  0  0  0  0
  2  1  1  1
  2  7  1  0
  3  2  1  0
  3  4  1  0
  5  4  1  0
  5  6  2  0
  7  8  2  0
  9  5  1  0
 10 11  1  0
 11 12  1  0
 12 13  1  1
 12 14  1  0
 14 16  1  0
 14 15  1  6
 15  7  1  0
 16 17  2  0
 18 16  1  0
 18 19  1  0
 19 20  1  0
 20 21  2  0
 20 22  1  0
M  END
$$$$
