EIG.pdb
     RDKit          3D

 22 21  0  0  1  0  0  0  0  0999 V2000
   21.2769  -11.0665  -19.8496 N   0  0  0  0  0  0  0  0  0  0  0  0
   21.7950  -10.3729  -18.7333 C   0  0  1  0  0  0  0  0  0  0  0  0
   22.9270   -9.4782  -19.0689 C   0  0  0  0  0  0  0  0  0  0  0  0
   23.1686   -9.2917  -20.5154 C   0  0  0  0  0  0  0  0  0  0  0  0
   24.1848   -8.3348  -20.9179 C   0  0  0  0  0  0  0  0  0  0  0  0
   24.9449   -7.6453  -20.2149 O   0  0  0  0  0  0  0  0  0  0  0  0
   20.7326   -9.6752  -17.9365 C   0  0  0  0  0  0  0  0  0  0  0  0
   19.7229   -9.1728  -18.4962 O   0  0  0  0  0  0  0  0  0  0  0  0
   24.3622   -8.1333  -22.3084 O   0  0  0  0  0  0  0  0  0  0  0  0
   18.4832  -12.3751  -15.4083 C   0  0  0  0  0  0  0  0  0  0  0  0
   18.0824  -10.9174  -15.6727 C   0  0  0  0  0  0  0  0  0  0  0  0
   19.0317  -10.0582  -14.9126 C   0  0  2  0  0  0  0  0  0  0  0  0
   18.3675   -9.4596  -13.6753 C   0  0  0  0  0  0  0  0  0  0  0  0
   19.7475   -9.0162  -15.6971 C   0  0  2  0  0  0  0  0  0  0  0  0
   20.8127   -9.5483  -16.5257 N   0  0  0  0  0  0  0  0  0  0  0  0
   20.2827   -7.9253  -14.8444 C   0  0  0  0  0  0  0  0  0  0  0  0
   19.4852   -7.3333  -14.0432 O   0  0  0  0  0  0  0  0  0  0  0  0
   21.6424   -7.5608  -14.9292 N   0  0  0  0  0  0  0  0  0  0  0  0
   22.1597   -6.4975  -14.1031 C   0  0  0  0  0  0  0  0  0  0  0  0
   21.8906   -5.1614  -14.6371 C   0  0  0  0  0  0  0  0  0  0  0  0
   22.3535   -4.1304  -14.1069 O   0  0  0  0  0  0  0  0  0  0  0  0
   21.0904   -5.0282  -15.7769 O   0  0  0  0  0  0  0  0  0  0  0  0
  2  1  1  6
  2  7  1  0
  3  2  1  0
  3  4  1  0
  5  4  1  0
  5  6  2  0
  7  8  2  0
  9  5  1  0
 10 11  1  0
 11 12  1  0
 12 13  1  1
 12 14  1  0
 14 16  1  0
 14 15  1  1
 15  7  1  0
 16 17  2  0
 18 16  1  0
 18 19  1  0
 19 20  1  0
 20 21  2  0
 20 22  1  0
M  END
$$$$
