EIG.pdb
     RDKit          3D

 22 21  0  0  1  0  0  0  0  0999 V2000
   25.6957  -21.1680  -10.5863 N   0  0  0  0  0  0  0  0  0  0  0  0
   25.2936  -21.1134  -11.9394 C   0  0  1  0  0  0  0  0  0  0  0  0
   23.8872  -21.5267  -12.1534 C   0  0  0  0  0  0  0  0  0  0  0  0
   22.8849  -20.7488  -11.3947 C   0  0  0  0  0  0  0  0  0  0  0  0
   21.4871  -21.1182  -11.5363 C   0  0  0  0  0  0  0  0  0  0  0  0
   20.8755  -22.0946  -11.0674 O   0  0  0  0  0  0  0  0  0  0  0  0
   25.6068  -19.7973  -12.5875 C   0  0  0  0  0  0  0  0  0  0  0  0
   25.7334  -18.7479  -11.9034 O   0  0  0  0  0  0  0  0  0  0  0  0
   20.6726  -20.2623  -12.3170 O   0  0  0  0  0  0  0  0  0  0  0  0
   28.4115  -20.6059  -15.0882 C   0  0  0  0  0  0  0  0  0  0  0  0
   28.5077  -19.0749  -15.0422 C   0  0  0  0  0  0  0  0  0  0  0  0
   27.2380  -18.5398  -15.6067 C   0  0  2  0  0  0  0  0  0  0  0  0
   27.4727  -17.2278  -16.3512 C   0  0  0  0  0  0  0  0  0  0  0  0
   26.0951  -18.4256  -14.6612 C   0  0  2  0  0  0  0  0  0  0  0  0
   25.7744  -19.6714  -13.9908 N   0  0  0  0  0  0  0  0  0  0  0  0
   24.8728  -17.8818  -15.3044 C   0  0  0  0  0  0  0  0  0  0  0  0
   24.1577  -18.6670  -16.0118 O   0  0  0  0  0  0  0  0  0  0  0  0
   24.5226  -16.5268  -15.1307 N   0  0  0  0  0  0  0  0  0  0  0  0
   23.2728  -16.0294  -15.6518 C   0  0  0  0  0  0  0  0  0  0  0  0
   23.3407  -15.6486  -17.0636 C   0  0  0  0  0  0  0  0  0  0  0  0
   23.9396  -16.3444  -17.9094 O   0  0  0  0  0  0  0  0  0  0  0  0
   22.7173  -14.4693  -17.4852 O   0  0  0  0  0  0  0  0  0  0  0  0
  2  1  1  1
  2  7  1  0
  3  2  1  0
  3  4  1  0
  5  4  1  0
  5  6  2  0
  7  8  2  0
  9  5  1  0
 10 11  1  0
 11 12  1  0
 12 13  1  1
 12 14  1  0
 14 16  1  0
 14 15  1  6
 15  7  1  0
 16 17  2  0
 18 16  1  0
 18 19  1  0
 19 20  1  0
 20 21  2  0
 20 22  1  0
M  END
$$$$
