EIG.pdb
     RDKit          3D

 22 21  0  0  1  0  0  0  0  0999 V2000
   27.5238  -20.4395  -17.2237 N   0  0  0  0  0  0  0  0  0  0  0  0
   27.1288  -19.6652  -16.1101 C   0  0  1  0  0  0  0  0  0  0  0  0
   26.2790  -18.5063  -16.4697 C   0  0  0  0  0  0  0  0  0  0  0  0
   26.7260  -17.7482  -17.6575 C   0  0  0  0  0  0  0  0  0  0  0  0
   26.6018  -18.3845  -18.9574 C   0  0  0  0  0  0  0  0  0  0  0  0
   25.5923  -18.8456  -19.5193 O   0  0  0  0  0  0  0  0  0  0  0  0
   26.5324  -20.4907  -15.0088 C   0  0  0  0  0  0  0  0  0  0  0  0
   25.8876  -21.5428  -15.2591 O   0  0  0  0  0  0  0  0  0  0  0  0
   27.7852  -18.5152  -19.7241 O   0  0  0  0  0  0  0  0  0  0  0  0
   29.4209  -20.4604  -11.4018 C   0  0  0  0  0  0  0  0  0  0  0  0
   28.3763  -21.5722  -11.5690 C   0  0  0  0  0  0  0  0  0  0  0  0
   27.0393  -20.9513  -11.3586 C   0  0  2  0  0  0  0  0  0  0  0  0
   26.3342  -21.5531  -10.1456 C   0  0  0  0  0  0  0  0  0  0  0  0
   26.1383  -20.9144  -12.5419 C   0  0  2  0  0  0  0  0  0  0  0  0
   26.6642  -20.1298  -13.6430 N   0  0  0  0  0  0  0  0  0  0  0  0
   24.7722  -20.4409  -12.2060 C   0  0  0  0  0  0  0  0  0  0  0  0
   24.5943  -19.1939  -12.0017 O   0  0  0  0  0  0  0  0  0  0  0  0
   23.7052  -21.3587  -12.1165 N   0  0  0  0  0  0  0  0  0  0  0  0
   22.3792  -20.8974  -11.7851 C   0  0  0  0  0  0  0  0  0  0  0  0
   21.5253  -20.6894  -12.9557 C   0  0  0  0  0  0  0  0  0  0  0  0
   21.9381  -20.8774  -14.1187 O   0  0  0  0  0  0  0  0  0  0  0  0
   20.2043  -20.2666  -12.7729 O   0  0  0  0  0  0  0  0  0  0  0  0
  2  1  1  6
  2  7  1  0
  3  2  1  0
  3  4  1  0
  5  4  1  0
  5  6  2  0
  7  8  2  0
  9  5  1  0
 10 11  1  0
 11 12  1  0
 12 13  1  1
 12 14  1  0
 14 16  1  0
 14 15  1  6
 15  7  1  0
 16 17  2  0
 18 16  1  0
 18 19  1  0
 19 20  1  0
 20 21  2  0
 20 22  1  0
M  END
$$$$
