EIG.pdb
     RDKit          3D

 22 21  0  0  1  0  0  0  0  0999 V2000
   27.5735  -22.7242  -16.8264 N   0  0  0  0  0  0  0  0  0  0  0  0
   26.7091  -21.6698  -16.4567 C   0  0  1  0  0  0  0  0  0  0  0  0
   25.8829  -21.1645  -17.5777 C   0  0  0  0  0  0  0  0  0  0  0  0
   26.6436  -20.5581  -18.6908 C   0  0  0  0  0  0  0  0  0  0  0  0
   27.5044  -19.4272  -18.3904 C   0  0  0  0  0  0  0  0  0  0  0  0
   28.7298  -19.4000  -18.1787 O   0  0  0  0  0  0  0  0  0  0  0  0
   25.8894  -21.9875  -15.2412 C   0  0  0  0  0  0  0  0  0  0  0  0
   25.3493  -23.1156  -15.0963 O   0  0  0  0  0  0  0  0  0  0  0  0
   26.8899  -18.1531  -18.3209 O   0  0  0  0  0  0  0  0  0  0  0  0
   25.3536  -21.6375   -9.5618 C   0  0  0  0  0  0  0  0  0  0  0  0
   24.5570  -20.8019  -10.5730 C   0  0  0  0  0  0  0  0  0  0  0  0
   25.4010  -20.6703  -11.7927 C   0  0  2  0  0  0  0  0  0  0  0  0
   25.8132  -19.2191  -12.0267 C   0  0  0  0  0  0  0  0  0  0  0  0
   24.8600  -21.2836  -13.0355 C   0  0  2  0  0  0  0  0  0  0  0  0
   25.6841  -21.0409  -14.2044 N   0  0  0  0  0  0  0  0  0  0  0  0
   23.4645  -20.8650  -13.3193 C   0  0  0  0  0  0  0  0  0  0  0  0
   23.2576  -19.6711  -13.7196 O   0  0  0  0  0  0  0  0  0  0  0  0
   22.4014  -21.7751  -13.1449 N   0  0  0  0  0  0  0  0  0  0  0  0
   21.0530  -21.3860  -13.4786 C   0  0  0  0  0  0  0  0  0  0  0  0
   20.2804  -20.9163  -12.3275 C   0  0  0  0  0  0  0  0  0  0  0  0
   20.7634  -20.8765  -11.1771 O   0  0  0  0  0  0  0  0  0  0  0  0
   18.9588  -20.4974  -12.5150 O   0  0  0  0  0  0  0  0  0  0  0  0
  2  1  1  6
  2  7  1  0
  3  2  1  0
  3  4  1  0
  5  4  1  0
  5  6  2  0
  7  8  2  0
  9  5  1  0
 10 11  1  0
 11 12  1  0
 12 13  1  6
 12 14  1  0
 14 16  1  0
 14 15  1  6
 15  7  1  0
 16 17  2  0
 18 16  1  0
 18 19  1  0
 19 20  1  0
 20 21  2  0
 20 22  1  0
M  END
$$$$
