EIG.pdb
     RDKit          3D

 22 21  0  0  1  0  0  0  0  0999 V2000
   20.4608  -12.1971  -16.4948 N   0  0  0  0  0  0  0  0  0  0  0  0
   19.7892  -10.9592  -16.6052 C   0  0  1  0  0  0  0  0  0  0  0  0
   18.6477  -10.8225  -15.6710 C   0  0  0  0  0  0  0  0  0  0  0  0
   17.7390  -11.9875  -15.6199 C   0  0  0  0  0  0  0  0  0  0  0  0
   16.5597  -11.8944  -14.7768 C   0  0  0  0  0  0  0  0  0  0  0  0
   16.2386  -11.0127  -13.9602 O   0  0  0  0  0  0  0  0  0  0  0  0
   20.7198   -9.7842  -16.5453 C   0  0  0  0  0  0  0  0  0  0  0  0
   21.9534   -9.9395  -16.3472 O   0  0  0  0  0  0  0  0  0  0  0  0
   15.6162  -12.9460  -14.8741 O   0  0  0  0  0  0  0  0  0  0  0  0
   22.4185   -7.3972  -19.6294 C   0  0  0  0  0  0  0  0  0  0  0  0
   20.9393   -7.1530  -19.3014 C   0  0  0  0  0  0  0  0  0  0  0  0
   20.8924   -6.4532  -17.9878 C   0  0  2  0  0  0  0  0  0  0  0  0
   21.7903   -5.2186  -17.9860 C   0  0  0  0  0  0  0  0  0  0  0  0
   21.1326   -7.2958  -16.7854 C   0  0  2  0  0  0  0  0  0  0  0  0
   20.2597   -8.4518  -16.7075 N   0  0  0  0  0  0  0  0  0  0  0  0
   21.0455   -6.5247  -15.5201 C   0  0  0  0  0  0  0  0  0  0  0  0
   19.9541   -5.9211  -15.2501 O   0  0  0  0  0  0  0  0  0  0  0  0
   22.1512   -6.4676  -14.6465 N   0  0  0  0  0  0  0  0  0  0  0  0
   22.0374   -5.7905  -13.3779 C   0  0  0  0  0  0  0  0  0  0  0  0
   21.9560   -4.3342  -13.5001 C   0  0  0  0  0  0  0  0  0  0  0  0
   21.8510   -3.5905  -12.5030 O   0  0  0  0  0  0  0  0  0  0  0  0
   21.9966   -3.7505  -14.7709 O   0  0  0  0  0  0  0  0  0  0  0  0
  2  1  1  1
  2  7  1  0
  3  2  1  0
  3  4  1  0
  5  4  1  0
  5  6  2  0
  7  8  2  0
  9  5  1  0
 10 11  1  0
 11 12  1  0
 12 13  1  6
 12 14  1  0
 14 16  1  0
 14 15  1  1
 15  7  1  0
 16 17  2  0
 18 16  1  0
 18 19  1  0
 19 20  1  0
 20 21  2  0
 20 22  1  0
M  END
$$$$
