EIG.pdb
     RDKit          3D

 22 21  0  0  1  0  0  0  0  0999 V2000
   27.5186  -19.4435  -15.6576 N   0  0  0  0  0  0  0  0  0  0  0  0
   26.4933  -19.2305  -14.7094 C   0  0  1  0  0  0  0  0  0  0  0  0
   25.1509  -19.0785  -15.3170 C   0  0  0  0  0  0  0  0  0  0  0  0
   25.1500  -18.8022  -16.7693 C   0  0  0  0  0  0  0  0  0  0  0  0
   23.8666  -18.6452  -17.4315 C   0  0  0  0  0  0  0  0  0  0  0  0
   23.1554  -17.6314  -17.5483 O   0  0  0  0  0  0  0  0  0  0  0  0
   26.5069  -20.2402  -13.6001 C   0  0  0  0  0  0  0  0  0  0  0  0
   27.0036  -21.3851  -13.7671 O   0  0  0  0  0  0  0  0  0  0  0  0
   23.3153  -19.7966  -18.0447 O   0  0  0  0  0  0  0  0  0  0  0  0
   26.7677  -20.3460   -7.5228 C   0  0  0  0  0  0  0  0  0  0  0  0
   26.4174  -21.2010   -8.7482 C   0  0  0  0  0  0  0  0  0  0  0  0
   26.2719  -20.2717   -9.9025 C   0  0  2  0  0  0  0  0  0  0  0  0
   25.2968  -19.1411   -9.5836 C   0  0  0  0  0  0  0  0  0  0  0  0
   25.9593  -20.8982  -11.2152 C   0  0  2  0  0  0  0  0  0  0  0  0
   25.9656  -19.9573  -12.3194 N   0  0  0  0  0  0  0  0  0  0  0  0
   24.6726  -21.6381  -11.2039 C   0  0  0  0  0  0  0  0  0  0  0  0
   24.5337  -22.6032  -10.3807 O   0  0  0  0  0  0  0  0  0  0  0  0
   23.6367  -21.2734  -12.0887 N   0  0  0  0  0  0  0  0  0  0  0  0
   22.3976  -22.0120  -12.0965 C   0  0  0  0  0  0  0  0  0  0  0  0
   21.2936  -21.3045  -11.4459 C   0  0  0  0  0  0  0  0  0  0  0  0
   21.4442  -20.1824  -10.9199 O   0  0  0  0  0  0  0  0  0  0  0  0
   20.0275  -21.8983  -11.4084 O   0  0  0  0  0  0  0  0  0  0  0  0
  2  1  1  6
  2  7  1  0
  3  2  1  0
  3  4  1  0
  5  4  1  0
  5  6  2  0
  7  8  2  0
  9  5  1  0
 10 11  1  0
 11 12  1  0
 12 13  1  1
 12 14  1  0
 14 16  1  0
 14 15  1  6
 15  7  1  0
 16 17  2  0
 18 16  1  0
 18 19  1  0
 19 20  1  0
 20 21  2  0
 20 22  1  0
M  END
$$$$
