EIG.pdb
     RDKit          3D

 22 21  0  0  1  0  0  0  0  0999 V2000
   27.6473  -22.6068  -17.2718 N   0  0  0  0  0  0  0  0  0  0  0  0
   27.1127  -21.4775  -16.6125 C   0  0  1  0  0  0  0  0  0  0  0  0
   26.1497  -20.7135  -17.4392 C   0  0  0  0  0  0  0  0  0  0  0  0
   26.7181  -20.1099  -18.6632 C   0  0  0  0  0  0  0  0  0  0  0  0
   27.4679  -18.8732  -18.5272 C   0  0  0  0  0  0  0  0  0  0  0  0
   27.0767  -17.7451  -18.1782 O   0  0  0  0  0  0  0  0  0  0  0  0
   26.5674  -21.8007  -15.2529 C   0  0  0  0  0  0  0  0  0  0  0  0
   26.0291  -22.9136  -15.0145 O   0  0  0  0  0  0  0  0  0  0  0  0
   28.8507  -18.9241  -18.8286 O   0  0  0  0  0  0  0  0  0  0  0  0
   29.5037  -20.7468  -10.9608 C   0  0  0  0  0  0  0  0  0  0  0  0
   28.5794  -21.4067  -11.9930 C   0  0  0  0  0  0  0  0  0  0  0  0
   27.2205  -20.8312  -11.7942 C   0  0  2  0  0  0  0  0  0  0  0  0
   26.6997  -21.1148  -10.3875 C   0  0  0  0  0  0  0  0  0  0  0  0
   26.2040  -21.1754  -12.8245 C   0  0  2  0  0  0  0  0  0  0  0  0
   26.6309  -20.8764  -14.1783 N   0  0  0  0  0  0  0  0  0  0  0  0
   24.8899  -20.5345  -12.5679 C   0  0  0  0  0  0  0  0  0  0  0  0
   24.8176  -19.2609  -12.6036 O   0  0  0  0  0  0  0  0  0  0  0  0
   23.7564  -21.3264  -12.2908 N   0  0  0  0  0  0  0  0  0  0  0  0
   22.4939  -20.7006  -11.9822 C   0  0  0  0  0  0  0  0  0  0  0  0
   21.4099  -21.1016  -12.8804 C   0  0  0  0  0  0  0  0  0  0  0  0
   21.6063  -21.8411  -13.8669 O   0  0  0  0  0  0  0  0  0  0  0  0
   20.1109  -20.6457  -12.6319 O   0  0  0  0  0  0  0  0  0  0  0  0
  2  1  1  6
  2  7  1  0
  3  2  1  0
  3  4  1  0
  5  4  1  0
  5  6  2  0
  7  8  2  0
  9  5  1  0
 10 11  1  0
 11 12  1  0
 12 13  1  1
 12 14  1  0
 14 16  1  0
 14 15  1  6
 15  7  1  0
 16 17  2  0
 18 16  1  0
 18 19  1  0
 19 20  1  0
 20 21  2  0
 20 22  1  0
M  END
$$$$
