EIG.pdb
     RDKit          3D

 22 21  0  0  1  0  0  0  0  0999 V2000
   15.0223  -11.3403  -12.1437 N   0  0  0  0  0  0  0  0  0  0  0  0
   15.7506  -10.1588  -11.8806 C   0  0  1  0  0  0  0  0  0  0  0  0
   16.5473   -9.6876  -13.0372 C   0  0  0  0  0  0  0  0  0  0  0  0
   17.5050  -10.6745  -13.5799 C   0  0  0  0  0  0  0  0  0  0  0  0
   18.2773  -10.3001  -14.7519 C   0  0  0  0  0  0  0  0  0  0  0  0
   19.3212   -9.6282  -14.8300 O   0  0  0  0  0  0  0  0  0  0  0  0
   14.9028   -9.0712  -11.2903 C   0  0  0  0  0  0  0  0  0  0  0  0
   13.6769   -8.9802  -11.5628 O   0  0  0  0  0  0  0  0  0  0  0  0
   17.7989  -10.7499  -16.0067 O   0  0  0  0  0  0  0  0  0  0  0  0
   12.0994   -6.4058   -8.4229 C   0  0  0  0  0  0  0  0  0  0  0  0
   13.4462   -6.3126   -7.6930 C   0  0  0  0  0  0  0  0  0  0  0  0
   14.3670   -7.2815   -8.3491 C   0  0  2  0  0  0  0  0  0  0  0  0
   15.6574   -7.4468   -7.5502 C   0  0  0  0  0  0  0  0  0  0  0  0
   14.6522   -7.0447   -9.7899 C   0  0  2  0  0  0  0  0  0  0  0  0
   15.4358   -8.1000  -10.4038 N   0  0  0  0  0  0  0  0  0  0  0  0
   15.3077   -5.7358  -10.0357 C   0  0  0  0  0  0  0  0  0  0  0  0
   16.5028   -5.5673   -9.6211 O   0  0  0  0  0  0  0  0  0  0  0  0
   14.6139   -4.7106  -10.7113 N   0  0  0  0  0  0  0  0  0  0  0  0
   15.2338   -3.4225  -10.9045 C   0  0  0  0  0  0  0  0  0  0  0  0
   15.1742   -2.5639   -9.7205 C   0  0  0  0  0  0  0  0  0  0  0  0
   14.5472   -2.8947   -8.6931 O   0  0  0  0  0  0  0  0  0  0  0  0
   15.8383   -1.3326   -9.7337 O   0  0  0  0  0  0  0  0  0  0  0  0
  2  1  1  6
  2  7  1  0
  3  2  1  0
  3  4  1  0
  5  4  1  0
  5  6  2  0
  7  8  2  0
  9  5  1  0
 10 11  1  0
 11 12  1  0
 12 13  1  1
 12 14  1  0
 14 16  1  0
 14 15  1  1
 15  7  1  0
 16 17  2  0
 18 16  1  0
 18 19  1  0
 19 20  1  0
 20 21  2  0
 20 22  1  0
M  END
$$$$
