GDS.pdb
     RDKit          3D

 19 18  0  0  1  0  0  0  0  0999 V2000
   15.9633  -10.9407  -14.7358 N   0  0  0  0  0  0  0  0  0  0  0  0
   16.5942  -10.1318  -15.7331 C   0  0  0  0  0  0  0  0  0  0  0  0
   17.9712   -9.7829  -15.3250 C   0  0  0  0  0  0  0  0  0  0  0  0
   18.2343   -9.7610  -14.0994 O   0  0  0  0  0  0  0  0  0  0  0  0
   19.0125   -9.4737  -16.2276 N   0  0  0  0  0  0  0  0  0  0  0  0
   20.3191   -9.0525  -15.7929 C   0  0  1  0  0  0  0  0  0  0  0  0
   21.4361   -9.5615  -16.7041 C   0  0  0  0  0  0  0  0  0  0  0  0
   22.7588   -9.3544  -16.1344 C   0  0  0  0  0  0  0  0  0  0  0  0
   22.8928   -8.7113  -15.0577 O   0  0  0  0  0  0  0  0  0  0  0  0
   20.4064   -7.5684  -15.8335 C   0  0  0  0  0  0  0  0  0  0  0  0
   19.9866   -6.9902  -16.8672 O   0  0  0  0  0  0  0  0  0  0  0  0
   23.8846   -9.8671  -16.7810 O   0  0  0  0  0  0  0  0  0  0  0  0
   19.6809   -3.3978  -14.0475 O   0  0  0  0  0  0  0  0  0  0  0  0
   19.6695   -4.7860  -14.1394 C   0  0  0  0  0  0  0  0  0  0  0  0
   20.9299   -5.3712  -14.7048 C   0  0  2  0  0  0  0  0  0  0  0  0
   20.9243   -6.7900  -14.7957 N   0  0  0  0  0  0  0  0  0  0  0  0
   22.0510   -4.9660  -13.8127 C   0  0  0  0  0  0  0  0  0  0  0  0
   22.7195   -3.7407  -13.9433 O   0  0  0  0  0  0  0  0  0  0  0  0
   22.4174   -5.7479  -12.9062 O   0  0  0  0  0  0  0  0  0  0  0  0
  1  2  1  0
  3  5  1  0
  3  2  1  0
  4  3  2  0
  6  5  1  0
  6  7  1  6
  7  8  1  0
  8 12  1  0
  8  9  2  0
 10  6  1  0
 10 11  2  0
 13 14  1  0
 15 14  1  1
 15 16  1  0
 16 10  1  0
 17 18  1  0
 17 15  1  0
 19 17  2  0
M  END
$$$$
