GDS.pdb
     RDKit          3D

 19 18  0  0  1  0  0  0  0  0999 V2000
   17.8932  -11.4393  -16.1574 N   0  0  0  0  0  0  0  0  0  0  0  0
   18.5154  -11.3044  -17.4387 C   0  0  0  0  0  0  0  0  0  0  0  0
   19.6649  -10.3784  -17.3636 C   0  0  0  0  0  0  0  0  0  0  0  0
   20.5027  -10.5532  -16.4474 O   0  0  0  0  0  0  0  0  0  0  0  0
   19.8825   -9.3085  -18.2595 N   0  0  0  0  0  0  0  0  0  0  0  0
   20.9746   -8.3816  -18.1133 C   0  0  1  0  0  0  0  0  0  0  0  0
   21.3004   -7.6447  -19.4125 C   0  0  0  0  0  0  0  0  0  0  0  0
   22.4246   -6.7321  -19.2695 C   0  0  0  0  0  0  0  0  0  0  0  0
   22.5279   -5.7284  -20.0263 O   0  0  0  0  0  0  0  0  0  0  0  0
   20.6092   -7.3278  -17.1294 C   0  0  0  0  0  0  0  0  0  0  0  0
   19.5852   -6.6400  -17.3688 O   0  0  0  0  0  0  0  0  0  0  0  0
   23.3939   -6.9674  -18.2930 O   0  0  0  0  0  0  0  0  0  0  0  0
   21.5382   -7.5218  -13.0409 O   0  0  0  0  0  0  0  0  0  0  0  0
   20.5728   -6.7316  -13.6567 C   0  0  0  0  0  0  0  0  0  0  0  0
   21.0198   -6.1187  -14.9511 C   0  0  2  0  0  0  0  0  0  0  0  0
   21.3349   -7.0637  -15.9654 N   0  0  0  0  0  0  0  0  0  0  0  0
   22.2407   -5.3149  -14.6678 C   0  0  0  0  0  0  0  0  0  0  0  0
   23.4557   -5.5195  -15.3363 O   0  0  0  0  0  0  0  0  0  0  0  0
   22.1868   -4.4172  -13.7968 O   0  0  0  0  0  0  0  0  0  0  0  0
  1  2  1  0
  3  5  1  0
  3  2  1  0
  4  3  2  0
  6  5  1  0
  6  7  1  6
  7  8  1  0
  8 12  1  0
  8  9  2  0
 10  6  1  0
 10 11  2  0
 13 14  1  0
 15 14  1  1
 15 16  1  0
 16 10  1  0
 17 18  1  0
 17 15  1  0
 19 17  2  0
M  END
$$$$
