GDS.pdb
     RDKit          3D

 19 18  0  0  1  0  0  0  0  0999 V2000
   17.6071   -9.3628  -17.1390 N   0  0  0  0  0  0  0  0  0  0  0  0
   17.0188   -8.0834  -16.8861 C   0  0  0  0  0  0  0  0  0  0  0  0
   17.7583   -7.3721  -15.8223 C   0  0  0  0  0  0  0  0  0  0  0  0
   17.1033   -6.9086  -14.8590 O   0  0  0  0  0  0  0  0  0  0  0  0
   19.1577   -7.1815  -15.8195 N   0  0  0  0  0  0  0  0  0  0  0  0
   19.8458   -6.4864  -14.7627 C   0  0  1  0  0  0  0  0  0  0  0  0
   21.1190   -7.2048  -14.3157 C   0  0  0  0  0  0  0  0  0  0  0  0
   21.7866   -6.5249  -13.2162 C   0  0  0  0  0  0  0  0  0  0  0  0
   21.4598   -6.7737  -12.0237 O   0  0  0  0  0  0  0  0  0  0  0  0
   20.2821   -5.1484  -15.2440 C   0  0  0  0  0  0  0  0  0  0  0  0
   20.8756   -5.0947  -16.3503 O   0  0  0  0  0  0  0  0  0  0  0  0
   22.7914   -5.5926  -13.4801 O   0  0  0  0  0  0  0  0  0  0  0  0
   18.1264   -1.7467  -14.8688 O   0  0  0  0  0  0  0  0  0  0  0  0
   19.4435   -1.5898  -14.4488 C   0  0  0  0  0  0  0  0  0  0  0  0
   20.3798   -2.6405  -14.9685 C   0  0  2  0  0  0  0  0  0  0  0  0
   20.0702   -3.9604  -14.5406 N   0  0  0  0  0  0  0  0  0  0  0  0
   21.7462   -2.3020  -14.4833 C   0  0  0  0  0  0  0  0  0  0  0  0
   22.5147   -3.1803  -13.7067 O   0  0  0  0  0  0  0  0  0  0  0  0
   22.2351   -1.1876  -14.7774 O   0  0  0  0  0  0  0  0  0  0  0  0
  1  2  1  0
  3  5  1  0
  3  2  1  0
  4  3  2  0
  6  5  1  0
  6  7  1  6
  7  8  1  0
  8 12  1  0
  8  9  2  0
 10  6  1  0
 10 11  2  0
 13 14  1  0
 15 14  1  1
 15 16  1  0
 16 10  1  0
 17 18  1  0
 17 15  1  0
 19 17  2  0
M  END
$$$$
