GDS.pdb
     RDKit          3D

 19 18  0  0  1  0  0  0  0  0999 V2000
   22.3516  -13.6566  -17.2200 N   0  0  0  0  0  0  0  0  0  0  0  0
   22.9156  -12.4977  -17.8412 C   0  0  0  0  0  0  0  0  0  0  0  0
   23.3412  -11.5162  -16.8214 C   0  0  0  0  0  0  0  0  0  0  0  0
   22.8231  -11.5890  -15.6820 O   0  0  0  0  0  0  0  0  0  0  0  0
   24.2965  -10.5007  -17.0466 N   0  0  0  0  0  0  0  0  0  0  0  0
   24.6008   -9.4885  -16.0688 C   0  0  1  0  0  0  0  0  0  0  0  0
   25.9887   -8.8781  -16.2644 C   0  0  0  0  0  0  0  0  0  0  0  0
   27.0586   -9.8248  -15.9886 C   0  0  0  0  0  0  0  0  0  0  0  0
   28.0786   -9.8638  -16.7294 O   0  0  0  0  0  0  0  0  0  0  0  0
   23.6394   -8.3612  -16.1985 C   0  0  0  0  0  0  0  0  0  0  0  0
   23.3947   -7.9372  -17.3559 O   0  0  0  0  0  0  0  0  0  0  0  0
   26.9569  -10.6947  -14.9017 O   0  0  0  0  0  0  0  0  0  0  0  0
   19.7617   -6.1328  -14.4129 O   0  0  0  0  0  0  0  0  0  0  0  0
   20.7817   -7.0740  -14.3164 C   0  0  0  0  0  0  0  0  0  0  0  0
   21.9813   -6.7637  -15.1622 C   0  0  2  0  0  0  0  0  0  0  0  0
   22.9999   -7.7543  -15.1151 N   0  0  0  0  0  0  0  0  0  0  0  0
   22.5559   -5.4810  -14.6707 C   0  0  0  0  0  0  0  0  0  0  0  0
   21.8854   -4.2554  -14.7871 O   0  0  0  0  0  0  0  0  0  0  0  0
   23.6852   -5.4902  -14.1301 O   0  0  0  0  0  0  0  0  0  0  0  0
  1  2  1  0
  3  5  1  0
  3  2  1  0
  4  3  2  0
  6  5  1  0
  6  7  1  6
  7  8  1  0
  8 12  1  0
  8  9  2  0
 10  6  1  0
 10 11  2  0
 13 14  1  0
 15 14  1  1
 15 16  1  0
 16 10  1  0
 17 18  1  0
 17 15  1  0
 19 17  2  0
M  END
$$$$
