GDS.pdb
     RDKit          3D

 19 18  0  0  1  0  0  0  0  0999 V2000
   15.8036  -10.6233  -16.3296 N   0  0  0  0  0  0  0  0  0  0  0  0
   16.4973   -9.5434  -16.9617 C   0  0  0  0  0  0  0  0  0  0  0  0
   17.6305   -9.0935  -16.1263 C   0  0  0  0  0  0  0  0  0  0  0  0
   17.5129   -9.1762  -14.8808 O   0  0  0  0  0  0  0  0  0  0  0  0
   18.8401   -8.5769  -16.6406 N   0  0  0  0  0  0  0  0  0  0  0  0
   19.9306   -8.1634  -15.7961 C   0  0  1  0  0  0  0  0  0  0  0  0
   21.2596   -8.8071  -16.1917 C   0  0  0  0  0  0  0  0  0  0  0  0
   22.3503   -8.4229  -15.3087 C   0  0  0  0  0  0  0  0  0  0  0  0
   22.3685   -8.8205  -14.1119 O   0  0  0  0  0  0  0  0  0  0  0  0
   20.1358   -6.6960  -15.9252 C   0  0  0  0  0  0  0  0  0  0  0  0
   20.0803   -6.2014  -17.0790 O   0  0  0  0  0  0  0  0  0  0  0  0
   23.3802   -7.6103  -15.7855 O   0  0  0  0  0  0  0  0  0  0  0  0
   19.7297   -2.2681  -14.2274 O   0  0  0  0  0  0  0  0  0  0  0  0
   19.5316   -3.6443  -14.1772 C   0  0  0  0  0  0  0  0  0  0  0  0
   20.5879   -4.4399  -14.8856 C   0  0  2  0  0  0  0  0  0  0  0  0
   20.3841   -5.8462  -14.8447 N   0  0  0  0  0  0  0  0  0  0  0  0
   21.8903   -4.1386  -14.2298 C   0  0  0  0  0  0  0  0  0  0  0  0
   22.6611   -3.0138  -14.5548 O   0  0  0  0  0  0  0  0  0  0  0  0
   22.3211   -4.9189  -13.3505 O   0  0  0  0  0  0  0  0  0  0  0  0
  1  2  1  0
  3  5  1  0
  3  2  1  0
  4  3  2  0
  6  5  1  0
  6  7  1  6
  7  8  1  0
  8 12  1  0
  8  9  2  0
 10  6  1  0
 10 11  2  0
 13 14  1  0
 15 14  1  1
 15 16  1  0
 16 10  1  0
 17 18  1  0
 17 15  1  0
 19 17  2  0
M  END
$$$$
