GDS.pdb
     RDKit          3D

 19 18  0  0  1  0  0  0  0  0999 V2000
   11.0377  -11.2800   -9.8247 N   0  0  0  0  0  0  0  0  0  0  0  0
   12.0024  -11.7806  -10.7551 C   0  0  0  0  0  0  0  0  0  0  0  0
   13.2759  -11.0407  -10.6325 C   0  0  0  0  0  0  0  0  0  0  0  0
   13.7870  -10.9335   -9.4927 O   0  0  0  0  0  0  0  0  0  0  0  0
   13.9568  -10.4468  -11.7179 N   0  0  0  0  0  0  0  0  0  0  0  0
   15.2299   -9.7901  -11.5720 C   0  0  1  0  0  0  0  0  0  0  0  0
   16.0636   -9.8289  -12.8528 C   0  0  0  0  0  0  0  0  0  0  0  0
   17.3669   -9.2029  -12.6894 C   0  0  0  0  0  0  0  0  0  0  0  0
   18.0961   -9.5022  -11.7048 O   0  0  0  0  0  0  0  0  0  0  0  0
   15.0189   -8.3496  -11.2682 C   0  0  0  0  0  0  0  0  0  0  0  0
   14.1615   -7.7324  -11.9488 O   0  0  0  0  0  0  0  0  0  0  0  0
   17.8126   -8.2664  -13.6236 O   0  0  0  0  0  0  0  0  0  0  0  0
   17.3351   -6.2899   -8.2730 O   0  0  0  0  0  0  0  0  0  0  0  0
   15.9806   -6.0301   -8.4560 C   0  0  0  0  0  0  0  0  0  0  0  0
   15.4850   -6.3186   -9.8424 C   0  0  2  0  0  0  0  0  0  0  0  0
   15.7145   -7.6523  -10.2778 N   0  0  0  0  0  0  0  0  0  0  0  0
   16.1939   -5.3966  -10.7721 C   0  0  0  0  0  0  0  0  0  0  0  0
   16.0520   -4.0032  -10.7133 O   0  0  0  0  0  0  0  0  0  0  0  0
   16.9496   -5.8794  -11.6457 O   0  0  0  0  0  0  0  0  0  0  0  0
  1  2  1  0
  3  5  1  0
  3  2  1  0
  4  3  2  0
  6  5  1  0
  6  7  1  6
  7  8  1  0
  8 12  1  0
  8  9  2  0
 10  6  1  0
 10 11  2  0
 13 14  1  0
 15 14  1  1
 15 16  1  0
 16 10  1  0
 17 18  1  0
 17 15  1  0
 19 17  2  0
M  END
$$$$
