GDS.pdb
     RDKit          3D

 19 18  0  0  1  0  0  0  0  0999 V2000
   15.6999  -14.0413  -15.0013 N   0  0  0  0  0  0  0  0  0  0  0  0
   15.2207  -12.6961  -14.9129 C   0  0  0  0  0  0  0  0  0  0  0  0
   16.2211  -11.7512  -15.4520 C   0  0  0  0  0  0  0  0  0  0  0  0
   17.3194  -12.2148  -15.8402 O   0  0  0  0  0  0  0  0  0  0  0  0
   16.0195  -10.3576  -15.5601 N   0  0  0  0  0  0  0  0  0  0  0  0
   16.9225   -9.4944  -16.2763 C   0  0  1  0  0  0  0  0  0  0  0  0
   16.2302   -8.2523  -16.8376 C   0  0  0  0  0  0  0  0  0  0  0  0
   17.1189   -7.4390  -17.6536 C   0  0  0  0  0  0  0  0  0  0  0  0
   17.7085   -7.9446  -18.6474 O   0  0  0  0  0  0  0  0  0  0  0  0
   17.9733   -8.9909  -15.3520 C   0  0  0  0  0  0  0  0  0  0  0  0
   17.6218   -8.6846  -14.1851 O   0  0  0  0  0  0  0  0  0  0  0  0
   17.3220   -6.0950  -17.3363 O   0  0  0  0  0  0  0  0  0  0  0  0
   22.6974   -9.0186  -14.2419 O   0  0  0  0  0  0  0  0  0  0  0  0
   21.6211   -9.3687  -15.0511 C   0  0  0  0  0  0  0  0  0  0  0  0
   20.4018   -8.5186  -14.8476 C   0  0  2  0  0  0  0  0  0  0  0  0
   19.3161   -8.8414  -15.7067 N   0  0  0  0  0  0  0  0  0  0  0  0
   20.7939   -7.1051  -15.1033 C   0  0  0  0  0  0  0  0  0  0  0  0
   21.3982   -6.2975  -14.1299 O   0  0  0  0  0  0  0  0  0  0  0  0
   20.5771   -6.6107  -16.2330 O   0  0  0  0  0  0  0  0  0  0  0  0
  1  2  1  0
  3  5  1  0
  3  2  1  0
  4  3  2  0
  6  5  1  0
  6  7  1  1
  7  8  1  0
  8 12  1  0
  8  9  2  0
 10  6  1  0
 10 11  2  0
 13 14  1  0
 15 14  1  6
 15 16  1  0
 16 10  1  0
 17 18  1  0
 17 15  1  0
 19 17  2  0
M  END
$$$$
