GDS.pdb
     RDKit          3D

 19 18  0  0  1  0  0  0  0  0999 V2000
   11.6926  -10.9316  -12.4518 N   0  0  0  0  0  0  0  0  0  0  0  0
   12.3290  -10.8003  -13.7264 C   0  0  0  0  0  0  0  0  0  0  0  0
   13.5953  -10.0484  -13.6005 C   0  0  0  0  0  0  0  0  0  0  0  0
   13.9046   -9.6017  -12.4707 O   0  0  0  0  0  0  0  0  0  0  0  0
   14.4819   -9.8014  -14.6716 N   0  0  0  0  0  0  0  0  0  0  0  0
   15.7152   -9.0762  -14.5089 C   0  0  1  0  0  0  0  0  0  0  0  0
   16.8524   -9.6498  -15.3544 C   0  0  0  0  0  0  0  0  0  0  0  0
   17.2195  -10.9995  -14.9538 C   0  0  0  0  0  0  0  0  0  0  0  0
   17.1104  -11.9556  -15.7691 O   0  0  0  0  0  0  0  0  0  0  0  0
   15.5357   -7.6730  -14.9680 C   0  0  0  0  0  0  0  0  0  0  0  0
   14.8677   -7.4860  -16.0158 O   0  0  0  0  0  0  0  0  0  0  0  0
   17.6929  -11.2392  -13.6628 O   0  0  0  0  0  0  0  0  0  0  0  0
   15.5962   -4.4989  -12.3285 O   0  0  0  0  0  0  0  0  0  0  0  0
   15.0898   -4.4167  -13.6217 C   0  0  0  0  0  0  0  0  0  0  0  0
   15.8762   -5.1933  -14.6362 C   0  0  2  0  0  0  0  0  0  0  0  0
   16.0638   -6.5629  -14.3047 N   0  0  0  0  0  0  0  0  0  0  0  0
   17.2161   -4.5536  -14.7490 C   0  0  0  0  0  0  0  0  0  0  0  0
   17.3872   -3.2090  -15.1066 O   0  0  0  0  0  0  0  0  0  0  0  0
   18.2371   -5.2400  -14.5166 O   0  0  0  0  0  0  0  0  0  0  0  0
  1  2  1  0
  3  5  1  0
  3  2  1  0
  4  3  2  0
  6  5  1  0
  6  7  1  6
  7  8  1  0
  8 12  1  0
  8  9  2  0
 10  6  1  0
 10 11  2  0
 13 14  1  0
 15 14  1  1
 15 16  1  0
 16 10  1  0
 17 18  1  0
 17 15  1  0
 19 17  2  0
M  END
$$$$
