GDS.pdb
     RDKit          3D

 19 18  0  0  1  0  0  0  0  0999 V2000
   14.4663   -8.2338   -7.7634 N   0  0  0  0  0  0  0  0  0  0  0  0
   15.2807   -7.1907   -8.3071 C   0  0  0  0  0  0  0  0  0  0  0  0
   16.1988   -7.7288   -9.3327 C   0  0  0  0  0  0  0  0  0  0  0  0
   16.9922   -8.6384   -8.9935 O   0  0  0  0  0  0  0  0  0  0  0  0
   16.2396   -7.2856  -10.6730 N   0  0  0  0  0  0  0  0  0  0  0  0
   17.1331   -7.8488  -11.6516 C   0  0  1  0  0  0  0  0  0  0  0  0
   16.4024   -8.3538  -12.8958 C   0  0  0  0  0  0  0  0  0  0  0  0
   17.2503   -9.1758  -13.7457 C   0  0  0  0  0  0  0  0  0  0  0  0
   16.7351   -9.9525  -14.5954 O   0  0  0  0  0  0  0  0  0  0  0  0
   18.0754   -6.8025  -12.1307 C   0  0  0  0  0  0  0  0  0  0  0  0
   17.6004   -5.6686  -12.3906 O   0  0  0  0  0  0  0  0  0  0  0  0
   18.6388   -9.1071  -13.6206 O   0  0  0  0  0  0  0  0  0  0  0  0
   22.6769   -5.7461  -13.5608 O   0  0  0  0  0  0  0  0  0  0  0  0
   21.7448   -6.6661  -13.0913 C   0  0  0  0  0  0  0  0  0  0  0  0
   20.4042   -6.0710  -12.7762 C   0  0  2  0  0  0  0  0  0  0  0  0
   19.4457   -7.0095  -12.3055 N   0  0  0  0  0  0  0  0  0  0  0  0
   19.8807   -5.4588  -14.0286 C   0  0  0  0  0  0  0  0  0  0  0  0
   19.5569   -6.2139  -15.1643 O   0  0  0  0  0  0  0  0  0  0  0  0
   19.7211   -4.2179  -14.0760 O   0  0  0  0  0  0  0  0  0  0  0  0
  1  2  1  0
  3  5  1  0
  3  2  1  0
  4  3  2  0
  6  5  1  0
  6  7  1  6
  7  8  1  0
  8 12  1  0
  8  9  2  0
 10  6  1  0
 10 11  2  0
 13 14  1  0
 15 14  1  6
 15 16  1  0
 16 10  1  0
 17 18  1  0
 17 15  1  0
 19 17  2  0
M  END
$$$$
