GDS.pdb
     RDKit          3D

 19 18  0  0  1  0  0  0  0  0999 V2000
   16.9408  -12.5024  -16.3869 N   0  0  0  0  0  0  0  0  0  0  0  0
   17.1316  -11.3502  -17.2133 C   0  0  0  0  0  0  0  0  0  0  0  0
   17.9141  -10.3206  -16.4976 C   0  0  0  0  0  0  0  0  0  0  0  0
   17.5057   -9.9474  -15.3725 O   0  0  0  0  0  0  0  0  0  0  0  0
   19.0950   -9.7300  -16.9986 N   0  0  0  0  0  0  0  0  0  0  0  0
   19.8401   -8.7390  -16.2664 C   0  0  1  0  0  0  0  0  0  0  0  0
   21.3489   -8.8570  -16.4824 C   0  0  0  0  0  0  0  0  0  0  0  0
   22.1084   -7.9790  -15.6054 C   0  0  0  0  0  0  0  0  0  0  0  0
   21.5376   -7.3902  -14.6471 O   0  0  0  0  0  0  0  0  0  0  0  0
   19.4670   -7.3797  -16.7412 C   0  0  0  0  0  0  0  0  0  0  0  0
   19.3923   -7.1986  -17.9824 O   0  0  0  0  0  0  0  0  0  0  0  0
   23.4733   -7.7852  -15.8247 O   0  0  0  0  0  0  0  0  0  0  0  0
   17.0318   -3.3235  -16.0406 O   0  0  0  0  0  0  0  0  0  0  0  0
   17.4023   -4.6366  -15.7680 C   0  0  0  0  0  0  0  0  0  0  0  0
   18.7712   -5.0003  -16.2627 C   0  0  2  0  0  0  0  0  0  0  0  0
   19.1978   -6.3045  -15.8912 N   0  0  0  0  0  0  0  0  0  0  0  0
   19.7303   -4.0157  -15.6901 C   0  0  0  0  0  0  0  0  0  0  0  0
   19.9875   -2.7729  -16.2854 O   0  0  0  0  0  0  0  0  0  0  0  0
   20.3361   -4.3038  -14.6330 O   0  0  0  0  0  0  0  0  0  0  0  0
  1  2  1  0
  3  5  1  0
  3  2  1  0
  4  3  2  0
  6  5  1  0
  6  7  1  6
  7  8  1  0
  8 12  1  0
  8  9  2  0
 10  6  1  0
 10 11  2  0
 13 14  1  0
 15 14  1  1
 15 16  1  0
 16 10  1  0
 17 18  1  0
 17 15  1  0
 19 17  2  0
M  END
$$$$
