RNH.pdb
     RDKit          3D

 30 30  0  0  1  0  0  0  0  0999 V2000
   12.5928  -16.9089   11.0221 N   0  0  0  0  0  0  0  0  0  0  0  0
   13.1416  -17.8678   11.9055 C   0  0  0  0  0  0  0  0  0  0  0  0
   13.1850  -19.1131   11.5687 N   0  0  0  0  0  0  0  0  0  0  0  0
   13.6380  -17.4169   13.1595 N   0  0  0  0  0  0  0  0  0  0  0  0
   13.7072  -16.0069   13.4316 C   0  0  0  0  0  0  0  0  0  0  0  0
   12.4046  -15.4440   13.9701 C   0  0  0  0  0  0  0  0  0  0  0  0
   12.6868  -14.8427   15.3199 C   0  0  0  0  0  0  0  0  0  0  0  0
   12.0875  -15.6591   16.4447 C   0  0  2  0  0  0  0  0  0  0  0  0
   10.9322  -16.4089   16.0049 N   0  0  0  0  0  0  0  0  0  0  0  0
   11.8516  -14.8782   17.6761 C   0  0  0  0  0  0  0  0  0  0  0  0
   12.8025  -14.2157   18.1508 O   0  0  0  0  0  0  0  0  0  0  0  0
   13.5482  -19.8078   12.2439 N   0  0  0  0  0  0  0  0  0  0  0  0
    8.4542  -13.3511   17.4657 C   0  0  0  0  0  0  0  0  0  0  0  0
    8.0942  -13.5429   18.8030 O   0  0  0  0  0  0  0  0  0  0  0  0
    6.8526  -13.4256   19.0857 C   0  0  0  0  0  0  0  0  0  0  0  0
    8.9743  -13.8650   19.9270 C   0  0  2  0  0  0  0  0  0  0  0  0
   10.4131  -14.0561   19.5774 N   0  0  0  0  0  0  0  0  0  0  0  0
   10.6191  -14.8216   18.3683 C   0  0  0  0  0  0  0  0  0  0  0  0
   11.1434  -14.6065   20.7316 O   0  0  0  0  0  0  0  0  0  0  0  0
   10.6210  -14.8360   21.8529 N   0  0  0  0  0  0  0  0  0  0  0  0
   12.5229  -14.9135   20.6217 C   0  0  1  0  0  0  0  0  0  0  0  0
   13.2480  -15.5208   21.7536 C   0  0  0  0  0  0  0  0  0  0  0  0
   12.5596  -16.8511   21.9492 C   0  0  0  0  0  0  0  0  0  0  0  0
   11.3682  -16.8188   22.7946 C   0  0  0  0  0  0  0  0  0  0  0  0
   10.8238  -15.6898   23.4246 N   0  0  0  0  0  0  0  0  0  0  0  0
    9.7330  -16.0250   24.1281 C   0  0  0  0  0  0  0  0  0  0  0  0
    9.5740  -17.3515   23.9559 N   0  0  0  0  0  0  0  0  0  0  0  0
   10.5496  -17.8145   23.1627 C   0  0  0  0  0  0  0  0  0  0  0  0
   14.6730  -15.6461   21.4317 O   0  0  0  0  0  0  0  0  0  0  0  0
   15.0697  -15.3227   20.2835 O   0  0  0  0  0  0  0  0  0  0  0  0
  2  1  1  0
  3  2  2  0
  4  2  1  0
  5  4  1  0
  6  5  1  0
  7  6  1  0
  8  7  1  0
  8  9  1  6
 10 11  2  0
 10  8  1  0
 13 12  1  0
 13 15  1  0
 14 13  2  0
 16 15  1  6
 16 18  1  0
 16 17  1  0
 17 10  1  0
 18 20  1  0
 19 18  2  0
 20 21  1  0
 21 28  1  0
 22 23  1  0
 21 22  1  1
 23 27  1  0
 24 23  2  0
 24 25  1  0
 25 26  1  0
 27 26  2  0
 28 29  2  0
 28 30  1  0
M  END
$$$$
