RNH.pdb
     RDKit          3D

 30 30  0  0  1  0  0  0  0  0999 V2000
    9.7145  -13.2563   12.8108 N   0  0  0  0  0  0  0  0  0  0  0  0
    8.5820  -13.1163   13.6467 C   0  0  0  0  0  0  0  0  0  0  0  0
    8.1197  -11.9438   13.9253 N   0  0  0  0  0  0  0  0  0  0  0  0
    7.9785  -14.2969   14.1608 N   0  0  0  0  0  0  0  0  0  0  0  0
    8.0931  -14.6024   15.5610 C   0  0  0  0  0  0  0  0  0  0  0  0
    9.5213  -14.5230   16.0686 C   0  0  0  0  0  0  0  0  0  0  0  0
    9.4981  -14.7866   17.5495 C   0  0  0  0  0  0  0  0  0  0  0  0
    9.3720  -16.2617   17.8644 C   0  0  2  0  0  0  0  0  0  0  0  0
    8.3158  -16.8841   17.0980 N   0  0  0  0  0  0  0  0  0  0  0  0
    9.3003  -16.5491   19.3115 C   0  0  0  0  0  0  0  0  0  0  0  0
   10.0828  -15.9414   20.0775 O   0  0  0  0  0  0  0  0  0  0  0  0
    7.3418  -11.8537   14.6013 N   0  0  0  0  0  0  0  0  0  0  0  0
    5.9682  -16.3129   20.4267 C   0  0  0  0  0  0  0  0  0  0  0  0
    5.9190  -17.4290   21.2674 O   0  0  0  0  0  0  0  0  0  0  0  0
    4.7569  -17.8574   21.5853 C   0  0  0  0  0  0  0  0  0  0  0  0
    7.0466  -18.1722   21.8313 C   0  0  2  0  0  0  0  0  0  0  0  0
    8.3919  -17.7792   21.3170 N   0  0  0  0  0  0  0  0  0  0  0  0
    8.4050  -17.4701   19.9047 C   0  0  0  0  0  0  0  0  0  0  0  0
    9.3899  -18.7970   21.6867 O   0  0  0  0  0  0  0  0  0  0  0  0
    9.9787  -19.5407   20.8603 N   0  0  0  0  0  0  0  0  0  0  0  0
    9.7430  -18.9882   23.0462 C   0  0  1  0  0  0  0  0  0  0  0  0
   10.9750  -19.7156   23.4053 C   0  0  0  0  0  0  0  0  0  0  0  0
   12.0640  -18.9554   22.6853 C   0  0  0  0  0  0  0  0  0  0  0  0
   12.4098  -19.4658   21.3605 C   0  0  0  0  0  0  0  0  0  0  0  0
   11.7927  -20.5331   20.6914 N   0  0  0  0  0  0  0  0  0  0  0  0
   12.3684  -20.7347   19.4977 C   0  0  0  0  0  0  0  0  0  0  0  0
   13.3437  -19.8113   19.3959 N   0  0  0  0  0  0  0  0  0  0  0  0
   13.3612  -19.0621   20.5067 C   0  0  0  0  0  0  0  0  0  0  0  0
   11.1447  -19.7334   24.8615 O   0  0  0  0  0  0  0  0  0  0  0  0
   10.4394  -18.9686   25.5673 O   0  0  0  0  0  0  0  0  0  0  0  0
  2  1  1  0
  3  2  2  0
  4  2  1  0
  5  4  1  0
  6  5  1  0
  7  6  1  0
  8  7  1  0
  8  9  1  6
 10 11  2  0
 10  8  1  0
 13 12  1  0
 13 15  1  0
 14 13  2  0
 16 15  1  1
 16 18  1  0
 16 17  1  0
 17 10  1  0
 18 20  1  0
 19 18  2  0
 20 21  1  0
 21 28  1  0
 22 23  1  0
 21 22  1  1
 23 27  1  0
 24 23  2  0
 24 25  1  0
 25 26  1  0
 27 26  2  0
 28 29  2  0
 28 30  1  0
M  END
$$$$
