RNH.pdb
     RDKit          3D

 30 30  0  0  1  0  0  0  0  0999 V2000
   11.1945  -16.4716   13.5421 N   0  0  0  0  0  0  0  0  0  0  0  0
    9.8248  -16.8068   13.6542 C   0  0  0  0  0  0  0  0  0  0  0  0
    8.9675  -16.3299   12.8153 N   0  0  0  0  0  0  0  0  0  0  0  0
    9.4319  -17.6768   14.7082 N   0  0  0  0  0  0  0  0  0  0  0  0
   10.3255  -17.9071   15.8107 C   0  0  0  0  0  0  0  0  0  0  0  0
   10.1987  -16.8608   16.9030 C   0  0  0  0  0  0  0  0  0  0  0  0
   11.1456  -17.2353   18.0104 C   0  0  0  0  0  0  0  0  0  0  0  0
   10.4383  -17.3814   19.3406 C   0  0  2  0  0  0  0  0  0  0  0  0
    9.1776  -18.0757   19.2028 N   0  0  0  0  0  0  0  0  0  0  0  0
   10.3363  -16.1147   20.0935 C   0  0  0  0  0  0  0  0  0  0  0  0
   11.3721  -15.4270   20.2424 O   0  0  0  0  0  0  0  0  0  0  0  0
    7.9760  -16.6166   12.8867 N   0  0  0  0  0  0  0  0  0  0  0  0
    8.3393  -12.0608   18.8499 C   0  0  0  0  0  0  0  0  0  0  0  0
    7.8512  -13.2007   19.4958 O   0  0  0  0  0  0  0  0  0  0  0  0
    7.2946  -14.0845   18.7580 C   0  0  0  0  0  0  0  0  0  0  0  0
    7.9017  -13.5068   20.9260 C   0  0  2  0  0  0  0  0  0  0  0  0
    9.0568  -14.3478   21.3589 N   0  0  0  0  0  0  0  0  0  0  0  0
    9.1435  -15.6141   20.6666 C   0  0  0  0  0  0  0  0  0  0  0  0
    9.0494  -14.4987   22.8237 O   0  0  0  0  0  0  0  0  0  0  0  0
    8.6632  -13.6070   23.6229 N   0  0  0  0  0  0  0  0  0  0  0  0
    9.4955  -15.7057   23.4181 C   0  0  1  0  0  0  0  0  0  0  0  0
    9.3825  -15.9102   24.8746 C   0  0  0  0  0  0  0  0  0  0  0  0
    7.8926  -15.9024   25.1241 C   0  0  0  0  0  0  0  0  0  0  0  0
    7.3703  -14.6868   25.7444 C   0  0  0  0  0  0  0  0  0  0  0  0
    8.1096  -13.5489   26.1002 N   0  0  0  0  0  0  0  0  0  0  0  0
    7.3116  -12.6247   26.6534 C   0  0  0  0  0  0  0  0  0  0  0  0
    6.0742  -13.1567   26.6556 N   0  0  0  0  0  0  0  0  0  0  0  0
    6.1184  -14.3815   26.1140 C   0  0  0  0  0  0  0  0  0  0  0  0
   10.0291  -17.1686   25.2596 O   0  0  0  0  0  0  0  0  0  0  0  0
   10.0234  -18.1300   24.4495 O   0  0  0  0  0  0  0  0  0  0  0  0
  2  1  1  0
  3  2  2  0
  4  2  1  0
  5  4  1  0
  6  5  1  0
  7  6  1  0
  8  7  1  0
  8  9  1  6
 10 11  2  0
 10  8  1  0
 13 12  1  0
 13 15  1  0
 14 13  2  0
 16 15  1  6
 16 18  1  0
 16 17  1  0
 17 10  1  0
 18 20  1  0
 19 18  2  0
 20 21  1  0
 21 28  1  0
 22 23  1  0
 21 22  1  1
 23 27  1  0
 24 23  2  0
 24 25  1  0
 25 26  1  0
 27 26  2  0
 28 29  2  0
 28 30  1  0
M  END
$$$$
