RNH.pdb
     RDKit          3D

 30 30  0  0  1  0  0  0  0  0999 V2000
    7.9814  -12.5991   16.5476 N   0  0  0  0  0  0  0  0  0  0  0  0
    8.4873  -13.8102   17.0749 C   0  0  0  0  0  0  0  0  0  0  0  0
    8.6697  -14.8295   16.3042 N   0  0  0  0  0  0  0  0  0  0  0  0
    8.7850  -13.8636   18.4644 N   0  0  0  0  0  0  0  0  0  0  0  0
    7.9165  -13.2072   19.4035 C   0  0  0  0  0  0  0  0  0  0  0  0
    6.7943  -14.1023   19.8965 C   0  0  0  0  0  0  0  0  0  0  0  0
    7.2290  -14.7067   21.2037 C   0  0  0  0  0  0  0  0  0  0  0  0
    8.5441  -15.4459   21.0810 C   0  0  2  0  0  0  0  0  0  0  0  0
    8.5637  -16.3147   19.9254 N   0  0  0  0  0  0  0  0  0  0  0  0
    8.9606  -16.1148   22.3304 C   0  0  0  0  0  0  0  0  0  0  0  0
    8.2296  -15.9958   23.3402 O   0  0  0  0  0  0  0  0  0  0  0  0
    9.0105  -15.7174   16.7113 N   0  0  0  0  0  0  0  0  0  0  0  0
   13.7542  -17.7864   22.0765 C   0  0  0  0  0  0  0  0  0  0  0  0
   12.4598  -18.2623   22.3067 O   0  0  0  0  0  0  0  0  0  0  0  0
   11.8037  -18.6590   21.2832 C   0  0  0  0  0  0  0  0  0  0  0  0
   11.7602  -18.3625   23.5882 C   0  0  2  0  0  0  0  0  0  0  0  0
   10.5294  -17.5265   23.7110 N   0  0  0  0  0  0  0  0  0  0  0  0
   10.1366  -16.8879   22.4748 C   0  0  0  0  0  0  0  0  0  0  0  0
   10.6769  -16.5727   24.8232 O   0  0  0  0  0  0  0  0  0  0  0  0
   10.7364  -15.3243   24.6788 N   0  0  0  0  0  0  0  0  0  0  0  0
   10.7612  -17.0419   26.1581 C   0  0  1  0  0  0  0  0  0  0  0  0
   10.0015  -16.3790   27.2348 C   0  0  0  0  0  0  0  0  0  0  0  0
    8.5601  -16.5542   26.8179 C   0  0  0  0  0  0  0  0  0  0  0  0
    7.8762  -15.3300   26.4074 C   0  0  0  0  0  0  0  0  0  0  0  0
    8.4292  -14.0415   26.3620 N   0  0  0  0  0  0  0  0  0  0  0  0
    7.5160  -13.1531   25.9452 C   0  0  0  0  0  0  0  0  0  0  0  0
    6.3886  -13.8562   25.7242 N   0  0  0  0  0  0  0  0  0  0  0  0
    6.6117  -15.1481   26.0012 C   0  0  0  0  0  0  0  0  0  0  0  0
   10.3116  -16.9986   28.5270 O   0  0  0  0  0  0  0  0  0  0  0  0
   10.6920  -18.1966   28.5534 O   0  0  0  0  0  0  0  0  0  0  0  0
  2  1  1  0
  3  2  2  0
  4  2  1  0
  5  4  1  0
  6  5  1  0
  7  6  1  0
  8  7  1  0
  8  9  1  6
 10 11  2  0
 10  8  1  0
 13 12  1  0
 13 15  1  0
 14 13  2  0
 16 15  1  6
 16 18  1  0
 16 17  1  0
 17 10  1  0
 18 20  1  0
 19 18  2  0
 20 21  1  0
 21 28  1  0
 22 23  1  0
 21 22  1  1
 23 27  1  0
 24 23  2  0
 24 25  1  0
 25 26  1  0
 27 26  2  0
 28 29  2  0
 28 30  1  0
M  END
$$$$
