RNH.pdb
     RDKit          3D

 30 30  0  0  1  0  0  0  0  0999 V2000
    8.2271  -14.4419   15.8877 N   0  0  0  0  0  0  0  0  0  0  0  0
    8.6646  -13.5124   16.8601 C   0  0  0  0  0  0  0  0  0  0  0  0
    9.0949  -12.3495   16.5015 N   0  0  0  0  0  0  0  0  0  0  0  0
    8.6128  -13.8989   18.2277 N   0  0  0  0  0  0  0  0  0  0  0  0
    8.0370  -15.1663   18.5871 C   0  0  0  0  0  0  0  0  0  0  0  0
    6.9895  -15.0513   19.6794 C   0  0  0  0  0  0  0  0  0  0  0  0
    7.6972  -14.7012   20.9600 C   0  0  0  0  0  0  0  0  0  0  0  0
    8.2911  -15.9190   21.6348 C   0  0  2  0  0  0  0  0  0  0  0  0
    7.5854  -17.1282   21.2739 N   0  0  0  0  0  0  0  0  0  0  0  0
    8.4728  -15.7531   23.0912 C   0  0  0  0  0  0  0  0  0  0  0  0
    9.0739  -14.7345   23.5027 O   0  0  0  0  0  0  0  0  0  0  0  0
    9.4320  -11.6896   17.2235 N   0  0  0  0  0  0  0  0  0  0  0  0
    6.8748  -13.8964   25.5169 C   0  0  0  0  0  0  0  0  0  0  0  0
    6.3691  -15.0827   26.0571 O   0  0  0  0  0  0  0  0  0  0  0  0
    5.1257  -15.0934   26.3554 C   0  0  0  0  0  0  0  0  0  0  0  0
    7.0974  -16.3237   26.3239 C   0  0  2  0  0  0  0  0  0  0  0  0
    8.3074  -16.5486   25.4787 N   0  0  0  0  0  0  0  0  0  0  0  0
    8.0149  -16.6685   24.0679 C   0  0  0  0  0  0  0  0  0  0  0  0
    9.0809  -17.6885   25.9991 O   0  0  0  0  0  0  0  0  0  0  0  0
    8.7430  -18.8924   25.8606 N   0  0  0  0  0  0  0  0  0  0  0  0
   10.2888  -17.4665   26.7067 C   0  0  1  0  0  0  0  0  0  0  0  0
   11.0744  -18.6031   27.2235 C   0  0  0  0  0  0  0  0  0  0  0  0
   12.4784  -18.3165   26.7452 C   0  0  0  0  0  0  0  0  0  0  0  0
   12.6370  -18.2240   25.2956 C   0  0  0  0  0  0  0  0  0  0  0  0
   11.9444  -18.9723   24.3320 N   0  0  0  0  0  0  0  0  0  0  0  0
   12.3451  -18.6344   23.0982 C   0  0  0  0  0  0  0  0  0  0  0  0
   13.2831  -17.6816   23.2609 N   0  0  0  0  0  0  0  0  0  0  0  0
   13.4500  -17.4442   24.5691 C   0  0  0  0  0  0  0  0  0  0  0  0
   10.9613  -18.6728   28.6837 O   0  0  0  0  0  0  0  0  0  0  0  0
   11.5988  -19.5619   29.3031 O   0  0  0  0  0  0  0  0  0  0  0  0
  2  1  1  0
  3  2  2  0
  4  2  1  0
  5  4  1  0
  6  5  1  0
  7  6  1  0
  8  7  1  0
  8  9  1  1
 10 11  2  0
 10  8  1  0
 13 12  1  0
 13 15  1  0
 14 13  2  0
 16 15  1  6
 16 18  1  0
 16 17  1  0
 17 10  1  0
 18 20  1  0
 19 18  2  0
 20 21  1  0
 21 28  1  0
 22 23  1  0
 21 22  1  1
 23 27  1  0
 24 23  2  0
 24 25  1  0
 25 26  1  0
 27 26  2  0
 28 29  2  0
 28 30  1  0
M  END
$$$$
