RNH.pdb
     RDKit          3D

 30 30  0  0  1  0  0  0  0  0999 V2000
    9.5067  -14.5348   15.5808 N   0  0  0  0  0  0  0  0  0  0  0  0
    8.3303  -14.1491   16.2652 C   0  0  0  0  0  0  0  0  0  0  0  0
    7.9290  -12.9229   16.2293 N   0  0  0  0  0  0  0  0  0  0  0  0
    7.6150  -15.1469   16.9829 N   0  0  0  0  0  0  0  0  0  0  0  0
    8.2370  -16.4157   17.2481 C   0  0  0  0  0  0  0  0  0  0  0  0
    7.3667  -17.3381   18.0820 C   0  0  0  0  0  0  0  0  0  0  0  0
    8.1067  -18.6363   18.2550 C   0  0  0  0  0  0  0  0  0  0  0  0
    8.6143  -18.8195   19.6692 C   0  0  2  0  0  0  0  0  0  0  0  0
    7.5614  -18.6375   20.6433 N   0  0  0  0  0  0  0  0  0  0  0  0
    9.8321  -18.0367   19.9620 C   0  0  0  0  0  0  0  0  0  0  0  0
   10.8663  -18.2760   19.2975 O   0  0  0  0  0  0  0  0  0  0  0  0
    7.0937  -12.6474   16.7740 N   0  0  0  0  0  0  0  0  0  0  0  0
   10.3852  -13.2766   19.9963 C   0  0  0  0  0  0  0  0  0  0  0  0
   10.7303  -14.6270   19.8858 O   0  0  0  0  0  0  0  0  0  0  0  0
   10.1202  -15.3038   18.9887 C   0  0  0  0  0  0  0  0  0  0  0  0
   11.7142  -15.3647   20.6793 C   0  0  2  0  0  0  0  0  0  0  0  0
   11.1712  -16.5143   21.4619 N   0  0  0  0  0  0  0  0  0  0  0  0
    9.9204  -17.0261   20.9481 C   0  0  0  0  0  0  0  0  0  0  0  0
   11.0992  -16.1627   22.8900 O   0  0  0  0  0  0  0  0  0  0  0  0
   12.0175  -15.5767   23.5195 N   0  0  0  0  0  0  0  0  0  0  0  0
    9.9435  -16.4833   23.6456 C   0  0  1  0  0  0  0  0  0  0  0  0
    9.9664  -16.4074   25.1186 C   0  0  0  0  0  0  0  0  0  0  0  0
    8.5122  -16.2420   25.4926 C   0  0  0  0  0  0  0  0  0  0  0  0
    7.9218  -14.9511   25.1457 C   0  0  0  0  0  0  0  0  0  0  0  0
    8.5757  -13.8747   24.5279 N   0  0  0  0  0  0  0  0  0  0  0  0
    7.7334  -12.8444   24.3657 C   0  0  0  0  0  0  0  0  0  0  0  0
    6.5520  -13.2483   24.8710 N   0  0  0  0  0  0  0  0  0  0  0  0
    6.6731  -14.5005   25.3320 C   0  0  0  0  0  0  0  0  0  0  0  0
   10.5754  -17.6186   25.6772 O   0  0  0  0  0  0  0  0  0  0  0  0
   10.5308  -18.6855   25.0138 O   0  0  0  0  0  0  0  0  0  0  0  0
  2  1  1  0
  3  2  2  0
  4  2  1  0
  5  4  1  0
  6  5  1  0
  7  6  1  0
  8  7  1  0
  8  9  1  1
 10 11  2  0
 10  8  1  0
 13 12  1  0
 13 15  1  0
 14 13  2  0
 16 15  1  6
 16 18  1  0
 16 17  1  0
 17 10  1  0
 18 20  1  0
 19 18  2  0
 20 21  1  0
 21 28  1  0
 22 23  1  0
 21 22  1  1
 23 27  1  0
 24 23  2  0
 24 25  1  0
 25 26  1  0
 27 26  2  0
 28 29  2  0
 28 30  1  0
M  END
$$$$
