RNH.pdb
     RDKit          3D

 30 30  0  0  1  0  0  0  0  0999 V2000
    8.8687  -14.4767   13.8798 N   0  0  0  0  0  0  0  0  0  0  0  0
    7.6532  -13.7858   13.6649 C   0  0  0  0  0  0  0  0  0  0  0  0
    7.3263  -13.3980   12.4780 N   0  0  0  0  0  0  0  0  0  0  0  0
    6.8155  -13.5386   14.7871 N   0  0  0  0  0  0  0  0  0  0  0  0
    7.3838  -13.0037   15.9946 C   0  0  0  0  0  0  0  0  0  0  0  0
    7.6133  -14.0611   17.0590 C   0  0  0  0  0  0  0  0  0  0  0  0
    9.0818  -14.0733   17.3856 C   0  0  0  0  0  0  0  0  0  0  0  0
    9.5322  -15.4085   17.9382 C   0  0  2  0  0  0  0  0  0  0  0  0
    8.7664  -16.5026   17.3842 N   0  0  0  0  0  0  0  0  0  0  0  0
    9.6189  -15.4347   19.4125 C   0  0  0  0  0  0  0  0  0  0  0  0
   10.3235  -14.5699   19.9817 O   0  0  0  0  0  0  0  0  0  0  0  0
    6.4522  -12.8612   12.3436 N   0  0  0  0  0  0  0  0  0  0  0  0
    5.7259  -17.1044   21.0866 C   0  0  0  0  0  0  0  0  0  0  0  0
    6.6103  -16.6288   22.0595 O   0  0  0  0  0  0  0  0  0  0  0  0
    6.2031  -15.6516   22.7768 C   0  0  0  0  0  0  0  0  0  0  0  0
    7.9564  -17.1192   22.3586 C   0  0  2  0  0  0  0  0  0  0  0  0
    9.0678  -16.3874   21.6816 N   0  0  0  0  0  0  0  0  0  0  0  0
    8.9595  -16.3739   20.2400 C   0  0  0  0  0  0  0  0  0  0  0  0
   10.3668  -16.8982   22.1506 O   0  0  0  0  0  0  0  0  0  0  0  0
   10.7866  -18.0641   21.9332 N   0  0  0  0  0  0  0  0  0  0  0  0
   11.2340  -16.0619   22.8974 C   0  0  1  0  0  0  0  0  0  0  0  0
   12.4451  -16.6148   23.5327 C   0  0  0  0  0  0  0  0  0  0  0  0
   13.5301  -15.6355   23.1510 C   0  0  0  0  0  0  0  0  0  0  0  0
   13.9885  -15.7207   21.7661 C   0  0  0  0  0  0  0  0  0  0  0  0
   13.5610  -16.6460   20.8023 N   0  0  0  0  0  0  0  0  0  0  0  0
   14.1955  -16.4397   19.6396 C   0  0  0  0  0  0  0  0  0  0  0  0
   15.0215  -15.3963   19.8480 N   0  0  0  0  0  0  0  0  0  0  0  0
   14.8919  -14.9758   21.1136 C   0  0  0  0  0  0  0  0  0  0  0  0
   12.2486  -16.7282   24.9813 O   0  0  0  0  0  0  0  0  0  0  0  0
   11.2052  -16.2503   25.4946 O   0  0  0  0  0  0  0  0  0  0  0  0
  2  1  1  0
  3  2  2  0
  4  2  1  0
  5  4  1  0
  6  5  1  0
  7  6  1  0
  8  7  1  0
  8  9  1  1
 10 11  2  0
 10  8  1  0
 13 12  1  0
 13 15  1  0
 14 13  2  0
 16 15  1  1
 16 18  1  0
 16 17  1  0
 17 10  1  0
 18 20  1  0
 19 18  2  0
 20 21  1  0
 21 28  1  0
 22 23  1  0
 21 22  1  1
 23 27  1  0
 24 23  2  0
 24 25  1  0
 25 26  1  0
 27 26  2  0
 28 29  2  0
 28 30  1  0
M  END
$$$$
