RNH.pdb
     RDKit          3D

 30 30  0  0  1  0  0  0  0  0999 V2000
    6.6727  -13.4980   21.1974 N   0  0  0  0  0  0  0  0  0  0  0  0
    6.8883  -13.2836   19.8159 C   0  0  0  0  0  0  0  0  0  0  0  0
    6.2303  -12.3669   19.1892 N   0  0  0  0  0  0  0  0  0  0  0  0
    7.8435  -14.1016   19.1519 N   0  0  0  0  0  0  0  0  0  0  0  0
    8.0841  -13.9162   17.7466 C   0  0  0  0  0  0  0  0  0  0  0  0
    9.0900  -14.9036   17.1837 C   0  0  0  0  0  0  0  0  0  0  0  0
   10.4653  -14.4225   17.5582 C   0  0  0  0  0  0  0  0  0  0  0  0
   11.5547  -15.2800   16.9507 C   0  0  2  0  0  0  0  0  0  0  0  0
   11.0090  -16.4188   16.2466 N   0  0  0  0  0  0  0  0  0  0  0  0
   12.6252  -15.6327   17.9052 C   0  0  0  0  0  0  0  0  0  0  0  0
   12.5821  -16.7556   18.4580 O   0  0  0  0  0  0  0  0  0  0  0  0
    6.3958  -12.2268   18.1776 N   0  0  0  0  0  0  0  0  0  0  0  0
   16.8915  -12.9205   17.2157 C   0  0  0  0  0  0  0  0  0  0  0  0
   16.5262  -14.1078   17.8572 O   0  0  0  0  0  0  0  0  0  0  0  0
   16.7438  -15.1950   17.2200 C   0  0  0  0  0  0  0  0  0  0  0  0
   15.9204  -14.2575   19.1810 C   0  0  2  0  0  0  0  0  0  0  0  0
   14.7082  -15.1273   19.2342 N   0  0  0  0  0  0  0  0  0  0  0  0
   13.7078  -14.7884   18.2470 C   0  0  0  0  0  0  0  0  0  0  0  0
   14.1693  -15.1576   20.6042 O   0  0  0  0  0  0  0  0  0  0  0  0
   13.6176  -14.1771   21.1672 N   0  0  0  0  0  0  0  0  0  0  0  0
   14.2535  -16.3428   21.3772 C   0  0  1  0  0  0  0  0  0  0  0  0
   13.7366  -16.3750   22.7584 C   0  0  0  0  0  0  0  0  0  0  0  0
   12.5761  -17.3393   22.6855 C   0  0  0  0  0  0  0  0  0  0  0  0
   11.2989  -16.7497   22.2905 C   0  0  0  0  0  0  0  0  0  0  0  0
   11.0449  -15.3895   22.0592 N   0  0  0  0  0  0  0  0  0  0  0  0
    9.7616  -15.2027   21.7199 C   0  0  0  0  0  0  0  0  0  0  0  0
    9.1934  -16.4239   21.7316 N   0  0  0  0  0  0  0  0  0  0  0  0
   10.1137  -17.3365   22.0715 C   0  0  0  0  0  0  0  0  0  0  0  0
   14.7911  -16.8043   23.6823 O   0  0  0  0  0  0  0  0  0  0  0  0
   15.3980  -17.8820   23.4570 O   0  0  0  0  0  0  0  0  0  0  0  0
  2  1  1  0
  3  2  2  0
  4  2  1  0
  5  4  1  0
  6  5  1  0
  7  6  1  0
  8  7  1  0
  8  9  1  1
 10 11  2  0
 10  8  1  0
 13 12  1  0
 13 15  1  0
 14 13  2  0
 16 15  1  6
 16 18  1  0
 16 17  1  0
 17 10  1  0
 18 20  1  0
 19 18  2  0
 20 21  1  0
 21 28  1  0
 22 23  1  0
 21 22  1  1
 23 27  1  0
 24 23  2  0
 24 25  1  0
 25 26  1  0
 27 26  2  0
 28 29  2  0
 28 30  1  0
M  END
$$$$
