RNH.pdb
     RDKit          3D

 30 30  0  0  1  0  0  0  0  0999 V2000
    8.2096  -13.3525   14.9248 N   0  0  0  0  0  0  0  0  0  0  0  0
    8.3296  -14.7596   14.8433 C   0  0  0  0  0  0  0  0  0  0  0  0
    8.6610  -15.3210   13.7293 N   0  0  0  0  0  0  0  0  0  0  0  0
    8.0771  -15.5227   16.0164 N   0  0  0  0  0  0  0  0  0  0  0  0
    8.8789  -15.3085   17.1905 C   0  0  0  0  0  0  0  0  0  0  0  0
   10.2961  -15.8311   17.0420 C   0  0  0  0  0  0  0  0  0  0  0  0
   11.0610  -15.4426   18.2778 C   0  0  0  0  0  0  0  0  0  0  0  0
   10.8616  -16.4312   19.4065 C   0  0  2  0  0  0  0  0  0  0  0  0
   10.0669  -17.5651   18.9903 N   0  0  0  0  0  0  0  0  0  0  0  0
   10.3888  -15.8056   20.6583 C   0  0  0  0  0  0  0  0  0  0  0  0
   11.0719  -14.8812   21.1553 O   0  0  0  0  0  0  0  0  0  0  0  0
    8.8152  -16.3437   13.7039 N   0  0  0  0  0  0  0  0  0  0  0  0
    7.1227  -13.5133   23.9927 C   0  0  0  0  0  0  0  0  0  0  0  0
    6.6049  -14.7330   23.5465 O   0  0  0  0  0  0  0  0  0  0  0  0
    5.3539  -14.9264   23.7282 C   0  0  0  0  0  0  0  0  0  0  0  0
    7.3279  -15.8234   22.8908 C   0  0  2  0  0  0  0  0  0  0  0  0
    8.7552  -15.5358   22.5605 N   0  0  0  0  0  0  0  0  0  0  0  0
    9.2098  -16.1764   21.3467 C   0  0  0  0  0  0  0  0  0  0  0  0
    9.6115  -15.8383   23.7196 O   0  0  0  0  0  0  0  0  0  0  0  0
   10.3555  -16.8495   23.8023 N   0  0  0  0  0  0  0  0  0  0  0  0
    9.6338  -14.9657   24.8364 C   0  0  2  0  0  0  0  0  0  0  0  0
    9.7556  -15.5028   26.2049 C   0  0  0  0  0  0  0  0  0  0  0  0
    8.3569  -15.3847   26.7631 C   0  0  0  0  0  0  0  0  0  0  0  0
    7.8134  -14.0289   26.8027 C   0  0  0  0  0  0  0  0  0  0  0  0
    8.5260  -12.8389   26.5924 N   0  0  0  0  0  0  0  0  0  0  0  0
    7.7144  -11.7786   26.7105 C   0  0  0  0  0  0  0  0  0  0  0  0
    6.4945  -12.2751   26.9930 N   0  0  0  0  0  0  0  0  0  0  0  0
    6.5627  -13.6122   27.0458 C   0  0  0  0  0  0  0  0  0  0  0  0
   10.2497  -16.8827   26.1636 O   0  0  0  0  0  0  0  0  0  0  0  0
   10.7760  -17.3732   27.1946 O   0  0  0  0  0  0  0  0  0  0  0  0
  2  1  1  0
  3  2  2  0
  4  2  1  0
  5  4  1  0
  6  5  1  0
  7  6  1  0
  8  7  1  0
  8  9  1  6
 10 11  2  0
 10  8  1  0
 13 12  1  0
 13 15  1  0
 14 13  2  0
 16 15  1  6
 16 18  1  0
 16 17  1  0
 17 10  1  0
 18 20  1  0
 19 18  2  0
 20 21  1  0
 21 28  1  0
 22 23  1  0
 21 22  1  6
 23 27  1  0
 24 23  2  0
 24 25  1  0
 25 26  1  0
 27 26  2  0
 28 29  2  0
 28 30  1  0
M  END
$$$$
