RNH.pdb
     RDKit          3D

 30 30  0  0  1  0  0  0  0  0999 V2000
    8.7707  -14.4074   13.8938 N   0  0  0  0  0  0  0  0  0  0  0  0
    8.2972  -13.0939   14.1209 C   0  0  0  0  0  0  0  0  0  0  0  0
    8.1481  -12.2762   13.1335 N   0  0  0  0  0  0  0  0  0  0  0  0
    7.9945  -12.7125   15.4570 N   0  0  0  0  0  0  0  0  0  0  0  0
    7.9027  -13.7182   16.4803 C   0  0  0  0  0  0  0  0  0  0  0  0
    8.9652  -14.7941   16.3490 C   0  0  0  0  0  0  0  0  0  0  0  0
    9.8844  -14.6795   17.5344 C   0  0  0  0  0  0  0  0  0  0  0  0
    9.8460  -15.9153   18.4075 C   0  0  2  0  0  0  0  0  0  0  0  0
    9.1646  -17.0107   17.7547 N   0  0  0  0  0  0  0  0  0  0  0  0
    9.3624  -15.6512   19.7780 C   0  0  0  0  0  0  0  0  0  0  0  0
    9.3884  -14.4725   20.2003 O   0  0  0  0  0  0  0  0  0  0  0  0
    7.6479  -11.3836   13.2864 N   0  0  0  0  0  0  0  0  0  0  0  0
    5.8831  -14.9693   20.6836 C   0  0  0  0  0  0  0  0  0  0  0  0
    6.5863  -15.0574   21.8888 O   0  0  0  0  0  0  0  0  0  0  0  0
    6.6751  -13.9860   22.5812 C   0  0  0  0  0  0  0  0  0  0  0  0
    7.2376  -16.2379   22.4581 C   0  0  2  0  0  0  0  0  0  0  0  0
    8.6687  -16.4245   22.0760 N   0  0  0  0  0  0  0  0  0  0  0  0
    8.8672  -16.6401   20.6602 C   0  0  0  0  0  0  0  0  0  0  0  0
    9.2780  -17.4790   22.9038 O   0  0  0  0  0  0  0  0  0  0  0  0
    8.7678  -18.6141   23.0886 N   0  0  0  0  0  0  0  0  0  0  0  0
   10.5166  -17.2486   23.5535 C   0  0  1  0  0  0  0  0  0  0  0  0
   11.1316  -18.2978   24.3882 C   0  0  0  0  0  0  0  0  0  0  0  0
   11.3816  -19.4284   23.4181 C   0  0  0  0  0  0  0  0  0  0  0  0
   12.4482  -19.1931   22.4474 C   0  0  0  0  0  0  0  0  0  0  0  0
   12.5755  -18.0806   21.6023 N   0  0  0  0  0  0  0  0  0  0  0  0
   13.6694  -18.1959   20.8361 C   0  0  0  0  0  0  0  0  0  0  0  0
   14.2416  -19.3657   21.1803 N   0  0  0  0  0  0  0  0  0  0  0  0
   13.5096  -19.9511   22.1378 C   0  0  0  0  0  0  0  0  0  0  0  0
   12.3553  -17.7906   25.0167 O   0  0  0  0  0  0  0  0  0  0  0  0
   12.9739  -18.5250   25.8282 O   0  0  0  0  0  0  0  0  0  0  0  0
  2  1  1  0
  3  2  2  0
  4  2  1  0
  5  4  1  0
  6  5  1  0
  7  6  1  0
  8  7  1  0
  8  9  1  6
 10 11  2  0
 10  8  1  0
 13 12  1  0
 13 15  1  0
 14 13  2  0
 16 15  1  6
 16 18  1  0
 16 17  1  0
 17 10  1  0
 18 20  1  0
 19 18  2  0
 20 21  1  0
 21 28  1  0
 22 23  1  0
 21 22  1  1
 23 27  1  0
 24 23  2  0
 24 25  1  0
 25 26  1  0
 27 26  2  0
 28 29  2  0
 28 30  1  0
M  END
$$$$
