DEN.pdb
     RDKit          3D

 26 25  0  0  1  0  0  0  0  0999 V2000
   20.2757  -12.6698  -18.8267 N   0  0  0  0  0  0  0  0  0  0  0  0
   20.6474  -12.0432  -17.5964 C   0  0  1  0  0  0  0  0  0  0  0  0
   22.1157  -11.6485  -17.5731 C   0  0  0  0  0  0  0  0  0  0  0  0
   22.9633  -12.8651  -17.5431 C   0  0  0  0  0  0  0  0  0  0  0  0
   22.4126  -13.9900  -17.4415 O   0  0  0  0  0  0  0  0  0  0  0  0
   19.7911  -10.8707  -17.3184 C   0  0  0  0  0  0  0  0  0  0  0  0
   19.8709   -9.8670  -18.0951 O   0  0  0  0  0  0  0  0  0  0  0  0
   24.3414  -12.8262  -17.6215 O   0  0  0  0  0  0  0  0  0  0  0  0
   18.8785  -10.7829  -16.2384 N   0  0  0  0  0  0  0  0  0  0  0  0
   18.1565   -9.5699  -16.0068 C   0  0  1  0  0  0  0  0  0  0  0  0
   16.7544   -9.7579  -15.5299 C   0  0  0  0  0  0  0  0  0  0  0  0
   16.5738  -10.6265  -14.3387 C   0  0  0  0  0  0  0  0  0  0  0  0
   15.1228  -10.6357  -13.9798 C   0  0  0  0  0  0  0  0  0  0  0  0
   14.4009  -11.6244  -14.2550 O   0  0  0  0  0  0  0  0  0  0  0  0
   18.8519   -8.6224  -15.0843 C   0  0  0  0  0  0  0  0  0  0  0  0
   19.3727   -9.0911  -14.0363 O   0  0  0  0  0  0  0  0  0  0  0  0
   14.5474   -9.5485  -13.3347 O   0  0  0  0  0  0  0  0  0  0  0  0
   21.5756   -4.5979  -13.5724 N   0  0  0  0  0  0  0  0  0  0  0  0
   22.1033   -5.7738  -14.2066 C   0  0  0  0  0  0  0  0  0  0  0  0
   23.3334   -5.9123  -14.1852 O   0  0  0  0  0  0  0  0  0  0  0  0
   21.1233   -6.6764  -14.8076 C   0  0  0  0  0  0  0  0  0  0  0  0
   19.7008   -6.2910  -14.6862 C   0  0  2  0  0  0  0  0  0  0  0  0
   18.8957   -7.2543  -15.4186 N   0  0  0  0  0  0  0  0  0  0  0  0
   19.3796   -4.9098  -15.1120 C   0  0  0  0  0  0  0  0  0  0  0  0
   19.2538   -3.8121  -14.3110 O   0  0  0  0  0  0  0  0  0  0  0  0
   19.1986   -4.7135  -16.3564 O   0  0  0  0  0  0  0  0  0  0  0  0
  2  1  1  6
  2  3  1  0
  3  4  1  0
  4  8  1  0
  5  4  2  0
  6  2  1  0
  6  7  2  0
  9  6  1  0
 10  9  1  0
 10 11  1  1
 11 12  1  0
 12 13  1  0
 13 17  1  0
 13 14  2  0
 15 10  1  0
 16 15  2  0
 19 18  1  0
 19 21  1  0
 20 19  2  0
 22 21  1  6
 22 23  1  0
 23 15  1  0
 24 25  1  0
 24 22  1  0
 26 24  2  0
M  END
$$$$
