DEN.pdb
     RDKit          3D

 26 25  0  0  1  0  0  0  0  0999 V2000
   17.2706  -11.6081  -16.8024 N   0  0  0  0  0  0  0  0  0  0  0  0
   16.5209  -10.5816  -16.1476 C   0  0  1  0  0  0  0  0  0  0  0  0
   16.2475  -10.9113  -14.6887 C   0  0  0  0  0  0  0  0  0  0  0  0
   15.4045  -12.1279  -14.5972 C   0  0  0  0  0  0  0  0  0  0  0  0
   14.3362  -12.1810  -15.2568 O   0  0  0  0  0  0  0  0  0  0  0  0
   17.1985   -9.2730  -16.2651 C   0  0  0  0  0  0  0  0  0  0  0  0
   18.4517   -9.2591  -16.4801 O   0  0  0  0  0  0  0  0  0  0  0  0
   15.7352  -13.2178  -13.8163 O   0  0  0  0  0  0  0  0  0  0  0  0
   16.5465   -8.0202  -16.1544 N   0  0  0  0  0  0  0  0  0  0  0  0
   17.2924   -6.8084  -16.3016 C   0  0  1  0  0  0  0  0  0  0  0  0
   16.4621   -5.5811  -16.4829 C   0  0  0  0  0  0  0  0  0  0  0  0
   17.1981   -4.3235  -16.7705 C   0  0  0  0  0  0  0  0  0  0  0  0
   16.2208   -3.1926  -16.7519 C   0  0  0  0  0  0  0  0  0  0  0  0
   16.5658   -2.0541  -16.3529 O   0  0  0  0  0  0  0  0  0  0  0  0
   18.2696   -6.5654  -15.1978 C   0  0  0  0  0  0  0  0  0  0  0  0
   18.1616   -7.2559  -14.1486 O   0  0  0  0  0  0  0  0  0  0  0  0
   14.9120   -3.3824  -17.1763 O   0  0  0  0  0  0  0  0  0  0  0  0
   22.5265   -5.5559  -12.7159 N   0  0  0  0  0  0  0  0  0  0  0  0
   22.2848   -6.7339  -13.5016 C   0  0  0  0  0  0  0  0  0  0  0  0
   23.1006   -7.6576  -13.3839 O   0  0  0  0  0  0  0  0  0  0  0  0
   21.0979   -6.7073  -14.3542 C   0  0  0  0  0  0  0  0  0  0  0  0
   20.3783   -5.4192  -14.4537 C   0  0  2  0  0  0  0  0  0  0  0  0
   19.2629   -5.5813  -15.3714 N   0  0  0  0  0  0  0  0  0  0  0  0
   21.2096   -4.2568  -14.8412 C   0  0  0  0  0  0  0  0  0  0  0  0
   21.6298   -3.2418  -14.0317 O   0  0  0  0  0  0  0  0  0  0  0  0
   21.5771   -4.1861  -16.0577 O   0  0  0  0  0  0  0  0  0  0  0  0
  2  1  1  1
  2  3  1  0
  3  4  1  0
  4  8  1  0
  5  4  2  0
  6  2  1  0
  6  7  2  0
  9  6  1  0
 10  9  1  0
 10 11  1  1
 11 12  1  0
 12 13  1  0
 13 17  1  0
 13 14  2  0
 15 10  1  0
 16 15  2  0
 19 18  1  0
 19 21  1  0
 20 19  2  0
 22 21  1  6
 22 23  1  0
 23 15  1  0
 24 25  1  0
 24 22  1  0
 26 24  2  0
M  END
$$$$
