DEN.pdb
     RDKit          3D

 26 25  0  0  1  0  0  0  0  0999 V2000
   17.4380  -11.5431  -13.6573 N   0  0  0  0  0  0  0  0  0  0  0  0
   17.4275  -10.6508  -14.7746 C   0  0  1  0  0  0  0  0  0  0  0  0
   16.1177  -10.7093  -15.5445 C   0  0  0  0  0  0  0  0  0  0  0  0
   15.8169  -12.1122  -15.9197 C   0  0  0  0  0  0  0  0  0  0  0  0
   15.4994  -12.9298  -15.0198 O   0  0  0  0  0  0  0  0  0  0  0  0
   17.7172   -9.2649  -14.3492 C   0  0  0  0  0  0  0  0  0  0  0  0
   17.7479   -8.3548  -15.2368 O   0  0  0  0  0  0  0  0  0  0  0  0
   15.8682  -12.5726  -17.2206 O   0  0  0  0  0  0  0  0  0  0  0  0
   17.9656   -8.8728  -13.0107 N   0  0  0  0  0  0  0  0  0  0  0  0
   18.1766   -7.4936  -12.6952 C   0  0  1  0  0  0  0  0  0  0  0  0
   17.7760   -7.1001  -11.3120 C   0  0  0  0  0  0  0  0  0  0  0  0
   17.9436   -5.6671  -10.9593 C   0  0  0  0  0  0  0  0  0  0  0  0
   17.4225   -5.4604   -9.5737 C   0  0  0  0  0  0  0  0  0  0  0  0
   17.2153   -4.3039   -9.1330 O   0  0  0  0  0  0  0  0  0  0  0  0
   19.5753   -7.0279  -12.9383 C   0  0  0  0  0  0  0  0  0  0  0  0
   20.5155   -7.8401  -12.7248 O   0  0  0  0  0  0  0  0  0  0  0  0
   17.1582   -6.5460   -8.7487 O   0  0  0  0  0  0  0  0  0  0  0  0
   22.9709   -6.4972  -16.9310 N   0  0  0  0  0  0  0  0  0  0  0  0
   22.6682   -5.7212  -15.7607 C   0  0  0  0  0  0  0  0  0  0  0  0
   23.4355   -4.7850  -15.5008 O   0  0  0  0  0  0  0  0  0  0  0  0
   21.4838   -6.1276  -15.0068 C   0  0  0  0  0  0  0  0  0  0  0  0
   21.0682   -5.2468  -13.8939 C   0  0  2  0  0  0  0  0  0  0  0  0
   19.7859   -5.7101  -13.3904 N   0  0  0  0  0  0  0  0  0  0  0  0
   21.0131   -3.8025  -14.2151 C   0  0  0  0  0  0  0  0  0  0  0  0
   20.1092   -3.1748  -15.0219 O   0  0  0  0  0  0  0  0  0  0  0  0
   21.8995   -3.0567  -13.6879 O   0  0  0  0  0  0  0  0  0  0  0  0
  2  1  1  1
  2  3  1  0
  3  4  1  0
  4  8  1  0
  5  4  2  0
  6  2  1  0
  6  7  2  0
  9  6  1  0
 10  9  1  0
 10 11  1  1
 11 12  1  0
 12 13  1  0
 13 17  1  0
 13 14  2  0
 15 10  1  0
 16 15  2  0
 19 18  1  0
 19 21  1  0
 20 19  2  0
 22 21  1  6
 22 23  1  0
 23 15  1  0
 24 25  1  0
 24 22  1  0
 26 24  2  0
M  END
$$$$
