DEN.pdb
     RDKit          3D

 26 25  0  0  1  0  0  0  0  0999 V2000
   18.4126  -12.4909  -15.7050 N   0  0  0  0  0  0  0  0  0  0  0  0
   18.0537  -11.1327  -15.9715 C   0  0  1  0  0  0  0  0  0  0  0  0
   16.8145  -10.7041  -15.2016 C   0  0  0  0  0  0  0  0  0  0  0  0
   15.6800  -11.5988  -15.5358 C   0  0  0  0  0  0  0  0  0  0  0  0
   15.3314  -11.7194  -16.7370 O   0  0  0  0  0  0  0  0  0  0  0  0
   19.1817  -10.2205  -15.6873 C   0  0  0  0  0  0  0  0  0  0  0  0
   19.7242  -10.2707  -14.5383 O   0  0  0  0  0  0  0  0  0  0  0  0
   14.9785  -12.3143  -14.5856 O   0  0  0  0  0  0  0  0  0  0  0  0
   19.7079   -9.2846  -16.6115 N   0  0  0  0  0  0  0  0  0  0  0  0
   20.8875   -8.5429  -16.2876 C   0  0  1  0  0  0  0  0  0  0  0  0
   22.0262   -8.7346  -17.2337 C   0  0  0  0  0  0  0  0  0  0  0  0
   22.5935  -10.1050  -17.3140 C   0  0  0  0  0  0  0  0  0  0  0  0
   23.7690  -10.0734  -18.2367 C   0  0  0  0  0  0  0  0  0  0  0  0
   24.1183   -9.0043  -18.7931 O   0  0  0  0  0  0  0  0  0  0  0  0
   20.6494   -7.0778  -16.1173 C   0  0  0  0  0  0  0  0  0  0  0  0
   19.7522   -6.5381  -16.8194 O   0  0  0  0  0  0  0  0  0  0  0  0
   24.4962  -11.2282  -18.4949 O   0  0  0  0  0  0  0  0  0  0  0  0
   20.4974   -2.3750  -14.2516 N   0  0  0  0  0  0  0  0  0  0  0  0
   19.4313   -3.3367  -14.2985 C   0  0  0  0  0  0  0  0  0  0  0  0
   18.2927   -2.9165  -14.0543 O   0  0  0  0  0  0  0  0  0  0  0  0
   19.8145   -4.7076  -14.6303 C   0  0  0  0  0  0  0  0  0  0  0  0
   21.2435   -4.9465  -14.9261 C   0  0  2  0  0  0  0  0  0  0  0  0
   21.4318   -6.3637  -15.1882 N   0  0  0  0  0  0  0  0  0  0  0  0
   22.1925   -4.4754  -13.8918 C   0  0  0  0  0  0  0  0  0  0  0  0
   22.8656   -3.2885  -13.8747 O   0  0  0  0  0  0  0  0  0  0  0  0
   22.4122   -5.2531  -12.9085 O   0  0  0  0  0  0  0  0  0  0  0  0
  2  1  1  1
  2  3  1  0
  3  4  1  0
  4  8  1  0
  5  4  2  0
  6  2  1  0
  6  7  2  0
  9  6  1  0
 10  9  1  0
 10 11  1  6
 11 12  1  0
 12 13  1  0
 13 17  1  0
 13 14  2  0
 15 10  1  0
 16 15  2  0
 19 18  1  0
 19 21  1  0
 20 19  2  0
 22 21  1  1
 22 23  1  0
 23 15  1  0
 24 25  1  0
 24 22  1  0
 26 24  2  0
M  END
$$$$
