DEN.pdb
     RDKit          3D

 26 25  0  0  1  0  0  0  0  0999 V2000
   19.2217   -9.5646  -16.1096 N   0  0  0  0  0  0  0  0  0  0  0  0
   18.0522   -9.9963  -15.4092 C   0  0  1  0  0  0  0  0  0  0  0  0
   18.3774  -10.9909  -14.3060 C   0  0  0  0  0  0  0  0  0  0  0  0
   18.8071  -12.2795  -14.9011 C   0  0  0  0  0  0  0  0  0  0  0  0
   19.9756  -12.3843  -15.3512 O   0  0  0  0  0  0  0  0  0  0  0  0
   17.3049   -8.8434  -14.8637 C   0  0  0  0  0  0  0  0  0  0  0  0
   17.9326   -7.7550  -14.6673 O   0  0  0  0  0  0  0  0  0  0  0  0
   17.9811  -13.3828  -14.9880 O   0  0  0  0  0  0  0  0  0  0  0  0
   15.9257   -8.8628  -14.5404 N   0  0  0  0  0  0  0  0  0  0  0  0
   15.2940   -7.6881  -14.0234 C   0  0  1  0  0  0  0  0  0  0  0  0
   13.8992   -7.4641  -14.5063 C   0  0  0  0  0  0  0  0  0  0  0  0
   12.9107   -8.5240  -14.1816 C   0  0  0  0  0  0  0  0  0  0  0  0
   11.6049   -8.1566  -14.8096 C   0  0  0  0  0  0  0  0  0  0  0  0
   10.5341   -8.2491  -14.1621 O   0  0  0  0  0  0  0  0  0  0  0  0
   15.3018   -7.6075  -12.5316 C   0  0  0  0  0  0  0  0  0  0  0  0
   15.6486   -8.6327  -11.8850 O   0  0  0  0  0  0  0  0  0  0  0  0
   11.5539   -7.7060  -16.1224 O   0  0  0  0  0  0  0  0  0  0  0  0
   15.1266   -6.0845   -7.7257 N   0  0  0  0  0  0  0  0  0  0  0  0
   16.3035   -6.4909   -8.4421 C   0  0  0  0  0  0  0  0  0  0  0  0
   17.3191   -6.7045   -7.7670 O   0  0  0  0  0  0  0  0  0  0  0  0
   16.1670   -6.6062   -9.8928 C   0  0  0  0  0  0  0  0  0  0  0  0
   14.8541   -6.2440  -10.4688 C   0  0  2  0  0  0  0  0  0  0  0  0
   14.9226   -6.4001  -11.9123 N   0  0  0  0  0  0  0  0  0  0  0  0
   14.3548   -4.8967  -10.1115 C   0  0  0  0  0  0  0  0  0  0  0  0
   14.1284   -3.8531  -10.9611 O   0  0  0  0  0  0  0  0  0  0  0  0
   14.1072   -4.6768   -8.8826 O   0  0  0  0  0  0  0  0  0  0  0  0
  2  1  1  1
  2  3  1  0
  3  4  1  0
  4  8  1  0
  5  4  2  0
  6  2  1  0
  6  7  2  0
  9  6  1  0
 10  9  1  0
 10 11  1  1
 11 12  1  0
 12 13  1  0
 13 17  1  0
 13 14  2  0
 15 10  1  0
 16 15  2  0
 19 18  1  0
 19 21  1  0
 20 19  2  0
 22 21  1  1
 22 23  1  0
 23 15  1  0
 24 25  1  0
 24 22  1  0
 26 24  2  0
M  END
$$$$
