DEN.pdb
     RDKit          3D

 26 25  0  0  1  0  0  0  0  0999 V2000
   17.7457  -11.9988  -14.6208 N   0  0  0  0  0  0  0  0  0  0  0  0
   17.0285  -10.7619  -14.6393 C   0  0  1  0  0  0  0  0  0  0  0  0
   15.5226  -10.9711  -14.6666 C   0  0  0  0  0  0  0  0  0  0  0  0
   15.1416  -11.7261  -15.8848 C   0  0  0  0  0  0  0  0  0  0  0  0
   15.5240  -11.3079  -17.0064 O   0  0  0  0  0  0  0  0  0  0  0  0
   17.4125   -9.9090  -13.4945 C   0  0  0  0  0  0  0  0  0  0  0  0
   17.2797  -10.3787  -12.3203 O   0  0  0  0  0  0  0  0  0  0  0  0
   14.3798  -12.8774  -15.8512 O   0  0  0  0  0  0  0  0  0  0  0  0
   17.9232   -8.5928  -13.6116 N   0  0  0  0  0  0  0  0  0  0  0  0
   18.2544   -7.8453  -12.4378 C   0  0  1  0  0  0  0  0  0  0  0  0
   19.3373   -6.8348  -12.6246 C   0  0  0  0  0  0  0  0  0  0  0  0
   20.7293   -7.3526  -12.6271 C   0  0  0  0  0  0  0  0  0  0  0  0
   21.6575   -6.2033  -12.8549 C   0  0  0  0  0  0  0  0  0  0  0  0
   22.1930   -5.6106  -11.8871 O   0  0  0  0  0  0  0  0  0  0  0  0
   17.0811   -7.1758  -11.7996 C   0  0  0  0  0  0  0  0  0  0  0  0
   15.9744   -7.2199  -12.4018 O   0  0  0  0  0  0  0  0  0  0  0  0
   21.9438   -5.7706  -14.1433 O   0  0  0  0  0  0  0  0  0  0  0  0
   14.1020   -5.0261   -8.2419 N   0  0  0  0  0  0  0  0  0  0  0  0
   14.0119   -6.3748   -8.7281 C   0  0  0  0  0  0  0  0  0  0  0  0
   13.0209   -7.0277   -8.3753 O   0  0  0  0  0  0  0  0  0  0  0  0
   15.1055   -6.8243   -9.5873 C   0  0  0  0  0  0  0  0  0  0  0  0
   16.1757   -5.8440   -9.8706 C   0  0  2  0  0  0  0  0  0  0  0  0
   17.2573   -6.5257  -10.5621 N   0  0  0  0  0  0  0  0  0  0  0  0
   16.6896   -5.1082   -8.6930 C   0  0  0  0  0  0  0  0  0  0  0  0
   17.9417   -5.1890   -8.1566 O   0  0  0  0  0  0  0  0  0  0  0  0
   15.8855   -4.3123   -8.1100 O   0  0  0  0  0  0  0  0  0  0  0  0
  2  1  1  1
  2  3  1  0
  3  4  1  0
  4  8  1  0
  5  4  2  0
  6  2  1  0
  6  7  2  0
  9  6  1  0
 10  9  1  0
 10 11  1  6
 11 12  1  0
 12 13  1  0
 13 17  1  0
 13 14  2  0
 15 10  1  0
 16 15  2  0
 19 18  1  0
 19 21  1  0
 20 19  2  0
 22 21  1  1
 22 23  1  0
 23 15  1  0
 24 25  1  0
 24 22  1  0
 26 24  2  0
M  END
$$$$
