DEN.pdb
     RDKit          3D

 26 25  0  0  1  0  0  0  0  0999 V2000
   16.0600  -10.7894  -16.8804 N   0  0  0  0  0  0  0  0  0  0  0  0
   16.5304  -10.3502  -15.6035 C   0  0  1  0  0  0  0  0  0  0  0  0
   17.4213  -11.3838  -14.9326 C   0  0  0  0  0  0  0  0  0  0  0  0
   16.6037  -12.5357  -14.4813 C   0  0  0  0  0  0  0  0  0  0  0  0
   15.3627  -12.3888  -14.3496 O   0  0  0  0  0  0  0  0  0  0  0  0
   17.2327   -9.0541  -15.7141 C   0  0  0  0  0  0  0  0  0  0  0  0
   18.1122   -8.9196  -16.6226 O   0  0  0  0  0  0  0  0  0  0  0  0
   17.1405  -13.7753  -14.1945 O   0  0  0  0  0  0  0  0  0  0  0  0
   16.9948   -7.9394  -14.8728 N   0  0  0  0  0  0  0  0  0  0  0  0
   17.7358   -6.7300  -15.0587 C   0  0  1  0  0  0  0  0  0  0  0  0
   16.9429   -5.4774  -14.8830 C   0  0  0  0  0  0  0  0  0  0  0  0
   15.7860   -5.2955  -15.7966 C   0  0  0  0  0  0  0  0  0  0  0  0
   15.1013   -4.0160  -15.4383 C   0  0  0  0  0  0  0  0  0  0  0  0
   13.9699   -3.7419  -15.9065 O   0  0  0  0  0  0  0  0  0  0  0  0
   18.9640   -6.6406  -14.2126 C   0  0  0  0  0  0  0  0  0  0  0  0
   18.8340   -6.7662  -12.9650 O   0  0  0  0  0  0  0  0  0  0  0  0
   15.7061   -3.1069  -14.5799 O   0  0  0  0  0  0  0  0  0  0  0  0
   21.5716   -8.9321  -13.7525 N   0  0  0  0  0  0  0  0  0  0  0  0
   22.5794   -8.3620  -14.6026 C   0  0  0  0  0  0  0  0  0  0  0  0
   23.3870   -9.1496  -15.1126 O   0  0  0  0  0  0  0  0  0  0  0  0
   22.5362   -6.9105  -14.7690 C   0  0  0  0  0  0  0  0  0  0  0  0
   21.4340   -6.1951  -14.0906 C   0  0  2  0  0  0  0  0  0  0  0  0
   20.2073   -6.4192  -14.8374 N   0  0  0  0  0  0  0  0  0  0  0  0
   21.6567   -4.7476  -13.8731 C   0  0  0  0  0  0  0  0  0  0  0  0
   21.0295   -3.7157  -14.5088 O   0  0  0  0  0  0  0  0  0  0  0  0
   22.5245   -4.4185  -13.0022 O   0  0  0  0  0  0  0  0  0  0  0  0
  2  1  1  6
  2  3  1  0
  3  4  1  0
  4  8  1  0
  5  4  2  0
  6  2  1  0
  6  7  2  0
  9  6  1  0
 10  9  1  0
 10 11  1  1
 11 12  1  0
 12 13  1  0
 13 17  1  0
 13 14  2  0
 15 10  1  0
 16 15  2  0
 19 18  1  0
 19 21  1  0
 20 19  2  0
 22 21  1  6
 22 23  1  0
 23 15  1  0
 24 25  1  0
 24 22  1  0
 26 24  2  0
M  END
$$$$
