GAQ.pdb
     RDKit          3D

 19 18  0  0  1  0  0  0  0  0999 V2000
   28.3019  -19.6295  -16.1784 N   0  0  0  0  0  0  0  0  0  0  0  0
   27.8221  -19.2372  -14.8932 C   0  0  0  0  0  0  0  0  0  0  0  0
   26.8982  -20.2832  -14.3327 C   0  0  0  0  0  0  0  0  0  0  0  0
   26.2622  -21.0732  -15.0672 O   0  0  0  0  0  0  0  0  0  0  0  0
   25.8566  -21.5175  -10.8995 C   0  0  0  0  0  0  0  0  0  0  0  0
   25.6569  -21.2095  -12.3454 C   0  0  2  0  0  0  0  0  0  0  0  0
   26.7084  -20.4178  -12.9296 N   0  0  0  0  0  0  0  0  0  0  0  0
   24.3110  -20.6254  -12.6236 C   0  0  0  0  0  0  0  0  0  0  0  0
   24.1808  -19.3791  -12.8165 O   0  0  0  0  0  0  0  0  0  0  0  0
   22.2337  -18.0326  -16.1351 N   0  0  0  0  0  0  0  0  0  0  0  0
   21.1631  -18.8208  -15.6382 C   0  0  0  0  0  0  0  0  0  0  0  0
   20.1713  -18.2319  -15.1511 O   0  0  0  0  0  0  0  0  0  0  0  0
   21.2377  -20.3022  -15.7040 C   0  0  0  0  0  0  0  0  0  0  0  0
   22.3484  -20.7483  -14.8135 C   0  0  0  0  0  0  0  0  0  0  0  0
   21.9287  -20.9966  -13.3823 C   0  0  2  0  0  0  0  0  0  0  0  0
   23.1479  -21.4385  -12.6800 N   0  0  0  0  0  0  0  0  0  0  0  0
   20.8585  -21.9933  -13.2445 C   0  0  0  0  0  0  0  0  0  0  0  0
   19.5461  -21.6232  -13.0429 O   0  0  0  0  0  0  0  0  0  0  0  0
   21.1327  -23.2151  -13.3094 O   0  0  0  0  0  0  0  0  0  0  0  0
  2  1  1  0
  3  7  1  0
  3  2  1  0
  4  3  2  0
  6  5  1  1
  6  8  1  0
  6  7  1  0
  8  9  2  0
 10 11  1  0
 11 13  1  0
 11 12  2  0
 13 14  1  0
 15 14  1  6
 16 15  1  0
 16  8  1  0
 17 15  1  0
 17 18  1  0
 19 17  2  0
M  END
$$$$
