GAQ.pdb
     RDKit          3D

 19 18  0  0  1  0  0  0  0  0999 V2000
   28.2038  -21.1623  -15.8966 N   0  0  0  0  0  0  0  0  0  0  0  0
   28.0717  -20.6211  -14.5830 C   0  0  0  0  0  0  0  0  0  0  0  0
   26.8247  -21.1397  -13.9212 C   0  0  0  0  0  0  0  0  0  0  0  0
   25.9570  -21.7881  -14.5498 O   0  0  0  0  0  0  0  0  0  0  0  0
   25.4332  -21.2929  -10.3948 C   0  0  0  0  0  0  0  0  0  0  0  0
   25.3481  -21.2712  -11.8840 C   0  0  2  0  0  0  0  0  0  0  0  0
   26.5789  -20.9115  -12.5391 N   0  0  0  0  0  0  0  0  0  0  0  0
   24.2030  -20.4496  -12.3778 C   0  0  0  0  0  0  0  0  0  0  0  0
   24.3845  -19.2467  -12.7348 O   0  0  0  0  0  0  0  0  0  0  0  0
   24.7027  -19.7145  -16.0790 N   0  0  0  0  0  0  0  0  0  0  0  0
   23.4188  -19.3479  -16.5601 C   0  0  0  0  0  0  0  0  0  0  0  0
   23.3532  -18.5454  -17.5189 O   0  0  0  0  0  0  0  0  0  0  0  0
   22.1993  -19.9126  -15.9288 C   0  0  0  0  0  0  0  0  0  0  0  0
   22.6289  -20.8167  -14.8225 C   0  0  0  0  0  0  0  0  0  0  0  0
   21.9418  -20.5455  -13.5032 C   0  0  2  0  0  0  0  0  0  0  0  0
   22.8898  -20.9840  -12.4622 N   0  0  0  0  0  0  0  0  0  0  0  0
   20.6522  -21.2333  -13.3559 C   0  0  0  0  0  0  0  0  0  0  0  0
   20.5663  -22.6081  -13.3071 O   0  0  0  0  0  0  0  0  0  0  0  0
   19.5951  -20.5641  -13.2721 O   0  0  0  0  0  0  0  0  0  0  0  0
  2  1  1  0
  3  7  1  0
  3  2  1  0
  4  3  2  0
  6  5  1  1
  6  8  1  0
  6  7  1  0
  8  9  2  0
 10 11  1  0
 11 13  1  0
 11 12  2  0
 13 14  1  0
 15 14  1  6
 16 15  1  0
 16  8  1  0
 17 15  1  0
 17 18  1  0
 19 17  2  0
M  END
$$$$
