GAQ.pdb
     RDKit          3D

 19 18  0  0  1  0  0  0  0  0999 V2000
   17.2473  -11.3741  -17.8632 N   0  0  0  0  0  0  0  0  0  0  0  0
   17.1382  -10.7851  -16.5682 C   0  0  0  0  0  0  0  0  0  0  0  0
   17.7162   -9.3967  -16.5692 C   0  0  0  0  0  0  0  0  0  0  0  0
   18.7442   -9.1033  -17.2214 O   0  0  0  0  0  0  0  0  0  0  0  0
   16.7134   -6.0184  -15.1406 C   0  0  0  0  0  0  0  0  0  0  0  0
   17.6364   -7.0104  -15.7646 C   0  0  2  0  0  0  0  0  0  0  0  0
   17.1108   -8.3499  -15.8206 N   0  0  0  0  0  0  0  0  0  0  0  0
   19.0004   -6.9810  -15.1573 C   0  0  0  0  0  0  0  0  0  0  0  0
   19.2748   -7.7176  -14.1625 O   0  0  0  0  0  0  0  0  0  0  0  0
   23.8124   -6.5936  -18.5130 N   0  0  0  0  0  0  0  0  0  0  0  0
   24.5060   -6.5314  -17.2763 C   0  0  0  0  0  0  0  0  0  0  0  0
   25.7555   -6.6105  -17.2942 O   0  0  0  0  0  0  0  0  0  0  0  0
   23.7508   -6.3764  -16.0074 C   0  0  0  0  0  0  0  0  0  0  0  0
   22.2956   -6.3616  -16.3354 C   0  0  0  0  0  0  0  0  0  0  0  0
   21.3954   -6.1734  -15.1352 C   0  0  2  0  0  0  0  0  0  0  0  0
   20.0212   -6.1366  -15.6691 N   0  0  0  0  0  0  0  0  0  0  0  0
   21.6864   -4.9583  -14.3627 C   0  0  0  0  0  0  0  0  0  0  0  0
   22.6170   -4.9524  -13.3460 O   0  0  0  0  0  0  0  0  0  0  0  0
   21.0791   -3.8930  -14.6246 O   0  0  0  0  0  0  0  0  0  0  0  0
  2  1  1  0
  3  7  1  0
  3  2  1  0
  4  3  2  0
  6  5  1  1
  6  8  1  0
  6  7  1  0
  8  9  2  0
 10 11  1  0
 11 13  1  0
 11 12  2  0
 13 14  1  0
 15 14  1  6
 16 15  1  0
 16  8  1  0
 17 15  1  0
 17 18  1  0
 19 17  2  0
M  END
$$$$
