GAQ.pdb
     RDKit          3D

 19 18  0  0  1  0  0  0  0  0999 V2000
   15.3251  -13.1260  -14.8047 N   0  0  0  0  0  0  0  0  0  0  0  0
   15.0122  -11.7353  -14.8689 C   0  0  0  0  0  0  0  0  0  0  0  0
   16.1870  -10.9533  -15.3889 C   0  0  0  0  0  0  0  0  0  0  0  0
   17.3591  -11.3895  -15.3242 O   0  0  0  0  0  0  0  0  0  0  0  0
   16.6405   -7.7756  -17.4172 C   0  0  0  0  0  0  0  0  0  0  0  0
   17.0877   -8.9153  -16.5649 C   0  0  2  0  0  0  0  0  0  0  0  0
   16.0108   -9.6726  -15.9816 N   0  0  0  0  0  0  0  0  0  0  0  0
   18.0870   -8.5000  -15.5357 C   0  0  0  0  0  0  0  0  0  0  0  0
   17.7120   -8.2049  -14.3611 O   0  0  0  0  0  0  0  0  0  0  0  0
   23.4107  -11.1100  -15.1047 N   0  0  0  0  0  0  0  0  0  0  0  0
   23.5878   -9.9866  -15.9538 C   0  0  0  0  0  0  0  0  0  0  0  0
   24.5565   -9.9916  -16.7472 O   0  0  0  0  0  0  0  0  0  0  0  0
   22.6382   -8.8472  -15.8869 C   0  0  0  0  0  0  0  0  0  0  0  0
   21.5351   -9.2201  -14.9544 C   0  0  0  0  0  0  0  0  0  0  0  0
   20.4775   -8.1516  -14.7925 C   0  0  2  0  0  0  0  0  0  0  0  0
   19.4727   -8.4233  -15.8372 N   0  0  0  0  0  0  0  0  0  0  0  0
   20.9968   -6.7828  -14.9132 C   0  0  0  0  0  0  0  0  0  0  0  0
   21.6682   -6.1692  -13.8775 O   0  0  0  0  0  0  0  0  0  0  0  0
   20.8313   -6.1453  -15.9803 O   0  0  0  0  0  0  0  0  0  0  0  0
  2  1  1  0
  3  7  1  0
  3  2  1  0
  4  3  2  0
  6  5  1  1
  6  8  1  0
  6  7  1  0
  8  9  2  0
 10 11  1  0
 11 13  1  0
 11 12  2  0
 13 14  1  0
 15 14  1  6
 16 15  1  0
 16  8  1  0
 17 15  1  0
 17 18  1  0
 19 17  2  0
M  END
$$$$
