GAQ.pdb
     RDKit          3D

 19 18  0  0  1  0  0  0  0  0999 V2000
   14.1584  -12.1724  -15.7829 N   0  0  0  0  0  0  0  0  0  0  0  0
   13.9298  -10.7923  -16.0639 C   0  0  0  0  0  0  0  0  0  0  0  0
   15.2140  -10.1128  -16.4524 C   0  0  0  0  0  0  0  0  0  0  0  0
   16.3335  -10.5581  -16.1106 O   0  0  0  0  0  0  0  0  0  0  0  0
   16.1889   -7.2131  -18.7046 C   0  0  0  0  0  0  0  0  0  0  0  0
   16.4065   -8.2419  -17.6463 C   0  0  2  0  0  0  0  0  0  0  0  0
   15.2075   -8.9236  -17.2324 N   0  0  0  0  0  0  0  0  0  0  0  0
   17.1644   -7.7055  -16.4768 C   0  0  0  0  0  0  0  0  0  0  0  0
   16.5504   -7.3293  -15.4333 O   0  0  0  0  0  0  0  0  0  0  0  0
   22.5094   -9.7604  -14.8599 N   0  0  0  0  0  0  0  0  0  0  0  0
   22.3575   -8.8038  -13.8226 C   0  0  0  0  0  0  0  0  0  0  0  0
   23.1270   -8.8723  -12.8373 O   0  0  0  0  0  0  0  0  0  0  0  0
   21.3078   -7.7585  -13.9232 C   0  0  0  0  0  0  0  0  0  0  0  0
   20.4383   -8.0886  -15.0896 C   0  0  0  0  0  0  0  0  0  0  0  0
   19.3344   -7.0857  -15.3386 C   0  0  2  0  0  0  0  0  0  0  0  0
   18.5807   -7.6013  -16.4965 N   0  0  0  0  0  0  0  0  0  0  0  0
   19.8205   -5.7240  -15.5984 C   0  0  0  0  0  0  0  0  0  0  0  0
   20.2115   -4.8874  -14.5751 O   0  0  0  0  0  0  0  0  0  0  0  0
   19.8856   -5.2997  -16.7765 O   0  0  0  0  0  0  0  0  0  0  0  0
  2  1  1  0
  3  7  1  0
  3  2  1  0
  4  3  2  0
  6  5  1  6
  6  8  1  0
  6  7  1  0
  8  9  2  0
 10 11  1  0
 11 13  1  0
 11 12  2  0
 13 14  1  0
 15 14  1  6
 16 15  1  0
 16  8  1  0
 17 15  1  0
 17 18  1  0
 19 17  2  0
M  END
$$$$
