GAQ.pdb
     RDKit          3D

 19 18  0  0  1  0  0  0  0  0999 V2000
   17.9456  -12.4612  -16.0069 N   0  0  0  0  0  0  0  0  0  0  0  0
   17.5103  -11.4957  -15.0508 C   0  0  0  0  0  0  0  0  0  0  0  0
   18.0980  -10.1459  -15.3584 C   0  0  0  0  0  0  0  0  0  0  0  0
   19.1907  -10.0154  -15.9559 O   0  0  0  0  0  0  0  0  0  0  0  0
   16.8788   -6.5554  -15.1136 C   0  0  0  0  0  0  0  0  0  0  0  0
   17.8784   -7.6360  -15.3556 C   0  0  2  0  0  0  0  0  0  0  0  0
   17.4278   -8.9505  -14.9781 N   0  0  0  0  0  0  0  0  0  0  0  0
   19.2126   -7.3219  -14.7629 C   0  0  0  0  0  0  0  0  0  0  0  0
   19.4989   -7.7068  -13.5893 O   0  0  0  0  0  0  0  0  0  0  0  0
   23.9804   -6.6349  -18.3673 N   0  0  0  0  0  0  0  0  0  0  0  0
   24.6561   -6.3059  -17.1633 C   0  0  0  0  0  0  0  0  0  0  0  0
   25.8919   -6.1110  -17.2127 O   0  0  0  0  0  0  0  0  0  0  0  0
   23.8986   -6.2009  -15.8906 C   0  0  0  0  0  0  0  0  0  0  0  0
   22.4680   -6.5109  -16.1782 C   0  0  0  0  0  0  0  0  0  0  0  0
   21.5617   -6.4127  -14.9719 C   0  0  2  0  0  0  0  0  0  0  0  0
   20.1913   -6.5906  -15.4869 N   0  0  0  0  0  0  0  0  0  0  0  0
   21.6832   -5.1431  -14.2431 C   0  0  0  0  0  0  0  0  0  0  0  0
   22.5736   -4.9881  -13.2024 O   0  0  0  0  0  0  0  0  0  0  0  0
   20.9637   -4.1681  -14.5656 O   0  0  0  0  0  0  0  0  0  0  0  0
  2  1  1  0
  3  7  1  0
  3  2  1  0
  4  3  2  0
  6  5  1  1
  6  8  1  0
  6  7  1  0
  8  9  2  0
 10 11  1  0
 11 13  1  0
 11 12  2  0
 13 14  1  0
 15 14  1  6
 16 15  1  0
 16  8  1  0
 17 15  1  0
 17 18  1  0
 19 17  2  0
M  END
$$$$
