GAQ.pdb
     RDKit          3D

 19 18  0  0  1  0  0  0  0  0999 V2000
   16.8566  -13.8707  -14.5042 N   0  0  0  0  0  0  0  0  0  0  0  0
   16.4034  -12.5353  -14.7211 C   0  0  0  0  0  0  0  0  0  0  0  0
   17.4911  -11.7029  -15.3422 C   0  0  0  0  0  0  0  0  0  0  0  0
   18.6504  -12.1434  -15.5160 O   0  0  0  0  0  0  0  0  0  0  0  0
   17.6102   -8.4043  -17.2004 C   0  0  0  0  0  0  0  0  0  0  0  0
   18.2010   -9.5742  -16.4879 C   0  0  2  0  0  0  0  0  0  0  0  0
   17.2429  -10.3668  -15.7618 N   0  0  0  0  0  0  0  0  0  0  0  0
   19.3612   -9.1923  -15.6287 C   0  0  0  0  0  0  0  0  0  0  0  0
   19.1939   -8.9558  -14.3944 O   0  0  0  0  0  0  0  0  0  0  0  0
   24.8029  -11.2424  -16.6559 N   0  0  0  0  0  0  0  0  0  0  0  0
   25.2469  -10.2504  -15.7432 C   0  0  0  0  0  0  0  0  0  0  0  0
   26.4157  -10.3332  -15.3019 O   0  0  0  0  0  0  0  0  0  0  0  0
   24.3337   -9.1528  -15.3360 C   0  0  0  0  0  0  0  0  0  0  0  0
   23.0370   -9.3430  -16.0487 C   0  0  0  0  0  0  0  0  0  0  0  0
   21.8376   -8.8087  -15.2989 C   0  0  2  0  0  0  0  0  0  0  0  0
   20.6733   -9.0832  -16.1613 N   0  0  0  0  0  0  0  0  0  0  0  0
   21.9268   -7.3764  -14.9850 C   0  0  0  0  0  0  0  0  0  0  0  0
   22.3919   -6.9299  -13.7667 O   0  0  0  0  0  0  0  0  0  0  0  0
   21.5732   -6.5283  -15.8382 O   0  0  0  0  0  0  0  0  0  0  0  0
  2  1  1  0
  3  7  1  0
  3  2  1  0
  4  3  2  0
  6  5  1  1
  6  8  1  0
  6  7  1  0
  8  9  2  0
 10 11  1  0
 11 13  1  0
 11 12  2  0
 13 14  1  0
 15 14  1  6
 16 15  1  0
 16  8  1  0
 17 15  1  0
 17 18  1  0
 19 17  2  0
M  END
$$$$
