GAQ.pdb
     RDKit          3D

 19 18  0  0  1  0  0  0  0  0999 V2000
   15.4380  -13.2428  -12.7860 N   0  0  0  0  0  0  0  0  0  0  0  0
   15.0903  -12.9331  -11.4372 C   0  0  0  0  0  0  0  0  0  0  0  0
   15.1444  -11.4480  -11.2058 C   0  0  0  0  0  0  0  0  0  0  0  0
   15.5735  -10.6535  -12.0734 O   0  0  0  0  0  0  0  0  0  0  0  0
   13.6390   -9.0984   -8.6577 C   0  0  0  0  0  0  0  0  0  0  0  0
   14.5715   -9.4632   -9.7635 C   0  0  2  0  0  0  0  0  0  0  0  0
   14.7050  -10.8809   -9.9778 N   0  0  0  0  0  0  0  0  0  0  0  0
   15.9031   -8.8007   -9.6285 C   0  0  0  0  0  0  0  0  0  0  0  0
   16.7810   -9.2798   -8.8492 O   0  0  0  0  0  0  0  0  0  0  0  0
   19.8650   -8.3973  -13.3470 N   0  0  0  0  0  0  0  0  0  0  0  0
   20.3977   -7.2720  -12.6657 C   0  0  0  0  0  0  0  0  0  0  0  0
   21.5020   -6.8194  -13.0443 O   0  0  0  0  0  0  0  0  0  0  0  0
   19.6492   -6.6635  -11.5370 C   0  0  0  0  0  0  0  0  0  0  0  0
   18.3541   -7.3907  -11.3968 C   0  0  0  0  0  0  0  0  0  0  0  0
   17.5272   -6.9530  -10.2091 C   0  0  2  0  0  0  0  0  0  0  0  0
   16.2240   -7.6266  -10.3603 N   0  0  0  0  0  0  0  0  0  0  0  0
   17.3529   -5.4975  -10.1142 C   0  0  0  0  0  0  0  0  0  0  0  0
   18.2411   -4.7059   -9.4183 O   0  0  0  0  0  0  0  0  0  0  0  0
   16.3750   -4.9491  -10.6757 O   0  0  0  0  0  0  0  0  0  0  0  0
  2  1  1  0
  3  7  1  0
  3  2  1  0
  4  3  2  0
  6  5  1  1
  6  8  1  0
  6  7  1  0
  8  9  2  0
 10 11  1  0
 11 13  1  0
 11 12  2  0
 13 14  1  0
 15 14  1  6
 16 15  1  0
 16  8  1  0
 17 15  1  0
 17 18  1  0
 19 17  2  0
M  END
$$$$
