GAQ.pdb
     RDKit          3D

 19 18  0  0  1  0  0  0  0  0999 V2000
   14.1762  -10.9347    3.1979 N   0  0  0  0  0  0  0  0  0  0  0  0
   14.1915  -12.3531    3.0436 C   0  0  0  0  0  0  0  0  0  0  0  0
   14.6175  -13.0188    4.3232 C   0  0  0  0  0  0  0  0  0  0  0  0
   14.9821  -12.3633    5.3260 O   0  0  0  0  0  0  0  0  0  0  0  0
   14.7576  -16.5592    5.6823 C   0  0  0  0  0  0  0  0  0  0  0  0
   15.1718  -15.1296    5.5822 C   0  0  2  0  0  0  0  0  0  0  0  0
   14.6230  -14.4356    4.4460 N   0  0  0  0  0  0  0  0  0  0  0  0
   16.6528  -14.9576    5.6675 C   0  0  0  0  0  0  0  0  0  0  0  0
   17.3362  -14.7591    4.6183 O   0  0  0  0  0  0  0  0  0  0  0  0
   19.4320  -10.7252    7.0261 N   0  0  0  0  0  0  0  0  0  0  0  0
   20.6022  -11.5205    6.9149 C   0  0  0  0  0  0  0  0  0  0  0  0
   21.7012  -10.9387    6.7689 O   0  0  0  0  0  0  0  0  0  0  0  0
   20.5031  -13.0008    6.9727 C   0  0  0  0  0  0  0  0  0  0  0  0
   19.0588  -13.3693    6.9131 C   0  0  0  0  0  0  0  0  0  0  0  0
   18.7981  -14.8562    7.0000 C   0  0  2  0  0  0  0  0  0  0  0  0
   17.3341  -15.0103    6.9125 N   0  0  0  0  0  0  0  0  0  0  0  0
   19.3144  -15.4760    8.2277 C   0  0  0  0  0  0  0  0  0  0  0  0
   20.6148  -15.9234    8.3212 O   0  0  0  0  0  0  0  0  0  0  0  0
   18.5629  -15.6078    9.2228 O   0  0  0  0  0  0  0  0  0  0  0  0
  2  1  1  0
  3  7  1  0
  3  2  1  0
  4  3  2  0
  6  5  1  6
  6  8  1  0
  6  7  1  0
  8  9  2  0
 10 11  1  0
 11 13  1  0
 11 12  2  0
 13 14  1  0
 15 14  1  1
 16 15  1  0
 16  8  1  0
 17 15  1  0
 17 18  1  0
 19 17  2  0
M  END
$$$$
