YVI.pdb
     RDKit          3D

 28 28  0  0  1  0  0  0  0  0999 V2000
    9.4638  -12.9287   16.8149 O   0  0  0  0  0  0  0  0  0  0  0  0
    8.7607  -13.3972   17.9296 C   0  0  0  0  0  0  0  0  0  0  0  0
    7.4087  -13.1859   18.0787 C   0  0  0  0  0  0  0  0  0  0  0  0
    6.7360  -13.6567   19.1856 C   0  0  0  0  0  0  0  0  0  0  0  0
    7.3748  -14.3573   20.1925 C   0  0  0  0  0  0  0  0  0  0  0  0
    6.6539  -14.8669   21.3871 C   0  0  0  0  0  0  0  0  0  0  0  0
    6.7952  -16.3717   21.4034 C   0  0  2  0  0  0  0  0  0  0  0  0
    5.6746  -16.9122   20.6572 N   0  0  0  0  0  0  0  0  0  0  0  0
    6.6776  -16.8421   22.8290 C   0  0  0  0  0  0  0  0  0  0  0  0
    5.5654  -16.7287   23.4269 O   0  0  0  0  0  0  0  0  0  0  0  0
    8.7361  -14.5691   20.0407 C   0  0  0  0  0  0  0  0  0  0  0  0
    9.4038  -14.0946   18.9289 C   0  0  0  0  0  0  0  0  0  0  0  0
    7.1902  -20.1434   24.4489 C   0  0  0  0  0  0  0  0  0  0  0  0
    8.0599  -19.1659   25.1416 C   0  0  2  0  0  0  0  0  0  0  0  0
    8.2627  -19.4693   26.6096 C   0  0  0  0  0  0  0  0  0  0  0  0
    7.6693  -17.7042   24.9365 C   0  0  2  0  0  0  0  0  0  0  0  0
    7.7944  -17.4046   23.4950 N   0  0  0  0  0  0  0  0  0  0  0  0
    8.5473  -16.7553   25.6380 C   0  0  0  0  0  0  0  0  0  0  0  0
    9.7070  -16.5072   25.1892 O   0  0  0  0  0  0  0  0  0  0  0  0
    7.1850  -11.8342   27.1007 C   0  0  0  0  0  0  0  0  0  0  0  0
    7.9571  -13.0467   26.7352 C   0  0  0  0  0  0  0  0  0  0  0  0
    8.5492  -13.8361   27.8723 C   0  0  2  0  0  0  0  0  0  0  0  0
    9.4600  -12.9105   28.6256 C   0  0  0  0  0  0  0  0  0  0  0  0
    9.1393  -15.1414   27.5074 C   0  0  2  0  0  0  0  0  0  0  0  0
    8.2474  -16.0432   26.8122 N   0  0  0  0  0  0  0  0  0  0  0  0
    9.7870  -15.8921   28.5821 C   0  0  0  0  0  0  0  0  0  0  0  0
   11.0966  -15.7407   28.9960 O   0  0  0  0  0  0  0  0  0  0  0  0
    9.1281  -16.7632   29.2113 O   0  0  0  0  0  0  0  0  0  0  0  0
  2  1  1  0
  3  2  2  0
  4  3  1  0
  5  4  2  0
  5 11  1  0
  6  5  1  0
  7  6  1  0
  7  9  1  0
  7  8  1  6
  9 10  2  0
 11 12  2  0
 12  2  1  0
 14 13  1  1
 14 15  1  0
 14 16  1  0
 16 17  1  6
 17  9  1  0
 18 16  1  0
 18 19  2  0
 20 21  1  0
 21 22  1  0
 22 23  1  6
 22 24  1  0
 24 25  1  1
 24 26  1  0
 25 18  1  0
 26 28  2  0
 26 27  1  0
M  END
$$$$
