YVI.pdb
     RDKit          3D

 28 28  0  0  1  0  0  0  0  0999 V2000
    6.4641  -23.7734   28.9715 O   0  0  0  0  0  0  0  0  0  0  0  0
    6.7855  -22.6749   28.1676 C   0  0  0  0  0  0  0  0  0  0  0  0
    5.8535  -22.0708   27.3544 C   0  0  0  0  0  0  0  0  0  0  0  0
    6.1925  -20.9891   26.5703 C   0  0  0  0  0  0  0  0  0  0  0  0
    7.4701  -20.4599   26.5587 C   0  0  0  0  0  0  0  0  0  0  0  0
    7.8400  -19.2942   25.7156 C   0  0  0  0  0  0  0  0  0  0  0  0
    7.7721  -19.7310   24.2702 C   0  0  2  0  0  0  0  0  0  0  0  0
    8.6859  -20.8477   24.1200 N   0  0  0  0  0  0  0  0  0  0  0  0
    8.2715  -18.5999   23.4106 C   0  0  0  0  0  0  0  0  0  0  0  0
    9.4731  -18.6156   23.0063 O   0  0  0  0  0  0  0  0  0  0  0  0
    8.4073  -21.0695   27.3781 C   0  0  0  0  0  0  0  0  0  0  0  0
    8.0606  -22.1529   28.1611 C   0  0  0  0  0  0  0  0  0  0  0  0
    5.8882  -15.2770   21.7201 C   0  0  0  0  0  0  0  0  0  0  0  0
    7.2840  -15.7021   21.4692 C   0  0  2  0  0  0  0  0  0  0  0  0
    7.4274  -16.6507   20.2998 C   0  0  0  0  0  0  0  0  0  0  0  0
    8.0206  -16.2347   22.6960 C   0  0  2  0  0  0  0  0  0  0  0  0
    7.4111  -17.5313   23.0573 N   0  0  0  0  0  0  0  0  0  0  0  0
    7.8960  -15.3704   23.8797 C   0  0  0  0  0  0  0  0  0  0  0  0
    7.0212  -15.6200   24.7630 O   0  0  0  0  0  0  0  0  0  0  0  0
    6.2467  -10.7948   26.8869 C   0  0  0  0  0  0  0  0  0  0  0  0
    7.3752  -11.7515   26.7818 C   0  0  0  0  0  0  0  0  0  0  0  0
    7.4172  -12.6099   25.5457 C   0  0  2  0  0  0  0  0  0  0  0  0
    6.1013  -13.3275   25.4610 C   0  0  0  0  0  0  0  0  0  0  0  0
    8.6126  -13.4673   25.4011 C   0  0  2  0  0  0  0  0  0  0  0  0
    8.6703  -14.2355   24.1769 N   0  0  0  0  0  0  0  0  0  0  0  0
    8.9100  -14.3711   26.5114 C   0  0  0  0  0  0  0  0  0  0  0  0
    9.3377  -13.9904   27.7690 O   0  0  0  0  0  0  0  0  0  0  0  0
    8.7778  -15.6140   26.3488 O   0  0  0  0  0  0  0  0  0  0  0  0
  2  1  1  0
  3  2  2  0
  4  3  1  0
  5  4  2  0
  5 11  1  0
  6  5  1  0
  7  6  1  0
  7  9  1  0
  7  8  1  1
  9 10  2  0
 11 12  2  0
 12  2  1  0
 14 13  1  1
 14 15  1  0
 14 16  1  0
 16 17  1  1
 17  9  1  0
 18 16  1  0
 18 19  2  0
 20 21  1  0
 21 22  1  0
 22 23  1  1
 22 24  1  0
 24 25  1  6
 24 26  1  0
 25 18  1  0
 26 28  2  0
 26 27  1  0
M  END
$$$$
