YVI.pdb
     RDKit          3D

 28 28  0  0  1  0  0  0  0  0999 V2000
    7.2818  -23.1751   29.4920 O   0  0  0  0  0  0  0  0  0  0  0  0
    7.3155  -22.0518   28.6592 C   0  0  0  0  0  0  0  0  0  0  0  0
    6.2796  -21.7476   27.8053 C   0  0  0  0  0  0  0  0  0  0  0  0
    6.3342  -20.6352   26.9934 C   0  0  0  0  0  0  0  0  0  0  0  0
    7.4183  -19.7766   26.9931 C   0  0  0  0  0  0  0  0  0  0  0  0
    7.4815  -18.5764   26.1201 C   0  0  0  0  0  0  0  0  0  0  0  0
    7.3293  -19.0390   24.6892 C   0  0  2  0  0  0  0  0  0  0  0  0
    8.1312  -20.2391   24.5427 N   0  0  0  0  0  0  0  0  0  0  0  0
    7.9043  -17.9799   23.7863 C   0  0  0  0  0  0  0  0  0  0  0  0
    9.1381  -18.0185   23.4969 O   0  0  0  0  0  0  0  0  0  0  0  0
    8.4605  -20.0844   27.8535 C   0  0  0  0  0  0  0  0  0  0  0  0
    8.3990  -21.2006   28.6643 C   0  0  0  0  0  0  0  0  0  0  0  0
    5.9477  -15.9641   20.6744 C   0  0  0  0  0  0  0  0  0  0  0  0
    6.6172  -15.1480   21.7125 C   0  0  2  0  0  0  0  0  0  0  0  0
    7.1057  -13.8082   21.2081 C   0  0  0  0  0  0  0  0  0  0  0  0
    7.7166  -15.8727   22.4853 C   0  0  2  0  0  0  0  0  0  0  0  0
    7.0787  -16.9530   23.2659 N   0  0  0  0  0  0  0  0  0  0  0  0
    8.4191  -15.0166   23.4534 C   0  0  0  0  0  0  0  0  0  0  0  0
    9.0623  -13.9986   23.0562 O   0  0  0  0  0  0  0  0  0  0  0  0
    6.6249  -11.2558   27.3318 C   0  0  0  0  0  0  0  0  0  0  0  0
    7.8016  -12.0885   26.9829 C   0  0  0  0  0  0  0  0  0  0  0  0
    7.5676  -13.2081   26.0038 C   0  0  2  0  0  0  0  0  0  0  0  0
    6.2558  -13.8430   26.3638 C   0  0  0  0  0  0  0  0  0  0  0  0
    8.6942  -14.1481   25.8240 C   0  0  2  0  0  0  0  0  0  0  0  0
    8.4708  -15.1912   24.8472 N   0  0  0  0  0  0  0  0  0  0  0  0
    9.2259  -14.7741   27.0338 C   0  0  0  0  0  0  0  0  0  0  0  0
    9.9445  -14.1328   28.0246 O   0  0  0  0  0  0  0  0  0  0  0  0
    9.0343  -16.0046   27.2281 O   0  0  0  0  0  0  0  0  0  0  0  0
  2  1  1  0
  3  2  2  0
  4  3  1  0
  5  4  2  0
  5 11  1  0
  6  5  1  0
  7  6  1  0
  7  9  1  0
  7  8  1  1
  9 10  2  0
 11 12  2  0
 12  2  1  0
 14 13  1  6
 14 15  1  0
 14 16  1  0
 16 17  1  1
 17  9  1  0
 18 16  1  0
 18 19  2  0
 20 21  1  0
 21 22  1  0
 22 23  1  1
 22 24  1  0
 24 25  1  6
 24 26  1  0
 25 18  1  0
 26 28  2  0
 26 27  1  0
M  END
$$$$
