YVI.pdb
     RDKit          3D

 28 28  0  0  1  0  0  0  0  0999 V2000
   17.2133  -14.7492   18.7203 O   0  0  0  0  0  0  0  0  0  0  0  0
   15.8526  -14.5892   19.0018 C   0  0  0  0  0  0  0  0  0  0  0  0
   15.2538  -15.2086   20.0753 C   0  0  0  0  0  0  0  0  0  0  0  0
   13.9110  -15.0367   20.3338 C   0  0  0  0  0  0  0  0  0  0  0  0
   13.1040  -14.2432   19.5390 C   0  0  0  0  0  0  0  0  0  0  0  0
   11.6564  -14.0546   19.8138 C   0  0  0  0  0  0  0  0  0  0  0  0
   10.9679  -15.3810   19.5871 C   0  0  2  0  0  0  0  0  0  0  0  0
   10.5862  -15.4283   18.1883 N   0  0  0  0  0  0  0  0  0  0  0  0
    9.7107  -15.4086   20.4155 C   0  0  0  0  0  0  0  0  0  0  0  0
    8.7490  -14.6434   20.1040 O   0  0  0  0  0  0  0  0  0  0  0  0
   13.7086  -13.6202   18.4584 C   0  0  0  0  0  0  0  0  0  0  0  0
   15.0547  -13.7970   18.2054 C   0  0  0  0  0  0  0  0  0  0  0  0
    8.6730  -18.7694   22.8382 C   0  0  0  0  0  0  0  0  0  0  0  0
    7.8030  -17.7695   22.1786 C   0  0  2  0  0  0  0  0  0  0  0  0
    7.4227  -18.1383   20.7617 C   0  0  0  0  0  0  0  0  0  0  0  0
    8.3131  -16.3322   22.2490 C   0  0  2  0  0  0  0  0  0  0  0  0
    9.6022  -16.2779   21.5288 N   0  0  0  0  0  0  0  0  0  0  0  0
    8.5801  -15.8679   23.6190 C   0  0  0  0  0  0  0  0  0  0  0  0
    9.7533  -15.9288   24.0961 O   0  0  0  0  0  0  0  0  0  0  0  0
    6.2159  -11.4339   25.6358 C   0  0  0  0  0  0  0  0  0  0  0  0
    7.2152  -12.5028   25.3938 C   0  0  0  0  0  0  0  0  0  0  0  0
    7.1556  -13.6993   26.3058 C   0  0  2  0  0  0  0  0  0  0  0  0
    7.4626  -13.2135   27.6926 C   0  0  0  0  0  0  0  0  0  0  0  0
    7.9295  -14.8795   25.8661 C   0  0  2  0  0  0  0  0  0  0  0  0
    7.6459  -15.3308   24.5215 N   0  0  0  0  0  0  0  0  0  0  0  0
    7.9017  -16.0472   26.7456 C   0  0  0  0  0  0  0  0  0  0  0  0
    8.8427  -16.3531   27.7101 O   0  0  0  0  0  0  0  0  0  0  0  0
    6.9536  -16.8720   26.6478 O   0  0  0  0  0  0  0  0  0  0  0  0
  2  1  1  0
  3  2  2  0
  4  3  1  0
  5  4  2  0
  5 11  1  0
  6  5  1  0
  7  6  1  0
  7  9  1  0
  7  8  1  6
  9 10  2  0
 11 12  2  0
 12  2  1  0
 14 13  1  6
 14 15  1  0
 14 16  1  0
 16 17  1  6
 17  9  1  0
 18 16  1  0
 18 19  2  0
 20 21  1  0
 21 22  1  0
 22 23  1  1
 22 24  1  0
 24 25  1  6
 24 26  1  0
 25 18  1  0
 26 28  2  0
 26 27  1  0
M  END
$$$$
