YVI.pdb
     RDKit          3D

 28 28  0  0  1  0  0  0  0  0999 V2000
    8.5984  -12.7798   16.4485 O   0  0  0  0  0  0  0  0  0  0  0  0
    8.1726  -13.2392   17.6991 C   0  0  0  0  0  0  0  0  0  0  0  0
    6.8620  -13.1319   18.1061 C   0  0  0  0  0  0  0  0  0  0  0  0
    6.4646  -13.5915   19.3432 C   0  0  0  0  0  0  0  0  0  0  0  0
    7.3495  -14.1772   20.2301 C   0  0  0  0  0  0  0  0  0  0  0  0
    6.9257  -14.6742   21.5642 C   0  0  0  0  0  0  0  0  0  0  0  0
    6.9918  -16.1840   21.5357 C   0  0  2  0  0  0  0  0  0  0  0  0
    5.7780  -16.6507   20.8925 N   0  0  0  0  0  0  0  0  0  0  0  0
    6.9897  -16.6842   22.9560 C   0  0  0  0  0  0  0  0  0  0  0  0
    5.9471  -16.5349   23.6617 O   0  0  0  0  0  0  0  0  0  0  0  0
    8.6687  -14.2843   19.8186 C   0  0  0  0  0  0  0  0  0  0  0  0
    9.0599  -13.8217   18.5777 C   0  0  0  0  0  0  0  0  0  0  0  0
    8.6674  -19.6998   26.3847 C   0  0  0  0  0  0  0  0  0  0  0  0
    8.5707  -19.1614   25.0090 C   0  0  2  0  0  0  0  0  0  0  0  0
    9.8185  -19.3821   24.1831 C   0  0  0  0  0  0  0  0  0  0  0  0
    8.1097  -17.7084   24.9219 C   0  0  2  0  0  0  0  0  0  0  0  0
    8.1372  -17.3138   23.4982 N   0  0  0  0  0  0  0  0  0  0  0  0
    8.9886  -16.7675   25.6332 C   0  0  0  0  0  0  0  0  0  0  0  0
   10.0278  -16.3124   25.0669 O   0  0  0  0  0  0  0  0  0  0  0  0
    7.4352  -12.2124   27.4619 C   0  0  0  0  0  0  0  0  0  0  0  0
    8.3292  -13.3017   26.9994 C   0  0  0  0  0  0  0  0  0  0  0  0
    9.0333  -14.0944   28.0683 C   0  0  2  0  0  0  0  0  0  0  0  0
    9.9236  -13.1410   28.8113 C   0  0  0  0  0  0  0  0  0  0  0  0
    9.6845  -15.3422   27.6166 C   0  0  2  0  0  0  0  0  0  0  0  0
    8.8130  -16.2764   26.9384 N   0  0  0  0  0  0  0  0  0  0  0  0
   10.4443  -16.0863   28.6202 C   0  0  0  0  0  0  0  0  0  0  0  0
   11.7659  -15.8660   28.9581 O   0  0  0  0  0  0  0  0  0  0  0  0
    9.8817  -17.0184   29.2553 O   0  0  0  0  0  0  0  0  0  0  0  0
  2  1  1  0
  3  2  2  0
  4  3  1  0
  5  4  2  0
  5 11  1  0
  6  5  1  0
  7  6  1  0
  7  9  1  0
  7  8  1  6
  9 10  2  0
 11 12  2  0
 12  2  1  0
 14 13  1  1
 14 15  1  0
 14 16  1  0
 16 17  1  6
 17  9  1  0
 18 16  1  0
 18 19  2  0
 20 21  1  0
 21 22  1  0
 22 23  1  6
 22 24  1  0
 24 25  1  1
 24 26  1  0
 25 18  1  0
 26 28  2  0
 26 27  1  0
M  END
$$$$
