YKS.pdb
     RDKit          3D

 28 28  0  0  1  0  0  0  0  0999 V2000
   27.2871  -16.7095  -15.8430 O   0  0  0  0  0  0  0  0  0  0  0  0
   26.6473  -15.4845  -16.0437 C   0  0  0  0  0  0  0  0  0  0  0  0
   25.9078  -14.9962  -14.9985 C   0  0  0  0  0  0  0  0  0  0  0  0
   25.2561  -13.8039  -15.1267 C   0  0  0  0  0  0  0  0  0  0  0  0
   25.3585  -13.1061  -16.3246 C   0  0  0  0  0  0  0  0  0  0  0  0
   24.6264  -11.8358  -16.4243 C   0  0  0  0  0  0  0  0  0  0  0  0
   23.1498  -12.0951  -16.5558 C   0  0  2  0  0  0  0  0  0  0  0  0
   22.9992  -12.8140  -17.8380 N   0  0  0  0  0  0  0  0  0  0  0  0
   22.4287  -10.8160  -16.5916 C   0  0  0  0  0  0  0  0  0  0  0  0
   22.4631  -10.0504  -17.5875 O   0  0  0  0  0  0  0  0  0  0  0  0
   26.0965  -13.5794  -17.3872 C   0  0  0  0  0  0  0  0  0  0  0  0
   26.7481  -14.7929  -17.2296 C   0  0  0  0  0  0  0  0  0  0  0  0
   21.6314  -10.3428  -15.4954 N   0  0  0  0  0  0  0  0  0  0  0  0
   20.8246   -9.1436  -15.5772 C   0  0  1  0  0  0  0  0  0  0  0  0
   19.5199   -9.4243  -14.8323 C   0  0  0  0  0  0  0  0  0  0  0  0
   18.5951  -10.2775  -15.6470 C   0  0  0  0  0  0  0  0  0  0  0  0
   17.3065  -10.4400  -14.8560 C   0  0  0  0  0  0  0  0  0  0  0  0
   16.2772  -11.2167  -15.6661 C   0  0  0  0  0  0  0  0  0  0  0  0
   15.0383  -11.2599  -14.9184 N   0  0  0  0  0  0  0  0  0  0  0  0
   21.5445   -8.0250  -14.9181 C   0  0  0  0  0  0  0  0  0  0  0  0
   22.2923   -8.2034  -13.9084 O   0  0  0  0  0  0  0  0  0  0  0  0
   23.8467   -4.0024  -15.0946 O   0  0  0  0  0  0  0  0  0  0  0  0
   23.2010   -5.0435  -15.7272 C   0  0  0  0  0  0  0  0  0  0  0  0
   22.1517   -5.6221  -14.8158 C   0  0  2  0  0  0  0  0  0  0  0  0
   21.4219   -6.7024  -15.3969 N   0  0  0  0  0  0  0  0  0  0  0  0
   21.2591   -4.5150  -14.3526 C   0  0  0  0  0  0  0  0  0  0  0  0
   19.9999   -4.4635  -14.9355 O   0  0  0  0  0  0  0  0  0  0  0  0
   21.5964   -3.6744  -13.4970 O   0  0  0  0  0  0  0  0  0  0  0  0
  2  1  1  0
  3  2  2  0
  4  3  1  0
  5 11  1  0
  5  4  2  0
  6  5  1  0
  7  6  1  0
  7  8  1  6
  9  7  1  0
  9 10  2  0
 11 12  2  0
 12  2  1  0
 13  9  1  0
 14 13  1  0
 14 15  1  1
 16 15  1  0
 16 17  1  0
 18 17  1  0
 19 18  1  0
 20 14  1  0
 21 20  2  0
 23 22  1  0
 24 23  1  6
 24 25  1  0
 25 20  1  0
 26 24  1  0
 27 26  1  0
 28 26  2  0
M  END
$$$$
