YKS.pdb
     RDKit          3D

 28 28  0  0  1  0  0  0  0  0999 V2000
   20.3239  -18.9485  -18.8546 O   0  0  0  0  0  0  0  0  0  0  0  0
   20.0091  -20.1370  -18.1924 C   0  0  0  0  0  0  0  0  0  0  0  0
   21.0590  -20.8602  -17.6900 C   0  0  0  0  0  0  0  0  0  0  0  0
   20.8228  -22.0319  -17.0312 C   0  0  0  0  0  0  0  0  0  0  0  0
   19.5114  -22.4687  -16.8836 C   0  0  0  0  0  0  0  0  0  0  0  0
   19.3051  -23.7439  -16.1831 C   0  0  0  0  0  0  0  0  0  0  0  0
   19.6803  -24.8952  -17.0768 C   0  0  2  0  0  0  0  0  0  0  0  0
   18.6020  -24.9656  -18.0847 N   0  0  0  0  0  0  0  0  0  0  0  0
   19.7322  -26.1324  -16.2868 C   0  0  0  0  0  0  0  0  0  0  0  0
   18.6994  -26.7766  -15.9745 O   0  0  0  0  0  0  0  0  0  0  0  0
   18.4419  -21.7569  -17.3811 C   0  0  0  0  0  0  0  0  0  0  0  0
   18.7107  -20.5704  -18.0458 C   0  0  0  0  0  0  0  0  0  0  0  0
   20.9626  -26.6997  -15.8118 N   0  0  0  0  0  0  0  0  0  0  0  0
   21.0146  -27.9414  -15.0694 C   0  0  1  0  0  0  0  0  0  0  0  0
   22.2624  -28.6930  -15.5316 C   0  0  0  0  0  0  0  0  0  0  0  0
   22.1532  -29.1078  -16.9679 C   0  0  0  0  0  0  0  0  0  0  0  0
   23.4213  -29.8687  -17.3222 C   0  0  0  0  0  0  0  0  0  0  0  0
   23.3937  -30.3017  -18.7819 C   0  0  0  0  0  0  0  0  0  0  0  0
   24.6040  -31.0436  -19.0663 N   0  0  0  0  0  0  0  0  0  0  0  0
   21.1226  -27.6392  -13.6199 C   0  0  0  0  0  0  0  0  0  0  0  0
   21.4227  -26.4835  -13.1903 O   0  0  0  0  0  0  0  0  0  0  0  0
   19.8651  -26.9925   -9.5731 O   0  0  0  0  0  0  0  0  0  0  0  0
   19.7967  -27.2934  -10.9169 C   0  0  0  0  0  0  0  0  0  0  0  0
   20.8251  -28.3385  -11.2586 C   0  0  2  0  0  0  0  0  0  0  0  0
   20.8922  -28.6410  -12.6519 N   0  0  0  0  0  0  0  0  0  0  0  0
   20.5676  -29.5521  -10.4234 C   0  0  0  0  0  0  0  0  0  0  0  0
   20.2764  -30.7188  -11.1177 O   0  0  0  0  0  0  0  0  0  0  0  0
   20.6049  -29.5483   -9.1780 O   0  0  0  0  0  0  0  0  0  0  0  0
  2  1  1  0
  3  2  2  0
  4  3  1  0
  5 11  1  0
  5  4  2  0
  6  5  1  0
  7  6  1  0
  7  8  1  6
  9  7  1  0
  9 10  2  0
 11 12  2  0
 12  2  1  0
 13  9  1  0
 14 13  1  0
 14 15  1  6
 16 15  1  0
 16 17  1  0
 18 17  1  0
 19 18  1  0
 20 14  1  0
 21 20  2  0
 23 22  1  0
 24 23  1  6
 24 25  1  0
 25 20  1  0
 26 24  1  0
 27 26  1  0
 28 26  2  0
M  END
$$$$
