YKS.pdb
     RDKit          3D

 28 28  0  0  1  0  0  0  0  0999 V2000
   21.4981  -19.4484  -14.4892 O   0  0  0  0  0  0  0  0  0  0  0  0
   21.6953  -18.0815  -14.6958 C   0  0  0  0  0  0  0  0  0  0  0  0
   20.5818  -17.3322  -14.9723 C   0  0  0  0  0  0  0  0  0  0  0  0
   20.7026  -15.9895  -15.1849 C   0  0  0  0  0  0  0  0  0  0  0  0
   21.9633  -15.4077  -15.1157 C   0  0  0  0  0  0  0  0  0  0  0  0
   22.0487  -13.9627  -15.3687 C   0  0  0  0  0  0  0  0  0  0  0  0
   21.7990  -13.6736  -16.8244 C   0  0  2  0  0  0  0  0  0  0  0  0
   22.9674  -14.2358  -17.5331 N   0  0  0  0  0  0  0  0  0  0  0  0
   21.7188  -12.2213  -17.0291 C   0  0  0  0  0  0  0  0  0  0  0  0
   22.7408  -11.4951  -17.1140 O   0  0  0  0  0  0  0  0  0  0  0  0
   23.0951  -16.1429  -14.8394 C   0  0  0  0  0  0  0  0  0  0  0  0
   22.9433  -17.5045  -14.6275 C   0  0  0  0  0  0  0  0  0  0  0  0
   20.4709  -11.5213  -17.1477 N   0  0  0  0  0  0  0  0  0  0  0  0
   20.3940  -10.1104  -17.4625 C   0  0  1  0  0  0  0  0  0  0  0  0
   19.2746   -9.9361  -18.4883 C   0  0  0  0  0  0  0  0  0  0  0  0
   19.0696   -8.4929  -18.8377 C   0  0  0  0  0  0  0  0  0  0  0  0
   17.9573   -8.4259  -19.8725 C   0  0  0  0  0  0  0  0  0  0  0  0
   17.6748   -6.9805  -20.2598 C   0  0  0  0  0  0  0  0  0  0  0  0
   16.4471   -6.9394  -21.0259 N   0  0  0  0  0  0  0  0  0  0  0  0
   20.0632   -9.3524  -16.2297 C   0  0  0  0  0  0  0  0  0  0  0  0
   19.2532   -9.7964  -15.3594 O   0  0  0  0  0  0  0  0  0  0  0  0
   22.5002   -6.4328  -14.5703 O   0  0  0  0  0  0  0  0  0  0  0  0
   21.5150   -7.1217  -13.8953 C   0  0  0  0  0  0  0  0  0  0  0  0
   20.3336   -7.3418  -14.8023 C   0  0  2  0  0  0  0  0  0  0  0  0
   20.6456   -8.0914  -15.9762 N   0  0  0  0  0  0  0  0  0  0  0  0
   19.7218   -6.0144  -15.1193 C   0  0  0  0  0  0  0  0  0  0  0  0
   19.2733   -5.2752  -14.0328 O   0  0  0  0  0  0  0  0  0  0  0  0
   19.6073   -5.5711  -16.2782 O   0  0  0  0  0  0  0  0  0  0  0  0
  2  1  1  0
  3  2  2  0
  4  3  1  0
  5 11  1  0
  5  4  2  0
  6  5  1  0
  7  6  1  0
  7  8  1  6
  9  7  1  0
  9 10  2  0
 11 12  2  0
 12  2  1  0
 13  9  1  0
 14 13  1  0
 14 15  1  6
 16 15  1  0
 16 17  1  0
 18 17  1  0
 19 18  1  0
 20 14  1  0
 21 20  2  0
 23 22  1  0
 24 23  1  6
 24 25  1  0
 25 20  1  0
 26 24  1  0
 27 26  1  0
 28 26  2  0
M  END
$$$$
