YKS.pdb
     RDKit          3D

 28 28  0  0  1  0  0  0  0  0999 V2000
   24.4991  -20.5164   -8.1568 O   0  0  0  0  0  0  0  0  0  0  0  0
   24.8446  -20.7849   -9.4830 C   0  0  0  0  0  0  0  0  0  0  0  0
   24.0315  -20.2571  -10.4514 C   0  0  0  0  0  0  0  0  0  0  0  0
   24.3110  -20.4805  -11.7685 C   0  0  0  0  0  0  0  0  0  0  0  0
   25.4238  -21.2448  -12.1003 C   0  0  0  0  0  0  0  0  0  0  0  0
   25.6766  -21.4743  -13.5296 C   0  0  0  0  0  0  0  0  0  0  0  0
   26.9648  -20.8149  -13.9427 C   0  0  2  0  0  0  0  0  0  0  0  0
   26.6602  -19.3695  -13.9831 N   0  0  0  0  0  0  0  0  0  0  0  0
   27.3586  -21.2984  -15.2726 C   0  0  0  0  0  0  0  0  0  0  0  0
   26.9044  -20.7997  -16.3329 O   0  0  0  0  0  0  0  0  0  0  0  0
   26.2538  -21.7844  -11.1423 C   0  0  0  0  0  0  0  0  0  0  0  0
   25.9463  -21.5417   -9.8124 C   0  0  0  0  0  0  0  0  0  0  0  0
   28.2895  -22.3745  -15.4637 N   0  0  0  0  0  0  0  0  0  0  0  0
   28.6286  -22.8904  -16.7731 C   0  0  1  0  0  0  0  0  0  0  0  0
   29.7815  -23.8762  -16.5864 C   0  0  0  0  0  0  0  0  0  0  0  0
   30.1795  -24.5083  -17.8860 C   0  0  0  0  0  0  0  0  0  0  0  0
   31.3461  -25.4417  -17.6026 C   0  0  0  0  0  0  0  0  0  0  0  0
   31.9869  -25.9055  -18.9038 C   0  0  0  0  0  0  0  0  0  0  0  0
   33.0614  -26.8229  -18.5879 N   0  0  0  0  0  0  0  0  0  0  0  0
   27.4528  -23.5992  -17.3379 C   0  0  0  0  0  0  0  0  0  0  0  0
   26.7152  -24.3541  -16.6333 O   0  0  0  0  0  0  0  0  0  0  0  0
   25.2473  -23.3238  -21.3653 O   0  0  0  0  0  0  0  0  0  0  0  0
   25.0498  -23.1749  -20.0090 C   0  0  0  0  0  0  0  0  0  0  0  0
   25.9627  -24.1052  -19.2554 C   0  0  2  0  0  0  0  0  0  0  0  0
   27.1069  -23.4578  -18.6995 N   0  0  0  0  0  0  0  0  0  0  0  0
   26.3315  -25.2428  -20.1535 C   0  0  0  0  0  0  0  0  0  0  0  0
   25.2900  -26.0752  -20.5413 O   0  0  0  0  0  0  0  0  0  0  0  0
   27.4942  -25.4569  -20.5471 O   0  0  0  0  0  0  0  0  0  0  0  0
  2  1  1  0
  3  2  2  0
  4  3  1  0
  5 11  1  0
  5  4  2  0
  6  5  1  0
  7  6  1  0
  7  8  1  6
  9  7  1  0
  9 10  2  0
 11 12  2  0
 12  2  1  0
 13  9  1  0
 14 13  1  0
 14 15  1  1
 16 15  1  0
 16 17  1  0
 18 17  1  0
 19 18  1  0
 20 14  1  0
 21 20  2  0
 23 22  1  0
 24 23  1  6
 24 25  1  0
 25 20  1  0
 26 24  1  0
 27 26  1  0
 28 26  2  0
M  END
$$$$
