YKS.pdb
     RDKit          3D

 28 28  0  0  1  0  0  0  0  0999 V2000
   30.2172  -15.3194  -19.1140 O   0  0  0  0  0  0  0  0  0  0  0  0
   29.3107  -16.2652  -18.6303 C   0  0  0  0  0  0  0  0  0  0  0  0
   28.7667  -16.0236  -17.3960 C   0  0  0  0  0  0  0  0  0  0  0  0
   27.8734  -16.9072  -16.8631 C   0  0  0  0  0  0  0  0  0  0  0  0
   27.5329  -18.0417  -17.5908 C   0  0  0  0  0  0  0  0  0  0  0  0
   26.5811  -18.9741  -16.9710 C   0  0  0  0  0  0  0  0  0  0  0  0
   27.2896  -19.8603  -15.9822 C   0  0  2  0  0  0  0  0  0  0  0  0
   28.0851  -20.7945  -16.8056 N   0  0  0  0  0  0  0  0  0  0  0  0
   26.2990  -20.5911  -15.1810 C   0  0  0  0  0  0  0  0  0  0  0  0
   25.6826  -21.5936  -15.6217 O   0  0  0  0  0  0  0  0  0  0  0  0
   28.0682  -18.3032  -18.8329 C   0  0  0  0  0  0  0  0  0  0  0  0
   28.9729  -17.3889  -19.3502 C   0  0  0  0  0  0  0  0  0  0  0  0
   25.9591  -20.2180  -13.8369 N   0  0  0  0  0  0  0  0  0  0  0  0
   24.9590  -20.9203  -13.0609 C   0  0  1  0  0  0  0  0  0  0  0  0
   25.1991  -20.5720  -11.5922 C   0  0  0  0  0  0  0  0  0  0  0  0
   24.1462  -21.1680  -10.7072 C   0  0  0  0  0  0  0  0  0  0  0  0
   24.4447  -20.7299   -9.2819 C   0  0  0  0  0  0  0  0  0  0  0  0
   23.3692  -21.2379   -8.3310 C   0  0  0  0  0  0  0  0  0  0  0  0
   23.6623  -20.7503   -6.9998 N   0  0  0  0  0  0  0  0  0  0  0  0
   23.6094  -20.4559  -13.4693 C   0  0  0  0  0  0  0  0  0  0  0  0
   23.3388  -19.2275  -13.6377 O   0  0  0  0  0  0  0  0  0  0  0  0
   19.3798  -21.3893  -15.4576 O   0  0  0  0  0  0  0  0  0  0  0  0
   20.5918  -21.9077  -15.0537 C   0  0  0  0  0  0  0  0  0  0  0  0
   21.2631  -20.9534  -14.1022 C   0  0  2  0  0  0  0  0  0  0  0  0
   22.5619  -21.3770  -13.6887 N   0  0  0  0  0  0  0  0  0  0  0  0
   20.3474  -20.7105  -12.9450 C   0  0  0  0  0  0  0  0  0  0  0  0
   19.4595  -19.6518  -13.0825 O   0  0  0  0  0  0  0  0  0  0  0  0
   20.3566  -21.3991  -11.9066 O   0  0  0  0  0  0  0  0  0  0  0  0
  2  1  1  0
  3  2  2  0
  4  3  1  0
  5 11  1  0
  5  4  2  0
  6  5  1  0
  7  6  1  0
  7  8  1  6
  9  7  1  0
  9 10  2  0
 11 12  2  0
 12  2  1  0
 13  9  1  0
 14 13  1  0
 14 15  1  1
 16 15  1  0
 16 17  1  0
 18 17  1  0
 19 18  1  0
 20 14  1  0
 21 20  2  0
 23 22  1  0
 24 23  1  6
 24 25  1  0
 25 20  1  0
 26 24  1  0
 27 26  1  0
 28 26  2  0
M  END
$$$$
