YKS.pdb
     RDKit          3D

 28 28  0  0  1  0  0  0  0  0999 V2000
   28.9276  -33.6532   -3.3085 O   0  0  0  0  0  0  0  0  0  0  0  0
   29.8534  -34.0804   -4.2628 C   0  0  0  0  0  0  0  0  0  0  0  0
   29.6771  -35.3399   -4.7728 C   0  0  0  0  0  0  0  0  0  0  0  0
   30.5455  -35.8208   -5.7095 C   0  0  0  0  0  0  0  0  0  0  0  0
   31.5980  -35.0149   -6.1282 C   0  0  0  0  0  0  0  0  0  0  0  0
   32.5183  -35.5798   -7.1249 C   0  0  0  0  0  0  0  0  0  0  0  0
   33.9159  -35.6367   -6.5695 C   0  0  2  0  0  0  0  0  0  0  0  0
   34.7237  -36.2767   -7.6284 N   0  0  0  0  0  0  0  0  0  0  0  0
   33.9251  -36.4515   -5.3475 C   0  0  0  0  0  0  0  0  0  0  0  0
   33.7746  -37.6989   -5.3679 O   0  0  0  0  0  0  0  0  0  0  0  0
   31.7930  -33.7462   -5.6281 C   0  0  0  0  0  0  0  0  0  0  0  0
   30.8959  -33.2831   -4.6780 C   0  0  0  0  0  0  0  0  0  0  0  0
   34.1060  -35.8880   -4.0394 N   0  0  0  0  0  0  0  0  0  0  0  0
   34.1397  -36.6962   -2.8389 C   0  0  1  0  0  0  0  0  0  0  0  0
   35.2551  -36.1432   -1.9524 C   0  0  0  0  0  0  0  0  0  0  0  0
   35.5220  -37.0406   -0.7817 C   0  0  0  0  0  0  0  0  0  0  0  0
   36.7264  -36.4807   -0.0411 C   0  0  0  0  0  0  0  0  0  0  0  0
   37.1311  -37.4074    1.0975 C   0  0  0  0  0  0  0  0  0  0  0  0
   38.3679  -36.9207    1.6715 N   0  0  0  0  0  0  0  0  0  0  0  0
   32.8382  -36.5787   -2.1345 C   0  0  0  0  0  0  0  0  0  0  0  0
   32.1828  -35.4925   -2.1011 O   0  0  0  0  0  0  0  0  0  0  0  0
   29.1043  -38.9020   -0.9854 O   0  0  0  0  0  0  0  0  0  0  0  0
   30.3873  -38.9106   -0.4808 C   0  0  0  0  0  0  0  0  0  0  0  0
   31.0474  -37.5831   -0.7427 C   0  0  2  0  0  0  0  0  0  0  0  0
   32.2735  -37.6868   -1.4660 N   0  0  0  0  0  0  0  0  0  0  0  0
   31.2128  -36.8673    0.5600 C   0  0  0  0  0  0  0  0  0  0  0  0
   30.2781  -35.8779    0.8344 O   0  0  0  0  0  0  0  0  0  0  0  0
   32.1240  -37.1209    1.3711 O   0  0  0  0  0  0  0  0  0  0  0  0
  2  1  1  0
  3  2  2  0
  4  3  1  0
  5 11  1  0
  5  4  2  0
  6  5  1  0
  7  6  1  0
  7  8  1  6
  9  7  1  0
  9 10  2  0
 11 12  2  0
 12  2  1  0
 13  9  1  0
 14 13  1  0
 14 15  1  1
 16 15  1  0
 16 17  1  0
 18 17  1  0
 19 18  1  0
 20 14  1  0
 21 20  2  0
 23 22  1  0
 24 23  1  1
 24 25  1  0
 25 20  1  0
 26 24  1  0
 27 26  1  0
 28 26  2  0
M  END
$$$$
