YKS.pdb
     RDKit          3D

 28 28  0  0  1  0  0  0  0  0999 V2000
   21.4050  -20.1870   -7.9914 O   0  0  0  0  0  0  0  0  0  0  0  0
   22.3617  -20.2265   -9.0079 C   0  0  0  0  0  0  0  0  0  0  0  0
   23.6256  -19.8092   -8.6822 C   0  0  0  0  0  0  0  0  0  0  0  0
   24.6095  -19.8217   -9.6279 C   0  0  0  0  0  0  0  0  0  0  0  0
   24.3045  -20.2614  -10.9110 C   0  0  0  0  0  0  0  0  0  0  0  0
   25.3899  -20.2414  -11.9014 C   0  0  0  0  0  0  0  0  0  0  0  0
   25.7648  -21.6458  -12.2911 C   0  0  2  0  0  0  0  0  0  0  0  0
   26.5159  -22.1772  -11.1349 N   0  0  0  0  0  0  0  0  0  0  0  0
   26.6140  -21.6121  -13.4891 C   0  0  0  0  0  0  0  0  0  0  0  0
   27.7314  -21.0374  -13.5072 O   0  0  0  0  0  0  0  0  0  0  0  0
   23.0406  -20.6848  -11.2590 C   0  0  0  0  0  0  0  0  0  0  0  0
   22.0605  -20.6616  -10.2787 C   0  0  0  0  0  0  0  0  0  0  0  0
   26.2348  -22.2309  -14.7278 N   0  0  0  0  0  0  0  0  0  0  0  0
   27.1469  -22.3677  -15.8436 C   0  0  1  0  0  0  0  0  0  0  0  0
   27.0378  -23.8080  -16.3432 C   0  0  0  0  0  0  0  0  0  0  0  0
   27.9904  -24.0721  -17.4700 C   0  0  0  0  0  0  0  0  0  0  0  0
   27.7663  -25.5031  -17.9330 C   0  0  0  0  0  0  0  0  0  0  0  0
   29.0971  -26.1882  -18.2132 C   0  0  0  0  0  0  0  0  0  0  0  0
   29.8485  -25.3734  -19.1446 N   0  0  0  0  0  0  0  0  0  0  0  0
   26.7409  -21.4332  -16.9233 C   0  0  0  0  0  0  0  0  0  0  0  0
   25.5253  -21.2511  -17.2388 O   0  0  0  0  0  0  0  0  0  0  0  0
   29.5808  -19.1487  -19.0540 O   0  0  0  0  0  0  0  0  0  0  0  0
   28.3262  -18.6308  -18.8121 C   0  0  0  0  0  0  0  0  0  0  0  0
   27.3347  -19.7517  -18.6476 C   0  0  2  0  0  0  0  0  0  0  0  0
   27.7062  -20.7021  -17.6496 N   0  0  0  0  0  0  0  0  0  0  0  0
   27.1064  -20.3865  -19.9824 C   0  0  0  0  0  0  0  0  0  0  0  0
   26.6190  -19.5512  -20.9788 O   0  0  0  0  0  0  0  0  0  0  0  0
   27.3306  -21.5894  -20.2172 O   0  0  0  0  0  0  0  0  0  0  0  0
  2  1  1  0
  3  2  2  0
  4  3  1  0
  5 11  1  0
  5  4  2  0
  6  5  1  0
  7  6  1  0
  7  8  1  1
  9  7  1  0
  9 10  2  0
 11 12  2  0
 12  2  1  0
 13  9  1  0
 14 13  1  0
 14 15  1  6
 16 15  1  0
 16 17  1  0
 18 17  1  0
 19 18  1  0
 20 14  1  0
 21 20  2  0
 23 22  1  0
 24 23  1  6
 24 25  1  0
 25 20  1  0
 26 24  1  0
 27 26  1  0
 28 26  2  0
M  END
$$$$
