LCS.pdb
     RDKit          3D

 21 20  0  0  1  0  0  0  0  0999 V2000
   30.4478  -22.8193  -19.5144 C   0  0  0  0  0  0  0  0  0  0  0  0
   31.0687  -23.7106  -18.4651 C   0  0  2  0  0  0  0  0  0  0  0  0
   32.0951  -24.6300  -19.0936 C   0  0  0  0  0  0  0  0  0  0  0  0
   30.0115  -24.5953  -17.8214 C   0  0  0  0  0  0  0  0  0  0  0  0
   28.9415  -23.7746  -17.1338 C   0  0  2  0  0  0  0  0  0  0  0  0
   29.4817  -22.9098  -16.1241 N   0  0  0  0  0  0  0  0  0  0  0  0
   27.9507  -24.7516  -16.5861 C   0  0  0  0  0  0  0  0  0  0  0  0
   28.4269  -25.6432  -15.8266 O   0  0  0  0  0  0  0  0  0  0  0  0
   26.5696  -24.7068  -16.8795 N   0  0  0  0  0  0  0  0  0  0  0  0
   25.6967  -25.6564  -16.1778 C   0  0  1  0  0  0  0  0  0  0  0  0
   24.5011  -24.8421  -15.6638 C   0  0  0  0  0  0  0  0  0  0  0  0
   24.8915  -23.8248  -14.2516 S   0  0  0  0  0  0  0  0  0  0  0  0
   25.2259  -26.7051  -17.0900 C   0  0  0  0  0  0  0  0  0  0  0  0
   25.3747  -26.5162  -18.3463 O   0  0  0  0  0  0  0  0  0  0  0  0
   25.6130  -30.5742  -19.0209 O   0  0  0  0  0  0  0  0  0  0  0  0
   25.7194  -29.4508  -18.2051 C   0  0  0  0  0  0  0  0  0  0  0  0
   24.3688  -28.9932  -17.7042 C   0  0  2  0  0  0  0  0  0  0  0  0
   24.6159  -27.9251  -16.7288 N   0  0  0  0  0  0  0  0  0  0  0  0
   23.6485  -30.0863  -17.0053 C   0  0  0  0  0  0  0  0  0  0  0  0
   22.9218  -31.0320  -17.7133 O   0  0  0  0  0  0  0  0  0  0  0  0
   23.6691  -30.1966  -15.7526 O   0  0  0  0  0  0  0  0  0  0  0  0
  2  1  1  6
  2  4  1  0
  2  3  1  0
  5  4  1  0
  5  6  1  1
  7  5  1  0
  7  9  1  0
  8  7  2  0
 10  9  1  0
 10 13  1  0
 10 11  1  6
 12 11  1  0
 13 14  2  0
 13 18  1  0
 16 15  1  0
 17 16  1  1
 18 17  1  0
 19 17  1  0
 19 20  1  0
 21 19  2  0
M  END
$$$$
