LCS.pdb
     RDKit          3D

 21 20  0  0  1  0  0  0  0  0999 V2000
   24.8586  -13.6461  -14.7376 C   0  0  0  0  0  0  0  0  0  0  0  0
   24.2528  -14.0733  -16.0535 C   0  0  2  0  0  0  0  0  0  0  0  0
   25.3411  -14.3715  -17.0636 C   0  0  0  0  0  0  0  0  0  0  0  0
   23.3970  -12.9581  -16.6353 C   0  0  0  0  0  0  0  0  0  0  0  0
   22.3100  -12.5299  -15.6728 C   0  0  2  0  0  0  0  0  0  0  0  0
   21.2895  -13.5277  -15.5232 N   0  0  0  0  0  0  0  0  0  0  0  0
   21.7765  -11.2331  -16.1924 C   0  0  0  0  0  0  0  0  0  0  0  0
   21.4263  -11.2354  -17.4072 O   0  0  0  0  0  0  0  0  0  0  0  0
   21.6599  -10.0674  -15.4031 N   0  0  0  0  0  0  0  0  0  0  0  0
   21.0293   -8.8928  -16.0186 C   0  0  1  0  0  0  0  0  0  0  0  0
   19.5241   -9.1904  -16.0697 C   0  0  0  0  0  0  0  0  0  0  0  0
   18.5361   -7.7720  -16.5100 S   0  0  0  0  0  0  0  0  0  0  0  0
   21.2691   -7.6895  -15.2135 C   0  0  0  0  0  0  0  0  0  0  0  0
   21.2642   -7.8109  -13.9403 O   0  0  0  0  0  0  0  0  0  0  0  0
   24.1156   -5.1131  -15.4224 O   0  0  0  0  0  0  0  0  0  0  0  0
   22.8925   -4.4481  -15.4514 C   0  0  0  0  0  0  0  0  0  0  0  0
   21.7980   -5.2614  -14.7994 C   0  0  2  0  0  0  0  0  0  0  0  0
   21.5110   -6.3862  -15.6971 N   0  0  0  0  0  0  0  0  0  0  0  0
   20.5500   -4.4728  -14.6490 C   0  0  0  0  0  0  0  0  0  0  0  0
   20.3238   -3.6986  -13.5206 O   0  0  0  0  0  0  0  0  0  0  0  0
   19.6552   -4.4760  -15.5328 O   0  0  0  0  0  0  0  0  0  0  0  0
  2  1  1  1
  2  4  1  0
  2  3  1  0
  5  4  1  0
  5  6  1  6
  7  5  1  0
  7  9  1  0
  8  7  2  0
 10  9  1  0
 10 13  1  0
 10 11  1  1
 12 11  1  0
 13 14  2  0
 13 18  1  0
 16 15  1  0
 17 16  1  6
 18 17  1  0
 19 17  1  0
 19 20  1  0
 21 19  2  0
M  END
$$$$
