LCS.pdb
     RDKit          3D

 21 20  0  0  1  0  0  0  0  0999 V2000
   21.2645  -26.1057  -11.2006 C   0  0  0  0  0  0  0  0  0  0  0  0
   19.8939  -26.4924  -11.7034 C   0  0  2  0  0  0  0  0  0  0  0  0
   20.0075  -27.2879  -12.9871 C   0  0  0  0  0  0  0  0  0  0  0  0
   19.0702  -25.2525  -12.0179 C   0  0  0  0  0  0  0  0  0  0  0  0
   19.0771  -24.2717  -10.8649 C   0  0  2  0  0  0  0  0  0  0  0  0
   18.1046  -24.6013   -9.8625 N   0  0  0  0  0  0  0  0  0  0  0  0
   18.8529  -22.9196  -11.4630 C   0  0  0  0  0  0  0  0  0  0  0  0
   17.6987  -22.7181  -11.9381 O   0  0  0  0  0  0  0  0  0  0  0  0
   19.8447  -21.9146  -11.5087 N   0  0  0  0  0  0  0  0  0  0  0  0
   19.4734  -20.6228  -12.0997 C   0  0  1  0  0  0  0  0  0  0  0  0
   20.1488  -19.5463  -11.2385 C   0  0  0  0  0  0  0  0  0  0  0  0
   21.2377  -20.2149   -9.9938 S   0  0  0  0  0  0  0  0  0  0  0  0
   19.9540  -20.5239  -13.4827 C   0  0  0  0  0  0  0  0  0  0  0  0
   21.1982  -20.7261  -13.6996 O   0  0  0  0  0  0  0  0  0  0  0  0
   19.2555  -22.5404  -16.4265 O   0  0  0  0  0  0  0  0  0  0  0  0
   18.9541  -21.2291  -16.7851 C   0  0  0  0  0  0  0  0  0  0  0  0
   19.7507  -20.2308  -15.9767 C   0  0  2  0  0  0  0  0  0  0  0  0
   19.1805  -20.2260  -14.6246 N   0  0  0  0  0  0  0  0  0  0  0  0
   19.6222  -18.8586  -16.5268 C   0  0  0  0  0  0  0  0  0  0  0  0
   20.0568  -18.5578  -17.8091 O   0  0  0  0  0  0  0  0  0  0  0  0
   19.1179  -17.9219  -15.8561 O   0  0  0  0  0  0  0  0  0  0  0  0
  2  1  1  6
  2  4  1  0
  2  3  1  0
  5  4  1  0
  5  6  1  1
  7  5  1  0
  7  9  1  0
  8  7  2  0
 10  9  1  0
 10 13  1  0
 10 11  1  1
 12 11  1  0
 13 14  2  0
 13 18  1  0
 16 15  1  0
 17 16  1  6
 18 17  1  0
 19 17  1  0
 19 20  1  0
 21 19  2  0
M  END
$$$$
