LCS.pdb
     RDKit          3D

 21 20  0  0  1  0  0  0  0  0999 V2000
   20.2257  -11.5652  -21.2286 C   0  0  0  0  0  0  0  0  0  0  0  0
   19.0024  -11.5812  -20.3431 C   0  0  2  0  0  0  0  0  0  0  0  0
   17.8867  -10.7709  -20.9694 C   0  0  0  0  0  0  0  0  0  0  0  0
   19.3104  -10.9490  -18.9940 C   0  0  0  0  0  0  0  0  0  0  0  0
   20.4989  -11.6086  -18.3278 C   0  0  2  0  0  0  0  0  0  0  0  0
   20.1997  -12.9340  -17.8664 N   0  0  0  0  0  0  0  0  0  0  0  0
   20.9205  -10.6946  -17.2219 C   0  0  0  0  0  0  0  0  0  0  0  0
   20.0000  -10.3292  -16.4359 O   0  0  0  0  0  0  0  0  0  0  0  0
   22.2500  -10.2523  -17.0418 N   0  0  0  0  0  0  0  0  0  0  0  0
   22.5324   -9.4149  -15.8692 C   0  0  1  0  0  0  0  0  0  0  0  0
   23.9691   -9.7456  -15.4411 C   0  0  0  0  0  0  0  0  0  0  0  0
   24.1022  -11.2704  -14.5249 S   0  0  0  0  0  0  0  0  0  0  0  0
   22.4322   -7.9907  -16.2083 C   0  0  0  0  0  0  0  0  0  0  0  0
   22.7708   -7.6315  -17.3883 O   0  0  0  0  0  0  0  0  0  0  0  0
   20.1966   -4.1658  -16.8754 O   0  0  0  0  0  0  0  0  0  0  0  0
   20.4875   -5.4705  -16.4854 C   0  0  0  0  0  0  0  0  0  0  0  0
   21.8469   -5.5693  -15.8322 C   0  0  2  0  0  0  0  0  0  0  0  0
   21.9935   -6.9512  -15.3610 N   0  0  0  0  0  0  0  0  0  0  0  0
   21.9501   -4.6756  -14.6522 C   0  0  0  0  0  0  0  0  0  0  0  0
   22.1594   -3.3127  -14.8023 O   0  0  0  0  0  0  0  0  0  0  0  0
   21.8524   -5.1163  -13.4783 O   0  0  0  0  0  0  0  0  0  0  0  0
  2  1  1  6
  2  4  1  0
  2  3  1  0
  5  4  1  0
  5  6  1  1
  7  5  1  0
  7  9  1  0
  8  7  2  0
 10  9  1  0
 10 13  1  0
 10 11  1  6
 12 11  1  0
 13 14  2  0
 13 18  1  0
 16 15  1  0
 17 16  1  1
 18 17  1  0
 19 17  1  0
 19 20  1  0
 21 19  2  0
M  END
$$$$
