LCS.pdb
     RDKit          3D

 21 20  0  0  1  0  0  0  0  0999 V2000
   20.8127  -12.7948  -18.3776 C   0  0  0  0  0  0  0  0  0  0  0  0
   20.9652  -13.4575  -17.0290 C   0  0  2  0  0  0  0  0  0  0  0  0
   19.7733  -14.3461  -16.7397 C   0  0  0  0  0  0  0  0  0  0  0  0
   21.0226  -12.4136  -15.9236 C   0  0  0  0  0  0  0  0  0  0  0  0
   22.1377  -11.4166  -16.1562 C   0  0  2  0  0  0  0  0  0  0  0  0
   23.4164  -11.9227  -15.7464 N   0  0  0  0  0  0  0  0  0  0  0  0
   21.7480  -10.1729  -15.4229 C   0  0  0  0  0  0  0  0  0  0  0  0
   21.5172  -10.3177  -14.1883 O   0  0  0  0  0  0  0  0  0  0  0  0
   21.6368   -8.9075  -16.0410 N   0  0  0  0  0  0  0  0  0  0  0  0
   21.2249   -7.7766  -15.1999 C   0  0  1  0  0  0  0  0  0  0  0  0
   22.4895   -6.9425  -14.9517 C   0  0  0  0  0  0  0  0  0  0  0  0
   23.4574   -6.6678  -16.4247 S   0  0  0  0  0  0  0  0  0  0  0  0
   20.2176   -6.9572  -15.8837 C   0  0  0  0  0  0  0  0  0  0  0  0
   20.3829   -6.7228  -17.1302 O   0  0  0  0  0  0  0  0  0  0  0  0
   16.4542   -6.7687  -14.8002 O   0  0  0  0  0  0  0  0  0  0  0  0
   16.7985   -6.3509  -16.0831 C   0  0  0  0  0  0  0  0  0  0  0  0
   18.1079   -5.5961  -16.0932 C   0  0  2  0  0  0  0  0  0  0  0  0
   19.0619   -6.3879  -15.3082 N   0  0  0  0  0  0  0  0  0  0  0  0
   17.9766   -4.2695  -15.4414 C   0  0  0  0  0  0  0  0  0  0  0  0
   18.6887   -3.9633  -14.2912 O   0  0  0  0  0  0  0  0  0  0  0  0
   17.2197   -3.3777  -15.9035 O   0  0  0  0  0  0  0  0  0  0  0  0
  2  1  1  6
  2  4  1  0
  2  3  1  0
  5  4  1  0
  5  6  1  1
  7  5  1  0
  7  9  1  0
  8  7  2  0
 10  9  1  0
 10 13  1  0
 10 11  1  6
 12 11  1  0
 13 14  2  0
 13 18  1  0
 16 15  1  0
 17 16  1  1
 18 17  1  0
 19 17  1  0
 19 20  1  0
 21 19  2  0
M  END
$$$$
