LCS.pdb
     RDKit          3D

 21 20  0  0  1  0  0  0  0  0999 V2000
   18.4727  -12.1256  -17.9216 C   0  0  0  0  0  0  0  0  0  0  0  0
   18.8043  -12.3274  -16.4621 C   0  0  2  0  0  0  0  0  0  0  0  0
   17.6660  -13.0330  -15.7548 C   0  0  0  0  0  0  0  0  0  0  0  0
   18.9993  -10.9877  -15.7677 C   0  0  0  0  0  0  0  0  0  0  0  0
   20.1051  -10.1809  -16.4140 C   0  0  2  0  0  0  0  0  0  0  0  0
   21.3790  -10.8359  -16.3299 N   0  0  0  0  0  0  0  0  0  0  0  0
   20.0980   -8.8454  -15.7413 C   0  0  0  0  0  0  0  0  0  0  0  0
   18.9569   -8.3309  -15.5629 O   0  0  0  0  0  0  0  0  0  0  0  0
   21.2708   -8.1788  -15.3221 N   0  0  0  0  0  0  0  0  0  0  0  0
   21.1162   -6.8459  -14.7258 C   0  0  1  0  0  0  0  0  0  0  0  0
   22.3225   -6.6480  -13.7972 C   0  0  0  0  0  0  0  0  0  0  0  0
   22.4729   -4.9826  -13.1763 S   0  0  0  0  0  0  0  0  0  0  0  0
   21.1137   -5.8073  -15.7625 C   0  0  0  0  0  0  0  0  0  0  0  0
   22.0294   -5.8502  -16.6545 O   0  0  0  0  0  0  0  0  0  0  0  0
   17.9289   -3.4404  -16.5980 O   0  0  0  0  0  0  0  0  0  0  0  0
   18.8999   -3.6453  -17.5748 C   0  0  0  0  0  0  0  0  0  0  0  0
   20.2820   -3.7610  -16.9741 C   0  0  2  0  0  0  0  0  0  0  0  0
   20.1938   -4.7448  -15.8890 N   0  0  0  0  0  0  0  0  0  0  0  0
   20.7283   -2.4748  -16.3836 C   0  0  0  0  0  0  0  0  0  0  0  0
   21.0154   -1.3802  -17.1854 O   0  0  0  0  0  0  0  0  0  0  0  0
   20.8625   -2.3288  -15.1416 O   0  0  0  0  0  0  0  0  0  0  0  0
  2  1  1  6
  2  4  1  0
  2  3  1  0
  5  4  1  0
  5  6  1  1
  7  5  1  0
  7  9  1  0
  8  7  2  0
 10  9  1  0
 10 13  1  0
 10 11  1  1
 12 11  1  0
 13 14  2  0
 13 18  1  0
 16 15  1  0
 17 16  1  1
 18 17  1  0
 19 17  1  0
 19 20  1  0
 21 19  2  0
M  END
$$$$
