TKG.pdb
     RDKit          3D

 21 20  0  0  1  0  0  0  0  0999 V2000
   28.0505  -10.3049  -16.1378 C   0  0  0  0  0  0  0  0  0  0  0  0
   28.0174  -11.1469  -17.3885 C   0  0  1  0  0  0  0  0  0  0  0  0
   29.1805  -11.9013  -17.5141 O   0  0  0  0  0  0  0  0  0  0  0  0
   26.7854  -12.0267  -17.3377 C   0  0  2  0  0  0  0  0  0  0  0  0
   26.7635  -12.9815  -18.4167 N   0  0  0  0  0  0  0  0  0  0  0  0
   25.5924  -11.1772  -17.4491 C   0  0  0  0  0  0  0  0  0  0  0  0
   25.3010  -10.5668  -18.5123 O   0  0  0  0  0  0  0  0  0  0  0  0
   24.6745  -10.9829  -16.3540 N   0  0  0  0  0  0  0  0  0  0  0  0
   23.5199  -10.1151  -16.4728 C   0  0  1  0  0  0  0  0  0  0  0  0
   22.2340  -10.8505  -16.1800 C   0  0  0  0  0  0  0  0  0  0  0  0
   21.9651  -11.9780  -17.1192 C   0  0  0  0  0  0  0  0  0  0  0  0
   20.6573  -12.6203  -16.7233 C   0  0  0  0  0  0  0  0  0  0  0  0
   20.2868  -13.7778  -17.6030 C   0  0  0  0  0  0  0  0  0  0  0  0
   19.1133  -14.4090  -17.0254 N   0  0  0  0  0  0  0  0  0  0  0  0
   23.6672   -8.9049  -15.6077 C   0  0  0  0  0  0  0  0  0  0  0  0
   24.0888   -8.9679  -14.4239 O   0  0  0  0  0  0  0  0  0  0  0  0
   23.3305   -7.6147  -16.0990 N   0  0  0  0  0  0  0  0  0  0  0  0
   23.4722   -6.4542  -15.2524 C   0  0  0  0  0  0  0  0  0  0  0  0
   22.2465   -6.1425  -14.4987 C   0  0  0  0  0  0  0  0  0  0  0  0
   21.2346   -6.8512  -14.6379 O   0  0  0  0  0  0  0  0  0  0  0  0
   22.2213   -5.0694  -13.6425 O   0  0  0  0  0  0  0  0  0  0  0  0
  2  1  1  1
  3  2  1  0
  4  5  1  6
  4  2  1  0
  6  4  1  0
  7  6  2  0
  8  6  1  0
  9 10  1  1
  9  8  1  0
 10 11  1  0
 11 12  1  0
 12 13  1  0
 13 14  1  0
 15  9  1  0
 16 15  2  0
 17 15  1  0
 18 17  1  0
 19 21  1  0
 19 18  1  0
 20 19  2  0
M  END
$$$$
