TKG.pdb
     RDKit          3D

 21 20  0  0  1  0  0  0  0  0999 V2000
   26.3595  -10.4750  -14.7015 C   0  0  0  0  0  0  0  0  0  0  0  0
   26.7250  -10.6173  -16.1577 C   0  0  1  0  0  0  0  0  0  0  0  0
   27.9250  -11.3067  -16.3069 O   0  0  0  0  0  0  0  0  0  0  0  0
   25.5866  -11.3203  -16.8678 C   0  0  2  0  0  0  0  0  0  0  0  0
   25.8986  -11.5854  -18.2493 N   0  0  0  0  0  0  0  0  0  0  0  0
   24.3964  -10.4609  -16.8203 C   0  0  0  0  0  0  0  0  0  0  0  0
   24.2203   -9.5142  -17.6332 O   0  0  0  0  0  0  0  0  0  0  0  0
   23.3502  -10.6393  -15.8441 N   0  0  0  0  0  0  0  0  0  0  0  0
   22.1889   -9.7733  -15.8054 C   0  0  1  0  0  0  0  0  0  0  0  0
   20.9133  -10.5556  -15.6027 C   0  0  0  0  0  0  0  0  0  0  0  0
   19.6860   -9.7075  -15.6140 C   0  0  0  0  0  0  0  0  0  0  0  0
   18.4834  -10.6166  -15.5300 C   0  0  0  0  0  0  0  0  0  0  0  0
   17.1837   -9.8677  -15.5575 C   0  0  0  0  0  0  0  0  0  0  0  0
   16.1136  -10.8487  -15.5966 N   0  0  0  0  0  0  0  0  0  0  0  0
   22.3482   -8.7083  -14.7684 C   0  0  0  0  0  0  0  0  0  0  0  0
   22.6448   -8.9678  -13.5735 O   0  0  0  0  0  0  0  0  0  0  0  0
   22.1673   -7.3383  -15.0996 N   0  0  0  0  0  0  0  0  0  0  0  0
   22.3316   -6.3185  -14.0913 C   0  0  0  0  0  0  0  0  0  0  0  0
   22.0680   -4.9625  -14.6006 C   0  0  0  0  0  0  0  0  0  0  0  0
   21.7571   -4.7962  -15.7927 O   0  0  0  0  0  0  0  0  0  0  0  0
   22.1656   -3.8821  -13.7589 O   0  0  0  0  0  0  0  0  0  0  0  0
  2  1  1  1
  3  2  1  0
  4  5  1  6
  4  2  1  0
  6  4  1  0
  7  6  2  0
  8  6  1  0
  9 10  1  1
  9  8  1  0
 10 11  1  0
 11 12  1  0
 12 13  1  0
 13 14  1  0
 15  9  1  0
 16 15  2  0
 17 15  1  0
 18 17  1  0
 19 21  1  0
 19 18  1  0
 20 19  2  0
M  END
$$$$
