TKG.pdb
     RDKit          3D

 21 20  0  0  1  0  0  0  0  0999 V2000
   17.2590  -11.9234  -15.2911 C   0  0  0  0  0  0  0  0  0  0  0  0
   15.9962  -12.7475  -15.2673 C   0  0  1  0  0  0  0  0  0  0  0  0
   16.2216  -14.0224  -15.7787 O   0  0  0  0  0  0  0  0  0  0  0  0
   15.4895  -12.8011  -13.8408 C   0  0  2  0  0  0  0  0  0  0  0  0
   14.3348  -13.6535  -13.7137 N   0  0  0  0  0  0  0  0  0  0  0  0
   15.1103  -11.4452  -13.4221 C   0  0  0  0  0  0  0  0  0  0  0  0
   14.0814  -10.8694  -13.8668 O   0  0  0  0  0  0  0  0  0  0  0  0
   15.8857  -10.6809  -12.4766 N   0  0  0  0  0  0  0  0  0  0  0  0
   15.5564   -9.3065  -12.1560 C   0  0  1  0  0  0  0  0  0  0  0  0
   14.8880   -9.1907  -10.8069 C   0  0  0  0  0  0  0  0  0  0  0  0
   13.4550   -9.6052  -10.8143 C   0  0  0  0  0  0  0  0  0  0  0  0
   12.9530   -9.5937   -9.3903 C   0  0  0  0  0  0  0  0  0  0  0  0
   11.4860   -9.8902   -9.2872 C   0  0  0  0  0  0  0  0  0  0  0  0
   11.1193   -9.8051   -7.8845 N   0  0  0  0  0  0  0  0  0  0  0  0
   16.7647   -8.4308  -12.2449 C   0  0  0  0  0  0  0  0  0  0  0  0
   17.7628   -8.5782  -11.4931 O   0  0  0  0  0  0  0  0  0  0  0  0
   16.8323   -7.3801  -13.1992 N   0  0  0  0  0  0  0  0  0  0  0  0
   18.0102   -6.5499  -13.2848 C   0  0  0  0  0  0  0  0  0  0  0  0
   18.0253   -5.7002  -14.4870 C   0  0  0  0  0  0  0  0  0  0  0  0
   18.9259   -4.8572  -14.6406 O   0  0  0  0  0  0  0  0  0  0  0  0
   17.0447   -5.8391  -15.4381 O   0  0  0  0  0  0  0  0  0  0  0  0
  2  1  1  1
  3  2  1  0
  4  5  1  6
  4  2  1  0
  6  4  1  0
  7  6  2  0
  8  6  1  0
  9 10  1  1
  9  8  1  0
 10 11  1  0
 11 12  1  0
 12 13  1  0
 13 14  1  0
 15  9  1  0
 16 15  2  0
 17 15  1  0
 18 17  1  0
 19 21  1  0
 19 18  1  0
 20 19  2  0
M  END
$$$$
