TKG.pdb
     RDKit          3D

 21 20  0  0  1  0  0  0  0  0999 V2000
   16.7860  -17.6224  -19.3827 C   0  0  0  0  0  0  0  0  0  0  0  0
   16.0047  -18.1932  -18.2259 C   0  0  1  0  0  0  0  0  0  0  0  0
   15.0329  -19.0850  -18.6707 O   0  0  0  0  0  0  0  0  0  0  0  0
   16.9788  -18.8588  -17.2759 C   0  0  2  0  0  0  0  0  0  0  0  0
   16.3023  -19.5026  -16.1786 N   0  0  0  0  0  0  0  0  0  0  0  0
   17.8784  -17.8357  -16.7269 C   0  0  0  0  0  0  0  0  0  0  0  0
   17.5130  -17.0371  -15.8232 O   0  0  0  0  0  0  0  0  0  0  0  0
   19.2372  -17.6740  -17.1816 N   0  0  0  0  0  0  0  0  0  0  0  0
   20.0928  -16.6238  -16.6666 C   0  0  1  0  0  0  0  0  0  0  0  0
   21.5359  -17.0622  -16.5940 C   0  0  0  0  0  0  0  0  0  0  0  0
   21.7429  -18.2996  -15.7868 C   0  0  0  0  0  0  0  0  0  0  0  0
   23.2050  -18.6699  -15.8571 C   0  0  0  0  0  0  0  0  0  0  0  0
   23.5356  -19.8930  -15.0537 C   0  0  0  0  0  0  0  0  0  0  0  0
   24.9701  -20.1014  -15.1432 N   0  0  0  0  0  0  0  0  0  0  0  0
   19.9417  -15.3690  -17.4652 C   0  0  0  0  0  0  0  0  0  0  0  0
   19.9075  -15.3687  -18.7229 O   0  0  0  0  0  0  0  0  0  0  0  0
   19.8291  -14.1070  -16.8218 N   0  0  0  0  0  0  0  0  0  0  0  0
   19.6264  -12.9089  -17.6009 C   0  0  0  0  0  0  0  0  0  0  0  0
   18.2029  -12.5926  -17.8044 C   0  0  0  0  0  0  0  0  0  0  0  0
   17.3273  -13.3360  -17.3289 O   0  0  0  0  0  0  0  0  0  0  0  0
   17.8431  -11.4769  -18.5192 O   0  0  0  0  0  0  0  0  0  0  0  0
  2  1  1  6
  3  2  1  0
  4  5  1  1
  4  2  1  0
  6  4  1  0
  7  6  2  0
  8  6  1  0
  9 10  1  6
  9  8  1  0
 10 11  1  0
 11 12  1  0
 12 13  1  0
 13 14  1  0
 15  9  1  0
 16 15  2  0
 17 15  1  0
 18 17  1  0
 19 21  1  0
 19 18  1  0
 20 19  2  0
M  END
$$$$
