TKG.pdb
     RDKit          3D

 21 20  0  0  1  0  0  0  0  0999 V2000
   30.3351   -8.8024  -17.4447 C   0  0  0  0  0  0  0  0  0  0  0  0
   31.5657   -8.8974  -18.3113 C   0  0  1  0  0  0  0  0  0  0  0  0
   32.6387   -8.2268  -17.7310 O   0  0  0  0  0  0  0  0  0  0  0  0
   31.8791  -10.3625  -18.5342 C   0  0  2  0  0  0  0  0  0  0  0  0
   33.0748  -10.5418  -19.3181 N   0  0  0  0  0  0  0  0  0  0  0  0
   30.7585  -10.9820  -19.2538 C   0  0  0  0  0  0  0  0  0  0  0  0
   30.6419  -10.9057  -20.5062 O   0  0  0  0  0  0  0  0  0  0  0  0
   29.7173  -11.7179  -18.5804 N   0  0  0  0  0  0  0  0  0  0  0  0
   28.5845  -12.2656  -19.2995 C   0  0  1  0  0  0  0  0  0  0  0  0
   28.2440  -13.6599  -18.8302 C   0  0  0  0  0  0  0  0  0  0  0  0
   27.1644  -14.3102  -19.6283 C   0  0  0  0  0  0  0  0  0  0  0  0
   26.9880  -15.7216  -19.1217 C   0  0  0  0  0  0  0  0  0  0  0  0
   25.9515  -16.4901  -19.8872 C   0  0  0  0  0  0  0  0  0  0  0  0
   25.8678  -17.8163  -19.3010 N   0  0  0  0  0  0  0  0  0  0  0  0
   27.4022  -11.3548  -19.2116 C   0  0  0  0  0  0  0  0  0  0  0  0
   27.0566  -10.7981  -18.1375 O   0  0  0  0  0  0  0  0  0  0  0  0
   26.6103  -11.0790  -20.3588 N   0  0  0  0  0  0  0  0  0  0  0  0
   25.4735  -10.1946  -20.2623 C   0  0  0  0  0  0  0  0  0  0  0  0
   24.2395  -10.8905  -19.8616 C   0  0  0  0  0  0  0  0  0  0  0  0
   24.2489  -12.1214  -19.6878 O   0  0  0  0  0  0  0  0  0  0  0  0
   23.0787  -10.1798  -19.6800 O   0  0  0  0  0  0  0  0  0  0  0  0
  2  1  1  1
  3  2  1  0
  4  5  1  6
  4  2  1  0
  6  4  1  0
  7  6  2  0
  8  6  1  0
  9 10  1  1
  9  8  1  0
 10 11  1  0
 11 12  1  0
 12 13  1  0
 13 14  1  0
 15  9  1  0
 16 15  2  0
 17 15  1  0
 18 17  1  0
 19 21  1  0
 19 18  1  0
 20 19  2  0
M  END
$$$$
