TKG.pdb
     RDKit          3D

 21 20  0  0  1  0  0  0  0  0999 V2000
   27.1636  -16.4113  -16.0695 C   0  0  0  0  0  0  0  0  0  0  0  0
   27.4913  -17.3403  -17.2114 C   0  0  1  0  0  0  0  0  0  0  0  0
   28.3191  -16.7173  -18.1410 O   0  0  0  0  0  0  0  0  0  0  0  0
   28.1339  -18.5877  -16.6409 C   0  0  2  0  0  0  0  0  0  0  0  0
   28.6006  -19.4726  -17.6779 N   0  0  0  0  0  0  0  0  0  0  0  0
   27.1386  -19.3063  -15.8345 C   0  0  0  0  0  0  0  0  0  0  0  0
   26.3392  -20.1382  -16.3415 O   0  0  0  0  0  0  0  0  0  0  0  0
   27.0067  -19.1112  -14.4119 N   0  0  0  0  0  0  0  0  0  0  0  0
   25.9728  -19.7763  -13.6445 C   0  0  1  0  0  0  0  0  0  0  0  0
   26.3017  -19.8083  -12.1711 C   0  0  0  0  0  0  0  0  0  0  0  0
   25.2710  -20.5019  -11.3453 C   0  0  0  0  0  0  0  0  0  0  0  0
   25.7044  -20.4405   -9.9003 C   0  0  0  0  0  0  0  0  0  0  0  0
   24.7378  -21.1161   -8.9729 C   0  0  0  0  0  0  0  0  0  0  0  0
   25.2857  -21.0303   -7.6306 N   0  0  0  0  0  0  0  0  0  0  0  0
   24.6363  -19.1543  -13.8933 C   0  0  0  0  0  0  0  0  0  0  0  0
   24.4359  -17.9170  -13.7833 O   0  0  0  0  0  0  0  0  0  0  0  0
   23.5222  -19.9518  -14.2701 N   0  0  0  0  0  0  0  0  0  0  0  0
   22.2402  -19.3379  -14.5220 C   0  0  0  0  0  0  0  0  0  0  0  0
   21.2058  -20.3112  -14.9092 C   0  0  0  0  0  0  0  0  0  0  0  0
   21.5027  -21.5100  -15.0511 O   0  0  0  0  0  0  0  0  0  0  0  0
   19.9134  -19.8947  -15.1135 O   0  0  0  0  0  0  0  0  0  0  0  0
  2  1  1  1
  3  2  1  0
  4  5  1  6
  4  2  1  0
  6  4  1  0
  7  6  2  0
  8  6  1  0
  9 10  1  1
  9  8  1  0
 10 11  1  0
 11 12  1  0
 12 13  1  0
 13 14  1  0
 15  9  1  0
 16 15  2  0
 17 15  1  0
 18 17  1  0
 19 21  1  0
 19 18  1  0
 20 19  2  0
M  END
$$$$
