TKG.pdb
     RDKit          3D

 21 20  0  0  1  0  0  0  0  0999 V2000
   28.0356  -10.3512  -15.5070 C   0  0  0  0  0  0  0  0  0  0  0  0
   26.6363  -10.0993  -16.0100 C   0  0  1  0  0  0  0  0  0  0  0  0
   26.5112   -8.8077  -16.5138 O   0  0  0  0  0  0  0  0  0  0  0  0
   26.3135  -11.1411  -17.0612 C   0  0  2  0  0  0  0  0  0  0  0  0
   27.1419  -10.9966  -18.2313 N   0  0  0  0  0  0  0  0  0  0  0  0
   24.9105  -10.9851  -17.4669 C   0  0  0  0  0  0  0  0  0  0  0  0
   24.5861  -10.5533  -18.6055 O   0  0  0  0  0  0  0  0  0  0  0  0
   23.8104  -11.3136  -16.5945 N   0  0  0  0  0  0  0  0  0  0  0  0
   22.4324  -11.1803  -17.0231 C   0  0  1  0  0  0  0  0  0  0  0  0
   21.6895  -12.4920  -16.9363 C   0  0  0  0  0  0  0  0  0  0  0  0
   21.4427  -13.1261  -18.2639 C   0  0  0  0  0  0  0  0  0  0  0  0
   20.6801  -14.4097  -18.0394 C   0  0  0  0  0  0  0  0  0  0  0  0
   20.5137  -15.2157  -19.2938 C   0  0  0  0  0  0  0  0  0  0  0  0
   19.7711  -16.4151  -18.9487 N   0  0  0  0  0  0  0  0  0  0  0  0
   21.7339  -10.1041  -16.2558 C   0  0  0  0  0  0  0  0  0  0  0  0
   20.5159   -9.8367  -16.4234 O   0  0  0  0  0  0  0  0  0  0  0  0
   22.4322   -9.3288  -15.2911 N   0  0  0  0  0  0  0  0  0  0  0  0
   21.7447   -8.2979  -14.5507 C   0  0  0  0  0  0  0  0  0  0  0  0
   21.8257   -6.9779  -15.1977 C   0  0  0  0  0  0  0  0  0  0  0  0
   22.2519   -6.8817  -16.3615 O   0  0  0  0  0  0  0  0  0  0  0  0
   21.4305   -5.8537  -14.5156 O   0  0  0  0  0  0  0  0  0  0  0  0
  2  1  1  6
  3  2  1  0
  4  5  1  6
  4  2  1  0
  6  4  1  0
  7  6  2  0
  8  6  1  0
  9 10  1  1
  9  8  1  0
 10 11  1  0
 11 12  1  0
 12 13  1  0
 13 14  1  0
 15  9  1  0
 16 15  2  0
 17 15  1  0
 18 17  1  0
 19 21  1  0
 19 18  1  0
 20 19  2  0
M  END
$$$$
