PVR.pdb
     RDKit          3D

 26 26  0  0  1  0  0  0  0  0999 V2000
    6.4526  -14.5730   21.2521 N   0  0  0  0  0  0  0  0  0  0  0  0
    5.8817  -14.0271   20.0582 C   0  0  0  0  0  0  0  0  0  0  0  0
    6.8874  -13.0684   19.4587 C   0  0  0  0  0  0  0  0  0  0  0  0
    7.9244  -12.9303   20.5228 C   0  0  0  0  0  0  0  0  0  0  0  0
    7.8597  -14.3083   21.1985 C   0  0  1  0  0  0  0  0  0  0  0  0
    8.4937  -14.2274   22.5515 C   0  0  0  0  0  0  0  0  0  0  0  0
    9.7320  -14.1481   22.7261 O   0  0  0  0  0  0  0  0  0  0  0  0
    7.6364  -12.8895   27.1308 C   0  0  0  0  0  0  0  0  0  0  0  0
    7.0693  -13.1462   25.7522 C   0  0  1  0  0  0  0  0  0  0  0  0
    6.9328  -11.8249   25.0471 C   0  0  0  0  0  0  0  0  0  0  0  0
    8.0564  -14.0614   25.0329 C   0  0  2  0  0  0  0  0  0  0  0  0
    7.6596  -14.2424   23.6693 N   0  0  0  0  0  0  0  0  0  0  0  0
    8.2275  -15.3330   25.7639 C   0  0  0  0  0  0  0  0  0  0  0  0
    7.1788  -15.8973   26.1979 O   0  0  0  0  0  0  0  0  0  0  0  0
   13.0512  -17.1600   22.0006 N   0  0  0  0  0  0  0  0  0  0  0  0
   12.0828  -18.0921   21.5134 C   0  0  0  0  0  0  0  0  0  0  0  0
   11.8329  -18.1708   20.2548 N   0  0  0  0  0  0  0  0  0  0  0  0
   11.3763  -18.9562   22.3782 N   0  0  0  0  0  0  0  0  0  0  0  0
   11.5046  -18.9768   23.8064 C   0  0  0  0  0  0  0  0  0  0  0  0
   10.5012  -18.1683   24.5575 C   0  0  0  0  0  0  0  0  0  0  0  0
   10.6864  -18.0764   26.0399 C   0  0  0  0  0  0  0  0  0  0  0  0
    9.6481  -17.2333   26.6845 C   0  0  2  0  0  0  0  0  0  0  0  0
    9.4774  -15.9487   26.0070 N   0  0  0  0  0  0  0  0  0  0  0  0
    9.9752  -17.0168   28.1170 C   0  0  0  0  0  0  0  0  0  0  0  0
   10.0009  -18.1152   28.9571 O   0  0  0  0  0  0  0  0  0  0  0  0
   10.2252  -15.9023   28.5914 O   0  0  0  0  0  0  0  0  0  0  0  0
  1  5  1  0
  1  2  1  0
  2  3  1  0
  4  3  1  0
  5  4  1  0
  6  7  2  0
  5  6  1  1
  9 11  1  0
  9  8  1  1
 10  9  1  0
 11 12  1  6
 12  6  1  0
 13 11  1  0
 14 13  2  0
 16 17  2  0
 16 15  1  0
 18 16  1  0
 19 18  1  0
 20 19  1  0
 20 21  1  0
 22 21  1  6
 22 23  1  0
 23 13  1  0
 24 25  1  0
 24 22  1  0
 26 24  2  0
M  END
$$$$
