PVR.pdb
     RDKit          3D

 26 26  0  0  1  0  0  0  0  0999 V2000
    6.5815  -14.2368   20.8391 N   0  0  0  0  0  0  0  0  0  0  0  0
    6.1436  -13.6419   19.6129 C   0  0  0  0  0  0  0  0  0  0  0  0
    7.1746  -12.6136   19.2013 C   0  0  0  0  0  0  0  0  0  0  0  0
    8.0612  -12.5016   20.3963 C   0  0  0  0  0  0  0  0  0  0  0  0
    7.9712  -13.9188   20.9822 C   0  0  1  0  0  0  0  0  0  0  0  0
    8.4242  -13.8956   22.4081 C   0  0  0  0  0  0  0  0  0  0  0  0
    9.6299  -13.8416   22.7449 O   0  0  0  0  0  0  0  0  0  0  0  0
    7.0705  -12.8569   26.9425 C   0  0  0  0  0  0  0  0  0  0  0  0
    6.6742  -12.9571   25.4861 C   0  0  1  0  0  0  0  0  0  0  0  0
    6.7324  -11.5786   24.8877 C   0  0  0  0  0  0  0  0  0  0  0  0
    7.6766  -13.8956   24.8200 C   0  0  2  0  0  0  0  0  0  0  0  0
    7.4514  -13.9374   23.4068 N   0  0  0  0  0  0  0  0  0  0  0  0
    7.6538  -15.2293   25.4536 C   0  0  0  0  0  0  0  0  0  0  0  0
    6.6521  -15.9677   25.2132 O   0  0  0  0  0  0  0  0  0  0  0  0
   14.6549  -18.5961   23.5637 N   0  0  0  0  0  0  0  0  0  0  0  0
   13.8054  -19.6824   23.1860 C   0  0  0  0  0  0  0  0  0  0  0  0
   14.3053  -20.8384   22.9280 N   0  0  0  0  0  0  0  0  0  0  0  0
   12.4044  -19.5364   23.0885 N   0  0  0  0  0  0  0  0  0  0  0  0
   11.6887  -18.3098   23.2885 C   0  0  0  0  0  0  0  0  0  0  0  0
   10.9596  -18.1905   24.5841 C   0  0  0  0  0  0  0  0  0  0  0  0
   10.1556  -16.9449   24.7902 C   0  0  0  0  0  0  0  0  0  0  0  0
    9.4100  -16.9636   26.0739 C   0  0  2  0  0  0  0  0  0  0  0  0
    8.6703  -15.7233   26.3040 N   0  0  0  0  0  0  0  0  0  0  0  0
   10.3365  -17.2240   27.2052 C   0  0  0  0  0  0  0  0  0  0  0  0
   10.4758  -18.5254   27.6525 O   0  0  0  0  0  0  0  0  0  0  0  0
   10.9875  -16.3329   27.7635 O   0  0  0  0  0  0  0  0  0  0  0  0
  1  5  1  0
  1  2  1  0
  2  3  1  0
  4  3  1  0
  5  4  1  0
  6  7  2  0
  5  6  1  1
  9 11  1  0
  9  8  1  1
 10  9  1  0
 11 12  1  6
 12  6  1  0
 13 11  1  0
 14 13  2  0
 16 17  2  0
 16 15  1  0
 18 16  1  0
 19 18  1  0
 20 19  1  0
 20 21  1  0
 22 21  1  6
 22 23  1  0
 23 13  1  0
 24 25  1  0
 24 22  1  0
 26 24  2  0
M  END
$$$$
