PVR.pdb
     RDKit          3D

 26 26  0  0  1  0  0  0  0  0999 V2000
    6.8805  -14.1905   20.8212 N   0  0  0  0  0  0  0  0  0  0  0  0
    6.4655  -13.5975   19.5862 C   0  0  0  0  0  0  0  0  0  0  0  0
    7.4656  -12.5193   19.2294 C   0  0  0  0  0  0  0  0  0  0  0  0
    8.2985  -12.3862   20.4605 C   0  0  0  0  0  0  0  0  0  0  0  0
    8.2480  -13.8144   21.0240 C   0  0  1  0  0  0  0  0  0  0  0  0
    8.6430  -13.7923   22.4671 C   0  0  0  0  0  0  0  0  0  0  0  0
    9.8351  -13.7814   22.8528 O   0  0  0  0  0  0  0  0  0  0  0  0
    6.9165  -12.8205   26.9447 C   0  0  0  0  0  0  0  0  0  0  0  0
    6.6155  -12.9566   25.4686 C   0  0  1  0  0  0  0  0  0  0  0  0
    6.4638  -11.5764   24.8909 C   0  0  0  0  0  0  0  0  0  0  0  0
    7.7965  -13.6945   24.8441 C   0  0  2  0  0  0  0  0  0  0  0  0
    7.6292  -13.7844   23.4251 N   0  0  0  0  0  0  0  0  0  0  0  0
    8.0024  -15.0059   25.4910 C   0  0  0  0  0  0  0  0  0  0  0  0
    7.0069  -15.7887   25.5432 O   0  0  0  0  0  0  0  0  0  0  0  0
   11.2680  -21.0093   26.4665 N   0  0  0  0  0  0  0  0  0  0  0  0
   12.0069  -21.4250   25.3152 C   0  0  0  0  0  0  0  0  0  0  0  0
   12.5692  -22.5808   25.2869 N   0  0  0  0  0  0  0  0  0  0  0  0
   12.1426  -20.6009   24.1768 N   0  0  0  0  0  0  0  0  0  0  0  0
   11.9148  -19.1852   24.1536 C   0  0  0  0  0  0  0  0  0  0  0  0
   11.0244  -18.6559   25.2266 C   0  0  0  0  0  0  0  0  0  0  0  0
   10.5880  -17.2302   25.0949 C   0  0  0  0  0  0  0  0  0  0  0  0
    9.6423  -16.8308   26.1674 C   0  0  2  0  0  0  0  0  0  0  0  0
    9.2292  -15.4329   26.0506 N   0  0  0  0  0  0  0  0  0  0  0  0
   10.2431  -17.0768   27.5033 C   0  0  0  0  0  0  0  0  0  0  0  0
   10.3881  -18.3857   27.9261 O   0  0  0  0  0  0  0  0  0  0  0  0
   10.6189  -16.1673   28.2524 O   0  0  0  0  0  0  0  0  0  0  0  0
  1  5  1  0
  1  2  1  0
  2  3  1  0
  4  3  1  0
  5  4  1  0
  6  7  2  0
  5  6  1  1
  9 11  1  0
  9  8  1  1
 10  9  1  0
 11 12  1  6
 12  6  1  0
 13 11  1  0
 14 13  2  0
 16 17  2  0
 16 15  1  0
 18 16  1  0
 19 18  1  0
 20 19  1  0
 20 21  1  0
 22 21  1  6
 22 23  1  0
 23 13  1  0
 24 25  1  0
 24 22  1  0
 26 24  2  0
M  END
$$$$
