PVR.pdb
     RDKit          3D

 26 26  0  0  1  0  0  0  0  0999 V2000
    6.9868  -14.6023   21.0170 N   0  0  0  0  0  0  0  0  0  0  0  0
    6.5193  -14.1569   19.7394 C   0  0  0  0  0  0  0  0  0  0  0  0
    7.4342  -13.0462   19.2713 C   0  0  0  0  0  0  0  0  0  0  0  0
    8.2650  -12.7405   20.4726 C   0  0  0  0  0  0  0  0  0  0  0  0
    8.3245  -14.1107   21.1644 C   0  0  1  0  0  0  0  0  0  0  0  0
    8.7284  -13.9275   22.5936 C   0  0  0  0  0  0  0  0  0  0  0  0
    9.9229  -13.8771   22.9686 O   0  0  0  0  0  0  0  0  0  0  0  0
    6.9376  -12.6844   27.0075 C   0  0  0  0  0  0  0  0  0  0  0  0
    6.6403  -12.9575   25.5498 C   0  0  1  0  0  0  0  0  0  0  0  0
    6.3106  -11.6496   24.8846 C   0  0  0  0  0  0  0  0  0  0  0  0
    7.8978  -13.5838   24.9532 C   0  0  2  0  0  0  0  0  0  0  0  0
    7.7207  -13.8087   23.5505 N   0  0  0  0  0  0  0  0  0  0  0  0
    8.2850  -14.8008   25.6944 C   0  0  0  0  0  0  0  0  0  0  0  0
    7.4021  -15.6994   25.8342 O   0  0  0  0  0  0  0  0  0  0  0  0
   14.7957  -20.7845   27.1582 N   0  0  0  0  0  0  0  0  0  0  0  0
   13.8420  -21.0079   26.1167 C   0  0  0  0  0  0  0  0  0  0  0  0
   13.7615  -22.1568   25.5454 N   0  0  0  0  0  0  0  0  0  0  0  0
   12.9582  -19.9958   25.6831 N   0  0  0  0  0  0  0  0  0  0  0  0
   13.0122  -18.6234   26.0960 C   0  0  0  0  0  0  0  0  0  0  0  0
   11.7532  -18.0725   26.6756 C   0  0  0  0  0  0  0  0  0  0  0  0
   11.2806  -16.7609   26.1309 C   0  0  0  0  0  0  0  0  0  0  0  0
   10.0296  -16.2995   26.7840 C   0  0  2  0  0  0  0  0  0  0  0  0
    9.5663  -15.0184   26.2525 N   0  0  0  0  0  0  0  0  0  0  0  0
   10.2193  -16.2050   28.2540 C   0  0  0  0  0  0  0  0  0  0  0  0
   10.3667  -17.3773   28.9729 O   0  0  0  0  0  0  0  0  0  0  0  0
   10.2518  -15.1289   28.8627 O   0  0  0  0  0  0  0  0  0  0  0  0
  1  5  1  0
  1  2  1  0
  2  3  1  0
  4  3  1  0
  5  4  1  0
  6  7  2  0
  5  6  1  1
  9 11  1  0
  9  8  1  1
 10  9  1  0
 11 12  1  6
 12  6  1  0
 13 11  1  0
 14 13  2  0
 16 17  2  0
 16 15  1  0
 18 16  1  0
 19 18  1  0
 20 19  1  0
 20 21  1  0
 22 21  1  6
 22 23  1  0
 23 13  1  0
 24 25  1  0
 24 22  1  0
 26 24  2  0
M  END
$$$$
