PVR.pdb
     RDKit          3D

 26 26  0  0  1  0  0  0  0  0999 V2000
    7.0213  -14.9499   21.0668 N   0  0  0  0  0  0  0  0  0  0  0  0
    6.5299  -14.4991   19.8000 C   0  0  0  0  0  0  0  0  0  0  0  0
    7.4159  -13.3637   19.3354 C   0  0  0  0  0  0  0  0  0  0  0  0
    8.2537  -13.0550   20.5310 C   0  0  0  0  0  0  0  0  0  0  0  0
    8.3500  -14.4319   21.2053 C   0  0  1  0  0  0  0  0  0  0  0  0
    8.7662  -14.2574   22.6319 C   0  0  0  0  0  0  0  0  0  0  0  0
    9.9613  -14.1371   22.9889 O   0  0  0  0  0  0  0  0  0  0  0  0
    7.1926  -12.8313   26.9957 C   0  0  0  0  0  0  0  0  0  0  0  0
    6.7948  -13.2265   25.5908 C   0  0  1  0  0  0  0  0  0  0  0  0
    6.5498  -11.9704   24.8011 C   0  0  0  0  0  0  0  0  0  0  0  0
    7.9570  -14.0294   25.0130 C   0  0  2  0  0  0  0  0  0  0  0  0
    7.7699  -14.2289   23.6076 N   0  0  0  0  0  0  0  0  0  0  0  0
    8.1527  -15.2884   25.7595 C   0  0  0  0  0  0  0  0  0  0  0  0
    7.1120  -15.9105   26.1290 O   0  0  0  0  0  0  0  0  0  0  0  0
   13.6153  -16.6499   22.7595 N   0  0  0  0  0  0  0  0  0  0  0  0
   12.8510  -17.6830   22.1327 C   0  0  0  0  0  0  0  0  0  0  0  0
   12.8056  -17.7705   20.8509 N   0  0  0  0  0  0  0  0  0  0  0  0
   12.1312  -18.6391   22.8819 N   0  0  0  0  0  0  0  0  0  0  0  0
   12.0277  -18.6560   24.3122 C   0  0  0  0  0  0  0  0  0  0  0  0
   10.8963  -17.8730   24.8879 C   0  0  0  0  0  0  0  0  0  0  0  0
   10.8010  -17.8291   26.3810 C   0  0  0  0  0  0  0  0  0  0  0  0
    9.6162  -17.0646   26.8459 C   0  0  2  0  0  0  0  0  0  0  0  0
    9.4173  -15.8323   26.0841 N   0  0  0  0  0  0  0  0  0  0  0  0
    9.7360  -16.7571   28.2940 C   0  0  0  0  0  0  0  0  0  0  0  0
    9.6425  -17.8014   29.1960 O   0  0  0  0  0  0  0  0  0  0  0  0
    9.9154  -15.6132   28.7287 O   0  0  0  0  0  0  0  0  0  0  0  0
  1  5  1  0
  1  2  1  0
  2  3  1  0
  4  3  1  0
  5  4  1  0
  6  7  2  0
  5  6  1  1
  9 11  1  0
  9  8  1  1
 10  9  1  0
 11 12  1  6
 12  6  1  0
 13 11  1  0
 14 13  2  0
 16 17  2  0
 16 15  1  0
 18 16  1  0
 19 18  1  0
 20 19  1  0
 20 21  1  0
 22 21  1  6
 22 23  1  0
 23 13  1  0
 24 25  1  0
 24 22  1  0
 26 24  2  0
M  END
$$$$
