PVR.pdb
     RDKit          3D

 26 26  0  0  1  0  0  0  0  0999 V2000
    7.8354  -16.4691   16.0106 N   0  0  0  0  0  0  0  0  0  0  0  0
    7.2512  -16.4436   14.7040 C   0  0  0  0  0  0  0  0  0  0  0  0
    7.9639  -15.3801   13.8971 C   0  0  0  0  0  0  0  0  0  0  0  0
    8.7881  -14.6584   14.9104 C   0  0  0  0  0  0  0  0  0  0  0  0
    9.0868  -15.7771   15.9199 C   0  0  1  0  0  0  0  0  0  0  0  0
    9.5180  -15.1712   17.2183 C   0  0  0  0  0  0  0  0  0  0  0  0
   10.7080  -14.8760   17.4768 O   0  0  0  0  0  0  0  0  0  0  0  0
    7.8908  -13.1769   21.4012 C   0  0  0  0  0  0  0  0  0  0  0  0
    7.6019  -13.5826   19.9729 C   0  0  1  0  0  0  0  0  0  0  0  0
    7.5067  -12.3339   19.1401 C   0  0  0  0  0  0  0  0  0  0  0  0
    8.7625  -14.4651   19.5220 C   0  0  2  0  0  0  0  0  0  0  0  0
    8.5424  -14.9264   18.1846 N   0  0  0  0  0  0  0  0  0  0  0  0
    8.9995  -15.5596   20.4845 C   0  0  0  0  0  0  0  0  0  0  0  0
    8.0804  -16.4221   20.6186 O   0  0  0  0  0  0  0  0  0  0  0  0
   15.4474  -17.0965   19.0198 N   0  0  0  0  0  0  0  0  0  0  0  0
   14.4581  -17.5719   18.1035 C   0  0  0  0  0  0  0  0  0  0  0  0
   14.5732  -17.3379   16.8446 N   0  0  0  0  0  0  0  0  0  0  0  0
   13.3352  -18.3118   18.5338 N   0  0  0  0  0  0  0  0  0  0  0  0
   13.0533  -18.6630   19.8954 C   0  0  0  0  0  0  0  0  0  0  0  0
   12.3799  -17.6096   20.7087 C   0  0  0  0  0  0  0  0  0  0  0  0
   11.0682  -17.9762   21.3294 C   0  0  0  0  0  0  0  0  0  0  0  0
   10.4788  -16.8534   22.1015 C   0  0  2  0  0  0  0  0  0  0  0  0
   10.1759  -15.6984   21.2573 N   0  0  0  0  0  0  0  0  0  0  0  0
   11.3867  -16.4548   23.2073 C   0  0  0  0  0  0  0  0  0  0  0  0
   11.8335  -15.1465   23.2495 O   0  0  0  0  0  0  0  0  0  0  0  0
   11.7598  -17.2369   24.0896 O   0  0  0  0  0  0  0  0  0  0  0  0
  1  5  1  0
  1  2  1  0
  2  3  1  0
  4  3  1  0
  5  4  1  0
  6  7  2  0
  5  6  1  1
  9 11  1  0
  9  8  1  1
 10  9  1  0
 11 12  1  6
 12  6  1  0
 13 11  1  0
 14 13  2  0
 16 17  2  0
 16 15  1  0
 18 16  1  0
 19 18  1  0
 20 19  1  0
 20 21  1  0
 22 21  1  6
 22 23  1  0
 23 13  1  0
 24 25  1  0
 24 22  1  0
 26 24  2  0
M  END
$$$$
