KCR.pdb
     RDKit          3D

 27 26  0  0  1  0  0  0  0  0999 V2000
   28.8220  -21.8572  -14.9947 N   0  0  0  0  0  0  0  0  0  0  0  0
   28.1944  -20.7906  -14.2945 C   0  0  1  0  0  0  0  0  0  0  0  0
   27.9775  -19.5756  -15.1054 C   0  0  0  0  0  0  0  0  0  0  0  0
   28.6260  -19.5054  -16.4487 C   0  0  0  0  0  0  0  0  0  0  0  0
   28.3477  -18.2182  -17.1282 C   0  0  0  0  0  0  0  0  0  0  0  0
   29.0515  -18.1100  -18.4758 C   0  0  0  0  0  0  0  0  0  0  0  0
   28.7557  -16.8864  -19.1562 N   0  0  0  0  0  0  0  0  0  0  0  0
   26.8494  -21.2696  -13.8036 C   0  0  0  0  0  0  0  0  0  0  0  0
   25.9484  -21.6405  -14.5931 O   0  0  0  0  0  0  0  0  0  0  0  0
   26.5653  -21.3123  -12.4203 N   0  0  0  0  0  0  0  0  0  0  0  0
   25.3062  -21.7410  -11.8454 C   0  0  1  0  0  0  0  0  0  0  0  0
   25.4284  -21.6536  -10.3420 C   0  0  0  0  0  0  0  0  0  0  0  0
   26.0686  -20.0012   -9.9157 S   0  0  0  0  0  0  0  0  0  0  0  0
   24.2630  -20.7911  -12.3606 C   0  0  0  0  0  0  0  0  0  0  0  0
   24.5579  -19.6678  -12.8541 O   0  0  0  0  0  0  0  0  0  0  0  0
   20.3871  -22.7985  -17.2114 N   0  0  0  0  0  0  0  0  0  0  0  0
   20.0057  -21.6526  -17.9701 C   0  0  0  0  0  0  0  0  0  0  0  0
   19.0207  -21.7459  -18.7757 N   0  0  0  0  0  0  0  0  0  0  0  0
   20.7035  -20.4157  -17.8418 N   0  0  0  0  0  0  0  0  0  0  0  0
   21.7978  -20.2863  -16.9183 C   0  0  0  0  0  0  0  0  0  0  0  0
   21.3145  -20.0229  -15.5254 C   0  0  0  0  0  0  0  0  0  0  0  0
   22.2690  -20.5935  -14.5364 C   0  0  0  0  0  0  0  0  0  0  0  0
   21.9188  -20.3358  -13.0891 C   0  0  2  0  0  0  0  0  0  0  0  0
   22.8818  -21.1153  -12.3173 N   0  0  0  0  0  0  0  0  0  0  0  0
   20.5478  -20.7696  -12.7845 C   0  0  0  0  0  0  0  0  0  0  0  0
   20.2644  -21.8540  -12.2240 O   0  0  0  0  0  0  0  0  0  0  0  0
   19.4804  -19.9533  -13.1237 O   0  0  0  0  0  0  0  0  0  0  0  0
  2  3  1  0
  2  1  1  6
  4  5  1  0
  4  3  1  0
  5  6  1  0
  6  7  1  0
  8  9  2  0
  8  2  1  0
 10  8  1  0
 11 10  1  0
 11 12  1  1
 13 12  1  0
 14 15  2  0
 14 11  1  0
 17 16  1  0
 18 17  2  0
 19 17  1  0
 20 19  1  0
 21 20  1  0
 21 22  1  0
 23 22  1  6
 23 24  1  0
 24 14  1  0
 25 23  1  0
 26 25  2  0
 27 25  1  0
M  END
$$$$
