KCR.pdb
     RDKit          3D

 27 26  0  0  1  0  0  0  0  0999 V2000
   27.0895  -22.9210  -16.0850 N   0  0  0  0  0  0  0  0  0  0  0  0
   25.7152  -23.2630  -16.2114 C   0  0  1  0  0  0  0  0  0  0  0  0
   25.3936  -24.6468  -15.8087 C   0  0  0  0  0  0  0  0  0  0  0  0
   26.0236  -25.7632  -16.5746 C   0  0  0  0  0  0  0  0  0  0  0  0
   25.4409  -25.8988  -17.9304 C   0  0  0  0  0  0  0  0  0  0  0  0
   26.0910  -27.0210  -18.7312 C   0  0  0  0  0  0  0  0  0  0  0  0
   25.6739  -27.0354  -20.0999 N   0  0  0  0  0  0  0  0  0  0  0  0
   24.9097  -22.3259  -15.3438 C   0  0  0  0  0  0  0  0  0  0  0  0
   25.2906  -21.9912  -14.1968 O   0  0  0  0  0  0  0  0  0  0  0  0
   23.6859  -21.7938  -15.8078 N   0  0  0  0  0  0  0  0  0  0  0  0
   22.9182  -20.7682  -15.1309 C   0  0  1  0  0  0  0  0  0  0  0  0
   22.6736  -19.6467  -16.1135 C   0  0  0  0  0  0  0  0  0  0  0  0
   24.0030  -18.4152  -15.9178 S   0  0  0  0  0  0  0  0  0  0  0  0
   21.6281  -21.4143  -14.7137 C   0  0  0  0  0  0  0  0  0  0  0  0
   20.9778  -22.1786  -15.4787 O   0  0  0  0  0  0  0  0  0  0  0  0
   18.3734  -25.4646   -8.3781 N   0  0  0  0  0  0  0  0  0  0  0  0
   17.2043  -24.9280   -8.9941 C   0  0  0  0  0  0  0  0  0  0  0  0
   16.0991  -25.5533   -8.8697 N   0  0  0  0  0  0  0  0  0  0  0  0
   17.2532  -23.7136   -9.7399 N   0  0  0  0  0  0  0  0  0  0  0  0
   18.5034  -23.2182  -10.2487 C   0  0  0  0  0  0  0  0  0  0  0  0
   18.3202  -21.9439  -11.0137 C   0  0  0  0  0  0  0  0  0  0  0  0
   19.6185  -21.5038  -11.5929 C   0  0  0  0  0  0  0  0  0  0  0  0
   19.7873  -21.7843  -13.0682 C   0  0  2  0  0  0  0  0  0  0  0  0
   21.0737  -21.1944  -13.4257 N   0  0  0  0  0  0  0  0  0  0  0  0
   18.7074  -21.1735  -13.8564 C   0  0  0  0  0  0  0  0  0  0  0  0
   17.7157  -21.8034  -14.2923 O   0  0  0  0  0  0  0  0  0  0  0  0
   18.7577  -19.8205  -14.1529 O   0  0  0  0  0  0  0  0  0  0  0  0
  2  3  1  0
  2  1  1  1
  4  5  1  0
  4  3  1  0
  5  6  1  0
  6  7  1  0
  8  9  2  0
  8  2  1  0
 10  8  1  0
 11 10  1  0
 11 12  1  6
 13 12  1  0
 14 15  2  0
 14 11  1  0
 17 16  1  0
 18 17  2  0
 19 17  1  0
 20 19  1  0
 21 20  1  0
 21 22  1  0
 23 22  1  1
 23 24  1  0
 24 14  1  0
 25 23  1  0
 26 25  2  0
 27 25  1  0
M  END
$$$$
