KCR.pdb
     RDKit          3D

 27 26  0  0  1  0  0  0  0  0999 V2000
   12.2369  -12.2435  -15.0184 N   0  0  0  0  0  0  0  0  0  0  0  0
   13.1916  -11.1939  -14.9250 C   0  0  1  0  0  0  0  0  0  0  0  0
   12.6367   -9.8451  -15.1567 C   0  0  0  0  0  0  0  0  0  0  0  0
   12.3703   -9.4303  -16.5663 C   0  0  0  0  0  0  0  0  0  0  0  0
   11.7547   -8.0842  -16.6374 C   0  0  0  0  0  0  0  0  0  0  0  0
   11.3694   -7.6974  -18.0606 C   0  0  0  0  0  0  0  0  0  0  0  0
   10.7277   -6.4204  -18.1307 N   0  0  0  0  0  0  0  0  0  0  0  0
   13.7928  -11.2189  -13.5403 C   0  0  0  0  0  0  0  0  0  0  0  0
   13.2884  -11.8917  -12.6099 O   0  0  0  0  0  0  0  0  0  0  0  0
   14.9571  -10.4727  -13.2511 N   0  0  0  0  0  0  0  0  0  0  0  0
   15.6285  -10.4482  -11.9674 C   0  0  1  0  0  0  0  0  0  0  0  0
   16.5052  -11.6755  -11.8782 C   0  0  0  0  0  0  0  0  0  0  0  0
   17.3072  -11.6874  -10.2415 S   0  0  0  0  0  0  0  0  0  0  0  0
   16.4512   -9.1917  -11.9464 C   0  0  0  0  0  0  0  0  0  0  0  0
   17.0683   -8.7720  -12.9639 O   0  0  0  0  0  0  0  0  0  0  0  0
   13.6040   -3.5278   -6.6285 N   0  0  0  0  0  0  0  0  0  0  0  0
   13.8275   -2.9307   -7.9043 C   0  0  0  0  0  0  0  0  0  0  0  0
   13.4595   -1.7237   -8.0935 N   0  0  0  0  0  0  0  0  0  0  0  0
   14.4508   -3.6572   -8.9611 N   0  0  0  0  0  0  0  0  0  0  0  0
   15.4389   -4.6614   -8.6742 C   0  0  0  0  0  0  0  0  0  0  0  0
   15.9702   -5.2850   -9.9279 C   0  0  0  0  0  0  0  0  0  0  0  0
   16.9088   -6.3898   -9.5916 C   0  0  0  0  0  0  0  0  0  0  0  0
   17.3920   -7.1990  -10.7728 C   0  0  2  0  0  0  0  0  0  0  0  0
   16.5742   -8.4080  -10.7693 N   0  0  0  0  0  0  0  0  0  0  0  0
   18.8148   -7.5432  -10.6401 C   0  0  0  0  0  0  0  0  0  0  0  0
   19.7523   -6.7351  -10.8362 O   0  0  0  0  0  0  0  0  0  0  0  0
   19.1764   -8.8309  -10.2769 O   0  0  0  0  0  0  0  0  0  0  0  0
  2  3  1  0
  2  1  1  1
  4  5  1  0
  4  3  1  0
  5  6  1  0
  6  7  1  0
  8  9  2  0
  8  2  1  0
 10  8  1  0
 11 10  1  0
 11 12  1  6
 13 12  1  0
 14 15  2  0
 14 11  1  0
 17 16  1  0
 18 17  2  0
 19 17  1  0
 20 19  1  0
 21 20  1  0
 21 22  1  0
 23 22  1  1
 23 24  1  0
 24 14  1  0
 25 23  1  0
 26 25  2  0
 27 25  1  0
M  END
$$$$
