KCR.pdb
     RDKit          3D

 27 26  0  0  1  0  0  0  0  0999 V2000
   20.9993  -22.0679  -13.1619 N   0  0  0  0  0  0  0  0  0  0  0  0
   21.0207  -20.6524  -13.0298 C   0  0  1  0  0  0  0  0  0  0  0  0
   20.2562  -20.1379  -11.8759 C   0  0  0  0  0  0  0  0  0  0  0  0
   18.8147  -20.5125  -11.7680 C   0  0  0  0  0  0  0  0  0  0  0  0
   18.6407  -21.9544  -11.4734 C   0  0  0  0  0  0  0  0  0  0  0  0
   17.1729  -22.3527  -11.3730 C   0  0  0  0  0  0  0  0  0  0  0  0
   16.9969  -23.7160  -10.9758 N   0  0  0  0  0  0  0  0  0  0  0  0
   22.4558  -20.2105  -12.8724 C   0  0  0  0  0  0  0  0  0  0  0  0
   22.7668  -19.0042  -12.7283 O   0  0  0  0  0  0  0  0  0  0  0  0
   23.5029  -21.1590  -12.8844 N   0  0  0  0  0  0  0  0  0  0  0  0
   24.9151  -20.8348  -12.8833 C   0  0  1  0  0  0  0  0  0  0  0  0
   25.6027  -21.7575  -11.9042 C   0  0  0  0  0  0  0  0  0  0  0  0
   26.0791  -20.7837  -10.4390 S   0  0  0  0  0  0  0  0  0  0  0  0
   25.4024  -21.0707  -14.2843 C   0  0  0  0  0  0  0  0  0  0  0  0
   25.3237  -22.1983  -14.8453 O   0  0  0  0  0  0  0  0  0  0  0  0
   29.4312  -15.1000  -18.9007 N   0  0  0  0  0  0  0  0  0  0  0  0
   30.0036  -16.2410  -18.2645 C   0  0  0  0  0  0  0  0  0  0  0  0
   31.2058  -16.1735  -17.8421 N   0  0  0  0  0  0  0  0  0  0  0  0
   29.2579  -17.4446  -18.0956 N   0  0  0  0  0  0  0  0  0  0  0  0
   27.9499  -17.5816  -18.6763 C   0  0  0  0  0  0  0  0  0  0  0  0
   27.3359  -18.9065  -18.3437 C   0  0  0  0  0  0  0  0  0  0  0  0
   27.0240  -18.9751  -16.8902 C   0  0  0  0  0  0  0  0  0  0  0  0
   26.3797  -20.2643  -16.4356 C   0  0  2  0  0  0  0  0  0  0  0  0
   25.9797  -20.0258  -15.0522 N   0  0  0  0  0  0  0  0  0  0  0  0
   27.3228  -21.3892  -16.5090 C   0  0  0  0  0  0  0  0  0  0  0  0
   27.3028  -22.2628  -17.4072 O   0  0  0  0  0  0  0  0  0  0  0  0
   28.3071  -21.5212  -15.5422 O   0  0  0  0  0  0  0  0  0  0  0  0
  2  3  1  0
  2  1  1  1
  4  5  1  0
  4  3  1  0
  5  6  1  0
  6  7  1  0
  8  9  2  0
  8  2  1  0
 10  8  1  0
 11 10  1  0
 11 12  1  1
 13 12  1  0
 14 15  2  0
 14 11  1  0
 17 16  1  0
 18 17  2  0
 19 17  1  0
 20 19  1  0
 21 20  1  0
 21 22  1  0
 23 22  1  1
 23 24  1  0
 24 14  1  0
 25 23  1  0
 26 25  2  0
 27 25  1  0
M  END
$$$$
