KCR.pdb
     RDKit          3D

 27 26  0  0  1  0  0  0  0  0999 V2000
   26.5789  -21.5346  -15.0923 N   0  0  0  0  0  0  0  0  0  0  0  0
   25.2154  -21.8403  -15.3551 C   0  0  1  0  0  0  0  0  0  0  0  0
   24.9383  -23.2800  -15.5319 C   0  0  0  0  0  0  0  0  0  0  0  0
   25.5409  -23.9692  -16.7117 C   0  0  0  0  0  0  0  0  0  0  0  0
   26.8323  -23.3587  -17.1060 C   0  0  0  0  0  0  0  0  0  0  0  0
   27.3876  -23.9574  -18.3931 C   0  0  0  0  0  0  0  0  0  0  0  0
   28.6923  -23.4645  -18.7129 N   0  0  0  0  0  0  0  0  0  0  0  0
   24.3844  -21.3447  -14.1961 C   0  0  0  0  0  0  0  0  0  0  0  0
   24.8971  -21.0487  -13.0905 O   0  0  0  0  0  0  0  0  0  0  0  0
   22.9852  -21.1998  -14.3279 N   0  0  0  0  0  0  0  0  0  0  0  0
   22.1091  -20.6523  -13.3119 C   0  0  1  0  0  0  0  0  0  0  0  0
   21.6508  -19.2904  -13.7787 C   0  0  0  0  0  0  0  0  0  0  0  0
   20.6598  -19.5087  -15.2928 S   0  0  0  0  0  0  0  0  0  0  0  0
   20.9523  -21.6034  -13.1964 C   0  0  0  0  0  0  0  0  0  0  0  0
   20.4835  -22.2199  -14.1926 O   0  0  0  0  0  0  0  0  0  0  0  0
   17.7388  -25.0392   -5.8091 N   0  0  0  0  0  0  0  0  0  0  0  0
   17.9790  -25.9702   -6.8625 C   0  0  0  0  0  0  0  0  0  0  0  0
   18.1271  -27.2042   -6.5734 N   0  0  0  0  0  0  0  0  0  0  0  0
   18.0551  -25.5451   -8.2215 N   0  0  0  0  0  0  0  0  0  0  0  0
   17.8336  -24.1679   -8.5699 C   0  0  0  0  0  0  0  0  0  0  0  0
   17.8907  -23.9589  -10.0518 C   0  0  0  0  0  0  0  0  0  0  0  0
   19.0854  -23.1462  -10.4080 C   0  0  0  0  0  0  0  0  0  0  0  0
   19.1899  -22.7706  -11.8681 C   0  0  2  0  0  0  0  0  0  0  0  0
   20.3255  -21.8571  -11.9484 N   0  0  0  0  0  0  0  0  0  0  0  0
   17.9656  -22.1078  -12.3394 C   0  0  0  0  0  0  0  0  0  0  0  0
   17.7421  -20.8807  -12.2181 O   0  0  0  0  0  0  0  0  0  0  0  0
   16.9781  -22.8559  -12.9608 O   0  0  0  0  0  0  0  0  0  0  0  0
  2  3  1  0
  2  1  1  1
  4  5  1  0
  4  3  1  0
  5  6  1  0
  6  7  1  0
  8  9  2  0
  8  2  1  0
 10  8  1  0
 11 10  1  0
 11 12  1  6
 13 12  1  0
 14 15  2  0
 14 11  1  0
 17 16  1  0
 18 17  2  0
 19 17  1  0
 20 19  1  0
 21 20  1  0
 21 22  1  0
 23 22  1  1
 23 24  1  0
 24 14  1  0
 25 23  1  0
 26 25  2  0
 27 25  1  0
M  END
$$$$
