KCR.pdb
     RDKit          3D

 27 26  0  0  1  0  0  0  0  0999 V2000
   18.3606  -25.9390   -3.3327 N   0  0  0  0  0  0  0  0  0  0  0  0
   17.5590  -26.3211   -4.4431 C   0  0  1  0  0  0  0  0  0  0  0  0
   16.2566  -25.6292   -4.5194 C   0  0  0  0  0  0  0  0  0  0  0  0
   16.1768  -24.2287   -4.0072 C   0  0  0  0  0  0  0  0  0  0  0  0
   14.7977  -23.6918   -4.0839 C   0  0  0  0  0  0  0  0  0  0  0  0
   14.6959  -22.2746   -3.5323 C   0  0  0  0  0  0  0  0  0  0  0  0
   13.3762  -21.7327   -3.6436 N   0  0  0  0  0  0  0  0  0  0  0  0
   18.3232  -26.0167   -5.7092 C   0  0  0  0  0  0  0  0  0  0  0  0
   19.2664  -25.1907   -5.7327 O   0  0  0  0  0  0  0  0  0  0  0  0
   17.9901  -26.6637   -6.9202 N   0  0  0  0  0  0  0  0  0  0  0  0
   18.7036  -26.5007   -8.1707 C   0  0  1  0  0  0  0  0  0  0  0  0
   18.7785  -27.8520   -8.8423 C   0  0  0  0  0  0  0  0  0  0  0  0
   20.3041  -27.9118   -9.8378 S   0  0  0  0  0  0  0  0  0  0  0  0
   17.9005  -25.5318   -8.9905 C   0  0  0  0  0  0  0  0  0  0  0  0
   16.6458  -25.4410   -8.8905 O   0  0  0  0  0  0  0  0  0  0  0  0
   20.8797  -18.5645  -13.5673 N   0  0  0  0  0  0  0  0  0  0  0  0
   19.4652  -18.3993  -13.4897 C   0  0  0  0  0  0  0  0  0  0  0  0
   18.9575  -17.2722  -13.8060 N   0  0  0  0  0  0  0  0  0  0  0  0
   18.6186  -19.4662  -13.0677 N   0  0  0  0  0  0  0  0  0  0  0  0
   19.1766  -20.6510  -12.4743 C   0  0  0  0  0  0  0  0  0  0  0  0
   18.1067  -21.5937  -12.0167 C   0  0  0  0  0  0  0  0  0  0  0  0
   18.7097  -22.7207  -11.2545 C   0  0  0  0  0  0  0  0  0  0  0  0
   17.7190  -23.7132  -10.6915 C   0  0  2  0  0  0  0  0  0  0  0  0
   18.5208  -24.6626   -9.9256 N   0  0  0  0  0  0  0  0  0  0  0  0
   16.9887  -24.4068  -11.7620 C   0  0  0  0  0  0  0  0  0  0  0  0
   17.3009  -25.5367  -12.2049 O   0  0  0  0  0  0  0  0  0  0  0  0
   15.8822  -23.8028  -12.3381 O   0  0  0  0  0  0  0  0  0  0  0  0
  2  3  1  0
  2  1  1  1
  4  5  1  0
  4  3  1  0
  5  6  1  0
  6  7  1  0
  8  9  2  0
  8  2  1  0
 10  8  1  0
 11 10  1  0
 11 12  1  6
 13 12  1  0
 14 15  2  0
 14 11  1  0
 17 16  1  0
 18 17  2  0
 19 17  1  0
 20 19  1  0
 21 20  1  0
 21 22  1  0
 23 22  1  6
 23 24  1  0
 24 14  1  0
 25 23  1  0
 26 25  2  0
 27 25  1  0
M  END
$$$$
