KCR.pdb
     RDKit          3D

 27 26  0  0  1  0  0  0  0  0999 V2000
   11.8301  -21.4293    1.0143 N   0  0  0  0  0  0  0  0  0  0  0  0
   13.0654  -21.5561    1.7069 C   0  0  1  0  0  0  0  0  0  0  0  0
   14.2523  -21.6026    0.8294 C   0  0  0  0  0  0  0  0  0  0  0  0
   14.0979  -22.2117   -0.5253 C   0  0  0  0  0  0  0  0  0  0  0  0
   15.3860  -22.2630   -1.2563 C   0  0  0  0  0  0  0  0  0  0  0  0
   15.2652  -22.9838   -2.5939 C   0  0  0  0  0  0  0  0  0  0  0  0
   16.5263  -23.1426   -3.2510 N   0  0  0  0  0  0  0  0  0  0  0  0
   13.2161  -20.3725    2.6321 C   0  0  0  0  0  0  0  0  0  0  0  0
   12.6609  -19.2726    2.3985 O   0  0  0  0  0  0  0  0  0  0  0  0
   13.9996  -20.4740    3.8034 N   0  0  0  0  0  0  0  0  0  0  0  0
   13.9491  -19.5488    4.9173 C   0  0  1  0  0  0  0  0  0  0  0  0
   13.3299  -20.2695    6.0921 C   0  0  0  0  0  0  0  0  0  0  0  0
   13.2804  -19.1205    7.5061 S   0  0  0  0  0  0  0  0  0  0  0  0
   15.3709  -19.1610    5.2074 C   0  0  0  0  0  0  0  0  0  0  0  0
   16.3124  -20.0011    5.2102 O   0  0  0  0  0  0  0  0  0  0  0  0
   20.4626  -12.3773    5.6870 N   0  0  0  0  0  0  0  0  0  0  0  0
   19.2988  -12.6327    4.9032 C   0  0  0  0  0  0  0  0  0  0  0  0
   19.2412  -12.1699    3.7154 N   0  0  0  0  0  0  0  0  0  0  0  0
   18.2091  -13.3910    5.4236 N   0  0  0  0  0  0  0  0  0  0  0  0
   18.2715  -13.9458    6.7485 C   0  0  0  0  0  0  0  0  0  0  0  0
   18.3407  -15.4415    6.7163 C   0  0  0  0  0  0  0  0  0  0  0  0
   17.0748  -16.0003    6.1687 C   0  0  0  0  0  0  0  0  0  0  0  0
   17.0480  -17.5050    6.0309 C   0  0  2  0  0  0  0  0  0  0  0  0
   15.7269  -17.8172    5.4944 N   0  0  0  0  0  0  0  0  0  0  0  0
   17.2421  -18.1652    7.3297 C   0  0  0  0  0  0  0  0  0  0  0  0
   18.3019  -18.7394    7.6723 O   0  0  0  0  0  0  0  0  0  0  0  0
   16.2106  -18.1708    8.2554 O   0  0  0  0  0  0  0  0  0  0  0  0
  2  3  1  0
  2  1  1  6
  4  5  1  0
  4  3  1  0
  5  6  1  0
  6  7  1  0
  8  9  2  0
  8  2  1  0
 10  8  1  0
 11 10  1  0
 11 12  1  1
 13 12  1  0
 14 15  2  0
 14 11  1  0
 17 16  1  0
 18 17  2  0
 19 17  1  0
 20 19  1  0
 21 20  1  0
 21 22  1  0
 23 22  1  1
 23 24  1  0
 24 14  1  0
 25 23  1  0
 26 25  2  0
 27 25  1  0
M  END
$$$$
