KCR.pdb
     RDKit          3D

 27 26  0  0  1  0  0  0  0  0999 V2000
   21.2329  -18.3877  -17.0142 N   0  0  0  0  0  0  0  0  0  0  0  0
   22.2445  -17.4107  -16.8047 C   0  0  1  0  0  0  0  0  0  0  0  0
   21.7546  -16.1422  -16.2290 C   0  0  0  0  0  0  0  0  0  0  0  0
   21.0406  -15.1924  -17.1336 C   0  0  0  0  0  0  0  0  0  0  0  0
   19.6201  -15.5712  -17.3194 C   0  0  0  0  0  0  0  0  0  0  0  0
   18.8952  -14.6449  -18.2889 C   0  0  0  0  0  0  0  0  0  0  0  0
   17.5878  -15.1165  -18.6293 N   0  0  0  0  0  0  0  0  0  0  0  0
   23.2727  -17.9850  -15.8598 C   0  0  0  0  0  0  0  0  0  0  0  0
   24.2241  -17.2983  -15.4173 O   0  0  0  0  0  0  0  0  0  0  0  0
   23.1893  -19.3324  -15.4432 N   0  0  0  0  0  0  0  0  0  0  0  0
   24.1519  -19.9968  -14.5879 C   0  0  1  0  0  0  0  0  0  0  0  0
   23.3910  -20.6812  -13.4765 C   0  0  0  0  0  0  0  0  0  0  0  0
   21.6426  -20.1783  -13.5867 S   0  0  0  0  0  0  0  0  0  0  0  0
   24.8642  -20.9968  -15.4530 C   0  0  0  0  0  0  0  0  0  0  0  0
   24.2856  -21.6109  -16.3913 O   0  0  0  0  0  0  0  0  0  0  0  0
   32.0986  -24.5913  -15.9177 N   0  0  0  0  0  0  0  0  0  0  0  0
   31.6966  -24.7586  -17.2759 C   0  0  0  0  0  0  0  0  0  0  0  0
   32.0383  -25.8213  -17.8939 N   0  0  0  0  0  0  0  0  0  0  0  0
   30.9254  -23.7640  -17.9461 N   0  0  0  0  0  0  0  0  0  0  0  0
   30.2603  -22.7298  -17.2011 C   0  0  0  0  0  0  0  0  0  0  0  0
   29.2137  -23.2937  -16.2903 C   0  0  0  0  0  0  0  0  0  0  0  0
   28.3629  -22.1992  -15.7492 C   0  0  0  0  0  0  0  0  0  0  0  0
   26.8929  -22.3093  -16.0817 C   0  0  2  0  0  0  0  0  0  0  0  0
   26.2364  -21.3014  -15.2549 N   0  0  0  0  0  0  0  0  0  0  0  0
   26.3717  -23.6474  -15.7680 C   0  0  0  0  0  0  0  0  0  0  0  0
   25.8460  -23.9554  -14.6729 O   0  0  0  0  0  0  0  0  0  0  0  0
   26.4499  -24.6526  -16.7188 O   0  0  0  0  0  0  0  0  0  0  0  0
  2  3  1  0
  2  1  1  1
  4  5  1  0
  4  3  1  0
  5  6  1  0
  6  7  1  0
  8  9  2  0
  8  2  1  0
 10  8  1  0
 11 10  1  0
 11 12  1  1
 13 12  1  0
 14 15  2  0
 14 11  1  0
 17 16  1  0
 18 17  2  0
 19 17  1  0
 20 19  1  0
 21 20  1  0
 21 22  1  0
 23 22  1  1
 23 24  1  0
 24 14  1  0
 25 23  1  0
 26 25  2  0
 27 25  1  0
M  END
$$$$
