KCR.pdb
     RDKit          3D

 27 26  0  0  1  0  0  0  0  0999 V2000
   27.1491  -18.6090  -17.1055 N   0  0  0  0  0  0  0  0  0  0  0  0
   26.5784  -19.9104  -17.1528 C   0  0  1  0  0  0  0  0  0  0  0  0
   27.1065  -20.7668  -18.2338 C   0  0  0  0  0  0  0  0  0  0  0  0
   27.2242  -20.1764  -19.6004 C   0  0  0  0  0  0  0  0  0  0  0  0
   28.4096  -19.2951  -19.7195 C   0  0  0  0  0  0  0  0  0  0  0  0
   28.4768  -18.5934  -21.0709 C   0  0  0  0  0  0  0  0  0  0  0  0
   29.6247  -17.7485  -21.1975 N   0  0  0  0  0  0  0  0  0  0  0  0
   26.8526  -20.5986  -15.8371 C   0  0  0  0  0  0  0  0  0  0  0  0
   26.5100  -21.7862  -15.6253 O   0  0  0  0  0  0  0  0  0  0  0  0
   27.5117  -19.9118  -14.7931 N   0  0  0  0  0  0  0  0  0  0  0  0
   27.8107  -20.4727  -13.4911 C   0  0  1  0  0  0  0  0  0  0  0  0
   29.1393  -19.9136  -13.0384 C   0  0  0  0  0  0  0  0  0  0  0  0
   29.4190  -20.4303  -11.3130 S   0  0  0  0  0  0  0  0  0  0  0  0
   26.6999  -20.0360  -12.5793 C   0  0  0  0  0  0  0  0  0  0  0  0
   26.3205  -18.8348  -12.5051 O   0  0  0  0  0  0  0  0  0  0  0  0
   19.1830  -21.8785  -13.3323 N   0  0  0  0  0  0  0  0  0  0  0  0
   20.3800  -21.5202  -14.0201 C   0  0  0  0  0  0  0  0  0  0  0  0
   20.4575  -21.7338  -15.2757 N   0  0  0  0  0  0  0  0  0  0  0  0
   21.4808  -20.9322  -13.3304 N   0  0  0  0  0  0  0  0  0  0  0  0
   21.3839  -20.6209  -11.9302 C   0  0  0  0  0  0  0  0  0  0  0  0
   22.6417  -19.9893  -11.4183 C   0  0  0  0  0  0  0  0  0  0  0  0
   23.7062  -21.0183  -11.2677 C   0  0  0  0  0  0  0  0  0  0  0  0
   25.0355  -20.4945  -10.7757 C   0  0  2  0  0  0  0  0  0  0  0  0
   26.0164  -20.9632  -11.7498 N   0  0  0  0  0  0  0  0  0  0  0  0
   25.3540  -21.0143   -9.4382 C   0  0  0  0  0  0  0  0  0  0  0  0
   25.8913  -22.1268   -9.2285 O   0  0  0  0  0  0  0  0  0  0  0  0
   25.0556  -20.2530   -8.3192 O   0  0  0  0  0  0  0  0  0  0  0  0
  2  3  1  0
  2  1  1  1
  4  5  1  0
  4  3  1  0
  5  6  1  0
  6  7  1  0
  8  9  2  0
  8  2  1  0
 10  8  1  0
 11 10  1  0
 11 12  1  1
 13 12  1  0
 14 15  2  0
 14 11  1  0
 17 16  1  0
 18 17  2  0
 19 17  1  0
 20 19  1  0
 21 20  1  0
 21 22  1  0
 23 22  1  6
 23 24  1  0
 24 14  1  0
 25 23  1  0
 26 25  2  0
 27 25  1  0
M  END
$$$$
