KCR.pdb
     RDKit          3D

 27 26  0  0  1  0  0  0  0  0999 V2000
   20.7671  -19.5795  -17.3270 N   0  0  0  0  0  0  0  0  0  0  0  0
   22.1332  -19.9679  -17.2591 C   0  0  1  0  0  0  0  0  0  0  0  0
   23.0903  -18.8548  -17.4191 C   0  0  0  0  0  0  0  0  0  0  0  0
   22.7822  -17.5629  -16.7364 C   0  0  0  0  0  0  0  0  0  0  0  0
   22.6437  -16.4483  -17.7031 C   0  0  0  0  0  0  0  0  0  0  0  0
   23.6386  -15.3243  -17.4383 C   0  0  0  0  0  0  0  0  0  0  0  0
   23.5905  -14.2987  -18.4349 N   0  0  0  0  0  0  0  0  0  0  0  0
   22.3806  -20.6053  -15.9129 C   0  0  0  0  0  0  0  0  0  0  0  0
   23.4791  -21.1353  -15.6214 O   0  0  0  0  0  0  0  0  0  0  0  0
   21.3649  -20.6227  -14.9310 N   0  0  0  0  0  0  0  0  0  0  0  0
   21.5110  -21.1687  -13.5968 C   0  0  1  0  0  0  0  0  0  0  0  0
   21.1232  -20.0926  -12.6096 C   0  0  0  0  0  0  0  0  0  0  0  0
   19.3048  -20.0546  -12.4904 S   0  0  0  0  0  0  0  0  0  0  0  0
   20.5750  -22.3407  -13.5166 C   0  0  0  0  0  0  0  0  0  0  0  0
   19.6513  -22.5253  -14.3563 O   0  0  0  0  0  0  0  0  0  0  0  0
   18.6303  -29.6178  -11.4499 N   0  0  0  0  0  0  0  0  0  0  0  0
   20.0472  -29.6537  -11.6084 C   0  0  0  0  0  0  0  0  0  0  0  0
   20.5692  -30.6064  -12.2778 N   0  0  0  0  0  0  0  0  0  0  0  0
   20.8807  -28.6491  -11.0346 N   0  0  0  0  0  0  0  0  0  0  0  0
   20.3066  -27.5580  -10.2949 C   0  0  0  0  0  0  0  0  0  0  0  0
   19.5511  -26.6239  -11.1892 C   0  0  0  0  0  0  0  0  0  0  0  0
   20.3334  -25.3762  -11.4035 C   0  0  0  0  0  0  0  0  0  0  0  0
   19.7380  -24.4134  -12.4045 C   0  0  2  0  0  0  0  0  0  0  0  0
   20.6865  -23.3065  -12.4825 N   0  0  0  0  0  0  0  0  0  0  0  0
   18.4217  -23.9293  -11.9646 C   0  0  0  0  0  0  0  0  0  0  0  0
   17.3386  -24.2598  -12.5012 O   0  0  0  0  0  0  0  0  0  0  0  0
   18.3375  -23.0537  -10.8936 O   0  0  0  0  0  0  0  0  0  0  0  0
  2  3  1  0
  2  1  1  1
  4  5  1  0
  4  3  1  0
  5  6  1  0
  6  7  1  0
  8  9  2  0
  8  2  1  0
 10  8  1  0
 11 10  1  0
 11 12  1  1
 13 12  1  0
 14 15  2  0
 14 11  1  0
 17 16  1  0
 18 17  2  0
 19 17  1  0
 20 19  1  0
 21 20  1  0
 21 22  1  0
 23 22  1  1
 23 24  1  0
 24 14  1  0
 25 23  1  0
 26 25  2  0
 27 25  1  0
M  END
$$$$
