KCR.pdb
     RDKit          3D

 27 26  0  0  1  0  0  0  0  0999 V2000
   23.4780  -20.9067  -14.5355 N   0  0  0  0  0  0  0  0  0  0  0  0
   23.5035  -20.0785  -15.6909 C   0  0  1  0  0  0  0  0  0  0  0  0
   22.2560  -20.0986  -16.4809 C   0  0  0  0  0  0  0  0  0  0  0  0
   21.2306  -21.1306  -16.1442 C   0  0  0  0  0  0  0  0  0  0  0  0
   20.1314  -21.1597  -17.1375 C   0  0  0  0  0  0  0  0  0  0  0  0
   19.1401  -22.2868  -16.8725 C   0  0  0  0  0  0  0  0  0  0  0  0
   19.7278  -23.5836  -17.0158 N   0  0  0  0  0  0  0  0  0  0  0  0
   23.7541  -18.6559  -15.2515 C   0  0  0  0  0  0  0  0  0  0  0  0
   23.1862  -18.1613  -14.2488 O   0  0  0  0  0  0  0  0  0  0  0  0
   24.6482  -17.8311  -15.9701 N   0  0  0  0  0  0  0  0  0  0  0  0
   24.9566  -16.4552  -15.6369 C   0  0  1  0  0  0  0  0  0  0  0  0
   26.4457  -16.3570  -15.4007 C   0  0  0  0  0  0  0  0  0  0  0  0
   26.8569  -14.6142  -15.0608 S   0  0  0  0  0  0  0  0  0  0  0  0
   24.5403  -15.6315  -16.8219 C   0  0  0  0  0  0  0  0  0  0  0  0
   24.7735  -15.9906  -18.0089 O   0  0  0  0  0  0  0  0  0  0  0  0
   17.2181  -11.9861  -19.1027 N   0  0  0  0  0  0  0  0  0  0  0  0
   18.1037  -11.6084  -20.1549 C   0  0  0  0  0  0  0  0  0  0  0  0
   17.6253  -11.0267  -21.1849 N   0  0  0  0  0  0  0  0  0  0  0  0
   19.5031  -11.8695  -20.0725 N   0  0  0  0  0  0  0  0  0  0  0  0
   20.0522  -12.5594  -18.9369 C   0  0  0  0  0  0  0  0  0  0  0  0
   21.5478  -12.6112  -18.9946 C   0  0  0  0  0  0  0  0  0  0  0  0
   22.0762  -13.4094  -17.8552 C   0  0  0  0  0  0  0  0  0  0  0  0
   23.5800  -13.5543  -17.8202 C   0  0  2  0  0  0  0  0  0  0  0  0
   23.8569  -14.3978  -16.6615 N   0  0  0  0  0  0  0  0  0  0  0  0
   24.2404  -12.2494  -17.6727 C   0  0  0  0  0  0  0  0  0  0  0  0
   24.8437  -11.8826  -16.6375 O   0  0  0  0  0  0  0  0  0  0  0  0
   24.2138  -11.3463  -18.7237 O   0  0  0  0  0  0  0  0  0  0  0  0
  2  3  1  0
  2  1  1  1
  4  5  1  0
  4  3  1  0
  5  6  1  0
  6  7  1  0
  8  9  2  0
  8  2  1  0
 10  8  1  0
 11 10  1  0
 11 12  1  6
 13 12  1  0
 14 15  2  0
 14 11  1  0
 17 16  1  0
 18 17  2  0
 19 17  1  0
 20 19  1  0
 21 20  1  0
 21 22  1  0
 23 22  1  1
 23 24  1  0
 24 14  1  0
 25 23  1  0
 26 25  2  0
 27 25  1  0
M  END
$$$$
