KCR.pdb
     RDKit          3D

 27 26  0  0  1  0  0  0  0  0999 V2000
   27.9384  -19.6074  -14.0730 N   0  0  0  0  0  0  0  0  0  0  0  0
   27.2485  -20.5759  -14.8525 C   0  0  1  0  0  0  0  0  0  0  0  0
   28.1137  -21.6323  -15.4147 C   0  0  0  0  0  0  0  0  0  0  0  0
   29.0943  -21.2450  -16.4722 C   0  0  0  0  0  0  0  0  0  0  0  0
   28.4233  -20.6692  -17.6614 C   0  0  0  0  0  0  0  0  0  0  0  0
   29.4135  -20.2692  -18.7489 C   0  0  0  0  0  0  0  0  0  0  0  0
   28.7732  -19.7090  -19.8994 N   0  0  0  0  0  0  0  0  0  0  0  0
   26.2110  -21.2391  -13.9787 C   0  0  0  0  0  0  0  0  0  0  0  0
   25.5447  -22.2259  -14.3722 O   0  0  0  0  0  0  0  0  0  0  0  0
   25.9589  -20.7575  -12.6746 N   0  0  0  0  0  0  0  0  0  0  0  0
   24.9527  -21.2860  -11.7759 C   0  0  1  0  0  0  0  0  0  0  0  0
   25.2528  -20.7702  -10.3878 C   0  0  0  0  0  0  0  0  0  0  0  0
   26.9176  -21.3408   -9.9135 S   0  0  0  0  0  0  0  0  0  0  0  0
   23.6322  -20.7703  -12.2721 C   0  0  0  0  0  0  0  0  0  0  0  0
   23.3682  -19.5378  -12.3312 O   0  0  0  0  0  0  0  0  0  0  0  0
   16.4072  -23.1143  -13.3855 N   0  0  0  0  0  0  0  0  0  0  0  0
   16.2828  -22.8541  -14.7823 C   0  0  0  0  0  0  0  0  0  0  0  0
   15.1262  -22.6130  -15.2643 N   0  0  0  0  0  0  0  0  0  0  0  0
   17.4224  -22.8595  -15.6394 N   0  0  0  0  0  0  0  0  0  0  0  0
   18.7315  -23.1358  -15.1129 C   0  0  0  0  0  0  0  0  0  0  0  0
   19.2433  -21.9976  -14.2849 C   0  0  0  0  0  0  0  0  0  0  0  0
   20.6582  -22.2444  -13.8952 C   0  0  0  0  0  0  0  0  0  0  0  0
   21.3071  -21.1299  -13.1075 C   0  0  2  0  0  0  0  0  0  0  0  0
   22.6083  -21.6537  -12.7033 N   0  0  0  0  0  0  0  0  0  0  0  0
   20.5089  -20.7744  -11.9256 C   0  0  0  0  0  0  0  0  0  0  0  0
   20.6481  -21.3074  -10.8000 O   0  0  0  0  0  0  0  0  0  0  0  0
   19.5350  -19.7936  -12.0273 O   0  0  0  0  0  0  0  0  0  0  0  0
  2  3  1  0
  2  1  1  1
  4  5  1  0
  4  3  1  0
  5  6  1  0
  6  7  1  0
  8  9  2  0
  8  2  1  0
 10  8  1  0
 11 10  1  0
 11 12  1  1
 13 12  1  0
 14 15  2  0
 14 11  1  0
 17 16  1  0
 18 17  2  0
 19 17  1  0
 20 19  1  0
 21 20  1  0
 21 22  1  0
 23 22  1  1
 23 24  1  0
 24 14  1  0
 25 23  1  0
 26 25  2  0
 27 25  1  0
M  END
$$$$
