GEM.pdb
     RDKit          3D

 22 21  0  0  1  0  0  0  0  0999 V2000
   18.0080  -11.9544  -16.0124 N   0  0  0  0  0  0  0  0  0  0  0  0
   18.8235  -11.3021  -17.0171 C   0  0  0  0  0  0  0  0  0  0  0  0
   18.7800   -9.8460  -16.7800 C   0  0  0  0  0  0  0  0  0  0  0  0
   19.4615   -9.0690  -17.5159 O   0  0  0  0  0  0  0  0  0  0  0  0
   18.0206   -9.2164  -15.7732 N   0  0  0  0  0  0  0  0  0  0  0  0
   17.9076   -7.7714  -15.6044 C   0  0  1  0  0  0  0  0  0  0  0  0
   16.4943   -7.4895  -15.1997 C   0  0  0  0  0  0  0  0  0  0  0  0
   15.4414   -7.5930  -16.2421 C   0  0  0  0  0  0  0  0  0  0  0  0
   15.1881   -6.3617  -17.0151 C   0  0  0  0  0  0  0  0  0  0  0  0
   15.7032   -5.2659  -16.6269 O   0  0  0  0  0  0  0  0  0  0  0  0
   18.9934   -7.1431  -14.8923 C   0  0  0  0  0  0  0  0  0  0  0  0
   19.1009   -7.2628  -13.6174 O   0  0  0  0  0  0  0  0  0  0  0  0
   14.4093   -6.3300  -18.1567 O   0  0  0  0  0  0  0  0  0  0  0  0
   22.9938  -10.2858  -13.8432 C   0  0  0  0  0  0  0  0  0  0  0  0
   22.6178   -8.5241  -13.7014 S   0  0  0  0  0  0  0  0  0  0  0  0
   22.7466   -7.7440  -15.3183 C   0  0  0  0  0  0  0  0  0  0  0  0
   22.4083   -6.3036  -15.3619 C   0  0  0  0  0  0  0  0  0  0  0  0
   21.1552   -5.8204  -14.7203 C   0  0  2  0  0  0  0  0  0  0  0  0
   20.0083   -6.3626  -15.5113 N   0  0  0  0  0  0  0  0  0  0  0  0
   21.0130   -4.3800  -14.5864 C   0  0  0  0  0  0  0  0  0  0  0  0
   21.7206   -3.6750  -13.8358 O   0  0  0  0  0  0  0  0  0  0  0  0
   20.0208   -3.7094  -15.3397 O   0  0  0  0  0  0  0  0  0  0  0  0
  1  2  1  0
  3  5  1  0
  3  2  1  0
  4  3  2  0
  6  5  1  0
  6 11  1  0
  6  7  1  1
  8  7  1  0
  9  8  1  0
 10  9  2  0
 11 19  1  0
 11 12  2  0
 13  9  1  0
 14 15  1  0
 15 16  1  0
 16 17  1  0
 18 17  1  6
 19 18  1  0
 20 18  1  0
 20 22  1  0
 21 20  2  0
M  END
$$$$
