GEM.pdb
     RDKit          3D

 22 21  0  0  1  0  0  0  0  0999 V2000
   17.5303  -13.9321  -16.1426 N   0  0  0  0  0  0  0  0  0  0  0  0
   17.3183  -13.0034  -15.0505 C   0  0  0  0  0  0  0  0  0  0  0  0
   17.8206  -11.6778  -15.4611 C   0  0  0  0  0  0  0  0  0  0  0  0
   18.4347  -11.5528  -16.5643 O   0  0  0  0  0  0  0  0  0  0  0  0
   17.6735  -10.4932  -14.7114 N   0  0  0  0  0  0  0  0  0  0  0  0
   18.1441   -9.1800  -15.1395 C   0  0  1  0  0  0  0  0  0  0  0  0
   17.0247   -8.2162  -14.8973 C   0  0  0  0  0  0  0  0  0  0  0  0
   15.7065   -8.5168  -15.5121 C   0  0  0  0  0  0  0  0  0  0  0  0
   14.6388   -7.5351  -15.2400 C   0  0  0  0  0  0  0  0  0  0  0  0
   13.4348   -7.9339  -15.1491 O   0  0  0  0  0  0  0  0  0  0  0  0
   19.4837   -8.8368  -14.7288 C   0  0  0  0  0  0  0  0  0  0  0  0
   20.0811   -9.5046  -13.8078 O   0  0  0  0  0  0  0  0  0  0  0  0
   14.8759   -6.1831  -15.0758 O   0  0  0  0  0  0  0  0  0  0  0  0
   26.3157  -10.4285  -14.3448 C   0  0  0  0  0  0  0  0  0  0  0  0
   24.5928  -10.5067  -14.8834 S   0  0  0  0  0  0  0  0  0  0  0  0
   23.8426   -8.8757  -14.7567 C   0  0  0  0  0  0  0  0  0  0  0  0
   22.3941   -8.8132  -15.0555 C   0  0  0  0  0  0  0  0  0  0  0  0
   21.6582   -7.5321  -14.8750 C   0  0  2  0  0  0  0  0  0  0  0  0
   20.2398   -7.7681  -15.2841 N   0  0  0  0  0  0  0  0  0  0  0  0
   22.1831   -6.3804  -15.5900 C   0  0  0  0  0  0  0  0  0  0  0  0
   21.8543   -6.0724  -16.7554 O   0  0  0  0  0  0  0  0  0  0  0  0
   23.1255   -5.5402  -14.9519 O   0  0  0  0  0  0  0  0  0  0  0  0
  1  2  1  0
  3  5  1  0
  3  2  1  0
  4  3  2  0
  6  5  1  0
  6 11  1  0
  6  7  1  1
  8  7  1  0
  9  8  1  0
 10  9  2  0
 11 19  1  0
 11 12  2  0
 13  9  1  0
 14 15  1  0
 15 16  1  0
 16 17  1  0
 18 17  1  6
 19 18  1  0
 20 18  1  0
 20 22  1  0
 21 20  2  0
M  END
$$$$
