GEM.pdb
     RDKit          3D

 22 21  0  0  1  0  0  0  0  0999 V2000
   13.6988   -9.5932   -8.5194 N   0  0  0  0  0  0  0  0  0  0  0  0
   14.6379   -8.5704   -8.1047 C   0  0  0  0  0  0  0  0  0  0  0  0
   15.2177   -7.9519   -9.3128 C   0  0  0  0  0  0  0  0  0  0  0  0
   15.0088   -8.4763  -10.4490 O   0  0  0  0  0  0  0  0  0  0  0  0
   16.0112   -6.7869   -9.3193 N   0  0  0  0  0  0  0  0  0  0  0  0
   16.6042   -6.1970  -10.5150 C   0  0  1  0  0  0  0  0  0  0  0  0
   15.9958   -4.8392  -10.6782 C   0  0  0  0  0  0  0  0  0  0  0  0
   16.3805   -4.0469  -11.8741 C   0  0  0  0  0  0  0  0  0  0  0  0
   15.7311   -2.7276  -11.9992 C   0  0  0  0  0  0  0  0  0  0  0  0
   14.4840   -2.6679  -12.2402 O   0  0  0  0  0  0  0  0  0  0  0  0
   18.0316   -6.3605  -10.6449 C   0  0  0  0  0  0  0  0  0  0  0  0
   18.8089   -6.1823   -9.6373 O   0  0  0  0  0  0  0  0  0  0  0  0
   16.4121   -1.5319  -11.8676 O   0  0  0  0  0  0  0  0  0  0  0  0
   23.8516  -10.4332  -13.9661 C   0  0  0  0  0  0  0  0  0  0  0  0
   22.0886  -10.1144  -13.7316 S   0  0  0  0  0  0  0  0  0  0  0  0
   21.8616   -8.5187  -12.9307 C   0  0  0  0  0  0  0  0  0  0  0  0
   20.4621   -8.1565  -12.6123 C   0  0  0  0  0  0  0  0  0  0  0  0
   20.1728   -6.8762  -11.9104 C   0  0  2  0  0  0  0  0  0  0  0  0
   18.6870   -6.7212  -11.8543 N   0  0  0  0  0  0  0  0  0  0  0  0
   20.7633   -5.6783  -12.4843 C   0  0  0  0  0  0  0  0  0  0  0  0
   21.9313   -5.2975  -12.2567 O   0  0  0  0  0  0  0  0  0  0  0  0
   19.9911   -4.8756  -13.3565 O   0  0  0  0  0  0  0  0  0  0  0  0
  1  2  1  0
  3  5  1  0
  3  2  1  0
  4  3  2  0
  6  5  1  0
  6 11  1  0
  6  7  1  1
  8  7  1  0
  9  8  1  0
 10  9  2  0
 11 19  1  0
 11 12  2  0
 13  9  1  0
 14 15  1  0
 15 16  1  0
 16 17  1  0
 18 17  1  6
 19 18  1  0
 20 18  1  0
 20 22  1  0
 21 20  2  0
M  END
$$$$
