GEM.pdb
     RDKit          3D

 22 21  0  0  1  0  0  0  0  0999 V2000
   19.8733  -11.7114  -20.1495 N   0  0  0  0  0  0  0  0  0  0  0  0
   21.0000  -10.9554  -19.6405 C   0  0  0  0  0  0  0  0  0  0  0  0
   20.4952   -9.9557  -18.6793 C   0  0  0  0  0  0  0  0  0  0  0  0
   20.1511   -8.8061  -19.0911 O   0  0  0  0  0  0  0  0  0  0  0  0
   20.3541  -10.1707  -17.2934 N   0  0  0  0  0  0  0  0  0  0  0  0
   19.9351   -9.1513  -16.3370 C   0  0  1  0  0  0  0  0  0  0  0  0
   18.9244   -9.7890  -15.4358 C   0  0  0  0  0  0  0  0  0  0  0  0
   17.7034  -10.3606  -16.0591 C   0  0  0  0  0  0  0  0  0  0  0  0
   16.7963  -11.0769  -15.1415 C   0  0  0  0  0  0  0  0  0  0  0  0
   17.2815  -11.6872  -14.1370 O   0  0  0  0  0  0  0  0  0  0  0  0
   20.9983   -8.3583  -15.7698 C   0  0  0  0  0  0  0  0  0  0  0  0
   22.2028   -8.8041  -15.7305 O   0  0  0  0  0  0  0  0  0  0  0  0
   15.4256  -11.1240  -15.3140 O   0  0  0  0  0  0  0  0  0  0  0  0
   26.5705   -4.1453  -17.0563 C   0  0  0  0  0  0  0  0  0  0  0  0
   25.1173   -5.1743  -17.3631 S   0  0  0  0  0  0  0  0  0  0  0  0
   24.1244   -5.2841  -15.8659 C   0  0  0  0  0  0  0  0  0  0  0  0
   22.8997   -6.1091  -15.9701 C   0  0  0  0  0  0  0  0  0  0  0  0
   21.9909   -6.2317  -14.7977 C   0  0  2  0  0  0  0  0  0  0  0  0
   20.8197   -7.0579  -15.2226 N   0  0  0  0  0  0  0  0  0  0  0  0
   21.5191   -4.9868  -14.2143 C   0  0  0  0  0  0  0  0  0  0  0  0
   20.4540   -4.4215  -14.5416 O   0  0  0  0  0  0  0  0  0  0  0  0
   22.2933   -4.3544  -13.2131 O   0  0  0  0  0  0  0  0  0  0  0  0
  1  2  1  0
  3  5  1  0
  3  2  1  0
  4  3  2  0
  6  5  1  0
  6 11  1  0
  6  7  1  1
  8  7  1  0
  9  8  1  0
 10  9  2  0
 11 19  1  0
 11 12  2  0
 13  9  1  0
 14 15  1  0
 15 16  1  0
 16 17  1  0
 18 17  1  6
 19 18  1  0
 20 18  1  0
 20 22  1  0
 21 20  2  0
M  END
$$$$
