GEM.pdb
     RDKit          3D

 22 21  0  0  1  0  0  0  0  0999 V2000
   18.9190  -21.7379  -10.9263 N   0  0  0  0  0  0  0  0  0  0  0  0
   19.5291  -20.5203  -11.4215 C   0  0  0  0  0  0  0  0  0  0  0  0
   20.7413  -20.8817  -12.1819 C   0  0  0  0  0  0  0  0  0  0  0  0
   21.3385  -21.9725  -11.9307 O   0  0  0  0  0  0  0  0  0  0  0  0
   21.3167  -20.0960  -13.2010 N   0  0  0  0  0  0  0  0  0  0  0  0
   22.5771  -20.4027  -13.8694 C   0  0  1  0  0  0  0  0  0  0  0  0
   22.4408  -19.9437  -15.2876 C   0  0  0  0  0  0  0  0  0  0  0  0
   21.4112  -20.6011  -16.1325 C   0  0  0  0  0  0  0  0  0  0  0  0
   21.3583  -20.1508  -17.5369 C   0  0  0  0  0  0  0  0  0  0  0  0
   20.5515  -20.7151  -18.3416 O   0  0  0  0  0  0  0  0  0  0  0  0
   23.7693  -20.0779  -13.1249 C   0  0  0  0  0  0  0  0  0  0  0  0
   23.7409  -19.1996  -12.1874 O   0  0  0  0  0  0  0  0  0  0  0  0
   22.1493  -19.1335  -18.0372 O   0  0  0  0  0  0  0  0  0  0  0  0
   26.4883  -19.2558   -7.9399 C   0  0  0  0  0  0  0  0  0  0  0  0
   25.7259  -20.8442   -8.3406 S   0  0  0  0  0  0  0  0  0  0  0  0
   26.4026  -21.4693   -9.8868 C   0  0  0  0  0  0  0  0  0  0  0  0
   25.5443  -21.2892  -11.0794 C   0  0  0  0  0  0  0  0  0  0  0  0
   26.1034  -20.6476  -12.3006 C   0  0  2  0  0  0  0  0  0  0  0  0
   25.0391  -20.6771  -13.3500 N   0  0  0  0  0  0  0  0  0  0  0  0
   27.3247  -21.2289  -12.8330 C   0  0  0  0  0  0  0  0  0  0  0  0
   28.4661  -20.9868  -12.3862 O   0  0  0  0  0  0  0  0  0  0  0  0
   27.2458  -22.1263  -13.9239 O   0  0  0  0  0  0  0  0  0  0  0  0
  1  2  1  0
  3  5  1  0
  3  2  1  0
  4  3  2  0
  6  5  1  0
  6 11  1  0
  6  7  1  6
  8  7  1  0
  9  8  1  0
 10  9  2  0
 11 19  1  0
 11 12  2  0
 13  9  1  0
 14 15  1  0
 15 16  1  0
 16 17  1  0
 18 17  1  1
 19 18  1  0
 20 18  1  0
 20 22  1  0
 21 20  2  0
M  END
$$$$
