GEM.pdb
     RDKit          3D

 22 21  0  0  1  0  0  0  0  0999 V2000
   12.9202  -11.4901   -9.7169 N   0  0  0  0  0  0  0  0  0  0  0  0
   13.5776  -10.9548  -10.8922 C   0  0  0  0  0  0  0  0  0  0  0  0
   14.4662   -9.8548  -10.4695 C   0  0  0  0  0  0  0  0  0  0  0  0
   14.3289   -9.3442   -9.3162 O   0  0  0  0  0  0  0  0  0  0  0  0
   15.4930   -9.3001  -11.2599 N   0  0  0  0  0  0  0  0  0  0  0  0
   16.2840   -8.1319  -10.8870 C   0  0  1  0  0  0  0  0  0  0  0  0
   17.3910   -8.0181  -11.8881 C   0  0  0  0  0  0  0  0  0  0  0  0
   18.6112   -8.8357  -11.6675 C   0  0  0  0  0  0  0  0  0  0  0  0
   19.6843   -8.6591  -12.6651 C   0  0  0  0  0  0  0  0  0  0  0  0
   19.4533   -8.9385  -13.8839 O   0  0  0  0  0  0  0  0  0  0  0  0
   15.5260   -6.9596  -10.5239 C   0  0  0  0  0  0  0  0  0  0  0  0
   14.5596   -6.5457  -11.2628 O   0  0  0  0  0  0  0  0  0  0  0  0
   20.9484   -8.1999  -12.3456 O   0  0  0  0  0  0  0  0  0  0  0  0
   12.0524   -2.6774   -5.0261 C   0  0  0  0  0  0  0  0  0  0  0  0
   12.8047   -4.2055   -5.6293 S   0  0  0  0  0  0  0  0  0  0  0  0
   13.6354   -3.8959   -7.1956 C   0  0  0  0  0  0  0  0  0  0  0  0
   14.3178   -5.0628   -7.7990 C   0  0  0  0  0  0  0  0  0  0  0  0
   15.0155   -4.9151   -9.1054 C   0  0  2  0  0  0  0  0  0  0  0  0
   15.7677   -6.1821   -9.3579 N   0  0  0  0  0  0  0  0  0  0  0  0
   15.9184   -3.7829   -9.2301 C   0  0  0  0  0  0  0  0  0  0  0  0
   17.1641   -3.8771   -9.2079 O   0  0  0  0  0  0  0  0  0  0  0  0
   15.3816   -2.4834   -9.3868 O   0  0  0  0  0  0  0  0  0  0  0  0
  1  2  1  0
  3  5  1  0
  3  2  1  0
  4  3  2  0
  6  5  1  0
  6 11  1  0
  6  7  1  6
  8  7  1  0
  9  8  1  0
 10  9  2  0
 11 19  1  0
 11 12  2  0
 13  9  1  0
 14 15  1  0
 15 16  1  0
 16 17  1  0
 18 17  1  1
 19 18  1  0
 20 18  1  0
 20 22  1  0
 21 20  2  0
M  END
$$$$
