LRK.pdb
     RDKit          3D

 29 28  0  0  1  0  0  0  0  0999 V2000
   26.8099  -23.3570  -22.0843 C   0  0  0  0  0  0  0  0  0  0  0  0
   27.3260  -22.4998  -20.9644 C   0  0  1  0  0  0  0  0  0  0  0  0
   27.6413  -21.1136  -21.5026 C   0  0  0  0  0  0  0  0  0  0  0  0
   26.3303  -22.4008  -19.8377 C   0  0  0  0  0  0  0  0  0  0  0  0
   26.8346  -21.4676  -18.7980 C   0  0  2  0  0  0  0  0  0  0  0  0
   28.1638  -21.7622  -18.3470 N   0  0  0  0  0  0  0  0  0  0  0  0
   25.9487  -21.4480  -17.5814 C   0  0  0  0  0  0  0  0  0  0  0  0
   24.7061  -21.6277  -17.6565 O   0  0  0  0  0  0  0  0  0  0  0  0
   26.2131  -20.5531   -9.4847 N   0  0  0  0  0  0  0  0  0  0  0  0
   24.8498  -20.8746   -9.6905 C   0  0  0  0  0  0  0  0  0  0  0  0
   23.8874  -20.4009   -8.9537 N   0  0  0  0  0  0  0  0  0  0  0  0
   24.4917  -21.7672  -10.7621 N   0  0  0  0  0  0  0  0  0  0  0  0
   25.3738  -21.9248  -11.8919 C   0  0  0  0  0  0  0  0  0  0  0  0
   25.5258  -20.6240  -12.6473 C   0  0  0  0  0  0  0  0  0  0  0  0
   26.3705  -20.8660  -13.8505 C   0  0  0  0  0  0  0  0  0  0  0  0
   25.6321  -21.0946  -15.1268 C   0  0  2  0  0  0  0  0  0  0  0  0
   26.4855  -21.2234  -16.2830 N   0  0  0  0  0  0  0  0  0  0  0  0
   24.5364  -20.1157  -15.2923 C   0  0  0  0  0  0  0  0  0  0  0  0
   24.8460  -18.9111  -15.4451 O   0  0  0  0  0  0  0  0  0  0  0  0
   22.9210  -20.6852   -9.2275 N   0  0  0  0  0  0  0  0  0  0  0  0
   23.1573  -20.4570  -15.2869 C   0  0  2  0  0  0  0  0  0  0  0  0
   22.0865  -19.4811  -15.3546 C   0  0  0  0  0  0  0  0  0  0  0  0
   21.3774  -19.6641  -16.6532 C   0  0  0  0  0  0  0  0  0  0  0  0
   20.1940  -18.7520  -16.8363 C   0  0  0  0  0  0  0  0  0  0  0  0
   19.4887  -18.9708  -18.1469 C   0  0  0  0  0  0  0  0  0  0  0  0
   18.4308  -17.8729  -18.2627 N   0  0  0  0  0  0  0  0  0  0  0  0
   17.8367  -17.9144  -19.5707 C   0  0  0  0  0  0  0  0  0  0  0  0
   21.2373  -19.6323  -14.1664 O   0  0  0  0  0  0  0  0  0  0  0  0
   21.2077  -20.6763  -13.4586 O   0  0  0  0  0  0  0  0  0  0  0  0
  2  1  1  6
  2  3  1  0
  4  2  1  0
  5  4  1  0
  5  6  1  1
  7  8  2  0
  7  5  1  0
  9 10  1  0
 10 12  1  0
 11 10  2  0
 12 13  1  0
 13 14  1  0
 16 15  1  1
 15 14  1  0
 16 17  1  0
 17  7  1  0
 18 16  1  0
 19 18  2  0
 20 18  1  0
 21 27  1  0
 21 20  1  0
 21 22  1  6
 23 22  1  0
 24 23  1  0
 25 24  1  0
 26 25  1  0
 27 29  1  0
 28 27  2  0
M  END
$$$$
