LRK.pdb
     RDKit          3D

 29 28  0  0  1  0  0  0  0  0999 V2000
   29.2659  -21.7349  -21.4322 C   0  0  0  0  0  0  0  0  0  0  0  0
   29.2581  -22.3392  -20.0574 C   0  0  1  0  0  0  0  0  0  0  0  0
   30.5518  -21.9767  -19.3464 C   0  0  0  0  0  0  0  0  0  0  0  0
   28.0767  -21.8661  -19.2505 C   0  0  0  0  0  0  0  0  0  0  0  0
   28.1207  -22.4639  -17.8915 C   0  0  2  0  0  0  0  0  0  0  0  0
   27.9327  -23.8856  -17.8750 N   0  0  0  0  0  0  0  0  0  0  0  0
   27.0802  -21.8694  -16.9808 C   0  0  0  0  0  0  0  0  0  0  0  0
   25.8677  -22.1974  -17.0474 O   0  0  0  0  0  0  0  0  0  0  0  0
   24.7017  -20.1616   -9.6818 N   0  0  0  0  0  0  0  0  0  0  0  0
   25.8748  -20.8823  -10.0117 C   0  0  0  0  0  0  0  0  0  0  0  0
   26.1334  -22.0713   -9.5502 N   0  0  0  0  0  0  0  0  0  0  0  0
   26.8396  -20.2870  -10.8993 N   0  0  0  0  0  0  0  0  0  0  0  0
   26.5387  -19.0390  -11.5561 C   0  0  0  0  0  0  0  0  0  0  0  0
   25.9045  -19.2763  -12.9079 C   0  0  0  0  0  0  0  0  0  0  0  0
   26.9019  -19.9396  -13.7939 C   0  0  0  0  0  0  0  0  0  0  0  0
   26.4271  -20.2768  -15.1678 C   0  0  2  0  0  0  0  0  0  0  0  0
   27.4285  -20.9022  -15.9972 N   0  0  0  0  0  0  0  0  0  0  0  0
   25.7573  -19.1201  -15.7998 C   0  0  0  0  0  0  0  0  0  0  0  0
   26.4475  -18.1011  -16.0354 O   0  0  0  0  0  0  0  0  0  0  0  0
   27.0292  -22.5004   -9.8716 N   0  0  0  0  0  0  0  0  0  0  0  0
   24.3817  -19.0935  -16.1539 C   0  0  2  0  0  0  0  0  0  0  0  0
   23.7023  -17.9141  -16.6550 C   0  0  0  0  0  0  0  0  0  0  0  0
   23.2907  -18.1822  -18.0626 C   0  0  0  0  0  0  0  0  0  0  0  0
   22.4632  -17.0847  -18.6762 C   0  0  0  0  0  0  0  0  0  0  0  0
   21.9481  -17.4406  -20.0441 C   0  0  0  0  0  0  0  0  0  0  0  0
   21.1858  -16.2179  -20.5559 N   0  0  0  0  0  0  0  0  0  0  0  0
   20.7091  -16.4720  -21.8877 C   0  0  0  0  0  0  0  0  0  0  0  0
   22.5973  -17.5865  -15.7455 O   0  0  0  0  0  0  0  0  0  0  0  0
   22.0893  -16.4353  -15.6514 O   0  0  0  0  0  0  0  0  0  0  0  0
  2  1  1  6
  2  3  1  0
  4  2  1  0
  5  4  1  0
  5  6  1  6
  7  8  2  0
  7  5  1  0
  9 10  1  0
 10 12  1  0
 11 10  2  0
 12 13  1  0
 13 14  1  0
 16 15  1  1
 15 14  1  0
 16 17  1  0
 17  7  1  0
 18 16  1  0
 19 18  2  0
 20 18  1  0
 21 27  1  0
 21 20  1  0
 21 22  1  6
 23 22  1  0
 24 23  1  0
 25 24  1  0
 26 25  1  0
 27 29  1  0
 28 27  2  0
M  END
$$$$
