LRK.pdb
     RDKit          3D

 29 28  0  0  1  0  0  0  0  0999 V2000
   27.2849  -18.6209   -7.6895 C   0  0  0  0  0  0  0  0  0  0  0  0
   26.9854  -19.9544   -8.3119 C   0  0  1  0  0  0  0  0  0  0  0  0
   26.7611  -20.9787   -7.2115 C   0  0  0  0  0  0  0  0  0  0  0  0
   25.7764  -19.8887   -9.2089 C   0  0  0  0  0  0  0  0  0  0  0  0
   25.6223  -21.1700   -9.9443 C   0  0  2  0  0  0  0  0  0  0  0  0
   26.8051  -21.5877  -10.6393 N   0  0  0  0  0  0  0  0  0  0  0  0
   24.5120  -21.1071  -10.9585 C   0  0  0  0  0  0  0  0  0  0  0  0
   24.6764  -20.6031  -12.0991 O   0  0  0  0  0  0  0  0  0  0  0  0
   18.7036  -24.3007   -6.9517 N   0  0  0  0  0  0  0  0  0  0  0  0
   18.0551  -24.2197   -8.2076 C   0  0  0  0  0  0  0  0  0  0  0  0
   16.7975  -24.5069   -8.3794 N   0  0  0  0  0  0  0  0  0  0  0  0
   18.8073  -23.8011   -9.3618 N   0  0  0  0  0  0  0  0  0  0  0  0
   20.2145  -23.5122   -9.2371 C   0  0  0  0  0  0  0  0  0  0  0  0
   20.5318  -22.1270   -9.7531 C   0  0  0  0  0  0  0  0  0  0  0  0
   20.8911  -22.2250  -11.1956 C   0  0  0  0  0  0  0  0  0  0  0  0
   22.1300  -21.5019  -11.6068 C   0  0  2  0  0  0  0  0  0  0  0  0
   23.2175  -21.6202  -10.6661 N   0  0  0  0  0  0  0  0  0  0  0  0
   21.8281  -20.1111  -12.0075 C   0  0  0  0  0  0  0  0  0  0  0  0
   22.3344  -19.1846  -11.3325 O   0  0  0  0  0  0  0  0  0  0  0  0
   16.4546  -24.4827   -9.3651 N   0  0  0  0  0  0  0  0  0  0  0  0
   20.9995  -19.7623  -13.1076 C   0  0  2  0  0  0  0  0  0  0  0  0
   21.4685  -19.0285  -14.2674 C   0  0  0  0  0  0  0  0  0  0  0  0
   22.7974  -19.5812  -14.6563 C   0  0  0  0  0  0  0  0  0  0  0  0
   23.4276  -18.8849  -15.8327 C   0  0  0  0  0  0  0  0  0  0  0  0
   24.7081  -19.5377  -16.2769 C   0  0  0  0  0  0  0  0  0  0  0  0
   25.2087  -18.7422  -17.4830 N   0  0  0  0  0  0  0  0  0  0  0  0
   26.4729  -19.2712  -17.9161 C   0  0  0  0  0  0  0  0  0  0  0  0
   20.4437  -19.1025  -15.3161 O   0  0  0  0  0  0  0  0  0  0  0  0
   19.7836  -20.1464  -15.5738 O   0  0  0  0  0  0  0  0  0  0  0  0
  2  1  1  1
  2  3  1  0
  4  2  1  0
  5  4  1  0
  5  6  1  6
  7  8  2  0
  7  5  1  0
  9 10  1  0
 10 12  1  0
 11 10  2  0
 12 13  1  0
 13 14  1  0
 16 15  1  1
 15 14  1  0
 16 17  1  0
 17  7  1  0
 18 16  1  0
 19 18  2  0
 20 18  1  0
 21 27  1  0
 21 20  1  0
 21 22  1  1
 23 22  1  0
 24 23  1  0
 25 24  1  0
 26 25  1  0
 27 29  1  0
 28 27  2  0
M  END
$$$$
