LRK.pdb
     RDKit          3D

 29 28  0  0  1  0  0  0  0  0999 V2000
   15.3756  -15.3326  -14.6644 C   0  0  0  0  0  0  0  0  0  0  0  0
   14.5404  -14.0956  -14.4983 C   0  0  1  0  0  0  0  0  0  0  0  0
   13.4432  -14.3680  -13.4821 C   0  0  0  0  0  0  0  0  0  0  0  0
   15.3725  -12.9200  -14.0555 C   0  0  0  0  0  0  0  0  0  0  0  0
   14.5034  -11.7322  -13.8556 C   0  0  2  0  0  0  0  0  0  0  0  0
   13.8640  -11.2708  -15.0536 N   0  0  0  0  0  0  0  0  0  0  0  0
   15.2652  -10.5669  -13.2836 C   0  0  0  0  0  0  0  0  0  0  0  0
   15.9195  -10.6568  -12.2131 O   0  0  0  0  0  0  0  0  0  0  0  0
   20.7529   -6.1062  -12.9157 N   0  0  0  0  0  0  0  0  0  0  0  0
   20.6490   -7.1032  -13.9155 C   0  0  0  0  0  0  0  0  0  0  0  0
   21.3120   -8.2224  -13.8767 N   0  0  0  0  0  0  0  0  0  0  0  0
   19.7724   -6.8860  -15.0369 N   0  0  0  0  0  0  0  0  0  0  0  0
   18.6907   -5.9384  -14.9311 C   0  0  0  0  0  0  0  0  0  0  0  0
   17.6962   -6.3656  -13.8755 C   0  0  0  0  0  0  0  0  0  0  0  0
   17.0308   -7.6204  -14.3257 C   0  0  0  0  0  0  0  0  0  0  0  0
   16.0078   -8.1824  -13.3961 C   0  0  2  0  0  0  0  0  0  0  0  0
   15.2769   -9.3028  -13.9366 N   0  0  0  0  0  0  0  0  0  0  0  0
   15.1496   -7.1152  -12.8387 C   0  0  0  0  0  0  0  0  0  0  0  0
   14.2152   -6.6826  -13.5531 O   0  0  0  0  0  0  0  0  0  0  0  0
   21.1341   -8.8855  -14.6631 N   0  0  0  0  0  0  0  0  0  0  0  0
   15.3206   -6.5507  -11.5462 C   0  0  2  0  0  0  0  0  0  0  0  0
   14.4778   -5.4997  -11.0091 C   0  0  0  0  0  0  0  0  0  0  0  0
   14.4618   -5.6351   -9.5245 C   0  0  0  0  0  0  0  0  0  0  0  0
   13.5431   -4.6637   -8.8328 C   0  0  0  0  0  0  0  0  0  0  0  0
   13.5802   -4.7946   -7.3346 C   0  0  0  0  0  0  0  0  0  0  0  0
   12.5858   -3.7731   -6.7818 N   0  0  0  0  0  0  0  0  0  0  0  0
   12.5325   -3.8811   -5.3496 C   0  0  0  0  0  0  0  0  0  0  0  0
   14.9687   -4.2064  -11.5009 O   0  0  0  0  0  0  0  0  0  0  0  0
   16.1769   -3.9823  -11.7876 O   0  0  0  0  0  0  0  0  0  0  0  0
  2  1  1  1
  2  3  1  0
  4  2  1  0
  5  4  1  0
  5  6  1  6
  7  8  2  0
  7  5  1  0
  9 10  1  0
 10 12  1  0
 11 10  2  0
 12 13  1  0
 13 14  1  0
 16 15  1  6
 15 14  1  0
 16 17  1  0
 17  7  1  0
 18 16  1  0
 19 18  2  0
 20 18  1  0
 21 27  1  0
 21 20  1  0
 21 22  1  1
 23 22  1  0
 24 23  1  0
 25 24  1  0
 26 25  1  0
 27 29  1  0
 28 27  2  0
M  END
$$$$
