LRK.pdb
     RDKit          3D

 29 28  0  0  1  0  0  0  0  0999 V2000
   25.3096  -17.0221  -20.0137 C   0  0  0  0  0  0  0  0  0  0  0  0
   24.6466  -16.8736  -18.6744 C   0  0  1  0  0  0  0  0  0  0  0  0
   23.6178  -15.7571  -18.7487 C   0  0  0  0  0  0  0  0  0  0  0  0
   23.9854  -18.1553  -18.2378 C   0  0  0  0  0  0  0  0  0  0  0  0
   23.2639  -17.9413  -16.9572 C   0  0  2  0  0  0  0  0  0  0  0  0
   24.1219  -17.6300  -15.8510 N   0  0  0  0  0  0  0  0  0  0  0  0
   22.4502  -19.1441  -16.5615 C   0  0  0  0  0  0  0  0  0  0  0  0
   21.4996  -19.5694  -17.2667 O   0  0  0  0  0  0  0  0  0  0  0  0
   27.1743  -21.4869  -13.4582 N   0  0  0  0  0  0  0  0  0  0  0  0
   26.3691  -21.5575  -12.2959 C   0  0  0  0  0  0  0  0  0  0  0  0
   26.6399  -20.9073  -11.2015 N   0  0  0  0  0  0  0  0  0  0  0  0
   25.1897  -22.3833  -12.3064 N   0  0  0  0  0  0  0  0  0  0  0  0
   24.8497  -23.1366  -13.4880 C   0  0  0  0  0  0  0  0  0  0  0  0
   24.2094  -22.2496  -14.5316 C   0  0  0  0  0  0  0  0  0  0  0  0
   22.7961  -21.9911  -14.1372 C   0  0  0  0  0  0  0  0  0  0  0  0
   22.0289  -21.0770  -15.0329 C   0  0  2  0  0  0  0  0  0  0  0  0
   22.7255  -19.8569  -15.3612 N   0  0  0  0  0  0  0  0  0  0  0  0
   20.6532  -20.8697  -14.5322 C   0  0  0  0  0  0  0  0  0  0  0  0
   20.4883  -20.0547  -13.5946 O   0  0  0  0  0  0  0  0  0  0  0  0
   25.9188  -20.9612  -10.4486 N   0  0  0  0  0  0  0  0  0  0  0  0
   19.5102  -21.5381  -15.0471 C   0  0  1  0  0  0  0  0  0  0  0  0
   18.1505  -21.2331  -14.6451 C   0  0  0  0  0  0  0  0  0  0  0  0
   17.2593  -21.4694  -15.8167 C   0  0  0  0  0  0  0  0  0  0  0  0
   15.8091  -21.1648  -15.5518 C   0  0  0  0  0  0  0  0  0  0  0  0
   14.9389  -21.3860  -16.7588 C   0  0  0  0  0  0  0  0  0  0  0  0
   13.5231  -20.9689  -16.3592 N   0  0  0  0  0  0  0  0  0  0  0  0
   12.6281  -21.1899  -17.4618 C   0  0  0  0  0  0  0  0  0  0  0  0
   17.8225  -22.0290  -13.4557 O   0  0  0  0  0  0  0  0  0  0  0  0
   18.3749  -23.1290  -13.1785 O   0  0  0  0  0  0  0  0  0  0  0  0
  2  1  1  6
  2  3  1  0
  4  2  1  0
  5  4  1  0
  5  6  1  1
  7  8  2  0
  7  5  1  0
  9 10  1  0
 10 12  1  0
 11 10  2  0
 12 13  1  0
 13 14  1  0
 16 15  1  1
 15 14  1  0
 16 17  1  0
 17  7  1  0
 18 16  1  0
 19 18  2  0
 20 18  1  0
 21 27  1  0
 21 20  1  0
 21 22  1  1
 23 22  1  0
 24 23  1  0
 25 24  1  0
 26 25  1  0
 27 29  1  0
 28 27  2  0
M  END
$$$$
