LRK.pdb
     RDKit          3D

 29 28  0  0  1  0  0  0  0  0999 V2000
   28.3324  -15.4500  -22.3627 C   0  0  0  0  0  0  0  0  0  0  0  0
   27.6745  -15.3425  -21.0170 C   0  0  1  0  0  0  0  0  0  0  0  0
   26.7591  -14.1290  -21.0054 C   0  0  0  0  0  0  0  0  0  0  0  0
   26.8884  -16.5840  -20.6833 C   0  0  0  0  0  0  0  0  0  0  0  0
   26.2400  -16.4303  -19.3559 C   0  0  2  0  0  0  0  0  0  0  0  0
   27.1445  -16.0612  -18.3058 N   0  0  0  0  0  0  0  0  0  0  0  0
   25.5458  -17.6922  -18.9188 C   0  0  0  0  0  0  0  0  0  0  0  0
   24.6655  -18.2492  -19.6237 O   0  0  0  0  0  0  0  0  0  0  0  0
   24.4006  -24.8166  -15.5007 N   0  0  0  0  0  0  0  0  0  0  0  0
   25.4091  -24.8599  -16.4934 C   0  0  0  0  0  0  0  0  0  0  0  0
   25.4862  -25.8005  -17.3895 N   0  0  0  0  0  0  0  0  0  0  0  0
   26.4061  -23.8217  -16.5288 N   0  0  0  0  0  0  0  0  0  0  0  0
   26.3328  -22.7222  -15.5987 C   0  0  0  0  0  0  0  0  0  0  0  0
   25.3037  -21.7061  -16.0396 C   0  0  0  0  0  0  0  0  0  0  0  0
   26.0117  -20.5230  -16.6043 C   0  0  0  0  0  0  0  0  0  0  0  0
   25.1413  -19.4756  -17.2141 C   0  0  2  0  0  0  0  0  0  0  0  0
   25.8596  -18.3133  -17.6777 N   0  0  0  0  0  0  0  0  0  0  0  0
   23.9896  -19.1639  -16.3408 C   0  0  0  0  0  0  0  0  0  0  0  0
   24.2241  -18.6310  -15.2310 O   0  0  0  0  0  0  0  0  0  0  0  0
   26.2626  -25.7088  -18.0813 N   0  0  0  0  0  0  0  0  0  0  0  0
   22.6370  -19.4326  -16.6820 C   0  0  2  0  0  0  0  0  0  0  0  0
   21.5047  -18.9982  -15.8864 C   0  0  0  0  0  0  0  0  0  0  0  0
   20.4155  -18.5902  -16.8190 C   0  0  0  0  0  0  0  0  0  0  0  0
   19.1255  -18.2315  -16.1312 C   0  0  0  0  0  0  0  0  0  0  0  0
   17.9953  -18.0034  -17.0975 C   0  0  0  0  0  0  0  0  0  0  0  0
   16.7619  -17.6712  -16.2571 N   0  0  0  0  0  0  0  0  0  0  0  0
   15.6364  -17.4494  -17.1229 C   0  0  0  0  0  0  0  0  0  0  0  0
   21.1433  -20.0752  -14.9563 O   0  0  0  0  0  0  0  0  0  0  0  0
   21.2217  -21.3011  -15.2444 O   0  0  0  0  0  0  0  0  0  0  0  0
  2  1  1  6
  2  3  1  0
  4  2  1  0
  5  4  1  0
  5  6  1  1
  7  8  2  0
  7  5  1  0
  9 10  1  0
 10 12  1  0
 11 10  2  0
 12 13  1  0
 13 14  1  0
 16 15  1  1
 15 14  1  0
 16 17  1  0
 17  7  1  0
 18 16  1  0
 19 18  2  0
 20 18  1  0
 21 27  1  0
 21 20  1  0
 21 22  1  6
 23 22  1  0
 24 23  1  0
 25 24  1  0
 26 25  1  0
 27 29  1  0
 28 27  2  0
M  END
$$$$
