LRK.pdb
     RDKit          3D

 29 28  0  0  1  0  0  0  0  0999 V2000
   28.6203  -19.0163   -6.3021 C   0  0  0  0  0  0  0  0  0  0  0  0
   27.9540  -20.1171   -7.0765 C   0  0  1  0  0  0  0  0  0  0  0  0
   27.0705  -20.9225   -6.1378 C   0  0  0  0  0  0  0  0  0  0  0  0
   27.1331  -19.5740   -8.2175 C   0  0  0  0  0  0  0  0  0  0  0  0
   26.6010  -20.6940   -9.0353 C   0  0  2  0  0  0  0  0  0  0  0  0
   27.6040  -21.6183   -9.4787 N   0  0  0  0  0  0  0  0  0  0  0  0
   25.8792  -20.2026  -10.2612 C   0  0  0  0  0  0  0  0  0  0  0  0
   24.9166  -19.3960  -10.1917 O   0  0  0  0  0  0  0  0  0  0  0  0
   30.3289  -21.8352  -14.2341 N   0  0  0  0  0  0  0  0  0  0  0  0
   29.3702  -22.1833  -15.2159 C   0  0  0  0  0  0  0  0  0  0  0  0
   29.2528  -23.3847  -15.7021 N   0  0  0  0  0  0  0  0  0  0  0  0
   28.4731  -21.1724  -15.7125 N   0  0  0  0  0  0  0  0  0  0  0  0
   28.4742  -19.8569  -15.1219 C   0  0  0  0  0  0  0  0  0  0  0  0
   27.7893  -19.8667  -13.7740 C   0  0  0  0  0  0  0  0  0  0  0  0
   26.3419  -20.1564  -13.9755 C   0  0  0  0  0  0  0  0  0  0  0  0
   25.5172  -20.2386  -12.7346 C   0  0  2  0  0  0  0  0  0  0  0  0
   26.2595  -20.6345  -11.5625 N   0  0  0  0  0  0  0  0  0  0  0  0
   24.2863  -21.0252  -12.9629 C   0  0  0  0  0  0  0  0  0  0  0  0
   24.3885  -22.2736  -13.0024 O   0  0  0  0  0  0  0  0  0  0  0  0
   28.5638  -23.4974  -16.4782 N   0  0  0  0  0  0  0  0  0  0  0  0
   22.9983  -20.4529  -13.1414 C   0  0  1  0  0  0  0  0  0  0  0  0
   21.7841  -21.2329  -13.2863 C   0  0  0  0  0  0  0  0  0  0  0  0
   20.6256  -20.3409  -12.9951 C   0  0  0  0  0  0  0  0  0  0  0  0
   19.2855  -21.0033  -13.1721 C   0  0  0  0  0  0  0  0  0  0  0  0
   18.6216  -21.3311  -11.8626 C   0  0  0  0  0  0  0  0  0  0  0  0
   17.3041  -22.0284  -12.2030 N   0  0  0  0  0  0  0  0  0  0  0  0
   16.6395  -22.4181  -10.9897 C   0  0  0  0  0  0  0  0  0  0  0  0
   21.7708  -21.8372  -14.6243 O   0  0  0  0  0  0  0  0  0  0  0  0
   22.3819  -21.3509  -15.6153 O   0  0  0  0  0  0  0  0  0  0  0  0
  2  1  1  1
  2  3  1  0
  4  2  1  0
  5  4  1  0
  5  6  1  6
  7  8  2  0
  7  5  1  0
  9 10  1  0
 10 12  1  0
 11 10  2  0
 12 13  1  0
 13 14  1  0
 16 15  1  6
 15 14  1  0
 16 17  1  0
 17  7  1  0
 18 16  1  0
 19 18  2  0
 20 18  1  0
 21 27  1  0
 21 20  1  0
 21 22  1  6
 23 22  1  0
 24 23  1  0
 25 24  1  0
 26 25  1  0
 27 29  1  0
 28 27  2  0
M  END
$$$$
