LRK.pdb
     RDKit          3D

 29 28  0  0  1  0  0  0  0  0999 V2000
   18.8836  -16.6398  -14.9921 C   0  0  0  0  0  0  0  0  0  0  0  0
   19.8819  -17.5588  -14.3486 C   0  0  1  0  0  0  0  0  0  0  0  0
   19.9876  -17.2228  -12.8699 C   0  0  0  0  0  0  0  0  0  0  0  0
   19.4965  -19.0052  -14.5220 C   0  0  0  0  0  0  0  0  0  0  0  0
   20.4501  -19.8742  -13.7860 C   0  0  2  0  0  0  0  0  0  0  0  0
   21.7962  -19.8066  -14.2761 N   0  0  0  0  0  0  0  0  0  0  0  0
   20.0376  -21.3212  -13.8237 C   0  0  0  0  0  0  0  0  0  0  0  0
   18.9276  -21.7115  -13.3790 O   0  0  0  0  0  0  0  0  0  0  0  0
   23.6330  -24.7864  -17.5456 N   0  0  0  0  0  0  0  0  0  0  0  0
   24.0541  -25.7742  -16.6230 C   0  0  0  0  0  0  0  0  0  0  0  0
   25.2845  -25.8887  -16.2146 N   0  0  0  0  0  0  0  0  0  0  0  0
   23.0886  -26.7058  -16.1005 N   0  0  0  0  0  0  0  0  0  0  0  0
   21.7144  -26.6347  -16.5314 C   0  0  0  0  0  0  0  0  0  0  0  0
   20.8532  -25.9576  -15.4894 C   0  0  0  0  0  0  0  0  0  0  0  0
   21.2449  -24.5226  -15.4048 C   0  0  0  0  0  0  0  0  0  0  0  0
   20.5152  -23.7092  -14.3886 C   0  0  2  0  0  0  0  0  0  0  0  0
   20.8945  -22.3173  -14.3693 N   0  0  0  0  0  0  0  0  0  0  0  0
   20.5453  -24.3608  -13.0617 C   0  0  0  0  0  0  0  0  0  0  0  0
   21.6558  -24.4801  -12.4934 O   0  0  0  0  0  0  0  0  0  0  0  0
   25.4947  -26.7275  -15.6298 N   0  0  0  0  0  0  0  0  0  0  0  0
   19.3947  -24.8599  -12.3944 C   0  0  1  0  0  0  0  0  0  0  0  0
   19.4290  -25.4729  -11.0804 C   0  0  0  0  0  0  0  0  0  0  0  0
   18.5446  -24.6807  -10.1788 C   0  0  0  0  0  0  0  0  0  0  0  0
   18.4963  -25.1948   -8.7649 C   0  0  0  0  0  0  0  0  0  0  0  0
   17.6824  -24.3164   -7.8544 C   0  0  0  0  0  0  0  0  0  0  0  0
   17.7129  -24.9714   -6.4730 N   0  0  0  0  0  0  0  0  0  0  0  0
   17.0280  -24.1322   -5.5284 C   0  0  0  0  0  0  0  0  0  0  0  0
   19.0598  -26.8877  -11.2122 O   0  0  0  0  0  0  0  0  0  0  0  0
   18.2496  -27.3194  -12.0778 O   0  0  0  0  0  0  0  0  0  0  0  0
  2  1  1  1
  2  3  1  0
  4  2  1  0
  5  4  1  0
  5  6  1  6
  7  8  2  0
  7  5  1  0
  9 10  1  0
 10 12  1  0
 11 10  2  0
 12 13  1  0
 13 14  1  0
 16 15  1  6
 15 14  1  0
 16 17  1  0
 17  7  1  0
 18 16  1  0
 19 18  2  0
 20 18  1  0
 21 27  1  0
 21 20  1  0
 21 22  1  1
 23 22  1  0
 24 23  1  0
 25 24  1  0
 26 25  1  0
 27 29  1  0
 28 27  2  0
M  END
$$$$
