LRK.pdb
     RDKit          3D

 29 28  0  0  1  0  0  0  0  0999 V2000
   25.7084  -12.6685  -16.3515 C   0  0  0  0  0  0  0  0  0  0  0  0
   26.3141  -14.0424  -16.3775 C   0  0  1  0  0  0  0  0  0  0  0  0
   26.8800  -14.3636  -15.0038 C   0  0  0  0  0  0  0  0  0  0  0  0
   25.3031  -15.0867  -16.7752 C   0  0  0  0  0  0  0  0  0  0  0  0
   25.9103  -16.4391  -16.6831 C   0  0  2  0  0  0  0  0  0  0  0  0
   27.0033  -16.6489  -17.5877 N   0  0  0  0  0  0  0  0  0  0  0  0
   24.9039  -17.5272  -16.9451 C   0  0  0  0  0  0  0  0  0  0  0  0
   24.2618  -17.5979  -18.0243 O   0  0  0  0  0  0  0  0  0  0  0  0
   26.4840  -24.1240  -16.3868 N   0  0  0  0  0  0  0  0  0  0  0  0
   25.6359  -24.2041  -17.5175 C   0  0  0  0  0  0  0  0  0  0  0  0
   26.0308  -24.6528  -18.6736 N   0  0  0  0  0  0  0  0  0  0  0  0
   24.2670  -23.7729  -17.4019 N   0  0  0  0  0  0  0  0  0  0  0  0
   23.7536  -23.3440  -16.1244 C   0  0  0  0  0  0  0  0  0  0  0  0
   23.0768  -21.9967  -16.2362 C   0  0  0  0  0  0  0  0  0  0  0  0
   24.0915  -20.9312  -16.0023 C   0  0  0  0  0  0  0  0  0  0  0  0
   23.6144  -19.5291  -16.1837 C   0  0  2  0  0  0  0  0  0  0  0  0
   24.6345  -18.5307  -15.9731 N   0  0  0  0  0  0  0  0  0  0  0  0
   22.3683  -19.2870  -15.4256 C   0  0  0  0  0  0  0  0  0  0  0  0
   22.4500  -19.1981  -14.1783 O   0  0  0  0  0  0  0  0  0  0  0  0
   25.3160  -24.6449  -19.4343 N   0  0  0  0  0  0  0  0  0  0  0  0
   21.0870  -19.1510  -16.0240 C   0  0  2  0  0  0  0  0  0  0  0  0
   19.8641  -18.9499  -15.2705 C   0  0  0  0  0  0  0  0  0  0  0  0
   18.9606  -18.0838  -16.0806 C   0  0  0  0  0  0  0  0  0  0  0  0
   17.6609  -17.7507  -15.3982 C   0  0  0  0  0  0  0  0  0  0  0  0
   16.7312  -16.9563  -16.2743 C   0  0  0  0  0  0  0  0  0  0  0  0
   15.4718  -16.6915  -15.4486 N   0  0  0  0  0  0  0  0  0  0  0  0
   14.6487  -15.7262  -16.1240 C   0  0  0  0  0  0  0  0  0  0  0  0
   19.3052  -20.2623  -14.9230 O   0  0  0  0  0  0  0  0  0  0  0  0
   19.4704  -21.2984  -15.6238 O   0  0  0  0  0  0  0  0  0  0  0  0
  2  1  1  1
  2  3  1  0
  4  2  1  0
  5  4  1  0
  5  6  1  6
  7  8  2  0
  7  5  1  0
  9 10  1  0
 10 12  1  0
 11 10  2  0
 12 13  1  0
 13 14  1  0
 16 15  1  1
 15 14  1  0
 16 17  1  0
 17  7  1  0
 18 16  1  0
 19 18  2  0
 20 18  1  0
 21 27  1  0
 21 20  1  0
 21 22  1  6
 23 22  1  0
 24 23  1  0
 25 24  1  0
 26 25  1  0
 27 29  1  0
 28 27  2  0
M  END
$$$$
