LRK.pdb
     RDKit          3D

 29 28  0  0  1  0  0  0  0  0999 V2000
   25.0347  -14.2213  -15.9890 C   0  0  0  0  0  0  0  0  0  0  0  0
   26.0769  -15.2080  -16.4314 C   0  0  1  0  0  0  0  0  0  0  0  0
   27.4566  -14.6222  -16.1790 C   0  0  0  0  0  0  0  0  0  0  0  0
   25.9361  -16.5238  -15.7107 C   0  0  0  0  0  0  0  0  0  0  0  0
   27.0579  -17.4248  -16.0797 C   0  0  2  0  0  0  0  0  0  0  0  0
   26.9935  -17.9124  -17.4269 N   0  0  0  0  0  0  0  0  0  0  0  0
   27.1348  -18.6269  -15.1772 C   0  0  0  0  0  0  0  0  0  0  0  0
   26.2948  -19.5612  -15.2355 O   0  0  0  0  0  0  0  0  0  0  0  0
   30.6871  -23.9489  -10.4454 N   0  0  0  0  0  0  0  0  0  0  0  0
   31.7508  -23.0221  -10.3275 C   0  0  0  0  0  0  0  0  0  0  0  0
   32.8388  -23.2684   -9.6571 N   0  0  0  0  0  0  0  0  0  0  0  0
   31.6414  -21.7400  -10.9736 N   0  0  0  0  0  0  0  0  0  0  0  0
   30.6609  -20.7862  -10.5176 C   0  0  0  0  0  0  0  0  0  0  0  0
   29.3777  -20.9072  -11.3079 C   0  0  0  0  0  0  0  0  0  0  0  0
   29.3879  -19.8883  -12.3948 C   0  0  0  0  0  0  0  0  0  0  0  0
   28.1409  -19.7949  -13.2090 C   0  0  2  0  0  0  0  0  0  0  0  0
   28.1713  -18.7573  -14.2111 N   0  0  0  0  0  0  0  0  0  0  0  0
   26.9408  -19.7644  -12.3458 C   0  0  0  0  0  0  0  0  0  0  0  0
   26.7340  -18.7312  -11.6675 O   0  0  0  0  0  0  0  0  0  0  0  0
   33.5208  -22.4810   -9.5892 N   0  0  0  0  0  0  0  0  0  0  0  0
   26.0114  -20.8335  -12.2378 C   0  0  2  0  0  0  0  0  0  0  0  0
   24.7901  -20.7624  -11.4587 C   0  0  0  0  0  0  0  0  0  0  0  0
   23.7249  -21.4925  -12.2036 C   0  0  0  0  0  0  0  0  0  0  0  0
   22.3982  -21.5282  -11.4932 C   0  0  0  0  0  0  0  0  0  0  0  0
   21.3287  -22.2202  -12.2935 C   0  0  0  0  0  0  0  0  0  0  0  0
   20.0497  -22.1601  -11.4578 N   0  0  0  0  0  0  0  0  0  0  0  0
   18.9746  -22.7835  -12.1796 C   0  0  0  0  0  0  0  0  0  0  0  0
   25.0612  -21.2810  -10.1121 O   0  0  0  0  0  0  0  0  0  0  0  0
   25.9626  -22.1268   -9.8588 O   0  0  0  0  0  0  0  0  0  0  0  0
  2  1  1  1
  2  3  1  0
  4  2  1  0
  5  4  1  0
  5  6  1  6
  7  8  2  0
  7  5  1  0
  9 10  1  0
 10 12  1  0
 11 10  2  0
 12 13  1  0
 13 14  1  0
 16 15  1  1
 15 14  1  0
 16 17  1  0
 17  7  1  0
 18 16  1  0
 19 18  2  0
 20 18  1  0
 21 27  1  0
 21 20  1  0
 21 22  1  6
 23 22  1  0
 24 23  1  0
 25 24  1  0
 26 25  1  0
 27 29  1  0
 28 27  2  0
M  END
$$$$
