LRK.pdb
     RDKit          3D

 29 28  0  0  1  0  0  0  0  0999 V2000
   27.8392  -23.8457  -18.9228 C   0  0  0  0  0  0  0  0  0  0  0  0
   27.4650  -22.6461  -18.1005 C   0  0  1  0  0  0  0  0  0  0  0  0
   27.4511  -21.4153  -18.9923 C   0  0  0  0  0  0  0  0  0  0  0  0
   26.1202  -22.8217  -17.4437 C   0  0  0  0  0  0  0  0  0  0  0  0
   25.8057  -21.6333  -16.6101 C   0  0  2  0  0  0  0  0  0  0  0  0
   26.9090  -21.1676  -15.8211 N   0  0  0  0  0  0  0  0  0  0  0  0
   24.6646  -21.8950  -15.6642 C   0  0  0  0  0  0  0  0  0  0  0  0
   23.6116  -22.4765  -16.0320 O   0  0  0  0  0  0  0  0  0  0  0  0
   25.0641  -20.9476   -7.9905 N   0  0  0  0  0  0  0  0  0  0  0  0
   26.3638  -20.9181   -8.5511 C   0  0  0  0  0  0  0  0  0  0  0  0
   27.3910  -21.4952   -7.9983 N   0  0  0  0  0  0  0  0  0  0  0  0
   26.5787  -20.2207   -9.7923 N   0  0  0  0  0  0  0  0  0  0  0  0
   25.4830  -20.0326  -10.7106 C   0  0  0  0  0  0  0  0  0  0  0  0
   25.3663  -21.2011  -11.6628 C   0  0  0  0  0  0  0  0  0  0  0  0
   23.9263  -21.4203  -11.9762 C   0  0  0  0  0  0  0  0  0  0  0  0
   23.6017  -21.6434  -13.4154 C   0  0  2  0  0  0  0  0  0  0  0  0
   24.7302  -21.4914  -14.3014 N   0  0  0  0  0  0  0  0  0  0  0  0
   22.4090  -20.8689  -13.8199 C   0  0  0  0  0  0  0  0  0  0  0  0
   22.5916  -19.7579  -14.3702 O   0  0  0  0  0  0  0  0  0  0  0  0
   28.3053  -21.3615   -8.4840 N   0  0  0  0  0  0  0  0  0  0  0  0
   21.0718  -21.3060  -13.6214 C   0  0  1  0  0  0  0  0  0  0  0  0
   19.9506  -20.8557  -14.4237 C   0  0  0  0  0  0  0  0  0  0  0  0
   19.9926  -21.5833  -15.7242 C   0  0  0  0  0  0  0  0  0  0  0  0
   20.0382  -20.6803  -16.9277 C   0  0  0  0  0  0  0  0  0  0  0  0
   21.3834  -20.0346  -17.1194 C   0  0  0  0  0  0  0  0  0  0  0  0
   21.2248  -19.0227  -18.2547 N   0  0  0  0  0  0  0  0  0  0  0  0
   21.7891  -19.5623  -19.4613 C   0  0  0  0  0  0  0  0  0  0  0  0
   18.7151  -21.0478  -13.6541 O   0  0  0  0  0  0  0  0  0  0  0  0
   18.4327  -22.1152  -13.0434 O   0  0  0  0  0  0  0  0  0  0  0  0
  2  1  1  6
  2  3  1  0
  4  2  1  0
  5  4  1  0
  5  6  1  1
  7  8  2  0
  7  5  1  0
  9 10  1  0
 10 12  1  0
 11 10  2  0
 12 13  1  0
 13 14  1  0
 16 15  1  1
 15 14  1  0
 16 17  1  0
 17  7  1  0
 18 16  1  0
 19 18  2  0
 20 18  1  0
 21 27  1  0
 21 20  1  0
 21 22  1  1
 23 22  1  0
 24 23  1  0
 25 24  1  0
 26 25  1  0
 27 29  1  0
 28 27  2  0
M  END
$$$$
