NIS.pdb
     RDKit          3D

 23 22  0  0  1  0  0  0  0  0999 V2000
    8.6971  -15.4235   17.7137 N   0  0  0  0  0  0  0  0  0  0  0  0
    7.8223  -15.5789   18.8258 C   0  0  0  0  0  0  0  0  0  0  0  0
    6.8761  -16.3991   18.6947 O   0  0  0  0  0  0  0  0  0  0  0  0
    8.0115  -14.8051   20.1006 C   0  0  0  0  0  0  0  0  0  0  0  0
    7.9031  -15.7743   21.2269 C   0  0  2  0  0  0  0  0  0  0  0  0
    6.5581  -16.2969   21.3099 N   0  0  0  0  0  0  0  0  0  0  0  0
    8.4257  -15.3008   22.5086 C   0  0  0  0  0  0  0  0  0  0  0  0
    9.6904  -15.2042   22.6067 O   0  0  0  0  0  0  0  0  0  0  0  0
    6.0109  -11.7658   26.1351 C   0  0  0  0  0  0  0  0  0  0  0  0
    7.0071  -12.5088   25.3144 C   0  0  0  0  0  0  0  0  0  0  0  0
    7.4131  -13.8480   25.8503 C   0  0  2  0  0  0  0  0  0  0  0  0
    8.2911  -13.5464   27.0736 C   0  0  0  0  0  0  0  0  0  0  0  0
    8.2560  -14.6591   24.8914 C   0  0  2  0  0  0  0  0  0  0  0  0
    7.6329  -14.9436   23.6430 N   0  0  0  0  0  0  0  0  0  0  0  0
    8.5114  -15.9690   25.5905 C   0  0  0  0  0  0  0  0  0  0  0  0
    7.5447  -16.7297   25.8754 O   0  0  0  0  0  0  0  0  0  0  0  0
   12.1047  -17.7897   25.2377 O   0  0  0  0  0  0  0  0  0  0  0  0
   10.9827  -18.4868   25.6699 C   0  0  0  0  0  0  0  0  0  0  0  0
   10.1730  -17.5688   26.5604 C   0  0  2  0  0  0  0  0  0  0  0  0
    9.8452  -16.3280   25.9193 N   0  0  0  0  0  0  0  0  0  0  0  0
   10.8348  -17.3796   27.8713 C   0  0  0  0  0  0  0  0  0  0  0  0
   11.1376  -16.2104   28.2176 O   0  0  0  0  0  0  0  0  0  0  0  0
   11.1431  -18.4118   28.7443 O   0  0  0  0  0  0  0  0  0  0  0  0
  2  1  1  0
  3  2  2  0
  4  2  1  0
  4  5  1  0
  5  6  1  1
  7 14  1  0
  7  5  1  0
  8  7  2  0
 10  9  1  0
 11 10  1  0
 11 12  1  1
 13 14  1  6
 13 11  1  0
 15 13  1  0
 16 15  2  0
 17 18  1  0
 19 18  1  6
 19 20  1  0
 20 15  1  0
 21 19  1  0
 21 23  1  0
 22 21  2  0
M  END
$$$$
