NIS.pdb
     RDKit          3D

 23 22  0  0  1  0  0  0  0  0999 V2000
    7.8511  -18.5330   18.7074 N   0  0  0  0  0  0  0  0  0  0  0  0
    7.5113  -17.3442   19.4126 C   0  0  0  0  0  0  0  0  0  0  0  0
    6.7868  -16.5113   18.8072 O   0  0  0  0  0  0  0  0  0  0  0  0
    7.9898  -17.0867   20.8142 C   0  0  0  0  0  0  0  0  0  0  0  0
    8.2961  -15.6323   20.9171 C   0  0  2  0  0  0  0  0  0  0  0  0
    9.2155  -15.2393   19.8735 N   0  0  0  0  0  0  0  0  0  0  0  0
    8.6920  -15.1718   22.2480 C   0  0  0  0  0  0  0  0  0  0  0  0
    9.8950  -15.3986   22.5940 O   0  0  0  0  0  0  0  0  0  0  0  0
    7.2338  -11.8104   27.3476 C   0  0  0  0  0  0  0  0  0  0  0  0
    7.9680  -12.8797   26.6156 C   0  0  0  0  0  0  0  0  0  0  0  0
    7.4691  -13.1737   25.2336 C   0  0  2  0  0  0  0  0  0  0  0  0
    6.0832  -13.8057   25.4282 C   0  0  0  0  0  0  0  0  0  0  0  0
    8.3114  -14.1803   24.4819 C   0  0  2  0  0  0  0  0  0  0  0  0
    7.8404  -14.4957   23.1756 N   0  0  0  0  0  0  0  0  0  0  0  0
    8.2643  -15.4396   25.3075 C   0  0  0  0  0  0  0  0  0  0  0  0
    7.1677  -16.0432   25.4734 O   0  0  0  0  0  0  0  0  0  0  0  0
   11.3741  -17.9653   25.4356 O   0  0  0  0  0  0  0  0  0  0  0  0
   10.0800  -18.3025   25.8138 C   0  0  0  0  0  0  0  0  0  0  0  0
    9.5148  -17.1583   26.6279 C   0  0  2  0  0  0  0  0  0  0  0  0
    9.4633  -15.9297   25.8891 N   0  0  0  0  0  0  0  0  0  0  0  0
   10.2264  -17.0217   27.9190 C   0  0  0  0  0  0  0  0  0  0  0  0
   10.2916  -18.0287   28.6677 O   0  0  0  0  0  0  0  0  0  0  0  0
   10.8274  -15.8515   28.3571 O   0  0  0  0  0  0  0  0  0  0  0  0
  2  1  1  0
  3  2  2  0
  4  2  1  0
  4  5  1  0
  5  6  1  6
  7 14  1  0
  7  5  1  0
  8  7  2  0
 10  9  1  0
 11 10  1  0
 11 12  1  1
 13 14  1  6
 13 11  1  0
 15 13  1  0
 16 15  2  0
 17 18  1  0
 19 18  1  6
 19 20  1  0
 20 15  1  0
 21 19  1  0
 21 23  1  0
 22 21  2  0
M  END
$$$$
