NIS.pdb
     RDKit          3D

 23 22  0  0  1  0  0  0  0  0999 V2000
    7.2686  -12.8495   17.9301 N   0  0  0  0  0  0  0  0  0  0  0  0
    7.8590  -13.8232   18.7842 C   0  0  0  0  0  0  0  0  0  0  0  0
    7.9605  -14.9925   18.3287 O   0  0  0  0  0  0  0  0  0  0  0  0
    8.3416  -13.4809   20.1661 C   0  0  0  0  0  0  0  0  0  0  0  0
    8.0677  -14.6597   21.0352 C   0  0  2  0  0  0  0  0  0  0  0  0
    6.6829  -15.0566   20.9184 N   0  0  0  0  0  0  0  0  0  0  0  0
    8.5240  -14.5325   22.4193 C   0  0  0  0  0  0  0  0  0  0  0  0
    9.7821  -14.4843   22.6014 O   0  0  0  0  0  0  0  0  0  0  0  0
    5.6934  -11.9412   26.3635 C   0  0  0  0  0  0  0  0  0  0  0  0
    6.9281  -12.3987   25.6674 C   0  0  0  0  0  0  0  0  0  0  0  0
    7.3276  -13.8187   25.9304 C   0  0  2  0  0  0  0  0  0  0  0  0
    8.1300  -13.7789   27.2392 C   0  0  0  0  0  0  0  0  0  0  0  0
    8.2375  -14.4027   24.8727 C   0  0  2  0  0  0  0  0  0  0  0  0
    7.6741  -14.4597   23.5661 N   0  0  0  0  0  0  0  0  0  0  0  0
    8.5168  -15.8145   25.3182 C   0  0  0  0  0  0  0  0  0  0  0  0
    7.5735  -16.6509   25.3888 O   0  0  0  0  0  0  0  0  0  0  0  0
   11.6003  -19.3685   25.5750 O   0  0  0  0  0  0  0  0  0  0  0  0
   11.3395  -18.0665   25.1646 C   0  0  0  0  0  0  0  0  0  0  0  0
   10.2072  -17.5247   26.0105 C   0  0  2  0  0  0  0  0  0  0  0  0
    9.8465  -16.1829   25.6536 N   0  0  0  0  0  0  0  0  0  0  0  0
   10.5024  -17.6745   27.4536 C   0  0  0  0  0  0  0  0  0  0  0  0
   10.8366  -16.6492   28.0983 O   0  0  0  0  0  0  0  0  0  0  0  0
   10.4339  -18.8762   28.1419 O   0  0  0  0  0  0  0  0  0  0  0  0
  2  1  1  0
  3  2  2  0
  4  2  1  0
  4  5  1  0
  5  6  1  1
  7 14  1  0
  7  5  1  0
  8  7  2  0
 10  9  1  0
 11 10  1  0
 11 12  1  1
 13 14  1  6
 13 11  1  0
 15 13  1  0
 16 15  2  0
 17 18  1  0
 19 18  1  6
 19 20  1  0
 20 15  1  0
 21 19  1  0
 21 23  1  0
 22 21  2  0
M  END
$$$$
