NIS.pdb
     RDKit          3D

 23 22  0  0  1  0  0  0  0  0999 V2000
    5.7822  -20.4311   17.2915 N   0  0  0  0  0  0  0  0  0  0  0  0
    7.1218  -20.1818   16.8799 C   0  0  0  0  0  0  0  0  0  0  0  0
    7.4488  -20.5857   15.7332 O   0  0  0  0  0  0  0  0  0  0  0  0
    8.1065  -19.4703   17.7653 C   0  0  0  0  0  0  0  0  0  0  0  0
    8.1089  -18.0362   17.3618 C   0  0  2  0  0  0  0  0  0  0  0  0
    8.6487  -17.8921   16.0289 N   0  0  0  0  0  0  0  0  0  0  0  0
    8.7001  -17.1165   18.3339 C   0  0  0  0  0  0  0  0  0  0  0  0
    9.9665  -17.1487   18.4502 O   0  0  0  0  0  0  0  0  0  0  0  0
    6.8311  -12.0129   19.8775 C   0  0  0  0  0  0  0  0  0  0  0  0
    7.7285  -13.1486   19.5266 C   0  0  0  0  0  0  0  0  0  0  0  0
    7.8992  -14.1881   20.5923 C   0  0  2  0  0  0  0  0  0  0  0  0
    8.7573  -13.5203   21.6767 C   0  0  0  0  0  0  0  0  0  0  0  0
    8.6495  -15.4177   20.1310 C   0  0  2  0  0  0  0  0  0  0  0  0
    7.9717  -16.1977   19.1512 N   0  0  0  0  0  0  0  0  0  0  0  0
    8.8214  -16.2687   21.3622 C   0  0  0  0  0  0  0  0  0  0  0  0
    7.9194  -17.0885   21.6921 O   0  0  0  0  0  0  0  0  0  0  0  0
   11.6438  -19.3709   22.3670 O   0  0  0  0  0  0  0  0  0  0  0  0
   11.0589  -18.3033   21.6966 C   0  0  0  0  0  0  0  0  0  0  0  0
   10.6746  -17.2579   22.7217 C   0  0  2  0  0  0  0  0  0  0  0  0
   10.0040  -16.1330   22.1362 N   0  0  0  0  0  0  0  0  0  0  0  0
   11.8413  -16.8655   23.5444 C   0  0  0  0  0  0  0  0  0  0  0  0
   12.5200  -15.8753   23.1737 O   0  0  0  0  0  0  0  0  0  0  0  0
   12.2348  -17.5215   24.7009 O   0  0  0  0  0  0  0  0  0  0  0  0
  2  1  1  0
  3  2  2  0
  4  2  1  0
  4  5  1  0
  5  6  1  6
  7 14  1  0
  7  5  1  0
  8  7  2  0
 10  9  1  0
 11 10  1  0
 11 12  1  1
 13 14  1  6
 13 11  1  0
 15 13  1  0
 16 15  2  0
 17 18  1  0
 19 18  1  6
 19 20  1  0
 20 15  1  0
 21 19  1  0
 21 23  1  0
 22 21  2  0
M  END
$$$$
