NIS.pdb
     RDKit          3D

 23 22  0  0  1  0  0  0  0  0999 V2000
    5.3659  -17.0576   19.6530 N   0  0  0  0  0  0  0  0  0  0  0  0
    6.7841  -17.0830   19.7727 C   0  0  0  0  0  0  0  0  0  0  0  0
    7.4423  -17.2173   18.7078 O   0  0  0  0  0  0  0  0  0  0  0  0
    7.4723  -16.9559   21.1030 C   0  0  0  0  0  0  0  0  0  0  0  0
    7.8934  -15.5343   21.2495 C   0  0  2  0  0  0  0  0  0  0  0  0
    8.8110  -15.1727   20.1931 N   0  0  0  0  0  0  0  0  0  0  0  0
    8.3608  -15.1574   22.5835 C   0  0  0  0  0  0  0  0  0  0  0  0
    9.6188  -15.1769   22.7722 O   0  0  0  0  0  0  0  0  0  0  0  0
    5.8190  -11.5804   26.1190 C   0  0  0  0  0  0  0  0  0  0  0  0
    6.8280  -12.3350   25.3249 C   0  0  0  0  0  0  0  0  0  0  0  0
    7.2036  -13.6790   25.8707 C   0  0  2  0  0  0  0  0  0  0  0  0
    8.0214  -13.3884   27.1377 C   0  0  0  0  0  0  0  0  0  0  0  0
    8.0903  -14.4861   24.9488 C   0  0  2  0  0  0  0  0  0  0  0  0
    7.5218  -14.7745   23.6755 N   0  0  0  0  0  0  0  0  0  0  0  0
    8.3229  -15.7943   25.6588 C   0  0  0  0  0  0  0  0  0  0  0  0
    7.3392  -16.4744   26.0642 O   0  0  0  0  0  0  0  0  0  0  0  0
   10.7286  -18.3076   24.5138 O   0  0  0  0  0  0  0  0  0  0  0  0
   11.0234  -18.2786   25.8716 C   0  0  0  0  0  0  0  0  0  0  0  0
    9.9601  -17.4549   26.5661 C   0  0  2  0  0  0  0  0  0  0  0  0
    9.6546  -16.2432   25.8615 N   0  0  0  0  0  0  0  0  0  0  0  0
   10.3116  -17.2199   27.9851 C   0  0  0  0  0  0  0  0  0  0  0  0
   10.2984  -18.2025   28.7680 O   0  0  0  0  0  0  0  0  0  0  0  0
   10.6557  -15.9826   28.5076 O   0  0  0  0  0  0  0  0  0  0  0  0
  2  1  1  0
  3  2  2  0
  4  2  1  0
  4  5  1  0
  5  6  1  6
  7 14  1  0
  7  5  1  0
  8  7  2  0
 10  9  1  0
 11 10  1  0
 11 12  1  1
 13 14  1  6
 13 11  1  0
 15 13  1  0
 16 15  2  0
 17 18  1  0
 19 18  1  6
 19 20  1  0
 20 15  1  0
 21 19  1  0
 21 23  1  0
 22 21  2  0
M  END
$$$$
