TNQ.pdb
     RDKit          3D

 25 24  0  0  1  0  0  0  0  0999 V2000
    7.3589  -16.0634   19.6126 C   0  0  0  0  0  0  0  0  0  0  0  0
    8.0196  -14.8502   18.9816 C   0  0  1  0  0  0  0  0  0  0  0  0
    7.5891  -14.7752   17.6670 O   0  0  0  0  0  0  0  0  0  0  0  0
    7.6053  -13.6512   19.7777 C   0  0  2  0  0  0  0  0  0  0  0  0
    8.0310  -12.4688   19.0488 N   0  0  0  0  0  0  0  0  0  0  0  0
    8.1553  -13.6147   21.1463 C   0  0  0  0  0  0  0  0  0  0  0  0
    9.3591  -13.2937   21.3610 O   0  0  0  0  0  0  0  0  0  0  0  0
    6.1403  -13.2084   26.9432 N   0  0  0  0  0  0  0  0  0  0  0  0
    7.0883  -13.5470   25.9443 C   0  0  0  0  0  0  0  0  0  0  0  0
    8.3026  -13.7952   26.2273 O   0  0  0  0  0  0  0  0  0  0  0  0
    6.6523  -13.6129   24.5394 C   0  0  0  0  0  0  0  0  0  0  0  0
    7.7821  -13.9875   23.6130 C   0  0  2  0  0  0  0  0  0  0  0  0
    7.3420  -13.9396   22.2439 N   0  0  0  0  0  0  0  0  0  0  0  0
    8.2880  -15.3522   23.9297 C   0  0  0  0  0  0  0  0  0  0  0  0
    7.4690  -16.3202   23.9151 O   0  0  0  0  0  0  0  0  0  0  0  0
   14.2603  -18.6410   22.6813 N   0  0  0  0  0  0  0  0  0  0  0  0
   12.9922  -17.9975   22.6741 C   0  0  0  0  0  0  0  0  0  0  0  0
   12.7169  -17.2103   21.7433 O   0  0  0  0  0  0  0  0  0  0  0  0
   11.9821  -18.2341   23.7431 C   0  0  0  0  0  0  0  0  0  0  0  0
   11.5823  -16.9144   24.3264 C   0  0  0  0  0  0  0  0  0  0  0  0
   10.1172  -16.8595   24.6325 C   0  0  2  0  0  0  0  0  0  0  0  0
    9.6510  -15.5331   24.2352 N   0  0  0  0  0  0  0  0  0  0  0  0
    9.8037  -17.0059   26.0603 C   0  0  0  0  0  0  0  0  0  0  0  0
    9.5780  -15.8809   26.8772 O   0  0  0  0  0  0  0  0  0  0  0  0
    9.7151  -18.1107   26.6457 O   0  0  0  0  0  0  0  0  0  0  0  0
  2  1  1  1
  2  3  1  0
  4  2  1  0
  4  6  1  0
  4  5  1  6
  6  7  2  0
  9  8  1  0
 10  9  2  0
 11  9  1  0
 12 11  1  1
 12 14  1  0
 13 12  1  0
 13  6  1  0
 14 15  2  0
 16 17  1  0
 17 19  1  0
 18 17  2  0
 19 20  1  0
 21 20  1  1
 21 23  1  0
 22 14  1  0
 22 21  1  0
 23 25  2  0
 23 24  1  0
M  END
$$$$
