TNQ.pdb
     RDKit          3D

 25 24  0  0  1  0  0  0  0  0999 V2000
   12.2354  -19.4924   18.7681 C   0  0  0  0  0  0  0  0  0  0  0  0
   12.6606  -20.0599   20.1111 C   0  0  1  0  0  0  0  0  0  0  0  0
   12.2934  -19.1473   21.0866 O   0  0  0  0  0  0  0  0  0  0  0  0
   11.9643  -21.3748   20.2812 C   0  0  2  0  0  0  0  0  0  0  0  0
   10.5337  -21.1243   20.2473 N   0  0  0  0  0  0  0  0  0  0  0  0
   12.3135  -22.0874   21.5251 C   0  0  0  0  0  0  0  0  0  0  0  0
   11.5806  -22.0116   22.5522 O   0  0  0  0  0  0  0  0  0  0  0  0
   16.8610  -25.6216   23.6691 N   0  0  0  0  0  0  0  0  0  0  0  0
   15.4754  -25.3566   23.5240 C   0  0  0  0  0  0  0  0  0  0  0  0
   14.6187  -25.7836   24.3607 O   0  0  0  0  0  0  0  0  0  0  0  0
   15.0171  -24.5639   22.3709 C   0  0  0  0  0  0  0  0  0  0  0  0
   13.9230  -23.5965   22.7478 C   0  0  2  0  0  0  0  0  0  0  0  0
   13.4781  -22.8694   21.5885 N   0  0  0  0  0  0  0  0  0  0  0  0
   14.4033  -22.6414   23.7850 C   0  0  0  0  0  0  0  0  0  0  0  0
   15.0101  -21.5936   23.4088 O   0  0  0  0  0  0  0  0  0  0  0  0
   11.3504  -20.5905   28.9230 N   0  0  0  0  0  0  0  0  0  0  0  0
   11.3726  -21.6591   27.9849 C   0  0  0  0  0  0  0  0  0  0  0  0
   10.2943  -22.0592   27.4961 O   0  0  0  0  0  0  0  0  0  0  0  0
   12.6430  -22.3155   27.5677 C   0  0  0  0  0  0  0  0  0  0  0  0
   13.4449  -21.3408   26.7621 C   0  0  0  0  0  0  0  0  0  0  0  0
   14.6549  -21.9805   26.1539 C   0  0  2  0  0  0  0  0  0  0  0  0
   14.1743  -22.9227   25.1460 N   0  0  0  0  0  0  0  0  0  0  0  0
   15.4578  -22.7574   27.1079 C   0  0  0  0  0  0  0  0  0  0  0  0
   16.1444  -22.1297   28.1655 O   0  0  0  0  0  0  0  0  0  0  0  0
   15.5906  -24.0028   27.0566 O   0  0  0  0  0  0  0  0  0  0  0  0
  2  1  1  6
  2  3  1  0
  4  2  1  0
  4  6  1  0
  4  5  1  1
  6  7  2  0
  9  8  1  0
 10  9  2  0
 11  9  1  0
 12 11  1  6
 12 14  1  0
 13 12  1  0
 13  6  1  0
 14 15  2  0
 16 17  1  0
 17 19  1  0
 18 17  2  0
 19 20  1  0
 21 20  1  1
 21 23  1  0
 22 14  1  0
 22 21  1  0
 23 25  2  0
 23 24  1  0
M  END
$$$$
