TNQ.pdb
     RDKit          3D

 25 24  0  0  1  0  0  0  0  0999 V2000
    8.0610  -15.9553   17.7812 C   0  0  0  0  0  0  0  0  0  0  0  0
    8.4085  -14.5207   17.4239 C   0  0  1  0  0  0  0  0  0  0  0  0
    7.8921  -14.2661   16.1638 O   0  0  0  0  0  0  0  0  0  0  0  0
    7.7981  -13.6394   18.4697 C   0  0  2  0  0  0  0  0  0  0  0  0
    7.9284  -12.2644   18.0191 N   0  0  0  0  0  0  0  0  0  0  0  0
    8.4024  -13.7819   19.8082 C   0  0  0  0  0  0  0  0  0  0  0  0
    9.5534  -13.3237   20.0602 O   0  0  0  0  0  0  0  0  0  0  0  0
    7.1622  -16.8175   24.9503 N   0  0  0  0  0  0  0  0  0  0  0  0
    7.6612  -15.6235   24.3699 C   0  0  0  0  0  0  0  0  0  0  0  0
    8.5452  -14.9149   24.9466 O   0  0  0  0  0  0  0  0  0  0  0  0
    7.1397  -15.1935   23.0618 C   0  0  0  0  0  0  0  0  0  0  0  0
    8.2417  -14.7592   22.1280 C   0  0  2  0  0  0  0  0  0  0  0  0
    7.7014  -14.4356   20.8342 N   0  0  0  0  0  0  0  0  0  0  0  0
    9.2644  -15.8333   21.9901 C   0  0  0  0  0  0  0  0  0  0  0  0
    8.8921  -16.9756   21.5847 O   0  0  0  0  0  0  0  0  0  0  0  0
   15.2527  -14.9211   19.9388 N   0  0  0  0  0  0  0  0  0  0  0  0
   13.8572  -14.6479   19.9348 C   0  0  0  0  0  0  0  0  0  0  0  0
   13.3337  -14.1811   18.9004 O   0  0  0  0  0  0  0  0  0  0  0  0
   13.0009  -14.9018   21.1270 C   0  0  0  0  0  0  0  0  0  0  0  0
   12.4818  -16.3044   21.0552 C   0  0  0  0  0  0  0  0  0  0  0  0
   11.5934  -16.6315   22.2158 C   0  0  2  0  0  0  0  0  0  0  0  0
   10.6079  -15.5570   22.3106 N   0  0  0  0  0  0  0  0  0  0  0  0
   12.2946  -16.6748   23.5060 C   0  0  0  0  0  0  0  0  0  0  0  0
   13.3053  -17.6235   23.7560 O   0  0  0  0  0  0  0  0  0  0  0  0
   12.0555  -15.8940   24.4569 O   0  0  0  0  0  0  0  0  0  0  0  0
  2  1  1  1
  2  3  1  0
  4  2  1  0
  4  6  1  0
  4  5  1  6
  6  7  2  0
  9  8  1  0
 10  9  2  0
 11  9  1  0
 12 11  1  1
 12 14  1  0
 13 12  1  0
 13  6  1  0
 14 15  2  0
 16 17  1  0
 17 19  1  0
 18 17  2  0
 19 20  1  0
 21 20  1  6
 21 23  1  0
 22 14  1  0
 22 21  1  0
 23 25  2  0
 23 24  1  0
M  END
$$$$
