TNQ.pdb
     RDKit          3D

 25 24  0  0  1  0  0  0  0  0999 V2000
    9.1816  -12.4672   20.1725 C   0  0  0  0  0  0  0  0  0  0  0  0
    8.2617  -13.0169   19.0963 C   0  0  1  0  0  0  0  0  0  0  0  0
    8.4025  -12.2152   17.9753 O   0  0  0  0  0  0  0  0  0  0  0  0
    8.6786  -14.4308   18.8316 C   0  0  2  0  0  0  0  0  0  0  0  0
    7.8879  -14.9228   17.7166 N   0  0  0  0  0  0  0  0  0  0  0  0
    8.5211  -15.3340   19.9877 C   0  0  0  0  0  0  0  0  0  0  0  0
    7.3766  -15.6556   20.4175 O   0  0  0  0  0  0  0  0  0  0  0  0
   10.9920  -19.0878   19.5515 N   0  0  0  0  0  0  0  0  0  0  0  0
   10.2189  -18.8553   20.7176 C   0  0  0  0  0  0  0  0  0  0  0  0
    9.1682  -19.5247   20.9713 O   0  0  0  0  0  0  0  0  0  0  0  0
   10.6467  -17.8086   21.6607 C   0  0  0  0  0  0  0  0  0  0  0  0
    9.6200  -16.7115   21.7925 C   0  0  2  0  0  0  0  0  0  0  0  0
    9.6520  -15.8561   20.6359 N   0  0  0  0  0  0  0  0  0  0  0  0
    9.8704  -15.9052   23.0197 C   0  0  0  0  0  0  0  0  0  0  0  0
   10.9312  -15.2135   23.0839 O   0  0  0  0  0  0  0  0  0  0  0  0
    6.0145  -11.3331   25.9196 N   0  0  0  0  0  0  0  0  0  0  0  0
    6.4198  -12.6936   26.0023 C   0  0  0  0  0  0  0  0  0  0  0  0
    5.6890  -13.5085   26.6054 O   0  0  0  0  0  0  0  0  0  0  0  0
    7.6897  -13.1762   25.3912 C   0  0  0  0  0  0  0  0  0  0  0  0
    7.8751  -14.6190   25.7459 C   0  0  0  0  0  0  0  0  0  0  0  0
    9.1953  -15.1454   25.2734 C   0  0  2  0  0  0  0  0  0  0  0  0
    8.9319  -15.9305   24.0697 N   0  0  0  0  0  0  0  0  0  0  0  0
    9.8507  -16.0478   26.2296 C   0  0  0  0  0  0  0  0  0  0  0  0
   10.5437  -15.5468   27.3488 O   0  0  0  0  0  0  0  0  0  0  0  0
    9.8444  -17.2970   26.1272 O   0  0  0  0  0  0  0  0  0  0  0  0
  2  1  1  1
  2  3  1  0
  4  2  1  0
  4  6  1  0
  4  5  1  6
  6  7  2  0
  9  8  1  0
 10  9  2  0
 11  9  1  0
 12 11  1  6
 12 14  1  0
 13 12  1  0
 13  6  1  0
 14 15  2  0
 16 17  1  0
 17 19  1  0
 18 17  2  0
 19 20  1  0
 21 20  1  1
 21 23  1  0
 22 14  1  0
 22 21  1  0
 23 25  2  0
 23 24  1  0
M  END
$$$$
