TNQ.pdb
     RDKit          3D

 25 24  0  0  1  0  0  0  0  0999 V2000
    7.8256  -12.2274   18.4573 C   0  0  0  0  0  0  0  0  0  0  0  0
    7.5983  -13.3589   19.4446 C   0  0  1  0  0  0  0  0  0  0  0  0
    6.9785  -14.3926   18.7616 O   0  0  0  0  0  0  0  0  0  0  0  0
    8.9383  -13.7621   19.9783 C   0  0  2  0  0  0  0  0  0  0  0  0
    9.6682  -14.4043   18.8988 N   0  0  0  0  0  0  0  0  0  0  0  0
    8.8782  -14.6661   21.1428 C   0  0  0  0  0  0  0  0  0  0  0  0
    8.2440  -14.3470   22.1887 O   0  0  0  0  0  0  0  0  0  0  0  0
    9.1317  -18.9917   19.2618 N   0  0  0  0  0  0  0  0  0  0  0  0
    8.7703  -18.7638   20.6142 C   0  0  0  0  0  0  0  0  0  0  0  0
    7.5900  -18.9723   21.0382 O   0  0  0  0  0  0  0  0  0  0  0  0
    9.7924  -18.2719   21.5530 C   0  0  0  0  0  0  0  0  0  0  0  0
    9.4342  -16.9225   22.1238 C   0  0  2  0  0  0  0  0  0  0  0  0
    9.5316  -15.9086   21.1075 N   0  0  0  0  0  0  0  0  0  0  0  0
   10.3327  -16.5803   23.2615 C   0  0  0  0  0  0  0  0  0  0  0  0
   11.5569  -16.3550   23.0198 O   0  0  0  0  0  0  0  0  0  0  0  0
    9.7392  -14.8985   30.2712 N   0  0  0  0  0  0  0  0  0  0  0  0
    9.6508  -14.4870   28.9129 C   0  0  0  0  0  0  0  0  0  0  0  0
    8.7531  -13.6837   28.5799 O   0  0  0  0  0  0  0  0  0  0  0  0
   10.5965  -14.9849   27.8753 C   0  0  0  0  0  0  0  0  0  0  0  0
    9.8073  -15.4608   26.6953 C   0  0  0  0  0  0  0  0  0  0  0  0
   10.6799  -16.1056   25.6627 C   0  0  2  0  0  0  0  0  0  0  0  0
    9.8060  -16.5160   24.5662 N   0  0  0  0  0  0  0  0  0  0  0  0
   11.3608  -17.3187   26.1352 C   0  0  0  0  0  0  0  0  0  0  0  0
   12.5962  -17.2473   26.8079 O   0  0  0  0  0  0  0  0  0  0  0  0
   10.9087  -18.4776   25.9812 O   0  0  0  0  0  0  0  0  0  0  0  0
  2  1  1  6
  2  3  1  0
  4  2  1  0
  4  6  1  0
  4  5  1  6
  6  7  2  0
  9  8  1  0
 10  9  2  0
 11  9  1  0
 12 11  1  6
 12 14  1  0
 13 12  1  0
 13  6  1  0
 14 15  2  0
 16 17  1  0
 17 19  1  0
 18 17  2  0
 19 20  1  0
 21 20  1  1
 21 23  1  0
 22 14  1  0
 22 21  1  0
 23 25  2  0
 23 24  1  0
M  END
$$$$
