TNQ.pdb
     RDKit          3D

 25 24  0  0  1  0  0  0  0  0999 V2000
    9.8154  -18.8989   22.5610 C   0  0  0  0  0  0  0  0  0  0  0  0
   10.7996  -18.1268   21.6997 C   0  0  1  0  0  0  0  0  0  0  0  0
   10.4244  -18.2999   20.3774 O   0  0  0  0  0  0  0  0  0  0  0  0
   10.7305  -16.6911   22.1199 C   0  0  2  0  0  0  0  0  0  0  0  0
   11.6029  -15.9314   21.2411 N   0  0  0  0  0  0  0  0  0  0  0  0
   11.1132  -16.4532   23.5249 C   0  0  0  0  0  0  0  0  0  0  0  0
   12.2469  -16.8002   23.9635 O   0  0  0  0  0  0  0  0  0  0  0  0
   11.1457  -14.5687   28.2980 N   0  0  0  0  0  0  0  0  0  0  0  0
    9.9405  -14.1116   27.7064 C   0  0  0  0  0  0  0  0  0  0  0  0
    9.0718  -13.4609   28.3685 O   0  0  0  0  0  0  0  0  0  0  0  0
    9.6895  -14.3993   26.2843 C   0  0  0  0  0  0  0  0  0  0  0  0
   10.4518  -15.6108   25.8087 C   0  0  2  0  0  0  0  0  0  0  0  0
   10.2146  -15.8313   24.4067 N   0  0  0  0  0  0  0  0  0  0  0  0
   10.0496  -16.8189   26.5816 C   0  0  0  0  0  0  0  0  0  0  0  0
    8.8295  -17.1640   26.5743 O   0  0  0  0  0  0  0  0  0  0  0  0
   13.4239  -21.6454   27.4746 N   0  0  0  0  0  0  0  0  0  0  0  0
   13.5526  -20.4849   26.6629 C   0  0  0  0  0  0  0  0  0  0  0  0
   14.6022  -20.3183   26.0052 O   0  0  0  0  0  0  0  0  0  0  0  0
   12.4734  -19.4620   26.5733 C   0  0  0  0  0  0  0  0  0  0  0  0
   11.3294  -19.8943   27.4371 C   0  0  0  0  0  0  0  0  0  0  0  0
   10.6179  -18.7264   28.0480 C   0  0  2  0  0  0  0  0  0  0  0  0
   11.0249  -17.5420   27.2955 N   0  0  0  0  0  0  0  0  0  0  0  0
   10.9792  -18.4791   29.4503 C   0  0  0  0  0  0  0  0  0  0  0  0
   10.7018  -19.4278   30.4538 O   0  0  0  0  0  0  0  0  0  0  0  0
   11.5458  -17.4355   29.8514 O   0  0  0  0  0  0  0  0  0  0  0  0
  2  1  1  1
  2  3  1  0
  4  2  1  0
  4  6  1  0
  4  5  1  6
  6  7  2  0
  9  8  1  0
 10  9  2  0
 11  9  1  0
 12 11  1  1
 12 14  1  0
 13 12  1  0
 13  6  1  0
 14 15  2  0
 16 17  1  0
 17 19  1  0
 18 17  2  0
 19 20  1  0
 21 20  1  6
 21 23  1  0
 22 14  1  0
 22 21  1  0
 23 25  2  0
 23 24  1  0
M  END
$$$$
