TNQ.pdb
     RDKit          3D

 25 24  0  0  1  0  0  0  0  0999 V2000
    9.5096  -13.7030   16.9989 C   0  0  0  0  0  0  0  0  0  0  0  0
    9.3932  -14.2588   18.4075 C   0  0  1  0  0  0  0  0  0  0  0  0
   10.3818  -13.6649   19.1752 O   0  0  0  0  0  0  0  0  0  0  0  0
    8.0202  -13.9282   18.9062 C   0  0  2  0  0  0  0  0  0  0  0  0
    7.8552  -12.4873   18.8224 N   0  0  0  0  0  0  0  0  0  0  0  0
    7.7534  -14.3784   20.2857 C   0  0  0  0  0  0  0  0  0  0  0  0
    7.4784  -13.5534   21.2031 O   0  0  0  0  0  0  0  0  0  0  0  0
    6.2104  -18.6819   19.6418 N   0  0  0  0  0  0  0  0  0  0  0  0
    6.0407  -18.1582   20.9489 C   0  0  0  0  0  0  0  0  0  0  0  0
    4.8890  -17.9846   21.4585 O   0  0  0  0  0  0  0  0  0  0  0  0
    7.2334  -17.8060   21.7371 C   0  0  0  0  0  0  0  0  0  0  0  0
    7.4059  -16.3131   21.8665 C   0  0  2  0  0  0  0  0  0  0  0  0
    7.8014  -15.7450   20.6050 N   0  0  0  0  0  0  0  0  0  0  0  0
    8.4263  -15.9921   22.9030 C   0  0  0  0  0  0  0  0  0  0  0  0
    9.6428  -15.9180   22.5529 O   0  0  0  0  0  0  0  0  0  0  0  0
    5.9921  -11.3888   26.2858 N   0  0  0  0  0  0  0  0  0  0  0  0
    6.8055  -12.5116   26.6014 C   0  0  0  0  0  0  0  0  0  0  0  0
    6.8880  -12.8853   27.7911 O   0  0  0  0  0  0  0  0  0  0  0  0
    7.5621  -13.2556   25.5559 C   0  0  0  0  0  0  0  0  0  0  0  0
    8.2142  -14.4449   26.1902 C   0  0  0  0  0  0  0  0  0  0  0  0
    8.9868  -15.2554   25.1954 C   0  0  2  0  0  0  0  0  0  0  0  0
    8.0195  -15.7809   24.2349 N   0  0  0  0  0  0  0  0  0  0  0  0
    9.6726  -16.4155   25.7802 C   0  0  0  0  0  0  0  0  0  0  0  0
   10.8548  -16.2629   26.5305 O   0  0  0  0  0  0  0  0  0  0  0  0
    9.2710  -17.5969   25.6606 O   0  0  0  0  0  0  0  0  0  0  0  0
  2  1  1  6
  2  3  1  0
  4  2  1  0
  4  6  1  0
  4  5  1  1
  6  7  2  0
  9  8  1  0
 10  9  2  0
 11  9  1  0
 12 11  1  6
 12 14  1  0
 13 12  1  0
 13  6  1  0
 14 15  2  0
 16 17  1  0
 17 19  1  0
 18 17  2  0
 19 20  1  0
 21 20  1  1
 21 23  1  0
 22 14  1  0
 22 21  1  0
 23 25  2  0
 23 24  1  0
M  END
$$$$
