VFY.pdb
     RDKit          3D

 31 32  0  0  1  0  0  0  0  0999 V2000
    8.3097  -13.4793   20.2039 C   0  0  0  0  0  0  0  0  0  0  0  0
    7.5163  -14.7233   20.4383 C   0  0  1  0  0  0  0  0  0  0  0  0
    7.1312  -15.2910   19.0852 C   0  0  0  0  0  0  0  0  0  0  0  0
    8.2606  -15.7922   21.1825 C   0  0  2  0  0  0  0  0  0  0  0  0
    7.4114  -16.9499   21.2873 N   0  0  0  0  0  0  0  0  0  0  0  0
    8.7090  -15.3899   22.5142 C   0  0  0  0  0  0  0  0  0  0  0  0
    9.6635  -14.5837   22.7265 O   0  0  0  0  0  0  0  0  0  0  0  0
    8.0690  -15.9054   23.6729 N   0  0  0  0  0  0  0  0  0  0  0  0
    8.5004  -15.4979   24.9955 C   0  0  1  0  0  0  0  0  0  0  0  0
    7.2554  -15.2822   25.8321 C   0  0  0  0  0  0  0  0  0  0  0  0
    7.1658  -13.9372   26.3990 C   0  0  0  0  0  0  0  0  0  0  0  0
    8.3033  -13.2601   26.7668 C   0  0  0  0  0  0  0  0  0  0  0  0
    8.2684  -11.9854   27.3075 C   0  0  0  0  0  0  0  0  0  0  0  0
    7.0580  -11.3617   27.4888 C   0  0  0  0  0  0  0  0  0  0  0  0
    5.9045  -12.0139   27.1306 C   0  0  0  0  0  0  0  0  0  0  0  0
    5.9577  -13.3006   26.5860 C   0  0  0  0  0  0  0  0  0  0  0  0
    9.2224  -16.6625   25.5907 C   0  0  0  0  0  0  0  0  0  0  0  0
    8.8711  -17.8548   25.3670 O   0  0  0  0  0  0  0  0  0  0  0  0
   13.1107  -17.5398   20.9301 O   0  0  0  0  0  0  0  0  0  0  0  0
   12.9412  -17.5740   22.3173 C   0  0  0  0  0  0  0  0  0  0  0  0
   13.1094  -16.4178   23.0443 C   0  0  0  0  0  0  0  0  0  0  0  0
   12.9402  -16.4545   24.4241 C   0  0  0  0  0  0  0  0  0  0  0  0
   12.6114  -17.6026   25.0892 C   0  0  0  0  0  0  0  0  0  0  0  0
   12.4439  -17.6118   26.5538 C   0  0  0  0  0  0  0  0  0  0  0  0
   11.0173  -17.6391   27.0167 C   0  0  2  0  0  0  0  0  0  0  0  0
   10.3510  -16.4794   26.4459 N   0  0  0  0  0  0  0  0  0  0  0  0
   10.9017  -17.5619   28.4925 C   0  0  0  0  0  0  0  0  0  0  0  0
   10.3241  -16.5694   29.0554 O   0  0  0  0  0  0  0  0  0  0  0  0
   12.4443  -18.7545   24.3594 C   0  0  0  0  0  0  0  0  0  0  0  0
   12.6104  -18.7352   22.9732 C   0  0  0  0  0  0  0  0  0  0  0  0
   11.3899  -18.5221   29.3612 O   0  0  0  0  0  0  0  0  0  0  0  0
  2  1  1  6
  2  3  1  0
  4  2  1  0
  4  5  1  1
  6  4  1  0
  6  7  2  0
  8  6  1  0
  9  8  1  0
  9 10  1  1
 10 11  1  0
 11 12  2  0
 12 13  1  0
 14 13  2  0
 15 14  1  0
 16 11  1  0
 16 15  2  0
 17  9  1  0
 18 17  2  0
 20 19  1  0
 20 30  2  0
 21 20  1  0
 22 21  2  0
 22 23  1  0
 23 29  2  0
 24 23  1  0
 25 26  1  0
 25 24  1  1
 26 17  1  0
 27 25  1  0
 28 27  2  0
 29 30  1  0
 31 27  1  0
M  END
$$$$
