VFY.pdb
     RDKit          3D

 31 32  0  0  1  0  0  0  0  0999 V2000
    9.7834  -19.1810   21.0904 C   0  0  0  0  0  0  0  0  0  0  0  0
   10.3273  -18.4246   19.9224 C   0  0  1  0  0  0  0  0  0  0  0  0
   10.2203  -19.3165   18.7001 C   0  0  0  0  0  0  0  0  0  0  0  0
    9.5908  -17.1529   19.6208 C   0  0  2  0  0  0  0  0  0  0  0  0
   10.1551  -16.5708   18.4313 N   0  0  0  0  0  0  0  0  0  0  0  0
    9.6191  -16.1753   20.7069 C   0  0  0  0  0  0  0  0  0  0  0  0
   10.6526  -15.5264   21.0489 O   0  0  0  0  0  0  0  0  0  0  0  0
    8.4434  -15.8998   21.4551 N   0  0  0  0  0  0  0  0  0  0  0  0
    8.4801  -14.9742   22.5703 C   0  0  1  0  0  0  0  0  0  0  0  0
    7.0550  -14.5371   22.8437 C   0  0  0  0  0  0  0  0  0  0  0  0
    6.9351  -13.6454   23.9965 C   0  0  0  0  0  0  0  0  0  0  0  0
    7.4772  -12.3835   23.9594 C   0  0  0  0  0  0  0  0  0  0  0  0
    7.3891  -11.5041   25.0258 C   0  0  0  0  0  0  0  0  0  0  0  0
    6.7380  -11.8943   26.1708 C   0  0  0  0  0  0  0  0  0  0  0  0
    6.1864  -13.1495   26.2368 C   0  0  0  0  0  0  0  0  0  0  0  0
    6.2845  -14.0249   25.1509 C   0  0  0  0  0  0  0  0  0  0  0  0
    8.9271  -15.7547   23.7631 C   0  0  0  0  0  0  0  0  0  0  0  0
    8.4869  -16.9123   24.0105 O   0  0  0  0  0  0  0  0  0  0  0  0
   12.3356  -17.3090   31.8097 O   0  0  0  0  0  0  0  0  0  0  0  0
   11.9938  -16.7560   30.5721 C   0  0  0  0  0  0  0  0  0  0  0  0
   11.0657  -15.7412   30.5219 C   0  0  0  0  0  0  0  0  0  0  0  0
   10.7275  -15.1929   29.2895 C   0  0  0  0  0  0  0  0  0  0  0  0
   11.2853  -15.6267   28.1194 C   0  0  0  0  0  0  0  0  0  0  0  0
   10.9027  -15.0295   26.8270 C   0  0  0  0  0  0  0  0  0  0  0  0
   10.2149  -15.9729   25.8851 C   0  0  2  0  0  0  0  0  0  0  0  0
    9.8798  -15.2238   24.6846 N   0  0  0  0  0  0  0  0  0  0  0  0
    8.9619  -16.5239   26.4540 C   0  0  0  0  0  0  0  0  0  0  0  0
    7.8989  -15.8152   26.5117 O   0  0  0  0  0  0  0  0  0  0  0  0
   12.2114  -16.6400   28.1742 C   0  0  0  0  0  0  0  0  0  0  0  0
   12.5625  -17.2017   29.4033 C   0  0  0  0  0  0  0  0  0  0  0  0
    8.8348  -17.8079   26.9544 O   0  0  0  0  0  0  0  0  0  0  0  0
  2  1  1  1
  2  3  1  0
  4  2  1  0
  4  5  1  6
  6  4  1  0
  6  7  2  0
  8  6  1  0
  9  8  1  0
  9 10  1  1
 10 11  1  0
 11 12  2  0
 12 13  1  0
 14 13  2  0
 15 14  1  0
 16 11  1  0
 16 15  2  0
 17  9  1  0
 18 17  2  0
 20 19  1  0
 20 30  2  0
 21 20  1  0
 22 21  2  0
 22 23  1  0
 23 29  2  0
 24 23  1  0
 25 26  1  0
 25 24  1  1
 26 17  1  0
 27 25  1  0
 28 27  2  0
 29 30  1  0
 31 27  1  0
M  END
$$$$
