VFY.pdb
     RDKit          3D

 31 32  0  0  1  0  0  0  0  0999 V2000
    9.5916  -19.0614   20.7415 C   0  0  0  0  0  0  0  0  0  0  0  0
   10.1184  -18.2449   19.6067 C   0  0  1  0  0  0  0  0  0  0  0  0
   10.0073  -19.0777   18.3436 C   0  0  0  0  0  0  0  0  0  0  0  0
    9.3689  -16.9665   19.3735 C   0  0  2  0  0  0  0  0  0  0  0  0
    9.8755  -16.3539   18.1733 N   0  0  0  0  0  0  0  0  0  0  0  0
    9.4502  -16.0169   20.4815 C   0  0  0  0  0  0  0  0  0  0  0  0
   10.4725  -15.3129   20.7374 O   0  0  0  0  0  0  0  0  0  0  0  0
    8.3434  -15.8351   21.3533 N   0  0  0  0  0  0  0  0  0  0  0  0
    8.4242  -14.9046   22.4620 C   0  0  1  0  0  0  0  0  0  0  0  0
    7.0114  -14.4630   22.7871 C   0  0  0  0  0  0  0  0  0  0  0  0
    6.9277  -13.6301   23.9861 C   0  0  0  0  0  0  0  0  0  0  0  0
    6.2823  -14.0893   25.1087 C   0  0  0  0  0  0  0  0  0  0  0  0
    6.1775  -13.3371   26.2669 C   0  0  0  0  0  0  0  0  0  0  0  0
    6.7351  -12.0824   26.3099 C   0  0  0  0  0  0  0  0  0  0  0  0
    7.3863  -11.5970   25.2033 C   0  0  0  0  0  0  0  0  0  0  0  0
    7.4829  -12.3697   24.0420 C   0  0  0  0  0  0  0  0  0  0  0  0
    8.9143  -15.6808   23.6406 C   0  0  0  0  0  0  0  0  0  0  0  0
    8.4950  -16.8437   23.8992 O   0  0  0  0  0  0  0  0  0  0  0  0
   11.8399  -17.0545   31.8501 O   0  0  0  0  0  0  0  0  0  0  0  0
   11.5779  -16.5107   30.5892 C   0  0  0  0  0  0  0  0  0  0  0  0
   12.1012  -17.1199   29.4718 C   0  0  0  0  0  0  0  0  0  0  0  0
   11.8390  -16.5768   28.2187 C   0  0  0  0  0  0  0  0  0  0  0  0
   11.0769  -15.4541   28.0543 C   0  0  0  0  0  0  0  0  0  0  0  0
   10.8205  -14.8983   26.7132 C   0  0  0  0  0  0  0  0  0  0  0  0
   10.2579  -15.8811   25.7295 C   0  0  2  0  0  0  0  0  0  0  0  0
    9.8865  -15.1393   24.5352 N   0  0  0  0  0  0  0  0  0  0  0  0
    9.0491  -16.5664   26.2457 C   0  0  0  0  0  0  0  0  0  0  0  0
    7.9071  -15.9913   26.2219 O   0  0  0  0  0  0  0  0  0  0  0  0
   10.5564  -14.8492   29.1726 C   0  0  0  0  0  0  0  0  0  0  0  0
   10.8097  -15.3814   30.4384 C   0  0  0  0  0  0  0  0  0  0  0  0
    9.0482  -17.8433   26.7792 O   0  0  0  0  0  0  0  0  0  0  0  0
  2  1  1  1
  2  3  1  0
  4  2  1  0
  4  5  1  6
  6  4  1  0
  6  7  2  0
  8  6  1  0
  9  8  1  0
  9 10  1  1
 10 11  1  0
 11 12  2  0
 12 13  1  0
 14 13  2  0
 15 14  1  0
 16 11  1  0
 16 15  2  0
 17  9  1  0
 18 17  2  0
 20 19  1  0
 20 30  2  0
 21 20  1  0
 22 21  2  0
 22 23  1  0
 23 29  2  0
 24 23  1  0
 25 26  1  0
 25 24  1  1
 26 17  1  0
 27 25  1  0
 28 27  2  0
 29 30  1  0
 31 27  1  0
M  END
$$$$
