VFY.pdb
     RDKit          3D

 31 32  0  0  1  0  0  0  0  0999 V2000
    8.2474  -20.0201   22.6903 C   0  0  0  0  0  0  0  0  0  0  0  0
    8.8951  -19.5830   21.4169 C   0  0  1  0  0  0  0  0  0  0  0  0
    8.5523  -20.6025   20.3471 C   0  0  0  0  0  0  0  0  0  0  0  0
    8.4369  -18.2412   20.9269 C   0  0  2  0  0  0  0  0  0  0  0  0
    9.0310  -17.9996   19.6382 N   0  0  0  0  0  0  0  0  0  0  0  0
    8.7552  -17.1363   21.8293 C   0  0  0  0  0  0  0  0  0  0  0  0
    9.9058  -16.6152   21.9325 O   0  0  0  0  0  0  0  0  0  0  0  0
    7.7490  -16.5773   22.6618 N   0  0  0  0  0  0  0  0  0  0  0  0
    8.0623  -15.4882   23.5659 C   0  0  1  0  0  0  0  0  0  0  0  0
    6.7833  -14.7091   23.7976 C   0  0  0  0  0  0  0  0  0  0  0  0
    6.9482  -13.5899   24.7242 C   0  0  0  0  0  0  0  0  0  0  0  0
    7.7707  -12.5370   24.4042 C   0  0  0  0  0  0  0  0  0  0  0  0
    7.9582  -11.4557   25.2492 C   0  0  0  0  0  0  0  0  0  0  0  0
    7.3037  -11.4206   26.4564 C   0  0  0  0  0  0  0  0  0  0  0  0
    6.4753  -12.4587   26.8032 C   0  0  0  0  0  0  0  0  0  0  0  0
    6.2972  -13.5428   25.9383 C   0  0  0  0  0  0  0  0  0  0  0  0
    8.4318  -16.1076   24.8742 C   0  0  0  0  0  0  0  0  0  0  0  0
    7.7154  -16.9903   25.4244 O   0  0  0  0  0  0  0  0  0  0  0  0
    6.5495  -21.7218   28.0586 O   0  0  0  0  0  0  0  0  0  0  0  0
    7.4739  -20.7961   27.5656 C   0  0  0  0  0  0  0  0  0  0  0  0
    7.3959  -20.4034   26.2490 C   0  0  0  0  0  0  0  0  0  0  0  0
    8.3166  -19.4825   25.7612 C   0  0  0  0  0  0  0  0  0  0  0  0
    9.3019  -18.9496   26.5447 C   0  0  0  0  0  0  0  0  0  0  0  0
   10.2673  -17.9790   25.9979 C   0  0  0  0  0  0  0  0  0  0  0  0
   10.1698  -16.6040   26.5894 C   0  0  2  0  0  0  0  0  0  0  0  0
    9.6206  -15.7272   25.5675 N   0  0  0  0  0  0  0  0  0  0  0  0
   11.4913  -16.0709   26.9979 C   0  0  0  0  0  0  0  0  0  0  0  0
   12.1604  -15.3066   26.2209 O   0  0  0  0  0  0  0  0  0  0  0  0
    9.3759  -19.3444   27.8585 C   0  0  0  0  0  0  0  0  0  0  0  0
    8.4593  -20.2682   28.3646 C   0  0  0  0  0  0  0  0  0  0  0  0
   12.0966  -16.3421   28.2124 O   0  0  0  0  0  0  0  0  0  0  0  0
  2  1  1  1
  2  3  1  0
  4  2  1  0
  4  5  1  6
  6  4  1  0
  6  7  2  0
  8  6  1  0
  9  8  1  0
  9 10  1  1
 10 11  1  0
 11 12  2  0
 12 13  1  0
 14 13  2  0
 15 14  1  0
 16 11  1  0
 16 15  2  0
 17  9  1  0
 18 17  2  0
 20 19  1  0
 20 30  2  0
 21 20  1  0
 22 21  2  0
 22 23  1  0
 23 29  2  0
 24 23  1  0
 25 26  1  0
 25 24  1  6
 26 17  1  0
 27 25  1  0
 28 27  2  0
 29 30  1  0
 31 27  1  0
M  END
$$$$
