VFY.pdb
     RDKit          3D

 31 32  0  0  1  0  0  0  0  0999 V2000
   10.1743  -19.1904   21.7590 C   0  0  0  0  0  0  0  0  0  0  0  0
   10.0308  -18.6276   20.3825 C   0  0  1  0  0  0  0  0  0  0  0  0
    9.8371  -19.7873   19.4239 C   0  0  0  0  0  0  0  0  0  0  0  0
    8.8599  -17.7042   20.2184 C   0  0  2  0  0  0  0  0  0  0  0  0
    8.7495  -17.3514   18.8272 N   0  0  0  0  0  0  0  0  0  0  0  0
    8.9398  -16.4900   21.0281 C   0  0  0  0  0  0  0  0  0  0  0  0
    9.6295  -15.4740   20.7147 O   0  0  0  0  0  0  0  0  0  0  0  0
    8.2197  -16.3929   22.2487 N   0  0  0  0  0  0  0  0  0  0  0  0
    8.3748  -15.2336   23.1052 C   0  0  1  0  0  0  0  0  0  0  0  0
    7.0159  -14.9246   23.7005 C   0  0  0  0  0  0  0  0  0  0  0  0
    7.0613  -13.9010   24.7439 C   0  0  0  0  0  0  0  0  0  0  0  0
    7.5209  -12.6378   24.4598 C   0  0  0  0  0  0  0  0  0  0  0  0
    7.5824  -11.6362   25.4145 C   0  0  0  0  0  0  0  0  0  0  0  0
    7.1717  -11.9009   26.6983 C   0  0  0  0  0  0  0  0  0  0  0  0
    6.7076  -13.1541   27.0115 C   0  0  0  0  0  0  0  0  0  0  0  0
    6.6521  -14.1539   26.0356 C   0  0  0  0  0  0  0  0  0  0  0  0
    9.2561  -15.6497   24.2374 C   0  0  0  0  0  0  0  0  0  0  0  0
    8.9924  -15.3533   25.4364 O   0  0  0  0  0  0  0  0  0  0  0  0
    9.6823  -14.5960   30.6901 O   0  0  0  0  0  0  0  0  0  0  0  0
   10.1820  -15.1616   29.5134 C   0  0  0  0  0  0  0  0  0  0  0  0
   10.4716  -16.5066   29.4836 C   0  0  0  0  0  0  0  0  0  0  0  0
   10.9685  -17.0667   28.3118 C   0  0  0  0  0  0  0  0  0  0  0  0
   11.1817  -16.3274   27.1821 C   0  0  0  0  0  0  0  0  0  0  0  0
   11.7147  -16.9482   25.9559 C   0  0  0  0  0  0  0  0  0  0  0  0
   11.6600  -16.0713   24.7401 C   0  0  2  0  0  0  0  0  0  0  0  0
   10.4456  -16.4072   24.0141 N   0  0  0  0  0  0  0  0  0  0  0  0
   12.8157  -16.2862   23.8372 C   0  0  0  0  0  0  0  0  0  0  0  0
   12.6700  -16.8770   22.7124 O   0  0  0  0  0  0  0  0  0  0  0  0
   10.8911  -14.9850   27.2162 C   0  0  0  0  0  0  0  0  0  0  0  0
   10.3913  -14.4065   28.3846 C   0  0  0  0  0  0  0  0  0  0  0  0
   14.1084  -15.8809   24.1201 O   0  0  0  0  0  0  0  0  0  0  0  0
  2  1  1  1
  2  3  1  0
  4  2  1  0
  4  5  1  6
  6  4  1  0
  6  7  2  0
  8  6  1  0
  9  8  1  0
  9 10  1  1
 10 11  1  0
 11 12  2  0
 12 13  1  0
 14 13  2  0
 15 14  1  0
 16 11  1  0
 16 15  2  0
 17  9  1  0
 18 17  2  0
 20 19  1  0
 20 30  2  0
 21 20  1  0
 22 21  2  0
 22 23  1  0
 23 29  2  0
 24 23  1  0
 25 26  1  0
 25 24  1  1
 26 17  1  0
 27 25  1  0
 28 27  2  0
 29 30  1  0
 31 27  1  0
M  END
$$$$
