DFQ.pdb
     RDKit          3D

 29 29  0  0  1  0  0  0  0  0999 V2000
    8.6369  -16.9739   19.9851 N   0  0  0  0  0  0  0  0  0  0  0  0
    9.8627  -17.1564   20.7385 C   0  0  1  0  0  0  0  0  0  0  0  0
   11.0302  -16.8271   19.8713 C   0  0  0  0  0  0  0  0  0  0  0  0
   10.9938  -17.6975   18.6729 C   0  0  0  0  0  0  0  0  0  0  0  0
   10.4328  -18.8433   18.6756 O   0  0  0  0  0  0  0  0  0  0  0  0
    9.8421  -16.3348   21.9925 C   0  0  0  0  0  0  0  0  0  0  0  0
   10.8618  -16.1832   22.7151 O   0  0  0  0  0  0  0  0  0  0  0  0
   11.5768  -17.2928   17.4863 O   0  0  0  0  0  0  0  0  0  0  0  0
    8.6508  -15.6798   22.4286 N   0  0  0  0  0  0  0  0  0  0  0  0
    8.5780  -14.9353   23.6588 C   0  0  1  0  0  0  0  0  0  0  0  0
    7.4128  -13.9727   23.6790 C   0  0  0  0  0  0  0  0  0  0  0  0
    7.3141  -13.2676   24.9735 C   0  0  0  0  0  0  0  0  0  0  0  0
    6.3314  -13.6408   25.8606 C   0  0  0  0  0  0  0  0  0  0  0  0
    6.1884  -13.0114   27.0996 C   0  0  0  0  0  0  0  0  0  0  0  0
    7.0480  -11.9956   27.4431 C   0  0  0  0  0  0  0  0  0  0  0  0
    8.0353  -11.6119   26.5661 C   0  0  0  0  0  0  0  0  0  0  0  0
    8.1650  -12.2501   25.3329 C   0  0  0  0  0  0  0  0  0  0  0  0
    8.5723  -15.8626   24.7987 C   0  0  0  0  0  0  0  0  0  0  0  0
    7.5578  -16.6376   24.9022 O   0  0  0  0  0  0  0  0  0  0  0  0
   10.7992  -20.4927   24.9654 N   0  0  0  0  0  0  0  0  0  0  0  0
   11.7903  -19.5240   25.2380 C   0  0  0  0  0  0  0  0  0  0  0  0
   12.9709  -19.7273   24.8787 O   0  0  0  0  0  0  0  0  0  0  0  0
   11.4537  -18.2723   25.9420 C   0  0  0  0  0  0  0  0  0  0  0  0
   10.0092  -18.2805   26.3193 C   0  0  0  0  0  0  0  0  0  0  0  0
    9.5262  -16.9236   26.7933 C   0  0  2  0  0  0  0  0  0  0  0  0
    9.6208  -15.9261   25.7584 N   0  0  0  0  0  0  0  0  0  0  0  0
   10.4241  -16.5200   27.9036 C   0  0  0  0  0  0  0  0  0  0  0  0
   11.1335  -15.4964   27.7928 O   0  0  0  0  0  0  0  0  0  0  0  0
   10.4910  -17.2589   29.0648 O   0  0  0  0  0  0  0  0  0  0  0  0
  2  1  1  6
  2  6  1  0
  2  3  1  0
  4  3  1  0
  4  8  1  0
  5  4  2  0
  6  7  2  0
  9 10  1  0
  9  6  1  0
 11 12  1  0
 10 11  1  6
 12 17  2  0
 13 14  2  0
 13 12  1  0
 14 15  1  0
 15 16  2  0
 17 16  1  0
 18 10  1  0
 19 18  2  0
 20 21  1  0
 21 22  2  0
 23 21  1  0
 23 24  1  0
 25 24  1  6
 25 26  1  0
 25 27  1  0
 26 18  1  0
 27 29  1  0
 28 27  2  0
M  END
$$$$
