DFQ.pdb
     RDKit          3D

 29 29  0  0  1  0  0  0  0  0999 V2000
    9.0293  -17.3716   20.0864 N   0  0  0  0  0  0  0  0  0  0  0  0
   10.3335  -17.1025   20.6609 C   0  0  1  0  0  0  0  0  0  0  0  0
   11.2365  -16.5598   19.6057 C   0  0  0  0  0  0  0  0  0  0  0  0
   11.3448  -17.5551   18.5135 C   0  0  0  0  0  0  0  0  0  0  0  0
   11.4348  -18.8081   18.7354 O   0  0  0  0  0  0  0  0  0  0  0  0
   10.2157  -16.1759   21.8337 C   0  0  0  0  0  0  0  0  0  0  0  0
   11.2223  -15.6708   22.3965 O   0  0  0  0  0  0  0  0  0  0  0  0
   11.3524  -17.1552   17.1899 O   0  0  0  0  0  0  0  0  0  0  0  0
    8.9417  -15.8207   22.3713 N   0  0  0  0  0  0  0  0  0  0  0  0
    8.7941  -15.0236   23.5612 C   0  0  1  0  0  0  0  0  0  0  0  0
    7.4570  -14.3210   23.6190 C   0  0  0  0  0  0  0  0  0  0  0  0
    7.3265  -13.5033   24.8426 C   0  0  0  0  0  0  0  0  0  0  0  0
    6.4561  -13.9124   25.8259 C   0  0  0  0  0  0  0  0  0  0  0  0
    6.2898  -13.1813   27.0047 C   0  0  0  0  0  0  0  0  0  0  0  0
    7.0111  -12.0261   27.1891 C   0  0  0  0  0  0  0  0  0  0  0  0
    7.8850  -11.6049   26.2144 C   0  0  0  0  0  0  0  0  0  0  0  0
    8.0398  -12.3460   25.0431 C   0  0  0  0  0  0  0  0  0  0  0  0
    9.0559  -15.8513   24.7468 C   0  0  0  0  0  0  0  0  0  0  0  0
    8.2845  -16.8582   24.9248 O   0  0  0  0  0  0  0  0  0  0  0  0
   13.7474  -15.4376   25.2379 N   0  0  0  0  0  0  0  0  0  0  0  0
   13.3082  -16.6142   24.5918 C   0  0  0  0  0  0  0  0  0  0  0  0
   13.7467  -16.8975   23.4552 O   0  0  0  0  0  0  0  0  0  0  0  0
   12.3375  -17.5171   25.2384 C   0  0  0  0  0  0  0  0  0  0  0  0
   11.9291  -16.9534   26.5593 C   0  0  0  0  0  0  0  0  0  0  0  0
   10.4524  -16.6135   26.6129 C   0  0  2  0  0  0  0  0  0  0  0  0
   10.1025  -15.5807   25.6719 N   0  0  0  0  0  0  0  0  0  0  0  0
   10.1869  -16.0992   27.9793 C   0  0  0  0  0  0  0  0  0  0  0  0
   10.3891  -16.8311   28.9726 O   0  0  0  0  0  0  0  0  0  0  0  0
    9.7175  -14.8186   28.1753 O   0  0  0  0  0  0  0  0  0  0  0  0
  2  1  1  6
  2  6  1  0
  2  3  1  0
  4  3  1  0
  4  8  1  0
  5  4  2  0
  6  7  2  0
  9 10  1  0
  9  6  1  0
 11 12  1  0
 10 11  1  1
 12 17  2  0
 13 14  2  0
 13 12  1  0
 14 15  1  0
 15 16  2  0
 17 16  1  0
 18 10  1  0
 19 18  2  0
 20 21  1  0
 21 22  2  0
 23 21  1  0
 23 24  1  0
 25 24  1  1
 25 26  1  0
 25 27  1  0
 26 18  1  0
 27 29  1  0
 28 27  2  0
M  END
$$$$
