DFQ.pdb
     RDKit          3D

 29 29  0  0  1  0  0  0  0  0999 V2000
    8.9288  -17.4442   20.4566 N   0  0  0  0  0  0  0  0  0  0  0  0
   10.2409  -17.1683   21.0095 C   0  0  1  0  0  0  0  0  0  0  0  0
   11.1183  -16.6042   19.9439 C   0  0  0  0  0  0  0  0  0  0  0  0
   11.2790  -17.6165   18.8740 C   0  0  0  0  0  0  0  0  0  0  0  0
   10.3623  -18.4537   18.5802 O   0  0  0  0  0  0  0  0  0  0  0  0
   10.1361  -16.2565   22.1950 C   0  0  0  0  0  0  0  0  0  0  0  0
   11.1502  -15.7964   22.7825 O   0  0  0  0  0  0  0  0  0  0  0  0
   12.4493  -17.6925   18.1416 O   0  0  0  0  0  0  0  0  0  0  0  0
    8.8665  -15.8645   22.7172 N   0  0  0  0  0  0  0  0  0  0  0  0
    8.7286  -15.0159   23.8722 C   0  0  1  0  0  0  0  0  0  0  0  0
    7.3932  -14.3087   23.9086 C   0  0  0  0  0  0  0  0  0  0  0  0
    7.2415  -13.4990   25.1350 C   0  0  0  0  0  0  0  0  0  0  0  0
    6.3808  -13.9332   26.1161 C   0  0  0  0  0  0  0  0  0  0  0  0
    6.1955  -13.2108   27.2974 C   0  0  0  0  0  0  0  0  0  0  0  0
    6.8877  -12.0387   27.4866 C   0  0  0  0  0  0  0  0  0  0  0  0
    7.7516  -11.5924   26.5143 C   0  0  0  0  0  0  0  0  0  0  0  0
    7.9257  -12.3250   25.3404 C   0  0  0  0  0  0  0  0  0  0  0  0
    8.9972  -15.7916   25.0909 C   0  0  0  0  0  0  0  0  0  0  0  0
    8.2724  -16.8305   25.2807 O   0  0  0  0  0  0  0  0  0  0  0  0
   14.5558  -18.6330   26.9408 N   0  0  0  0  0  0  0  0  0  0  0  0
   13.1758  -18.9261   27.0075 C   0  0  0  0  0  0  0  0  0  0  0  0
   12.7407  -19.9806   26.4946 O   0  0  0  0  0  0  0  0  0  0  0  0
   12.2365  -18.0051   27.6748 C   0  0  0  0  0  0  0  0  0  0  0  0
   11.8179  -16.9356   26.7208 C   0  0  0  0  0  0  0  0  0  0  0  0
   10.4103  -16.4392   26.9877 C   0  0  2  0  0  0  0  0  0  0  0  0
   10.0017  -15.4391   26.0349 N   0  0  0  0  0  0  0  0  0  0  0  0
   10.4318  -15.8113   28.3320 C   0  0  0  0  0  0  0  0  0  0  0  0
   10.3570  -14.5681   28.4420 O   0  0  0  0  0  0  0  0  0  0  0  0
   10.5336  -16.5797   29.4713 O   0  0  0  0  0  0  0  0  0  0  0  0
  2  1  1  6
  2  6  1  0
  2  3  1  0
  4  3  1  0
  4  8  1  0
  5  4  2  0
  6  7  2  0
  9 10  1  0
  9  6  1  0
 11 12  1  0
 10 11  1  1
 12 17  2  0
 13 14  2  0
 13 12  1  0
 14 15  1  0
 15 16  2  0
 17 16  1  0
 18 10  1  0
 19 18  2  0
 20 21  1  0
 21 22  2  0
 23 21  1  0
 23 24  1  0
 25 24  1  6
 25 26  1  0
 25 27  1  0
 26 18  1  0
 27 29  1  0
 28 27  2  0
M  END
$$$$
