DFQ.pdb
     RDKit          3D

 29 29  0  0  1  0  0  0  0  0999 V2000
   10.4829  -16.5069   19.2836 N   0  0  0  0  0  0  0  0  0  0  0  0
    9.5356  -16.9824   20.2735 C   0  0  1  0  0  0  0  0  0  0  0  0
    9.7789  -18.4301   20.5358 C   0  0  0  0  0  0  0  0  0  0  0  0
    9.5604  -19.1848   19.2797 C   0  0  0  0  0  0  0  0  0  0  0  0
   10.4884  -19.8495   18.7100 O   0  0  0  0  0  0  0  0  0  0  0  0
    9.6187  -16.1609   21.5249 C   0  0  0  0  0  0  0  0  0  0  0  0
   10.7180  -15.8366   22.0459 O   0  0  0  0  0  0  0  0  0  0  0  0
    8.3206  -19.1968   18.6678 O   0  0  0  0  0  0  0  0  0  0  0  0
    8.4408  -15.7041   22.1899 N   0  0  0  0  0  0  0  0  0  0  0  0
    8.4813  -14.9693   23.4274 C   0  0  1  0  0  0  0  0  0  0  0  0
    7.1995  -14.2114   23.6871 C   0  0  0  0  0  0  0  0  0  0  0  0
    7.2348  -13.5165   24.9904 C   0  0  0  0  0  0  0  0  0  0  0  0
    8.0531  -12.4208   25.1377 C   0  0  0  0  0  0  0  0  0  0  0  0
    8.1290  -11.7228   26.3455 C   0  0  0  0  0  0  0  0  0  0  0  0
    7.3698  -12.1382   27.4131 C   0  0  0  0  0  0  0  0  0  0  0  0
    6.5472  -13.2321   27.2804 C   0  0  0  0  0  0  0  0  0  0  0  0
    6.4825  -13.9183   26.0680 C   0  0  0  0  0  0  0  0  0  0  0  0
    8.8429  -15.8733   24.5279 C   0  0  0  0  0  0  0  0  0  0  0  0
    8.1225  -16.9231   24.6679 O   0  0  0  0  0  0  0  0  0  0  0  0
   12.1565  -18.9344   23.2461 N   0  0  0  0  0  0  0  0  0  0  0  0
   12.6457  -18.2179   24.3606 C   0  0  0  0  0  0  0  0  0  0  0  0
   13.6250  -17.4519   24.2236 O   0  0  0  0  0  0  0  0  0  0  0  0
   12.0178  -18.3590   25.6878 C   0  0  0  0  0  0  0  0  0  0  0  0
   11.7664  -17.0079   26.2713 C   0  0  0  0  0  0  0  0  0  0  0  0
   10.2895  -16.6719   26.3400 C   0  0  2  0  0  0  0  0  0  0  0  0
    9.9300  -15.6297   25.4129 N   0  0  0  0  0  0  0  0  0  0  0  0
   10.0335  -16.1728   27.7139 C   0  0  0  0  0  0  0  0  0  0  0  0
   10.2674  -14.9779   27.9981 O   0  0  0  0  0  0  0  0  0  0  0  0
    9.5386  -17.0093   28.6907 O   0  0  0  0  0  0  0  0  0  0  0  0
  2  1  1  6
  2  6  1  0
  2  3  1  0
  4  3  1  0
  4  8  1  0
  5  4  2  0
  6  7  2  0
  9 10  1  0
  9  6  1  0
 11 12  1  0
 10 11  1  1
 12 17  2  0
 13 14  2  0
 13 12  1  0
 14 15  1  0
 15 16  2  0
 17 16  1  0
 18 10  1  0
 19 18  2  0
 20 21  1  0
 21 22  2  0
 23 21  1  0
 23 24  1  0
 25 24  1  1
 25 26  1  0
 25 27  1  0
 26 18  1  0
 27 29  1  0
 28 27  2  0
M  END
$$$$
