DFQ.pdb
     RDKit          3D

 29 29  0  0  1  0  0  0  0  0999 V2000
    8.6778  -17.2611   19.8133 N   0  0  0  0  0  0  0  0  0  0  0  0
    9.9890  -17.0796   20.4059 C   0  0  1  0  0  0  0  0  0  0  0  0
   10.9125  -16.4916   19.3935 C   0  0  0  0  0  0  0  0  0  0  0  0
   10.8574  -17.3155   18.1633 C   0  0  0  0  0  0  0  0  0  0  0  0
   10.2196  -18.4189   18.1062 O   0  0  0  0  0  0  0  0  0  0  0  0
    9.8999  -16.2385   21.6438 C   0  0  0  0  0  0  0  0  0  0  0  0
   10.9107  -15.9524   22.3378 O   0  0  0  0  0  0  0  0  0  0  0  0
   11.5069  -16.9116   17.0115 O   0  0  0  0  0  0  0  0  0  0  0  0
    8.6499  -15.7182   22.0966 N   0  0  0  0  0  0  0  0  0  0  0  0
    8.4986  -15.0478   23.3619 C   0  0  1  0  0  0  0  0  0  0  0  0
    7.4756  -13.9366   23.3039 C   0  0  0  0  0  0  0  0  0  0  0  0
    7.2479  -13.3389   24.6357 C   0  0  0  0  0  0  0  0  0  0  0  0
    7.9831  -12.2363   25.0041 C   0  0  0  0  0  0  0  0  0  0  0  0
    7.8124  -11.6275   26.2498 C   0  0  0  0  0  0  0  0  0  0  0  0
    6.8894  -12.1398   27.1299 C   0  0  0  0  0  0  0  0  0  0  0  0
    6.1473  -13.2417   26.7751 C   0  0  0  0  0  0  0  0  0  0  0  0
    6.3294  -13.8382   25.5277 C   0  0  0  0  0  0  0  0  0  0  0  0
    8.2116  -16.0337   24.4129 C   0  0  0  0  0  0  0  0  0  0  0  0
    7.4081  -16.9825   24.1051 O   0  0  0  0  0  0  0  0  0  0  0  0
   12.5608  -18.6244   23.3109 N   0  0  0  0  0  0  0  0  0  0  0  0
   12.0321  -19.1946   24.4899 C   0  0  0  0  0  0  0  0  0  0  0  0
   11.8349  -20.4283   24.5471 O   0  0  0  0  0  0  0  0  0  0  0  0
   11.7078  -18.3552   25.6586 C   0  0  0  0  0  0  0  0  0  0  0  0
   10.8297  -17.2237   25.2368 C   0  0  0  0  0  0  0  0  0  0  0  0
    9.6204  -17.0617   26.1371 C   0  0  2  0  0  0  0  0  0  0  0  0
    8.7777  -15.9717   25.7168 N   0  0  0  0  0  0  0  0  0  0  0  0
   10.1407  -16.7447   27.4901 C   0  0  0  0  0  0  0  0  0  0  0  0
   10.8875  -15.7559   27.6564 O   0  0  0  0  0  0  0  0  0  0  0  0
    9.8132  -17.5270   28.5762 O   0  0  0  0  0  0  0  0  0  0  0  0
  2  1  1  6
  2  6  1  0
  2  3  1  0
  4  3  1  0
  4  8  1  0
  5  4  2  0
  6  7  2  0
  9 10  1  0
  9  6  1  0
 11 12  1  0
 10 11  1  6
 12 17  2  0
 13 14  2  0
 13 12  1  0
 14 15  1  0
 15 16  2  0
 17 16  1  0
 18 10  1  0
 19 18  2  0
 20 21  1  0
 21 22  2  0
 23 21  1  0
 23 24  1  0
 25 24  1  6
 25 26  1  0
 25 27  1  0
 26 18  1  0
 27 29  1  0
 28 27  2  0
M  END
$$$$
