DFQ.pdb
     RDKit          3D

 29 29  0  0  1  0  0  0  0  0999 V2000
   10.2157  -16.6333   19.4043 N   0  0  0  0  0  0  0  0  0  0  0  0
    9.3071  -17.1409   20.4143 C   0  0  1  0  0  0  0  0  0  0  0  0
    9.6010  -18.5812   20.6653 C   0  0  0  0  0  0  0  0  0  0  0  0
    9.2500  -19.3571   19.4529 C   0  0  0  0  0  0  0  0  0  0  0  0
   10.0560  -19.5002   18.4744 O   0  0  0  0  0  0  0  0  0  0  0  0
    9.3941  -16.3211   21.6665 C   0  0  0  0  0  0  0  0  0  0  0  0
   10.4762  -16.1533   22.2878 O   0  0  0  0  0  0  0  0  0  0  0  0
    8.0140  -19.9655   19.3354 O   0  0  0  0  0  0  0  0  0  0  0  0
    8.2399  -15.6864   22.2173 N   0  0  0  0  0  0  0  0  0  0  0  0
    8.2731  -14.9481   23.4529 C   0  0  1  0  0  0  0  0  0  0  0  0
    7.0790  -14.0342   23.6076 C   0  0  0  0  0  0  0  0  0  0  0  0
    7.0698  -13.3728   24.9287 C   0  0  0  0  0  0  0  0  0  0  0  0
    6.2135  -13.8384   25.8993 C   0  0  0  0  0  0  0  0  0  0  0  0
    6.1596  -13.2543   27.1672 C   0  0  0  0  0  0  0  0  0  0  0  0
    6.9798  -12.1896   27.4545 C   0  0  0  0  0  0  0  0  0  0  0  0
    7.8408  -11.7135   26.4939 C   0  0  0  0  0  0  0  0  0  0  0  0
    7.8829  -12.3075   25.2328 C   0  0  0  0  0  0  0  0  0  0  0  0
    8.4308  -15.8771   24.5804 C   0  0  0  0  0  0  0  0  0  0  0  0
    7.5837  -16.8349   24.6568 O   0  0  0  0  0  0  0  0  0  0  0  0
   12.3552  -20.1959   25.9232 N   0  0  0  0  0  0  0  0  0  0  0  0
   12.2448  -19.0210   25.1472 C   0  0  0  0  0  0  0  0  0  0  0  0
   12.6435  -19.0215   23.9618 O   0  0  0  0  0  0  0  0  0  0  0  0
   11.6647  -17.7893   25.7148 C   0  0  0  0  0  0  0  0  0  0  0  0
   10.2318  -18.0227   26.0634 C   0  0  0  0  0  0  0  0  0  0  0  0
    9.5476  -16.7692   26.5730 C   0  0  2  0  0  0  0  0  0  0  0  0
    9.4583  -15.7526   25.5565 N   0  0  0  0  0  0  0  0  0  0  0  0
   10.3928  -16.2448   27.6742 C   0  0  0  0  0  0  0  0  0  0  0  0
   10.6085  -16.9478   28.6854 O   0  0  0  0  0  0  0  0  0  0  0  0
   10.9493  -14.9862   27.6023 O   0  0  0  0  0  0  0  0  0  0  0  0
  2  1  1  6
  2  6  1  0
  2  3  1  0
  4  3  1  0
  4  8  1  0
  5  4  2  0
  6  7  2  0
  9 10  1  0
  9  6  1  0
 11 12  1  0
 10 11  1  1
 12 17  2  0
 13 14  2  0
 13 12  1  0
 14 15  1  0
 15 16  2  0
 17 16  1  0
 18 10  1  0
 19 18  2  0
 20 21  1  0
 21 22  2  0
 23 21  1  0
 23 24  1  0
 25 24  1  6
 25 26  1  0
 25 27  1  0
 26 18  1  0
 27 29  1  0
 28 27  2  0
M  END
$$$$
