DFQ.pdb
     RDKit          3D

 29 29  0  0  1  0  0  0  0  0999 V2000
    8.9605  -17.5732   20.2853 N   0  0  0  0  0  0  0  0  0  0  0  0
   10.2688  -17.0877   20.6807 C   0  0  1  0  0  0  0  0  0  0  0  0
   10.9307  -16.4411   19.5113 C   0  0  0  0  0  0  0  0  0  0  0  0
   11.1898  -17.4730   18.4802 C   0  0  0  0  0  0  0  0  0  0  0  0
   10.2653  -17.9514   17.7427 O   0  0  0  0  0  0  0  0  0  0  0  0
   10.1581  -16.1577   21.8514 C   0  0  0  0  0  0  0  0  0  0  0  0
   11.1502  -15.5348   22.3128 O   0  0  0  0  0  0  0  0  0  0  0  0
   12.4660  -17.9642   18.2756 O   0  0  0  0  0  0  0  0  0  0  0  0
    8.9078  -15.9343   22.5034 N   0  0  0  0  0  0  0  0  0  0  0  0
    8.7759  -15.0965   23.6670 C   0  0  1  0  0  0  0  0  0  0  0  0
    7.3895  -14.5081   23.7963 C   0  0  0  0  0  0  0  0  0  0  0  0
    7.2691  -13.6637   25.0026 C   0  0  0  0  0  0  0  0  0  0  0  0
    6.4931  -14.1057   26.0487 C   0  0  0  0  0  0  0  0  0  0  0  0
    6.3410  -13.3517   27.2150 C   0  0  0  0  0  0  0  0  0  0  0  0
    6.9803  -12.1398   27.3225 C   0  0  0  0  0  0  0  0  0  0  0  0
    7.7594  -11.6853   26.2845 C   0  0  0  0  0  0  0  0  0  0  0  0
    7.9012  -12.4498   25.1268 C   0  0  0  0  0  0  0  0  0  0  0  0
    9.1938  -15.8412   24.8628 C   0  0  0  0  0  0  0  0  0  0  0  0
    8.6360  -16.9782   25.0542 O   0  0  0  0  0  0  0  0  0  0  0  0
   14.9756  -17.7747   26.1176 N   0  0  0  0  0  0  0  0  0  0  0  0
   14.0050  -17.1870   25.2766 C   0  0  0  0  0  0  0  0  0  0  0  0
   14.3682  -16.5211   24.2821 O   0  0  0  0  0  0  0  0  0  0  0  0
   12.5650  -17.3466   25.5537 C   0  0  0  0  0  0  0  0  0  0  0  0
   12.1674  -16.4507   26.6799 C   0  0  0  0  0  0  0  0  0  0  0  0
   10.6647  -16.2735   26.7768 C   0  0  2  0  0  0  0  0  0  0  0  0
   10.1647  -15.3578   25.7836 N   0  0  0  0  0  0  0  0  0  0  0  0
   10.3935  -15.6925   28.1151 C   0  0  0  0  0  0  0  0  0  0  0  0
    9.9037  -14.5461   28.2108 O   0  0  0  0  0  0  0  0  0  0  0  0
   10.6739  -16.3992   29.2642 O   0  0  0  0  0  0  0  0  0  0  0  0
  2  1  1  6
  2  6  1  0
  2  3  1  0
  4  3  1  0
  4  8  1  0
  5  4  2  0
  6  7  2  0
  9 10  1  0
  9  6  1  0
 11 12  1  0
 10 11  1  1
 12 17  2  0
 13 14  2  0
 13 12  1  0
 14 15  1  0
 15 16  2  0
 17 16  1  0
 18 10  1  0
 19 18  2  0
 20 21  1  0
 21 22  2  0
 23 21  1  0
 23 24  1  0
 25 24  1  6
 25 26  1  0
 25 27  1  0
 26 18  1  0
 27 29  1  0
 28 27  2  0
M  END
$$$$
