SQA.pdb
     RDKit          3D

 21 20  0  0  1  0  0  0  0  0999 V2000
    8.3611  -18.2000   20.5202 O   0  0  0  0  0  0  0  0  0  0  0  0
    7.2904  -17.3212   20.4761 C   0  0  0  0  0  0  0  0  0  0  0  0
    7.8479  -15.9464   20.1733 C   0  0  2  0  0  0  0  0  0  0  0  0
    8.7087  -15.9358   19.0332 N   0  0  0  0  0  0  0  0  0  0  0  0
    8.5886  -15.4734   21.3922 C   0  0  0  0  0  0  0  0  0  0  0  0
    9.8544  -15.4263   21.4057 O   0  0  0  0  0  0  0  0  0  0  0  0
    5.6474  -12.7601   26.2992 N   0  0  0  0  0  0  0  0  0  0  0  0
    7.0026  -12.7421   26.7066 C   0  0  0  0  0  0  0  0  0  0  0  0
    7.2999  -12.1366   27.7554 O   0  0  0  0  0  0  0  0  0  0  0  0
    8.0634  -13.4176   25.9244 C   0  0  0  0  0  0  0  0  0  0  0  0
    7.6274  -13.9120   24.5924 C   0  0  0  0  0  0  0  0  0  0  0  0
    8.6754  -14.6403   23.7773 C   0  0  2  0  0  0  0  0  0  0  0  0
    7.9318  -15.0645   22.5637 N   0  0  0  0  0  0  0  0  0  0  0  0
    9.0995  -15.8424   24.5344 C   0  0  0  0  0  0  0  0  0  0  0  0
    8.2544  -16.7733   24.6652 O   0  0  0  0  0  0  0  0  0  0  0  0
   12.0828  -17.6809   25.4221 C   0  0  0  0  0  0  0  0  0  0  0  0
   10.6576  -17.2834   25.7759 C   0  0  2  0  0  0  0  0  0  0  0  0
   10.3787  -16.0146   25.1115 N   0  0  0  0  0  0  0  0  0  0  0  0
   10.4668  -17.1864   27.2314 C   0  0  0  0  0  0  0  0  0  0  0  0
   10.6398  -18.2364   28.1189 O   0  0  0  0  0  0  0  0  0  0  0  0
   10.1235  -16.0765   27.7044 O   0  0  0  0  0  0  0  0  0  0  0  0
  1  2  1  0
  3  2  1  0
  3  4  1  6
  5  3  1  0
  5 13  1  0
  6  5  2  0
  7  8  1  0
  8 10  1  0
  8  9  2  0
 10 11  1  0
 12 11  1  1
 12 13  1  0
 12 14  1  0
 14 15  2  0
 14 18  1  0
 17 16  1  1
 17 19  1  0
 18 17  1  0
 19 20  1  0
 21 19  2  0
M  END
$$$$
