SQA.pdb
     RDKit          3D

 21 20  0  0  1  0  0  0  0  0999 V2000
    9.1388  -12.4865   18.5273 O   0  0  0  0  0  0  0  0  0  0  0  0
    8.4739  -12.7512   19.7141 C   0  0  0  0  0  0  0  0  0  0  0  0
    8.1907  -14.2382   19.7501 C   0  0  2  0  0  0  0  0  0  0  0  0
    7.2000  -14.6372   18.8014 N   0  0  0  0  0  0  0  0  0  0  0  0
    7.7508  -14.5874   21.1439 C   0  0  0  0  0  0  0  0  0  0  0  0
    6.5296  -14.5243   21.4747 O   0  0  0  0  0  0  0  0  0  0  0  0
   10.9412  -18.7406   24.4250 N   0  0  0  0  0  0  0  0  0  0  0  0
   10.0240  -18.2948   25.4063 C   0  0  0  0  0  0  0  0  0  0  0  0
   10.0154  -18.8658   26.5148 O   0  0  0  0  0  0  0  0  0  0  0  0
    9.0846  -17.1789   25.1491 C   0  0  0  0  0  0  0  0  0  0  0  0
    9.1992  -16.5758   23.7956 C   0  0  0  0  0  0  0  0  0  0  0  0
    8.1927  -15.4948   23.4616 C   0  0  2  0  0  0  0  0  0  0  0  0
    8.6517  -14.9959   22.1402 N   0  0  0  0  0  0  0  0  0  0  0  0
    8.3252  -14.4112   24.4647 C   0  0  0  0  0  0  0  0  0  0  0  0
    9.4301  -13.7991   24.5147 O   0  0  0  0  0  0  0  0  0  0  0  0
    6.3230  -12.3102   26.7359 C   0  0  0  0  0  0  0  0  0  0  0  0
    7.6238  -12.9985   26.3509 C   0  0  2  0  0  0  0  0  0  0  0  0
    7.3027  -14.0194   25.3591 N   0  0  0  0  0  0  0  0  0  0  0  0
    8.3000  -13.5755   27.5232 C   0  0  0  0  0  0  0  0  0  0  0  0
    8.9495  -12.8367   28.4992 O   0  0  0  0  0  0  0  0  0  0  0  0
    8.2892  -14.8234   27.6502 O   0  0  0  0  0  0  0  0  0  0  0  0
  1  2  1  0
  3  2  1  0
  3  4  1  6
  5  3  1  0
  5 13  1  0
  6  5  2  0
  7  8  1  0
  8 10  1  0
  8  9  2  0
 10 11  1  0
 12 11  1  1
 12 13  1  0
 12 14  1  0
 14 15  2  0
 14 18  1  0
 17 16  1  1
 17 19  1  0
 18 17  1  0
 19 20  1  0
 21 19  2  0
M  END
$$$$
