SQA.pdb
     RDKit          3D

 21 20  0  0  1  0  0  0  0  0999 V2000
   13.7373  -19.7564   21.3148 O   0  0  0  0  0  0  0  0  0  0  0  0
   12.6866  -19.9333   20.4286 C   0  0  0  0  0  0  0  0  0  0  0  0
   12.6307  -18.7051   19.5448 C   0  0  2  0  0  0  0  0  0  0  0  0
   13.8953  -18.3818   18.9642 N   0  0  0  0  0  0  0  0  0  0  0  0
   12.1314  -17.5608   20.3811 C   0  0  0  0  0  0  0  0  0  0  0  0
   12.8724  -16.5629   20.6254 O   0  0  0  0  0  0  0  0  0  0  0  0
    6.2295  -15.8177   20.4152 N   0  0  0  0  0  0  0  0  0  0  0  0
    6.7438  -15.0087   21.4563 C   0  0  0  0  0  0  0  0  0  0  0  0
    6.0218  -14.1021   21.9163 O   0  0  0  0  0  0  0  0  0  0  0  0
    8.1045  -15.2117   22.0050 C   0  0  0  0  0  0  0  0  0  0  0  0
    8.8940  -16.2686   21.3207 C   0  0  0  0  0  0  0  0  0  0  0  0
   10.3471  -16.3845   21.7311 C   0  0  2  0  0  0  0  0  0  0  0  0
   10.8391  -17.5334   20.9290 N   0  0  0  0  0  0  0  0  0  0  0  0
   10.3961  -16.7378   23.1701 C   0  0  0  0  0  0  0  0  0  0  0  0
   11.1704  -17.6772   23.5106 O   0  0  0  0  0  0  0  0  0  0  0  0
    9.7759  -15.3091   26.4457 C   0  0  0  0  0  0  0  0  0  0  0  0
    9.8295  -16.5409   25.5546 C   0  0  2  0  0  0  0  0  0  0  0  0
    9.6416  -16.0946   24.1781 N   0  0  0  0  0  0  0  0  0  0  0  0
    8.8191  -17.5368   25.9441 C   0  0  0  0  0  0  0  0  0  0  0  0
    8.9451  -18.4076   27.0147 O   0  0  0  0  0  0  0  0  0  0  0  0
    7.7693  -17.6042   25.2609 O   0  0  0  0  0  0  0  0  0  0  0  0
  1  2  1  0
  3  2  1  0
  3  4  1  1
  5  3  1  0
  5 13  1  0
  6  5  2  0
  7  8  1  0
  8 10  1  0
  8  9  2  0
 10 11  1  0
 12 11  1  6
 12 13  1  0
 12 14  1  0
 14 15  2  0
 14 18  1  0
 17 16  1  1
 17 19  1  0
 18 17  1  0
 19 20  1  0
 21 19  2  0
M  END
$$$$
