SQA.pdb
     RDKit          3D

 21 20  0  0  1  0  0  0  0  0999 V2000
   10.2815  -27.2097   25.2041 O   0  0  0  0  0  0  0  0  0  0  0  0
    9.5031  -27.2570   26.3497 C   0  0  0  0  0  0  0  0  0  0  0  0
    9.6883  -25.9409   27.0751 C   0  0  2  0  0  0  0  0  0  0  0  0
    9.7889  -24.8271   26.1862 N   0  0  0  0  0  0  0  0  0  0  0  0
   10.9282  -26.0518   27.9168 C   0  0  0  0  0  0  0  0  0  0  0  0
   11.0092  -26.9109   28.8442 O   0  0  0  0  0  0  0  0  0  0  0  0
   16.8812  -24.1760   27.5197 N   0  0  0  0  0  0  0  0  0  0  0  0
   15.8947  -23.9034   26.5423 C   0  0  0  0  0  0  0  0  0  0  0  0
   16.1714  -23.1047   25.6255 O   0  0  0  0  0  0  0  0  0  0  0  0
   14.5568  -24.5373   26.5834 C   0  0  0  0  0  0  0  0  0  0  0  0
   14.3789  -25.5319   27.6733 C   0  0  0  0  0  0  0  0  0  0  0  0
   13.2283  -25.2779   28.6245 C   0  0  2  0  0  0  0  0  0  0  0  0
   12.0467  -25.2249   27.7264 N   0  0  0  0  0  0  0  0  0  0  0  0
   13.4268  -23.9477   29.2483 C   0  0  0  0  0  0  0  0  0  0  0  0
   14.5322  -23.7362   29.8239 O   0  0  0  0  0  0  0  0  0  0  0  0
   11.9776  -20.5559   29.2971 C   0  0  0  0  0  0  0  0  0  0  0  0
   12.8087  -21.6656   29.9233 C   0  0  2  0  0  0  0  0  0  0  0  0
   12.4687  -22.9080   29.2378 N   0  0  0  0  0  0  0  0  0  0  0  0
   12.5769  -21.7653   31.3727 C   0  0  0  0  0  0  0  0  0  0  0  0
   12.0408  -22.8734   32.0089 O   0  0  0  0  0  0  0  0  0  0  0  0
   12.8852  -20.7794   32.0842 O   0  0  0  0  0  0  0  0  0  0  0  0
  1  2  1  0
  3  2  1  0
  3  4  1  6
  5  3  1  0
  5 13  1  0
  6  5  2  0
  7  8  1  0
  8 10  1  0
  8  9  2  0
 10 11  1  0
 12 11  1  6
 12 13  1  0
 12 14  1  0
 14 15  2  0
 14 18  1  0
 17 16  1  6
 17 19  1  0
 18 17  1  0
 19 20  1  0
 21 19  2  0
M  END
$$$$
