SQA.pdb
     RDKit          3D

 21 20  0  0  1  0  0  0  0  0999 V2000
    9.3445  -14.1740   21.2726 O   0  0  0  0  0  0  0  0  0  0  0  0
    8.8767  -15.2985   20.6113 C   0  0  0  0  0  0  0  0  0  0  0  0
    7.3860  -15.3821   20.8634 C   0  0  2  0  0  0  0  0  0  0  0  0
    6.6537  -14.3458   20.2073 N   0  0  0  0  0  0  0  0  0  0  0  0
    7.1679  -15.3167   22.3487 C   0  0  0  0  0  0  0  0  0  0  0  0
    6.6571  -14.2895   22.8858 O   0  0  0  0  0  0  0  0  0  0  0  0
    7.0248  -20.0062   28.1663 N   0  0  0  0  0  0  0  0  0  0  0  0
    7.0314  -19.5524   26.8258 C   0  0  0  0  0  0  0  0  0  0  0  0
    7.0476  -20.4001   25.9114 O   0  0  0  0  0  0  0  0  0  0  0  0
    7.0202  -18.1103   26.4883 C   0  0  0  0  0  0  0  0  0  0  0  0
    7.2158  -17.8131   25.0453 C   0  0  0  0  0  0  0  0  0  0  0  0
    7.1735  -16.3504   24.6556 C   0  0  2  0  0  0  0  0  0  0  0  0
    7.5115  -16.3712   23.2096 N   0  0  0  0  0  0  0  0  0  0  0  0
    8.2443  -15.6415   25.3966 C   0  0  0  0  0  0  0  0  0  0  0  0
    9.4242  -15.7508   24.9564 O   0  0  0  0  0  0  0  0  0  0  0  0
    8.6737  -12.8081   27.6364 C   0  0  0  0  0  0  0  0  0  0  0  0
    9.1778  -14.1424   27.1074 C   0  0  2  0  0  0  0  0  0  0  0  0
    8.0318  -14.8548   26.5520 N   0  0  0  0  0  0  0  0  0  0  0  0
    9.8453  -14.9257   28.1587 C   0  0  0  0  0  0  0  0  0  0  0  0
   11.0114  -14.5443   28.8029 O   0  0  0  0  0  0  0  0  0  0  0  0
    9.3242  -16.0153   28.4973 O   0  0  0  0  0  0  0  0  0  0  0  0
  1  2  1  0
  3  2  1  0
  3  4  1  6
  5  3  1  0
  5 13  1  0
  6  5  2  0
  7  8  1  0
  8 10  1  0
  8  9  2  0
 10 11  1  0
 12 11  1  1
 12 13  1  0
 12 14  1  0
 14 15  2  0
 14 18  1  0
 17 16  1  1
 17 19  1  0
 18 17  1  0
 19 20  1  0
 21 19  2  0
M  END
$$$$
