SQA.pdb
     RDKit          3D

 21 20  0  0  1  0  0  0  0  0999 V2000
    2.2263  -22.2933   22.5970 O   0  0  0  0  0  0  0  0  0  0  0  0
    1.3674  -21.9355   23.6240 C   0  0  0  0  0  0  0  0  0  0  0  0
    0.3129  -21.0238   23.0329 C   0  0  2  0  0  0  0  0  0  0  0  0
    0.8377  -19.7580   22.6290 N   0  0  0  0  0  0  0  0  0  0  0  0
   -0.7636  -20.8384   24.0647 C   0  0  0  0  0  0  0  0  0  0  0  0
   -0.6636  -19.9420   24.9541 O   0  0  0  0  0  0  0  0  0  0  0  0
   -5.9645  -18.9376   21.7816 N   0  0  0  0  0  0  0  0  0  0  0  0
   -5.6512  -20.0448   22.6055 C   0  0  0  0  0  0  0  0  0  0  0  0
   -6.4451  -21.0059   22.6366 O   0  0  0  0  0  0  0  0  0  0  0  0
   -4.4166  -20.0871   23.4226 C   0  0  0  0  0  0  0  0  0  0  0  0
   -4.2497  -21.3275   24.2241 C   0  0  0  0  0  0  0  0  0  0  0  0
   -3.0067  -21.4005   25.0859 C   0  0  2  0  0  0  0  0  0  0  0  0
   -1.9200  -21.6337   24.1009 N   0  0  0  0  0  0  0  0  0  0  0  0
   -3.1246  -22.5838   25.9712 C   0  0  0  0  0  0  0  0  0  0  0  0
   -3.0370  -23.7233   25.4310 O   0  0  0  0  0  0  0  0  0  0  0  0
   -2.5278  -23.6495   29.3366 C   0  0  0  0  0  0  0  0  0  0  0  0
   -3.4053  -23.7804   28.1008 C   0  0  2  0  0  0  0  0  0  0  0  0
   -3.3235  -22.5203   27.3696 N   0  0  0  0  0  0  0  0  0  0  0  0
   -4.7943  -24.1127   28.4542 C   0  0  0  0  0  0  0  0  0  0  0  0
   -5.1946  -25.3070   29.0317 O   0  0  0  0  0  0  0  0  0  0  0  0
   -5.6798  -23.2564   28.2172 O   0  0  0  0  0  0  0  0  0  0  0  0
  1  2  1  0
  3  2  1  0
  3  4  1  1
  5  3  1  0
  5 13  1  0
  6  5  2  0
  7  8  1  0
  8 10  1  0
  8  9  2  0
 10 11  1  0
 12 11  1  6
 12 13  1  0
 12 14  1  0
 14 15  2  0
 14 18  1  0
 17 16  1  1
 17 19  1  0
 18 17  1  0
 19 20  1  0
 21 19  2  0
M  END
$$$$
