VMH.pdb
     RDKit          3D

 26 26  0  0  1  0  0  0  0  0999 V2000
   23.8824  -26.2322  -16.6149 C   0  0  0  0  0  0  0  0  0  0  0  0
   25.1745  -25.5023  -16.4438 C   0  0  1  0  0  0  0  0  0  0  0  0
   26.0993  -25.8665  -17.5857 C   0  0  0  0  0  0  0  0  0  0  0  0
   24.9698  -23.9921  -16.3681 C   0  0  2  0  0  0  0  0  0  0  0  0
   26.2503  -23.3596  -16.1634 N   0  0  0  0  0  0  0  0  0  0  0  0
   24.0833  -23.6800  -15.2175 C   0  0  0  0  0  0  0  0  0  0  0  0
   24.5033  -23.8184  -14.0265 O   0  0  0  0  0  0  0  0  0  0  0  0
   21.5309  -18.6940  -15.6584 C   0  0  0  0  0  0  0  0  0  0  0  0
   22.2905  -18.8996  -14.0264 S   0  0  0  0  0  0  0  0  0  0  0  0
   22.8351  -20.6431  -13.8647 C   0  0  0  0  0  0  0  0  0  0  0  0
   21.6410  -21.4881  -14.1796 C   0  0  0  0  0  0  0  0  0  0  0  0
   21.9143  -22.9697  -14.1991 C   0  0  2  0  0  0  0  0  0  0  0  0
   22.7564  -23.2229  -15.3621 N   0  0  0  0  0  0  0  0  0  0  0  0
   20.6581  -23.7784  -14.2787 C   0  0  0  0  0  0  0  0  0  0  0  0
   20.0708  -23.9530  -15.3756 O   0  0  0  0  0  0  0  0  0  0  0  0
   20.1280  -24.3559  -13.0821 N   0  0  0  0  0  0  0  0  0  0  0  0
   18.9449  -25.1536  -13.0175 C   0  0  1  0  0  0  0  0  0  0  0  0
   18.8605  -26.0040  -11.7986 C   0  0  0  0  0  0  0  0  0  0  0  0
   19.9647  -26.9428  -11.6534 C   0  0  0  0  0  0  0  0  0  0  0  0
   21.0325  -27.1955  -12.4848 C   0  0  0  0  0  0  0  0  0  0  0  0
   21.8099  -28.1599  -11.9624 N   0  0  0  0  0  0  0  0  0  0  0  0
   21.2499  -28.5341  -10.7942 C   0  0  0  0  0  0  0  0  0  0  0  0
   20.1437  -27.8037  -10.6102 N   0  0  0  0  0  0  0  0  0  0  0  0
   17.7030  -24.3765  -13.3153 C   0  0  0  0  0  0  0  0  0  0  0  0
   16.5743  -25.0561  -13.7288 O   0  0  0  0  0  0  0  0  0  0  0  0
   17.6084  -23.1329  -13.2134 O   0  0  0  0  0  0  0  0  0  0  0  0
  2  1  1  6
  2  3  1  0
  4  6  1  0
  4  2  1  0
  4  5  1  1
  6  7  2  0
  9  8  1  0
 10  9  1  0
 11 10  1  0
 12 11  1  6
 13  6  1  0
 13 12  1  0
 14 15  2  0
 14 12  1  0
 16 14  1  0
 17 16  1  0
 18 19  1  0
 17 18  1  1
 19 20  2  0
 21 20  1  0
 22 21  1  0
 23 22  2  0
 23 19  1  0
 24 17  1  0
 24 25  1  0
 26 24  2  0
M  END
$$$$
