VMH.pdb
     RDKit          3D

 26 26  0  0  1  0  0  0  0  0999 V2000
   22.4449  -14.6560  -20.5725 C   0  0  0  0  0  0  0  0  0  0  0  0
   21.7494  -13.3818  -20.2202 C   0  0  1  0  0  0  0  0  0  0  0  0
   20.3118  -13.6904  -19.8593 C   0  0  0  0  0  0  0  0  0  0  0  0
   22.4513  -12.6455  -19.0828 C   0  0  2  0  0  0  0  0  0  0  0  0
   22.4843  -13.5045  -17.9241 N   0  0  0  0  0  0  0  0  0  0  0  0
   21.6847  -11.4157  -18.7554 C   0  0  0  0  0  0  0  0  0  0  0  0
   21.6021  -10.4670  -19.5962 O   0  0  0  0  0  0  0  0  0  0  0  0
   16.4572  -12.6916  -14.4315 C   0  0  0  0  0  0  0  0  0  0  0  0
   16.7994  -11.5762  -15.8178 S   0  0  0  0  0  0  0  0  0  0  0  0
   18.6120  -11.3135  -15.9063 C   0  0  0  0  0  0  0  0  0  0  0  0
   18.8464  -10.3772  -17.0498 C   0  0  0  0  0  0  0  0  0  0  0  0
   20.2882   -9.9894  -17.2516 C   0  0  2  0  0  0  0  0  0  0  0  0
   21.0166  -11.2219  -17.5280 N   0  0  0  0  0  0  0  0  0  0  0  0
   20.8643   -9.3003  -16.0550 C   0  0  0  0  0  0  0  0  0  0  0  0
   21.3350   -9.9595  -15.0944 O   0  0  0  0  0  0  0  0  0  0  0  0
   20.8737   -7.8704  -16.0157 N   0  0  0  0  0  0  0  0  0  0  0  0
   21.3172   -7.0890  -14.9053 C   0  0  1  0  0  0  0  0  0  0  0  0
   21.7933   -5.7294  -15.2805 C   0  0  0  0  0  0  0  0  0  0  0  0
   22.9145   -5.7299  -16.2105 C   0  0  0  0  0  0  0  0  0  0  0  0
   23.6832   -6.7727  -16.6763 C   0  0  0  0  0  0  0  0  0  0  0  0
   24.6272   -6.3145  -17.5166 N   0  0  0  0  0  0  0  0  0  0  0  0
   24.4736   -4.9772  -17.5977 C   0  0  0  0  0  0  0  0  0  0  0  0
   23.4465   -4.6281  -16.8142 N   0  0  0  0  0  0  0  0  0  0  0  0
   20.3588   -7.1127  -13.7583 C   0  0  0  0  0  0  0  0  0  0  0  0
   20.8578   -7.0691  -12.4714 O   0  0  0  0  0  0  0  0  0  0  0  0
   19.1145   -7.1678  -13.8805 O   0  0  0  0  0  0  0  0  0  0  0  0
  2  1  1  1
  2  3  1  0
  4  6  1  0
  4  2  1  0
  4  5  1  1
  6  7  2  0
  9  8  1  0
 10  9  1  0
 11 10  1  0
 12 11  1  1
 13  6  1  0
 13 12  1  0
 14 15  2  0
 14 12  1  0
 16 14  1  0
 17 16  1  0
 18 19  1  0
 17 18  1  6
 19 20  2  0
 21 20  1  0
 22 21  1  0
 23 22  2  0
 23 19  1  0
 24 17  1  0
 24 25  1  0
 26 24  2  0
M  END
$$$$
