VMH.pdb
     RDKit          3D

 26 26  0  0  1  0  0  0  0  0999 V2000
   26.0889  -17.9661  -15.8584 C   0  0  0  0  0  0  0  0  0  0  0  0
   26.9866  -18.9636  -16.5144 C   0  0  1  0  0  0  0  0  0  0  0  0
   27.8594  -18.2495  -17.5246 C   0  0  0  0  0  0  0  0  0  0  0  0
   27.8364  -19.7204  -15.4977 C   0  0  2  0  0  0  0  0  0  0  0  0
   28.6452  -20.6887  -16.1976 N   0  0  0  0  0  0  0  0  0  0  0  0
   26.9400  -20.4296  -14.5488 C   0  0  0  0  0  0  0  0  0  0  0  0
   26.3143  -21.4733  -14.9137 O   0  0  0  0  0  0  0  0  0  0  0  0
   24.9385  -20.9128   -6.9336 C   0  0  0  0  0  0  0  0  0  0  0  0
   26.0688  -20.4036   -8.2550 S   0  0  0  0  0  0  0  0  0  0  0  0
   25.3449  -20.9222   -9.8580 C   0  0  0  0  0  0  0  0  0  0  0  0
   26.2555  -20.3942  -10.9216 C   0  0  0  0  0  0  0  0  0  0  0  0
   25.8386  -20.7419  -12.3271 C   0  0  2  0  0  0  0  0  0  0  0  0
   26.7279  -20.0077  -13.2193 N   0  0  0  0  0  0  0  0  0  0  0  0
   24.4121  -20.3839  -12.6019 C   0  0  0  0  0  0  0  0  0  0  0  0
   24.0109  -19.1983  -12.4911 O   0  0  0  0  0  0  0  0  0  0  0  0
   23.5019  -21.4146  -12.9959 N   0  0  0  0  0  0  0  0  0  0  0  0
   22.1412  -21.1991  -13.3735 C   0  0  1  0  0  0  0  0  0  0  0  0
   21.7012  -22.0269  -14.5298 C   0  0  0  0  0  0  0  0  0  0  0  0
   20.3323  -21.7695  -14.9560 C   0  0  0  0  0  0  0  0  0  0  0  0
   19.3925  -20.8990  -14.4518 C   0  0  0  0  0  0  0  0  0  0  0  0
   18.2466  -20.9986  -15.1476 N   0  0  0  0  0  0  0  0  0  0  0  0
   18.4397  -21.9311  -16.1023 C   0  0  0  0  0  0  0  0  0  0  0  0
   19.6905  -22.3926  -15.9863 N   0  0  0  0  0  0  0  0  0  0  0  0
   21.2047  -21.2185  -12.2085 C   0  0  0  0  0  0  0  0  0  0  0  0
   20.2064  -20.2668  -12.1397 O   0  0  0  0  0  0  0  0  0  0  0  0
   21.2582  -22.0501  -11.2750 O   0  0  0  0  0  0  0  0  0  0  0  0
  2  1  1  1
  2  3  1  0
  4  6  1  0
  4  2  1  0
  4  5  1  6
  6  7  2  0
  9  8  1  0
 10  9  1  0
 11 10  1  0
 12 11  1  1
 13  6  1  0
 13 12  1  0
 14 15  2  0
 14 12  1  0
 16 14  1  0
 17 16  1  0
 18 19  1  0
 17 18  1  6
 19 20  2  0
 21 20  1  0
 22 21  1  0
 23 22  2  0
 23 19  1  0
 24 17  1  0
 24 25  1  0
 26 24  2  0
M  END
$$$$
