VMH.pdb
     RDKit          3D

 26 26  0  0  1  0  0  0  0  0999 V2000
   29.5469  -23.2860  -16.8194 C   0  0  0  0  0  0  0  0  0  0  0  0
   28.5868  -22.2600  -16.3126 C   0  0  1  0  0  0  0  0  0  0  0  0
   28.8869  -20.9345  -16.9798 C   0  0  0  0  0  0  0  0  0  0  0  0
   27.1364  -22.6724  -16.5467 C   0  0  2  0  0  0  0  0  0  0  0  0
   26.8853  -22.7009  -17.9672 N   0  0  0  0  0  0  0  0  0  0  0  0
   26.2395  -21.6713  -15.9139 C   0  0  0  0  0  0  0  0  0  0  0  0
   26.1742  -21.5758  -14.6488 O   0  0  0  0  0  0  0  0  0  0  0  0
   28.3303  -16.5956  -16.1130 C   0  0  0  0  0  0  0  0  0  0  0  0
   27.1695  -17.7801  -16.8426 S   0  0  0  0  0  0  0  0  0  0  0  0
   25.5568  -17.6002  -15.9886 C   0  0  0  0  0  0  0  0  0  0  0  0
   24.6160  -18.5497  -16.6613 C   0  0  0  0  0  0  0  0  0  0  0  0
   24.4898  -19.8880  -15.9808 C   0  0  2  0  0  0  0  0  0  0  0  0
   25.4243  -20.7854  -16.6495 N   0  0  0  0  0  0  0  0  0  0  0  0
   23.0988  -20.4342  -16.0545 C   0  0  0  0  0  0  0  0  0  0  0  0
   22.7272  -21.1246  -17.0364 O   0  0  0  0  0  0  0  0  0  0  0  0
   22.1884  -20.1599  -14.9858 N   0  0  0  0  0  0  0  0  0  0  0  0
   20.8385  -20.6230  -14.9266 C   0  0  1  0  0  0  0  0  0  0  0  0
   20.7064  -22.0285  -14.4544 C   0  0  0  0  0  0  0  0  0  0  0  0
   19.3389  -22.5302  -14.4620 C   0  0  0  0  0  0  0  0  0  0  0  0
   18.5664  -22.9910  -15.5042 C   0  0  0  0  0  0  0  0  0  0  0  0
   17.3486  -23.3452  -15.0583 N   0  0  0  0  0  0  0  0  0  0  0  0
   17.3283  -23.1158  -13.7297 C   0  0  0  0  0  0  0  0  0  0  0  0
   18.5221  -22.6272  -13.3734 N   0  0  0  0  0  0  0  0  0  0  0  0
   19.9214  -19.6556  -14.2499 C   0  0  0  0  0  0  0  0  0  0  0  0
   20.4484  -18.4908  -13.7278 O   0  0  0  0  0  0  0  0  0  0  0  0
   18.6883  -19.8255  -14.1212 O   0  0  0  0  0  0  0  0  0  0  0  0
  2  1  1  6
  2  3  1  0
  4  6  1  0
  4  2  1  0
  4  5  1  6
  6  7  2  0
  9  8  1  0
 10  9  1  0
 11 10  1  0
 12 11  1  6
 13  6  1  0
 13 12  1  0
 14 15  2  0
 14 12  1  0
 16 14  1  0
 17 16  1  0
 18 19  1  0
 17 18  1  1
 19 20  2  0
 21 20  1  0
 22 21  1  0
 23 22  2  0
 23 19  1  0
 24 17  1  0
 24 25  1  0
 26 24  2  0
M  END
$$$$
