VMH.pdb
     RDKit          3D

 26 26  0  0  1  0  0  0  0  0999 V2000
   17.7766  -12.0602    4.4844 C   0  0  0  0  0  0  0  0  0  0  0  0
   18.7585  -13.1264    4.8460 C   0  0  1  0  0  0  0  0  0  0  0  0
   19.4563  -12.7359    6.1315 C   0  0  0  0  0  0  0  0  0  0  0  0
   18.0921  -14.4925    4.9803 C   0  0  2  0  0  0  0  0  0  0  0  0
   17.0933  -14.4218    6.0192 N   0  0  0  0  0  0  0  0  0  0  0  0
   19.1184  -15.4974    5.3595 C   0  0  0  0  0  0  0  0  0  0  0  0
   20.0621  -15.7857    4.5593 O   0  0  0  0  0  0  0  0  0  0  0  0
   22.5104  -16.2232   10.8557 C   0  0  0  0  0  0  0  0  0  0  0  0
   23.1633  -16.2665    9.1661 S   0  0  0  0  0  0  0  0  0  0  0  0
   21.8068  -15.8162    8.0173 C   0  0  0  0  0  0  0  0  0  0  0  0
   20.7665  -16.8829    8.1555 C   0  0  0  0  0  0  0  0  0  0  0  0
   20.0726  -17.2464    6.8685 C   0  0  2  0  0  0  0  0  0  0  0  0
   19.1171  -16.1796    6.5944 N   0  0  0  0  0  0  0  0  0  0  0  0
   19.3715  -18.5654    6.9536 C   0  0  0  0  0  0  0  0  0  0  0  0
   18.3111  -18.6917    7.6156 O   0  0  0  0  0  0  0  0  0  0  0  0
   19.9261  -19.6911    6.2670 N   0  0  0  0  0  0  0  0  0  0  0  0
   19.4139  -21.0226    6.3395 C   0  0  1  0  0  0  0  0  0  0  0  0
   19.5151  -21.7748    5.0589 C   0  0  0  0  0  0  0  0  0  0  0  0
   18.9223  -23.1046    5.1044 C   0  0  0  0  0  0  0  0  0  0  0  0
   18.2457  -23.7426    6.1194 C   0  0  0  0  0  0  0  0  0  0  0  0
   17.8818  -24.9771    5.7309 N   0  0  0  0  0  0  0  0  0  0  0  0
   18.3203  -25.1424    4.4665 C   0  0  0  0  0  0  0  0  0  0  0  0
   18.9439  -24.0192    4.0920 N   0  0  0  0  0  0  0  0  0  0  0  0
   19.9077  -21.7709    7.5356 C   0  0  0  0  0  0  0  0  0  0  0  0
   18.9866  -22.3258    8.4021 O   0  0  0  0  0  0  0  0  0  0  0  0
   21.1165  -21.9367    7.8138 O   0  0  0  0  0  0  0  0  0  0  0  0
  2  1  1  1
  2  3  1  0
  4  6  1  0
  4  2  1  0
  4  5  1  1
  6  7  2  0
  9  8  1  0
 10  9  1  0
 11 10  1  0
 12 11  1  1
 13  6  1  0
 13 12  1  0
 14 15  2  0
 14 12  1  0
 16 14  1  0
 17 16  1  0
 18 19  1  0
 17 18  1  6
 19 20  2  0
 21 20  1  0
 22 21  1  0
 23 22  2  0
 23 19  1  0
 24 17  1  0
 24 25  1  0
 26 24  2  0
M  END
$$$$
