VMH.pdb
     RDKit          3D

 26 26  0  0  1  0  0  0  0  0999 V2000
   28.6332  -21.1822  -16.8596 C   0  0  0  0  0  0  0  0  0  0  0  0
   27.9003  -21.6519  -15.6457 C   0  0  1  0  0  0  0  0  0  0  0  0
   28.9000  -22.2014  -14.6504 C   0  0  0  0  0  0  0  0  0  0  0  0
   27.0628  -20.5401  -15.0204 C   0  0  2  0  0  0  0  0  0  0  0  0
   27.9285  -19.4315  -14.6990 N   0  0  0  0  0  0  0  0  0  0  0  0
   26.4379  -21.0477  -13.7719 C   0  0  0  0  0  0  0  0  0  0  0  0
   25.5640  -21.9685  -13.8189 O   0  0  0  0  0  0  0  0  0  0  0  0
   26.4952  -20.5043   -5.8950 C   0  0  0  0  0  0  0  0  0  0  0  0
   27.3244  -20.3989   -7.5026 S   0  0  0  0  0  0  0  0  0  0  0  0
   26.0848  -20.7440   -8.8090 C   0  0  0  0  0  0  0  0  0  0  0  0
   26.8124  -20.6557  -10.1136 C   0  0  0  0  0  0  0  0  0  0  0  0
   25.9504  -20.8992  -11.3251 C   0  0  2  0  0  0  0  0  0  0  0  0
   26.7607  -20.5586  -12.4885 N   0  0  0  0  0  0  0  0  0  0  0  0
   24.6974  -20.0818  -11.3048 C   0  0  0  0  0  0  0  0  0  0  0  0
   24.7448  -18.8291  -11.2198 O   0  0  0  0  0  0  0  0  0  0  0  0
   23.4338  -20.7474  -11.3840 N   0  0  0  0  0  0  0  0  0  0  0  0
   22.2659  -20.2069  -12.0040 C   0  0  1  0  0  0  0  0  0  0  0  0
   22.4966  -19.7109  -13.3884 C   0  0  0  0  0  0  0  0  0  0  0  0
   21.3370  -19.0636  -13.9868 C   0  0  0  0  0  0  0  0  0  0  0  0
   20.1284  -18.7116  -13.4293 C   0  0  0  0  0  0  0  0  0  0  0  0
   19.3371  -18.1440  -14.3562 N   0  0  0  0  0  0  0  0  0  0  0  0
   20.0284  -18.1264  -15.5138 C   0  0  0  0  0  0  0  0  0  0  0  0
   21.2272  -18.6780  -15.2911 N   0  0  0  0  0  0  0  0  0  0  0  0
   21.0682  -21.0890  -11.8558 C   0  0  0  0  0  0  0  0  0  0  0  0
   19.9948  -20.6369  -11.1138 O   0  0  0  0  0  0  0  0  0  0  0  0
   20.9635  -22.2269  -12.3658 O   0  0  0  0  0  0  0  0  0  0  0  0
  2  1  1  6
  2  3  1  0
  4  6  1  0
  4  2  1  0
  4  5  1  1
  6  7  2  0
  9  8  1  0
 10  9  1  0
 11 10  1  0
 12 11  1  1
 13  6  1  0
 13 12  1  0
 14 15  2  0
 14 12  1  0
 16 14  1  0
 17 16  1  0
 18 19  1  0
 17 18  1  6
 19 20  2  0
 21 20  1  0
 22 21  1  0
 23 22  2  0
 23 19  1  0
 24 17  1  0
 24 25  1  0
 26 24  2  0
M  END
$$$$
