VMH.pdb
     RDKit          3D

 26 26  0  0  1  0  0  0  0  0999 V2000
   18.1051  -13.3355  -18.1766 C   0  0  0  0  0  0  0  0  0  0  0  0
   19.1478  -12.6580  -17.3489 C   0  0  1  0  0  0  0  0  0  0  0  0
   20.2946  -13.6195  -17.1200 C   0  0  0  0  0  0  0  0  0  0  0  0
   19.6395  -11.3671  -17.9972 C   0  0  2  0  0  0  0  0  0  0  0  0
   20.2271  -11.6843  -19.2762 N   0  0  0  0  0  0  0  0  0  0  0  0
   20.6730  -10.7502  -17.1263 C   0  0  0  0  0  0  0  0  0  0  0  0
   20.3591  -10.2864  -15.9861 O   0  0  0  0  0  0  0  0  0  0  0  0
   28.3803  -10.4678  -15.6806 C   0  0  0  0  0  0  0  0  0  0  0  0
   26.9739  -11.0126  -16.6848 S   0  0  0  0  0  0  0  0  0  0  0  0
   25.4734  -10.1457  -16.0853 C   0  0  0  0  0  0  0  0  0  0  0  0
   24.3280  -10.6871  -16.8815 C   0  0  0  0  0  0  0  0  0  0  0  0
   23.0054  -10.0220  -16.6014 C   0  0  2  0  0  0  0  0  0  0  0  0
   22.0310  -10.6401  -17.4926 N   0  0  0  0  0  0  0  0  0  0  0  0
   23.0537   -8.5436  -16.8262 C   0  0  0  0  0  0  0  0  0  0  0  0
   23.2190   -8.0706  -17.9784 O   0  0  0  0  0  0  0  0  0  0  0  0
   22.9083   -7.6665  -15.7055 N   0  0  0  0  0  0  0  0  0  0  0  0
   22.8907   -6.2404  -15.7842 C   0  0  1  0  0  0  0  0  0  0  0  0
   21.9764   -5.5966  -14.8017 C   0  0  0  0  0  0  0  0  0  0  0  0
   20.5626   -5.7636  -15.1101 C   0  0  0  0  0  0  0  0  0  0  0  0
   19.9518   -6.4082  -16.1622 C   0  0  0  0  0  0  0  0  0  0  0  0
   18.6156   -6.3033  -16.0585 N   0  0  0  0  0  0  0  0  0  0  0  0
   18.3570   -5.5925  -14.9421 C   0  0  0  0  0  0  0  0  0  0  0  0
   19.5251   -5.2696  -14.3745 N   0  0  0  0  0  0  0  0  0  0  0  0
   24.2606   -5.6442  -15.8354 C   0  0  0  0  0  0  0  0  0  0  0  0
   24.4552   -4.4811  -16.5540 O   0  0  0  0  0  0  0  0  0  0  0  0
   25.2621   -6.1289  -15.2626 O   0  0  0  0  0  0  0  0  0  0  0  0
  2  1  1  6
  2  3  1  0
  4  6  1  0
  4  2  1  0
  4  5  1  6
  6  7  2  0
  9  8  1  0
 10  9  1  0
 11 10  1  0
 12 11  1  6
 13  6  1  0
 13 12  1  0
 14 15  2  0
 14 12  1  0
 16 14  1  0
 17 16  1  0
 18 19  1  0
 17 18  1  1
 19 20  2  0
 21 20  1  0
 22 21  1  0
 23 22  2  0
 23 19  1  0
 24 17  1  0
 24 25  1  0
 26 24  2  0
M  END
$$$$
