IVL.pdb
     RDKit          3D

 24 23  0  0  1  0  0  0  0  0999 V2000
   22.4724  -17.2345  -15.9881 C   0  0  0  0  0  0  0  0  0  0  0  0
   23.5870  -16.7441  -16.8476 C   0  0  0  0  0  0  0  0  0  0  0  0
   23.7065  -15.2217  -16.8876 C   0  0  2  0  0  0  0  0  0  0  0  0
   23.6557  -14.7840  -15.4387 C   0  0  0  0  0  0  0  0  0  0  0  0
   22.4730  -14.7001  -17.6199 C   0  0  2  0  0  0  0  0  0  0  0  0
   22.5992  -15.2543  -18.9795 N   0  0  0  0  0  0  0  0  0  0  0  0
   22.4292  -13.2457  -17.7427 C   0  0  0  0  0  0  0  0  0  0  0  0
   23.5022  -12.6148  -18.0259 O   0  0  0  0  0  0  0  0  0  0  0  0
   20.8561  -11.0832  -20.1126 C   0  0  0  0  0  0  0  0  0  0  0  0
   20.3669  -10.5760  -18.7803 C   0  0  1  0  0  0  0  0  0  0  0  0
   18.9907  -11.1051  -18.5186 C   0  0  0  0  0  0  0  0  0  0  0  0
   21.3388  -10.9662  -17.6618 C   0  0  2  0  0  0  0  0  0  0  0  0
   21.2931  -12.4112  -17.5803 N   0  0  0  0  0  0  0  0  0  0  0  0
   20.8385  -10.3143  -16.4289 C   0  0  0  0  0  0  0  0  0  0  0  0
   20.1683  -10.9062  -15.5511 O   0  0  0  0  0  0  0  0  0  0  0  0
   23.3229  -10.3070  -12.3469 C   0  0  0  0  0  0  0  0  0  0  0  0
   22.0811   -9.8186  -13.0210 C   0  0  1  0  0  0  0  0  0  0  0  0
   21.0804   -9.2836  -11.9751 C   0  0  0  0  0  0  0  0  0  0  0  0
   22.2049   -8.8925  -14.1434 C   0  0  0  0  0  0  0  0  0  0  0  0
   21.0096   -8.3691  -14.8705 C   0  0  2  0  0  0  0  0  0  0  0  0
   21.1432   -8.9469  -16.2482 N   0  0  0  0  0  0  0  0  0  0  0  0
   21.0329   -6.9273  -15.0543 C   0  0  0  0  0  0  0  0  0  0  0  0
   20.4347   -5.9786  -14.2581 O   0  0  0  0  0  0  0  0  0  0  0  0
   21.6636   -6.4431  -16.0623 O   0  0  0  0  0  0  0  0  0  0  0  0
  2  1  1  0
  3  2  1  0
  3  4  1  1
  5  3  1  0
  5  7  1  0
  5  6  1  6
  7  8  2  0
 10 12  1  0
 10 11  1  1
 10  9  1  0
 13  7  1  0
 12 13  1  1
 14 12  1  0
 14 15  2  0
 17 19  1  0
 17 16  1  1
 18 17  1  0
 20 19  1  1
 20 21  1  0
 20 22  1  0
 21 14  1  0
 22 23  1  0
 24 22  2  0
M  END
$$$$
