IVL.pdb
     RDKit          3D

 24 23  0  0  1  0  0  0  0  0999 V2000
   20.5319  -21.2418  -14.8032 C   0  0  0  0  0  0  0  0  0  0  0  0
   21.3967  -20.3438  -13.9863 C   0  0  0  0  0  0  0  0  0  0  0  0
   22.1678  -21.0697  -12.8854 C   0  0  2  0  0  0  0  0  0  0  0  0
   21.1046  -21.6591  -11.9823 C   0  0  0  0  0  0  0  0  0  0  0  0
   22.9527  -20.0072  -12.1206 C   0  0  2  0  0  0  0  0  0  0  0  0
   23.6865  -19.2761  -13.1689 N   0  0  0  0  0  0  0  0  0  0  0  0
   23.9410  -20.5539  -11.1951 C   0  0  0  0  0  0  0  0  0  0  0  0
   23.5514  -20.9990  -10.0638 O   0  0  0  0  0  0  0  0  0  0  0  0
   28.1357  -20.0314  -11.6112 C   0  0  0  0  0  0  0  0  0  0  0  0
   27.5993  -21.3658  -11.1604 C   0  0  1  0  0  0  0  0  0  0  0  0
   28.6140  -22.0456  -10.2938 C   0  0  0  0  0  0  0  0  0  0  0  0
   26.2637  -21.1940  -10.4291 C   0  0  2  0  0  0  0  0  0  0  0  0
   25.3404  -20.6570  -11.4067 N   0  0  0  0  0  0  0  0  0  0  0  0
   26.5175  -20.2520   -9.3140 C   0  0  0  0  0  0  0  0  0  0  0  0
   26.3450  -19.0136   -9.3958 O   0  0  0  0  0  0  0  0  0  0  0  0
   27.9709  -21.2349   -3.3492 C   0  0  0  0  0  0  0  0  0  0  0  0
   27.6468  -20.2574   -4.4329 C   0  0  1  0  0  0  0  0  0  0  0  0
   28.7400  -19.1715   -4.5178 C   0  0  0  0  0  0  0  0  0  0  0  0
   27.3113  -20.7623   -5.7616 C   0  0  0  0  0  0  0  0  0  0  0  0
   27.2246  -19.8612   -6.9498 C   0  0  2  0  0  0  0  0  0  0  0  0
   26.9800  -20.7975   -8.0959 N   0  0  0  0  0  0  0  0  0  0  0  0
   28.4783  -19.1938   -7.2593 C   0  0  0  0  0  0  0  0  0  0  0  0
   28.7942  -17.8741   -7.0353 O   0  0  0  0  0  0  0  0  0  0  0  0
   29.4195  -19.8715   -7.8101 O   0  0  0  0  0  0  0  0  0  0  0  0
  2  1  1  0
  3  2  1  0
  3  4  1  1
  5  3  1  0
  5  7  1  0
  5  6  1  6
  7  8  2  0
 10 12  1  0
 10 11  1  1
 10  9  1  0
 13  7  1  0
 12 13  1  6
 14 12  1  0
 14 15  2  0
 17 19  1  0
 17 16  1  1
 18 17  1  0
 20 19  1  1
 20 21  1  0
 20 22  1  0
 21 14  1  0
 22 23  1  0
 24 22  2  0
M  END
$$$$
