IVL.pdb
     RDKit          3D

 24 23  0  0  1  0  0  0  0  0999 V2000
   16.2272  -21.5316    3.8382 C   0  0  0  0  0  0  0  0  0  0  0  0
   16.1970  -20.0937    3.4471 C   0  0  0  0  0  0  0  0  0  0  0  0
   17.3013  -19.2589    4.0931 C   0  0  2  0  0  0  0  0  0  0  0  0
   16.9797  -19.2573    5.5730 C   0  0  0  0  0  0  0  0  0  0  0  0
   17.1650  -17.8422    3.5416 C   0  0  2  0  0  0  0  0  0  0  0  0
   17.4270  -17.9898    2.0989 N   0  0  0  0  0  0  0  0  0  0  0  0
   18.1506  -16.9041    4.0714 C   0  0  0  0  0  0  0  0  0  0  0  0
   19.3880  -17.1006    3.8263 O   0  0  0  0  0  0  0  0  0  0  0  0
   18.5733  -13.0842    3.7858 C   0  0  0  0  0  0  0  0  0  0  0  0
   18.4782  -13.4758    5.2381 C   0  0  1  0  0  0  0  0  0  0  0  0
   17.0760  -13.2680    5.7211 C   0  0  0  0  0  0  0  0  0  0  0  0
   18.9305  -14.9260    5.4391 C   0  0  2  0  0  0  0  0  0  0  0  0
   17.8925  -15.7513    4.8576 N   0  0  0  0  0  0  0  0  0  0  0  0
   19.0571  -15.1239    6.9019 C   0  0  0  0  0  0  0  0  0  0  0  0
   18.2519  -15.7980    7.5856 O   0  0  0  0  0  0  0  0  0  0  0  0
   23.7300  -17.0185    8.9900 C   0  0  0  0  0  0  0  0  0  0  0  0
   22.2732  -16.6860    9.0344 C   0  0  1  0  0  0  0  0  0  0  0  0
   21.5978  -17.4007   10.2237 C   0  0  0  0  0  0  0  0  0  0  0  0
   21.8668  -15.2847    8.9712 C   0  0  0  0  0  0  0  0  0  0  0  0
   20.4293  -14.8786    8.9753 C   0  0  2  0  0  0  0  0  0  0  0  0
   20.1538  -14.5110    7.5474 N   0  0  0  0  0  0  0  0  0  0  0  0
   20.1746  -13.6688    9.7399 C   0  0  0  0  0  0  0  0  0  0  0  0
   19.7675  -13.5851   11.0509 O   0  0  0  0  0  0  0  0  0  0  0  0
   20.3269  -12.5311    9.1649 O   0  0  0  0  0  0  0  0  0  0  0  0
  2  1  1  0
  3  2  1  0
  3  4  1  1
  5  3  1  0
  5  7  1  0
  5  6  1  6
  7  8  2  0
 10 12  1  0
 10 11  1  6
 10  9  1  0
 13  7  1  0
 12 13  1  1
 14 12  1  0
 14 15  2  0
 17 19  1  0
 17 16  1  1
 18 17  1  0
 20 19  1  6
 20 21  1  0
 20 22  1  0
 21 14  1  0
 22 23  1  0
 24 22  2  0
M  END
$$$$
