IVL.pdb
     RDKit          3D

 24 23  0  0  1  0  0  0  0  0999 V2000
   25.1477  -27.0993  -18.6029 C   0  0  0  0  0  0  0  0  0  0  0  0
   26.3824  -26.2831  -18.4276 C   0  0  0  0  0  0  0  0  0  0  0  0
   26.3329  -25.3471  -17.2213 C   0  0  2  0  0  0  0  0  0  0  0  0
   25.2208  -24.3662  -17.5288 C   0  0  0  0  0  0  0  0  0  0  0  0
   27.6671  -24.6068  -17.1807 C   0  0  2  0  0  0  0  0  0  0  0  0
   28.6242  -25.6145  -16.6904 N   0  0  0  0  0  0  0  0  0  0  0  0
   27.6934  -23.4866  -16.2444 C   0  0  0  0  0  0  0  0  0  0  0  0
   27.7210  -23.7267  -14.9909 O   0  0  0  0  0  0  0  0  0  0  0  0
   26.9053  -19.5301  -17.4340 C   0  0  0  0  0  0  0  0  0  0  0  0
   27.9172  -19.7467  -16.3382 C   0  0  1  0  0  0  0  0  0  0  0  0
   27.9162  -18.5664  -15.4165 C   0  0  0  0  0  0  0  0  0  0  0  0
   27.6272  -21.0476  -15.5822 C   0  0  2  0  0  0  0  0  0  0  0  0
   27.6932  -22.1051  -16.5690 N   0  0  0  0  0  0  0  0  0  0  0  0
   26.2719  -20.8992  -15.0022 C   0  0  0  0  0  0  0  0  0  0  0  0
   25.2180  -21.1993  -15.6098 O   0  0  0  0  0  0  0  0  0  0  0  0
   25.5521  -20.5531   -9.2263 C   0  0  0  0  0  0  0  0  0  0  0  0
   25.1107  -20.9353  -10.6026 C   0  0  1  0  0  0  0  0  0  0  0  0
   23.7601  -21.6794  -10.5434 C   0  0  0  0  0  0  0  0  0  0  0  0
   25.0971  -19.9156  -11.6481 C   0  0  0  0  0  0  0  0  0  0  0  0
   24.8177  -20.2530  -13.0762 C   0  0  2  0  0  0  0  0  0  0  0  0
   26.1803  -20.3888  -13.6884 N   0  0  0  0  0  0  0  0  0  0  0  0
   24.1734  -19.1745  -13.8074 C   0  0  0  0  0  0  0  0  0  0  0  0
   22.8351  -19.0534  -14.1008 O   0  0  0  0  0  0  0  0  0  0  0  0
   24.8966  -18.2120  -14.2533 O   0  0  0  0  0  0  0  0  0  0  0  0
  2  1  1  0
  3  2  1  0
  3  4  1  6
  5  3  1  0
  5  7  1  0
  5  6  1  1
  7  8  2  0
 10 12  1  0
 10 11  1  1
 10  9  1  0
 13  7  1  0
 12 13  1  6
 14 12  1  0
 14 15  2  0
 17 19  1  0
 17 16  1  1
 18 17  1  0
 20 19  1  1
 20 21  1  0
 20 22  1  0
 21 14  1  0
 22 23  1  0
 24 22  2  0
M  END
$$$$
