IVL.pdb
     RDKit          3D

 24 23  0  0  1  0  0  0  0  0999 V2000
   13.1613  -14.2492  -14.0748 C   0  0  0  0  0  0  0  0  0  0  0  0
   14.2338  -13.4318  -14.7097 C   0  0  0  0  0  0  0  0  0  0  0  0
   14.9032  -12.4477  -13.7521 C   0  0  2  0  0  0  0  0  0  0  0  0
   13.7922  -11.5265  -13.2933 C   0  0  0  0  0  0  0  0  0  0  0  0
   15.9168  -11.6532  -14.5714 C   0  0  2  0  0  0  0  0  0  0  0  0
   16.9742  -12.6310  -14.8839 N   0  0  0  0  0  0  0  0  0  0  0  0
   16.5396  -10.5550  -13.8376 C   0  0  0  0  0  0  0  0  0  0  0  0
   17.3706  -10.8240  -12.9065 O   0  0  0  0  0  0  0  0  0  0  0  0
   16.8445   -6.9215  -15.4922 C   0  0  0  0  0  0  0  0  0  0  0  0
   17.7707   -7.3022  -14.3659 C   0  0  1  0  0  0  0  0  0  0  0  0
   18.3670   -6.0650  -13.7690 C   0  0  0  0  0  0  0  0  0  0  0  0
   17.0297   -8.1313  -13.3116 C   0  0  2  0  0  0  0  0  0  0  0  0
   16.3273   -9.1667  -14.0403 N   0  0  0  0  0  0  0  0  0  0  0  0
   16.1067   -7.1996  -12.6223 C   0  0  0  0  0  0  0  0  0  0  0  0
   15.0257   -6.7997  -13.1139 O   0  0  0  0  0  0  0  0  0  0  0  0
   15.0973   -7.2470   -7.0198 C   0  0  0  0  0  0  0  0  0  0  0  0
   14.8340   -6.9573   -8.4626 C   0  0  1  0  0  0  0  0  0  0  0  0
   13.3774   -6.4856   -8.6558 C   0  0  0  0  0  0  0  0  0  0  0  0
   15.7608   -6.0942   -9.1898 C   0  0  0  0  0  0  0  0  0  0  0  0
   15.5744   -5.7782  -10.6378 C   0  0  2  0  0  0  0  0  0  0  0  0
   16.4815   -6.7457  -11.3383 N   0  0  0  0  0  0  0  0  0  0  0  0
   16.0606   -4.4589  -11.0067 C   0  0  0  0  0  0  0  0  0  0  0  0
   15.3233   -3.3034  -11.1194 O   0  0  0  0  0  0  0  0  0  0  0  0
   17.3081   -4.3123  -11.2726 O   0  0  0  0  0  0  0  0  0  0  0  0
  2  1  1  0
  3  2  1  0
  3  4  1  6
  5  3  1  0
  5  7  1  0
  5  6  1  1
  7  8  2  0
 10 12  1  0
 10 11  1  1
 10  9  1  0
 13  7  1  0
 12 13  1  6
 14 12  1  0
 14 15  2  0
 17 19  1  0
 17 16  1  1
 18 17  1  0
 20 19  1  1
 20 21  1  0
 20 22  1  0
 21 14  1  0
 22 23  1  0
 24 22  2  0
M  END
$$$$
