IVL.pdb
     RDKit          3D

 24 23  0  0  1  0  0  0  0  0999 V2000
   17.1390  -16.4733  -16.3420 C   0  0  0  0  0  0  0  0  0  0  0  0
   17.5201  -15.7637  -17.5961 C   0  0  0  0  0  0  0  0  0  0  0  0
   18.4709  -14.5892  -17.3717 C   0  0  2  0  0  0  0  0  0  0  0  0
   17.6768  -13.5890  -16.5578 C   0  0  0  0  0  0  0  0  0  0  0  0
   18.7765  -13.9985  -18.7455 C   0  0  2  0  0  0  0  0  0  0  0  0
   19.5622  -15.0458  -19.4220 N   0  0  0  0  0  0  0  0  0  0  0  0
   19.6002  -12.7937  -18.7013 C   0  0  0  0  0  0  0  0  0  0  0  0
   20.8574  -12.9088  -18.5120 O   0  0  0  0  0  0  0  0  0  0  0  0
   20.2231   -8.0010  -19.7472 C   0  0  0  0  0  0  0  0  0  0  0  0
   19.5378   -9.3376  -19.8715 C   0  0  1  0  0  0  0  0  0  0  0  0
   19.7596   -9.8872  -21.2467 C   0  0  0  0  0  0  0  0  0  0  0  0
   20.0384  -10.3055  -18.7942 C   0  0  2  0  0  0  0  0  0  0  0  0
   19.1578  -11.4536  -18.8498 N   0  0  0  0  0  0  0  0  0  0  0  0
   19.9419   -9.5808  -17.5056 C   0  0  0  0  0  0  0  0  0  0  0  0
   18.8571   -9.2900  -16.9499 O   0  0  0  0  0  0  0  0  0  0  0  0
   23.5152  -10.4341  -13.0273 C   0  0  0  0  0  0  0  0  0  0  0  0
   22.2457   -9.9024  -13.6111 C   0  0  1  0  0  0  0  0  0  0  0  0
   21.4177   -9.1839  -12.5250 C   0  0  0  0  0  0  0  0  0  0  0  0
   22.3108   -9.1011  -14.8303 C   0  0  0  0  0  0  0  0  0  0  0  0
   21.0800   -8.5975  -15.5106 C   0  0  2  0  0  0  0  0  0  0  0  0
   21.1512   -9.2033  -16.8809 N   0  0  0  0  0  0  0  0  0  0  0  0
   21.0875   -7.1597  -15.7249 C   0  0  0  0  0  0  0  0  0  0  0  0
   20.5067   -6.1985  -14.9311 O   0  0  0  0  0  0  0  0  0  0  0  0
   21.6843   -6.6927  -16.7613 O   0  0  0  0  0  0  0  0  0  0  0  0
  2  1  1  0
  3  2  1  0
  3  4  1  1
  5  3  1  0
  5  7  1  0
  5  6  1  6
  7  8  2  0
 10 12  1  0
 10 11  1  6
 10  9  1  0
 13  7  1  0
 12 13  1  1
 14 12  1  0
 14 15  2  0
 17 19  1  0
 17 16  1  1
 18 17  1  0
 20 19  1  1
 20 21  1  0
 20 22  1  0
 21 14  1  0
 22 23  1  0
 24 22  2  0
M  END
$$$$
