IVL.pdb
     RDKit          3D

 24 23  0  0  1  0  0  0  0  0999 V2000
   19.2248  -18.7821  -12.5084 C   0  0  0  0  0  0  0  0  0  0  0  0
   20.5442  -19.3174  -12.9490 C   0  0  0  0  0  0  0  0  0  0  0  0
   21.3447  -19.9761  -11.8270 C   0  0  2  0  0  0  0  0  0  0  0  0
   21.5598  -18.8824  -10.8017 C   0  0  0  0  0  0  0  0  0  0  0  0
   22.6887  -20.3853  -12.4236 C   0  0  2  0  0  0  0  0  0  0  0  0
   22.3499  -21.4609  -13.3723 N   0  0  0  0  0  0  0  0  0  0  0  0
   23.6239  -20.9401  -11.4491 C   0  0  0  0  0  0  0  0  0  0  0  0
   23.2105  -21.8252  -10.6273 O   0  0  0  0  0  0  0  0  0  0  0  0
   27.8217  -20.3809  -11.6119 C   0  0  0  0  0  0  0  0  0  0  0  0
   27.1429  -21.5896  -11.0205 C   0  0  1  0  0  0  0  0  0  0  0  0
   28.0926  -22.2984  -10.1050 C   0  0  0  0  0  0  0  0  0  0  0  0
   25.8574  -21.1864  -10.2905 C   0  0  2  0  0  0  0  0  0  0  0  0
   24.9940  -20.6038  -11.2963 N   0  0  0  0  0  0  0  0  0  0  0  0
   26.2573  -20.2074   -9.2528 C   0  0  0  0  0  0  0  0  0  0  0  0
   26.2438  -18.9662   -9.4244 O   0  0  0  0  0  0  0  0  0  0  0  0
   27.0930  -19.1088   -3.6673 C   0  0  0  0  0  0  0  0  0  0  0  0
   27.9003  -20.0399   -4.5137 C   0  0  1  0  0  0  0  0  0  0  0  0
   28.4891  -21.1740   -3.6484 C   0  0  0  0  0  0  0  0  0  0  0  0
   27.3087  -20.5735   -5.7377 C   0  0  0  0  0  0  0  0  0  0  0  0
   27.1844  -19.7507   -6.9782 C   0  0  2  0  0  0  0  0  0  0  0  0
   26.6750  -20.7190   -8.0042 N   0  0  0  0  0  0  0  0  0  0  0  0
   28.4623  -19.2843   -7.4905 C   0  0  0  0  0  0  0  0  0  0  0  0
   29.3925  -20.0149   -8.1923 O   0  0  0  0  0  0  0  0  0  0  0  0
   28.8039  -18.0645   -7.2811 O   0  0  0  0  0  0  0  0  0  0  0  0
  2  1  1  0
  3  2  1  0
  3  4  1  1
  5  3  1  0
  5  7  1  0
  5  6  1  6
  7  8  2  0
 10 12  1  0
 10 11  1  1
 10  9  1  0
 13  7  1  0
 12 13  1  6
 14 12  1  0
 14 15  2  0
 17 19  1  0
 17 16  1  1
 18 17  1  0
 20 19  1  1
 20 21  1  0
 20 22  1  0
 21 14  1  0
 22 23  1  0
 24 22  2  0
M  END
$$$$
