IVL.pdb
     RDKit          3D

 24 23  0  0  1  0  0  0  0  0999 V2000
   12.8776  -14.7794  -15.2516 C   0  0  0  0  0  0  0  0  0  0  0  0
   14.1219  -14.0839  -15.6871 C   0  0  0  0  0  0  0  0  0  0  0  0
   14.8044  -13.2927  -14.5727 C   0  0  2  0  0  0  0  0  0  0  0  0
   13.7709  -12.2850  -14.1146 C   0  0  0  0  0  0  0  0  0  0  0  0
   15.9826  -12.5595  -15.2083 C   0  0  2  0  0  0  0  0  0  0  0  0
   16.9259  -13.6338  -15.5659 N   0  0  0  0  0  0  0  0  0  0  0  0
   16.6764  -11.6536  -14.2973 C   0  0  0  0  0  0  0  0  0  0  0  0
   17.2453  -12.1331  -13.2599 O   0  0  0  0  0  0  0  0  0  0  0  0
   19.5964   -9.3902  -14.6263 C   0  0  0  0  0  0  0  0  0  0  0  0
   18.4422   -8.5417  -14.1579 C   0  0  1  0  0  0  0  0  0  0  0  0
   17.8354   -7.8325  -15.3290 C   0  0  0  0  0  0  0  0  0  0  0  0
   17.4049   -9.3964  -13.4221 C   0  0  2  0  0  0  0  0  0  0  0  0
   16.8029  -10.2462  -14.4280 N   0  0  0  0  0  0  0  0  0  0  0  0
   16.4329   -8.4503  -12.8260 C   0  0  0  0  0  0  0  0  0  0  0  0
   15.4135   -8.0314  -13.4223 O   0  0  0  0  0  0  0  0  0  0  0  0
   14.7446   -7.1068   -7.1238 C   0  0  0  0  0  0  0  0  0  0  0  0
   14.7173   -6.7354   -8.5716 C   0  0  1  0  0  0  0  0  0  0  0  0
   14.7175   -5.2003   -8.7298 C   0  0  0  0  0  0  0  0  0  0  0  0
   15.6838   -7.3514   -9.4767 C   0  0  0  0  0  0  0  0  0  0  0  0
   15.7607   -6.9796  -10.9214 C   0  0  2  0  0  0  0  0  0  0  0  0
   16.6844   -8.0047  -11.5094 N   0  0  0  0  0  0  0  0  0  0  0  0
   16.4093   -5.6995  -11.1531 C   0  0  0  0  0  0  0  0  0  0  0  0
   15.8025   -4.5053  -11.4649 O   0  0  0  0  0  0  0  0  0  0  0  0
   17.6890   -5.6324  -11.0758 O   0  0  0  0  0  0  0  0  0  0  0  0
  2  1  1  0
  3  2  1  0
  3  4  1  6
  5  3  1  0
  5  7  1  0
  5  6  1  1
  7  8  2  0
 10 12  1  0
 10 11  1  6
 10  9  1  0
 13  7  1  0
 12 13  1  6
 14 12  1  0
 14 15  2  0
 17 19  1  0
 17 16  1  1
 18 17  1  0
 20 19  1  1
 20 21  1  0
 20 22  1  0
 21 14  1  0
 22 23  1  0
 24 22  2  0
M  END
$$$$
