ITH.pdb
     RDKit          3D

 26 26  0  0  1  0  0  0  0  0999 V2000
    6.2705  -11.3524   27.1532 C   0  0  0  0  0  0  0  0  0  0  0  0
    5.7060  -12.4973   26.3015 C   0  0  0  0  0  0  0  0  0  0  0  0
    6.8133  -13.3976   25.8881 C   0  0  2  0  0  0  0  0  0  0  0  0
    7.8799  -12.5439   25.2329 C   0  0  0  0  0  0  0  0  0  0  0  0
    6.4344  -14.5768   25.0524 C   0  0  2  0  0  0  0  0  0  0  0  0
    5.3460  -15.2642   25.7768 N   0  0  0  0  0  0  0  0  0  0  0  0
    7.5133  -15.5456   24.7897 C   0  0  0  0  0  0  0  0  0  0  0  0
    7.8568  -16.3509   25.7065 O   0  0  0  0  0  0  0  0  0  0  0  0
    7.8114  -16.9077   21.0573 C   0  0  0  0  0  0  0  0  0  0  0  0
    9.1884  -16.5493   21.6411 C   0  0  1  0  0  0  0  0  0  0  0  0
    9.7337  -15.4748   20.9572 O   0  0  0  0  0  0  0  0  0  0  0  0
    9.1887  -16.4762   23.1080 C   0  0  2  0  0  0  0  0  0  0  0  0
    8.1489  -15.5839   23.5509 N   0  0  0  0  0  0  0  0  0  0  0  0
   10.4869  -16.2862   23.7865 C   0  0  0  0  0  0  0  0  0  0  0  0
   11.0966  -15.2064   23.5976 O   0  0  0  0  0  0  0  0  0  0  0  0
   11.0902  -17.2384   24.6364 N   0  0  0  0  0  0  0  0  0  0  0  0
   12.4495  -17.0985   25.1361 C   0  0  1  0  0  0  0  0  0  0  0  0
   12.5040  -17.3569   26.6184 C   0  0  0  0  0  0  0  0  0  0  0  0
   11.9276  -16.2162   27.3834 C   0  0  0  0  0  0  0  0  0  0  0  0
   11.4126  -15.0328   26.8654 C   0  0  0  0  0  0  0  0  0  0  0  0
   10.9932  -14.2650   27.8755 N   0  0  0  0  0  0  0  0  0  0  0  0
   11.2239  -14.9201   29.0210 C   0  0  0  0  0  0  0  0  0  0  0  0
   11.7861  -16.0920   28.7097 N   0  0  0  0  0  0  0  0  0  0  0  0
   13.3606  -18.0742   24.4536 C   0  0  0  0  0  0  0  0  0  0  0  0
   12.9172  -18.9691   23.5068 O   0  0  0  0  0  0  0  0  0  0  0  0
   14.5783  -18.0748   24.7584 O   0  0  0  0  0  0  0  0  0  0  0  0
  2  3  1  0
  2  1  1  0
  3  5  1  0
  3  4  1  6
  5  7  1  0
  5  6  1  1
  7  8  2  0
 10  9  1  6
 10 12  1  0
 11 10  1  0
 12 13  1  6
 13  7  1  0
 14 15  2  0
 14 12  1  0
 16 14  1  0
 17 24  1  0
 17 16  1  0
 17 18  1  1
 19 18  1  0
 20 19  2  0
 21 20  1  0
 22 21  1  0
 22 23  2  0
 23 19  1  0
 24 25  1  0
 26 24  2  0
M  END
$$$$
