ITH.pdb
     RDKit          3D

 26 26  0  0  1  0  0  0  0  0999 V2000
    7.5058  -11.8413   18.6525 C   0  0  0  0  0  0  0  0  0  0  0  0
    7.5693  -13.2889   18.1473 C   0  0  0  0  0  0  0  0  0  0  0  0
    8.1092  -14.1633   19.2205 C   0  0  2  0  0  0  0  0  0  0  0  0
    9.4483  -13.5960   19.6456 C   0  0  0  0  0  0  0  0  0  0  0  0
    8.1804  -15.6240   18.9146 C   0  0  2  0  0  0  0  0  0  0  0  0
    6.8257  -16.0221   18.4810 N   0  0  0  0  0  0  0  0  0  0  0  0
    8.5927  -16.4905   20.0330 C   0  0  0  0  0  0  0  0  0  0  0  0
    7.7037  -17.0845   20.7142 O   0  0  0  0  0  0  0  0  0  0  0  0
    8.4493  -19.0077   21.0943 C   0  0  0  0  0  0  0  0  0  0  0  0
    9.9807  -18.9586   20.9603 C   0  0  1  0  0  0  0  0  0  0  0  0
   10.3794  -19.5847   19.7904 O   0  0  0  0  0  0  0  0  0  0  0  0
   10.5380  -17.6263   21.2276 C   0  0  2  0  0  0  0  0  0  0  0  0
    9.9403  -16.6621   20.3408 N   0  0  0  0  0  0  0  0  0  0  0  0
   12.0044  -17.5085   21.3596 C   0  0  0  0  0  0  0  0  0  0  0  0
   12.6570  -17.1355   20.3555 O   0  0  0  0  0  0  0  0  0  0  0  0
   12.7242  -17.7863   22.5419 N   0  0  0  0  0  0  0  0  0  0  0  0
   14.0276  -17.2050   22.8250 C   0  0  1  0  0  0  0  0  0  0  0  0
   13.9431  -15.7027   22.8794 C   0  0  0  0  0  0  0  0  0  0  0  0
   14.0096  -15.1116   21.5138 C   0  0  0  0  0  0  0  0  0  0  0  0
   15.0592  -15.2098   20.6068 C   0  0  0  0  0  0  0  0  0  0  0  0
   14.7338  -14.5434   19.4951 N   0  0  0  0  0  0  0  0  0  0  0  0
   13.5108  -14.0234   19.6635 C   0  0  0  0  0  0  0  0  0  0  0  0
   13.0876  -14.3733   20.8821 N   0  0  0  0  0  0  0  0  0  0  0  0
   14.5441  -17.6963   24.1440 C   0  0  0  0  0  0  0  0  0  0  0  0
   15.8662  -17.5908   24.5110 O   0  0  0  0  0  0  0  0  0  0  0  0
   13.7372  -18.2257   24.9466 O   0  0  0  0  0  0  0  0  0  0  0  0
  2  3  1  0
  2  1  1  0
  3  5  1  0
  3  4  1  6
  5  7  1  0
  5  6  1  1
  7  8  2  0
 10  9  1  6
 10 12  1  0
 11 10  1  0
 12 13  1  6
 13  7  1  0
 14 15  2  0
 14 12  1  0
 16 14  1  0
 17 24  1  0
 17 16  1  0
 17 18  1  1
 19 18  1  0
 20 19  2  0
 21 20  1  0
 22 21  1  0
 22 23  2  0
 23 19  1  0
 24 25  1  0
 26 24  2  0
M  END
$$$$
