ITH.pdb
     RDKit          3D

 26 26  0  0  1  0  0  0  0  0999 V2000
   13.3204  -14.3604   16.0458 C   0  0  0  0  0  0  0  0  0  0  0  0
   11.8040  -14.1929   16.2106 C   0  0  0  0  0  0  0  0  0  0  0  0
   11.4650  -14.1607   17.6569 C   0  0  2  0  0  0  0  0  0  0  0  0
   12.2403  -15.2714   18.3357 C   0  0  0  0  0  0  0  0  0  0  0  0
   10.0109  -14.1890   17.9995 C   0  0  2  0  0  0  0  0  0  0  0  0
    9.4059  -13.0190   17.3310 N   0  0  0  0  0  0  0  0  0  0  0  0
    9.6931  -14.1290   19.4372 C   0  0  0  0  0  0  0  0  0  0  0  0
    9.8949  -13.0491   20.0697 O   0  0  0  0  0  0  0  0  0  0  0  0
    6.5723  -14.6256   21.2019 C   0  0  0  0  0  0  0  0  0  0  0  0
    7.5167  -15.7150   21.7375 C   0  0  1  0  0  0  0  0  0  0  0  0
    7.0719  -16.9681   21.3483 O   0  0  0  0  0  0  0  0  0  0  0  0
    8.9347  -15.4092   21.5077 C   0  0  2  0  0  0  0  0  0  0  0  0
    9.1737  -15.2398   20.0979 N   0  0  0  0  0  0  0  0  0  0  0  0
    9.9385  -16.2411   22.2020 C   0  0  0  0  0  0  0  0  0  0  0  0
   10.6405  -17.0162   21.5093 O   0  0  0  0  0  0  0  0  0  0  0  0
   10.1640  -16.2231   23.5955 N   0  0  0  0  0  0  0  0  0  0  0  0
   11.2794  -16.9166   24.2216 C   0  0  1  0  0  0  0  0  0  0  0  0
   12.4864  -16.0206   24.3073 C   0  0  0  0  0  0  0  0  0  0  0  0
   13.3036  -16.1009   23.0645 C   0  0  0  0  0  0  0  0  0  0  0  0
   13.0620  -16.8982   21.9510 C   0  0  0  0  0  0  0  0  0  0  0  0
   14.0233  -16.6827   21.0481 N   0  0  0  0  0  0  0  0  0  0  0  0
   14.8702  -15.7738   21.5494 C   0  0  0  0  0  0  0  0  0  0  0  0
   14.4248  -15.4330   22.7627 N   0  0  0  0  0  0  0  0  0  0  0  0
   10.9137  -17.3491   25.6098 C   0  0  0  0  0  0  0  0  0  0  0  0
    9.6996  -17.0524   26.1857 O   0  0  0  0  0  0  0  0  0  0  0  0
   11.7496  -18.0090   26.2742 O   0  0  0  0  0  0  0  0  0  0  0  0
  2  3  1  0
  2  1  1  0
  3  5  1  0
  3  4  1  1
  5  7  1  0
  5  6  1  6
  7  8  2  0
 10  9  1  6
 10 12  1  0
 11 10  1  0
 12 13  1  6
 13  7  1  0
 14 15  2  0
 14 12  1  0
 16 14  1  0
 17 24  1  0
 17 16  1  0
 17 18  1  1
 19 18  1  0
 20 19  2  0
 21 20  1  0
 22 21  1  0
 22 23  2  0
 23 19  1  0
 24 25  1  0
 26 24  2  0
M  END
$$$$
