ITH.pdb
     RDKit          3D

 26 26  0  0  1  0  0  0  0  0999 V2000
    7.5482  -11.8549   21.3623 C   0  0  0  0  0  0  0  0  0  0  0  0
    7.5164  -13.2707   20.7712 C   0  0  0  0  0  0  0  0  0  0  0  0
    8.8432  -13.5904   20.1837 C   0  0  2  0  0  0  0  0  0  0  0  0
    9.1236  -12.5705   19.0988 C   0  0  0  0  0  0  0  0  0  0  0  0
    9.0398  -14.9940   19.7107 C   0  0  2  0  0  0  0  0  0  0  0  0
    8.1539  -15.1639   18.5410 N   0  0  0  0  0  0  0  0  0  0  0  0
    8.7320  -16.0475   20.6941 C   0  0  0  0  0  0  0  0  0  0  0  0
    8.0568  -17.0559   20.3278 O   0  0  0  0  0  0  0  0  0  0  0  0
    8.8645  -18.6810   21.2760 C   0  0  0  0  0  0  0  0  0  0  0  0
    9.5902  -18.2238   22.5526 C   0  0  1  0  0  0  0  0  0  0  0  0
   10.9600  -18.3689   22.4030 O   0  0  0  0  0  0  0  0  0  0  0  0
    9.1071  -16.9314   23.0561 C   0  0  2  0  0  0  0  0  0  0  0  0
    9.1775  -15.9446   22.0098 N   0  0  0  0  0  0  0  0  0  0  0  0
    9.6131  -16.4711   24.3652 C   0  0  0  0  0  0  0  0  0  0  0  0
   10.6005  -15.6977   24.3750 O   0  0  0  0  0  0  0  0  0  0  0  0
    9.0597  -16.8418   25.6100 N   0  0  0  0  0  0  0  0  0  0  0  0
    9.5151  -16.2802   26.8726 C   0  0  1  0  0  0  0  0  0  0  0  0
    8.3603  -15.7088   27.6516 C   0  0  0  0  0  0  0  0  0  0  0  0
    7.7015  -14.6034   26.9014 C   0  0  0  0  0  0  0  0  0  0  0  0
    8.2833  -13.4140   26.4763 C   0  0  0  0  0  0  0  0  0  0  0  0
    7.3622  -12.6861   25.8379 N   0  0  0  0  0  0  0  0  0  0  0  0
    6.2118  -13.3725   25.8420 C   0  0  0  0  0  0  0  0  0  0  0  0
    6.4308  -14.5236   26.4850 N   0  0  0  0  0  0  0  0  0  0  0  0
   10.1709  -17.3376   27.7090 C   0  0  0  0  0  0  0  0  0  0  0  0
   10.2801  -18.6474   27.3010 O   0  0  0  0  0  0  0  0  0  0  0  0
   10.6398  -17.0148   28.8278 O   0  0  0  0  0  0  0  0  0  0  0  0
  2  3  1  0
  2  1  1  0
  3  5  1  0
  3  4  1  6
  5  7  1  0
  5  6  1  6
  7  8  2  0
 10  9  1  6
 10 12  1  0
 11 10  1  0
 12 13  1  6
 13  7  1  0
 14 15  2  0
 14 12  1  0
 16 14  1  0
 17 24  1  0
 17 16  1  0
 17 18  1  1
 19 18  1  0
 20 19  2  0
 21 20  1  0
 22 21  1  0
 22 23  2  0
 23 19  1  0
 24 25  1  0
 26 24  2  0
M  END
$$$$
