ITH.pdb
     RDKit          3D

 26 26  0  0  1  0  0  0  0  0999 V2000
    8.0662  -11.6206   19.8959 C   0  0  0  0  0  0  0  0  0  0  0  0
    7.6587  -12.9329   19.2127 C   0  0  0  0  0  0  0  0  0  0  0  0
    8.5031  -14.0412   19.7287 C   0  0  2  0  0  0  0  0  0  0  0  0
    9.9523  -13.6427   19.5373 C   0  0  0  0  0  0  0  0  0  0  0  0
    8.2114  -15.4046   19.1916 C   0  0  2  0  0  0  0  0  0  0  0  0
    6.7462  -15.5750   19.2701 N   0  0  0  0  0  0  0  0  0  0  0  0
    8.8563  -16.5221   19.9034 C   0  0  0  0  0  0  0  0  0  0  0  0
    8.4182  -16.8633   21.0431 O   0  0  0  0  0  0  0  0  0  0  0  0
    9.6384  -19.8508   18.1602 C   0  0  0  0  0  0  0  0  0  0  0  0
   10.9232  -19.2963   18.7984 C   0  0  1  0  0  0  0  0  0  0  0  0
   11.8235  -18.9214   17.8143 O   0  0  0  0  0  0  0  0  0  0  0  0
   10.6598  -18.3241   19.8673 C   0  0  2  0  0  0  0  0  0  0  0  0
    9.9314  -17.2016   19.3354 N   0  0  0  0  0  0  0  0  0  0  0  0
   11.7817  -17.9588   20.7559 C   0  0  0  0  0  0  0  0  0  0  0  0
   12.4709  -18.8861   21.2442 O   0  0  0  0  0  0  0  0  0  0  0  0
   12.1338  -16.6340   21.0936 N   0  0  0  0  0  0  0  0  0  0  0  0
   13.2681  -16.3140   21.9467 C   0  0  1  0  0  0  0  0  0  0  0  0
   13.7937  -14.9359   21.6436 C   0  0  0  0  0  0  0  0  0  0  0  0
   14.3300  -14.8594   20.2562 C   0  0  0  0  0  0  0  0  0  0  0  0
   15.2533  -15.7149   19.6647 C   0  0  0  0  0  0  0  0  0  0  0  0
   15.4759  -15.3104   18.4106 N   0  0  0  0  0  0  0  0  0  0  0  0
   14.7247  -14.2248   18.1829 C   0  0  0  0  0  0  0  0  0  0  0  0
   14.0409  -13.9652   19.3017 N   0  0  0  0  0  0  0  0  0  0  0  0
   12.8657  -16.3581   23.3903 C   0  0  0  0  0  0  0  0  0  0  0  0
   13.7711  -16.2326   24.4191 O   0  0  0  0  0  0  0  0  0  0  0  0
   11.6527  -16.5161   23.6722 O   0  0  0  0  0  0  0  0  0  0  0  0
  2  3  1  0
  2  1  1  0
  3  5  1  0
  3  4  1  6
  5  7  1  0
  5  6  1  1
  7  8  2  0
 10  9  1  6
 10 12  1  0
 11 10  1  0
 12 13  1  6
 13  7  1  0
 14 15  2  0
 14 12  1  0
 16 14  1  0
 17 24  1  0
 17 16  1  0
 17 18  1  6
 19 18  1  0
 20 19  2  0
 21 20  1  0
 22 21  1  0
 22 23  2  0
 23 19  1  0
 24 25  1  0
 26 24  2  0
M  END
$$$$
