ITH.pdb
     RDKit          3D

 26 26  0  0  1  0  0  0  0  0999 V2000
    8.2215  -11.6969   20.7492 C   0  0  0  0  0  0  0  0  0  0  0  0
    7.7960  -13.1299   20.4024 C   0  0  0  0  0  0  0  0  0  0  0  0
    8.8356  -13.7608   19.5486 C   0  0  2  0  0  0  0  0  0  0  0  0
    8.9956  -12.9033   18.3096 C   0  0  0  0  0  0  0  0  0  0  0  0
    8.6394  -15.2052   19.2204 C   0  0  2  0  0  0  0  0  0  0  0  0
    7.4979  -15.2652   18.2850 N   0  0  0  0  0  0  0  0  0  0  0  0
    8.3583  -16.0872   20.3669 C   0  0  0  0  0  0  0  0  0  0  0  0
    7.1537  -16.3225   20.6842 O   0  0  0  0  0  0  0  0  0  0  0  0
   11.3439  -18.7091   21.4298 C   0  0  0  0  0  0  0  0  0  0  0  0
    9.9123  -18.8075   21.9833 C   0  0  1  0  0  0  0  0  0  0  0  0
    9.8526  -19.7561   22.9914 O   0  0  0  0  0  0  0  0  0  0  0  0
    9.3143  -17.4960   22.2650 C   0  0  2  0  0  0  0  0  0  0  0  0
    9.3980  -16.6616   21.0944 N   0  0  0  0  0  0  0  0  0  0  0  0
    9.6949  -16.8230   23.5236 C   0  0  0  0  0  0  0  0  0  0  0  0
   10.6327  -15.9910   23.4851 O   0  0  0  0  0  0  0  0  0  0  0  0
    9.0733  -17.0514   24.7704 N   0  0  0  0  0  0  0  0  0  0  0  0
    9.4495  -16.3364   25.9804 C   0  0  1  0  0  0  0  0  0  0  0  0
    8.2322  -15.9794   26.7914 C   0  0  0  0  0  0  0  0  0  0  0  0
    7.4554  -14.8875   26.1410 C   0  0  0  0  0  0  0  0  0  0  0  0
    7.7769  -14.2119   24.9687 C   0  0  0  0  0  0  0  0  0  0  0  0
    6.8284  -13.3043   24.7187 N   0  0  0  0  0  0  0  0  0  0  0  0
    5.9124  -13.3790   25.6934 C   0  0  0  0  0  0  0  0  0  0  0  0
    6.3026  -14.3354   26.5417 N   0  0  0  0  0  0  0  0  0  0  0  0
   10.3501  -17.1825   26.8294 C   0  0  0  0  0  0  0  0  0  0  0  0
   10.9737  -16.7036   27.9588 O   0  0  0  0  0  0  0  0  0  0  0  0
   10.5434  -18.3772   26.4961 O   0  0  0  0  0  0  0  0  0  0  0  0
  2  3  1  0
  2  1  1  0
  3  5  1  0
  3  4  1  6
  5  7  1  0
  5  6  1  6
  7  8  2  0
 10  9  1  1
 10 12  1  0
 11 10  1  0
 12 13  1  6
 13  7  1  0
 14 15  2  0
 14 12  1  0
 16 14  1  0
 17 24  1  0
 17 16  1  0
 17 18  1  1
 19 18  1  0
 20 19  2  0
 21 20  1  0
 22 21  1  0
 22 23  2  0
 23 19  1  0
 24 25  1  0
 26 24  2  0
M  END
$$$$
