EMI.pdb
     RDKit          3D

 26 25  0  0  1  0  0  0  0  0999 V2000
   10.1471  -16.2803   19.5198 N   0  0  0  0  0  0  0  0  0  0  0  0
    9.1034  -16.4897   20.5054 C   0  0  1  0  0  0  0  0  0  0  0  0
    8.8443  -17.9503   20.6022 C   0  0  0  0  0  0  0  0  0  0  0  0
   10.0381  -18.8347   20.4650 C   0  0  0  0  0  0  0  0  0  0  0  0
    9.6387  -20.1050   19.8163 C   0  0  0  0  0  0  0  0  0  0  0  0
    8.8628  -20.8942   20.3998 O   0  0  0  0  0  0  0  0  0  0  0  0
    9.3570  -15.7877   21.7609 C   0  0  0  0  0  0  0  0  0  0  0  0
   10.5209  -15.6220   22.2028 O   0  0  0  0  0  0  0  0  0  0  0  0
   10.1111  -20.4435   18.5617 O   0  0  0  0  0  0  0  0  0  0  0  0
    4.9055  -12.9468   26.2497 C   0  0  0  0  0  0  0  0  0  0  0  0
    6.4258  -11.9459   26.1440 S   0  0  0  0  0  0  0  0  0  0  0  0
    7.7938  -12.9838   25.5769 C   0  0  0  0  0  0  0  0  0  0  0  0
    7.4000  -13.7586   24.3164 C   0  0  0  0  0  0  0  0  0  0  0  0
    8.5759  -14.5718   23.8243 C   0  0  2  0  0  0  0  0  0  0  0  0
    8.3046  -15.2364   22.5823 N   0  0  0  0  0  0  0  0  0  0  0  0
    8.8628  -15.5863   24.8624 C   0  0  0  0  0  0  0  0  0  0  0  0
    8.6454  -16.8138   24.7094 O   0  0  0  0  0  0  0  0  0  0  0  0
   11.9670  -14.9019   30.2237 C   0  0  0  0  0  0  0  0  0  0  0  0
   11.5614  -15.7869   29.1078 C   0  0  0  0  0  0  0  0  0  0  0  0
   10.7618  -15.2191   28.0102 C   0  0  2  0  0  0  0  0  0  0  0  0
    9.6784  -14.3276   28.6504 C   0  0  0  0  0  0  0  0  0  0  0  0
   10.1948  -16.0842   26.9581 C   0  0  2  0  0  0  0  0  0  0  0  0
    9.4112  -15.1647   26.0970 N   0  0  0  0  0  0  0  0  0  0  0  0
    9.3102  -17.1710   27.2980 C   0  0  0  0  0  0  0  0  0  0  0  0
    8.0648  -17.0813   27.2353 O   0  0  0  0  0  0  0  0  0  0  0  0
    9.7789  -18.4295   27.7306 O   0  0  0  0  0  0  0  0  0  0  0  0
  2  7  1  0
  2  1  1  6
  3  2  1  0
  4  3  1  0
  5  9  1  0
  5  4  1  0
  6  5  2  0
  7  8  2  0
 10 11  1  0
 11 12  1  0
 13 12  1  0
 14 13  1  1
 15 14  1  0
 15  7  1  0
 16 17  2  0
 16 14  1  0
 19 18  1  0
 19 20  1  0
 20 22  1  0
 20 21  1  1
 22 24  1  0
 22 23  1  6
 23 16  1  0
 24 26  1  0
 25 24  2  0
M  END
$$$$
