EMI.pdb
     RDKit          3D

 26 25  0  0  1  0  0  0  0  0999 V2000
    9.4368  -18.9764   20.8388 N   0  0  0  0  0  0  0  0  0  0  0  0
   10.6384  -18.2146   21.1225 C   0  0  1  0  0  0  0  0  0  0  0  0
   11.2698  -17.8467   19.8279 C   0  0  0  0  0  0  0  0  0  0  0  0
   10.4053  -17.0964   18.8709 C   0  0  0  0  0  0  0  0  0  0  0  0
   11.1595  -16.8398   17.6221 C   0  0  0  0  0  0  0  0  0  0  0  0
   10.7628  -17.3183   16.5364 O   0  0  0  0  0  0  0  0  0  0  0  0
   10.4120  -17.1265   22.0701 C   0  0  0  0  0  0  0  0  0  0  0  0
   11.3362  -16.3520   22.4214 O   0  0  0  0  0  0  0  0  0  0  0  0
   12.3094  -16.0719   17.6293 O   0  0  0  0  0  0  0  0  0  0  0  0
    5.9404  -12.3318   26.3458 C   0  0  0  0  0  0  0  0  0  0  0  0
    5.9098  -13.6619   25.0991 S   0  0  0  0  0  0  0  0  0  0  0  0
    7.4280  -14.6370   25.2191 C   0  0  0  0  0  0  0  0  0  0  0  0
    7.5209  -15.6398   24.0659 C   0  0  0  0  0  0  0  0  0  0  0  0
    8.9709  -15.9450   23.7654 C   0  0  2  0  0  0  0  0  0  0  0  0
    9.1258  -16.8586   22.6703 N   0  0  0  0  0  0  0  0  0  0  0  0
    9.5454  -16.5524   24.9861 C   0  0  0  0  0  0  0  0  0  0  0  0
    9.7984  -17.7777   25.0963 O   0  0  0  0  0  0  0  0  0  0  0  0
   10.5630  -12.6593   28.8444 C   0  0  0  0  0  0  0  0  0  0  0  0
   10.7468  -13.7659   27.8777 C   0  0  0  0  0  0  0  0  0  0  0  0
   10.3907  -15.1326   28.2919 C   0  0  2  0  0  0  0  0  0  0  0  0
   11.1945  -15.4447   29.5706 C   0  0  0  0  0  0  0  0  0  0  0  0
   10.4448  -16.2540   27.3347 C   0  0  2  0  0  0  0  0  0  0  0  0
    9.8295  -15.7201   26.0948 N   0  0  0  0  0  0  0  0  0  0  0  0
    9.7687  -17.4956   27.6185 C   0  0  0  0  0  0  0  0  0  0  0  0
    8.5350  -17.6464   27.4832 O   0  0  0  0  0  0  0  0  0  0  0  0
   10.4459  -18.6466   28.0738 O   0  0  0  0  0  0  0  0  0  0  0  0
  2  7  1  0
  2  1  1  6
  3  2  1  0
  4  3  1  0
  5  9  1  0
  5  4  1  0
  6  5  2  0
  7  8  2  0
 10 11  1  0
 11 12  1  0
 13 12  1  0
 14 13  1  1
 15 14  1  0
 15  7  1  0
 16 17  2  0
 16 14  1  0
 19 18  1  0
 19 20  1  0
 20 22  1  0
 20 21  1  1
 22 24  1  0
 22 23  1  6
 23 16  1  0
 24 26  1  0
 25 24  2  0
M  END
$$$$
