EMI.pdb
     RDKit          3D

 26 25  0  0  1  0  0  0  0  0999 V2000
    8.6757  -19.0715   21.0321 N   0  0  0  0  0  0  0  0  0  0  0  0
    9.8188  -18.1920   20.8763 C   0  0  1  0  0  0  0  0  0  0  0  0
    9.9238  -17.8189   19.4412 C   0  0  0  0  0  0  0  0  0  0  0  0
    9.4481  -16.4499   19.0869 C   0  0  0  0  0  0  0  0  0  0  0  0
    9.6025  -16.2360   17.6294 C   0  0  0  0  0  0  0  0  0  0  0  0
    8.8770  -16.8566   16.8208 O   0  0  0  0  0  0  0  0  0  0  0  0
    9.8265  -17.0929   21.8381 C   0  0  0  0  0  0  0  0  0  0  0  0
   10.7150  -16.2053   21.8215 O   0  0  0  0  0  0  0  0  0  0  0  0
   10.5444  -15.3529   17.1347 O   0  0  0  0  0  0  0  0  0  0  0  0
    5.9401  -11.6431   25.3460 C   0  0  0  0  0  0  0  0  0  0  0  0
    6.0576  -13.4616   25.4063 S   0  0  0  0  0  0  0  0  0  0  0  0
    7.4991  -14.0053   24.4593 C   0  0  0  0  0  0  0  0  0  0  0  0
    7.6034  -15.5329   24.4599 C   0  0  0  0  0  0  0  0  0  0  0  0
    8.9452  -15.9568   23.9068 C   0  0  2  0  0  0  0  0  0  0  0  0
    8.8273  -16.9413   22.8701 N   0  0  0  0  0  0  0  0  0  0  0  0
    9.7137  -16.5312   25.0332 C   0  0  0  0  0  0  0  0  0  0  0  0
   10.4953  -17.5067   24.9117 O   0  0  0  0  0  0  0  0  0  0  0  0
    9.9040  -12.7771   29.0466 C   0  0  0  0  0  0  0  0  0  0  0  0
   10.2532  -13.7919   28.0263 C   0  0  0  0  0  0  0  0  0  0  0  0
   10.2834  -15.2096   28.4211 C   0  0  2  0  0  0  0  0  0  0  0  0
   11.2622  -15.3311   29.6067 C   0  0  0  0  0  0  0  0  0  0  0  0
   10.5132  -16.2707   27.4221 C   0  0  2  0  0  0  0  0  0  0  0  0
    9.5695  -15.9606   26.3202 N   0  0  0  0  0  0  0  0  0  0  0  0
   10.2987  -17.6562   27.7592 C   0  0  0  0  0  0  0  0  0  0  0  0
    9.1708  -18.1951   27.7422 O   0  0  0  0  0  0  0  0  0  0  0  0
   11.3476  -18.5208   28.1373 O   0  0  0  0  0  0  0  0  0  0  0  0
  2  7  1  0
  2  1  1  6
  3  2  1  0
  4  3  1  0
  5  9  1  0
  5  4  1  0
  6  5  2  0
  7  8  2  0
 10 11  1  0
 11 12  1  0
 13 12  1  0
 14 13  1  1
 15 14  1  0
 15  7  1  0
 16 17  2  0
 16 14  1  0
 19 18  1  0
 19 20  1  0
 20 22  1  0
 20 21  1  1
 22 24  1  0
 22 23  1  6
 23 16  1  0
 24 26  1  0
 25 24  2  0
M  END
$$$$
