EMI.pdb
     RDKit          3D

 26 25  0  0  1  0  0  0  0  0999 V2000
    9.3725  -18.8046   20.4504 N   0  0  0  0  0  0  0  0  0  0  0  0
   10.6648  -18.2141   20.7431 C   0  0  1  0  0  0  0  0  0  0  0  0
   11.3188  -17.8686   19.4536 C   0  0  0  0  0  0  0  0  0  0  0  0
   10.4145  -17.3682   18.3774 C   0  0  0  0  0  0  0  0  0  0  0  0
   11.2158  -17.0264   17.1794 C   0  0  0  0  0  0  0  0  0  0  0  0
   10.7657  -17.2529   16.0343 O   0  0  0  0  0  0  0  0  0  0  0  0
   10.5918  -17.1515   21.7425 C   0  0  0  0  0  0  0  0  0  0  0  0
   11.6027  -16.4835   22.0732 O   0  0  0  0  0  0  0  0  0  0  0  0
   12.4687  -16.4542   17.2999 O   0  0  0  0  0  0  0  0  0  0  0  0
    5.7426  -13.3040   26.3630 C   0  0  0  0  0  0  0  0  0  0  0  0
    6.4719  -13.1356   24.7004 S   0  0  0  0  0  0  0  0  0  0  0  0
    8.0426  -14.0295   24.6367 C   0  0  0  0  0  0  0  0  0  0  0  0
    7.9693  -15.1835   23.6332 C   0  0  0  0  0  0  0  0  0  0  0  0
    9.3375  -15.8039   23.4622 C   0  0  2  0  0  0  0  0  0  0  0  0
    9.3688  -16.7897   22.4205 N   0  0  0  0  0  0  0  0  0  0  0  0
    9.6819  -16.4491   24.7483 C   0  0  0  0  0  0  0  0  0  0  0  0
    9.6042  -17.6873   24.9442 O   0  0  0  0  0  0  0  0  0  0  0  0
   10.3453  -12.8123   28.9248 C   0  0  0  0  0  0  0  0  0  0  0  0
   10.7629  -13.8068   27.9102 C   0  0  0  0  0  0  0  0  0  0  0  0
   10.3947  -15.2178   28.1103 C   0  0  2  0  0  0  0  0  0  0  0  0
   10.9656  -15.6477   29.4769 C   0  0  0  0  0  0  0  0  0  0  0  0
   10.6682  -16.2282   27.0705 C   0  0  2  0  0  0  0  0  0  0  0  0
   10.1236  -15.6400   25.8221 N   0  0  0  0  0  0  0  0  0  0  0  0
   10.1096  -17.5539   27.1692 C   0  0  0  0  0  0  0  0  0  0  0  0
   10.7853  -18.5563   27.4879 O   0  0  0  0  0  0  0  0  0  0  0  0
    8.7498  -17.8300   26.9134 O   0  0  0  0  0  0  0  0  0  0  0  0
  2  7  1  0
  2  1  1  6
  3  2  1  0
  4  3  1  0
  5  9  1  0
  5  4  1  0
  6  5  2  0
  7  8  2  0
 10 11  1  0
 11 12  1  0
 13 12  1  0
 14 13  1  1
 15 14  1  0
 15  7  1  0
 16 17  2  0
 16 14  1  0
 19 18  1  0
 19 20  1  0
 20 22  1  0
 20 21  1  1
 22 24  1  0
 22 23  1  6
 23 16  1  0
 24 26  1  0
 25 24  2  0
M  END
$$$$
