EMI.pdb
     RDKit          3D

 26 25  0  0  1  0  0  0  0  0999 V2000
    9.8756  -19.0393   20.8894 N   0  0  0  0  0  0  0  0  0  0  0  0
   10.8174  -17.9436   21.0204 C   0  0  1  0  0  0  0  0  0  0  0  0
   11.1272  -17.4341   19.6587 C   0  0  0  0  0  0  0  0  0  0  0  0
    9.9612  -17.2733   18.7418 C   0  0  0  0  0  0  0  0  0  0  0  0
   10.4275  -16.7432   17.4396 C   0  0  0  0  0  0  0  0  0  0  0  0
    9.6092  -16.5229   16.5192 O   0  0  0  0  0  0  0  0  0  0  0  0
   10.4025  -16.9518   22.0091 C   0  0  0  0  0  0  0  0  0  0  0  0
   11.1231  -15.9647   22.2987 O   0  0  0  0  0  0  0  0  0  0  0  0
   11.7666  -16.4825   17.2148 O   0  0  0  0  0  0  0  0  0  0  0  0
    6.3734  -12.3584   26.0634 C   0  0  0  0  0  0  0  0  0  0  0  0
    6.6117  -13.4873   24.6516 S   0  0  0  0  0  0  0  0  0  0  0  0
    7.0862  -15.1229   25.2599 C   0  0  0  0  0  0  0  0  0  0  0  0
    7.3512  -16.0791   24.0938 C   0  0  0  0  0  0  0  0  0  0  0  0
    8.8342  -16.1404   23.8059 C   0  0  2  0  0  0  0  0  0  0  0  0
    9.1486  -17.0261   22.7221 N   0  0  0  0  0  0  0  0  0  0  0  0
    9.4923  -16.6309   25.0370 C   0  0  0  0  0  0  0  0  0  0  0  0
   10.0235  -17.7649   25.1330 O   0  0  0  0  0  0  0  0  0  0  0  0
   10.1861  -12.5098   28.7514 C   0  0  0  0  0  0  0  0  0  0  0  0
   10.4536  -13.6501   27.8453 C   0  0  0  0  0  0  0  0  0  0  0  0
   10.1207  -15.0091   28.3024 C   0  0  2  0  0  0  0  0  0  0  0  0
   10.8595  -15.2339   29.6373 C   0  0  0  0  0  0  0  0  0  0  0  0
   10.2681  -16.1695   27.4032 C   0  0  2  0  0  0  0  0  0  0  0  0
    9.5321  -15.7878   26.1729 N   0  0  0  0  0  0  0  0  0  0  0  0
    9.7665  -17.4655   27.7879 C   0  0  0  0  0  0  0  0  0  0  0  0
    8.5636  -17.7895   27.6828 O   0  0  0  0  0  0  0  0  0  0  0  0
   10.5947  -18.4782   28.3163 O   0  0  0  0  0  0  0  0  0  0  0  0
  2  7  1  0
  2  1  1  6
  3  2  1  0
  4  3  1  0
  5  9  1  0
  5  4  1  0
  6  5  2  0
  7  8  2  0
 10 11  1  0
 11 12  1  0
 13 12  1  0
 14 13  1  1
 15 14  1  0
 15  7  1  0
 16 17  2  0
 16 14  1  0
 19 18  1  0
 19 20  1  0
 20 22  1  0
 20 21  1  1
 22 24  1  0
 22 23  1  6
 23 16  1  0
 24 26  1  0
 25 24  2  0
M  END
$$$$
