EMI.pdb
     RDKit          3D

 26 25  0  0  1  0  0  0  0  0999 V2000
    8.6138  -19.8102   22.1525 N   0  0  0  0  0  0  0  0  0  0  0  0
    9.3543  -18.5926   22.4238 C   0  0  1  0  0  0  0  0  0  0  0  0
    9.5063  -17.8485   21.1459 C   0  0  0  0  0  0  0  0  0  0  0  0
   10.8859  -17.3805   20.8240 C   0  0  0  0  0  0  0  0  0  0  0  0
   11.1097  -17.4733   19.3627 C   0  0  0  0  0  0  0  0  0  0  0  0
   12.0172  -18.2054   18.9091 O   0  0  0  0  0  0  0  0  0  0  0  0
    8.8189  -17.8413   23.5562 C   0  0  0  0  0  0  0  0  0  0  0  0
    7.6064  -17.5208   23.6237 O   0  0  0  0  0  0  0  0  0  0  0  0
   10.3267  -16.7584   18.4753 O   0  0  0  0  0  0  0  0  0  0  0  0
   11.9805  -14.5395   28.8543 C   0  0  0  0  0  0  0  0  0  0  0  0
   10.5019  -15.4494   29.4114 S   0  0  0  0  0  0  0  0  0  0  0  0
    9.3703  -15.6730   28.0187 C   0  0  0  0  0  0  0  0  0  0  0  0
   10.0422  -16.4689   26.8966 C   0  0  0  0  0  0  0  0  0  0  0  0
    9.1158  -16.5605   25.7051 C   0  0  2  0  0  0  0  0  0  0  0  0
    9.6297  -17.4133   24.6724 N   0  0  0  0  0  0  0  0  0  0  0  0
    8.9659  -15.1895   25.1694 C   0  0  0  0  0  0  0  0  0  0  0  0
    9.8388  -14.6213   24.4677 O   0  0  0  0  0  0  0  0  0  0  0  0
    6.6675  -13.1581   21.3101 C   0  0  0  0  0  0  0  0  0  0  0  0
    7.5049  -13.1553   22.5314 C   0  0  0  0  0  0  0  0  0  0  0  0
    6.8428  -13.0542   23.8421 C   0  0  2  0  0  0  0  0  0  0  0  0
    5.8757  -11.8549   23.7722 C   0  0  0  0  0  0  0  0  0  0  0  0
    7.6290  -13.0399   25.0904 C   0  0  2  0  0  0  0  0  0  0  0  0
    7.7813  -14.4699   25.4553 N   0  0  0  0  0  0  0  0  0  0  0  0
    7.1275  -12.3743   26.2672 C   0  0  0  0  0  0  0  0  0  0  0  0
    7.0994  -11.1302   26.3867 O   0  0  0  0  0  0  0  0  0  0  0  0
    6.6254  -13.0746   27.3844 O   0  0  0  0  0  0  0  0  0  0  0  0
  2  7  1  0
  2  1  1  6
  3  2  1  0
  4  3  1  0
  5  9  1  0
  5  4  1  0
  6  5  2  0
  7  8  2  0
 10 11  1  0
 11 12  1  0
 13 12  1  0
 14 13  1  1
 15 14  1  0
 15  7  1  0
 16 17  2  0
 16 14  1  0
 19 18  1  0
 19 20  1  0
 20 22  1  0
 20 21  1  6
 22 24  1  0
 22 23  1  1
 23 16  1  0
 24 26  1  0
 25 24  2  0
M  END
$$$$
