EMI.pdb
     RDKit          3D

 26 25  0  0  1  0  0  0  0  0999 V2000
   10.2659  -15.7250   19.4356 N   0  0  0  0  0  0  0  0  0  0  0  0
    9.8094  -16.5485   20.5393 C   0  0  1  0  0  0  0  0  0  0  0  0
   10.5974  -17.8090   20.5334 C   0  0  0  0  0  0  0  0  0  0  0  0
   10.4844  -18.6428   19.3012 C   0  0  0  0  0  0  0  0  0  0  0  0
   11.2245  -19.9112   19.4946 C   0  0  0  0  0  0  0  0  0  0  0  0
   10.6289  -20.9325   19.9039 O   0  0  0  0  0  0  0  0  0  0  0  0
    9.7507  -15.8221   21.8051 C   0  0  0  0  0  0  0  0  0  0  0  0
   10.7378  -15.1847   22.2486 O   0  0  0  0  0  0  0  0  0  0  0  0
   12.5789  -19.9934   19.2291 O   0  0  0  0  0  0  0  0  0  0  0  0
    5.4347  -11.6442   25.2489 C   0  0  0  0  0  0  0  0  0  0  0  0
    5.5963  -13.2589   26.0803 S   0  0  0  0  0  0  0  0  0  0  0  0
    7.1998  -13.9895   25.6738 C   0  0  0  0  0  0  0  0  0  0  0  0
    7.1611  -14.6474   24.2918 C   0  0  0  0  0  0  0  0  0  0  0  0
    8.5494  -15.0984   23.8979 C   0  0  2  0  0  0  0  0  0  0  0  0
    8.5697  -15.7796   22.6356 N   0  0  0  0  0  0  0  0  0  0  0  0
    9.0178  -16.0234   24.9535 C   0  0  0  0  0  0  0  0  0  0  0  0
    9.1115  -17.2655   24.7936 O   0  0  0  0  0  0  0  0  0  0  0  0
   10.9749  -13.0596   29.2278 C   0  0  0  0  0  0  0  0  0  0  0  0
   10.9138  -14.0052   28.0899 C   0  0  0  0  0  0  0  0  0  0  0  0
   10.3897  -15.3605   28.3247 C   0  0  2  0  0  0  0  0  0  0  0  0
   11.2710  -16.0071   29.4127 C   0  0  0  0  0  0  0  0  0  0  0  0
   10.1532  -16.2878   27.2018 C   0  0  2  0  0  0  0  0  0  0  0  0
    9.3824  -15.4933   26.2140 N   0  0  0  0  0  0  0  0  0  0  0  0
    9.4147  -17.5101   27.4012 C   0  0  0  0  0  0  0  0  0  0  0  0
    8.1655  -17.5564   27.4195 O   0  0  0  0  0  0  0  0  0  0  0  0
   10.0431  -18.7587   27.5926 O   0  0  0  0  0  0  0  0  0  0  0  0
  2  7  1  0
  2  1  1  6
  3  2  1  0
  4  3  1  0
  5  9  1  0
  5  4  1  0
  6  5  2  0
  7  8  2  0
 10 11  1  0
 11 12  1  0
 13 12  1  0
 14 13  1  1
 15 14  1  0
 15  7  1  0
 16 17  2  0
 16 14  1  0
 19 18  1  0
 19 20  1  0
 20 22  1  0
 20 21  1  1
 22 24  1  0
 22 23  1  6
 23 16  1  0
 24 26  1  0
 25 24  2  0
M  END
$$$$
