EMI.pdb
     RDKit          3D

 26 25  0  0  1  0  0  0  0  0999 V2000
    5.1365  -18.8583   20.4922 N   0  0  0  0  0  0  0  0  0  0  0  0
    6.1788  -19.2803   21.4086 C   0  0  1  0  0  0  0  0  0  0  0  0
    7.4783  -19.2259   20.6887 C   0  0  0  0  0  0  0  0  0  0  0  0
    7.8080  -17.9255   20.0357 C   0  0  0  0  0  0  0  0  0  0  0  0
    9.0924  -18.0506   19.3086 C   0  0  0  0  0  0  0  0  0  0  0  0
   10.1074  -18.4906   19.8929 O   0  0  0  0  0  0  0  0  0  0  0  0
    6.1173  -18.5930   22.6960 C   0  0  0  0  0  0  0  0  0  0  0  0
    5.3263  -17.6388   22.8994 O   0  0  0  0  0  0  0  0  0  0  0  0
    9.1967  -17.6865   17.9788 O   0  0  0  0  0  0  0  0  0  0  0  0
    9.2765  -19.2888   29.2280 C   0  0  0  0  0  0  0  0  0  0  0  0
    7.4763  -19.4293   28.9746 S   0  0  0  0  0  0  0  0  0  0  0  0
    6.9841  -18.4120   27.5629 C   0  0  0  0  0  0  0  0  0  0  0  0
    7.2475  -19.1479   26.2463 C   0  0  0  0  0  0  0  0  0  0  0  0
    6.8661  -18.2659   25.0790 C   0  0  2  0  0  0  0  0  0  0  0  0
    6.9492  -18.9507   23.8212 N   0  0  0  0  0  0  0  0  0  0  0  0
    7.8110  -17.1274   25.0724 C   0  0  0  0  0  0  0  0  0  0  0  0
    8.9387  -17.1669   24.5210 O   0  0  0  0  0  0  0  0  0  0  0  0
    5.3626  -12.2235   25.8632 C   0  0  0  0  0  0  0  0  0  0  0  0
    6.3108  -13.2261   25.3261 C   0  0  0  0  0  0  0  0  0  0  0  0
    7.4627  -13.6230   26.1520 C   0  0  2  0  0  0  0  0  0  0  0  0
    8.2813  -12.3469   26.4346 C   0  0  0  0  0  0  0  0  0  0  0  0
    8.3340  -14.7439   25.7505 C   0  0  2  0  0  0  0  0  0  0  0  0
    7.4365  -15.9248   25.7177 N   0  0  0  0  0  0  0  0  0  0  0  0
    9.4667  -15.1203   26.5594 C   0  0  0  0  0  0  0  0  0  0  0  0
    9.3595  -15.7689   27.6229 O   0  0  0  0  0  0  0  0  0  0  0  0
   10.7940  -14.7866   26.2163 O   0  0  0  0  0  0  0  0  0  0  0  0
  2  7  1  0
  2  1  1  6
  3  2  1  0
  4  3  1  0
  5  9  1  0
  5  4  1  0
  6  5  2  0
  7  8  2  0
 10 11  1  0
 11 12  1  0
 13 12  1  0
 14 13  1  1
 15 14  1  0
 15  7  1  0
 16 17  2  0
 16 14  1  0
 19 18  1  0
 19 20  1  0
 20 22  1  0
 20 21  1  6
 22 24  1  0
 22 23  1  1
 23 16  1  0
 24 26  1  0
 25 24  2  0
M  END
$$$$
