EMI.pdb
     RDKit          3D

 26 25  0  0  1  0  0  0  0  0999 V2000
    9.2261  -18.9886   20.7977 N   0  0  0  0  0  0  0  0  0  0  0  0
   10.4634  -18.2637   21.0170 C   0  0  1  0  0  0  0  0  0  0  0  0
   11.0473  -17.9325   19.6906 C   0  0  0  0  0  0  0  0  0  0  0  0
   10.0823  -17.4724   18.6499 C   0  0  0  0  0  0  0  0  0  0  0  0
   10.8233  -17.0850   17.4272 C   0  0  0  0  0  0  0  0  0  0  0  0
   11.9470  -17.5800   17.1877 O   0  0  0  0  0  0  0  0  0  0  0  0
   10.3155  -17.1574   21.9590 C   0  0  0  0  0  0  0  0  0  0  0  0
   11.2791  -16.4091   22.2574 O   0  0  0  0  0  0  0  0  0  0  0  0
   10.2933  -16.1750   16.5313 O   0  0  0  0  0  0  0  0  0  0  0  0
    5.9680  -11.9194   25.8880 C   0  0  0  0  0  0  0  0  0  0  0  0
    5.8938  -13.5055   24.9918 S   0  0  0  0  0  0  0  0  0  0  0  0
    7.5601  -14.1917   24.8400 C   0  0  0  0  0  0  0  0  0  0  0  0
    7.5605  -15.4161   23.9208 C   0  0  0  0  0  0  0  0  0  0  0  0
    8.9813  -15.8616   23.6583 C   0  0  2  0  0  0  0  0  0  0  0  0
    9.0673  -16.8403   22.6130 N   0  0  0  0  0  0  0  0  0  0  0  0
    9.4869  -16.4531   24.9167 C   0  0  0  0  0  0  0  0  0  0  0  0
    9.7483  -17.6742   25.0515 O   0  0  0  0  0  0  0  0  0  0  0  0
   10.2553  -12.4923   28.7495 C   0  0  0  0  0  0  0  0  0  0  0  0
   10.6548  -13.6051   27.8580 C   0  0  0  0  0  0  0  0  0  0  0  0
   10.2576  -14.9761   28.2175 C   0  0  2  0  0  0  0  0  0  0  0  0
   10.9412  -15.3110   29.5587 C   0  0  0  0  0  0  0  0  0  0  0  0
   10.3940  -16.0835   27.2522 C   0  0  2  0  0  0  0  0  0  0  0  0
    9.6913  -15.6097   26.0345 N   0  0  0  0  0  0  0  0  0  0  0  0
    9.8539  -17.3872   27.5484 C   0  0  0  0  0  0  0  0  0  0  0  0
   10.5488  -18.3293   27.9872 O   0  0  0  0  0  0  0  0  0  0  0  0
    8.4920  -17.7082   27.3669 O   0  0  0  0  0  0  0  0  0  0  0  0
  2  7  1  0
  2  1  1  6
  3  2  1  0
  4  3  1  0
  5  9  1  0
  5  4  1  0
  6  5  2  0
  7  8  2  0
 10 11  1  0
 11 12  1  0
 13 12  1  0
 14 13  1  1
 15 14  1  0
 15  7  1  0
 16 17  2  0
 16 14  1  0
 19 18  1  0
 19 20  1  0
 20 22  1  0
 20 21  1  1
 22 24  1  0
 22 23  1  6
 23 16  1  0
 24 26  1  0
 25 24  2  0
M  END
$$$$
