SDC.pdb
     RDKit          3D

 21 20  0  0  1  0  0  0  0  0999 V2000
    6.6916  -14.5843   20.3505 O   0  0  0  0  0  0  0  0  0  0  0  0
    7.9470  -14.8508   19.7559 C   0  0  0  0  0  0  0  0  0  0  0  0
    8.2756  -16.3235   19.9612 C   0  0  2  0  0  0  0  0  0  0  0  0
    7.1580  -17.1593   19.5796 N   0  0  0  0  0  0  0  0  0  0  0  0
    8.6433  -16.5443   21.3814 C   0  0  0  0  0  0  0  0  0  0  0  0
    7.8404  -17.0995   22.1711 O   0  0  0  0  0  0  0  0  0  0  0  0
    9.8944  -16.1376   21.8684 N   0  0  0  0  0  0  0  0  0  0  0  0
   10.3013  -16.5112   23.2726 C   0  0  1  0  0  0  0  0  0  0  0  0
   11.7896  -16.6911   23.1742 C   0  0  0  0  0  0  0  0  0  0  0  0
   12.3126  -17.8844   22.5693 C   0  0  0  0  0  0  0  0  0  0  0  0
   11.8134  -19.0028   22.6321 O   0  0  0  0  0  0  0  0  0  0  0  0
    9.8719  -15.3910   24.1403 C   0  0  0  0  0  0  0  0  0  0  0  0
   10.0079  -14.2071   23.6726 O   0  0  0  0  0  0  0  0  0  0  0  0
   13.5091  -17.7774   21.8320 O   0  0  0  0  0  0  0  0  0  0  0  0
    9.3234  -15.4349   25.4209 N   0  0  0  0  0  0  0  0  0  0  0  0
    8.9681  -14.2844   26.2104 C   0  0  1  0  0  0  0  0  0  0  0  0
    7.5753  -13.8026   26.0376 C   0  0  0  0  0  0  0  0  0  0  0  0
    7.2128  -12.2837   26.9203 S   0  0  0  0  0  0  0  0  0  0  0  0
    9.2435  -14.5042   27.6482 C   0  0  0  0  0  0  0  0  0  0  0  0
    9.1777  -13.4092   28.4975 O   0  0  0  0  0  0  0  0  0  0  0  0
    9.5296  -15.6241   28.1218 O   0  0  0  0  0  0  0  0  0  0  0  0
  2  1  1  0
  3  5  1  0
  3  2  1  0
  3  4  1  1
  5  6  2  0
  7  5  1  0
  7  8  1  0
  8  9  1  6
  9 10  1  0
 10 14  1  0
 11 10  2  0
 12 15  1  0
 12  8  1  0
 13 12  2  0
 16 17  1  1
 16 19  1  0
 16 15  1  0
 18 17  1  0
 19 20  1  0
 21 19  2  0
M  END
$$$$
