SDC.pdb
     RDKit          3D

 21 20  0  0  1  0  0  0  0  0999 V2000
   -5.5255  -25.7047   24.2105 O   0  0  0  0  0  0  0  0  0  0  0  0
   -4.3647  -25.7842   25.0147 C   0  0  0  0  0  0  0  0  0  0  0  0
   -4.7477  -26.3938   26.3566 C   0  0  2  0  0  0  0  0  0  0  0  0
   -5.8058  -27.3678   26.1973 N   0  0  0  0  0  0  0  0  0  0  0  0
   -5.1590  -25.3094   27.2816 C   0  0  0  0  0  0  0  0  0  0  0  0
   -5.1162  -25.4788   28.5250 O   0  0  0  0  0  0  0  0  0  0  0  0
   -5.6029  -24.0749   26.7849 N   0  0  0  0  0  0  0  0  0  0  0  0
   -5.8699  -22.9415   27.7447 C   0  0  1  0  0  0  0  0  0  0  0  0
   -5.4632  -21.7192   26.9714 C   0  0  0  0  0  0  0  0  0  0  0  0
   -4.0824  -21.3238   26.9616 C   0  0  0  0  0  0  0  0  0  0  0  0
   -3.2826  -21.4750   27.8789 O   0  0  0  0  0  0  0  0  0  0  0  0
   -7.3114  -23.0100   28.0758 C   0  0  0  0  0  0  0  0  0  0  0  0
   -8.1360  -22.9732   27.0973 O   0  0  0  0  0  0  0  0  0  0  0  0
   -3.5847  -20.7035   25.7978 O   0  0  0  0  0  0  0  0  0  0  0  0
   -7.9193  -23.1161   29.3256 N   0  0  0  0  0  0  0  0  0  0  0  0
   -9.3371  -23.2271   29.5509 C   0  0  1  0  0  0  0  0  0  0  0  0
   -9.9068  -24.5824   29.3492 C   0  0  0  0  0  0  0  0  0  0  0  0
  -11.6390  -24.7206   29.7943 S   0  0  0  0  0  0  0  0  0  0  0  0
   -9.7172  -22.7222   30.8895 C   0  0  0  0  0  0  0  0  0  0  0  0
  -10.9665  -22.1361   31.0326 O   0  0  0  0  0  0  0  0  0  0  0  0
   -8.9659  -22.8020   31.8844 O   0  0  0  0  0  0  0  0  0  0  0  0
  2  1  1  0
  3  5  1  0
  3  2  1  0
  3  4  1  6
  5  6  2  0
  7  5  1  0
  7  8  1  0
  8  9  1  6
  9 10  1  0
 10 14  1  0
 11 10  2  0
 12 15  1  0
 12  8  1  0
 13 12  2  0
 16 17  1  1
 16 19  1  0
 16 15  1  0
 18 17  1  0
 19 20  1  0
 21 19  2  0
M  END
$$$$
