SDC.pdb
     RDKit          3D

 21 20  0  0  1  0  0  0  0  0999 V2000
    8.9851  -17.7179   18.3328 O   0  0  0  0  0  0  0  0  0  0  0  0
    9.7292  -17.5995   17.1358 C   0  0  0  0  0  0  0  0  0  0  0  0
   10.4966  -18.8960   16.9141 C   0  0  2  0  0  0  0  0  0  0  0  0
    9.5916  -20.0208   16.8173 N   0  0  0  0  0  0  0  0  0  0  0  0
   11.4608  -19.0844   18.0257 C   0  0  0  0  0  0  0  0  0  0  0  0
   11.1771  -19.8237   19.0001 O   0  0  0  0  0  0  0  0  0  0  0  0
   12.7070  -18.4407   18.0089 N   0  0  0  0  0  0  0  0  0  0  0  0
   13.7068  -18.7308   19.1014 C   0  0  1  0  0  0  0  0  0  0  0  0
   15.0120  -18.2671   18.5194 C   0  0  0  0  0  0  0  0  0  0  0  0
   15.7331  -19.1383   17.6340 C   0  0  0  0  0  0  0  0  0  0  0  0
   16.0310  -20.3069   17.8569 O   0  0  0  0  0  0  0  0  0  0  0  0
   13.2559  -17.9692   20.2884 C   0  0  0  0  0  0  0  0  0  0  0  0
   12.8004  -16.7903   20.0852 O   0  0  0  0  0  0  0  0  0  0  0  0
   16.1434  -18.6179   16.3900 O   0  0  0  0  0  0  0  0  0  0  0  0
   13.2492  -18.3565   21.6273 N   0  0  0  0  0  0  0  0  0  0  0  0
   12.7965  -17.5405   22.7239 C   0  0  1  0  0  0  0  0  0  0  0  0
   11.3366  -17.5841   22.9861 C   0  0  0  0  0  0  0  0  0  0  0  0
   10.8032  -16.5207   24.3287 S   0  0  0  0  0  0  0  0  0  0  0  0
   13.5348  -17.8446   23.9704 C   0  0  0  0  0  0  0  0  0  0  0  0
   14.3713  -18.9514   23.9770 O   0  0  0  0  0  0  0  0  0  0  0  0
   13.4356  -17.1518   25.0051 O   0  0  0  0  0  0  0  0  0  0  0  0
  2  1  1  0
  3  5  1  0
  3  2  1  0
  3  4  1  1
  5  6  2  0
  7  5  1  0
  7  8  1  0
  8  9  1  6
  9 10  1  0
 10 14  1  0
 11 10  2  0
 12 15  1  0
 12  8  1  0
 13 12  2  0
 16 17  1  1
 16 19  1  0
 16 15  1  0
 18 17  1  0
 19 20  1  0
 21 19  2  0
M  END
$$$$
