SDC.pdb
     RDKit          3D

 21 20  0  0  1  0  0  0  0  0999 V2000
    8.7919  -14.0349   19.2364 O   0  0  0  0  0  0  0  0  0  0  0  0
    9.5743  -13.2225   18.3829 C   0  0  0  0  0  0  0  0  0  0  0  0
   10.3124  -14.1233   17.4018 C   0  0  2  0  0  0  0  0  0  0  0  0
    9.3895  -14.9949   16.7074 N   0  0  0  0  0  0  0  0  0  0  0  0
   11.3324  -14.9091   18.1388 C   0  0  0  0  0  0  0  0  0  0  0  0
   11.1385  -16.1212   18.4024 O   0  0  0  0  0  0  0  0  0  0  0  0
   12.5322  -14.3129   18.5545 N   0  0  0  0  0  0  0  0  0  0  0  0
   13.5544  -15.1401   19.2949 C   0  0  1  0  0  0  0  0  0  0  0  0
   14.8260  -14.3556   19.1380 C   0  0  0  0  0  0  0  0  0  0  0  0
   15.6323  -14.5552   17.9661 C   0  0  0  0  0  0  0  0  0  0  0  0
   16.1946  -15.5973   17.6470 O   0  0  0  0  0  0  0  0  0  0  0  0
   13.0665  -15.2512   20.6884 C   0  0  0  0  0  0  0  0  0  0  0  0
   12.9337  -14.1618   21.3474 O   0  0  0  0  0  0  0  0  0  0  0  0
   15.8028  -13.4629   17.0918 O   0  0  0  0  0  0  0  0  0  0  0  0
   12.7172  -16.3939   21.4061 N   0  0  0  0  0  0  0  0  0  0  0  0
   12.2756  -16.4093   22.7765 C   0  0  1  0  0  0  0  0  0  0  0  0
   10.8174  -16.6040   22.9704 C   0  0  0  0  0  0  0  0  0  0  0  0
   10.3019  -16.6011   24.6885 S   0  0  0  0  0  0  0  0  0  0  0  0
   13.0212  -17.4057   23.5780 C   0  0  0  0  0  0  0  0  0  0  0  0
   12.9610  -17.3046   24.9604 O   0  0  0  0  0  0  0  0  0  0  0  0
   13.6950  -18.3239   23.0647 O   0  0  0  0  0  0  0  0  0  0  0  0
  2  1  1  0
  3  5  1  0
  3  2  1  0
  3  4  1  1
  5  6  2  0
  7  5  1  0
  7  8  1  0
  8  9  1  1
  9 10  1  0
 10 14  1  0
 11 10  2  0
 12 15  1  0
 12  8  1  0
 13 12  2  0
 16 17  1  6
 16 19  1  0
 16 15  1  0
 18 17  1  0
 19 20  1  0
 21 19  2  0
M  END
$$$$
