SDC.pdb
     RDKit          3D

 21 20  0  0  1  0  0  0  0  0999 V2000
    7.0180  -13.4763   19.5526 O   0  0  0  0  0  0  0  0  0  0  0  0
    8.2958  -13.8892   19.1082 C   0  0  0  0  0  0  0  0  0  0  0  0
    8.3629  -15.4089   19.1763 C   0  0  2  0  0  0  0  0  0  0  0  0
    7.3474  -16.0081   18.3377 N   0  0  0  0  0  0  0  0  0  0  0  0
    8.2067  -15.8379   20.5879 C   0  0  0  0  0  0  0  0  0  0  0  0
    7.1284  -16.3416   20.9878 O   0  0  0  0  0  0  0  0  0  0  0  0
    9.2604  -15.6891   21.5019 N   0  0  0  0  0  0  0  0  0  0  0  0
    9.1121  -16.2353   22.9008 C   0  0  1  0  0  0  0  0  0  0  0  0
   10.4142  -16.9443   23.1441 C   0  0  0  0  0  0  0  0  0  0  0  0
   10.6941  -17.4657   24.4529 C   0  0  0  0  0  0  0  0  0  0  0  0
   10.2551  -18.5104   24.9217 O   0  0  0  0  0  0  0  0  0  0  0  0
    8.8729  -15.0671   23.7784 C   0  0  0  0  0  0  0  0  0  0  0  0
    9.5964  -14.0303   23.5778 O   0  0  0  0  0  0  0  0  0  0  0  0
   11.5506  -16.7203   25.2880 O   0  0  0  0  0  0  0  0  0  0  0  0
    7.9505  -14.9230   24.8134 N   0  0  0  0  0  0  0  0  0  0  0  0
    7.8131  -13.7553   25.6447 C   0  0  1  0  0  0  0  0  0  0  0  0
    6.4743  -13.1157   25.6228 C   0  0  0  0  0  0  0  0  0  0  0  0
    6.3057  -11.7349   26.7554 S   0  0  0  0  0  0  0  0  0  0  0  0
    8.2088  -14.0330   27.0438 C   0  0  0  0  0  0  0  0  0  0  0  0
    8.3327  -12.9565   27.9102 O   0  0  0  0  0  0  0  0  0  0  0  0
    8.4331  -15.1854   27.4706 O   0  0  0  0  0  0  0  0  0  0  0  0
  2  1  1  0
  3  5  1  0
  3  2  1  0
  3  4  1  6
  5  6  2  0
  7  5  1  0
  7  8  1  0
  8  9  1  1
  9 10  1  0
 10 14  1  0
 11 10  2  0
 12 15  1  0
 12  8  1  0
 13 12  2  0
 16 17  1  1
 16 19  1  0
 16 15  1  0
 18 17  1  0
 19 20  1  0
 21 19  2  0
M  END
$$$$
