GKY.pdb
     RDKit          3D

 26 26  0  0  1  0  0  0  0  0999 V2000
   20.8294  -16.9775  -15.8084 N   0  0  0  0  0  0  0  0  0  0  0  0
   22.1107  -16.8969  -15.1481 C   0  0  0  0  0  0  0  0  0  0  0  0
   22.4661  -18.1835  -14.4845 C   0  0  0  0  0  0  0  0  0  0  0  0
   21.7379  -18.5835  -13.5600 O   0  0  0  0  0  0  0  0  0  0  0  0
   23.6009  -18.9326  -14.8927 N   0  0  0  0  0  0  0  0  0  0  0  0
   23.9874  -20.1726  -14.2632 C   0  0  1  0  0  0  0  0  0  0  0  0
   24.8182  -21.0036  -15.2441 C   0  0  0  0  0  0  0  0  0  0  0  0
   25.1476  -22.3665  -14.6849 C   0  0  0  0  0  0  0  0  0  0  0  0
   25.8491  -23.1388  -15.7647 C   0  0  0  0  0  0  0  0  0  0  0  0
   26.2270  -24.5386  -15.3354 C   0  0  0  0  0  0  0  0  0  0  0  0
   26.8431  -25.3191  -16.3680 N   0  0  0  0  0  0  0  0  0  0  0  0
   24.8748  -19.9251  -13.1016 C   0  0  0  0  0  0  0  0  0  0  0  0
   25.6884  -18.9765  -13.1682 O   0  0  0  0  0  0  0  0  0  0  0  0
   28.4345  -18.9917   -5.1979 O   0  0  0  0  0  0  0  0  0  0  0  0
   27.5742  -19.2458   -6.2856 C   0  0  0  0  0  0  0  0  0  0  0  0
   27.1503  -18.2327   -7.1114 C   0  0  0  0  0  0  0  0  0  0  0  0
   26.3109  -18.4941   -8.1694 C   0  0  0  0  0  0  0  0  0  0  0  0
   25.8536  -19.7860   -8.4532 C   0  0  0  0  0  0  0  0  0  0  0  0
   24.9373  -20.0367   -9.5874 C   0  0  0  0  0  0  0  0  0  0  0  0
   25.6951  -20.4186  -10.8102 C   0  0  2  0  0  0  0  0  0  0  0  0
   24.8395  -20.7088  -11.9348 N   0  0  0  0  0  0  0  0  0  0  0  0
   26.6858  -21.4905  -10.6464 C   0  0  0  0  0  0  0  0  0  0  0  0
   28.0059  -21.1560  -10.3923 O   0  0  0  0  0  0  0  0  0  0  0  0
   26.2960  -20.7900   -7.6050 C   0  0  0  0  0  0  0  0  0  0  0  0
   27.1354  -20.5269   -6.5473 C   0  0  0  0  0  0  0  0  0  0  0  0
   26.3586  -22.6777  -10.7320 O   0  0  0  0  0  0  0  0  0  0  0  0
  1  2  1  0
  3  4  2  0
  3  2  1  0
  5  3  1  0
  6  7  1  6
  6  5  1  0
  8  7  1  0
  8  9  1  0
  9 10  1  0
 11 10  1  0
 12  6  1  0
 12 21  1  0
 13 12  2  0
 15 14  1  0
 15 16  2  0
 17 16  1  0
 18 17  2  0
 19 18  1  0
 20 21  1  0
 20 19  1  1
 22 20  1  0
 23 22  1  0
 24 25  2  0
 24 18  1  0
 25 15  1  0
 26 22  2  0
M  END
$$$$
