GKY.pdb
     RDKit          3D

 26 26  0  0  1  0  0  0  0  0999 V2000
   25.7829  -22.7040  -15.2575 N   0  0  0  0  0  0  0  0  0  0  0  0
   25.5436  -24.0402  -14.7659 C   0  0  0  0  0  0  0  0  0  0  0  0
   24.1119  -24.4287  -14.9123 C   0  0  0  0  0  0  0  0  0  0  0  0
   23.2771  -23.5243  -15.0866 O   0  0  0  0  0  0  0  0  0  0  0  0
   23.7096  -25.7889  -14.8550 N   0  0  0  0  0  0  0  0  0  0  0  0
   22.3406  -26.2080  -15.0380 C   0  0  1  0  0  0  0  0  0  0  0  0
   22.3154  -27.6299  -15.6042 C   0  0  0  0  0  0  0  0  0  0  0  0
   20.9119  -28.0763  -15.9353 C   0  0  0  0  0  0  0  0  0  0  0  0
   21.0073  -29.4432  -16.5494 C   0  0  0  0  0  0  0  0  0  0  0  0
   19.6795  -29.9490  -17.0670 C   0  0  0  0  0  0  0  0  0  0  0  0
   19.7687  -31.1791  -17.7976 N   0  0  0  0  0  0  0  0  0  0  0  0
   21.6301  -26.2852  -13.7391 C   0  0  0  0  0  0  0  0  0  0  0  0
   22.1805  -26.8988  -12.7974 O   0  0  0  0  0  0  0  0  0  0  0  0
   16.8740  -24.4673   -6.6404 O   0  0  0  0  0  0  0  0  0  0  0  0
   17.6078  -24.4588   -7.8442 C   0  0  0  0  0  0  0  0  0  0  0  0
   18.8285  -25.0824   -7.9397 C   0  0  0  0  0  0  0  0  0  0  0  0
   19.5343  -25.0669   -9.1203 C   0  0  0  0  0  0  0  0  0  0  0  0
   19.0513  -24.4246  -10.2661 C   0  0  0  0  0  0  0  0  0  0  0  0
   19.8390  -24.4084  -11.5184 C   0  0  0  0  0  0  0  0  0  0  0  0
   19.7478  -25.7167  -12.2222 C   0  0  2  0  0  0  0  0  0  0  0  0
   20.3698  -25.7003  -13.5237 N   0  0  0  0  0  0  0  0  0  0  0  0
   18.4056  -26.3057  -12.3172 C   0  0  0  0  0  0  0  0  0  0  0  0
   17.9914  -27.2012  -11.3449 O   0  0  0  0  0  0  0  0  0  0  0  0
   17.8176  -23.8032  -10.1432 C   0  0  0  0  0  0  0  0  0  0  0  0
   17.1131  -23.8197   -8.9618 C   0  0  0  0  0  0  0  0  0  0  0  0
   17.6475  -26.0143  -13.2468 O   0  0  0  0  0  0  0  0  0  0  0  0
  1  2  1  0
  3  4  2  0
  3  2  1  0
  5  3  1  0
  6  7  1  1
  6  5  1  0
  8  7  1  0
  8  9  1  0
  9 10  1  0
 11 10  1  0
 12  6  1  0
 12 21  1  0
 13 12  2  0
 15 14  1  0
 15 16  2  0
 17 16  1  0
 18 17  2  0
 19 18  1  0
 20 21  1  0
 20 19  1  6
 22 20  1  0
 23 22  1  0
 24 25  2  0
 24 18  1  0
 25 15  1  0
 26 22  2  0
M  END
$$$$
