GKY.pdb
     RDKit          3D

 26 26  0  0  1  0  0  0  0  0999 V2000
   35.8209  -35.1413   -2.1049 N   0  0  0  0  0  0  0  0  0  0  0  0
   34.6045  -34.9669   -1.3472 C   0  0  0  0  0  0  0  0  0  0  0  0
   33.4310  -35.5558   -2.0531 C   0  0  0  0  0  0  0  0  0  0  0  0
   33.4678  -35.6179   -3.2941 O   0  0  0  0  0  0  0  0  0  0  0  0
   32.3035  -36.0325   -1.3341 N   0  0  0  0  0  0  0  0  0  0  0  0
   31.1508  -36.6119   -1.9813 C   0  0  1  0  0  0  0  0  0  0  0  0
   30.3947  -37.4908   -0.9820 C   0  0  0  0  0  0  0  0  0  0  0  0
   29.2476  -38.2227   -1.6355 C   0  0  0  0  0  0  0  0  0  0  0  0
   28.5808  -39.0521   -0.5762 C   0  0  0  0  0  0  0  0  0  0  0  0
   27.4969  -39.9504   -1.1285 C   0  0  0  0  0  0  0  0  0  0  0  0
   26.7327  -40.6285   -0.1230 N   0  0  0  0  0  0  0  0  0  0  0  0
   30.1889  -35.5618   -2.3937 C   0  0  0  0  0  0  0  0  0  0  0  0
   29.9423  -34.6346   -1.5900 O   0  0  0  0  0  0  0  0  0  0  0  0
   25.4530  -31.3682   -8.6027 O   0  0  0  0  0  0  0  0  0  0  0  0
   26.3965  -31.9034   -7.7020 C   0  0  0  0  0  0  0  0  0  0  0  0
   26.3330  -31.6302   -6.3569 C   0  0  0  0  0  0  0  0  0  0  0  0
   27.2597  -32.1588   -5.4887 C   0  0  0  0  0  0  0  0  0  0  0  0
   28.2982  -32.9890   -5.9258 C   0  0  0  0  0  0  0  0  0  0  0  0
   29.2920  -33.5303   -4.9727 C   0  0  0  0  0  0  0  0  0  0  0  0
   28.6590  -34.4971   -4.0346 C   0  0  2  0  0  0  0  0  0  0  0  0
   29.5462  -35.5655   -3.6441 N   0  0  0  0  0  0  0  0  0  0  0  0
   27.3650  -35.0505   -4.4549 C   0  0  0  0  0  0  0  0  0  0  0  0
   26.1985  -34.4336   -4.0333 O   0  0  0  0  0  0  0  0  0  0  0  0
   28.3398  -33.2490   -7.2874 C   0  0  0  0  0  0  0  0  0  0  0  0
   27.4122  -32.7195   -8.1543 C   0  0  0  0  0  0  0  0  0  0  0  0
   27.3049  -36.0518   -5.1743 O   0  0  0  0  0  0  0  0  0  0  0  0
  1  2  1  0
  3  4  2  0
  3  2  1  0
  5  3  1  0
  6  7  1  1
  6  5  1  0
  8  7  1  0
  8  9  1  0
  9 10  1  0
 11 10  1  0
 12  6  1  0
 12 21  1  0
 13 12  2  0
 15 14  1  0
 15 16  2  0
 17 16  1  0
 18 17  2  0
 19 18  1  0
 20 21  1  0
 20 19  1  6
 22 20  1  0
 23 22  1  0
 24 25  2  0
 24 18  1  0
 25 15  1  0
 26 22  2  0
M  END
$$$$
