GKY.pdb
     RDKit          3D

 26 26  0  0  1  0  0  0  0  0999 V2000
   14.1282   -8.5247  -17.6091 N   0  0  0  0  0  0  0  0  0  0  0  0
   14.9746   -8.7207  -16.4561 C   0  0  0  0  0  0  0  0  0  0  0  0
   14.3788   -8.1156  -15.2309 C   0  0  0  0  0  0  0  0  0  0  0  0
   14.0269   -6.9244  -15.2808 O   0  0  0  0  0  0  0  0  0  0  0  0
   14.2164   -8.8729  -14.0411 N   0  0  0  0  0  0  0  0  0  0  0  0
   13.6989   -8.3070  -12.8183 C   0  0  1  0  0  0  0  0  0  0  0  0
   12.9931   -9.3994  -12.0113 C   0  0  0  0  0  0  0  0  0  0  0  0
   12.3530   -8.8470  -10.7607 C   0  0  0  0  0  0  0  0  0  0  0  0
   11.6004   -9.9695  -10.1065 C   0  0  0  0  0  0  0  0  0  0  0  0
   10.8059   -9.5206   -8.9007 C   0  0  0  0  0  0  0  0  0  0  0  0
   10.0433  -10.5652   -8.2827 N   0  0  0  0  0  0  0  0  0  0  0  0
   14.7982   -7.8201  -11.9509 C   0  0  0  0  0  0  0  0  0  0  0  0
   15.8402   -8.5087  -11.8711 O   0  0  0  0  0  0  0  0  0  0  0  0
   11.5970   -3.9599   -6.1825 O   0  0  0  0  0  0  0  0  0  0  0  0
   12.6134   -4.1473   -7.1415 C   0  0  0  0  0  0  0  0  0  0  0  0
   13.8986   -4.4576   -6.7673 C   0  0  0  0  0  0  0  0  0  0  0  0
   14.8810   -4.6381   -7.7130 C   0  0  0  0  0  0  0  0  0  0  0  0
   14.6242   -4.5165   -9.0833 C   0  0  0  0  0  0  0  0  0  0  0  0
   15.7035   -4.6988  -10.0788 C   0  0  0  0  0  0  0  0  0  0  0  0
   15.8415   -6.1312  -10.4588 C   0  0  2  0  0  0  0  0  0  0  0  0
   14.7178   -6.6227  -11.2184 N   0  0  0  0  0  0  0  0  0  0  0  0
   16.1507   -7.0616   -9.3652 C   0  0  0  0  0  0  0  0  0  0  0  0
   17.3359   -6.9091   -8.6643 O   0  0  0  0  0  0  0  0  0  0  0  0
   13.3198   -4.2028   -9.4344 C   0  0  0  0  0  0  0  0  0  0  0  0
   12.3384   -4.0226   -8.4873 C   0  0  0  0  0  0  0  0  0  0  0  0
   15.3725   -7.9718   -9.0652 O   0  0  0  0  0  0  0  0  0  0  0  0
  1  2  1  0
  3  4  2  0
  3  2  1  0
  5  3  1  0
  6  7  1  1
  6  5  1  0
  8  7  1  0
  8  9  1  0
  9 10  1  0
 11 10  1  0
 12  6  1  0
 12 21  1  0
 13 12  2  0
 15 14  1  0
 15 16  2  0
 17 16  1  0
 18 17  2  0
 19 18  1  0
 20 21  1  0
 20 19  1  1
 22 20  1  0
 23 22  1  0
 24 25  2  0
 24 18  1  0
 25 15  1  0
 26 22  2  0
M  END
$$$$
