GKY.pdb
     RDKit          3D

 26 26  0  0  1  0  0  0  0  0999 V2000
   18.2466  -12.8316  -15.6789 N   0  0  0  0  0  0  0  0  0  0  0  0
   17.9411  -11.6718  -14.8752 C   0  0  0  0  0  0  0  0  0  0  0  0
   18.7118  -10.4771  -15.3235 C   0  0  0  0  0  0  0  0  0  0  0  0
   19.9504  -10.5683  -15.3763 O   0  0  0  0  0  0  0  0  0  0  0  0
   18.0553   -9.2700  -15.6802 N   0  0  0  0  0  0  0  0  0  0  0  0
   18.7582   -8.1214  -16.1997 C   0  0  1  0  0  0  0  0  0  0  0  0
   17.7772   -7.2262  -16.9607 C   0  0  0  0  0  0  0  0  0  0  0  0
   18.4790   -6.0720  -17.6346 C   0  0  0  0  0  0  0  0  0  0  0  0
   17.4408   -5.2916  -18.3879 C   0  0  0  0  0  0  0  0  0  0  0  0
   18.0246   -4.1315  -19.1625 C   0  0  0  0  0  0  0  0  0  0  0  0
   17.0546   -3.3733  -19.8967 N   0  0  0  0  0  0  0  0  0  0  0  0
   19.2908   -7.2818  -15.0999 C   0  0  0  0  0  0  0  0  0  0  0  0
   18.5409   -7.0286  -14.1304 O   0  0  0  0  0  0  0  0  0  0  0  0
   26.1013   -8.6993  -16.9648 O   0  0  0  0  0  0  0  0  0  0  0  0
   25.1387   -8.2145  -16.0558 C   0  0  0  0  0  0  0  0  0  0  0  0
   24.9439   -6.8664  -15.8750 C   0  0  0  0  0  0  0  0  0  0  0  0
   24.0013   -6.4064  -14.9850 C   0  0  0  0  0  0  0  0  0  0  0  0
   23.2055   -7.2759  -14.2304 C   0  0  0  0  0  0  0  0  0  0  0  0
   22.2108   -6.7543  -13.2673 C   0  0  0  0  0  0  0  0  0  0  0  0
   21.1158   -6.0322  -13.9707 C   0  0  2  0  0  0  0  0  0  0  0  0
   20.5969   -6.7613  -15.1022 N   0  0  0  0  0  0  0  0  0  0  0  0
   21.4033   -4.6453  -14.3592 C   0  0  0  0  0  0  0  0  0  0  0  0
   21.7676   -3.7327  -13.3826 O   0  0  0  0  0  0  0  0  0  0  0  0
   23.4218   -8.6308  -14.4315 C   0  0  0  0  0  0  0  0  0  0  0  0
   24.3649   -9.0892  -15.3220 C   0  0  0  0  0  0  0  0  0  0  0  0
   21.3247   -4.2854  -15.5374 O   0  0  0  0  0  0  0  0  0  0  0  0
  1  2  1  0
  3  4  2  0
  3  2  1  0
  5  3  1  0
  6  7  1  1
  6  5  1  0
  8  7  1  0
  8  9  1  0
  9 10  1  0
 11 10  1  0
 12  6  1  0
 12 21  1  0
 13 12  2  0
 15 14  1  0
 15 16  2  0
 17 16  1  0
 18 17  2  0
 19 18  1  0
 20 21  1  0
 20 19  1  6
 22 20  1  0
 23 22  1  0
 24 25  2  0
 24 18  1  0
 25 15  1  0
 26 22  2  0
M  END
$$$$
