GKY.pdb
     RDKit          3D

 26 26  0  0  1  0  0  0  0  0999 V2000
   17.0823  -22.8487    8.6237 N   0  0  0  0  0  0  0  0  0  0  0  0
   16.1134  -21.8834    8.1616 C   0  0  0  0  0  0  0  0  0  0  0  0
   16.6130  -21.1315    6.9753 C   0  0  0  0  0  0  0  0  0  0  0  0
   17.7923  -21.3106    6.6257 O   0  0  0  0  0  0  0  0  0  0  0  0
   15.7710  -20.2372    6.2635 N   0  0  0  0  0  0  0  0  0  0  0  0
   16.2099  -19.5124    5.0950 C   0  0  1  0  0  0  0  0  0  0  0  0
   15.0525  -19.4042    4.0992 C   0  0  0  0  0  0  0  0  0  0  0  0
   15.1646  -20.4286    2.9962 C   0  0  0  0  0  0  0  0  0  0  0  0
   13.9651  -20.2667    2.1077 C   0  0  0  0  0  0  0  0  0  0  0  0
   13.8826  -21.3269    1.0325 C   0  0  0  0  0  0  0  0  0  0  0  0
   12.7102  -21.2362    0.2126 N   0  0  0  0  0  0  0  0  0  0  0  0
   16.5693  -18.1159    5.4395 C   0  0  0  0  0  0  0  0  0  0  0  0
   15.9513  -17.5576    6.3737 O   0  0  0  0  0  0  0  0  0  0  0  0
   20.7038  -10.5235    6.7740 O   0  0  0  0  0  0  0  0  0  0  0  0
   20.3458  -11.7883    6.2639 C   0  0  0  0  0  0  0  0  0  0  0  0
   20.4759  -12.9262    7.0229 C   0  0  0  0  0  0  0  0  0  0  0  0
   20.1228  -14.1542    6.5134 C   0  0  0  0  0  0  0  0  0  0  0  0
   19.6210  -14.3034    5.2155 C   0  0  0  0  0  0  0  0  0  0  0  0
   19.2651  -15.6384    4.6862 C   0  0  0  0  0  0  0  0  0  0  0  0
   17.9061  -16.0452    5.1365 C   0  0  2  0  0  0  0  0  0  0  0  0
   17.5706  -17.3975    4.7628 N   0  0  0  0  0  0  0  0  0  0  0  0
   16.8083  -15.1395    4.7732 C   0  0  0  0  0  0  0  0  0  0  0  0
   16.4927  -14.0886    5.6189 O   0  0  0  0  0  0  0  0  0  0  0  0
   19.4996  -13.1400    4.4706 C   0  0  0  0  0  0  0  0  0  0  0  0
   19.8531  -11.9127    4.9817 C   0  0  0  0  0  0  0  0  0  0  0  0
   16.1679  -15.3024    3.7306 O   0  0  0  0  0  0  0  0  0  0  0  0
  1  2  1  0
  3  4  2  0
  3  2  1  0
  5  3  1  0
  6  7  1  6
  6  5  1  0
  8  7  1  0
  8  9  1  0
  9 10  1  0
 11 10  1  0
 12  6  1  0
 12 21  1  0
 13 12  2  0
 15 14  1  0
 15 16  2  0
 17 16  1  0
 18 17  2  0
 19 18  1  0
 20 21  1  0
 20 19  1  6
 22 20  1  0
 23 22  1  0
 24 25  2  0
 24 18  1  0
 25 15  1  0
 26 22  2  0
M  END
$$$$
