GKY.pdb
     RDKit          3D

 26 26  0  0  1  0  0  0  0  0999 V2000
   22.1101  -15.7802  -15.7254 N   0  0  0  0  0  0  0  0  0  0  0  0
   23.5502  -15.7617  -15.6252 C   0  0  0  0  0  0  0  0  0  0  0  0
   24.0988  -17.1254  -15.3769 C   0  0  0  0  0  0  0  0  0  0  0  0
   23.3124  -18.0103  -14.9980 O   0  0  0  0  0  0  0  0  0  0  0  0
   25.4769  -17.4092  -15.5662 N   0  0  0  0  0  0  0  0  0  0  0  0
   26.0481  -18.7118  -15.3206 C   0  0  1  0  0  0  0  0  0  0  0  0
   27.4493  -18.7763  -15.9332 C   0  0  0  0  0  0  0  0  0  0  0  0
   28.0929  -20.1249  -15.7190 C   0  0  0  0  0  0  0  0  0  0  0  0
   27.8438  -20.9438  -16.9527 C   0  0  0  0  0  0  0  0  0  0  0  0
   28.5077  -22.3014  -16.9011 C   0  0  0  0  0  0  0  0  0  0  0  0
   28.1851  -23.1510  -18.0097 N   0  0  0  0  0  0  0  0  0  0  0  0
   26.2385  -18.9437  -13.8687 C   0  0  0  0  0  0  0  0  0  0  0  0
   26.7670  -18.0365  -13.1874 O   0  0  0  0  0  0  0  0  0  0  0  0
   27.0476  -19.9879   -5.5306 O   0  0  0  0  0  0  0  0  0  0  0  0
   26.5907  -19.9000   -6.8615 C   0  0  0  0  0  0  0  0  0  0  0  0
   25.9398  -20.9501   -7.4628 C   0  0  0  0  0  0  0  0  0  0  0  0
   25.4988  -20.8514   -8.7620 C   0  0  0  0  0  0  0  0  0  0  0  0
   25.6885  -19.6935   -9.5249 C   0  0  0  0  0  0  0  0  0  0  0  0
   25.2194  -19.6203  -10.9261 C   0  0  0  0  0  0  0  0  0  0  0  0
   26.1350  -20.3637  -11.8341 C   0  0  2  0  0  0  0  0  0  0  0  0
   25.8515  -20.1349  -13.2299 N   0  0  0  0  0  0  0  0  0  0  0  0
   26.2651  -21.8045  -11.5803 C   0  0  0  0  0  0  0  0  0  0  0  0
   27.2527  -22.2511  -10.7175 O   0  0  0  0  0  0  0  0  0  0  0  0
   26.3479  -18.6488   -8.8949 C   0  0  0  0  0  0  0  0  0  0  0  0
   26.7883  -18.7491   -7.5954 C   0  0  0  0  0  0  0  0  0  0  0  0
   25.5102  -22.6167  -12.1228 O   0  0  0  0  0  0  0  0  0  0  0  0
  1  2  1  0
  3  4  2  0
  3  2  1  0
  5  3  1  0
  6  7  1  6
  6  5  1  0
  8  7  1  0
  8  9  1  0
  9 10  1  0
 11 10  1  0
 12  6  1  0
 12 21  1  0
 13 12  2  0
 15 14  1  0
 15 16  2  0
 17 16  1  0
 18 17  2  0
 19 18  1  0
 20 21  1  0
 20 19  1  1
 22 20  1  0
 23 22  1  0
 24 25  2  0
 24 18  1  0
 25 15  1  0
 26 22  2  0
M  END
$$$$
