GKY.pdb
     RDKit          3D

 26 26  0  0  1  0  0  0  0  0999 V2000
   25.8232  -26.9523  -16.9214 N   0  0  0  0  0  0  0  0  0  0  0  0
   24.8017  -26.3289  -16.1140 C   0  0  0  0  0  0  0  0  0  0  0  0
   25.1687  -24.9304  -15.7510 C   0  0  0  0  0  0  0  0  0  0  0  0
   26.3078  -24.7254  -15.2975 O   0  0  0  0  0  0  0  0  0  0  0  0
   24.2486  -23.8621  -15.9167 N   0  0  0  0  0  0  0  0  0  0  0  0
   24.5876  -22.4873  -15.6370 C   0  0  1  0  0  0  0  0  0  0  0  0
   23.5343  -21.5671  -16.2589 C   0  0  0  0  0  0  0  0  0  0  0  0
   23.9280  -20.1136  -16.1540 C   0  0  0  0  0  0  0  0  0  0  0  0
   24.8772  -19.8217  -17.2802 C   0  0  0  0  0  0  0  0  0  0  0  0
   25.3507  -18.3856  -17.2927 C   0  0  0  0  0  0  0  0  0  0  0  0
   24.2911  -17.4227  -17.3634 N   0  0  0  0  0  0  0  0  0  0  0  0
   24.5430  -22.2145  -14.1804 C   0  0  0  0  0  0  0  0  0  0  0  0
   23.4970  -22.4997  -13.5553 O   0  0  0  0  0  0  0  0  0  0  0  0
   26.1366  -19.5597   -5.9684 O   0  0  0  0  0  0  0  0  0  0  0  0
   26.3077  -19.8901   -7.3283 C   0  0  0  0  0  0  0  0  0  0  0  0
   26.4939  -18.9173   -8.2806 C   0  0  0  0  0  0  0  0  0  0  0  0
   26.6598  -19.2531   -9.6042 C   0  0  0  0  0  0  0  0  0  0  0  0
   26.6474  -20.5828  -10.0403 C   0  0  0  0  0  0  0  0  0  0  0  0
   26.8109  -20.9153  -11.4727 C   0  0  0  0  0  0  0  0  0  0  0  0
   25.5104  -21.3092  -12.0801 C   0  0  2  0  0  0  0  0  0  0  0  0
   25.6223  -21.6514  -13.4770 N   0  0  0  0  0  0  0  0  0  0  0  0
   24.3965  -20.3724  -11.8828 C   0  0  0  0  0  0  0  0  0  0  0  0
   24.2537  -19.3017  -12.7501 O   0  0  0  0  0  0  0  0  0  0  0  0
   26.4578  -21.5450   -9.0598 C   0  0  0  0  0  0  0  0  0  0  0  0
   26.2920  -21.2075   -7.7365 C   0  0  0  0  0  0  0  0  0  0  0  0
   23.5915  -20.5267  -10.9597 O   0  0  0  0  0  0  0  0  0  0  0  0
  1  2  1  0
  3  4  2  0
  3  2  1  0
  5  3  1  0
  6  7  1  6
  6  5  1  0
  8  7  1  0
  8  9  1  0
  9 10  1  0
 11 10  1  0
 12  6  1  0
 12 21  1  0
 13 12  2  0
 15 14  1  0
 15 16  2  0
 17 16  1  0
 18 17  2  0
 19 18  1  0
 20 21  1  0
 20 19  1  6
 22 20  1  0
 23 22  1  0
 24 25  2  0
 24 18  1  0
 25 15  1  0
 26 22  2  0
M  END
$$$$
