GKY.pdb
     RDKit          3D

 26 26  0  0  1  0  0  0  0  0999 V2000
   14.8654  -14.2835  -14.4662 N   0  0  0  0  0  0  0  0  0  0  0  0
   14.3786  -12.9249  -14.4271 C   0  0  0  0  0  0  0  0  0  0  0  0
   15.3635  -12.0092  -13.7840 C   0  0  0  0  0  0  0  0  0  0  0  0
   16.0023  -12.4339  -12.8059 O   0  0  0  0  0  0  0  0  0  0  0  0
   15.5688  -10.6914  -14.2704 N   0  0  0  0  0  0  0  0  0  0  0  0
   16.3852   -9.7213  -13.5806 C   0  0  1  0  0  0  0  0  0  0  0  0
   16.9069   -8.6901  -14.5841 C   0  0  0  0  0  0  0  0  0  0  0  0
   17.8351   -9.3144  -15.5978 C   0  0  0  0  0  0  0  0  0  0  0  0
   18.2176   -8.2432  -16.5779 C   0  0  0  0  0  0  0  0  0  0  0  0
   19.0807   -8.7602  -17.7068 C   0  0  0  0  0  0  0  0  0  0  0  0
   20.3652   -9.2385  -17.2871 N   0  0  0  0  0  0  0  0  0  0  0  0
   15.5821   -8.9511  -12.6009 C   0  0  0  0  0  0  0  0  0  0  0  0
   14.4197   -8.6149  -12.9204 O   0  0  0  0  0  0  0  0  0  0  0  0
   11.8049   -5.1292   -5.7583 O   0  0  0  0  0  0  0  0  0  0  0  0
   12.6071   -5.9354   -6.5917 C   0  0  0  0  0  0  0  0  0  0  0  0
   12.0496   -6.8690   -7.4316 C   0  0  0  0  0  0  0  0  0  0  0  0
   12.8436   -7.6492   -8.2397 C   0  0  0  0  0  0  0  0  0  0  0  0
   14.2382   -7.5325   -8.2466 C   0  0  0  0  0  0  0  0  0  0  0  0
   15.0697   -8.3964   -9.1133 C   0  0  0  0  0  0  0  0  0  0  0  0
   15.2947   -7.7610  -10.4403 C   0  0  2  0  0  0  0  0  0  0  0  0
   16.0710   -8.5850  -11.3345 N   0  0  0  0  0  0  0  0  0  0  0  0
   15.8392   -6.3971  -10.4183 C   0  0  0  0  0  0  0  0  0  0  0  0
   14.9793   -5.3305  -10.2132 O   0  0  0  0  0  0  0  0  0  0  0  0
   14.7754   -6.5833   -7.3901 C   0  0  0  0  0  0  0  0  0  0  0  0
   13.9800   -5.8038   -6.5825 C   0  0  0  0  0  0  0  0  0  0  0  0
   17.0457   -6.1912  -10.5793 O   0  0  0  0  0  0  0  0  0  0  0  0
  1  2  1  0
  3  4  2  0
  3  2  1  0
  5  3  1  0
  6  7  1  6
  6  5  1  0
  8  7  1  0
  8  9  1  0
  9 10  1  0
 11 10  1  0
 12  6  1  0
 12 21  1  0
 13 12  2  0
 15 14  1  0
 15 16  2  0
 17 16  1  0
 18 17  2  0
 19 18  1  0
 20 21  1  0
 20 19  1  1
 22 20  1  0
 23 22  1  0
 24 25  2  0
 24 18  1  0
 25 15  1  0
 26 22  2  0
M  END
$$$$
