GKY.pdb
     RDKit          3D

 26 26  0  0  1  0  0  0  0  0999 V2000
   27.4248  -27.4743  -16.1996 N   0  0  0  0  0  0  0  0  0  0  0  0
   26.5197  -26.6572  -16.9723 C   0  0  0  0  0  0  0  0  0  0  0  0
   26.0004  -25.5105  -16.1737 C   0  0  0  0  0  0  0  0  0  0  0  0
   26.3584  -25.4167  -14.9871 O   0  0  0  0  0  0  0  0  0  0  0  0
   25.1234  -24.5525  -16.7469 N   0  0  0  0  0  0  0  0  0  0  0  0
   24.6138  -23.4199  -16.0115 C   0  0  1  0  0  0  0  0  0  0  0  0
   24.6100  -22.1857  -16.9167 C   0  0  0  0  0  0  0  0  0  0  0  0
   26.0075  -21.7834  -17.3216 C   0  0  0  0  0  0  0  0  0  0  0  0
   25.8848  -20.6454  -18.2934 C   0  0  0  0  0  0  0  0  0  0  0  0
   27.2183  -20.2045  -18.8538 C   0  0  0  0  0  0  0  0  0  0  0  0
   27.1209  -19.1871  -19.8589 N   0  0  0  0  0  0  0  0  0  0  0  0
   23.1989  -23.6315  -15.6226 C   0  0  0  0  0  0  0  0  0  0  0  0
   22.4166  -24.1157  -16.4710 O   0  0  0  0  0  0  0  0  0  0  0  0
   15.6397  -24.8270  -11.3826 O   0  0  0  0  0  0  0  0  0  0  0  0
   17.0013  -24.5968  -11.6672 C   0  0  0  0  0  0  0  0  0  0  0  0
   17.5660  -23.3561  -11.4946 C   0  0  0  0  0  0  0  0  0  0  0  0
   18.8958  -23.1448  -11.7758 C   0  0  0  0  0  0  0  0  0  0  0  0
   19.7276  -24.1679  -12.2448 C   0  0  0  0  0  0  0  0  0  0  0  0
   21.1507  -23.9091  -12.5561 C   0  0  0  0  0  0  0  0  0  0  0  0
   21.3270  -23.5603  -13.9923 C   0  0  2  0  0  0  0  0  0  0  0  0
   22.7033  -23.3119  -14.3462 N   0  0  0  0  0  0  0  0  0  0  0  0
   20.4766  -22.4766  -14.5019 C   0  0  0  0  0  0  0  0  0  0  0  0
   20.9368  -21.1715  -14.4392 O   0  0  0  0  0  0  0  0  0  0  0  0
   19.1333  -25.4100  -12.4104 C   0  0  0  0  0  0  0  0  0  0  0  0
   17.8032  -25.6196  -12.1287 C   0  0  0  0  0  0  0  0  0  0  0  0
   19.3642  -22.7132  -14.9821 O   0  0  0  0  0  0  0  0  0  0  0  0
  1  2  1  0
  3  4  2  0
  3  2  1  0
  5  3  1  0
  6  7  1  6
  6  5  1  0
  8  7  1  0
  8  9  1  0
  9 10  1  0
 11 10  1  0
 12  6  1  0
 12 21  1  0
 13 12  2  0
 15 14  1  0
 15 16  2  0
 17 16  1  0
 18 17  2  0
 19 18  1  0
 20 21  1  0
 20 19  1  1
 22 20  1  0
 23 22  1  0
 24 25  2  0
 24 18  1  0
 25 15  1  0
 26 22  2  0
M  END
$$$$
