SKN.pdb
     RDKit          3D

 24 23  0  0  1  0  0  0  0  0999 V2000
   27.4701  -23.0108  -15.3579 O   0  0  0  0  0  0  0  0  0  0  0  0
   28.4448  -22.3634  -16.1191 C   0  0  0  0  0  0  0  0  0  0  0  0
   27.7965  -21.4766  -17.1303 C   0  0  2  0  0  0  0  0  0  0  0  0
   28.8242  -20.8750  -17.9651 N   0  0  0  0  0  0  0  0  0  0  0  0
   26.9657  -20.4176  -16.4881 C   0  0  0  0  0  0  0  0  0  0  0  0
   27.4580  -19.4614  -15.8569 O   0  0  0  0  0  0  0  0  0  0  0  0
   25.5547  -20.4854  -16.5894 N   0  0  0  0  0  0  0  0  0  0  0  0
   24.6879  -19.4662  -15.9091 C   0  0  1  0  0  0  0  0  0  0  0  0
   24.1718  -18.6390  -17.0423 C   0  0  0  0  0  0  0  0  0  0  0  0
   25.0286  -17.4901  -17.4701 C   0  0  0  0  0  0  0  0  0  0  0  0
   24.3289  -16.8735  -18.7045 C   0  0  0  0  0  0  0  0  0  0  0  0
   25.1919  -15.7134  -19.2047 C   0  0  0  0  0  0  0  0  0  0  0  0
   24.9682  -14.5862  -18.3519 N   0  0  0  0  0  0  0  0  0  0  0  0
   23.6452  -20.1793  -15.1879 C   0  0  0  0  0  0  0  0  0  0  0  0
   23.0075  -21.1394  -15.7483 O   0  0  0  0  0  0  0  0  0  0  0  0
   21.1868  -21.1596   -9.5651 N   0  0  0  0  0  0  0  0  0  0  0  0
   21.2691  -21.1968  -10.9679 C   0  0  0  0  0  0  0  0  0  0  0  0
   20.3545  -21.7943  -11.6351 O   0  0  0  0  0  0  0  0  0  0  0  0
   22.3687  -20.5703  -11.6978 C   0  0  0  0  0  0  0  0  0  0  0  0
   22.2180  -20.6421  -13.1947 C   0  0  2  0  0  0  0  0  0  0  0  0
   23.2695  -19.8885  -13.8573 N   0  0  0  0  0  0  0  0  0  0  0  0
   20.9049  -20.1283  -13.6006 C   0  0  0  0  0  0  0  0  0  0  0  0
   19.8763  -20.8665  -13.7815 O   0  0  0  0  0  0  0  0  0  0  0  0
   20.7690  -18.7406  -13.8015 O   0  0  0  0  0  0  0  0  0  0  0  0
  1  2  1  0
  2  3  1  0
  3  5  1  0
  3  4  1  1
  5  6  2  0
  7  8  1  0
  7  5  1  0
  8 14  1  0
  8  9  1  6
 10  9  1  0
 10 11  1  0
 11 12  1  0
 13 12  1  0
 14 21  1  0
 14 15  2  0
 16 17  1  0
 17 19  1  0
 18 17  2  0
 20 19  1  1
 20 22  1  0
 21 20  1  0
 22 23  2  0
 22 24  1  0
M  END
$$$$
