SKN.pdb
     RDKit          3D

 24 23  0  0  1  0  0  0  0  0999 V2000
   14.3534   -5.5487   -7.4403 O   0  0  0  0  0  0  0  0  0  0  0  0
   15.3398   -6.4589   -7.8239 C   0  0  0  0  0  0  0  0  0  0  0  0
   14.7999   -7.3900   -8.8587 C   0  0  2  0  0  0  0  0  0  0  0  0
   14.1102   -8.4874   -8.1991 N   0  0  0  0  0  0  0  0  0  0  0  0
   15.8759   -7.9149   -9.7481 C   0  0  0  0  0  0  0  0  0  0  0  0
   16.6782   -8.7998   -9.3898 O   0  0  0  0  0  0  0  0  0  0  0  0
   16.0066   -7.3970  -11.0598 N   0  0  0  0  0  0  0  0  0  0  0  0
   17.0440   -7.9408  -11.9984 C   0  0  1  0  0  0  0  0  0  0  0  0
   16.2375   -8.4414  -13.1533 C   0  0  0  0  0  0  0  0  0  0  0  0
   17.0075   -8.9514  -14.3298 C   0  0  0  0  0  0  0  0  0  0  0  0
   15.9570   -9.5246  -15.3102 C   0  0  0  0  0  0  0  0  0  0  0  0
   16.7052  -10.1602  -16.4836 C   0  0  0  0  0  0  0  0  0  0  0  0
   15.7572  -10.8603  -17.2955 N   0  0  0  0  0  0  0  0  0  0  0  0
   17.9437   -6.8520  -12.3462 C   0  0  0  0  0  0  0  0  0  0  0  0
   17.5087   -5.6491  -12.4238 O   0  0  0  0  0  0  0  0  0  0  0  0
   23.5115   -5.4386  -14.5410 N   0  0  0  0  0  0  0  0  0  0  0  0
   22.4714   -5.2501  -13.6145 C   0  0  0  0  0  0  0  0  0  0  0  0
   22.2915   -4.0922  -13.0990 O   0  0  0  0  0  0  0  0  0  0  0  0
   21.5790   -6.3367  -13.2177 C   0  0  0  0  0  0  0  0  0  0  0  0
   20.1511   -5.9017  -13.0155 C   0  0  2  0  0  0  0  0  0  0  0  0
   19.3213   -7.0236  -12.6089 N   0  0  0  0  0  0  0  0  0  0  0  0
   19.6190   -5.3087  -14.2475 C   0  0  0  0  0  0  0  0  0  0  0  0
   19.3461   -4.0661  -14.3795 O   0  0  0  0  0  0  0  0  0  0  0  0
   19.3967   -6.1573  -15.3498 O   0  0  0  0  0  0  0  0  0  0  0  0
  1  2  1  0
  2  3  1  0
  3  5  1  0
  3  4  1  1
  5  6  2  0
  7  8  1  0
  7  5  1  0
  8 14  1  0
  8  9  1  6
 10  9  1  0
 10 11  1  0
 11 12  1  0
 13 12  1  0
 14 21  1  0
 14 15  2  0
 16 17  1  0
 17 19  1  0
 18 17  2  0
 20 19  1  6
 20 22  1  0
 21 20  1  0
 22 23  2  0
 22 24  1  0
M  END
$$$$
