SKN.pdb
     RDKit          3D

 24 23  0  0  1  0  0  0  0  0999 V2000
   20.5417  -11.6651  -15.2774 O   0  0  0  0  0  0  0  0  0  0  0  0
   19.3217  -12.3362  -15.1793 C   0  0  0  0  0  0  0  0  0  0  0  0
   18.4334  -11.9484  -16.3149 C   0  0  2  0  0  0  0  0  0  0  0  0
   19.1264  -12.1984  -17.5688 N   0  0  0  0  0  0  0  0  0  0  0  0
   18.0165  -10.5190  -16.2300 C   0  0  0  0  0  0  0  0  0  0  0  0
   18.4246   -9.6470  -17.0226 O   0  0  0  0  0  0  0  0  0  0  0  0
   17.1188  -10.1170  -15.2109 N   0  0  0  0  0  0  0  0  0  0  0  0
   16.6428   -8.6960  -15.1261 C   0  0  1  0  0  0  0  0  0  0  0  0
   15.3074   -8.8172  -14.4652 C   0  0  0  0  0  0  0  0  0  0  0  0
   14.6065   -7.5356  -14.1438 C   0  0  0  0  0  0  0  0  0  0  0  0
   13.2999   -7.9351  -13.4181 C   0  0  0  0  0  0  0  0  0  0  0  0
   12.6531   -6.6591  -12.8758 C   0  0  0  0  0  0  0  0  0  0  0  0
   11.3925   -7.0059  -12.2941 N   0  0  0  0  0  0  0  0  0  0  0  0
   17.6134   -7.9478  -14.3425 C   0  0  0  0  0  0  0  0  0  0  0  0
   18.2544   -8.5147  -13.3886 O   0  0  0  0  0  0  0  0  0  0  0  0
   21.6795   -4.9325  -13.4260 N   0  0  0  0  0  0  0  0  0  0  0  0
   21.6194   -6.1746  -14.0814 C   0  0  0  0  0  0  0  0  0  0  0  0
   22.7052   -6.8008  -14.3413 O   0  0  0  0  0  0  0  0  0  0  0  0
   20.3514   -6.7828  -14.4773 C   0  0  0  0  0  0  0  0  0  0  0  0
   19.1426   -6.0010  -14.0343 C   0  0  2  0  0  0  0  0  0  0  0  0
   17.9237   -6.5876  -14.5658 N   0  0  0  0  0  0  0  0  0  0  0  0
   19.2526   -4.6030  -14.4663 C   0  0  0  0  0  0  0  0  0  0  0  0
   18.8588   -4.1769  -15.6061 O   0  0  0  0  0  0  0  0  0  0  0  0
   19.8243   -3.6759  -13.5730 O   0  0  0  0  0  0  0  0  0  0  0  0
  1  2  1  0
  2  3  1  0
  3  5  1  0
  3  4  1  6
  5  6  2  0
  7  8  1  0
  7  5  1  0
  8 14  1  0
  8  9  1  1
 10  9  1  0
 10 11  1  0
 11 12  1  0
 13 12  1  0
 14 21  1  0
 14 15  2  0
 16 17  1  0
 17 19  1  0
 18 17  2  0
 20 19  1  6
 20 22  1  0
 21 20  1  0
 22 23  2  0
 22 24  1  0
M  END
$$$$
