SKN.pdb
     RDKit          3D

 24 23  0  0  1  0  0  0  0  0999 V2000
   20.8144  -19.2158  -18.9542 O   0  0  0  0  0  0  0  0  0  0  0  0
   19.6009  -18.6239  -18.5995 C   0  0  0  0  0  0  0  0  0  0  0  0
   19.2493  -18.9842  -17.1939 C   0  0  2  0  0  0  0  0  0  0  0  0
   17.9763  -18.3713  -16.8491 N   0  0  0  0  0  0  0  0  0  0  0  0
   20.3061  -18.5590  -16.2313 C   0  0  0  0  0  0  0  0  0  0  0  0
   20.4944  -17.3671  -15.9162 O   0  0  0  0  0  0  0  0  0  0  0  0
   21.1412  -19.5381  -15.6399 N   0  0  0  0  0  0  0  0  0  0  0  0
   22.2810  -19.1365  -14.7497 C   0  0  1  0  0  0  0  0  0  0  0  0
   21.9591  -19.8054  -13.4521 C   0  0  0  0  0  0  0  0  0  0  0  0
   20.8019  -19.2475  -12.6863 C   0  0  0  0  0  0  0  0  0  0  0  0
   20.6992  -20.0923  -11.3943 C   0  0  0  0  0  0  0  0  0  0  0  0
   19.5059  -19.5764  -10.5877 C   0  0  0  0  0  0  0  0  0  0  0  0
   19.4813  -20.2625   -9.3321 N   0  0  0  0  0  0  0  0  0  0  0  0
   23.5119  -19.6141  -15.3603 C   0  0  0  0  0  0  0  0  0  0  0  0
   23.5554  -20.7663  -15.9196 O   0  0  0  0  0  0  0  0  0  0  0  0
   27.8429  -22.6244  -16.1206 N   0  0  0  0  0  0  0  0  0  0  0  0
   27.4337  -21.2915  -16.2988 C   0  0  0  0  0  0  0  0  0  0  0  0
   28.1174  -20.5208  -17.0587 O   0  0  0  0  0  0  0  0  0  0  0  0
   26.2445  -20.7505  -15.6448 C   0  0  0  0  0  0  0  0  0  0  0  0
   25.8790  -19.3645  -16.1074 C   0  0  2  0  0  0  0  0  0  0  0  0
   24.7133  -18.8713  -15.3931 N   0  0  0  0  0  0  0  0  0  0  0  0
   25.6174  -19.3608  -17.5512 C   0  0  0  0  0  0  0  0  0  0  0  0
   26.3982  -18.8315  -18.4149 O   0  0  0  0  0  0  0  0  0  0  0  0
   24.4380  -19.9774  -18.0130 O   0  0  0  0  0  0  0  0  0  0  0  0
  1  2  1  0
  2  3  1  0
  3  5  1  0
  3  4  1  1
  5  6  2  0
  7  8  1  0
  7  5  1  0
  8 14  1  0
  8  9  1  1
 10  9  1  0
 10 11  1  0
 11 12  1  0
 13 12  1  0
 14 21  1  0
 14 15  2  0
 16 17  1  0
 17 19  1  0
 18 17  2  0
 20 19  1  1
 20 22  1  0
 21 20  1  0
 22 23  2  0
 22 24  1  0
M  END
$$$$
