SKN.pdb
     RDKit          3D

 24 23  0  0  1  0  0  0  0  0999 V2000
   15.6401  -12.3389  -19.9993 O   0  0  0  0  0  0  0  0  0  0  0  0
   16.5742  -11.9132  -19.0534 C   0  0  0  0  0  0  0  0  0  0  0  0
   17.6150  -12.9651  -18.8552 C   0  0  2  0  0  0  0  0  0  0  0  0
   16.9981  -14.1400  -18.2601 N   0  0  0  0  0  0  0  0  0  0  0  0
   18.7374  -12.4809  -18.0007 C   0  0  0  0  0  0  0  0  0  0  0  0
   18.6568  -12.4019  -16.7588 O   0  0  0  0  0  0  0  0  0  0  0  0
   19.9548  -12.0896  -18.6097 N   0  0  0  0  0  0  0  0  0  0  0  0
   21.1206  -11.6452  -17.7752 C   0  0  1  0  0  0  0  0  0  0  0  0
   22.3032  -12.1612  -18.5301 C   0  0  0  0  0  0  0  0  0  0  0  0
   22.6780  -13.5880  -18.2833 C   0  0  0  0  0  0  0  0  0  0  0  0
   23.8085  -13.9115  -19.2886 C   0  0  0  0  0  0  0  0  0  0  0  0
   24.1940  -15.3809  -19.1073 C   0  0  0  0  0  0  0  0  0  0  0  0
   25.2850  -15.6716  -19.9866 N   0  0  0  0  0  0  0  0  0  0  0  0
   21.0761  -10.1940  -17.6858 C   0  0  0  0  0  0  0  0  0  0  0  0
   20.8887   -9.4836  -18.7358 O   0  0  0  0  0  0  0  0  0  0  0  0
   19.6846   -5.2349  -17.7536 N   0  0  0  0  0  0  0  0  0  0  0  0
   19.4519   -6.1841  -16.7433 C   0  0  0  0  0  0  0  0  0  0  0  0
   18.9815   -5.7996  -15.6165 O   0  0  0  0  0  0  0  0  0  0  0  0
   19.7273   -7.6059  -16.9357 C   0  0  0  0  0  0  0  0  0  0  0  0
   21.0877   -8.0288  -16.4466 C   0  0  2  0  0  0  0  0  0  0  0  0
   21.2220   -9.4757  -16.4779 N   0  0  0  0  0  0  0  0  0  0  0  0
   21.3157   -7.5364  -15.0833 C   0  0  0  0  0  0  0  0  0  0  0  0
   21.3460   -8.2895  -14.0500 O   0  0  0  0  0  0  0  0  0  0  0  0
   21.5137   -6.1535  -14.9022 O   0  0  0  0  0  0  0  0  0  0  0  0
  1  2  1  0
  2  3  1  0
  3  5  1  0
  3  4  1  1
  5  6  2  0
  7  8  1  0
  7  5  1  0
  8 14  1  0
  8  9  1  6
 10  9  1  0
 10 11  1  0
 11 12  1  0
 13 12  1  0
 14 21  1  0
 14 15  2  0
 16 17  1  0
 17 19  1  0
 18 17  2  0
 20 19  1  1
 20 22  1  0
 21 20  1  0
 22 23  2  0
 22 24  1  0
M  END
$$$$
