SKN.pdb
     RDKit          3D

 24 23  0  0  1  0  0  0  0  0999 V2000
   21.3176  -11.9272  -15.9644 O   0  0  0  0  0  0  0  0  0  0  0  0
   20.2094  -12.4318  -15.2820 C   0  0  0  0  0  0  0  0  0  0  0  0
   18.9830  -12.2833  -16.1204 C   0  0  2  0  0  0  0  0  0  0  0  0
   19.1637  -13.0165  -17.3633 N   0  0  0  0  0  0  0  0  0  0  0  0
   18.6747  -10.8519  -16.4038 C   0  0  0  0  0  0  0  0  0  0  0  0
   18.9967  -10.2886  -17.4688 O   0  0  0  0  0  0  0  0  0  0  0  0
   17.9872  -10.0842  -15.4324 N   0  0  0  0  0  0  0  0  0  0  0  0
   17.5417   -8.6837  -15.7376 C   0  0  1  0  0  0  0  0  0  0  0  0
   16.1352   -8.6501  -15.2323 C   0  0  0  0  0  0  0  0  0  0  0  0
   15.0698   -9.0412  -16.2064 C   0  0  0  0  0  0  0  0  0  0  0  0
   13.7273   -8.8911  -15.4524 C   0  0  0  0  0  0  0  0  0  0  0  0
   12.6097   -9.3725  -16.3797 C   0  0  0  0  0  0  0  0  0  0  0  0
   11.3593   -9.1965  -15.7063 N   0  0  0  0  0  0  0  0  0  0  0  0
   18.4326   -7.7711  -15.0381 C   0  0  0  0  0  0  0  0  0  0  0  0
   18.4338   -7.7178  -13.7577 O   0  0  0  0  0  0  0  0  0  0  0  0
   21.4400   -8.6720  -14.7707 N   0  0  0  0  0  0  0  0  0  0  0  0
   22.2132   -7.6258  -15.3030 C   0  0  0  0  0  0  0  0  0  0  0  0
   23.4193   -7.8571  -15.6643 O   0  0  0  0  0  0  0  0  0  0  0  0
   21.6843   -6.2732  -15.4625 C   0  0  0  0  0  0  0  0  0  0  0  0
   20.2861   -6.1049  -14.9282 C   0  0  2  0  0  0  0  0  0  0  0  0
   19.3419   -6.9069  -15.6882 N   0  0  0  0  0  0  0  0  0  0  0  0
   19.8896   -4.6929  -14.9722 C   0  0  0  0  0  0  0  0  0  0  0  0
   19.1054   -4.2007  -15.8546 O   0  0  0  0  0  0  0  0  0  0  0  0
   20.4017   -3.8292  -13.9842 O   0  0  0  0  0  0  0  0  0  0  0  0
  1  2  1  0
  2  3  1  0
  3  5  1  0
  3  4  1  6
  5  6  2  0
  7  8  1  0
  7  5  1  0
  8 14  1  0
  8  9  1  1
 10  9  1  0
 10 11  1  0
 11 12  1  0
 13 12  1  0
 14 21  1  0
 14 15  2  0
 16 17  1  0
 17 19  1  0
 18 17  2  0
 20 19  1  6
 20 22  1  0
 21 20  1  0
 22 23  2  0
 22 24  1  0
M  END
$$$$
