SKN.pdb
     RDKit          3D

 24 23  0  0  1  0  0  0  0  0999 V2000
   26.0340  -14.4284  -15.7337 O   0  0  0  0  0  0  0  0  0  0  0  0
   26.6254  -15.4407  -14.9760 C   0  0  0  0  0  0  0  0  0  0  0  0
   26.9395  -16.6122  -15.8466 C   0  0  2  0  0  0  0  0  0  0  0  0
   27.7121  -16.1605  -16.9929 N   0  0  0  0  0  0  0  0  0  0  0  0
   25.7040  -17.3142  -16.2992 C   0  0  0  0  0  0  0  0  0  0  0  0
   25.1578  -17.0830  -17.3962 O   0  0  0  0  0  0  0  0  0  0  0  0
   25.1118  -18.2886  -15.4591 N   0  0  0  0  0  0  0  0  0  0  0  0
   23.9277  -19.0845  -15.9253 C   0  0  1  0  0  0  0  0  0  0  0  0
   24.2043  -20.4565  -15.4000 C   0  0  0  0  0  0  0  0  0  0  0  0
   24.8968  -21.3980  -16.3332 C   0  0  0  0  0  0  0  0  0  0  0  0
   25.0579  -22.7262  -15.5563 C   0  0  0  0  0  0  0  0  0  0  0  0
   25.7843  -23.7189  -16.4660 C   0  0  0  0  0  0  0  0  0  0  0  0
   25.9760  -24.9372  -15.7400 N   0  0  0  0  0  0  0  0  0  0  0  0
   22.7329  -18.4761  -15.3613 C   0  0  0  0  0  0  0  0  0  0  0  0
   22.6462  -18.2608  -14.1010 O   0  0  0  0  0  0  0  0  0  0  0  0
   18.3084  -16.0149  -14.4004 N   0  0  0  0  0  0  0  0  0  0  0  0
   19.0659  -15.4183  -15.4232 C   0  0  0  0  0  0  0  0  0  0  0  0
   18.7587  -14.2436  -15.8287 O   0  0  0  0  0  0  0  0  0  0  0  0
   20.2025  -16.0953  -16.0432 C   0  0  0  0  0  0  0  0  0  0  0  0
   20.4506  -17.4783  -15.5005 C   0  0  2  0  0  0  0  0  0  0  0  0
   21.6150  -18.0795  -16.1290 N   0  0  0  0  0  0  0  0  0  0  0  0
   19.2741  -18.3288  -15.7137 C   0  0  0  0  0  0  0  0  0  0  0  0
   18.2794  -17.9976  -16.4464 O   0  0  0  0  0  0  0  0  0  0  0  0
   19.2386  -19.5839  -15.0751 O   0  0  0  0  0  0  0  0  0  0  0  0
  1  2  1  0
  2  3  1  0
  3  5  1  0
  3  4  1  6
  5  6  2  0
  7  8  1  0
  7  5  1  0
  8 14  1  0
  8  9  1  1
 10  9  1  0
 10 11  1  0
 11 12  1  0
 13 12  1  0
 14 21  1  0
 14 15  2  0
 16 17  1  0
 17 19  1  0
 18 17  2  0
 20 19  1  6
 20 22  1  0
 21 20  1  0
 22 23  2  0
 22 24  1  0
M  END
$$$$
