SKN.pdb
     RDKit          3D

 24 23  0  0  1  0  0  0  0  0999 V2000
   13.7844  -10.1078  -15.2485 O   0  0  0  0  0  0  0  0  0  0  0  0
   15.0605  -10.1094  -14.6827 C   0  0  0  0  0  0  0  0  0  0  0  0
   16.0352  -10.7357  -15.6244 C   0  0  2  0  0  0  0  0  0  0  0  0
   15.7679  -12.1629  -15.7074 N   0  0  0  0  0  0  0  0  0  0  0  0
   17.4457  -10.4969  -15.2029 C   0  0  0  0  0  0  0  0  0  0  0  0
   17.9515  -11.0339  -14.1974 O   0  0  0  0  0  0  0  0  0  0  0  0
   18.2603   -9.6252  -15.9660 N   0  0  0  0  0  0  0  0  0  0  0  0
   19.6516   -9.2867  -15.5160 C   0  0  1  0  0  0  0  0  0  0  0  0
   20.4065   -9.1491  -16.7990 C   0  0  0  0  0  0  0  0  0  0  0  0
   21.8028   -8.6231  -16.6951 C   0  0  0  0  0  0  0  0  0  0  0  0
   22.3925   -8.6951  -18.1235 C   0  0  0  0  0  0  0  0  0  0  0  0
   23.7936   -8.0819  -18.0862 C   0  0  0  0  0  0  0  0  0  0  0  0
   24.3642   -8.1838  -19.3947 N   0  0  0  0  0  0  0  0  0  0  0  0
   19.5829   -8.0540  -14.7470 C   0  0  0  0  0  0  0  0  0  0  0  0
   18.8584   -7.0764  -15.1493 O   0  0  0  0  0  0  0  0  0  0  0  0
   19.0100   -5.3305   -9.6642 N   0  0  0  0  0  0  0  0  0  0  0  0
   20.0987   -5.6651  -10.4879 C   0  0  0  0  0  0  0  0  0  0  0  0
   21.1165   -4.8898  -10.5295 O   0  0  0  0  0  0  0  0  0  0  0  0
   20.1116   -6.8776  -11.3029 C   0  0  0  0  0  0  0  0  0  0  0  0
   20.1171   -6.6088  -12.7849 C   0  0  2  0  0  0  0  0  0  0  0  0
   20.2765   -7.8439  -13.5341 N   0  0  0  0  0  0  0  0  0  0  0  0
   21.1941   -5.6739  -13.1299 C   0  0  0  0  0  0  0  0  0  0  0  0
   22.3650   -6.0390  -13.4924 O   0  0  0  0  0  0  0  0  0  0  0  0
   20.9221   -4.2935  -13.0588 O   0  0  0  0  0  0  0  0  0  0  0  0
  1  2  1  0
  2  3  1  0
  3  5  1  0
  3  4  1  1
  5  6  2  0
  7  8  1  0
  7  5  1  0
  8 14  1  0
  8  9  1  6
 10  9  1  0
 10 11  1  0
 11 12  1  0
 13 12  1  0
 14 21  1  0
 14 15  2  0
 16 17  1  0
 17 19  1  0
 18 17  2  0
 20 19  1  1
 20 22  1  0
 21 20  1  0
 22 23  2  0
 22 24  1  0
M  END
$$$$
