YSA.pdb
     RDKit          3D

 24 24  0  0  1  0  0  0  0  0999 V2000
   25.2196  -10.6048  -24.1425 O   0  0  0  0  0  0  0  0  0  0  0  0
   24.3824   -9.9565  -23.2290 C   0  0  0  0  0  0  0  0  0  0  0  0
   23.0986  -10.4371  -23.0504 C   0  0  0  0  0  0  0  0  0  0  0  0
   22.2349   -9.8302  -22.1594 C   0  0  0  0  0  0  0  0  0  0  0  0
   22.6322   -8.7308  -21.4268 C   0  0  0  0  0  0  0  0  0  0  0  0
   21.6875   -8.0932  -20.4738 C   0  0  0  0  0  0  0  0  0  0  0  0
   22.0552   -8.5252  -19.0718 C   0  0  2  0  0  0  0  0  0  0  0  0
   21.8582   -9.9421  -18.9688 N   0  0  0  0  0  0  0  0  0  0  0  0
   21.3118   -7.7627  -18.0431 C   0  0  0  0  0  0  0  0  0  0  0  0
   20.1093   -8.0540  -17.8190 O   0  0  0  0  0  0  0  0  0  0  0  0
   23.9160   -8.2576  -21.6115 C   0  0  0  0  0  0  0  0  0  0  0  0
   24.7928   -8.8587  -22.5037 C   0  0  0  0  0  0  0  0  0  0  0  0
   23.1465   -5.6337  -15.0506 O   0  0  0  0  0  0  0  0  0  0  0  0
   21.8121   -5.9756  -14.9692 C   0  0  0  0  0  0  0  0  0  0  0  0
   21.1107   -5.9327  -16.3123 C   0  0  2  0  0  0  0  0  0  0  0  0
   21.8744   -6.7063  -17.2789 N   0  0  0  0  0  0  0  0  0  0  0  0
   20.9025   -4.5402  -16.7729 C   0  0  0  0  0  0  0  0  0  0  0  0
   21.8501   -3.9681  -17.3995 O   0  0  0  0  0  0  0  0  0  0  0  0
   18.1555   -1.9141  -16.7659 C   0  0  0  0  0  0  0  0  0  0  0  0
   19.5523   -2.4160  -17.0088 C   0  0  2  0  0  0  0  0  0  0  0  0
   19.7292   -3.7875  -16.5733 N   0  0  0  0  0  0  0  0  0  0  0  0
   20.4865   -1.5780  -16.2113 C   0  0  0  0  0  0  0  0  0  0  0  0
   21.1305   -2.0331  -15.2177 O   0  0  0  0  0  0  0  0  0  0  0  0
   20.6771   -0.2410  -16.5497 O   0  0  0  0  0  0  0  0  0  0  0  0
  1  2  1  0
  2  3  2  0
  2 12  1  0
  3  4  1  0
  4  5  2  0
  5  6  1  0
  7  6  1  0
  7  8  1  6
  9 16  1  0
  9  7  1  0
 10  9  2  0
 11  5  1  0
 12 11  2  0
 13 14  1  0
 15 14  1  1
 15 17  1  0
 15 16  1  0
 17 21  1  0
 18 17  2  0
 20 19  1  1
 20 22  1  0
 21 20  1  0
 22 23  2  0
 22 24  1  0
M  END
$$$$
