YSA.pdb
     RDKit          3D

 24 24  0  0  1  0  0  0  0  0999 V2000
   23.3037  -21.2838   -7.8882 O   0  0  0  0  0  0  0  0  0  0  0  0
   24.0596  -20.9407   -9.0135 C   0  0  0  0  0  0  0  0  0  0  0  0
   25.4321  -21.0978   -8.9627 C   0  0  0  0  0  0  0  0  0  0  0  0
   26.2208  -20.7726  -10.0490 C   0  0  0  0  0  0  0  0  0  0  0  0
   25.6586  -20.2835  -11.2100 C   0  0  0  0  0  0  0  0  0  0  0  0
   26.5252  -19.9399  -12.3668 C   0  0  0  0  0  0  0  0  0  0  0  0
   25.9553  -20.5954  -13.6050 C   0  0  2  0  0  0  0  0  0  0  0  0
   26.0182  -22.0179  -13.4333 N   0  0  0  0  0  0  0  0  0  0  0  0
   26.6304  -20.1325  -14.8388 C   0  0  0  0  0  0  0  0  0  0  0  0
   26.7973  -18.8989  -15.0159 O   0  0  0  0  0  0  0  0  0  0  0  0
   24.2872  -20.1298  -11.2520 C   0  0  0  0  0  0  0  0  0  0  0  0
   23.4843  -20.4531  -10.1671 C   0  0  0  0  0  0  0  0  0  0  0  0
   28.0980  -22.8042  -17.7857 O   0  0  0  0  0  0  0  0  0  0  0  0
   28.7178  -21.5905  -17.5690 C   0  0  0  0  0  0  0  0  0  0  0  0
   27.7655  -20.5258  -17.0618 C   0  0  2  0  0  0  0  0  0  0  0  0
   27.1104  -21.0023  -15.8535 N   0  0  0  0  0  0  0  0  0  0  0  0
   26.7800  -20.1392  -18.0982 C   0  0  0  0  0  0  0  0  0  0  0  0
   25.6892  -20.7903  -18.1607 O   0  0  0  0  0  0  0  0  0  0  0  0
   26.3848  -17.5036  -20.8084 C   0  0  0  0  0  0  0  0  0  0  0  0
   25.9563  -18.7028  -20.0085 C   0  0  2  0  0  0  0  0  0  0  0  0
   26.9515  -19.0985  -19.0313 N   0  0  0  0  0  0  0  0  0  0  0  0
   25.7846  -19.8433  -20.9469 C   0  0  0  0  0  0  0  0  0  0  0  0
   26.6874  -20.7151  -21.1318 O   0  0  0  0  0  0  0  0  0  0  0  0
   24.5967  -19.9795  -21.6602 O   0  0  0  0  0  0  0  0  0  0  0  0
  1  2  1  0
  2  3  2  0
  2 12  1  0
  3  4  1  0
  4  5  2  0
  5  6  1  0
  7  6  1  0
  7  8  1  1
  9 16  1  0
  9  7  1  0
 10  9  2  0
 11  5  1  0
 12 11  2  0
 13 14  1  0
 15 14  1  6
 15 17  1  0
 15 16  1  0
 17 21  1  0
 18 17  2  0
 20 19  1  6
 20 22  1  0
 21 20  1  0
 22 23  2  0
 22 24  1  0
M  END
$$$$
