YSA.pdb
     RDKit          3D

 24 24  0  0  1  0  0  0  0  0999 V2000
   21.5704  -11.5893  -21.7659 O   0  0  0  0  0  0  0  0  0  0  0  0
   21.0100  -10.7471  -20.8003 C   0  0  0  0  0  0  0  0  0  0  0  0
   21.5635   -9.4943  -20.6124 C   0  0  0  0  0  0  0  0  0  0  0  0
   21.0448   -8.6272  -19.6707 C   0  0  0  0  0  0  0  0  0  0  0  0
   19.9628   -8.9899  -18.8954 C   0  0  0  0  0  0  0  0  0  0  0  0
   19.4204   -8.0420  -17.8882 C   0  0  0  0  0  0  0  0  0  0  0  0
   20.1668   -8.2436  -16.5883 C   0  0  2  0  0  0  0  0  0  0  0  0
   19.7536   -9.4932  -16.0186 N   0  0  0  0  0  0  0  0  0  0  0  0
   19.9897   -7.1009  -15.6636 C   0  0  0  0  0  0  0  0  0  0  0  0
   18.9313   -7.0207  -14.9895 O   0  0  0  0  0  0  0  0  0  0  0  0
   19.4164  -10.2429  -19.0898 C   0  0  0  0  0  0  0  0  0  0  0  0
   19.9287  -11.1228  -20.0328 C   0  0  0  0  0  0  0  0  0  0  0  0
   22.4593   -5.5451  -12.9181 O   0  0  0  0  0  0  0  0  0  0  0  0
   22.1013   -4.6430  -13.8991 C   0  0  0  0  0  0  0  0  0  0  0  0
   20.7707   -4.9738  -14.5454 C   0  0  2  0  0  0  0  0  0  0  0  0
   20.9508   -6.0712  -15.4831 N   0  0  0  0  0  0  0  0  0  0  0  0
   20.1764   -3.7875  -15.2045 C   0  0  0  0  0  0  0  0  0  0  0  0
   20.6333   -3.4407  -16.3397 O   0  0  0  0  0  0  0  0  0  0  0  0
   17.2939   -1.3797  -14.6461 C   0  0  0  0  0  0  0  0  0  0  0  0
   18.5077   -1.8956  -15.3689 C   0  0  2  0  0  0  0  0  0  0  0  0
   19.1351   -3.0021  -14.6733 N   0  0  0  0  0  0  0  0  0  0  0  0
   19.5056   -0.7952  -15.4340 C   0  0  0  0  0  0  0  0  0  0  0  0
   20.4923   -0.7228  -14.6401 O   0  0  0  0  0  0  0  0  0  0  0  0
   19.3719    0.2040  -16.3942 O   0  0  0  0  0  0  0  0  0  0  0  0
  1  2  1  0
  2  3  2  0
  2 12  1  0
  3  4  1  0
  4  5  2  0
  5  6  1  0
  7  6  1  0
  7  8  1  1
  9 16  1  0
  9  7  1  0
 10  9  2  0
 11  5  1  0
 12 11  2  0
 13 14  1  0
 15 14  1  6
 15 17  1  0
 15 16  1  0
 17 21  1  0
 18 17  2  0
 20 19  1  1
 20 22  1  0
 21 20  1  0
 22 23  2  0
 22 24  1  0
M  END
$$$$
