YSA.pdb
     RDKit          3D

 24 24  0  0  1  0  0  0  0  0999 V2000
   23.5192  -13.1648  -22.4625 O   0  0  0  0  0  0  0  0  0  0  0  0
   22.9260  -12.3047  -21.5330 C   0  0  0  0  0  0  0  0  0  0  0  0
   21.6405  -11.8559  -21.7721 C   0  0  0  0  0  0  0  0  0  0  0  0
   21.0128  -11.0052  -20.8832 C   0  0  0  0  0  0  0  0  0  0  0  0
   21.6528  -10.5831  -19.7362 C   0  0  0  0  0  0  0  0  0  0  0  0
   20.9595   -9.6680  -18.7933 C   0  0  0  0  0  0  0  0  0  0  0  0
   20.7353  -10.4015  -17.4898 C   0  0  2  0  0  0  0  0  0  0  0  0
   19.8515  -11.5035  -17.7372 N   0  0  0  0  0  0  0  0  0  0  0  0
   20.2480   -9.4991  -16.4218 C   0  0  0  0  0  0  0  0  0  0  0  0
   19.0715   -9.0599  -16.4849 O   0  0  0  0  0  0  0  0  0  0  0  0
   22.9364  -11.0362  -19.5055 C   0  0  0  0  0  0  0  0  0  0  0  0
   23.5775  -11.8911  -20.3911 C   0  0  0  0  0  0  0  0  0  0  0  0
   22.2782   -9.0182  -12.8555 O   0  0  0  0  0  0  0  0  0  0  0  0
   20.9516   -8.6460  -12.9306 C   0  0  0  0  0  0  0  0  0  0  0  0
   20.5567   -8.1503  -14.3075 C   0  0  2  0  0  0  0  0  0  0  0  0
   21.0328   -9.0889  -15.3117 N   0  0  0  0  0  0  0  0  0  0  0  0
   21.0639   -6.7813  -14.5589 C   0  0  0  0  0  0  0  0  0  0  0  0
   22.1854   -6.6559  -15.1457 O   0  0  0  0  0  0  0  0  0  0  0  0
   19.9037   -3.1906  -14.1135 C   0  0  0  0  0  0  0  0  0  0  0  0
   20.8907   -4.2601  -14.4927 C   0  0  2  0  0  0  0  0  0  0  0  0
   20.4006   -5.5924  -14.1986 N   0  0  0  0  0  0  0  0  0  0  0  0
   22.1217   -4.0565  -13.6839 C   0  0  0  0  0  0  0  0  0  0  0  0
   22.3705   -4.7331  -12.6402 O   0  0  0  0  0  0  0  0  0  0  0  0
   23.0501   -3.0925  -14.0679 O   0  0  0  0  0  0  0  0  0  0  0  0
  1  2  1  0
  2  3  2  0
  2 12  1  0
  3  4  1  0
  4  5  2  0
  5  6  1  0
  7  6  1  0
  7  8  1  6
  9 16  1  0
  9  7  1  0
 10  9  2  0
 11  5  1  0
 12 11  2  0
 13 14  1  0
 15 14  1  1
 15 17  1  0
 15 16  1  0
 17 21  1  0
 18 17  2  0
 20 19  1  1
 20 22  1  0
 21 20  1  0
 22 23  2  0
 22 24  1  0
M  END
$$$$
