YSA.pdb
     RDKit          3D

 24 24  0  0  1  0  0  0  0  0999 V2000
   23.5567  -34.0570  -14.2757 O   0  0  0  0  0  0  0  0  0  0  0  0
   24.7353  -33.3677  -14.5780 C   0  0  0  0  0  0  0  0  0  0  0  0
   24.7896  -32.6282  -15.7447 C   0  0  0  0  0  0  0  0  0  0  0  0
   25.9318  -31.9305  -16.0860 C   0  0  0  0  0  0  0  0  0  0  0  0
   27.0451  -31.9546  -15.2717 C   0  0  0  0  0  0  0  0  0  0  0  0
   28.2635  -31.1970  -15.6575 C   0  0  0  0  0  0  0  0  0  0  0  0
   29.1312  -32.0887  -16.5172 C   0  0  2  0  0  0  0  0  0  0  0  0
   29.8552  -32.9798  -15.6577 N   0  0  0  0  0  0  0  0  0  0  0  0
   30.0135  -31.3074  -17.4136 C   0  0  0  0  0  0  0  0  0  0  0  0
   31.0576  -30.7898  -16.9415 O   0  0  0  0  0  0  0  0  0  0  0  0
   26.9821  -32.6958  -14.1085 C   0  0  0  0  0  0  0  0  0  0  0  0
   25.8402  -33.4009  -13.7549 C   0  0  0  0  0  0  0  0  0  0  0  0
   32.2501  -32.1479  -19.3612 O   0  0  0  0  0  0  0  0  0  0  0  0
   31.6504  -31.3213  -20.2893 C   0  0  0  0  0  0  0  0  0  0  0  0
   30.6563  -30.3612  -19.6666 C   0  0  2  0  0  0  0  0  0  0  0  0
   29.7559  -31.0993  -18.7945 N   0  0  0  0  0  0  0  0  0  0  0  0
   29.9127  -29.6027  -20.6994 C   0  0  0  0  0  0  0  0  0  0  0  0
   28.9171  -30.1657  -21.2558 O   0  0  0  0  0  0  0  0  0  0  0  0
   30.0301  -26.1865  -22.3639 C   0  0  0  0  0  0  0  0  0  0  0  0
   29.4582  -27.5539  -22.1088 C   0  0  2  0  0  0  0  0  0  0  0  0
   30.2190  -28.2947  -21.1218 N   0  0  0  0  0  0  0  0  0  0  0  0
   29.5218  -28.3226  -23.3799 C   0  0  0  0  0  0  0  0  0  0  0  0
   30.4741  -29.1164  -23.6489 O   0  0  0  0  0  0  0  0  0  0  0  0
   28.5092  -28.1817  -24.3250 O   0  0  0  0  0  0  0  0  0  0  0  0
  1  2  1  0
  2  3  2  0
  2 12  1  0
  3  4  1  0
  4  5  2  0
  5  6  1  0
  7  6  1  0
  7  8  1  1
  9 16  1  0
  9  7  1  0
 10  9  2  0
 11  5  1  0
 12 11  2  0
 13 14  1  0
 15 14  1  6
 15 17  1  0
 15 16  1  0
 17 21  1  0
 18 17  2  0
 20 19  1  6
 20 22  1  0
 21 20  1  0
 22 23  2  0
 22 24  1  0
M  END
$$$$
