YSA.pdb
     RDKit          3D

 24 24  0  0  1  0  0  0  0  0999 V2000
   15.2245  -23.7254    1.1983 O   0  0  0  0  0  0  0  0  0  0  0  0
   15.7544  -22.6177    1.8676 C   0  0  0  0  0  0  0  0  0  0  0  0
   15.8118  -21.4070    1.2028 C   0  0  0  0  0  0  0  0  0  0  0  0
   16.3266  -20.2850    1.8222 C   0  0  0  0  0  0  0  0  0  0  0  0
   16.7957  -20.3451    3.1183 C   0  0  0  0  0  0  0  0  0  0  0  0
   17.3455  -19.1263    3.7659 C   0  0  0  0  0  0  0  0  0  0  0  0
   16.3375  -18.6225    4.7746 C   0  0  2  0  0  0  0  0  0  0  0  0
   15.2766  -17.9678    4.0656 N   0  0  0  0  0  0  0  0  0  0  0  0
   16.9640  -17.7595    5.8019 C   0  0  0  0  0  0  0  0  0  0  0  0
   17.1289  -16.5380    5.5535 O   0  0  0  0  0  0  0  0  0  0  0  0
   16.7346  -21.5583    3.7746 C   0  0  0  0  0  0  0  0  0  0  0  0
   16.2195  -22.6925    3.1628 C   0  0  0  0  0  0  0  0  0  0  0  0
   17.9201  -16.9483   10.4613 O   0  0  0  0  0  0  0  0  0  0  0  0
   17.4847  -17.7820    9.4515 C   0  0  0  0  0  0  0  0  0  0  0  0
   17.9734  -17.3526    8.0823 C   0  0  2  0  0  0  0  0  0  0  0  0
   17.3989  -18.2259    7.0707 N   0  0  0  0  0  0  0  0  0  0  0  0
   19.4532  -17.3393    8.0125 C   0  0  0  0  0  0  0  0  0  0  0  0
   20.0428  -18.3855    7.5935 O   0  0  0  0  0  0  0  0  0  0  0  0
   22.3191  -14.9350    8.6851 C   0  0  0  0  0  0  0  0  0  0  0  0
   21.7209  -16.2695    8.3342 C   0  0  2  0  0  0  0  0  0  0  0  0
   20.2718  -16.2524    8.3751 N   0  0  0  0  0  0  0  0  0  0  0  0
   22.1772  -17.2579    9.3470 C   0  0  0  0  0  0  0  0  0  0  0  0
   21.4157  -17.6969   10.2615 O   0  0  0  0  0  0  0  0  0  0  0  0
   23.4854  -17.7331    9.3094 O   0  0  0  0  0  0  0  0  0  0  0  0
  1  2  1  0
  2  3  2  0
  2 12  1  0
  3  4  1  0
  4  5  2  0
  5  6  1  0
  7  6  1  0
  7  8  1  6
  9 16  1  0
  9  7  1  0
 10  9  2  0
 11  5  1  0
 12 11  2  0
 13 14  1  0
 15 14  1  1
 15 17  1  0
 15 16  1  0
 17 21  1  0
 18 17  2  0
 20 19  1  1
 20 22  1  0
 21 20  1  0
 22 23  2  0
 22 24  1  0
M  END
$$$$
