YSA.pdb
     RDKit          3D

 24 24  0  0  1  0  0  0  0  0999 V2000
   26.4953  -10.4767  -23.6374 O   0  0  0  0  0  0  0  0  0  0  0  0
   27.1538   -9.9204  -22.5362 C   0  0  0  0  0  0  0  0  0  0  0  0
   26.4372   -9.7095  -21.3729 C   0  0  0  0  0  0  0  0  0  0  0  0
   27.0439   -9.1628  -20.2591 C   0  0  0  0  0  0  0  0  0  0  0  0
   28.3786   -8.8141  -20.2803 C   0  0  0  0  0  0  0  0  0  0  0  0
   29.0117   -8.2274  -19.0711 C   0  0  0  0  0  0  0  0  0  0  0  0
   29.9740   -9.2410  -18.4933 C   0  0  2  0  0  0  0  0  0  0  0  0
   29.2135  -10.3333  -17.9589 N   0  0  0  0  0  0  0  0  0  0  0  0
   30.8892   -8.6342  -17.5000 C   0  0  0  0  0  0  0  0  0  0  0  0
   30.4687   -8.4209  -16.3344 O   0  0  0  0  0  0  0  0  0  0  0  0
   29.0866   -9.0282  -21.4461 C   0  0  0  0  0  0  0  0  0  0  0  0
   28.4880   -9.5768  -22.5716 C   0  0  0  0  0  0  0  0  0  0  0  0
   34.7963   -7.4562  -18.5021 O   0  0  0  0  0  0  0  0  0  0  0  0
   34.5657   -7.9204  -17.2232 C   0  0  0  0  0  0  0  0  0  0  0  0
   33.1313   -7.7221  -16.7750 C   0  0  2  0  0  0  0  0  0  0  0  0
   32.2332   -8.2705  -17.7793 N   0  0  0  0  0  0  0  0  0  0  0  0
   32.8384   -6.2953  -16.5046 C   0  0  0  0  0  0  0  0  0  0  0  0
   32.5033   -5.5561  -17.4839 O   0  0  0  0  0  0  0  0  0  0  0  0
   32.5766   -3.9636  -13.5159 C   0  0  0  0  0  0  0  0  0  0  0  0
   32.5493   -4.2981  -14.9819 C   0  0  2  0  0  0  0  0  0  0  0  0
   32.9002   -5.6811  -15.2388 N   0  0  0  0  0  0  0  0  0  0  0  0
   33.5647   -3.4533  -15.6646 C   0  0  0  0  0  0  0  0  0  0  0  0
   34.6659   -3.9198  -16.0874 O   0  0  0  0  0  0  0  0  0  0  0  0
   33.3189   -2.0965  -15.8579 O   0  0  0  0  0  0  0  0  0  0  0  0
  1  2  1  0
  2  3  2  0
  2 12  1  0
  3  4  1  0
  4  5  2  0
  5  6  1  0
  7  6  1  0
  7  8  1  1
  9 16  1  0
  9  7  1  0
 10  9  2  0
 11  5  1  0
 12 11  2  0
 13 14  1  0
 15 14  1  6
 15 17  1  0
 15 16  1  0
 17 21  1  0
 18 17  2  0
 20 19  1  1
 20 22  1  0
 21 20  1  0
 22 23  2  0
 22 24  1  0
M  END
$$$$
