YSA.pdb
     RDKit          3D

 24 24  0  0  1  0  0  0  0  0999 V2000
   17.9629  -14.3449  -20.7889 O   0  0  0  0  0  0  0  0  0  0  0  0
   17.9766  -13.2096  -19.9726 C   0  0  0  0  0  0  0  0  0  0  0  0
   16.8399  -12.8998  -19.2494 C   0  0  0  0  0  0  0  0  0  0  0  0
   16.8055  -11.7888  -18.4295 C   0  0  0  0  0  0  0  0  0  0  0  0
   17.9037  -10.9619  -18.3125 C   0  0  0  0  0  0  0  0  0  0  0  0
   17.8455   -9.7719  -17.4249 C   0  0  0  0  0  0  0  0  0  0  0  0
   18.6461  -10.0651  -16.1757 C   0  0  2  0  0  0  0  0  0  0  0  0
   18.0001  -11.1294  -15.4638 N   0  0  0  0  0  0  0  0  0  0  0  0
   18.8457   -8.8542  -15.3474 C   0  0  0  0  0  0  0  0  0  0  0  0
   17.9231   -8.4835  -14.5777 O   0  0  0  0  0  0  0  0  0  0  0  0
   19.0346  -11.2788  -19.0383 C   0  0  0  0  0  0  0  0  0  0  0  0
   19.0813  -12.3923  -19.8653 C   0  0  0  0  0  0  0  0  0  0  0  0
   20.9924   -7.7800  -12.4422 O   0  0  0  0  0  0  0  0  0  0  0  0
   21.3621   -7.1021  -13.5859 C   0  0  0  0  0  0  0  0  0  0  0  0
   20.2049   -6.8830  -14.5401 C   0  0  2  0  0  0  0  0  0  0  0  0
   20.0290   -8.0692  -15.3634 N   0  0  0  0  0  0  0  0  0  0  0  0
   20.4049   -5.6710  -15.3683 C   0  0  0  0  0  0  0  0  0  0  0  0
   21.2227   -5.7374  -16.3401 O   0  0  0  0  0  0  0  0  0  0  0  0
   18.9630   -2.1705  -15.6742 C   0  0  0  0  0  0  0  0  0  0  0  0
   19.9125   -3.2813  -16.0297 C   0  0  2  0  0  0  0  0  0  0  0  0
   19.7574   -4.4366  -15.1678 N   0  0  0  0  0  0  0  0  0  0  0  0
   21.2990   -2.7774  -15.8433 C   0  0  0  0  0  0  0  0  0  0  0  0
   21.9629   -2.9867  -14.7829 O   0  0  0  0  0  0  0  0  0  0  0  0
   21.9114   -2.0460  -16.8575 O   0  0  0  0  0  0  0  0  0  0  0  0
  1  2  1  0
  2  3  2  0
  2 12  1  0
  3  4  1  0
  4  5  2  0
  5  6  1  0
  7  6  1  0
  7  8  1  1
  9 16  1  0
  9  7  1  0
 10  9  2  0
 11  5  1  0
 12 11  2  0
 13 14  1  0
 15 14  1  1
 15 17  1  0
 15 16  1  0
 17 21  1  0
 18 17  2  0
 20 19  1  1
 20 22  1  0
 21 20  1  0
 22 23  2  0
 22 24  1  0
M  END
$$$$
