YSA.pdb
     RDKit          3D

 24 24  0  0  1  0  0  0  0  0999 V2000
   24.3829  -12.4812  -23.0016 O   0  0  0  0  0  0  0  0  0  0  0  0
   23.3997  -11.7102  -22.3736 C   0  0  0  0  0  0  0  0  0  0  0  0
   22.3604  -11.2122  -23.1371 C   0  0  0  0  0  0  0  0  0  0  0  0
   21.3658  -10.4456  -22.5618 C   0  0  0  0  0  0  0  0  0  0  0  0
   21.3855  -10.1585  -21.2125 C   0  0  0  0  0  0  0  0  0  0  0  0
   20.3058   -9.3320  -20.6137 C   0  0  0  0  0  0  0  0  0  0  0  0
   19.6852  -10.1065  -19.4725 C   0  0  2  0  0  0  0  0  0  0  0  0
   19.0219  -11.2568  -20.0144 N   0  0  0  0  0  0  0  0  0  0  0  0
   18.7927   -9.2604  -18.6480 C   0  0  0  0  0  0  0  0  0  0  0  0
   17.6278   -9.0235  -19.0577 O   0  0  0  0  0  0  0  0  0  0  0  0
   22.4272  -10.6598  -20.4577 C   0  0  0  0  0  0  0  0  0  0  0  0
   23.4321  -11.4312  -21.0243 C   0  0  0  0  0  0  0  0  0  0  0  0
   19.9352   -7.9352  -14.8715 O   0  0  0  0  0  0  0  0  0  0  0  0
   18.5872   -7.9684  -15.1646 C   0  0  0  0  0  0  0  0  0  0  0  0
   18.3025   -7.8014  -16.6441 C   0  0  2  0  0  0  0  0  0  0  0  0
   19.1695   -8.6883  -17.4041 N   0  0  0  0  0  0  0  0  0  0  0  0
   18.4574   -6.3915  -17.0720 C   0  0  0  0  0  0  0  0  0  0  0  0
   19.6074   -6.0034  -17.4522 O   0  0  0  0  0  0  0  0  0  0  0  0
   16.3046   -3.3020  -17.5670 C   0  0  0  0  0  0  0  0  0  0  0  0
   17.6098   -4.0401  -17.4502 C   0  0  2  0  0  0  0  0  0  0  0  0
   17.4257   -5.4332  -17.0936 N   0  0  0  0  0  0  0  0  0  0  0  0
   18.3986   -3.4081  -16.3597 C   0  0  0  0  0  0  0  0  0  0  0  0
   18.7809   -2.1995  -16.4079 O   0  0  0  0  0  0  0  0  0  0  0  0
   18.7421   -4.1519  -15.2339 O   0  0  0  0  0  0  0  0  0  0  0  0
  1  2  1  0
  2  3  2  0
  2 12  1  0
  3  4  1  0
  4  5  2  0
  5  6  1  0
  7  6  1  0
  7  8  1  6
  9 16  1  0
  9  7  1  0
 10  9  2  0
 11  5  1  0
 12 11  2  0
 13 14  1  0
 15 14  1  1
 15 17  1  0
 15 16  1  0
 17 21  1  0
 18 17  2  0
 20 19  1  1
 20 22  1  0
 21 20  1  0
 22 23  2  0
 22 24  1  0
M  END
$$$$
