YSA.pdb
     RDKit          3D

 24 24  0  0  1  0  0  0  0  0999 V2000
   22.9546  -14.2252  -21.3633 O   0  0  0  0  0  0  0  0  0  0  0  0
   22.3136  -13.1421  -20.7537 C   0  0  0  0  0  0  0  0  0  0  0  0
   23.0819  -12.2128  -20.0773 C   0  0  0  0  0  0  0  0  0  0  0  0
   22.4943  -11.1263  -19.4593 C   0  0  0  0  0  0  0  0  0  0  0  0
   21.1277  -10.9420  -19.5020 C   0  0  0  0  0  0  0  0  0  0  0  0
   20.5159   -9.7663  -18.8306 C   0  0  0  0  0  0  0  0  0  0  0  0
   20.2938  -10.1071  -17.3739 C   0  0  2  0  0  0  0  0  0  0  0  0
   19.4241  -11.2453  -17.3032 N   0  0  0  0  0  0  0  0  0  0  0  0
   19.7908   -8.9473  -16.6030 C   0  0  0  0  0  0  0  0  0  0  0  0
   18.6177   -8.5430  -16.8063 O   0  0  0  0  0  0  0  0  0  0  0  0
   20.3682  -11.8749  -20.1796 C   0  0  0  0  0  0  0  0  0  0  0  0
   20.9471  -12.9706  -20.8044 C   0  0  0  0  0  0  0  0  0  0  0  0
   21.6143   -7.7023  -13.1936 O   0  0  0  0  0  0  0  0  0  0  0  0
   20.3512   -7.2105  -13.4526 C   0  0  0  0  0  0  0  0  0  0  0  0
   20.0672   -7.0697  -14.9348 C   0  0  2  0  0  0  0  0  0  0  0  0
   20.5567   -8.2484  -15.6327 N   0  0  0  0  0  0  0  0  0  0  0  0
   20.6569   -5.8274  -15.4860 C   0  0  0  0  0  0  0  0  0  0  0  0
   21.8375   -5.8816  -15.9563 O   0  0  0  0  0  0  0  0  0  0  0  0
   19.6465   -2.2152  -16.0947 C   0  0  0  0  0  0  0  0  0  0  0  0
   20.6176   -3.3626  -16.0463 C   0  0  2  0  0  0  0  0  0  0  0  0
   20.0124   -4.5762  -15.5339 N   0  0  0  0  0  0  0  0  0  0  0  0
   21.7178   -2.9940  -15.1163 C   0  0  0  0  0  0  0  0  0  0  0  0
   21.7753   -3.4249  -13.9246 O   0  0  0  0  0  0  0  0  0  0  0  0
   22.7336   -2.1455  -15.5483 O   0  0  0  0  0  0  0  0  0  0  0  0
  1  2  1  0
  2  3  2  0
  2 12  1  0
  3  4  1  0
  4  5  2  0
  5  6  1  0
  7  6  1  0
  7  8  1  6
  9 16  1  0
  9  7  1  0
 10  9  2  0
 11  5  1  0
 12 11  2  0
 13 14  1  0
 15 14  1  1
 15 17  1  0
 15 16  1  0
 17 21  1  0
 18 17  2  0
 20 19  1  1
 20 22  1  0
 21 20  1  0
 22 23  2  0
 22 24  1  0
M  END
$$$$
