WKK.pdb
     RDKit          3D

 33 34  0  0  1  0  0  0  0  0999 V2000
    6.1519  -17.4608   24.3230 N   0  0  0  0  0  0  0  0  0  0  0  0
    7.0032  -16.3339   24.0012 C   0  0  1  0  0  0  0  0  0  0  0  0
    7.7869  -15.9469   25.2331 C   0  0  0  0  0  0  0  0  0  0  0  0
    6.9870  -14.9439   25.9791 C   0  0  0  0  0  0  0  0  0  0  0  0
    5.8561  -15.1589   26.7573 C   0  0  0  0  0  0  0  0  0  0  0  0
    5.4314  -13.9907   27.2602 N   0  0  0  0  0  0  0  0  0  0  0  0
    6.2543  -13.0268   26.8302 C   0  0  0  0  0  0  0  0  0  0  0  0
    6.2680  -11.6643   27.0510 C   0  0  0  0  0  0  0  0  0  0  0  0
    7.2520  -10.9078   26.4705 C   0  0  0  0  0  0  0  0  0  0  0  0
    8.2467  -11.4355   25.6650 C   0  0  0  0  0  0  0  0  0  0  0  0
    8.2374  -12.7953   25.4416 C   0  0  0  0  0  0  0  0  0  0  0  0
    7.2555  -13.5726   26.0171 C   0  0  0  0  0  0  0  0  0  0  0  0
    7.8500  -16.6660   22.8572 C   0  0  0  0  0  0  0  0  0  0  0  0
    8.2439  -17.8468   22.7078 O   0  0  0  0  0  0  0  0  0  0  0  0
    8.2713  -15.7220   21.8750 N   0  0  0  0  0  0  0  0  0  0  0  0
    9.2203  -15.9583   20.8376 C   0  0  1  0  0  0  0  0  0  0  0  0
    9.3502  -14.8724   19.8343 C   0  0  0  0  0  0  0  0  0  0  0  0
    8.3930  -15.0345   18.6815 C   0  0  0  0  0  0  0  0  0  0  0  0
    8.5847  -13.9586   17.6369 C   0  0  0  0  0  0  0  0  0  0  0  0
    7.5731  -14.1919   16.5268 C   0  0  0  0  0  0  0  0  0  0  0  0
    7.7590  -13.2337   15.4451 N   0  0  0  0  0  0  0  0  0  0  0  0
   10.5587  -16.1939   21.4976 C   0  0  0  0  0  0  0  0  0  0  0  0
   11.0228  -15.3904   22.3461 O   0  0  0  0  0  0  0  0  0  0  0  0
   11.3522  -17.3364   21.1872 N   0  0  0  0  0  0  0  0  0  0  0  0
   12.6742  -17.5468   21.7419 C   0  0  1  0  0  0  0  0  0  0  0  0
   12.9352  -19.0613   21.8944 C   0  0  0  0  0  0  0  0  0  0  0  0
   12.3937  -19.4896   23.2186 C   0  0  0  0  0  0  0  0  0  0  0  0
   12.4979  -20.9437   23.5372 C   0  0  0  0  0  0  0  0  0  0  0  0
   12.0290  -21.3098   24.8955 C   0  0  0  0  0  0  0  0  0  0  0  0
   10.9302  -22.2208   24.9673 N   0  0  0  0  0  0  0  0  0  0  0  0
   13.7101  -16.9310   20.8760 C   0  0  0  0  0  0  0  0  0  0  0  0
   14.8524  -16.3224   21.4101 O   0  0  0  0  0  0  0  0  0  0  0  0
   13.6050  -16.9302   19.6248 O   0  0  0  0  0  0  0  0  0  0  0  0
  2  1  1  1
  3  2  1  0
  3  4  1  0
  4  5  2  0
  5  6  1  0
  7  8  2  0
  7  6  1  0
  9  8  1  0
 10  9  2  0
 11 10  1  0
 11 12  2  0
 12  4  1  0
 12  7  1  0
 13  2  1  0
 14 13  2  0
 15 13  1  0
 16 17  1  6
 16 15  1  0
 18 17  1  0
 18 19  1  0
 20 19  1  0
 21 20  1  0
 22 16  1  0
 23 22  2  0
 24 22  1  0
 25 31  1  0
 25 24  1  0
 25 26  1  6
 27 26  1  0
 28 27  1  0
 29 28  1  0
 30 29  1  0
 31 32  1  0
 33 31  2  0
M  END
$$$$
