CDE.pdb
     RDKit          3D

 24 23  0  0  1  0  0  0  0  0999 V2000
    7.8575  -14.1571   17.7214 N   0  0  0  0  0  0  0  0  0  0  0  0
    8.8154  -13.9895   18.8069 C   0  0  1  0  0  0  0  0  0  0  0  0
    8.6488  -12.5500   19.2917 C   0  0  0  0  0  0  0  0  0  0  0  0
    9.2612  -11.3743   18.0723 S   0  0  0  0  0  0  0  0  0  0  0  0
    8.4109  -14.9033   19.9054 C   0  0  0  0  0  0  0  0  0  0  0  0
    7.1895  -15.0271   20.2552 O   0  0  0  0  0  0  0  0  0  0  0  0
    9.3279  -15.6994   20.6440 N   0  0  0  0  0  0  0  0  0  0  0  0
    8.9201  -16.6679   21.6490 C   0  0  1  0  0  0  0  0  0  0  0  0
    7.8067  -17.5498   21.1330 C   0  0  0  0  0  0  0  0  0  0  0  0
    7.3617  -18.5442   22.1016 C   0  0  0  0  0  0  0  0  0  0  0  0
    7.9156  -18.6417   23.2139 O   0  0  0  0  0  0  0  0  0  0  0  0
   10.0687  -17.5037   22.0869 C   0  0  0  0  0  0  0  0  0  0  0  0
   10.6275  -18.3452   21.3431 O   0  0  0  0  0  0  0  0  0  0  0  0
    6.2986  -19.3872   21.7550 O   0  0  0  0  0  0  0  0  0  0  0  0
   10.6180  -17.3977   23.4086 N   0  0  0  0  0  0  0  0  0  0  0  0
   11.9653  -17.8328   23.7496 C   0  0  1  0  0  0  0  0  0  0  0  0
   13.0147  -17.3941   22.7963 C   0  0  0  0  0  0  0  0  0  0  0  0
   13.5674  -16.0290   22.9697 C   0  0  0  0  0  0  0  0  0  0  0  0
   14.6672  -15.6672   22.0677 C   0  0  0  0  0  0  0  0  0  0  0  0
   15.2883  -16.5504   21.4474 O   0  0  0  0  0  0  0  0  0  0  0  0
   12.2545  -17.5436   25.1769 C   0  0  0  0  0  0  0  0  0  0  0  0
   13.3537  -17.8669   25.7061 O   0  0  0  0  0  0  0  0  0  0  0  0
   15.0187  -14.3457   21.9021 O   0  0  0  0  0  0  0  0  0  0  0  0
   11.3301  -16.9061   25.9907 O   0  0  0  0  0  0  0  0  0  0  0  0
  2  1  1  6
  3  2  1  0
  4  3  1  0
  5  7  1  0
  5  2  1  0
  6  5  2  0
  8  7  1  0
  8 12  1  0
  8  9  1  6
 10  9  1  0
 11 10  2  0
 12 15  1  0
 13 12  2  0
 14 10  1  0
 15 16  1  0
 16 21  1  0
 16 17  1  6
 18 17  1  0
 19 18  1  0
 20 19  2  0
 21 24  1  0
 22 21  2  0
 23 19  1  0
M  END
$$$$
