CDE.pdb
     RDKit          3D

 24 23  0  0  1  0  0  0  0  0999 V2000
    8.1596  -16.9903   19.9140 N   0  0  0  0  0  0  0  0  0  0  0  0
    8.7072  -16.0108   20.8438 C   0  0  1  0  0  0  0  0  0  0  0  0
    7.7879  -16.0347   22.0642 C   0  0  0  0  0  0  0  0  0  0  0  0
    8.3764  -14.9171   23.3482 S   0  0  0  0  0  0  0  0  0  0  0  0
   10.0497  -16.4904   21.2594 C   0  0  0  0  0  0  0  0  0  0  0  0
   10.2513  -17.7069   21.5896 O   0  0  0  0  0  0  0  0  0  0  0  0
   11.1981  -15.6554   21.3235 N   0  0  0  0  0  0  0  0  0  0  0  0
   12.4962  -16.1121   21.7934 C   0  0  1  0  0  0  0  0  0  0  0  0
   13.5953  -15.1760   21.3469 C   0  0  0  0  0  0  0  0  0  0  0  0
   14.9284  -15.6289   21.7249 C   0  0  0  0  0  0  0  0  0  0  0  0
   15.5219  -15.1202   22.6957 O   0  0  0  0  0  0  0  0  0  0  0  0
   12.5144  -16.2478   23.2735 C   0  0  0  0  0  0  0  0  0  0  0  0
   11.9791  -15.4161   24.0451 O   0  0  0  0  0  0  0  0  0  0  0  0
   15.5273  -16.6476   20.9735 O   0  0  0  0  0  0  0  0  0  0  0  0
   13.1557  -17.3564   23.9215 N   0  0  0  0  0  0  0  0  0  0  0  0
   13.2767  -17.4735   25.3679 C   0  0  1  0  0  0  0  0  0  0  0  0
   12.0098  -17.8012   26.0682 C   0  0  0  0  0  0  0  0  0  0  0  0
   11.6091  -19.2278   26.1229 C   0  0  0  0  0  0  0  0  0  0  0  0
   11.1660  -19.7156   27.4344 C   0  0  0  0  0  0  0  0  0  0  0  0
    9.9961  -19.5229   27.8147 O   0  0  0  0  0  0  0  0  0  0  0  0
   14.4298  -18.3399   25.7202 C   0  0  0  0  0  0  0  0  0  0  0  0
   15.0572  -18.9932   24.8414 O   0  0  0  0  0  0  0  0  0  0  0  0
   12.0442  -20.3909   28.2531 O   0  0  0  0  0  0  0  0  0  0  0  0
   14.8679  -18.4693   27.0296 O   0  0  0  0  0  0  0  0  0  0  0  0
  2  1  1  6
  3  2  1  0
  4  3  1  0
  5  7  1  0
  5  2  1  0
  6  5  2  0
  8  7  1  0
  8 12  1  0
  8  9  1  1
 10  9  1  0
 11 10  2  0
 12 15  1  0
 13 12  2  0
 14 10  1  0
 15 16  1  0
 16 21  1  0
 16 17  1  6
 18 17  1  0
 19 18  1  0
 20 19  2  0
 21 24  1  0
 22 21  2  0
 23 19  1  0
M  END
$$$$
