CDE.pdb
     RDKit          3D

 24 23  0  0  1  0  0  0  0  0999 V2000
    7.1505  -15.3797   17.5750 N   0  0  0  0  0  0  0  0  0  0  0  0
    8.2051  -14.6807   18.2982 C   0  0  1  0  0  0  0  0  0  0  0  0
    7.5135  -13.5417   19.0463 C   0  0  0  0  0  0  0  0  0  0  0  0
    8.6773  -12.6382   20.0823 S   0  0  0  0  0  0  0  0  0  0  0  0
    8.7642  -15.6259   19.2978 C   0  0  0  0  0  0  0  0  0  0  0  0
    8.0105  -16.3916   19.9871 O   0  0  0  0  0  0  0  0  0  0  0  0
   10.1540  -15.7557   19.5661 N   0  0  0  0  0  0  0  0  0  0  0  0
   10.6898  -16.5756   20.6407 C   0  0  1  0  0  0  0  0  0  0  0  0
   12.1140  -16.9890   20.3499 C   0  0  0  0  0  0  0  0  0  0  0  0
   12.2313  -17.8988   19.2169 C   0  0  0  0  0  0  0  0  0  0  0  0
   12.7802  -17.5314   18.1599 O   0  0  0  0  0  0  0  0  0  0  0  0
   10.6234  -15.8637   21.9439 C   0  0  0  0  0  0  0  0  0  0  0  0
   10.5168  -14.6175   22.0399 O   0  0  0  0  0  0  0  0  0  0  0  0
   11.7140  -19.1940   19.3422 O   0  0  0  0  0  0  0  0  0  0  0  0
   10.6781  -16.5695   23.1925 N   0  0  0  0  0  0  0  0  0  0  0  0
   10.2201  -15.9990   24.4516 C   0  0  1  0  0  0  0  0  0  0  0  0
    8.9138  -15.2990   24.3725 C   0  0  0  0  0  0  0  0  0  0  0  0
    8.3945  -14.6794   25.6157 C   0  0  0  0  0  0  0  0  0  0  0  0
    7.1294  -13.9473   25.4828 C   0  0  0  0  0  0  0  0  0  0  0  0
    6.1090  -14.5256   25.0649 O   0  0  0  0  0  0  0  0  0  0  0  0
   10.3289  -17.0016   25.5414 C   0  0  0  0  0  0  0  0  0  0  0  0
   10.1948  -18.2364   25.3180 O   0  0  0  0  0  0  0  0  0  0  0  0
    7.0643  -12.6134   25.8205 O   0  0  0  0  0  0  0  0  0  0  0  0
   10.5825  -16.6252   26.8519 O   0  0  0  0  0  0  0  0  0  0  0  0
  2  1  1  6
  3  2  1  0
  4  3  1  0
  5  7  1  0
  5  2  1  0
  6  5  2  0
  8  7  1  0
  8 12  1  0
  8  9  1  6
 10  9  1  0
 11 10  2  0
 12 15  1  0
 13 12  2  0
 14 10  1  0
 15 16  1  0
 16 21  1  0
 16 17  1  6
 18 17  1  0
 19 18  1  0
 20 19  2  0
 21 24  1  0
 22 21  2  0
 23 19  1  0
M  END
$$$$
