CDE.pdb
     RDKit          3D

 24 23  0  0  1  0  0  0  0  0999 V2000
    5.7451  -14.7960   25.8077 N   0  0  0  0  0  0  0  0  0  0  0  0
    6.8677  -14.1316   25.1577 C   0  0  1  0  0  0  0  0  0  0  0  0
    7.6593  -13.4581   26.2779 C   0  0  0  0  0  0  0  0  0  0  0  0
    6.9933  -11.8290   26.6609 S   0  0  0  0  0  0  0  0  0  0  0  0
    7.7200  -15.1851   24.5502 C   0  0  0  0  0  0  0  0  0  0  0  0
    7.8357  -16.3396   25.0824 O   0  0  0  0  0  0  0  0  0  0  0  0
    8.4626  -15.0020   23.3521 N   0  0  0  0  0  0  0  0  0  0  0  0
    9.3756  -15.9979   22.8147 C   0  0  1  0  0  0  0  0  0  0  0  0
    9.7244  -15.6946   21.3760 C   0  0  0  0  0  0  0  0  0  0  0  0
    8.8130  -16.3097   20.4188 C   0  0  0  0  0  0  0  0  0  0  0  0
    8.2563  -17.3947   20.6768 O   0  0  0  0  0  0  0  0  0  0  0  0
   10.6152  -16.0860   23.6304 C   0  0  0  0  0  0  0  0  0  0  0  0
   11.3693  -15.1057   23.8399 O   0  0  0  0  0  0  0  0  0  0  0  0
    8.5769  -15.6551   19.2037 O   0  0  0  0  0  0  0  0  0  0  0  0
   11.0323  -17.3176   24.2381 N   0  0  0  0  0  0  0  0  0  0  0  0
   12.1910  -17.4223   25.1138 C   0  0  1  0  0  0  0  0  0  0  0  0
   11.8713  -17.7719   26.5204 C   0  0  0  0  0  0  0  0  0  0  0  0
   10.6472  -18.5728   26.7637 C   0  0  0  0  0  0  0  0  0  0  0  0
   10.4216  -18.9858   28.1539 C   0  0  0  0  0  0  0  0  0  0  0  0
   11.3147  -18.8334   29.0081 O   0  0  0  0  0  0  0  0  0  0  0  0
   13.2402  -18.2619   24.4822 C   0  0  0  0  0  0  0  0  0  0  0  0
   14.4046  -18.3356   24.9631 O   0  0  0  0  0  0  0  0  0  0  0  0
    9.2178  -19.5452   28.5218 O   0  0  0  0  0  0  0  0  0  0  0  0
   12.9867  -19.0015   23.3368 O   0  0  0  0  0  0  0  0  0  0  0  0
  2  1  1  1
  3  2  1  0
  4  3  1  0
  5  7  1  0
  5  2  1  0
  6  5  2  0
  8  7  1  0
  8 12  1  0
  8  9  1  6
 10  9  1  0
 11 10  2  0
 12 15  1  0
 13 12  2  0
 14 10  1  0
 15 16  1  0
 16 21  1  0
 16 17  1  1
 18 17  1  0
 19 18  1  0
 20 19  2  0
 21 24  1  0
 22 21  2  0
 23 19  1  0
M  END
$$$$
