CDE.pdb
     RDKit          3D

 24 23  0  0  1  0  0  0  0  0999 V2000
    7.8846  -14.0580   17.9880 N   0  0  0  0  0  0  0  0  0  0  0  0
    9.0950  -13.3610   18.4039 C   0  0  1  0  0  0  0  0  0  0  0  0
    8.8633  -12.9545   19.8586 C   0  0  0  0  0  0  0  0  0  0  0  0
    7.1418  -12.5101   20.1471 S   0  0  0  0  0  0  0  0  0  0  0  0
   10.2111  -14.3397   18.3633 C   0  0  0  0  0  0  0  0  0  0  0  0
   10.3302  -15.1771   17.4074 O   0  0  0  0  0  0  0  0  0  0  0  0
   11.2185  -14.4255   19.3623 N   0  0  0  0  0  0  0  0  0  0  0  0
   12.4987  -15.0831   19.1554 C   0  0  1  0  0  0  0  0  0  0  0  0
   13.2068  -14.5239   17.9431 C   0  0  0  0  0  0  0  0  0  0  0  0
   14.5077  -15.1355   17.7010 C   0  0  0  0  0  0  0  0  0  0  0  0
   14.8405  -16.1797   18.2947 O   0  0  0  0  0  0  0  0  0  0  0  0
   13.3678  -14.9566   20.3547 C   0  0  0  0  0  0  0  0  0  0  0  0
   14.0497  -13.9333   20.6026 O   0  0  0  0  0  0  0  0  0  0  0  0
   15.3750  -14.5242   16.7872 O   0  0  0  0  0  0  0  0  0  0  0  0
   13.4821  -16.0142   21.3183 N   0  0  0  0  0  0  0  0  0  0  0  0
   14.2083  -15.8749   22.5728 C   0  0  1  0  0  0  0  0  0  0  0  0
   13.7173  -16.7460   23.6696 C   0  0  0  0  0  0  0  0  0  0  0  0
   12.2547  -16.7805   23.9115 C   0  0  0  0  0  0  0  0  0  0  0  0
   11.8078  -17.6703   24.9899 C   0  0  0  0  0  0  0  0  0  0  0  0
   11.9892  -17.3554   26.1808 O   0  0  0  0  0  0  0  0  0  0  0  0
   15.6719  -15.9367   22.3307 C   0  0  0  0  0  0  0  0  0  0  0  0
   16.1416  -16.2760   21.2096 O   0  0  0  0  0  0  0  0  0  0  0  0
   11.1837  -18.8609   24.6893 O   0  0  0  0  0  0  0  0  0  0  0  0
   16.5865  -15.6246   23.3254 O   0  0  0  0  0  0  0  0  0  0  0  0
  2  1  1  1
  3  2  1  0
  4  3  1  0
  5  7  1  0
  5  2  1  0
  6  5  2  0
  8  7  1  0
  8 12  1  0
  8  9  1  6
 10  9  1  0
 11 10  2  0
 12 15  1  0
 13 12  2  0
 14 10  1  0
 15 16  1  0
 16 21  1  0
 16 17  1  1
 18 17  1  0
 19 18  1  0
 20 19  2  0
 21 24  1  0
 22 21  2  0
 23 19  1  0
M  END
$$$$
