MLI.pdb
     RDKit          3D

 25 24  0  0  1  0  0  0  0  0999 V2000
    9.5682  -19.9711   16.8960 C   0  0  0  0  0  0  0  0  0  0  0  0
    9.6671  -21.2328   18.1834 S   0  0  0  0  0  0  0  0  0  0  0  0
    9.1025  -20.6235   19.7793 C   0  0  0  0  0  0  0  0  0  0  0  0
    9.6425  -19.2165   20.0590 C   0  0  0  0  0  0  0  0  0  0  0  0
    9.1570  -18.7896   21.4291 C   0  0  2  0  0  0  0  0  0  0  0  0
    7.7090  -18.8805   21.4144 N   0  0  0  0  0  0  0  0  0  0  0  0
    9.5293  -17.3983   21.7430 C   0  0  0  0  0  0  0  0  0  0  0  0
   10.7331  -17.0713   21.9103 O   0  0  0  0  0  0  0  0  0  0  0  0
    8.7772  -13.4998   19.2423 C   0  0  0  0  0  0  0  0  0  0  0  0
    7.6785  -14.0608   20.1085 C   0  0  2  0  0  0  0  0  0  0  0  0
    6.4379  -13.1912   19.8285 C   0  0  0  0  0  0  0  0  0  0  0  0
    7.9160  -14.0521   21.5647 C   0  0  0  0  0  0  0  0  0  0  0  0
    8.9278  -14.9805   22.1339 C   0  0  2  0  0  0  0  0  0  0  0  0
    8.5692  -16.3484   21.8757 N   0  0  0  0  0  0  0  0  0  0  0  0
    9.2336  -14.7278   23.5555 C   0  0  0  0  0  0  0  0  0  0  0  0
   10.0626  -13.8375   23.8737 O   0  0  0  0  0  0  0  0  0  0  0  0
    6.2034  -12.3927   26.4676 C   0  0  0  0  0  0  0  0  0  0  0  0
    7.3541  -13.1293   25.8502 C   0  0  0  0  0  0  0  0  0  0  0  0
    7.8958  -14.2632   26.6341 C   0  0  2  0  0  0  0  0  0  0  0  0
    8.3511  -13.6939   27.9837 C   0  0  0  0  0  0  0  0  0  0  0  0
    8.9370  -15.1058   26.0043 C   0  0  2  0  0  0  0  0  0  0  0  0
    8.6337  -15.4475   24.6206 N   0  0  0  0  0  0  0  0  0  0  0  0
    9.2826  -16.3489   26.7153 C   0  0  0  0  0  0  0  0  0  0  0  0
    8.8090  -17.4378   26.3114 O   0  0  0  0  0  0  0  0  0  0  0  0
   10.1141  -16.4004   27.8236 O   0  0  0  0  0  0  0  0  0  0  0  0
  2  1  1  0
  2  3  1  0
  4  3  1  0
  4  5  1  0
  5  7  1  0
  5  6  1  6
  7  8  2  0
 10  9  1  6
 10 12  1  0
 11 10  1  0
 13 12  1  1
 13 14  1  0
 14  7  1  0
 15 13  1  0
 16 15  2  0
 18 17  1  0
 18 19  1  0
 19 21  1  0
 19 20  1  1
 21 23  1  0
 21 22  1  6
 22 15  1  0
 23 25  1  0
 24 23  2  0
M  END
$$$$
