MLI.pdb
     RDKit          3D

 25 24  0  0  1  0  0  0  0  0999 V2000
    8.4811  -21.4972   26.5679 C   0  0  0  0  0  0  0  0  0  0  0  0
    8.4825  -21.8798   24.8036 S   0  0  0  0  0  0  0  0  0  0  0  0
    7.6169  -20.6344   23.8357 C   0  0  0  0  0  0  0  0  0  0  0  0
    6.7800  -19.7164   24.7335 C   0  0  0  0  0  0  0  0  0  0  0  0
    6.1320  -18.6641   23.8572 C   0  0  2  0  0  0  0  0  0  0  0  0
    6.1575  -19.1689   22.4971 N   0  0  0  0  0  0  0  0  0  0  0  0
    6.8644  -17.3852   23.8891 C   0  0  0  0  0  0  0  0  0  0  0  0
    7.8331  -17.1734   23.1140 O   0  0  0  0  0  0  0  0  0  0  0  0
    6.4229  -11.8120   26.7925 C   0  0  0  0  0  0  0  0  0  0  0  0
    7.1865  -12.7775   25.9225 C   0  0  2  0  0  0  0  0  0  0  0  0
    7.3807  -12.0621   24.5719 C   0  0  0  0  0  0  0  0  0  0  0  0
    6.5423  -14.0777   25.6557 C   0  0  0  0  0  0  0  0  0  0  0  0
    7.2808  -15.0978   24.8660 C   0  0  2  0  0  0  0  0  0  0  0  0
    6.5312  -16.3215   24.7832 N   0  0  0  0  0  0  0  0  0  0  0  0
    8.6704  -15.3074   25.3170 C   0  0  0  0  0  0  0  0  0  0  0  0
    9.5960  -14.5868   24.8642 O   0  0  0  0  0  0  0  0  0  0  0  0
    9.9858  -14.3072   30.1605 C   0  0  0  0  0  0  0  0  0  0  0  0
    9.7199  -15.3418   29.1083 C   0  0  0  0  0  0  0  0  0  0  0  0
   10.5442  -15.2478   27.8813 C   0  0  2  0  0  0  0  0  0  0  0  0
   10.3369  -13.8383   27.3129 C   0  0  0  0  0  0  0  0  0  0  0  0
   10.3732  -16.2959   26.8503 C   0  0  2  0  0  0  0  0  0  0  0  0
    9.0417  -16.3014   26.2585 N   0  0  0  0  0  0  0  0  0  0  0  0
   10.6927  -17.6726   27.2661 C   0  0  0  0  0  0  0  0  0  0  0  0
   11.8237  -17.9201   27.7485 O   0  0  0  0  0  0  0  0  0  0  0  0
    9.8106  -18.7370   27.1600 O   0  0  0  0  0  0  0  0  0  0  0  0
  2  1  1  0
  2  3  1  0
  4  3  1  0
  4  5  1  0
  5  7  1  0
  5  6  1  6
  7  8  2  0
 10  9  1  1
 10 12  1  0
 11 10  1  0
 13 12  1  1
 13 14  1  0
 14  7  1  0
 15 13  1  0
 16 15  2  0
 18 17  1  0
 18 19  1  0
 19 21  1  0
 19 20  1  6
 21 23  1  0
 21 22  1  1
 22 15  1  0
 23 25  1  0
 24 23  2  0
M  END
$$$$
