MLI.pdb
     RDKit          3D

 25 24  0  0  1  0  0  0  0  0999 V2000
    4.2016  -21.1695   24.1129 C   0  0  0  0  0  0  0  0  0  0  0  0
    5.3600  -19.8119   24.3853 S   0  0  0  0  0  0  0  0  0  0  0  0
    7.0742  -20.3515   24.2995 C   0  0  0  0  0  0  0  0  0  0  0  0
    7.7147  -19.9556   22.9645 C   0  0  0  0  0  0  0  0  0  0  0  0
    7.0364  -18.6933   22.4729 C   0  0  2  0  0  0  0  0  0  0  0  0
    6.5355  -18.9713   21.1398 N   0  0  0  0  0  0  0  0  0  0  0  0
    7.9707  -17.5564   22.3875 C   0  0  0  0  0  0  0  0  0  0  0  0
    9.2125  -17.7279   22.4999 O   0  0  0  0  0  0  0  0  0  0  0  0
    8.5821  -14.2000   19.0154 C   0  0  0  0  0  0  0  0  0  0  0  0
    7.4529  -14.1099   20.0098 C   0  0  2  0  0  0  0  0  0  0  0  0
    6.6250  -12.8788   19.5943 C   0  0  0  0  0  0  0  0  0  0  0  0
    7.8317  -13.9417   21.4258 C   0  0  0  0  0  0  0  0  0  0  0  0
    8.4388  -15.0898   22.1491 C   0  0  2  0  0  0  0  0  0  0  0  0
    7.5393  -16.2107   22.1757 N   0  0  0  0  0  0  0  0  0  0  0  0
    8.9595  -14.7423   23.4856 C   0  0  0  0  0  0  0  0  0  0  0  0
   10.0203  -14.0760   23.5956 O   0  0  0  0  0  0  0  0  0  0  0  0
    5.8562  -12.4471   27.2393 C   0  0  0  0  0  0  0  0  0  0  0  0
    6.5721  -13.5980   26.5984 C   0  0  0  0  0  0  0  0  0  0  0  0
    8.0410  -13.4588   26.4687 C   0  0  2  0  0  0  0  0  0  0  0  0
    8.2963  -12.2012   25.6285 C   0  0  0  0  0  0  0  0  0  0  0  0
    8.8060  -14.6252   25.9737 C   0  0  2  0  0  0  0  0  0  0  0  0
    8.3206  -15.1236   24.6934 N   0  0  0  0  0  0  0  0  0  0  0  0
    8.9140  -15.7686   26.8964 C   0  0  0  0  0  0  0  0  0  0  0  0
    8.4430  -16.8793   26.5535 O   0  0  0  0  0  0  0  0  0  0  0  0
    9.5141  -15.7013   28.1444 O   0  0  0  0  0  0  0  0  0  0  0  0
  2  1  1  0
  2  3  1  0
  4  3  1  0
  4  5  1  0
  5  7  1  0
  5  6  1  6
  7  8  2  0
 10  9  1  6
 10 12  1  0
 11 10  1  0
 13 12  1  1
 13 14  1  0
 14  7  1  0
 15 13  1  0
 16 15  2  0
 18 17  1  0
 18 19  1  0
 19 21  1  0
 19 20  1  6
 21 23  1  0
 21 22  1  6
 22 15  1  0
 23 25  1  0
 24 23  2  0
M  END
$$$$
