MLI.pdb
     RDKit          3D

 25 24  0  0  1  0  0  0  0  0999 V2000
   10.6094  -21.0874   22.3335 C   0  0  0  0  0  0  0  0  0  0  0  0
    9.3378  -20.8164   21.0809 S   0  0  0  0  0  0  0  0  0  0  0  0
    9.5077  -19.2182   20.2723 C   0  0  0  0  0  0  0  0  0  0  0  0
   10.1413  -18.1856   21.2112 C   0  0  0  0  0  0  0  0  0  0  0  0
    9.5295  -16.8336   20.9059 C   0  0  2  0  0  0  0  0  0  0  0  0
   10.3491  -16.2183   19.8788 N   0  0  0  0  0  0  0  0  0  0  0  0
    9.5220  -15.9473   22.0836 C   0  0  0  0  0  0  0  0  0  0  0  0
   10.5735  -15.3741   22.4704 O   0  0  0  0  0  0  0  0  0  0  0  0
    5.4401  -13.3346   26.0846 C   0  0  0  0  0  0  0  0  0  0  0  0
    6.8506  -13.6223   25.6377 C   0  0  2  0  0  0  0  0  0  0  0  0
    7.4603  -12.2568   25.2674 C   0  0  0  0  0  0  0  0  0  0  0  0
    7.0054  -14.5160   24.4739 C   0  0  0  0  0  0  0  0  0  0  0  0
    8.3643  -14.9986   24.1134 C   0  0  2  0  0  0  0  0  0  0  0  0
    8.3450  -15.6840   22.8500 N   0  0  0  0  0  0  0  0  0  0  0  0
    9.0194  -15.7816   25.1792 C   0  0  0  0  0  0  0  0  0  0  0  0
    9.2687  -17.0014   25.0032 O   0  0  0  0  0  0  0  0  0  0  0  0
   10.4642  -13.0445   29.8101 C   0  0  0  0  0  0  0  0  0  0  0  0
   10.8111  -13.8085   28.5676 C   0  0  0  0  0  0  0  0  0  0  0  0
   10.5339  -15.2631   28.6002 C   0  0  2  0  0  0  0  0  0  0  0  0
   11.6617  -15.9129   29.4118 C   0  0  0  0  0  0  0  0  0  0  0  0
   10.3051  -15.9535   27.3111 C   0  0  2  0  0  0  0  0  0  0  0  0
    9.3981  -15.2296   26.4299 N   0  0  0  0  0  0  0  0  0  0  0  0
    9.8403  -17.3488   27.3967 C   0  0  0  0  0  0  0  0  0  0  0  0
    8.6149  -17.5793   27.5325 O   0  0  0  0  0  0  0  0  0  0  0  0
   10.6814  -18.4494   27.3351 O   0  0  0  0  0  0  0  0  0  0  0  0
  2  1  1  0
  2  3  1  0
  4  3  1  0
  4  5  1  0
  5  7  1  0
  5  6  1  6
  7  8  2  0
 10  9  1  6
 10 12  1  0
 11 10  1  0
 13 12  1  1
 13 14  1  0
 14  7  1  0
 15 13  1  0
 16 15  2  0
 18 17  1  0
 18 19  1  0
 19 21  1  0
 19 20  1  6
 21 23  1  0
 21 22  1  6
 22 15  1  0
 23 25  1  0
 24 23  2  0
M  END
$$$$
