MLI.pdb
     RDKit          3D

 25 24  0  0  1  0  0  0  0  0999 V2000
    7.9812  -14.9195   17.3924 C   0  0  0  0  0  0  0  0  0  0  0  0
    7.4296  -16.6354   17.4967 S   0  0  0  0  0  0  0  0  0  0  0  0
    7.6377  -17.3188   19.1479 C   0  0  0  0  0  0  0  0  0  0  0  0
    8.5759  -16.4507   19.9938 C   0  0  0  0  0  0  0  0  0  0  0  0
    8.7233  -17.1032   21.3531 C   0  0  2  0  0  0  0  0  0  0  0  0
    7.3883  -17.4436   21.8083 N   0  0  0  0  0  0  0  0  0  0  0  0
    9.3316  -16.1960   22.3430 C   0  0  0  0  0  0  0  0  0  0  0  0
   10.5604  -15.9265   22.3063 O   0  0  0  0  0  0  0  0  0  0  0  0
    6.9916  -12.5037   23.2098 C   0  0  0  0  0  0  0  0  0  0  0  0
    6.8611  -13.5330   24.3033 C   0  0  2  0  0  0  0  0  0  0  0  0
    5.8657  -12.9417   25.3197 C   0  0  0  0  0  0  0  0  0  0  0  0
    8.0955  -13.8827   25.0319 C   0  0  0  0  0  0  0  0  0  0  0  0
    9.1574  -14.6446   24.3236 C   0  0  2  0  0  0  0  0  0  0  0  0
    8.5832  -15.5739   23.3893 N   0  0  0  0  0  0  0  0  0  0  0  0
   10.1400  -15.2747   25.2268 C   0  0  0  0  0  0  0  0  0  0  0  0
   11.3125  -14.8257   25.2950 O   0  0  0  0  0  0  0  0  0  0  0  0
    9.5475  -13.9959   29.7207 C   0  0  0  0  0  0  0  0  0  0  0  0
   10.1700  -14.5946   28.4951 C   0  0  0  0  0  0  0  0  0  0  0  0
   10.2204  -16.0741   28.4482 C   0  0  2  0  0  0  0  0  0  0  0  0
   11.0392  -16.5301   29.6624 C   0  0  0  0  0  0  0  0  0  0  0  0
   10.6799  -16.7119   27.1941 C   0  0  2  0  0  0  0  0  0  0  0  0
    9.8379  -16.3903   26.0493 N   0  0  0  0  0  0  0  0  0  0  0  0
   10.8526  -18.1744   27.2361 C   0  0  0  0  0  0  0  0  0  0  0  0
    9.9302  -18.9127   26.8151 O   0  0  0  0  0  0  0  0  0  0  0  0
   11.9891  -18.8054   27.7182 O   0  0  0  0  0  0  0  0  0  0  0  0
  2  1  1  0
  2  3  1  0
  4  3  1  0
  4  5  1  0
  5  7  1  0
  5  6  1  1
  7  8  2  0
 10  9  1  6
 10 12  1  0
 11 10  1  0
 13 12  1  1
 13 14  1  0
 14  7  1  0
 15 13  1  0
 16 15  2  0
 18 17  1  0
 18 19  1  0
 19 21  1  0
 19 20  1  1
 21 23  1  0
 21 22  1  6
 22 15  1  0
 23 25  1  0
 24 23  2  0
M  END
$$$$
