MLI.pdb
     RDKit          3D

 25 24  0  0  1  0  0  0  0  0999 V2000
    2.2794  -19.4703   21.3246 C   0  0  0  0  0  0  0  0  0  0  0  0
    3.7182  -19.0322   20.3260 S   0  0  0  0  0  0  0  0  0  0  0  0
    5.2066  -18.8476   21.3198 C   0  0  0  0  0  0  0  0  0  0  0  0
    4.8649  -18.4821   22.7686 C   0  0  0  0  0  0  0  0  0  0  0  0
    6.1519  -18.4724   23.5678 C   0  0  2  0  0  0  0  0  0  0  0  0
    5.7813  -18.4766   24.9706 N   0  0  0  0  0  0  0  0  0  0  0  0
    6.9599  -17.2675   23.3071 C   0  0  0  0  0  0  0  0  0  0  0  0
    7.7644  -17.2230   22.3402 O   0  0  0  0  0  0  0  0  0  0  0  0
    5.5780  -13.2930   26.1732 C   0  0  0  0  0  0  0  0  0  0  0  0
    6.9473  -13.1656   25.5559 C   0  0  2  0  0  0  0  0  0  0  0  0
    7.2496  -11.6555   25.5134 C   0  0  0  0  0  0  0  0  0  0  0  0
    7.1073  -13.6964   24.1886 C   0  0  0  0  0  0  0  0  0  0  0  0
    7.8061  -14.9945   23.9982 C   0  0  2  0  0  0  0  0  0  0  0  0
    6.8863  -16.0926   24.1172 N   0  0  0  0  0  0  0  0  0  0  0  0
    9.0026  -15.1558   24.8472 C   0  0  0  0  0  0  0  0  0  0  0  0
   10.0043  -14.4161   24.6725 O   0  0  0  0  0  0  0  0  0  0  0  0
    9.1987  -13.7495   29.5855 C   0  0  0  0  0  0  0  0  0  0  0  0
    9.5933  -14.2099   28.2143 C   0  0  0  0  0  0  0  0  0  0  0  0
   10.0116  -15.6260   28.0993 C   0  0  2  0  0  0  0  0  0  0  0  0
   11.2121  -15.8128   29.0357 C   0  0  0  0  0  0  0  0  0  0  0  0
   10.2715  -16.1636   26.7450 C   0  0  2  0  0  0  0  0  0  0  0  0
    9.0991  -16.1226   25.8808 N   0  0  0  0  0  0  0  0  0  0  0  0
   10.8348  -17.5235   26.6844 C   0  0  0  0  0  0  0  0  0  0  0  0
   11.9689  -17.7394   27.1749 O   0  0  0  0  0  0  0  0  0  0  0  0
   10.1842  -18.6054   26.1114 O   0  0  0  0  0  0  0  0  0  0  0  0
  2  1  1  0
  2  3  1  0
  4  3  1  0
  4  5  1  0
  5  7  1  0
  5  6  1  1
  7  8  2  0
 10  9  1  6
 10 12  1  0
 11 10  1  0
 13 12  1  1
 13 14  1  0
 14  7  1  0
 15 13  1  0
 16 15  2  0
 18 17  1  0
 18 19  1  0
 19 21  1  0
 19 20  1  1
 21 23  1  0
 21 22  1  6
 22 15  1  0
 23 25  1  0
 24 23  2  0
M  END
$$$$
