MLI.pdb
     RDKit          3D

 25 24  0  0  1  0  0  0  0  0999 V2000
   12.8033  -17.4400   16.4601 C   0  0  0  0  0  0  0  0  0  0  0  0
   13.0063  -19.0507   17.2498 S   0  0  0  0  0  0  0  0  0  0  0  0
   12.0253  -19.2023   18.7503 C   0  0  0  0  0  0  0  0  0  0  0  0
   11.8375  -17.8417   19.4306 C   0  0  0  0  0  0  0  0  0  0  0  0
   11.0758  -18.0619   20.7215 C   0  0  2  0  0  0  0  0  0  0  0  0
    9.8923  -18.8333   20.3906 N   0  0  0  0  0  0  0  0  0  0  0  0
   10.6437  -16.7936   21.3361 C   0  0  0  0  0  0  0  0  0  0  0  0
   11.4838  -15.9746   21.7916 O   0  0  0  0  0  0  0  0  0  0  0  0
    8.6403  -12.9087   19.6962 C   0  0  0  0  0  0  0  0  0  0  0  0
    7.7942  -14.1445   19.8665 C   0  0  2  0  0  0  0  0  0  0  0  0
    6.3938  -13.7695   19.3452 C   0  0  0  0  0  0  0  0  0  0  0  0
    7.6415  -14.6560   21.2420 C   0  0  0  0  0  0  0  0  0  0  0  0
    8.8451  -15.1420   21.9664 C   0  0  2  0  0  0  0  0  0  0  0  0
    9.2707  -16.4158   21.4539 N   0  0  0  0  0  0  0  0  0  0  0  0
    8.6979  -15.1364   23.4349 C   0  0  0  0  0  0  0  0  0  0  0  0
    8.0662  -16.0597   24.0090 O   0  0  0  0  0  0  0  0  0  0  0  0
    6.5407  -11.2059   27.1619 C   0  0  0  0  0  0  0  0  0  0  0  0
    7.3761  -12.4501   27.1163 C   0  0  0  0  0  0  0  0  0  0  0  0
    7.6738  -12.9841   25.7672 C   0  0  2  0  0  0  0  0  0  0  0  0
    6.3523  -13.5149   25.1972 C   0  0  0  0  0  0  0  0  0  0  0  0
    8.7720  -13.9680   25.6387 C   0  0  2  0  0  0  0  0  0  0  0  0
    9.2400  -14.1240   24.2677 N   0  0  0  0  0  0  0  0  0  0  0  0
    8.5071  -15.3102   26.1852 C   0  0  0  0  0  0  0  0  0  0  0  0
    7.8271  -16.1222   25.5132 O   0  0  0  0  0  0  0  0  0  0  0  0
    8.9679  -15.7485   27.4172 O   0  0  0  0  0  0  0  0  0  0  0  0
  2  1  1  0
  2  3  1  0
  4  3  1  0
  4  5  1  0
  5  7  1  0
  5  6  1  6
  7  8  2  0
 10  9  1  1
 10 12  1  0
 11 10  1  0
 13 12  1  6
 13 14  1  0
 14  7  1  0
 15 13  1  0
 16 15  2  0
 18 17  1  0
 18 19  1  0
 19 21  1  0
 19 20  1  1
 21 23  1  0
 21 22  1  6
 22 15  1  0
 23 25  1  0
 24 23  2  0
M  END
$$$$
