MLI.pdb
     RDKit          3D

 25 24  0  0  1  0  0  0  0  0999 V2000
    6.3460  -20.6884   22.4224 C   0  0  0  0  0  0  0  0  0  0  0  0
    7.1808  -20.4630   20.8376 S   0  0  0  0  0  0  0  0  0  0  0  0
    7.3632  -18.7263   20.4046 C   0  0  0  0  0  0  0  0  0  0  0  0
    8.3349  -18.0166   21.3541 C   0  0  0  0  0  0  0  0  0  0  0  0
    8.0971  -16.5245   21.2422 C   0  0  2  0  0  0  0  0  0  0  0  0
    8.9149  -16.0449   20.1439 N   0  0  0  0  0  0  0  0  0  0  0  0
    8.4965  -15.8041   22.4646 C   0  0  0  0  0  0  0  0  0  0  0  0
    9.6775  -15.3986   22.6215 O   0  0  0  0  0  0  0  0  0  0  0  0
    7.3082  -11.8553   24.8585 C   0  0  0  0  0  0  0  0  0  0  0  0
    6.3521  -13.0202   24.8920 C   0  0  2  0  0  0  0  0  0  0  0  0
    5.1623  -12.5618   25.7568 C   0  0  0  0  0  0  0  0  0  0  0  0
    6.8658  -14.2800   25.4628 C   0  0  0  0  0  0  0  0  0  0  0  0
    8.0014  -14.9639   24.7904 C   0  0  2  0  0  0  0  0  0  0  0  0
    7.5890  -15.5229   23.5319 N   0  0  0  0  0  0  0  0  0  0  0  0
    8.6999  -15.9404   25.6487 C   0  0  0  0  0  0  0  0  0  0  0  0
    8.9038  -17.1106   25.2361 O   0  0  0  0  0  0  0  0  0  0  0  0
   10.8200  -13.5072   29.9340 C   0  0  0  0  0  0  0  0  0  0  0  0
   11.0858  -14.2599   28.6648 C   0  0  0  0  0  0  0  0  0  0  0  0
   10.8652  -15.7235   28.7188 C   0  0  2  0  0  0  0  0  0  0  0  0
   12.1972  -16.3593   29.1363 C   0  0  0  0  0  0  0  0  0  0  0  0
   10.2828  -16.3804   27.5271 C   0  0  2  0  0  0  0  0  0  0  0  0
    9.1712  -15.6348   26.9514 N   0  0  0  0  0  0  0  0  0  0  0  0
    9.8514  -17.7780   27.7032 C   0  0  0  0  0  0  0  0  0  0  0  0
    8.6903  -18.0136   28.1152 O   0  0  0  0  0  0  0  0  0  0  0  0
   10.6565  -18.8752   27.4385 O   0  0  0  0  0  0  0  0  0  0  0  0
  2  1  1  0
  2  3  1  0
  4  3  1  0
  4  5  1  0
  5  7  1  0
  5  6  1  6
  7  8  2  0
 10  9  1  1
 10 12  1  0
 11 10  1  0
 13 12  1  1
 13 14  1  0
 14  7  1  0
 15 13  1  0
 16 15  2  0
 18 17  1  0
 18 19  1  0
 19 21  1  0
 19 20  1  6
 21 23  1  0
 21 22  1  1
 22 15  1  0
 23 25  1  0
 24 23  2  0
M  END
$$$$
