MLI.pdb
     RDKit          3D

 25 24  0  0  1  0  0  0  0  0999 V2000
   10.3908  -19.9355   24.7022 C   0  0  0  0  0  0  0  0  0  0  0  0
   10.9027  -20.8539   23.2347 S   0  0  0  0  0  0  0  0  0  0  0  0
   11.0300  -19.8005   21.7817 C   0  0  0  0  0  0  0  0  0  0  0  0
   11.9103  -18.5767   22.0587 C   0  0  0  0  0  0  0  0  0  0  0  0
   11.5498  -17.5006   21.0551 C   0  0  2  0  0  0  0  0  0  0  0  0
   12.7954  -16.9847   20.5190 N   0  0  0  0  0  0  0  0  0  0  0  0
   10.8164  -16.3832   21.6766 C   0  0  0  0  0  0  0  0  0  0  0  0
   11.4076  -15.5464   22.4076 O   0  0  0  0  0  0  0  0  0  0  0  0
    8.2431  -12.7936   19.7899 C   0  0  0  0  0  0  0  0  0  0  0  0
    7.6976  -14.1952   19.8896 C   0  0  2  0  0  0  0  0  0  0  0  0
    6.3221  -14.1605   19.1964 C   0  0  0  0  0  0  0  0  0  0  0  0
    7.5039  -14.7333   21.2496 C   0  0  0  0  0  0  0  0  0  0  0  0
    8.6990  -15.0699   22.0669 C   0  0  2  0  0  0  0  0  0  0  0  0
    9.4139  -16.1782   21.4953 N   0  0  0  0  0  0  0  0  0  0  0  0
    8.4051  -15.2571   23.5011 C   0  0  0  0  0  0  0  0  0  0  0  0
    8.7892  -16.2979   24.0930 O   0  0  0  0  0  0  0  0  0  0  0  0
    6.5307  -10.8456   26.1892 C   0  0  0  0  0  0  0  0  0  0  0  0
    7.4925  -11.9922   26.0981 C   0  0  0  0  0  0  0  0  0  0  0  0
    6.9363  -13.3323   26.3955 C   0  0  2  0  0  0  0  0  0  0  0  0
    6.9374  -13.4859   27.9216 C   0  0  0  0  0  0  0  0  0  0  0  0
    7.5424  -14.4998   25.7168 C   0  0  2  0  0  0  0  0  0  0  0  0
    7.6941  -14.3086   24.2803 N   0  0  0  0  0  0  0  0  0  0  0  0
    6.8759  -15.7951   25.9362 C   0  0  0  0  0  0  0  0  0  0  0  0
    5.9441  -16.1421   25.1716 O   0  0  0  0  0  0  0  0  0  0  0  0
    7.2149  -16.6774   26.9506 O   0  0  0  0  0  0  0  0  0  0  0  0
  2  1  1  0
  2  3  1  0
  4  3  1  0
  4  5  1  0
  5  7  1  0
  5  6  1  1
  7  8  2  0
 10  9  1  1
 10 12  1  0
 11 10  1  0
 13 12  1  6
 13 14  1  0
 14  7  1  0
 15 13  1  0
 16 15  2  0
 18 17  1  0
 18 19  1  0
 19 21  1  0
 19 20  1  1
 21 23  1  0
 21 22  1  6
 22 15  1  0
 23 25  1  0
 24 23  2  0
M  END
$$$$
