CLN.pdb
     RDKit          3D

 23 22  0  0  1  0  0  0  0  0999 V2000
   24.0154  -10.9157  -20.8805 N   0  0  0  0  0  0  0  0  0  0  0  0
   23.8846   -9.7127  -20.0866 C   0  0  1  0  0  0  0  0  0  0  0  0
   22.7319   -8.8819  -20.6070 C   0  0  0  0  0  0  0  0  0  0  0  0
   22.6732   -7.3088  -19.7165 S   0  0  0  0  0  0  0  0  0  0  0  0
   23.7254  -10.0349  -18.6593 C   0  0  0  0  0  0  0  0  0  0  0  0
   22.9541  -10.9725  -18.3289 O   0  0  0  0  0  0  0  0  0  0  0  0
   26.0144  -12.2135  -16.1392 C   0  0  0  0  0  0  0  0  0  0  0  0
   26.5383  -10.7926  -16.4496 C   0  0  2  0  0  0  0  0  0  0  0  0
   27.9641  -10.7827  -15.9973 C   0  0  0  0  0  0  0  0  0  0  0  0
   25.6340   -9.8778  -15.7276 C   0  0  0  0  0  0  0  0  0  0  0  0
   24.2324   -9.7357  -16.2242 C   0  0  2  0  0  0  0  0  0  0  0  0
   24.3967   -9.3420  -17.6449 N   0  0  0  0  0  0  0  0  0  0  0  0
   23.4223   -8.6891  -15.5891 C   0  0  0  0  0  0  0  0  0  0  0  0
   23.0593   -8.8183  -14.3988 O   0  0  0  0  0  0  0  0  0  0  0  0
   20.9426   -4.1837  -14.6822 N   0  0  0  0  0  0  0  0  0  0  0  0
   22.3240   -4.0752  -14.9780 C   0  0  0  0  0  0  0  0  0  0  0  0
   22.9120   -3.0044  -14.7082 O   0  0  0  0  0  0  0  0  0  0  0  0
   23.0231   -5.2119  -15.5877 C   0  0  0  0  0  0  0  0  0  0  0  0
   22.2202   -6.4737  -15.6778 C   0  0  2  0  0  0  0  0  0  0  0  0
   23.0317   -7.5189  -16.2837 N   0  0  0  0  0  0  0  0  0  0  0  0
   21.0104   -6.1834  -16.4594 C   0  0  0  0  0  0  0  0  0  0  0  0
   20.7853   -6.8098  -17.5099 O   0  0  0  0  0  0  0  0  0  0  0  0
   20.1286   -5.2213  -16.0305 O   0  0  0  0  0  0  0  0  0  0  0  0
  2  1  1  6
  2  3  1  0
  4  3  1  0
  5  2  1  0
  6  5  2  0
  8  7  1  1
  8 10  1  0
  9  8  1  0
 11 10  1  1
 11 12  1  0
 12  5  1  0
 13 11  1  0
 13 20  1  0
 14 13  2  0
 15 16  1  0
 16 17  2  0
 19 18  1  6
 18 16  1  0
 19 20  1  0
 19 21  1  0
 21 23  1  0
 22 21  2  0
M  END
$$$$
