CLN.pdb
     RDKit          3D

 23 22  0  0  1  0  0  0  0  0999 V2000
   19.0712  -14.1982  -17.9605 N   0  0  0  0  0  0  0  0  0  0  0  0
   19.2000  -12.8257  -18.4013 C   0  0  1  0  0  0  0  0  0  0  0  0
   17.8695  -12.3327  -18.9272 C   0  0  0  0  0  0  0  0  0  0  0  0
   17.3882  -13.3181  -20.3655 S   0  0  0  0  0  0  0  0  0  0  0  0
   19.7118  -11.9683  -17.3201 C   0  0  0  0  0  0  0  0  0  0  0  0
   19.1999  -12.0616  -16.1744 O   0  0  0  0  0  0  0  0  0  0  0  0
   22.5829  -11.3504  -14.0544 C   0  0  0  0  0  0  0  0  0  0  0  0
   23.0564  -11.6078  -15.5032 C   0  0  2  0  0  0  0  0  0  0  0  0
   24.5331  -11.8276  -15.4100 C   0  0  0  0  0  0  0  0  0  0  0  0
   22.6358  -10.4184  -16.2675 C   0  0  0  0  0  0  0  0  0  0  0  0
   21.1728  -10.1505  -16.4048 C   0  0  2  0  0  0  0  0  0  0  0  0
   20.7491  -11.0470  -17.5080 N   0  0  0  0  0  0  0  0  0  0  0  0
   20.7973   -8.7882  -16.8028 C   0  0  0  0  0  0  0  0  0  0  0  0
   21.2215   -8.3147  -17.8804 O   0  0  0  0  0  0  0  0  0  0  0  0
   16.7117   -4.3684  -15.3312 N   0  0  0  0  0  0  0  0  0  0  0  0
   17.9078   -4.8383  -15.9282 C   0  0  0  0  0  0  0  0  0  0  0  0
   18.5664   -4.0543  -16.6470 O   0  0  0  0  0  0  0  0  0  0  0  0
   18.3389   -6.2203  -15.6900 C   0  0  0  0  0  0  0  0  0  0  0  0
   19.6368   -6.5983  -16.3359 C   0  0  2  0  0  0  0  0  0  0  0  0
   19.9580   -7.9777  -16.0011 N   0  0  0  0  0  0  0  0  0  0  0  0
   20.6639   -5.6574  -15.8683 C   0  0  0  0  0  0  0  0  0  0  0  0
   21.2958   -5.8971  -14.8245 O   0  0  0  0  0  0  0  0  0  0  0  0
   20.9260   -4.5139  -16.5832 O   0  0  0  0  0  0  0  0  0  0  0  0
  2  1  1  1
  2  3  1  0
  4  3  1  0
  5  2  1  0
  6  5  2  0
  8  7  1  1
  8 10  1  0
  9  8  1  0
 11 10  1  6
 11 12  1  0
 12  5  1  0
 13 11  1  0
 13 20  1  0
 14 13  2  0
 15 16  1  0
 16 17  2  0
 19 18  1  1
 18 16  1  0
 19 20  1  0
 19 21  1  0
 21 23  1  0
 22 21  2  0
M  END
$$$$
