CLN.pdb
     RDKit          3D

 23 22  0  0  1  0  0  0  0  0999 V2000
   23.0958  -14.3693  -18.2170 N   0  0  0  0  0  0  0  0  0  0  0  0
   23.1836  -13.0334  -18.7669 C   0  0  1  0  0  0  0  0  0  0  0  0
   21.9291  -12.7233  -19.5543 C   0  0  0  0  0  0  0  0  0  0  0  0
   21.8264  -13.8282  -20.9827 S   0  0  0  0  0  0  0  0  0  0  0  0
   23.4236  -12.0398  -17.7080 C   0  0  0  0  0  0  0  0  0  0  0  0
   22.6358  -11.9913  -16.7280 O   0  0  0  0  0  0  0  0  0  0  0  0
   26.7757  -11.3599  -14.9248 C   0  0  0  0  0  0  0  0  0  0  0  0
   27.0273  -10.9650  -16.3980 C   0  0  2  0  0  0  0  0  0  0  0  0
   28.4873  -10.6513  -16.4859 C   0  0  0  0  0  0  0  0  0  0  0  0
   26.1155   -9.8353  -16.6595 C   0  0  0  0  0  0  0  0  0  0  0  0
   24.6470  -10.1071  -16.6858 C   0  0  2  0  0  0  0  0  0  0  0  0
   24.4952  -11.1395  -17.7402 N   0  0  0  0  0  0  0  0  0  0  0  0
   23.7861   -8.9824  -17.0721 C   0  0  0  0  0  0  0  0  0  0  0  0
   23.6372   -8.6984  -18.2814 O   0  0  0  0  0  0  0  0  0  0  0  0
   19.8451   -6.3053  -18.9028 N   0  0  0  0  0  0  0  0  0  0  0  0
   19.9800   -6.7036  -17.5497 C   0  0  0  0  0  0  0  0  0  0  0  0
   19.2110   -6.2037  -16.6988 O   0  0  0  0  0  0  0  0  0  0  0  0
   21.0093   -7.6834  -17.1848 C   0  0  0  0  0  0  0  0  0  0  0  0
   22.1994   -7.1155  -16.4737 C   0  0  2  0  0  0  0  0  0  0  0  0
   23.1053   -8.1957  -16.1120 N   0  0  0  0  0  0  0  0  0  0  0  0
   21.7135   -6.3784  -15.2993 C   0  0  0  0  0  0  0  0  0  0  0  0
   21.8317   -6.8723  -14.1642 O   0  0  0  0  0  0  0  0  0  0  0  0
   21.1293   -5.1447  -15.4546 O   0  0  0  0  0  0  0  0  0  0  0  0
  2  1  1  1
  2  3  1  0
  4  3  1  0
  5  2  1  0
  6  5  2  0
  8  7  1  1
  8 10  1  0
  9  8  1  0
 11 10  1  6
 11 12  1  0
 12  5  1  0
 13 11  1  0
 13 20  1  0
 14 13  2  0
 15 16  1  0
 16 17  2  0
 19 18  1  1
 18 16  1  0
 19 20  1  0
 19 21  1  0
 21 23  1  0
 22 21  2  0
M  END
$$$$
