CLN.pdb
     RDKit          3D

 23 22  0  0  1  0  0  0  0  0999 V2000
   34.0938  -30.4273  -17.9402 N   0  0  0  0  0  0  0  0  0  0  0  0
   34.3875  -29.0587  -18.3080 C   0  0  1  0  0  0  0  0  0  0  0  0
   34.2322  -28.8887  -19.8036 C   0  0  0  0  0  0  0  0  0  0  0  0
   35.3918  -29.9829  -20.6575 S   0  0  0  0  0  0  0  0  0  0  0  0
   33.5401  -28.1161  -17.5600 C   0  0  0  0  0  0  0  0  0  0  0  0
   32.3787  -28.4706  -17.2302 O   0  0  0  0  0  0  0  0  0  0  0  0
   34.0573  -26.3588  -13.5848 C   0  0  0  0  0  0  0  0  0  0  0  0
   34.9748  -25.7523  -14.6711 C   0  0  2  0  0  0  0  0  0  0  0  0
   35.9133  -24.8436  -13.9425 C   0  0  0  0  0  0  0  0  0  0  0  0
   34.0642  -25.0948  -15.6273 C   0  0  0  0  0  0  0  0  0  0  0  0
   33.0993  -25.9491  -16.3824 C   0  0  2  0  0  0  0  0  0  0  0  0
   33.9688  -26.8342  -17.1955 N   0  0  0  0  0  0  0  0  0  0  0  0
   32.2134  -25.2516  -17.3226 C   0  0  0  0  0  0  0  0  0  0  0  0
   32.2873  -25.4969  -18.5472 O   0  0  0  0  0  0  0  0  0  0  0  0
   27.5238  -27.2722  -16.8743 N   0  0  0  0  0  0  0  0  0  0  0  0
   27.8914  -25.9209  -16.6590 C   0  0  0  0  0  0  0  0  0  0  0  0
   27.0028  -25.0421  -16.7157 O   0  0  0  0  0  0  0  0  0  0  0  0
   29.2929  -25.5902  -16.3776 C   0  0  0  0  0  0  0  0  0  0  0  0
   29.8360  -24.4275  -17.1508 C   0  0  2  0  0  0  0  0  0  0  0  0
   31.2616  -24.2978  -16.8882 N   0  0  0  0  0  0  0  0  0  0  0  0
   29.0842  -23.2299  -16.7516 C   0  0  0  0  0  0  0  0  0  0  0  0
   29.0166  -22.9114  -15.5514 O   0  0  0  0  0  0  0  0  0  0  0  0
   28.4567  -22.4626  -17.7027 O   0  0  0  0  0  0  0  0  0  0  0  0
  2  1  1  1
  2  3  1  0
  4  3  1  0
  5  2  1  0
  6  5  2  0
  8  7  1  1
  8 10  1  0
  9  8  1  0
 11 10  1  6
 11 12  1  0
 12  5  1  0
 13 11  1  0
 13 20  1  0
 14 13  2  0
 15 16  1  0
 16 17  2  0
 19 18  1  1
 18 16  1  0
 19 20  1  0
 19 21  1  0
 21 23  1  0
 22 21  2  0
M  END
$$$$
