CLN.pdb
     RDKit          3D

 23 22  0  0  1  0  0  0  0  0999 V2000
   21.6711  -12.4768  -17.8605 N   0  0  0  0  0  0  0  0  0  0  0  0
   21.1584  -12.1161  -16.5560 C   0  0  1  0  0  0  0  0  0  0  0  0
   21.0191  -13.3578  -15.7025 C   0  0  0  0  0  0  0  0  0  0  0  0
   20.1206  -14.6263  -16.6271 S   0  0  0  0  0  0  0  0  0  0  0  0
   22.0118  -11.1040  -15.9130 C   0  0  0  0  0  0  0  0  0  0  0  0
   21.7803  -10.7814  -14.7190 O   0  0  0  0  0  0  0  0  0  0  0  0
   26.1556  -10.8912  -14.6787 C   0  0  0  0  0  0  0  0  0  0  0  0
   25.9316  -10.8369  -16.2072 C   0  0  2  0  0  0  0  0  0  0  0  0
   27.2924  -10.9546  -16.8170 C   0  0  0  0  0  0  0  0  0  0  0  0
   25.2308   -9.5624  -16.4530 C   0  0  0  0  0  0  0  0  0  0  0  0
   23.8497   -9.4014  -15.9074 C   0  0  2  0  0  0  0  0  0  0  0  0
   23.0767  -10.4787  -16.5725 N   0  0  0  0  0  0  0  0  0  0  0  0
   23.1699   -8.1394  -16.2245 C   0  0  0  0  0  0  0  0  0  0  0  0
   22.7351   -7.9393  -17.3805 O   0  0  0  0  0  0  0  0  0  0  0  0
   18.9104   -4.7254  -15.5051 N   0  0  0  0  0  0  0  0  0  0  0  0
   20.0489   -5.0315  -16.2912 C   0  0  0  0  0  0  0  0  0  0  0  0
   20.3230   -4.2913  -17.2618 O   0  0  0  0  0  0  0  0  0  0  0  0
   20.8695   -6.1987  -15.9494 C   0  0  0  0  0  0  0  0  0  0  0  0
   22.2746   -5.8846  -15.5353 C   0  0  2  0  0  0  0  0  0  0  0  0
   22.9831   -7.1246  -15.2552 N   0  0  0  0  0  0  0  0  0  0  0  0
   22.2124   -5.0009  -14.3631 C   0  0  0  0  0  0  0  0  0  0  0  0
   22.5516   -5.4280  -13.2455 O   0  0  0  0  0  0  0  0  0  0  0  0
   21.7800   -3.7043  -14.5012 O   0  0  0  0  0  0  0  0  0  0  0  0
  2  1  1  6
  2  3  1  0
  4  3  1  0
  5  2  1  0
  6  5  2  0
  8  7  1  1
  8 10  1  0
  9  8  1  0
 11 10  1  6
 11 12  1  0
 12  5  1  0
 13 11  1  0
 13 20  1  0
 14 13  2  0
 15 16  1  0
 16 17  2  0
 19 18  1  1
 18 16  1  0
 19 20  1  0
 19 21  1  0
 21 23  1  0
 22 21  2  0
M  END
$$$$
