TAG.pdb
     RDKit          3D

 17 16  0  0  1  0  0  0  0  0999 V2000
   11.2487  -14.7479   19.5583 C   0  0  0  0  0  0  0  0  0  0  0  0
   10.4701  -13.6106   18.9915 C   0  0  1  0  0  0  0  0  0  0  0  0
   10.8774  -13.4223   17.6582 O   0  0  0  0  0  0  0  0  0  0  0  0
    8.9813  -13.8480   18.9534 C   0  0  2  0  0  0  0  0  0  0  0  0
    8.3879  -12.6621   18.3311 N   0  0  0  0  0  0  0  0  0  0  0  0
    8.4082  -14.0255   20.3112 C   0  0  0  0  0  0  0  0  0  0  0  0
    8.2333  -13.0136   21.0364 O   0  0  0  0  0  0  0  0  0  0  0  0
    6.4489  -16.4503   22.2430 C   0  0  0  0  0  0  0  0  0  0  0  0
    7.5552  -15.4163   22.2044 C   0  0  2  0  0  0  0  0  0  0  0  0
    8.0371  -15.2842   20.8569 N   0  0  0  0  0  0  0  0  0  0  0  0
    8.6071  -15.7506   23.1788 C   0  0  0  0  0  0  0  0  0  0  0  0
    8.3764  -15.9761   24.3993 O   0  0  0  0  0  0  0  0  0  0  0  0
    9.9425  -15.8157   22.6903 N   0  0  0  0  0  0  0  0  0  0  0  0
   11.0417  -16.1444   23.5742 C   0  0  0  0  0  0  0  0  0  0  0  0
   12.3310  -16.0860   22.8214 C   0  0  0  0  0  0  0  0  0  0  0  0
   12.3013  -15.8746   21.5900 O   0  0  0  0  0  0  0  0  0  0  0  0
   13.5417  -16.2610   23.4639 O   0  0  0  0  0  0  0  0  0  0  0  0
  2  3  1  0
  2  1  1  6
  4  2  1  0
  4  5  1  1
  6 10  1  0
  6  4  1  0
  7  6  2  0
  9  8  1  6
  9 10  1  0
  9 11  1  0
 11 12  2  0
 13 11  1  0
 13 14  1  0
 14 15  1  0
 15 17  1  0
 16 15  2  0
M  END
$$$$
