TAG.pdb
     RDKit          3D

 17 16  0  0  1  0  0  0  0  0999 V2000
    7.7773  -16.7508   17.3763 C   0  0  0  0  0  0  0  0  0  0  0  0
    8.2525  -15.4336   16.8662 C   0  0  1  0  0  0  0  0  0  0  0  0
    7.7675  -15.2705   15.5558 O   0  0  0  0  0  0  0  0  0  0  0  0
    7.7478  -14.2534   17.6579 C   0  0  2  0  0  0  0  0  0  0  0  0
    8.1244  -13.0559   16.9030 N   0  0  0  0  0  0  0  0  0  0  0  0
    8.3534  -14.1878   19.0116 C   0  0  0  0  0  0  0  0  0  0  0  0
    9.5933  -14.0086   19.1171 O   0  0  0  0  0  0  0  0  0  0  0  0
    7.2493  -14.1834   22.5959 C   0  0  0  0  0  0  0  0  0  0  0  0
    8.2592  -14.4395   21.4964 C   0  0  2  0  0  0  0  0  0  0  0  0
    7.6136  -14.3160   20.2183 N   0  0  0  0  0  0  0  0  0  0  0  0
    8.9246  -15.7370   21.7000 C   0  0  0  0  0  0  0  0  0  0  0  0
    8.3558  -16.8470   21.5051 O   0  0  0  0  0  0  0  0  0  0  0  0
   10.2782  -15.7064   22.1394 N   0  0  0  0  0  0  0  0  0  0  0  0
   10.9738  -16.9279   22.4884 C   0  0  0  0  0  0  0  0  0  0  0  0
   12.3528  -16.6062   22.9651 C   0  0  0  0  0  0  0  0  0  0  0  0
   12.7562  -15.4256   22.8915 O   0  0  0  0  0  0  0  0  0  0  0  0
   13.1774  -17.5878   23.4804 O   0  0  0  0  0  0  0  0  0  0  0  0
  2  3  1  0
  2  1  1  1
  4  2  1  0
  4  5  1  6
  6 10  1  0
  6  4  1  0
  7  6  2  0
  9  8  1  1
  9 10  1  0
  9 11  1  0
 11 12  2  0
 13 11  1  0
 13 14  1  0
 14 15  1  0
 15 17  1  0
 16 15  2  0
M  END
$$$$
