TAG.pdb
     RDKit          3D

 17 16  0  0  1  0  0  0  0  0999 V2000
   -4.5497  -26.2543   26.0821 C   0  0  0  0  0  0  0  0  0  0  0  0
   -5.4467  -25.3011   26.7947 C   0  0  1  0  0  0  0  0  0  0  0  0
   -5.1469  -25.3607   28.1679 O   0  0  0  0  0  0  0  0  0  0  0  0
   -5.2632  -23.8629   26.3800 C   0  0  2  0  0  0  0  0  0  0  0  0
   -3.8686  -23.5219   26.6707 N   0  0  0  0  0  0  0  0  0  0  0  0
   -6.1568  -22.9458   27.1312 C   0  0  0  0  0  0  0  0  0  0  0  0
   -5.7290  -22.4009   28.1803 O   0  0  0  0  0  0  0  0  0  0  0  0
   -9.4033  -21.1789   26.6549 C   0  0  0  0  0  0  0  0  0  0  0  0
   -8.3414  -21.8018   27.5374 C   0  0  2  0  0  0  0  0  0  0  0  0
   -7.4870  -22.6363   26.7379 N   0  0  0  0  0  0  0  0  0  0  0  0
   -8.9622  -22.5056   28.6719 C   0  0  0  0  0  0  0  0  0  0  0  0
   -9.6265  -21.9207   29.5720 O   0  0  0  0  0  0  0  0  0  0  0  0
   -8.7872  -23.9171   28.7298 N   0  0  0  0  0  0  0  0  0  0  0  0
   -9.4629  -24.7087   29.7370 C   0  0  0  0  0  0  0  0  0  0  0  0
   -8.6321  -24.7648   30.9776 C   0  0  0  0  0  0  0  0  0  0  0  0
   -9.0360  -25.4472   31.9435 O   0  0  0  0  0  0  0  0  0  0  0  0
   -7.4361  -24.0787   31.0678 O   0  0  0  0  0  0  0  0  0  0  0  0
  2  3  1  0
  2  1  1  6
  4  2  1  0
  4  5  1  1
  6 10  1  0
  6  4  1  0
  7  6  2  0
  9  8  1  6
  9 10  1  0
  9 11  1  0
 11 12  2  0
 13 11  1  0
 13 14  1  0
 14 15  1  0
 15 17  1  0
 16 15  2  0
M  END
$$$$
