TAG.pdb
     RDKit          3D

 17 16  0  0  1  0  0  0  0  0999 V2000
   -3.0391  -20.5934   25.2052 C   0  0  0  0  0  0  0  0  0  0  0  0
   -3.8090  -21.4317   26.1673 C   0  0  1  0  0  0  0  0  0  0  0  0
   -5.1610  -21.4145   25.7789 O   0  0  0  0  0  0  0  0  0  0  0  0
   -3.3894  -22.8801   26.1877 C   0  0  2  0  0  0  0  0  0  0  0  0
   -3.5972  -23.3914   24.8308 N   0  0  0  0  0  0  0  0  0  0  0  0
   -4.1961  -23.6828   27.1408 C   0  0  0  0  0  0  0  0  0  0  0  0
   -5.1236  -24.4059   26.6967 O   0  0  0  0  0  0  0  0  0  0  0  0
   -3.7348  -25.3101   30.3111 C   0  0  0  0  0  0  0  0  0  0  0  0
   -4.7119  -24.5731   29.4185 C   0  0  2  0  0  0  0  0  0  0  0  0
   -3.9875  -23.6894   28.5467 N   0  0  0  0  0  0  0  0  0  0  0  0
   -5.7386  -23.8955   30.2275 C   0  0  0  0  0  0  0  0  0  0  0  0
   -6.3041  -24.4305   31.2212 O   0  0  0  0  0  0  0  0  0  0  0  0
   -6.0906  -22.5702   29.8455 N   0  0  0  0  0  0  0  0  0  0  0  0
   -7.1855  -21.8768   30.4921 C   0  0  0  0  0  0  0  0  0  0  0  0
   -8.4881  -22.4041   29.9848 C   0  0  0  0  0  0  0  0  0  0  0  0
   -9.5482  -21.8698   30.3754 O   0  0  0  0  0  0  0  0  0  0  0  0
   -8.5334  -23.4637   29.0991 O   0  0  0  0  0  0  0  0  0  0  0  0
  2  3  1  0
  2  1  1  6
  4  2  1  0
  4  5  1  6
  6 10  1  0
  6  4  1  0
  7  6  2  0
  9  8  1  1
  9 10  1  0
  9 11  1  0
 11 12  2  0
 13 11  1  0
 13 14  1  0
 14 15  1  0
 15 17  1  0
 16 15  2  0
M  END
$$$$
