TAG.pdb
     RDKit          3D

 17 16  0  0  1  0  0  0  0  0999 V2000
   10.0180  -16.4312   17.9379 C   0  0  0  0  0  0  0  0  0  0  0  0
    9.6544  -15.1684   17.2350 C   0  0  1  0  0  0  0  0  0  0  0  0
    9.5594  -15.4447   15.8589 O   0  0  0  0  0  0  0  0  0  0  0  0
    8.3200  -14.6007   17.6492 C   0  0  2  0  0  0  0  0  0  0  0  0
    8.0367  -13.4948   16.7314 N   0  0  0  0  0  0  0  0  0  0  0  0
    8.3387  -14.0869   19.0418 C   0  0  0  0  0  0  0  0  0  0  0  0
    8.9613  -13.0236   19.2913 O   0  0  0  0  0  0  0  0  0  0  0  0
    6.3857  -14.5148   22.1467 C   0  0  0  0  0  0  0  0  0  0  0  0
    7.6848  -14.1609   21.4529 C   0  0  2  0  0  0  0  0  0  0  0  0
    7.6890  -14.7269   20.1318 N   0  0  0  0  0  0  0  0  0  0  0  0
    8.8359  -14.5694   22.2750 C   0  0  0  0  0  0  0  0  0  0  0  0
    8.9904  -14.2163   23.4772 O   0  0  0  0  0  0  0  0  0  0  0  0
    9.8076  -15.4049   21.6555 N   0  0  0  0  0  0  0  0  0  0  0  0
   10.9258  -15.9303   22.4113 C   0  0  0  0  0  0  0  0  0  0  0  0
   11.7561  -16.8138   21.5380 C   0  0  0  0  0  0  0  0  0  0  0  0
   11.5366  -18.0441   21.5423 O   0  0  0  0  0  0  0  0  0  0  0  0
   12.7521  -16.2919   20.7350 O   0  0  0  0  0  0  0  0  0  0  0  0
  2  3  1  0
  2  1  1  1
  4  2  1  0
  4  5  1  6
  6 10  1  0
  6  4  1  0
  7  6  2  0
  9  8  1  1
  9 10  1  0
  9 11  1  0
 11 12  2  0
 13 11  1  0
 13 14  1  0
 14 15  1  0
 15 17  1  0
 16 15  2  0
M  END
$$$$
