TAG.pdb
     RDKit          3D

 17 16  0  0  1  0  0  0  0  0999 V2000
    9.8893  -18.4571   13.2866 C   0  0  0  0  0  0  0  0  0  0  0  0
    9.0138  -17.3231   12.8762 C   0  0  1  0  0  0  0  0  0  0  0  0
    9.0987  -17.1877   11.4785 O   0  0  0  0  0  0  0  0  0  0  0  0
    7.5549  -17.5301   13.1969 C   0  0  2  0  0  0  0  0  0  0  0  0
    6.8266  -16.4447   12.5357 N   0  0  0  0  0  0  0  0  0  0  0  0
    7.2901  -17.4775   14.6566 C   0  0  0  0  0  0  0  0  0  0  0  0
    7.2218  -16.3578   15.2241 O   0  0  0  0  0  0  0  0  0  0  0  0
    6.2649  -19.7685   17.4191 C   0  0  0  0  0  0  0  0  0  0  0  0
    6.9734  -18.5348   16.8990 C   0  0  2  0  0  0  0  0  0  0  0  0
    7.1053  -18.6277   15.4709 N   0  0  0  0  0  0  0  0  0  0  0  0
    8.2537  -18.3420   17.6000 C   0  0  0  0  0  0  0  0  0  0  0  0
    8.3417  -18.1525   18.8450 O   0  0  0  0  0  0  0  0  0  0  0  0
    9.4354  -18.3759   16.8070 N   0  0  0  0  0  0  0  0  0  0  0  0
   10.7362  -18.1504   17.4024 C   0  0  0  0  0  0  0  0  0  0  0  0
   11.3278  -19.4530   17.8336 C   0  0  0  0  0  0  0  0  0  0  0  0
   12.5068  -19.4723   18.2476 O   0  0  0  0  0  0  0  0  0  0  0  0
   10.5944  -20.6229   17.7804 O   0  0  0  0  0  0  0  0  0  0  0  0
  2  3  1  0
  2  1  1  6
  4  2  1  0
  4  5  1  6
  6 10  1  0
  6  4  1  0
  7  6  2  0
  9  8  1  1
  9 10  1  0
  9 11  1  0
 11 12  2  0
 13 11  1  0
 13 14  1  0
 14 15  1  0
 15 17  1  0
 16 15  2  0
M  END
$$$$
