TAG.pdb
     RDKit          3D

 17 16  0  0  1  0  0  0  0  0999 V2000
   -0.3617  -19.9458   21.1269 C   0  0  0  0  0  0  0  0  0  0  0  0
    0.2707  -20.9475   22.0312 C   0  0  1  0  0  0  0  0  0  0  0  0
    1.4427  -20.3795   22.5628 O   0  0  0  0  0  0  0  0  0  0  0  0
   -0.5876  -21.3354   23.2090 C   0  0  2  0  0  0  0  0  0  0  0  0
   -0.9159  -20.0920   23.9104 N   0  0  0  0  0  0  0  0  0  0  0  0
    0.1205  -22.2490   24.1404 C   0  0  0  0  0  0  0  0  0  0  0  0
    0.3955  -21.8458   25.2989 O   0  0  0  0  0  0  0  0  0  0  0  0
    0.7971  -25.8447   24.5542 C   0  0  0  0  0  0  0  0  0  0  0  0
    1.2388  -24.4060   24.7262 C   0  0  2  0  0  0  0  0  0  0  0  0
    0.5159  -23.5724   23.8053 N   0  0  0  0  0  0  0  0  0  0  0  0
    2.7016  -24.2975   24.5994 C   0  0  0  0  0  0  0  0  0  0  0  0
    3.5108  -24.9171   25.3443 O   0  0  0  0  0  0  0  0  0  0  0  0
    3.1992  -23.4428   23.5755 N   0  0  0  0  0  0  0  0  0  0  0  0
    4.6232  -23.3027   23.3517 C   0  0  0  0  0  0  0  0  0  0  0  0
    5.0685  -21.9379   23.7659 C   0  0  0  0  0  0  0  0  0  0  0  0
    4.9153  -20.9863   22.9704 O   0  0  0  0  0  0  0  0  0  0  0  0
    5.6410  -21.7187   25.0042 O   0  0  0  0  0  0  0  0  0  0  0  0
  2  3  1  0
  2  1  1  6
  4  2  1  0
  4  5  1  1
  6 10  1  0
  6  4  1  0
  7  6  2  0
  9  8  1  6
  9 10  1  0
  9 11  1  0
 11 12  2  0
 13 11  1  0
 13 14  1  0
 14 15  1  0
 15 17  1  0
 16 15  2  0
M  END
$$$$
