TAG.pdb
     RDKit          3D

 17 16  0  0  1  0  0  0  0  0999 V2000
    8.4544  -17.0176   16.7505 C   0  0  0  0  0  0  0  0  0  0  0  0
    8.5899  -15.6670   16.1354 C   0  0  1  0  0  0  0  0  0  0  0  0
    8.2298  -15.7652   14.7790 O   0  0  0  0  0  0  0  0  0  0  0  0
    7.6845  -14.6251   16.7428 C   0  0  2  0  0  0  0  0  0  0  0  0
    7.7268  -13.4661   15.8481 N   0  0  0  0  0  0  0  0  0  0  0  0
    8.1342  -14.2138   18.0964 C   0  0  0  0  0  0  0  0  0  0  0  0
    9.1932  -13.5459   18.2105 O   0  0  0  0  0  0  0  0  0  0  0  0
    6.8252  -14.0626   21.5767 C   0  0  0  0  0  0  0  0  0  0  0  0
    7.9657  -14.2051   20.5900 C   0  0  2  0  0  0  0  0  0  0  0  0
    7.4364  -14.5293   19.2937 N   0  0  0  0  0  0  0  0  0  0  0  0
    8.9562  -15.1759   21.0842 C   0  0  0  0  0  0  0  0  0  0  0  0
    9.5780  -15.0392   22.1743 O   0  0  0  0  0  0  0  0  0  0  0  0
    9.2042  -16.3166   20.2696 N   0  0  0  0  0  0  0  0  0  0  0  0
    9.9066  -17.4679   20.7976 C   0  0  0  0  0  0  0  0  0  0  0  0
   11.3602  -17.3693   20.4663 C   0  0  0  0  0  0  0  0  0  0  0  0
   11.7359  -16.4961   19.6550 O   0  0  0  0  0  0  0  0  0  0  0  0
   12.2829  -18.2228   21.0402 O   0  0  0  0  0  0  0  0  0  0  0  0
  2  3  1  0
  2  1  1  1
  4  2  1  0
  4  5  1  6
  6 10  1  0
  6  4  1  0
  7  6  2  0
  9  8  1  1
  9 10  1  0
  9 11  1  0
 11 12  2  0
 13 11  1  0
 13 14  1  0
 14 15  1  0
 15 17  1  0
 16 15  2  0
M  END
$$$$
