CAK.pdb
     RDKit          3D

 21 20  0  0  1  0  0  0  0  0999 V2000
    4.9379  -20.3040   16.8850 N   0  0  0  0  0  0  0  0  0  0  0  0
    4.7006  -20.9410   18.1588 C   0  0  1  0  0  0  0  0  0  0  0  0
    6.0215  -21.6038   18.5606 C   0  0  0  0  0  0  0  0  0  0  0  0
    5.8496  -22.5134   20.0996 S   0  0  0  0  0  0  0  0  0  0  0  0
    4.3911  -19.9494   19.2218 C   0  0  0  0  0  0  0  0  0  0  0  0
    5.1075  -18.9170   19.2770 O   0  0  0  0  0  0  0  0  0  0  0  0
    1.6731  -19.4447   21.7282 C   0  0  0  0  0  0  0  0  0  0  0  0
    3.0649  -19.1236   21.1982 C   0  0  2  0  0  0  0  0  0  0  0  0
    3.3580  -20.0873   20.1636 N   0  0  0  0  0  0  0  0  0  0  0  0
    4.0577  -19.1787   22.3052 C   0  0  0  0  0  0  0  0  0  0  0  0
    3.9011  -18.3351   23.2342 O   0  0  0  0  0  0  0  0  0  0  0  0
    5.1247  -20.0941   22.3632 N   0  0  0  0  0  0  0  0  0  0  0  0
    6.0296  -20.1704   23.5209 C   0  0  1  0  0  0  0  0  0  0  0  0
    6.2516  -21.6008   23.8997 C   0  0  0  0  0  0  0  0  0  0  0  0
    6.7787  -21.7404   25.2826 C   0  0  0  0  0  0  0  0  0  0  0  0
    7.1092  -23.1973   25.6140 C   0  0  0  0  0  0  0  0  0  0  0  0
    7.5318  -23.3433   27.0539 C   0  0  0  0  0  0  0  0  0  0  0  0
    7.9363  -24.6865   27.3801 N   0  0  0  0  0  0  0  0  0  0  0  0
    7.2853  -19.5278   23.1315 C   0  0  0  0  0  0  0  0  0  0  0  0
    7.6370  -19.4922   21.9298 O   0  0  0  0  0  0  0  0  0  0  0  0
    8.1087  -18.9458   24.0606 O   0  0  0  0  0  0  0  0  0  0  0  0
  2  1  1  6
  2  5  1  0
  3  2  1  0
  4  3  1  0
  5  9  1  0
  5  6  2  0
  8  7  1  1
  9  8  1  0
 10  8  1  0
 10 11  2  0
 12 13  1  0
 12 10  1  0
 14 15  1  0
 13 14  1  6
 16 17  1  0
 16 15  1  0
 17 18  1  0
 19 13  1  0
 20 19  2  0
 21 19  1  0
M  END
$$$$
