CAK.pdb
     RDKit          3D

 21 20  0  0  1  0  0  0  0  0999 V2000
    6.9049  -14.2825   17.8090 N   0  0  0  0  0  0  0  0  0  0  0  0
    8.0724  -14.1678   18.6507 C   0  0  1  0  0  0  0  0  0  0  0  0
    8.0468  -12.7506   19.2306 C   0  0  0  0  0  0  0  0  0  0  0  0
    9.6176  -11.9173   18.9782 S   0  0  0  0  0  0  0  0  0  0  0  0
    8.0086  -15.0945   19.8111 C   0  0  0  0  0  0  0  0  0  0  0  0
    6.9850  -15.0400   20.5401 O   0  0  0  0  0  0  0  0  0  0  0  0
    9.3013  -18.3277   20.6910 C   0  0  0  0  0  0  0  0  0  0  0  0
    8.9172  -16.9595   21.2403 C   0  0  2  0  0  0  0  0  0  0  0  0
    9.0092  -16.0217   20.1462 N   0  0  0  0  0  0  0  0  0  0  0  0
    9.8185  -16.5900   22.3651 C   0  0  0  0  0  0  0  0  0  0  0  0
   11.0332  -16.4049   22.0658 O   0  0  0  0  0  0  0  0  0  0  0  0
    9.3958  -16.4425   23.6991 N   0  0  0  0  0  0  0  0  0  0  0  0
   10.3061  -15.9940   24.7644 C   0  0  1  0  0  0  0  0  0  0  0  0
    9.5159  -15.5423   25.9521 C   0  0  0  0  0  0  0  0  0  0  0  0
   10.3870  -15.1688   27.0973 C   0  0  0  0  0  0  0  0  0  0  0  0
    9.5632  -14.7748   28.3253 C   0  0  0  0  0  0  0  0  0  0  0  0
   10.4562  -14.4554   29.4974 C   0  0  0  0  0  0  0  0  0  0  0  0
    9.7141  -14.1201   30.6852 N   0  0  0  0  0  0  0  0  0  0  0  0
   11.1659  -17.1281   25.1045 C   0  0  0  0  0  0  0  0  0  0  0  0
   10.6962  -18.2877   25.1673 O   0  0  0  0  0  0  0  0  0  0  0  0
   12.5027  -16.9606   25.3597 O   0  0  0  0  0  0  0  0  0  0  0  0
  2  1  1  6
  2  5  1  0
  3  2  1  0
  4  3  1  0
  5  9  1  0
  5  6  2  0
  8  7  1  6
  9  8  1  0
 10  8  1  0
 10 11  2  0
 12 13  1  0
 12 10  1  0
 14 15  1  0
 13 14  1  1
 16 17  1  0
 16 15  1  0
 17 18  1  0
 19 13  1  0
 20 19  2  0
 21 19  1  0
M  END
$$$$
