CAK.pdb
     RDKit          3D

 21 20  0  0  1  0  0  0  0  0999 V2000
    8.0420  -14.8746   16.6540 N   0  0  0  0  0  0  0  0  0  0  0  0
    8.7665  -14.4544   17.8301 C   0  0  1  0  0  0  0  0  0  0  0  0
    8.2042  -13.0826   18.2141 C   0  0  0  0  0  0  0  0  0  0  0  0
    8.8647  -12.5280   19.7894 S   0  0  0  0  0  0  0  0  0  0  0  0
    8.5066  -15.3505   18.9870 C   0  0  0  0  0  0  0  0  0  0  0  0
    7.3060  -15.5820   19.2820 O   0  0  0  0  0  0  0  0  0  0  0  0
   10.2477  -17.8440   21.0231 C   0  0  0  0  0  0  0  0  0  0  0  0
    9.2564  -16.6876   20.9863 C   0  0  2  0  0  0  0  0  0  0  0  0
    9.5065  -15.9528   19.7687 N   0  0  0  0  0  0  0  0  0  0  0  0
    9.4230  -15.8342   22.1937 C   0  0  0  0  0  0  0  0  0  0  0  0
   10.4735  -15.1315   22.2366 O   0  0  0  0  0  0  0  0  0  0  0  0
    8.4977  -15.7756   23.2522 N   0  0  0  0  0  0  0  0  0  0  0  0
    8.6189  -14.7985   24.3455 C   0  0  1  0  0  0  0  0  0  0  0  0
    7.2978  -14.1384   24.5866 C   0  0  0  0  0  0  0  0  0  0  0  0
    7.3660  -13.1251   25.6722 C   0  0  0  0  0  0  0  0  0  0  0  0
    5.9864  -12.5405   25.9832 C   0  0  0  0  0  0  0  0  0  0  0  0
    6.0637  -11.5359   27.1048 C   0  0  0  0  0  0  0  0  0  0  0  0
    4.7696  -11.0372   27.4931 N   0  0  0  0  0  0  0  0  0  0  0  0
    9.0664  -15.5297   25.5314 C   0  0  0  0  0  0  0  0  0  0  0  0
    8.8156  -16.7503   25.6598 O   0  0  0  0  0  0  0  0  0  0  0  0
    9.7716  -14.9090   26.5301 O   0  0  0  0  0  0  0  0  0  0  0  0
  2  1  1  6
  2  5  1  0
  3  2  1  0
  4  3  1  0
  5  9  1  0
  5  6  2  0
  8  7  1  1
  9  8  1  0
 10  8  1  0
 10 11  2  0
 12 13  1  0
 12 10  1  0
 14 15  1  0
 13 14  1  1
 16 17  1  0
 16 15  1  0
 17 18  1  0
 19 13  1  0
 20 19  2  0
 21 19  1  0
M  END
$$$$
