CAK.pdb
     RDKit          3D

 21 20  0  0  1  0  0  0  0  0999 V2000
    8.9005  -15.3237   14.7868 N   0  0  0  0  0  0  0  0  0  0  0  0
    7.8882  -15.0579   15.7813 C   0  0  1  0  0  0  0  0  0  0  0  0
    7.0903  -16.3554   15.9401 C   0  0  0  0  0  0  0  0  0  0  0  0
    8.1809  -17.7659   16.1562 S   0  0  0  0  0  0  0  0  0  0  0  0
    8.4847  -14.7695   17.1117 C   0  0  0  0  0  0  0  0  0  0  0  0
    9.6177  -15.2579   17.3565 O   0  0  0  0  0  0  0  0  0  0  0  0
    7.4974  -12.7790   20.1302 C   0  0  0  0  0  0  0  0  0  0  0  0
    8.4754  -13.6754   19.3811 C   0  0  2  0  0  0  0  0  0  0  0  0
    7.8714  -13.9923   18.1084 N   0  0  0  0  0  0  0  0  0  0  0  0
    8.7611  -14.8981   20.1795 C   0  0  0  0  0  0  0  0  0  0  0  0
    7.9405  -15.8513   20.0486 O   0  0  0  0  0  0  0  0  0  0  0  0
    9.8636  -15.0369   21.0428 N   0  0  0  0  0  0  0  0  0  0  0  0
   10.1065  -16.2675   21.8118 C   0  0  1  0  0  0  0  0  0  0  0  0
   11.5066  -16.7428   21.5824 C   0  0  0  0  0  0  0  0  0  0  0  0
   11.6789  -17.3550   20.2388 C   0  0  0  0  0  0  0  0  0  0  0  0
   13.1123  -17.8458   20.0240 C   0  0  0  0  0  0  0  0  0  0  0  0
   13.2701  -18.4811   18.6659 C   0  0  0  0  0  0  0  0  0  0  0  0
   14.6450  -18.7591   18.3396 N   0  0  0  0  0  0  0  0  0  0  0  0
    9.8836  -15.9472   23.2222 C   0  0  0  0  0  0  0  0  0  0  0  0
    9.6491  -14.7695   23.5789 O   0  0  0  0  0  0  0  0  0  0  0  0
    9.9203  -16.9177   24.1901 O   0  0  0  0  0  0  0  0  0  0  0  0
  2  1  1  6
  2  5  1  0
  3  2  1  0
  4  3  1  0
  5  9  1  0
  5  6  2  0
  8  7  1  1
  9  8  1  0
 10  8  1  0
 10 11  2  0
 12 13  1  0
 12 10  1  0
 14 15  1  0
 13 14  1  1
 16 17  1  0
 16 15  1  0
 17 18  1  0
 19 13  1  0
 20 19  2  0
 21 19  1  0
M  END
$$$$
