CAK.pdb
     RDKit          3D

 21 20  0  0  1  0  0  0  0  0999 V2000
    4.5188  -18.4065   20.0040 N   0  0  0  0  0  0  0  0  0  0  0  0
    4.5671  -17.1592   20.7297 C   0  0  1  0  0  0  0  0  0  0  0  0
    4.1377  -17.4796   22.1644 C   0  0  0  0  0  0  0  0  0  0  0  0
    5.3881  -18.4478   23.0155 S   0  0  0  0  0  0  0  0  0  0  0  0
    5.9517  -16.6261   20.8179 C   0  0  0  0  0  0  0  0  0  0  0  0
    6.8970  -17.4477   20.7026 O   0  0  0  0  0  0  0  0  0  0  0  0
    7.5099  -13.2674   21.4018 C   0  0  0  0  0  0  0  0  0  0  0  0
    7.6162  -14.7735   21.1979 C   0  0  2  0  0  0  0  0  0  0  0  0
    6.2733  -15.2737   21.0203 N   0  0  0  0  0  0  0  0  0  0  0  0
    8.2918  -15.4001   22.3661 C   0  0  0  0  0  0  0  0  0  0  0  0
    7.6392  -15.4031   23.4494 O   0  0  0  0  0  0  0  0  0  0  0  0
    9.5779  -15.9693   22.3220 N   0  0  0  0  0  0  0  0  0  0  0  0
   10.1934  -16.6066   23.4966 C   0  0  1  0  0  0  0  0  0  0  0  0
   10.1826  -18.0939   23.3325 C   0  0  0  0  0  0  0  0  0  0  0  0
   10.8672  -18.7878   24.4549 C   0  0  0  0  0  0  0  0  0  0  0  0
   10.9303  -20.2996   24.2265 C   0  0  0  0  0  0  0  0  0  0  0  0
   11.5645  -20.9994   25.4017 C   0  0  0  0  0  0  0  0  0  0  0  0
   11.6085  -22.4296   25.2382 N   0  0  0  0  0  0  0  0  0  0  0  0
   11.5617  -16.0979   23.5974 C   0  0  0  0  0  0  0  0  0  0  0  0
   12.1458  -15.6361   22.5900 O   0  0  0  0  0  0  0  0  0  0  0  0
   12.2418  -16.1066   24.7879 O   0  0  0  0  0  0  0  0  0  0  0  0
  2  1  1  6
  2  5  1  0
  3  2  1  0
  4  3  1  0
  5  9  1  0
  5  6  2  0
  8  7  1  1
  9  8  1  0
 10  8  1  0
 10 11  2  0
 12 13  1  0
 12 10  1  0
 14 15  1  0
 13 14  1  6
 16 17  1  0
 16 15  1  0
 17 18  1  0
 19 13  1  0
 20 19  2  0
 21 19  1  0
M  END
$$$$
