CAK.pdb
     RDKit          3D

 21 20  0  0  1  0  0  0  0  0999 V2000
    7.9902  -15.5213   16.6626 N   0  0  0  0  0  0  0  0  0  0  0  0
    8.6566  -14.9089   17.7876 C   0  0  1  0  0  0  0  0  0  0  0  0
    7.9444  -13.5760   18.0356 C   0  0  0  0  0  0  0  0  0  0  0  0
    8.9662  -12.4650   19.0087 S   0  0  0  0  0  0  0  0  0  0  0  0
    8.4894  -15.7085   19.0292 C   0  0  0  0  0  0  0  0  0  0  0  0
    7.3154  -15.9825   19.3880 O   0  0  0  0  0  0  0  0  0  0  0  0
   10.4503  -17.9388   21.1587 C   0  0  0  0  0  0  0  0  0  0  0  0
    9.3810  -16.8559   21.0873 C   0  0  2  0  0  0  0  0  0  0  0  0
    9.5488  -16.1762   19.8244 N   0  0  0  0  0  0  0  0  0  0  0  0
    9.5188  -15.9259   22.2406 C   0  0  0  0  0  0  0  0  0  0  0  0
   10.5283  -15.1643   22.2225 O   0  0  0  0  0  0  0  0  0  0  0  0
    8.6095  -15.8578   23.3123 N   0  0  0  0  0  0  0  0  0  0  0  0
    8.6541  -14.7776   24.3103 C   0  0  1  0  0  0  0  0  0  0  0  0
    7.2669  -14.3019   24.6074 C   0  0  0  0  0  0  0  0  0  0  0  0
    7.2495  -13.2274   25.6345 C   0  0  0  0  0  0  0  0  0  0  0  0
    5.8213  -12.7871   25.9636 C   0  0  0  0  0  0  0  0  0  0  0  0
    5.8160  -11.7038   27.0122 C   0  0  0  0  0  0  0  0  0  0  0  0
    4.4912  -11.2203   27.3039 N   0  0  0  0  0  0  0  0  0  0  0  0
    9.2920  -15.3224   25.5092 C   0  0  0  0  0  0  0  0  0  0  0  0
    9.6744  -14.5627   26.4289 O   0  0  0  0  0  0  0  0  0  0  0  0
    9.4869  -16.6707   25.6654 O   0  0  0  0  0  0  0  0  0  0  0  0
  2  1  1  6
  2  5  1  0
  3  2  1  0
  4  3  1  0
  5  9  1  0
  5  6  2  0
  8  7  1  1
  9  8  1  0
 10  8  1  0
 10 11  2  0
 12 13  1  0
 12 10  1  0
 14 15  1  0
 13 14  1  1
 16 17  1  0
 16 15  1  0
 17 18  1  0
 19 13  1  0
 20 19  2  0
 21 19  1  0
M  END
$$$$
