CAK.pdb
     RDKit          3D

 21 20  0  0  1  0  0  0  0  0999 V2000
    7.1563  -14.1953   17.8772 N   0  0  0  0  0  0  0  0  0  0  0  0
    8.4028  -13.9285   18.5552 C   0  0  1  0  0  0  0  0  0  0  0  0
    8.0671  -12.9914   19.7191 C   0  0  0  0  0  0  0  0  0  0  0  0
    7.6911  -11.3362   19.1322 S   0  0  0  0  0  0  0  0  0  0  0  0
    8.9746  -15.1589   19.1620 C   0  0  0  0  0  0  0  0  0  0  0  0
    8.1668  -16.0295   19.5763 O   0  0  0  0  0  0  0  0  0  0  0  0
   11.9325  -17.1164   18.7637 C   0  0  0  0  0  0  0  0  0  0  0  0
   10.9019  -16.6561   19.7870 C   0  0  2  0  0  0  0  0  0  0  0  0
   10.3489  -15.4132   19.3030 N   0  0  0  0  0  0  0  0  0  0  0  0
   11.5428  -16.4964   21.1203 C   0  0  0  0  0  0  0  0  0  0  0  0
   12.2244  -15.4442   21.2865 O   0  0  0  0  0  0  0  0  0  0  0  0
   11.4291  -17.4296   22.1673 N   0  0  0  0  0  0  0  0  0  0  0  0
   12.0472  -17.2090   23.4841 C   0  0  1  0  0  0  0  0  0  0  0  0
   11.6439  -18.3006   24.4247 C   0  0  0  0  0  0  0  0  0  0  0  0
   12.2352  -18.1237   25.7771 C   0  0  0  0  0  0  0  0  0  0  0  0
   11.9612  -19.3335   26.6733 C   0  0  0  0  0  0  0  0  0  0  0  0
   12.5119  -19.1167   28.0600 C   0  0  0  0  0  0  0  0  0  0  0  0
   12.2617  -20.2314   28.9369 N   0  0  0  0  0  0  0  0  0  0  0  0
   13.4967  -17.1946   23.2846 C   0  0  0  0  0  0  0  0  0  0  0  0
   14.0343  -17.9697   22.4602 O   0  0  0  0  0  0  0  0  0  0  0  0
   14.3063  -16.3375   23.9845 O   0  0  0  0  0  0  0  0  0  0  0  0
  2  1  1  1
  2  5  1  0
  3  2  1  0
  4  3  1  0
  5  9  1  0
  5  6  2  0
  8  7  1  6
  9  8  1  0
 10  8  1  0
 10 11  2  0
 12 13  1  0
 12 10  1  0
 14 15  1  0
 13 14  1  1
 16 17  1  0
 16 15  1  0
 17 18  1  0
 19 13  1  0
 20 19  2  0
 21 19  1  0
M  END
$$$$
