CAK.pdb
     RDKit          3D

 21 20  0  0  1  0  0  0  0  0999 V2000
    8.3862  -16.9085   17.5658 N   0  0  0  0  0  0  0  0  0  0  0  0
    7.5210  -16.6769   18.6982 C   0  0  1  0  0  0  0  0  0  0  0  0
    6.9138  -18.0355   19.0604 C   0  0  0  0  0  0  0  0  0  0  0  0
    5.5157  -18.4246   18.0025 S   0  0  0  0  0  0  0  0  0  0  0  0
    8.2841  -16.2294   19.8926 C   0  0  0  0  0  0  0  0  0  0  0  0
    9.4535  -16.6714   20.0317 O   0  0  0  0  0  0  0  0  0  0  0  0
    7.6826  -13.8660   22.7373 C   0  0  0  0  0  0  0  0  0  0  0  0
    8.5554  -14.8723   21.9977 C   0  0  2  0  0  0  0  0  0  0  0  0
    7.7897  -15.3508   20.8708 N   0  0  0  0  0  0  0  0  0  0  0  0
    8.9462  -15.9784   22.9129 C   0  0  0  0  0  0  0  0  0  0  0  0
    8.0350  -16.8049   23.2063 O   0  0  0  0  0  0  0  0  0  0  0  0
   10.2375  -16.1409   23.4478 N   0  0  0  0  0  0  0  0  0  0  0  0
   10.5931  -17.2840   24.3033 C   0  0  1  0  0  0  0  0  0  0  0  0
   11.8871  -17.8793   23.8450 C   0  0  0  0  0  0  0  0  0  0  0  0
   11.7381  -18.6368   22.5746 C   0  0  0  0  0  0  0  0  0  0  0  0
   13.0763  -19.2075   22.0999 C   0  0  0  0  0  0  0  0  0  0  0  0
   12.9314  -19.8886   20.7626 C   0  0  0  0  0  0  0  0  0  0  0  0
   14.1885  -20.3585   20.2402 N   0  0  0  0  0  0  0  0  0  0  0  0
   10.7007  -16.7817   25.6735 C   0  0  0  0  0  0  0  0  0  0  0  0
   10.7009  -15.5501   25.9027 O   0  0  0  0  0  0  0  0  0  0  0  0
   10.8001  -17.6351   26.7421 O   0  0  0  0  0  0  0  0  0  0  0  0
  2  1  1  6
  2  5  1  0
  3  2  1  0
  4  3  1  0
  5  9  1  0
  5  6  2  0
  8  7  1  1
  9  8  1  0
 10  8  1  0
 10 11  2  0
 12 13  1  0
 12 10  1  0
 14 15  1  0
 13 14  1  6
 16 17  1  0
 16 15  1  0
 17 18  1  0
 19 13  1  0
 20 19  2  0
 21 19  1  0
M  END
$$$$
