CAK.pdb
     RDKit          3D

 21 20  0  0  1  0  0  0  0  0999 V2000
    8.1225  -12.8212   19.3250 N   0  0  0  0  0  0  0  0  0  0  0  0
    7.2843  -13.5597   20.2397 C   0  0  1  0  0  0  0  0  0  0  0  0
    7.2041  -14.9877   19.6920 C   0  0  0  0  0  0  0  0  0  0  0  0
    6.0434  -15.0948   18.3258 S   0  0  0  0  0  0  0  0  0  0  0  0
    7.8992  -13.6643   21.5888 C   0  0  0  0  0  0  0  0  0  0  0  0
    9.1366  -13.8826   21.6459 O   0  0  0  0  0  0  0  0  0  0  0  0
    6.7533  -13.2104   25.1210 C   0  0  0  0  0  0  0  0  0  0  0  0
    7.7906  -13.6737   24.1058 C   0  0  2  0  0  0  0  0  0  0  0  0
    7.1950  -13.5365   22.7975 N   0  0  0  0  0  0  0  0  0  0  0  0
    8.1897  -15.0788   24.3891 C   0  0  0  0  0  0  0  0  0  0  0  0
    7.3467  -15.9690   24.0789 O   0  0  0  0  0  0  0  0  0  0  0  0
    9.4186  -15.4490   24.9659 N   0  0  0  0  0  0  0  0  0  0  0  0
    9.7814  -16.8552   25.2021 C   0  0  1  0  0  0  0  0  0  0  0  0
   11.1540  -17.1228   24.6699 C   0  0  0  0  0  0  0  0  0  0  0  0
   11.6161  -18.5021   24.9759 C   0  0  0  0  0  0  0  0  0  0  0  0
   13.0392  -18.7441   24.4681 C   0  0  0  0  0  0  0  0  0  0  0  0
   13.4702  -20.1667   24.7201 C   0  0  0  0  0  0  0  0  0  0  0  0
   14.7042  -20.4986   24.0558 N   0  0  0  0  0  0  0  0  0  0  0  0
    9.7238  -17.0799   26.6469 C   0  0  0  0  0  0  0  0  0  0  0  0
    9.6827  -18.2432   27.1098 O   0  0  0  0  0  0  0  0  0  0  0  0
    9.7168  -16.0338   27.5334 O   0  0  0  0  0  0  0  0  0  0  0  0
  2  1  1  6
  2  5  1  0
  3  2  1  0
  4  3  1  0
  5  9  1  0
  5  6  2  0
  8  7  1  1
  9  8  1  0
 10  8  1  0
 10 11  2  0
 12 13  1  0
 12 10  1  0
 14 15  1  0
 13 14  1  1
 16 17  1  0
 16 15  1  0
 17 18  1  0
 19 13  1  0
 20 19  2  0
 21 19  1  0
M  END
$$$$
