CAK.pdb
     RDKit          3D

 21 20  0  0  1  0  0  0  0  0999 V2000
    8.0719  -13.4828   16.9762 N   0  0  0  0  0  0  0  0  0  0  0  0
    8.7740  -13.1660   18.1974 C   0  0  1  0  0  0  0  0  0  0  0  0
    7.7053  -13.0371   19.2867 C   0  0  0  0  0  0  0  0  0  0  0  0
    8.4497  -12.9386   20.9182 S   0  0  0  0  0  0  0  0  0  0  0  0
    9.6702  -14.2734   18.6211 C   0  0  0  0  0  0  0  0  0  0  0  0
    9.2418  -15.4484   18.4877 O   0  0  0  0  0  0  0  0  0  0  0  0
   13.0712  -14.9792   18.4882 C   0  0  0  0  0  0  0  0  0  0  0  0
   11.8833  -15.1716   19.4226 C   0  0  2  0  0  0  0  0  0  0  0  0
   10.9564  -14.0965   19.1576 N   0  0  0  0  0  0  0  0  0  0  0  0
   12.3423  -15.1723   20.8379 C   0  0  0  0  0  0  0  0  0  0  0  0
   12.8482  -14.0922   21.2584 O   0  0  0  0  0  0  0  0  0  0  0  0
   12.2426  -16.2806   21.6991 N   0  0  0  0  0  0  0  0  0  0  0  0
   12.7044  -16.2320   23.0953 C   0  0  1  0  0  0  0  0  0  0  0  0
   12.2508  -17.4576   23.8241 C   0  0  0  0  0  0  0  0  0  0  0  0
   12.7600  -17.5017   25.2200 C   0  0  0  0  0  0  0  0  0  0  0  0
   12.3028  -18.7691   25.9455 C   0  0  0  0  0  0  0  0  0  0  0  0
   12.8867  -18.8396   27.3338 C   0  0  0  0  0  0  0  0  0  0  0  0
   12.5138  -20.0426   28.0322 N   0  0  0  0  0  0  0  0  0  0  0  0
   14.1650  -16.1476   23.0651 C   0  0  0  0  0  0  0  0  0  0  0  0
   14.8212  -16.7659   22.1954 O   0  0  0  0  0  0  0  0  0  0  0  0
   14.8565  -15.3929   23.9774 O   0  0  0  0  0  0  0  0  0  0  0  0
  2  1  1  6
  2  5  1  0
  3  2  1  0
  4  3  1  0
  5  9  1  0
  5  6  2  0
  8  7  1  6
  9  8  1  0
 10  8  1  0
 10 11  2  0
 12 13  1  0
 12 10  1  0
 14 15  1  0
 13 14  1  1
 16 17  1  0
 16 15  1  0
 17 18  1  0
 19 13  1  0
 20 19  2  0
 21 19  1  0
M  END
$$$$
