RCG.pdb
     RDKit          3D

 22 21  0  0  1  0  0  0  0  0999 V2000
   18.8615  -27.0529  -10.0413 N   0  0  0  0  0  0  0  0  0  0  0  0
   18.8138  -25.6696   -9.6476 C   0  0  0  0  0  0  0  0  0  0  0  0
   18.4738  -24.7668  -10.4975 N   0  0  0  0  0  0  0  0  0  0  0  0
   19.1378  -25.2688   -8.3231 N   0  0  0  0  0  0  0  0  0  0  0  0
   18.3113  -25.6936   -7.1703 C   0  0  0  0  0  0  0  0  0  0  0  0
   17.4005  -24.5517   -6.8965 C   0  0  0  0  0  0  0  0  0  0  0  0
   16.6938  -24.5270   -5.5837 C   0  0  0  0  0  0  0  0  0  0  0  0
   16.4116  -25.8839   -5.0746 C   0  0  2  0  0  0  0  0  0  0  0  0
   15.4981  -26.5661   -5.9728 N   0  0  0  0  0  0  0  0  0  0  0  0
   15.8029  -25.8518   -3.6935 C   0  0  0  0  0  0  0  0  0  0  0  0
   14.7053  -25.2830   -3.4696 O   0  0  0  0  0  0  0  0  0  0  0  0
   18.4428  -23.7523  -10.2691 N   0  0  0  0  0  0  0  0  0  0  0  0
   16.4407  -26.4630   -2.5778 C   0  0  2  0  0  0  0  0  0  0  0  0
   15.9412  -26.3516   -1.2283 C   0  0  0  0  0  0  0  0  0  0  0  0
   16.3297  -27.5975   -0.4649 S   0  0  0  0  0  0  0  0  0  0  0  0
   15.8376  -27.5582    1.2539 C   0  0  0  0  0  0  0  0  0  0  0  0
   16.5069  -25.1871   -0.5134 O   0  0  0  0  0  0  0  0  0  0  0  0
   17.7366  -24.9692   -0.5959 N   0  0  0  0  0  0  0  0  0  0  0  0
   15.7174  -24.3056    0.2621 C   0  0  0  0  0  0  0  0  0  0  0  0
   16.2802  -23.1998    1.0129 C   0  0  0  0  0  0  0  0  0  0  0  0
   15.2065  -22.5012    1.8037 O   0  0  0  0  0  0  0  0  0  0  0  0
   15.5379  -21.5091    2.7148 O   0  0  0  0  0  0  0  0  0  0  0  0
  1  2  1  0
  2  3  2  0
  2  4  1  0
  5  4  1  0
  6  5  1  0
  7  8  1  0
  7  6  1  0
  8 10  1  0
  8  9  1  6
 10 11  2  0
 10 12  1  0
 12 13  1  0
 13 14  1  6
 13 16  1  0
 15 14  1  0
 16 17  2  0
 18 16  1  0
 18 19  1  0
 20 21  1  0
 20 19  1  0
 22 20  2  0
M  END
$$$$
