RCG.pdb
     RDKit          3D

 22 21  0  0  1  0  0  0  0  0999 V2000
   23.1837  -23.8916  -14.3567 N   0  0  0  0  0  0  0  0  0  0  0  0
   24.2954  -23.0348  -14.0388 C   0  0  0  0  0  0  0  0  0  0  0  0
   25.5004  -23.4471  -14.2141 N   0  0  0  0  0  0  0  0  0  0  0  0
   24.0929  -21.7241  -13.5278 N   0  0  0  0  0  0  0  0  0  0  0  0
   22.8346  -20.9873  -13.7856 C   0  0  0  0  0  0  0  0  0  0  0  0
   22.9157  -20.5537  -15.2047 C   0  0  0  0  0  0  0  0  0  0  0  0
   21.8468  -19.6482  -15.7157 C   0  0  0  0  0  0  0  0  0  0  0  0
   21.8374  -18.3456  -15.0206 C   0  0  2  0  0  0  0  0  0  0  0  0
   20.4797  -17.8380  -14.9459 N   0  0  0  0  0  0  0  0  0  0  0  0
   22.7003  -17.3259  -15.7238 C   0  0  0  0  0  0  0  0  0  0  0  0
   22.4596  -16.9573  -16.9006 O   0  0  0  0  0  0  0  0  0  0  0  0
   26.3377  -22.8767  -13.9778 N   0  0  0  0  0  0  0  0  0  0  0  0
   23.8278  -16.7320  -15.0904 C   0  0  2  0  0  0  0  0  0  0  0  0
   24.7024  -15.7974  -15.7570 C   0  0  0  0  0  0  0  0  0  0  0  0
   24.8887  -14.5902  -14.8660 S   0  0  0  0  0  0  0  0  0  0  0  0
   23.3983  -13.6233  -14.6614 C   0  0  0  0  0  0  0  0  0  0  0  0
   26.0382  -16.3715  -16.0274 O   0  0  0  0  0  0  0  0  0  0  0  0
   26.7281  -16.7717  -15.0627 N   0  0  0  0  0  0  0  0  0  0  0  0
   26.5728  -16.4890  -17.3321 C   0  0  0  0  0  0  0  0  0  0  0  0
   27.8429  -17.1331  -17.6066 C   0  0  0  0  0  0  0  0  0  0  0  0
   28.1092  -17.1595  -19.0880 O   0  0  0  0  0  0  0  0  0  0  0  0
   29.3352  -17.5897  -19.5739 O   0  0  0  0  0  0  0  0  0  0  0  0
  1  2  1  0
  2  3  2  0
  2  4  1  0
  5  4  1  0
  6  5  1  0
  7  8  1  0
  7  6  1  0
  8 10  1  0
  8  9  1  6
 10 11  2  0
 10 12  1  0
 12 13  1  0
 13 14  1  1
 13 16  1  0
 15 14  1  0
 16 17  2  0
 18 16  1  0
 18 19  1  0
 20 21  1  0
 20 19  1  0
 22 20  2  0
M  END
$$$$
