RCG.pdb
     RDKit          3D

 22 21  0  0  1  0  0  0  0  0999 V2000
   25.0863  -18.5276  -17.4016 N   0  0  0  0  0  0  0  0  0  0  0  0
   25.8617  -17.5531  -18.1226 C   0  0  0  0  0  0  0  0  0  0  0  0
   25.3667  -16.9680  -19.1548 N   0  0  0  0  0  0  0  0  0  0  0  0
   27.1814  -17.2152  -17.7172 N   0  0  0  0  0  0  0  0  0  0  0  0
   27.7408  -17.7111  -16.4390 C   0  0  0  0  0  0  0  0  0  0  0  0
   26.8800  -18.8587  -16.0512 C   0  0  0  0  0  0  0  0  0  0  0  0
   26.5158  -18.9975  -14.6119 C   0  0  0  0  0  0  0  0  0  0  0  0
   27.2734  -20.0747  -13.9443 C   0  0  2  0  0  0  0  0  0  0  0  0
   27.9157  -20.9137  -14.9394 N   0  0  0  0  0  0  0  0  0  0  0  0
   26.3843  -20.9370  -13.0812 C   0  0  0  0  0  0  0  0  0  0  0  0
   25.7671  -21.9254  -13.5509 O   0  0  0  0  0  0  0  0  0  0  0  0
   25.8682  -16.2260  -19.6842 N   0  0  0  0  0  0  0  0  0  0  0  0
   26.2008  -20.6741  -11.6947 C   0  0  2  0  0  0  0  0  0  0  0  0
   25.2627  -21.4015  -10.8739 C   0  0  0  0  0  0  0  0  0  0  0  0
   25.5933  -21.1465   -9.4208 S   0  0  0  0  0  0  0  0  0  0  0  0
   25.5513  -19.4145   -8.9774 C   0  0  0  0  0  0  0  0  0  0  0  0
   23.8656  -20.9740  -11.1026 O   0  0  0  0  0  0  0  0  0  0  0  0
   23.6565  -19.8958  -11.7030 N   0  0  0  0  0  0  0  0  0  0  0  0
   22.7513  -21.7319  -10.6717 C   0  0  0  0  0  0  0  0  0  0  0  0
   21.3810  -21.3214  -10.9110 C   0  0  0  0  0  0  0  0  0  0  0  0
   21.0597  -21.3946  -12.3799 O   0  0  0  0  0  0  0  0  0  0  0  0
   20.8248  -20.2364  -13.1063 O   0  0  0  0  0  0  0  0  0  0  0  0
  1  2  1  0
  2  3  2  0
  2  4  1  0
  5  4  1  0
  6  5  1  0
  7  8  1  0
  7  6  1  0
  8 10  1  0
  8  9  1  6
 10 11  2  0
 10 12  1  0
 12 13  1  0
 13 14  1  1
 13 16  1  0
 15 14  1  0
 16 17  2  0
 18 16  1  0
 18 19  1  0
 20 21  1  0
 20 19  1  0
 22 20  2  0
M  END
$$$$
