RCG.pdb
     RDKit          3D

 22 21  0  0  1  0  0  0  0  0999 V2000
   28.2917  -25.4242  -16.3558 N   0  0  0  0  0  0  0  0  0  0  0  0
   29.7171  -25.5803  -16.4773 C   0  0  0  0  0  0  0  0  0  0  0  0
   30.2694  -26.7093  -16.2070 N   0  0  0  0  0  0  0  0  0  0  0  0
   30.5434  -24.5019  -16.8948 N   0  0  0  0  0  0  0  0  0  0  0  0
   29.9608  -23.2006  -17.2948 C   0  0  0  0  0  0  0  0  0  0  0  0
   28.9634  -22.8754  -16.2423 C   0  0  0  0  0  0  0  0  0  0  0  0
   28.1860  -21.6115  -16.3898 C   0  0  0  0  0  0  0  0  0  0  0  0
   27.3000  -21.6341  -17.5707 C   0  0  2  0  0  0  0  0  0  0  0  0
   27.7761  -20.6857  -18.5609 N   0  0  0  0  0  0  0  0  0  0  0  0
   25.8748  -21.2891  -17.2120 C   0  0  0  0  0  0  0  0  0  0  0  0
   25.4671  -20.1007  -17.1996 O   0  0  0  0  0  0  0  0  0  0  0  0
   31.2904  -26.8823  -16.3062 N   0  0  0  0  0  0  0  0  0  0  0  0
   24.9233  -22.2906  -16.8704 C   0  0  2  0  0  0  0  0  0  0  0  0
   23.5563  -21.9892  -16.5190 C   0  0  0  0  0  0  0  0  0  0  0  0
   22.7006  -23.1967  -16.8283 S   0  0  0  0  0  0  0  0  0  0  0  0
   21.0088  -23.0276  -16.2739 C   0  0  0  0  0  0  0  0  0  0  0  0
   23.4001  -21.6793  -15.0815 O   0  0  0  0  0  0  0  0  0  0  0  0
   24.2285  -22.1510  -14.2704 N   0  0  0  0  0  0  0  0  0  0  0  0
   22.3527  -20.8707  -14.5805 C   0  0  0  0  0  0  0  0  0  0  0  0
   22.2201  -20.5368  -13.1754 C   0  0  0  0  0  0  0  0  0  0  0  0
   20.9489  -19.7669  -12.9361 O   0  0  0  0  0  0  0  0  0  0  0  0
   20.1280  -19.4182  -13.9986 O   0  0  0  0  0  0  0  0  0  0  0  0
  1  2  1  0
  2  3  2  0
  2  4  1  0
  5  4  1  0
  6  5  1  0
  7  8  1  0
  7  6  1  0
  8 10  1  0
  8  9  1  6
 10 11  2  0
 10 12  1  0
 12 13  1  0
 13 14  1  6
 13 16  1  0
 15 14  1  0
 16 17  2  0
 18 16  1  0
 18 19  1  0
 20 21  1  0
 20 19  1  0
 22 20  2  0
M  END
$$$$
