RCG.pdb
     RDKit          3D

 22 21  0  0  1  0  0  0  0  0999 V2000
   18.5665  -19.3022  -14.6885 N   0  0  0  0  0  0  0  0  0  0  0  0
   18.4212  -19.7026  -16.0631 C   0  0  0  0  0  0  0  0  0  0  0  0
   17.2918  -20.1411  -16.4930 N   0  0  0  0  0  0  0  0  0  0  0  0
   19.5108  -19.6247  -16.9723 N   0  0  0  0  0  0  0  0  0  0  0  0
   20.8141  -19.0558  -16.5593 C   0  0  0  0  0  0  0  0  0  0  0  0
   21.4980  -20.1415  -15.8098 C   0  0  0  0  0  0  0  0  0  0  0  0
   22.9281  -19.9357  -15.4408 C   0  0  0  0  0  0  0  0  0  0  0  0
   23.0955  -18.8910  -14.4110 C   0  0  2  0  0  0  0  0  0  0  0  0
   23.0277  -17.5784  -15.0265 N   0  0  0  0  0  0  0  0  0  0  0  0
   24.4131  -19.0212  -13.6858 C   0  0  0  0  0  0  0  0  0  0  0  0
   25.3637  -18.2274  -13.8977 O   0  0  0  0  0  0  0  0  0  0  0  0
   17.1224  -20.4018  -17.4858 N   0  0  0  0  0  0  0  0  0  0  0  0
   24.6444  -20.0476  -12.7277 C   0  0  2  0  0  0  0  0  0  0  0  0
   25.9579  -20.3736  -12.2262 C   0  0  0  0  0  0  0  0  0  0  0  0
   25.8088  -21.0317  -10.8732 S   0  0  0  0  0  0  0  0  0  0  0  0
   26.0456  -19.9036   -9.5060 C   0  0  0  0  0  0  0  0  0  0  0  0
   26.6803  -21.3136  -13.1103 O   0  0  0  0  0  0  0  0  0  0  0  0
   26.3280  -22.5145  -13.1284 N   0  0  0  0  0  0  0  0  0  0  0  0
   27.7552  -20.9146  -13.9392 C   0  0  0  0  0  0  0  0  0  0  0  0
   28.4761  -21.8399  -14.7922 C   0  0  0  0  0  0  0  0  0  0  0  0
   28.0700  -21.6544  -16.2298 O   0  0  0  0  0  0  0  0  0  0  0  0
   28.8113  -22.2330  -17.2496 O   0  0  0  0  0  0  0  0  0  0  0  0
  1  2  1  0
  2  3  2  0
  2  4  1  0
  5  4  1  0
  6  5  1  0
  7  8  1  0
  7  6  1  0
  8 10  1  0
  8  9  1  6
 10 11  2  0
 10 12  1  0
 12 13  1  0
 13 14  1  6
 13 16  1  0
 15 14  1  0
 16 17  2  0
 18 16  1  0
 18 19  1  0
 20 21  1  0
 20 19  1  0
 22 20  2  0
M  END
$$$$
