RCG.pdb
     RDKit          3D

 22 21  0  0  1  0  0  0  0  0999 V2000
   19.4553  -24.5907   -8.0194 N   0  0  0  0  0  0  0  0  0  0  0  0
   18.1668  -24.5750   -8.6600 C   0  0  0  0  0  0  0  0  0  0  0  0
   17.0947  -24.6831   -7.9589 N   0  0  0  0  0  0  0  0  0  0  0  0
   18.0465  -24.4413  -10.0699 N   0  0  0  0  0  0  0  0  0  0  0  0
   19.2343  -24.2014  -10.9208 C   0  0  0  0  0  0  0  0  0  0  0  0
   19.5650  -22.7640  -10.7394 C   0  0  0  0  0  0  0  0  0  0  0  0
   20.6588  -22.1926  -11.5765 C   0  0  0  0  0  0  0  0  0  0  0  0
   20.8664  -20.7535  -11.3198 C   0  0  2  0  0  0  0  0  0  0  0  0
   20.0464  -19.9693  -12.2249 N   0  0  0  0  0  0  0  0  0  0  0  0
   22.3105  -20.3520  -11.4996 C   0  0  0  0  0  0  0  0  0  0  0  0
   22.7314  -19.8709  -12.5813 O   0  0  0  0  0  0  0  0  0  0  0  0
   16.1421  -24.7156   -8.3759 N   0  0  0  0  0  0  0  0  0  0  0  0
   23.2658  -20.4981  -10.4551 C   0  0  2  0  0  0  0  0  0  0  0  0
   24.6736  -20.2358  -10.6348 C   0  0  0  0  0  0  0  0  0  0  0  0
   25.3639  -20.3654   -9.2959 S   0  0  0  0  0  0  0  0  0  0  0  0
   27.1433  -20.2202   -9.3985 C   0  0  0  0  0  0  0  0  0  0  0  0
   25.3094  -21.1917  -11.5669 O   0  0  0  0  0  0  0  0  0  0  0  0
   25.2300  -22.4163  -11.3206 N   0  0  0  0  0  0  0  0  0  0  0  0
   26.0058  -20.7823  -12.7285 C   0  0  0  0  0  0  0  0  0  0  0  0
   26.6838  -21.7146  -13.6086 C   0  0  0  0  0  0  0  0  0  0  0  0
   27.2029  -21.0024  -14.8290 O   0  0  0  0  0  0  0  0  0  0  0  0
   28.0871  -21.6362  -15.6895 O   0  0  0  0  0  0  0  0  0  0  0  0
  1  2  1  0
  2  3  2  0
  2  4  1  0
  5  4  1  0
  6  5  1  0
  7  8  1  0
  7  6  1  0
  8 10  1  0
  8  9  1  6
 10 11  2  0
 10 12  1  0
 12 13  1  0
 13 14  1  1
 13 16  1  0
 15 14  1  0
 16 17  2  0
 18 16  1  0
 18 19  1  0
 20 21  1  0
 20 19  1  0
 22 20  2  0
M  END
$$$$
