RCG.pdb
     RDKit          3D

 22 21  0  0  1  0  0  0  0  0999 V2000
   20.1414  -22.3671  -12.5055 N   0  0  0  0  0  0  0  0  0  0  0  0
   20.6638  -22.0173  -13.7999 C   0  0  0  0  0  0  0  0  0  0  0  0
   19.8668  -21.8440  -14.7936 N   0  0  0  0  0  0  0  0  0  0  0  0
   22.0599  -21.8559  -14.0121 N   0  0  0  0  0  0  0  0  0  0  0  0
   23.0316  -22.0753  -12.9165 C   0  0  0  0  0  0  0  0  0  0  0  0
   22.6944  -21.0629  -11.8822 C   0  0  0  0  0  0  0  0  0  0  0  0
   23.7705  -20.1239  -11.4535 C   0  0  0  0  0  0  0  0  0  0  0  0
   24.9026  -20.8243  -10.8149 C   0  0  2  0  0  0  0  0  0  0  0  0
   24.8405  -20.6488   -9.3754 N   0  0  0  0  0  0  0  0  0  0  0  0
   26.2334  -20.3124  -11.3107 C   0  0  0  0  0  0  0  0  0  0  0  0
   26.6080  -19.1326  -11.0951 O   0  0  0  0  0  0  0  0  0  0  0  0
   20.1868  -21.5309  -15.7327 N   0  0  0  0  0  0  0  0  0  0  0  0
   27.1288  -21.1387  -12.0459 C   0  0  2  0  0  0  0  0  0  0  0  0
   28.3310  -20.6371  -12.6674 C   0  0  0  0  0  0  0  0  0  0  0  0
   29.5061  -21.4485  -12.1708 S   0  0  0  0  0  0  0  0  0  0  0  0
   29.9917  -21.0430  -10.4982 C   0  0  0  0  0  0  0  0  0  0  0  0
   28.2919  -20.7511  -14.1413 O   0  0  0  0  0  0  0  0  0  0  0  0
   28.0342  -21.8642  -14.6525 N   0  0  0  0  0  0  0  0  0  0  0  0
   28.5335  -19.6545  -15.0021 C   0  0  0  0  0  0  0  0  0  0  0  0
   28.5473  -19.7771  -16.4471 C   0  0  0  0  0  0  0  0  0  0  0  0
   27.1732  -19.5268  -17.0087 O   0  0  0  0  0  0  0  0  0  0  0  0
   26.3717  -20.5878  -17.4038 O   0  0  0  0  0  0  0  0  0  0  0  0
  1  2  1  0
  2  3  2  0
  2  4  1  0
  5  4  1  0
  6  5  1  0
  7  8  1  0
  7  6  1  0
  8 10  1  0
  8  9  1  1
 10 11  2  0
 10 12  1  0
 12 13  1  0
 13 14  1  1
 13 16  1  0
 15 14  1  0
 16 17  2  0
 18 16  1  0
 18 19  1  0
 20 21  1  0
 20 19  1  0
 22 20  2  0
M  END
$$$$
