YSY.pdb
     RDKit          3D

 31 32  0  0  1  0  0  0  0  0999 V2000
   28.7850  -14.8472  -19.5053 O   0  0  0  0  0  0  0  0  0  0  0  0
   27.6345  -15.5043  -19.0994 C   0  0  0  0  0  0  0  0  0  0  0  0
   27.5271  -15.8477  -17.7667 C   0  0  0  0  0  0  0  0  0  0  0  0
   26.3998  -16.5022  -17.3203 C   0  0  0  0  0  0  0  0  0  0  0  0
   25.3503  -16.8344  -18.1773 C   0  0  0  0  0  0  0  0  0  0  0  0
   24.1407  -17.5393  -17.6857 C   0  0  0  0  0  0  0  0  0  0  0  0
   24.5415  -18.9430  -17.2686 C   0  0  2  0  0  0  0  0  0  0  0  0
   25.0310  -19.6182  -18.4531 N   0  0  0  0  0  0  0  0  0  0  0  0
   23.3941  -19.6700  -16.6605 C   0  0  0  0  0  0  0  0  0  0  0  0
   22.5875  -20.3447  -17.3480 O   0  0  0  0  0  0  0  0  0  0  0  0
   25.5164  -16.4649  -19.4964 C   0  0  0  0  0  0  0  0  0  0  0  0
   26.6188  -15.8172  -19.9682 C   0  0  0  0  0  0  0  0  0  0  0  0
   21.6140  -21.8981  -12.9733 O   0  0  0  0  0  0  0  0  0  0  0  0
   22.6706  -21.1013  -13.4630 C   0  0  0  0  0  0  0  0  0  0  0  0
   22.0799  -20.2794  -14.5908 C   0  0  2  0  0  0  0  0  0  0  0  0
   23.1715  -19.6233  -15.2640 N   0  0  0  0  0  0  0  0  0  0  0  0
   21.1188  -19.3255  -13.9926 C   0  0  0  0  0  0  0  0  0  0  0  0
   21.4761  -18.3207  -13.3320 O   0  0  0  0  0  0  0  0  0  0  0  0
   18.8120  -12.5227  -15.0074 O   0  0  0  0  0  0  0  0  0  0  0  0
   18.6049  -13.8982  -14.9607 C   0  0  0  0  0  0  0  0  0  0  0  0
   17.7999  -14.3884  -13.9552 C   0  0  0  0  0  0  0  0  0  0  0  0
   17.5773  -15.7589  -13.8868 C   0  0  0  0  0  0  0  0  0  0  0  0
   18.1315  -16.6384  -14.7856 C   0  0  0  0  0  0  0  0  0  0  0  0
   17.8641  -18.1077  -14.6736 C   0  0  0  0  0  0  0  0  0  0  0  0
   18.7105  -18.7285  -13.5803 C   0  0  2  0  0  0  0  0  0  0  0  0
   19.7333  -19.5629  -14.1779 N   0  0  0  0  0  0  0  0  0  0  0  0
   17.7742  -19.5748  -12.7646 C   0  0  0  0  0  0  0  0  0  0  0  0
   17.7499  -20.8228  -12.9705 O   0  0  0  0  0  0  0  0  0  0  0  0
   18.9346  -16.1229  -15.7842 C   0  0  0  0  0  0  0  0  0  0  0  0
   19.1697  -14.7613  -15.8711 C   0  0  0  0  0  0  0  0  0  0  0  0
   16.9474  -19.0525  -11.8089 O   0  0  0  0  0  0  0  0  0  0  0  0
  2 12  2  0
  2  1  1  0
  3  2  1  0
  4  5  1  0
  4  3  2  0
  5 11  2  0
  6  5  1  0
  7  6  1  0
  7  8  1  6
  9  7  1  0
 10  9  2  0
 11 12  1  0
 13 14  1  0
 15 14  1  1
 15 16  1  0
 16  9  1  0
 17 15  1  0
 17 18  2  0
 20 19  1  0
 21 20  2  0
 22 21  1  0
 23 29  1  0
 23 22  2  0
 24 23  1  0
 25 26  1  0
 25 24  1  6
 26 17  1  0
 27 25  1  0
 28 27  2  0
 29 30  2  0
 30 20  1  0
 31 27  1  0
M  END
$$$$
