YSY.pdb
     RDKit          3D

 31 32  0  0  1  0  0  0  0  0999 V2000
   17.4169  -17.4040  -16.4948 O   0  0  0  0  0  0  0  0  0  0  0  0
   18.3520  -18.1007  -15.7463 C   0  0  0  0  0  0  0  0  0  0  0  0
   17.8841  -18.9639  -14.7760 C   0  0  0  0  0  0  0  0  0  0  0  0
   18.7794  -19.6767  -14.0087 C   0  0  0  0  0  0  0  0  0  0  0  0
   20.1587  -19.5557  -14.1792 C   0  0  0  0  0  0  0  0  0  0  0  0
   21.1140  -20.3283  -13.3473 C   0  0  0  0  0  0  0  0  0  0  0  0
   21.8894  -21.2660  -14.2553 C   0  0  2  0  0  0  0  0  0  0  0  0
   20.9732  -22.3040  -14.6816 N   0  0  0  0  0  0  0  0  0  0  0  0
   23.0719  -21.8358  -13.5540 C   0  0  0  0  0  0  0  0  0  0  0  0
   23.0199  -22.9229  -12.9263 O   0  0  0  0  0  0  0  0  0  0  0  0
   20.5643  -18.6781  -15.1638 C   0  0  0  0  0  0  0  0  0  0  0  0
   19.7038  -17.9594  -15.9387 C   0  0  0  0  0  0  0  0  0  0  0  0
   26.4025  -19.4843  -13.3782 O   0  0  0  0  0  0  0  0  0  0  0  0
   26.6732  -20.8690  -13.3973 C   0  0  0  0  0  0  0  0  0  0  0  0
   25.4590  -21.5360  -12.7832 C   0  0  2  0  0  0  0  0  0  0  0  0
   24.3143  -21.1590  -13.5723 N   0  0  0  0  0  0  0  0  0  0  0  0
   25.3619  -21.0806  -11.3779 C   0  0  0  0  0  0  0  0  0  0  0  0
   24.5122  -20.2436  -10.9889 O   0  0  0  0  0  0  0  0  0  0  0  0
   28.6162  -19.1109   -3.4568 O   0  0  0  0  0  0  0  0  0  0  0  0
   28.4546  -19.6551   -4.7275 C   0  0  0  0  0  0  0  0  0  0  0  0
   27.3999  -20.5207   -4.9214 C   0  0  0  0  0  0  0  0  0  0  0  0
   27.2168  -21.0778   -6.1817 C   0  0  0  0  0  0  0  0  0  0  0  0
   28.0498  -20.7951   -7.2374 C   0  0  0  0  0  0  0  0  0  0  0  0
   27.8145  -21.4187   -8.5785 C   0  0  0  0  0  0  0  0  0  0  0  0
   26.4382  -21.0638   -9.1047 C   0  0  2  0  0  0  0  0  0  0  0  0
   26.2726  -21.6178  -10.4333 N   0  0  0  0  0  0  0  0  0  0  0  0
   26.3958  -19.5630   -9.1690 C   0  0  0  0  0  0  0  0  0  0  0  0
   27.1573  -18.9696   -9.9866 O   0  0  0  0  0  0  0  0  0  0  0  0
   29.0998  -19.9248   -7.0181 C   0  0  0  0  0  0  0  0  0  0  0  0
   29.3008  -19.3584   -5.7709 C   0  0  0  0  0  0  0  0  0  0  0  0
   25.5686  -18.8119   -8.3808 O   0  0  0  0  0  0  0  0  0  0  0  0
  2 12  2  0
  2  1  1  0
  3  2  1  0
  4  5  1  0
  4  3  2  0
  5 11  2  0
  6  5  1  0
  7  6  1  0
  7  8  1  1
  9  7  1  0
 10  9  2  0
 11 12  1  0
 13 14  1  0
 15 14  1  6
 15 16  1  0
 16  9  1  0
 17 15  1  0
 17 18  2  0
 20 19  1  0
 21 20  2  0
 22 21  1  0
 23 29  1  0
 23 22  2  0
 24 23  1  0
 25 26  1  0
 25 24  1  6
 26 17  1  0
 27 25  1  0
 28 27  2  0
 29 30  2  0
 30 20  1  0
 31 27  1  0
M  END
$$$$
