YSY.pdb
     RDKit          3D

 31 32  0  0  1  0  0  0  0  0999 V2000
   27.1354  -16.2100  -21.2514 O   0  0  0  0  0  0  0  0  0  0  0  0
   26.9422  -16.9651  -20.1058 C   0  0  0  0  0  0  0  0  0  0  0  0
   25.8785  -17.8448  -20.0881 C   0  0  0  0  0  0  0  0  0  0  0  0
   25.6498  -18.6152  -18.9689 C   0  0  0  0  0  0  0  0  0  0  0  0
   26.4646  -18.5372  -17.8392 C   0  0  0  0  0  0  0  0  0  0  0  0
   26.2092  -19.3717  -16.6392 C   0  0  0  0  0  0  0  0  0  0  0  0
   27.2751  -20.4507  -16.5713 C   0  0  2  0  0  0  0  0  0  0  0  0
   26.9826  -21.4078  -17.6186 N   0  0  0  0  0  0  0  0  0  0  0  0
   27.2987  -21.0978  -15.2313 C   0  0  0  0  0  0  0  0  0  0  0  0
   26.5039  -22.0188  -14.9173 O   0  0  0  0  0  0  0  0  0  0  0  0
   27.5105  -17.6404  -17.9177 C   0  0  0  0  0  0  0  0  0  0  0  0
   27.7626  -16.8650  -19.0098 C   0  0  0  0  0  0  0  0  0  0  0  0
   29.6951  -19.3060  -12.6749 O   0  0  0  0  0  0  0  0  0  0  0  0
   29.4747  -20.6226  -12.2179 C   0  0  0  0  0  0  0  0  0  0  0  0
   28.1801  -21.0731  -12.8639 C   0  0  2  0  0  0  0  0  0  0  0  0
   28.2336  -20.6888  -14.2512 N   0  0  0  0  0  0  0  0  0  0  0  0
   27.0671  -20.4267  -12.1323 C   0  0  0  0  0  0  0  0  0  0  0  0
   26.6511  -19.2744  -12.4024 O   0  0  0  0  0  0  0  0  0  0  0  0
   21.7956  -19.9252  -15.4212 O   0  0  0  0  0  0  0  0  0  0  0  0
   22.3907  -20.2897  -14.2170 C   0  0  0  0  0  0  0  0  0  0  0  0
   21.9795  -19.6325  -13.0776 C   0  0  0  0  0  0  0  0  0  0  0  0
   22.5586  -19.9781  -11.8620 C   0  0  0  0  0  0  0  0  0  0  0  0
   23.5244  -20.9502  -11.7590 C   0  0  0  0  0  0  0  0  0  0  0  0
   24.1208  -21.2900  -10.4280 C   0  0  0  0  0  0  0  0  0  0  0  0
   25.4347  -20.5627  -10.2238 C   0  0  2  0  0  0  0  0  0  0  0  0
   26.4471  -21.1468  -11.0801 N   0  0  0  0  0  0  0  0  0  0  0  0
   25.8027  -20.7734   -8.7820 C   0  0  0  0  0  0  0  0  0  0  0  0
   25.0740  -20.2534   -7.8882 O   0  0  0  0  0  0  0  0  0  0  0  0
   23.9198  -21.5945  -12.9151 C   0  0  0  0  0  0  0  0  0  0  0  0
   23.3564  -21.2662  -14.1364 C   0  0  0  0  0  0  0  0  0  0  0  0
   26.8924  -21.5037   -8.3959 O   0  0  0  0  0  0  0  0  0  0  0  0
  2 12  2  0
  2  1  1  0
  3  2  1  0
  4  5  1  0
  4  3  2  0
  5 11  2  0
  6  5  1  0
  7  6  1  0
  7  8  1  6
  9  7  1  0
 10  9  2  0
 11 12  1  0
 13 14  1  0
 15 14  1  1
 15 16  1  0
 16  9  1  0
 17 15  1  0
 17 18  2  0
 20 19  1  0
 21 20  2  0
 22 21  1  0
 23 29  1  0
 23 22  2  0
 24 23  1  0
 25 26  1  0
 25 24  1  1
 26 17  1  0
 27 25  1  0
 28 27  2  0
 29 30  2  0
 30 20  1  0
 31 27  1  0
M  END
$$$$
