YSY.pdb
     RDKit          3D

 31 32  0  0  1  0  0  0  0  0999 V2000
   26.5247  -15.5555  -21.1938 O   0  0  0  0  0  0  0  0  0  0  0  0
   25.9520  -14.4030  -20.6801 C   0  0  0  0  0  0  0  0  0  0  0  0
   25.8225  -13.3187  -21.5245 C   0  0  0  0  0  0  0  0  0  0  0  0
   25.2584  -12.1526  -21.0549 C   0  0  0  0  0  0  0  0  0  0  0  0
   24.8081  -12.0269  -19.7405 C   0  0  0  0  0  0  0  0  0  0  0  0
   24.2020  -10.7664  -19.2451 C   0  0  0  0  0  0  0  0  0  0  0  0
   22.8921  -11.1040  -18.5558 C   0  0  2  0  0  0  0  0  0  0  0  0
   22.0415  -11.7401  -19.5409 N   0  0  0  0  0  0  0  0  0  0  0  0
   22.2542   -9.8845  -17.9895 C   0  0  0  0  0  0  0  0  0  0  0  0
   21.9008   -8.9169  -18.7087 O   0  0  0  0  0  0  0  0  0  0  0  0
   24.9648  -13.1442  -18.9459 C   0  0  0  0  0  0  0  0  0  0  0  0
   25.5184  -14.3111  -19.3809 C   0  0  0  0  0  0  0  0  0  0  0  0
   22.4772   -9.2674  -13.9483 O   0  0  0  0  0  0  0  0  0  0  0  0
   21.2157   -8.9686  -14.5053 C   0  0  0  0  0  0  0  0  0  0  0  0
   21.4784   -8.6065  -15.9530 C   0  0  2  0  0  0  0  0  0  0  0  0
   22.0215   -9.7744  -16.5982 N   0  0  0  0  0  0  0  0  0  0  0  0
   22.4131   -7.4585  -15.9640 C   0  0  0  0  0  0  0  0  0  0  0  0
   23.6089   -7.5556  -16.3307 O   0  0  0  0  0  0  0  0  0  0  0  0
   25.7791    0.3449  -17.2713 O   0  0  0  0  0  0  0  0  0  0  0  0
   25.1467   -0.8927  -17.1982 C   0  0  0  0  0  0  0  0  0  0  0  0
   23.7778   -0.9199  -17.3558 C   0  0  0  0  0  0  0  0  0  0  0  0
   23.1223   -2.1439  -17.2870 C   0  0  0  0  0  0  0  0  0  0  0  0
   23.7917   -3.3238  -17.0678 C   0  0  0  0  0  0  0  0  0  0  0  0
   23.0442   -4.6198  -17.0013 C   0  0  0  0  0  0  0  0  0  0  0  0
   22.7459   -4.9977  -15.5642 C   0  0  2  0  0  0  0  0  0  0  0  0
   21.9298   -6.1948  -15.5402 N   0  0  0  0  0  0  0  0  0  0  0  0
   21.9760   -3.8440  -14.9859 C   0  0  0  0  0  0  0  0  0  0  0  0
   22.6051   -2.7926  -14.6707 O   0  0  0  0  0  0  0  0  0  0  0  0
   25.1632   -3.2705  -16.9130 C   0  0  0  0  0  0  0  0  0  0  0  0
   25.8364   -2.0625  -16.9778 C   0  0  0  0  0  0  0  0  0  0  0  0
   20.6238   -3.8829  -14.7860 O   0  0  0  0  0  0  0  0  0  0  0  0
  2 12  2  0
  2  1  1  0
  3  2  1  0
  4  5  1  0
  4  3  2  0
  5 11  2  0
  6  5  1  0
  7  6  1  0
  7  8  1  6
  9  7  1  0
 10  9  2  0
 11 12  1  0
 13 14  1  0
 15 14  1  1
 15 16  1  0
 16  9  1  0
 17 15  1  0
 17 18  2  0
 20 19  1  0
 21 20  2  0
 22 21  1  0
 23 29  1  0
 23 22  2  0
 24 23  1  0
 25 26  1  0
 25 24  1  6
 26 17  1  0
 27 25  1  0
 28 27  2  0
 29 30  2  0
 30 20  1  0
 31 27  1  0
M  END
$$$$
