YSY.pdb
     RDKit          3D

 31 32  0  0  1  0  0  0  0  0999 V2000
   29.4799  -33.2290  -14.5020 O   0  0  0  0  0  0  0  0  0  0  0  0
   28.9065  -32.2771  -15.3297 C   0  0  0  0  0  0  0  0  0  0  0  0
   29.4295  -32.1305  -16.5988 C   0  0  0  0  0  0  0  0  0  0  0  0
   28.8894  -31.1956  -17.4548 C   0  0  0  0  0  0  0  0  0  0  0  0
   27.8198  -30.3820  -17.0803 C   0  0  0  0  0  0  0  0  0  0  0  0
   27.2458  -29.3784  -18.0103 C   0  0  0  0  0  0  0  0  0  0  0  0
   28.2533  -28.2561  -18.1843 C   0  0  2  0  0  0  0  0  0  0  0  0
   28.1788  -27.4264  -16.9991 N   0  0  0  0  0  0  0  0  0  0  0  0
   27.9750  -27.4719  -19.4182 C   0  0  0  0  0  0  0  0  0  0  0  0
   27.2735  -26.4296  -19.4064 O   0  0  0  0  0  0  0  0  0  0  0  0
   27.3413  -30.5755  -15.8006 C   0  0  0  0  0  0  0  0  0  0  0  0
   27.8538  -31.4914  -14.9311 C   0  0  0  0  0  0  0  0  0  0  0  0
   29.3387  -26.8220  -23.9750 O   0  0  0  0  0  0  0  0  0  0  0  0
   29.2918  -27.7459  -22.9096 C   0  0  0  0  0  0  0  0  0  0  0  0
   28.3198  -27.1659  -21.9021 C   0  0  2  0  0  0  0  0  0  0  0  0
   28.5009  -27.8828  -20.6657 N   0  0  0  0  0  0  0  0  0  0  0  0
   26.9562  -27.3174  -22.4582 C   0  0  0  0  0  0  0  0  0  0  0  0
   26.2748  -28.3615  -22.3196 O   0  0  0  0  0  0  0  0  0  0  0  0
   21.9770  -25.9468  -18.2287 O   0  0  0  0  0  0  0  0  0  0  0  0
   22.5736  -25.7095  -19.4635 C   0  0  0  0  0  0  0  0  0  0  0  0
   21.9696  -26.2498  -20.5782 C   0  0  0  0  0  0  0  0  0  0  0  0
   22.5460  -26.0273  -21.8235 C   0  0  0  0  0  0  0  0  0  0  0  0
   23.6943  -25.2888  -21.9795 C   0  0  0  0  0  0  0  0  0  0  0  0
   24.2802  -25.0745  -23.3410 C   0  0  0  0  0  0  0  0  0  0  0  0
   25.0826  -26.2831  -23.7796 C   0  0  2  0  0  0  0  0  0  0  0  0
   26.4003  -26.2304  -23.1790 N   0  0  0  0  0  0  0  0  0  0  0  0
   25.1990  -26.1804  -25.2743 C   0  0  0  0  0  0  0  0  0  0  0  0
   24.1423  -26.2202  -25.9688 O   0  0  0  0  0  0  0  0  0  0  0  0
   24.2809  -24.7577  -20.8474 C   0  0  0  0  0  0  0  0  0  0  0  0
   23.7240  -24.9668  -19.5973 C   0  0  0  0  0  0  0  0  0  0  0  0
   26.3993  -26.0457  -25.9153 O   0  0  0  0  0  0  0  0  0  0  0  0
  2 12  2  0
  2  1  1  0
  3  2  1  0
  4  5  1  0
  4  3  2  0
  5 11  2  0
  6  5  1  0
  7  6  1  0
  7  8  1  1
  9  7  1  0
 10  9  2  0
 11 12  1  0
 13 14  1  0
 15 14  1  6
 15 16  1  0
 16  9  1  0
 17 15  1  0
 17 18  2  0
 20 19  1  0
 21 20  2  0
 22 21  1  0
 23 29  1  0
 23 22  2  0
 24 23  1  0
 25 26  1  0
 25 24  1  1
 26 17  1  0
 27 25  1  0
 28 27  2  0
 29 30  2  0
 30 20  1  0
 31 27  1  0
M  END
$$$$
