YSY.pdb
     RDKit          3D

 31 32  0  0  1  0  0  0  0  0999 V2000
   20.8218  -20.5270  -12.6246 O   0  0  0  0  0  0  0  0  0  0  0  0
   21.6764  -21.4579  -13.1930 C   0  0  0  0  0  0  0  0  0  0  0  0
   21.1510  -22.6879  -13.5348 C   0  0  0  0  0  0  0  0  0  0  0  0
   21.9657  -23.6431  -14.1026 C   0  0  0  0  0  0  0  0  0  0  0  0
   23.3190  -23.4089  -14.3475 C   0  0  0  0  0  0  0  0  0  0  0  0
   24.1873  -24.4448  -14.9596 C   0  0  0  0  0  0  0  0  0  0  0  0
   24.6810  -23.9252  -16.2980 C   0  0  2  0  0  0  0  0  0  0  0  0
   23.5119  -23.5823  -17.0817 N   0  0  0  0  0  0  0  0  0  0  0  0
   25.5235  -24.9388  -16.9891 C   0  0  0  0  0  0  0  0  0  0  0  0
   25.0410  -25.9897  -17.4804 O   0  0  0  0  0  0  0  0  0  0  0  0
   23.7848  -22.1618  -13.9843 C   0  0  0  0  0  0  0  0  0  0  0  0
   23.0046  -21.1966  -13.4212 C   0  0  0  0  0  0  0  0  0  0  0  0
   29.6484  -24.6897  -16.7362 O   0  0  0  0  0  0  0  0  0  0  0  0
   29.1169  -24.9249  -18.0220 C   0  0  0  0  0  0  0  0  0  0  0  0
   27.8067  -25.6533  -17.8008 C   0  0  2  0  0  0  0  0  0  0  0  0
   26.9196  -24.7475  -17.1169 N   0  0  0  0  0  0  0  0  0  0  0  0
   28.1004  -26.8721  -17.0135 C   0  0  0  0  0  0  0  0  0  0  0  0
   27.8299  -26.9778  -15.7930 O   0  0  0  0  0  0  0  0  0  0  0  0
   28.1027  -35.1161  -14.6548 O   0  0  0  0  0  0  0  0  0  0  0  0
   27.9675  -33.8563  -15.2305 C   0  0  0  0  0  0  0  0  0  0  0  0
   27.8109  -32.7810  -14.3828 C   0  0  0  0  0  0  0  0  0  0  0  0
   27.6738  -31.5118  -14.9331 C   0  0  0  0  0  0  0  0  0  0  0  0
   27.6892  -31.2943  -16.2899 C   0  0  0  0  0  0  0  0  0  0  0  0
   27.5380  -29.9091  -16.8386 C   0  0  0  0  0  0  0  0  0  0  0  0
   28.8917  -29.2593  -17.0441 C   0  0  2  0  0  0  0  0  0  0  0  0
   28.7150  -27.9661  -17.6734 N   0  0  0  0  0  0  0  0  0  0  0  0
   29.6527  -30.1736  -17.9625 C   0  0  0  0  0  0  0  0  0  0  0  0
   29.3642  -30.1728  -19.1943 O   0  0  0  0  0  0  0  0  0  0  0  0
   27.8474  -32.3879  -17.1187 C   0  0  0  0  0  0  0  0  0  0  0  0
   27.9857  -33.6609  -16.5922 C   0  0  0  0  0  0  0  0  0  0  0  0
   30.6440  -31.0064  -17.5225 O   0  0  0  0  0  0  0  0  0  0  0  0
  2 12  2  0
  2  1  1  0
  3  2  1  0
  4  5  1  0
  4  3  2  0
  5 11  2  0
  6  5  1  0
  7  6  1  0
  7  8  1  6
  9  7  1  0
 10  9  2  0
 11 12  1  0
 13 14  1  0
 15 14  1  1
 15 16  1  0
 16  9  1  0
 17 15  1  0
 17 18  2  0
 20 19  1  0
 21 20  2  0
 22 21  1  0
 23 29  1  0
 23 22  2  0
 24 23  1  0
 25 26  1  0
 25 24  1  6
 26 17  1  0
 27 25  1  0
 28 27  2  0
 29 30  2  0
 30 20  1  0
 31 27  1  0
M  END
$$$$
