YSY.pdb
     RDKit          3D

 31 32  0  0  1  0  0  0  0  0999 V2000
   26.6001  -16.5012  -23.6358 O   0  0  0  0  0  0  0  0  0  0  0  0
   26.4194  -17.2801  -22.5041 C   0  0  0  0  0  0  0  0  0  0  0  0
   25.9897  -18.5800  -22.6808 C   0  0  0  0  0  0  0  0  0  0  0  0
   25.7971  -19.3894  -21.5825 C   0  0  0  0  0  0  0  0  0  0  0  0
   26.0234  -18.9367  -20.2825 C   0  0  0  0  0  0  0  0  0  0  0  0
   25.8128  -19.8171  -19.1067 C   0  0  0  0  0  0  0  0  0  0  0  0
   27.1635  -20.3425  -18.6546 C   0  0  2  0  0  0  0  0  0  0  0  0
   27.5754  -21.3466  -19.6140 N   0  0  0  0  0  0  0  0  0  0  0  0
   27.0879  -20.9016  -17.2774 C   0  0  0  0  0  0  0  0  0  0  0  0
   26.6594  -22.0599  -17.0466 O   0  0  0  0  0  0  0  0  0  0  0  0
   26.4513  -17.6296  -20.1709 C   0  0  0  0  0  0  0  0  0  0  0  0
   26.6510  -16.8047  -21.2373 C   0  0  0  0  0  0  0  0  0  0  0  0
   28.4948  -18.5521  -14.3182 O   0  0  0  0  0  0  0  0  0  0  0  0
   28.5833  -19.9345  -14.0497 C   0  0  0  0  0  0  0  0  0  0  0  0
   27.4303  -20.5750  -14.7958 C   0  0  2  0  0  0  0  0  0  0  0  0
   27.5035  -20.1327  -16.1648 N   0  0  0  0  0  0  0  0  0  0  0  0
   26.1779  -20.1592  -14.1250 C   0  0  0  0  0  0  0  0  0  0  0  0
   25.5501  -19.1186  -14.4361 O   0  0  0  0  0  0  0  0  0  0  0  0
   18.6381  -19.6767   -9.9800 O   0  0  0  0  0  0  0  0  0  0  0  0
   19.7922  -20.0479  -10.6636 C   0  0  0  0  0  0  0  0  0  0  0  0
   20.0803  -21.3932  -10.7455 C   0  0  0  0  0  0  0  0  0  0  0  0
   21.2274  -21.7900  -11.4231 C   0  0  0  0  0  0  0  0  0  0  0  0
   22.0810  -20.8884  -12.0121 C   0  0  0  0  0  0  0  0  0  0  0  0
   23.3060  -21.3613  -12.7322 C   0  0  0  0  0  0  0  0  0  0  0  0
   24.5307  -20.5946  -12.2748 C   0  0  2  0  0  0  0  0  0  0  0  0
   25.6694  -20.9776  -13.0849 N   0  0  0  0  0  0  0  0  0  0  0  0
   24.7614  -21.0006  -10.8464 C   0  0  0  0  0  0  0  0  0  0  0  0
   25.4771  -22.0174  -10.6132 O   0  0  0  0  0  0  0  0  0  0  0  0
   21.7707  -19.5458  -11.9163 C   0  0  0  0  0  0  0  0  0  0  0  0
   20.6334  -19.1283  -11.2462 C   0  0  0  0  0  0  0  0  0  0  0  0
   24.2302  -20.3170   -9.7880 O   0  0  0  0  0  0  0  0  0  0  0  0
  2 12  2  0
  2  1  1  0
  3  2  1  0
  4  5  1  0
  4  3  2  0
  5 11  2  0
  6  5  1  0
  7  6  1  0
  7  8  1  6
  9  7  1  0
 10  9  2  0
 11 12  1  0
 13 14  1  0
 15 14  1  1
 15 16  1  0
 16  9  1  0
 17 15  1  0
 17 18  2  0
 20 19  1  0
 21 20  2  0
 22 21  1  0
 23 29  1  0
 23 22  2  0
 24 23  1  0
 25 26  1  0
 25 24  1  6
 26 17  1  0
 27 25  1  0
 28 27  2  0
 29 30  2  0
 30 20  1  0
 31 27  1  0
M  END
$$$$
