YSY.pdb
     RDKit          3D

 31 32  0  0  1  0  0  0  0  0999 V2000
   31.2665  -18.6910  -18.8518 O   0  0  0  0  0  0  0  0  0  0  0  0
   30.1156  -18.2811  -18.1981 C   0  0  0  0  0  0  0  0  0  0  0  0
   29.3450  -19.2491  -17.5861 C   0  0  0  0  0  0  0  0  0  0  0  0
   28.1922  -18.8853  -16.9248 C   0  0  0  0  0  0  0  0  0  0  0  0
   27.7708  -17.5575  -16.8507 C   0  0  0  0  0  0  0  0  0  0  0  0
   26.5275  -17.1768  -16.1358 C   0  0  0  0  0  0  0  0  0  0  0  0
   25.3553  -17.3633  -17.0824 C   0  0  2  0  0  0  0  0  0  0  0  0
   25.4696  -16.3489  -18.1103 N   0  0  0  0  0  0  0  0  0  0  0  0
   24.0594  -17.2625  -16.3576 C   0  0  0  0  0  0  0  0  0  0  0  0
   23.3913  -16.1990  -16.3228 O   0  0  0  0  0  0  0  0  0  0  0  0
   28.5825  -16.6370  -17.4815 C   0  0  0  0  0  0  0  0  0  0  0  0
   29.7278  -16.9654  -18.1432 C   0  0  0  0  0  0  0  0  0  0  0  0
   19.9474  -18.1444  -15.5695 O   0  0  0  0  0  0  0  0  0  0  0  0
   21.2152  -18.1434  -16.1891 C   0  0  0  0  0  0  0  0  0  0  0  0
   22.2143  -18.4296  -15.0864 C   0  0  2  0  0  0  0  0  0  0  0  0
   23.5293  -18.3813  -15.6724 N   0  0  0  0  0  0  0  0  0  0  0  0
   21.8871  -19.7579  -14.5205 C   0  0  0  0  0  0  0  0  0  0  0  0
   21.9221  -20.8147  -15.1957 O   0  0  0  0  0  0  0  0  0  0  0  0
   27.4483  -20.5456  -10.7523 O   0  0  0  0  0  0  0  0  0  0  0  0
   26.0668  -20.6809  -10.8524 C   0  0  0  0  0  0  0  0  0  0  0  0
   25.2873  -19.8811  -10.0450 C   0  0  0  0  0  0  0  0  0  0  0  0
   23.9044  -19.9970  -10.1260 C   0  0  0  0  0  0  0  0  0  0  0  0
   23.2906  -20.8799  -10.9818 C   0  0  0  0  0  0  0  0  0  0  0  0
   21.7968  -20.9709  -11.0357 C   0  0  0  0  0  0  0  0  0  0  0  0
   21.3149  -21.0933  -12.4674 C   0  0  2  0  0  0  0  0  0  0  0  0
   21.5183  -19.8334  -13.1536 N   0  0  0  0  0  0  0  0  0  0  0  0
   19.8454  -21.3966  -12.3832 C   0  0  0  0  0  0  0  0  0  0  0  0
   19.0202  -20.4649  -12.6097 O   0  0  0  0  0  0  0  0  0  0  0  0
   24.0933  -21.6705  -11.7808 C   0  0  0  0  0  0  0  0  0  0  0  0
   25.4727  -21.5716  -11.7165 C   0  0  0  0  0  0  0  0  0  0  0  0
   19.3629  -22.6376  -12.0720 O   0  0  0  0  0  0  0  0  0  0  0  0
  2 12  2  0
  2  1  1  0
  3  2  1  0
  4  5  1  0
  4  3  2  0
  5 11  2  0
  6  5  1  0
  7  6  1  0
  7  8  1  6
  9  7  1  0
 10  9  2  0
 11 12  1  0
 13 14  1  0
 15 14  1  6
 15 16  1  0
 16  9  1  0
 17 15  1  0
 17 18  2  0
 20 19  1  0
 21 20  2  0
 22 21  1  0
 23 29  1  0
 23 22  2  0
 24 23  1  0
 25 26  1  0
 25 24  1  1
 26 17  1  0
 27 25  1  0
 28 27  2  0
 29 30  2  0
 30 20  1  0
 31 27  1  0
M  END
$$$$
