YSY.pdb
     RDKit          3D

 31 32  0  0  1  0  0  0  0  0999 V2000
   19.5764  -10.7925  -26.3508 O   0  0  0  0  0  0  0  0  0  0  0  0
   19.9507  -10.2469  -25.1333 C   0  0  0  0  0  0  0  0  0  0  0  0
   19.1654  -10.5300  -24.0339 C   0  0  0  0  0  0  0  0  0  0  0  0
   19.5013  -10.0079  -22.8038 C   0  0  0  0  0  0  0  0  0  0  0  0
   20.6202   -9.1936  -22.6274 C   0  0  0  0  0  0  0  0  0  0  0  0
   20.9728   -8.6367  -21.2980 C   0  0  0  0  0  0  0  0  0  0  0  0
   22.2592   -9.2934  -20.8303 C   0  0  2  0  0  0  0  0  0  0  0  0
   21.9701  -10.6966  -20.6155 N   0  0  0  0  0  0  0  0  0  0  0  0
   22.7726   -8.6460  -19.5925 C   0  0  0  0  0  0  0  0  0  0  0  0
   22.6720   -9.1854  -18.4623 O   0  0  0  0  0  0  0  0  0  0  0  0
   21.3647   -8.9471  -23.7628 C   0  0  0  0  0  0  0  0  0  0  0  0
   21.0586   -9.4486  -24.9926 C   0  0  0  0  0  0  0  0  0  0  0  0
   23.8223   -4.8292  -19.9531 O   0  0  0  0  0  0  0  0  0  0  0  0
   24.6638   -5.4616  -19.0135 C   0  0  0  0  0  0  0  0  0  0  0  0
   23.8869   -6.6580  -18.5023 C   0  0  2  0  0  0  0  0  0  0  0  0
   23.4015   -7.3799  -19.6506 N   0  0  0  0  0  0  0  0  0  0  0  0
   22.7953   -6.1477  -17.6424 C   0  0  0  0  0  0  0  0  0  0  0  0
   21.6691   -5.8232  -18.0897 O   0  0  0  0  0  0  0  0  0  0  0  0
   19.2862  -11.3023  -15.8260 O   0  0  0  0  0  0  0  0  0  0  0  0
   19.8930  -10.1202  -15.4121 C   0  0  0  0  0  0  0  0  0  0  0  0
   21.2693  -10.0614  -15.4527 C   0  0  0  0  0  0  0  0  0  0  0  0
   21.8996   -8.8916  -15.0445 C   0  0  0  0  0  0  0  0  0  0  0  0
   21.1983   -7.7953  -14.6032 C   0  0  0  0  0  0  0  0  0  0  0  0
   21.9195   -6.5553  -14.1730 C   0  0  0  0  0  0  0  0  0  0  0  0
   22.0272   -5.5687  -15.3184 C   0  0  2  0  0  0  0  0  0  0  0  0
   23.0390   -6.0220  -16.2513 N   0  0  0  0  0  0  0  0  0  0  0  0
   22.4499   -4.2653  -14.7013 C   0  0  0  0  0  0  0  0  0  0  0  0
   23.6115   -3.8275  -14.9453 O   0  0  0  0  0  0  0  0  0  0  0  0
   19.8199   -7.8787  -14.5717 C   0  0  0  0  0  0  0  0  0  0  0  0
   19.1715   -9.0340  -14.9736 C   0  0  0  0  0  0  0  0  0  0  0  0
   21.6315   -3.5325  -13.8870 O   0  0  0  0  0  0  0  0  0  0  0  0
  2 12  2  0
  2  1  1  0
  3  2  1  0
  4  5  1  0
  4  3  2  0
  5 11  2  0
  6  5  1  0
  7  6  1  0
  7  8  1  1
  9  7  1  0
 10  9  2  0
 11 12  1  0
 13 14  1  0
 15 14  1  6
 15 16  1  0
 16  9  1  0
 17 15  1  0
 17 18  2  0
 20 19  1  0
 21 20  2  0
 22 21  1  0
 23 29  1  0
 23 22  2  0
 24 23  1  0
 25 26  1  0
 25 24  1  1
 26 17  1  0
 27 25  1  0
 28 27  2  0
 29 30  2  0
 30 20  1  0
 31 27  1  0
M  END
$$$$
