NRN.pdb
     RDKit          3D

 28 27  0  0  1  0  0  0  0  0999 V2000
    6.8477  -11.3847   19.1237 N   0  0  0  0  0  0  0  0  0  0  0  0
    6.9502  -12.7108   18.6463 C   0  0  0  0  0  0  0  0  0  0  0  0
    6.6594  -12.9752   17.4606 O   0  0  0  0  0  0  0  0  0  0  0  0
    7.3996  -13.7763   19.5493 C   0  0  0  0  0  0  0  0  0  0  0  0
    8.8945  -13.8516   19.6700 C   0  0  2  0  0  0  0  0  0  0  0  0
    9.5829  -13.8493   18.4070 N   0  0  0  0  0  0  0  0  0  0  0  0
    9.2149  -15.0995   20.4529 C   0  0  0  0  0  0  0  0  0  0  0  0
    8.7099  -15.3008   21.5859 O   0  0  0  0  0  0  0  0  0  0  0  0
    9.7594  -18.8640   15.1996 N   0  0  0  0  0  0  0  0  0  0  0  0
    8.3899  -18.8714   15.5505 C   0  0  0  0  0  0  0  0  0  0  0  0
    7.4886  -18.5817   14.6580 N   0  0  0  0  0  0  0  0  0  0  0  0
    7.9425  -19.1884   16.8657 N   0  0  0  0  0  0  0  0  0  0  0  0
    8.9324  -19.4405   17.8754 C   0  0  0  0  0  0  0  0  0  0  0  0
    9.0154  -18.2052   18.7699 C   0  0  0  0  0  0  0  0  0  0  0  0
   10.0255  -18.4922   19.8438 C   0  0  0  0  0  0  0  0  0  0  0  0
   10.3749  -17.3057   20.6786 C   0  0  2  0  0  0  0  0  0  0  0  0
   10.0933  -16.0950   19.9510 N   0  0  0  0  0  0  0  0  0  0  0  0
   11.7328  -17.2857   21.1990 C   0  0  0  0  0  0  0  0  0  0  0  0
   12.3124  -18.2608   21.7431 O   0  0  0  0  0  0  0  0  0  0  0  0
    6.4731  -18.5430   14.8881 N   0  0  0  0  0  0  0  0  0  0  0  0
   14.3689  -14.1541   18.4594 C   0  0  0  0  0  0  0  0  0  0  0  0
   14.7096  -15.2000   19.4043 O   0  0  0  0  0  0  0  0  0  0  0  0
   15.1183  -16.2930   18.9614 C   0  0  0  0  0  0  0  0  0  0  0  0
   14.5635  -14.9388   20.8283 C   0  0  2  0  0  0  0  0  0  0  0  0
   13.9000  -16.0425   21.6128 N   0  0  0  0  0  0  0  0  0  0  0  0
   12.4959  -16.0900   21.1041 C   0  0  0  0  0  0  0  0  0  0  0  0
   13.8325  -15.6302   23.0302 O   0  0  0  0  0  0  0  0  0  0  0  0
   12.6057  -15.3765   23.6082 O   0  0  0  0  0  0  0  0  0  0  0  0
  2  3  2  0
  2  1  1  0
  4  2  1  0
  5  6  1  6
  5  4  1  0
  7  5  1  0
  8  7  2  0
 10  9  1  0
 10 12  1  0
 11 10  2  0
 12 13  1  0
 13 14  1  0
 16 15  1  6
 15 14  1  0
 16 17  1  0
 17  7  1  0
 18 16  1  0
 19 18  2  0
 20 21  1  0
 21 22  2  0
 23 21  1  0
 24 23  1  6
 24 25  1  0
 25 18  1  0
 26 27  1  0
 26 24  1  0
 28 26  2  0
M  END
$$$$
