NRN.pdb
     RDKit          3D

 28 27  0  0  1  0  0  0  0  0999 V2000
    1.9612  -18.4219   22.0485 N   0  0  0  0  0  0  0  0  0  0  0  0
    2.7887  -19.0227   21.0732 C   0  0  0  0  0  0  0  0  0  0  0  0
    2.3172  -19.3443   19.9621 O   0  0  0  0  0  0  0  0  0  0  0  0
    4.2043  -19.2675   21.3710 C   0  0  0  0  0  0  0  0  0  0  0  0
    4.5878  -18.8689   22.7671 C   0  0  2  0  0  0  0  0  0  0  0  0
    3.7855  -17.8065   23.3119 N   0  0  0  0  0  0  0  0  0  0  0  0
    6.0435  -18.4785   22.7338 C   0  0  0  0  0  0  0  0  0  0  0  0
    6.9270  -19.3014   22.3855 O   0  0  0  0  0  0  0  0  0  0  0  0
    7.1824  -12.3420   19.4316 N   0  0  0  0  0  0  0  0  0  0  0  0
    8.3773  -13.0864   19.5610 C   0  0  0  0  0  0  0  0  0  0  0  0
    9.4891  -12.6217   19.0702 N   0  0  0  0  0  0  0  0  0  0  0  0
    8.4200  -14.3499   20.2186 N   0  0  0  0  0  0  0  0  0  0  0  0
    7.1749  -15.0035   20.5111 C   0  0  0  0  0  0  0  0  0  0  0  0
    6.8820  -14.8112   21.9978 C   0  0  0  0  0  0  0  0  0  0  0  0
    8.0409  -15.3822   22.7639 C   0  0  0  0  0  0  0  0  0  0  0  0
    7.8737  -16.8185   23.1325 C   0  0  2  0  0  0  0  0  0  0  0  0
    6.4790  -17.1756   23.0910 N   0  0  0  0  0  0  0  0  0  0  0  0
    8.4647  -17.2108   24.4022 C   0  0  0  0  0  0  0  0  0  0  0  0
    7.9117  -17.0865   25.5254 O   0  0  0  0  0  0  0  0  0  0  0  0
   10.3676  -13.1817   19.0609 N   0  0  0  0  0  0  0  0  0  0  0  0
    9.0776  -21.3219   24.7795 C   0  0  0  0  0  0  0  0  0  0  0  0
    9.4928  -20.4280   25.8432 O   0  0  0  0  0  0  0  0  0  0  0  0
    8.8168  -20.3955   26.8919 C   0  0  0  0  0  0  0  0  0  0  0  0
   10.6772  -19.6050   25.6507 C   0  0  2  0  0  0  0  0  0  0  0  0
   10.4350  -18.1178   25.7093 N   0  0  0  0  0  0  0  0  0  0  0  0
    9.7663  -17.7823   24.4160 C   0  0  0  0  0  0  0  0  0  0  0  0
   11.7443  -17.4327   25.7093 O   0  0  0  0  0  0  0  0  0  0  0  0
   12.5620  -17.5261   26.8166 O   0  0  0  0  0  0  0  0  0  0  0  0
  2  3  2  0
  2  1  1  0
  4  2  1  0
  5  6  1  6
  5  4  1  0
  7  5  1  0
  8  7  2  0
 10  9  1  0
 10 12  1  0
 11 10  2  0
 12 13  1  0
 13 14  1  0
 16 15  1  1
 15 14  1  0
 16 17  1  0
 17  7  1  0
 18 16  1  0
 19 18  2  0
 20 21  1  0
 21 22  2  0
 23 21  1  0
 24 23  1  1
 24 25  1  0
 25 18  1  0
 26 27  1  0
 26 24  1  0
 28 26  2  0
M  END
$$$$
