NRN.pdb
     RDKit          3D

 28 27  0  0  1  0  0  0  0  0999 V2000
   16.0420  -16.5365   16.4645 N   0  0  0  0  0  0  0  0  0  0  0  0
   15.1781  -17.3905   17.1866 C   0  0  0  0  0  0  0  0  0  0  0  0
   15.2602  -18.6291   17.0480 O   0  0  0  0  0  0  0  0  0  0  0  0
   14.1840  -16.8161   18.1001 C   0  0  0  0  0  0  0  0  0  0  0  0
   14.2097  -17.4428   19.4646 C   0  0  2  0  0  0  0  0  0  0  0  0
   13.6146  -18.7513   19.5171 N   0  0  0  0  0  0  0  0  0  0  0  0
   13.5051  -16.4954   20.4020 C   0  0  0  0  0  0  0  0  0  0  0  0
   14.0073  -15.3814   20.6952 O   0  0  0  0  0  0  0  0  0  0  0  0
    6.6107  -13.2344   18.5733 N   0  0  0  0  0  0  0  0  0  0  0  0
    7.8160  -12.6173   18.9792 C   0  0  0  0  0  0  0  0  0  0  0  0
    7.9057  -11.3194   19.0037 N   0  0  0  0  0  0  0  0  0  0  0  0
    8.9619  -13.3684   19.3710 N   0  0  0  0  0  0  0  0  0  0  0  0
    8.8461  -14.7988   19.4300 C   0  0  0  0  0  0  0  0  0  0  0  0
   10.2132  -15.3648   19.8091 C   0  0  0  0  0  0  0  0  0  0  0  0
   10.2139  -15.5869   21.2946 C   0  0  0  0  0  0  0  0  0  0  0  0
   11.5594  -15.8994   21.8591 C   0  0  2  0  0  0  0  0  0  0  0  0
   12.2540  -16.8152   20.9911 N   0  0  0  0  0  0  0  0  0  0  0  0
   11.5643  -16.3892   23.2285 C   0  0  0  0  0  0  0  0  0  0  0  0
   10.8564  -15.9309   24.1621 O   0  0  0  0  0  0  0  0  0  0  0  0
    8.7862  -10.8297   19.2693 N   0  0  0  0  0  0  0  0  0  0  0  0
   11.9968  -19.5486   27.2728 C   0  0  0  0  0  0  0  0  0  0  0  0
   10.9047  -19.4868   26.3208 O   0  0  0  0  0  0  0  0  0  0  0  0
    9.8453  -20.0895   26.5895 C   0  0  0  0  0  0  0  0  0  0  0  0
   11.0823  -18.7277   25.0921 C   0  0  1  0  0  0  0  0  0  0  0  0
   12.4120  -18.0285   24.9627 N   0  0  0  0  0  0  0  0  0  0  0  0
   12.4222  -17.4675   23.5779 C   0  0  0  0  0  0  0  0  0  0  0  0
   13.4811  -19.0466   25.0245 O   0  0  0  0  0  0  0  0  0  0  0  0
   13.8001  -19.6270   26.2348 O   0  0  0  0  0  0  0  0  0  0  0  0
  2  3  2  0
  2  1  1  0
  4  2  1  0
  5  6  1  6
  5  4  1  0
  7  5  1  0
  8  7  2  0
 10  9  1  0
 10 12  1  0
 11 10  2  0
 12 13  1  0
 13 14  1  0
 16 15  1  6
 15 14  1  0
 16 17  1  0
 17  7  1  0
 18 16  1  0
 19 18  2  0
 20 21  1  0
 21 22  2  0
 23 21  1  0
 24 23  1  1
 24 25  1  0
 25 18  1  0
 26 27  1  0
 26 24  1  0
 28 26  2  0
M  END
$$$$
