NRN.pdb
     RDKit          3D

 28 27  0  0  1  0  0  0  0  0999 V2000
   11.0138  -19.1313   14.3864 N   0  0  0  0  0  0  0  0  0  0  0  0
   10.0402  -18.2977   14.9817 C   0  0  0  0  0  0  0  0  0  0  0  0
    9.6155  -17.2940   14.3715 O   0  0  0  0  0  0  0  0  0  0  0  0
    9.5302  -18.6160   16.3201 C   0  0  0  0  0  0  0  0  0  0  0  0
   10.1330  -19.8649   16.8962 C   0  0  2  0  0  0  0  0  0  0  0  0
    9.6069  -21.0800   16.3340 N   0  0  0  0  0  0  0  0  0  0  0  0
    9.9065  -19.8214   18.3860 C   0  0  0  0  0  0  0  0  0  0  0  0
   10.4073  -18.9096   19.0909 O   0  0  0  0  0  0  0  0  0  0  0  0
    5.4423  -23.5494   23.3054 N   0  0  0  0  0  0  0  0  0  0  0  0
    4.8824  -23.9293   22.0641 C   0  0  0  0  0  0  0  0  0  0  0  0
    3.6116  -24.1951   21.9783 N   0  0  0  0  0  0  0  0  0  0  0  0
    5.6636  -24.0369   20.8772 N   0  0  0  0  0  0  0  0  0  0  0  0
    7.0909  -23.9262   20.9937 C   0  0  0  0  0  0  0  0  0  0  0  0
    7.5565  -22.8328   20.0341 C   0  0  0  0  0  0  0  0  0  0  0  0
    7.6999  -21.5660   20.8282 C   0  0  0  0  0  0  0  0  0  0  0  0
    8.9104  -20.7664   20.4786 C   0  0  2  0  0  0  0  0  0  0  0  0
    9.1245  -20.7992   19.0546 N   0  0  0  0  0  0  0  0  0  0  0  0
   10.1268  -21.1316   21.1872 C   0  0  0  0  0  0  0  0  0  0  0  0
   10.9047  -22.0628   20.8546 O   0  0  0  0  0  0  0  0  0  0  0  0
    3.1554  -24.4347   21.0727 N   0  0  0  0  0  0  0  0  0  0  0  0
   13.9827  -21.3212   21.5618 C   0  0  0  0  0  0  0  0  0  0  0  0
   13.8475  -19.9707   22.0725 O   0  0  0  0  0  0  0  0  0  0  0  0
   14.7329  -19.1367   21.7928 C   0  0  0  0  0  0  0  0  0  0  0  0
   12.6898  -19.6381   22.8888 C   0  0  2  0  0  0  0  0  0  0  0  0
   11.7255  -20.7744   23.1185 N   0  0  0  0  0  0  0  0  0  0  0  0
   10.4988  -20.4036   22.3502 C   0  0  0  0  0  0  0  0  0  0  0  0
   11.3527  -20.7865   24.5483 O   0  0  0  0  0  0  0  0  0  0  0  0
   12.1515  -21.4523   25.4551 O   0  0  0  0  0  0  0  0  0  0  0  0
  2  3  2  0
  2  1  1  0
  4  2  1  0
  5  6  1  6
  5  4  1  0
  7  5  1  0
  8  7  2  0
 10  9  1  0
 10 12  1  0
 11 10  2  0
 12 13  1  0
 13 14  1  0
 16 15  1  6
 15 14  1  0
 16 17  1  0
 17  7  1  0
 18 16  1  0
 19 18  2  0
 20 21  1  0
 21 22  2  0
 23 21  1  0
 24 23  1  6
 24 25  1  0
 25 18  1  0
 26 27  1  0
 26 24  1  0
 28 26  2  0
M  END
$$$$
