TMD.pdb
     RDKit          3D

 24 23  0  0  1  0  0  0  0  0999 V2000
   20.7484   -9.7457  -19.8456 C   0  0  0  0  0  0  0  0  0  0  0  0
   20.5318  -11.0527  -19.1739 C   0  0  1  0  0  0  0  0  0  0  0  0
   20.1433  -11.9965  -20.1211 O   0  0  0  0  0  0  0  0  0  0  0  0
   21.7395  -11.6107  -18.4490 C   0  0  2  0  0  0  0  0  0  0  0  0
   21.2863  -12.9050  -17.9272 N   0  0  0  0  0  0  0  0  0  0  0  0
   22.2358  -10.7129  -17.3921 C   0  0  0  0  0  0  0  0  0  0  0  0
   21.6346  -10.6960  -16.2726 O   0  0  0  0  0  0  0  0  0  0  0  0
   28.1531  -10.7660  -17.0964 C   0  0  0  0  0  0  0  0  0  0  0  0
   27.4638  -10.6862  -15.4174 S   0  0  0  0  0  0  0  0  0  0  0  0
   25.6470  -10.4986  -15.5600 C   0  0  0  0  0  0  0  0  0  0  0  0
   25.3095   -9.1818  -16.2127 C   0  0  0  0  0  0  0  0  0  0  0  0
   23.8320   -8.9975  -16.4136 C   0  0  2  0  0  0  0  0  0  0  0  0
   23.3455   -9.8445  -17.5052 N   0  0  0  0  0  0  0  0  0  0  0  0
   23.3996   -7.6077  -16.5778 C   0  0  0  0  0  0  0  0  0  0  0  0
   23.2747   -7.0628  -17.6966 O   0  0  0  0  0  0  0  0  0  0  0  0
   23.0835   -6.7610  -15.4613 N   0  0  0  0  0  0  0  0  0  0  0  0
   22.5319   -5.4214  -15.6140 C   0  0  1  0  0  0  0  0  0  0  0  0
   21.2650   -5.4365  -16.4286 C   0  0  0  0  0  0  0  0  0  0  0  0
   20.6329   -4.1030  -16.5263 C   0  0  0  0  0  0  0  0  0  0  0  0
   21.2981   -3.0378  -16.5922 O   0  0  0  0  0  0  0  0  0  0  0  0
   22.3092   -4.8703  -14.2647 C   0  0  0  0  0  0  0  0  0  0  0  0
   22.6221   -5.6397  -13.1457 O   0  0  0  0  0  0  0  0  0  0  0  0
   19.2403   -3.9789  -16.5494 O   0  0  0  0  0  0  0  0  0  0  0  0
   21.8423   -3.7211  -14.1081 O   0  0  0  0  0  0  0  0  0  0  0  0
  2  1  1  6
  2  3  1  0
  4  6  1  0
  4  2  1  0
  4  5  1  1
  6 13  1  0
  6  7  2  0
  8  9  1  0
  9 10  1  0
 10 11  1  0
 12 11  1  6
 12 14  1  0
 13 12  1  0
 14 16  1  0
 14 15  2  0
 16 17  1  0
 17 21  1  0
 17 18  1  1
 19 20  2  0
 19 18  1  0
 21 22  1  0
 23 19  1  0
 24 21  2  0
M  END
$$$$
