TMD.pdb
     RDKit          3D

 24 23  0  0  1  0  0  0  0  0999 V2000
   17.3106   -9.3668  -18.1212 C   0  0  0  0  0  0  0  0  0  0  0  0
   16.9484  -10.6182  -17.4079 C   0  0  1  0  0  0  0  0  0  0  0  0
   16.0123  -11.3215  -18.1616 O   0  0  0  0  0  0  0  0  0  0  0  0
   18.1041  -11.5581  -17.1317 C   0  0  2  0  0  0  0  0  0  0  0  0
   17.4909  -12.6977  -16.4403 N   0  0  0  0  0  0  0  0  0  0  0  0
   19.1782  -10.9264  -16.3463 C   0  0  0  0  0  0  0  0  0  0  0  0
   18.9905  -10.7252  -15.1057 O   0  0  0  0  0  0  0  0  0  0  0  0
   26.7627   -9.8495  -14.7621 C   0  0  0  0  0  0  0  0  0  0  0  0
   25.5127  -10.6007  -15.8455 S   0  0  0  0  0  0  0  0  0  0  0  0
   23.8979   -9.8199  -15.4725 C   0  0  0  0  0  0  0  0  0  0  0  0
   22.8023  -10.4857  -16.2663 C   0  0  0  0  0  0  0  0  0  0  0  0
   21.4587   -9.8516  -16.0427 C   0  0  2  0  0  0  0  0  0  0  0  0
   20.4310  -10.5107  -16.8522 N   0  0  0  0  0  0  0  0  0  0  0  0
   21.4260   -8.3971  -16.2126 C   0  0  0  0  0  0  0  0  0  0  0  0
   21.5166   -7.8414  -17.3293 O   0  0  0  0  0  0  0  0  0  0  0  0
   21.2857   -7.4940  -15.1044 N   0  0  0  0  0  0  0  0  0  0  0  0
   21.2125   -6.0480  -15.2652 C   0  0  1  0  0  0  0  0  0  0  0  0
   19.7936   -5.5530  -15.1628 C   0  0  0  0  0  0  0  0  0  0  0  0
   19.6963   -4.0790  -15.2349 C   0  0  0  0  0  0  0  0  0  0  0  0
   20.5805   -3.3642  -15.7723 O   0  0  0  0  0  0  0  0  0  0  0  0
   22.0811   -5.4373  -14.2422 C   0  0  0  0  0  0  0  0  0  0  0  0
   22.2306   -4.0523  -14.2026 O   0  0  0  0  0  0  0  0  0  0  0  0
   18.5908   -3.4146  -14.6951 O   0  0  0  0  0  0  0  0  0  0  0  0
   22.6875   -6.1441  -13.4080 O   0  0  0  0  0  0  0  0  0  0  0  0
  2  1  1  6
  2  3  1  0
  4  6  1  0
  4  2  1  0
  4  5  1  1
  6 13  1  0
  6  7  2  0
  8  9  1  0
  9 10  1  0
 10 11  1  0
 12 11  1  6
 12 14  1  0
 13 12  1  0
 14 16  1  0
 14 15  2  0
 16 17  1  0
 17 21  1  0
 17 18  1  1
 19 20  2  0
 19 18  1  0
 21 22  1  0
 23 19  1  0
 24 21  2  0
M  END
$$$$
