TMD.pdb
     RDKit          3D

 24 23  0  0  1  0  0  0  0  0999 V2000
   26.9024  -17.9932  -16.0543 C   0  0  0  0  0  0  0  0  0  0  0  0
   27.4353  -19.2247  -16.6912 C   0  0  1  0  0  0  0  0  0  0  0  0
   28.4890  -18.8853  -17.5359 O   0  0  0  0  0  0  0  0  0  0  0  0
   27.9488  -20.2757  -15.7283 C   0  0  2  0  0  0  0  0  0  0  0  0
   28.4602  -21.3448  -16.5934 N   0  0  0  0  0  0  0  0  0  0  0  0
   26.9135  -20.7467  -14.7925 C   0  0  0  0  0  0  0  0  0  0  0  0
   25.9728  -21.4756  -15.2385 O   0  0  0  0  0  0  0  0  0  0  0  0
   24.0245  -21.0366   -7.3675 C   0  0  0  0  0  0  0  0  0  0  0  0
   25.3912  -20.5077   -8.4413 S   0  0  0  0  0  0  0  0  0  0  0  0
   24.9724  -20.9762  -10.1622 C   0  0  0  0  0  0  0  0  0  0  0  0
   26.0522  -20.5099  -11.1058 C   0  0  0  0  0  0  0  0  0  0  0  0
   25.7400  -20.8220  -12.5419 C   0  0  2  0  0  0  0  0  0  0  0  0
   26.8630  -20.4587  -13.4095 N   0  0  0  0  0  0  0  0  0  0  0  0
   24.4779  -20.2653  -13.0348 C   0  0  0  0  0  0  0  0  0  0  0  0
   24.4072  -19.1718  -13.6375 O   0  0  0  0  0  0  0  0  0  0  0  0
   23.2196  -20.9367  -12.8634 N   0  0  0  0  0  0  0  0  0  0  0  0
   22.0215  -20.5765  -13.6098 C   0  0  1  0  0  0  0  0  0  0  0  0
   22.2243  -20.7452  -15.0928 C   0  0  0  0  0  0  0  0  0  0  0  0
   22.2282  -19.4568  -15.8189 C   0  0  0  0  0  0  0  0  0  0  0  0
   22.0480  -18.3521  -15.2457 O   0  0  0  0  0  0  0  0  0  0  0  0
   20.9129  -21.4104  -13.1101 C   0  0  0  0  0  0  0  0  0  0  0  0
   21.0413  -22.7980  -13.1072 O   0  0  0  0  0  0  0  0  0  0  0  0
   22.4375  -19.4230  -17.2011 O   0  0  0  0  0  0  0  0  0  0  0  0
   19.8567  -20.8909  -12.6885 O   0  0  0  0  0  0  0  0  0  0  0  0
  2  1  1  1
  2  3  1  0
  4  6  1  0
  4  2  1  0
  4  5  1  6
  6 13  1  0
  6  7  2  0
  8  9  1  0
  9 10  1  0
 10 11  1  0
 12 11  1  1
 12 14  1  0
 13 12  1  0
 14 16  1  0
 14 15  2  0
 16 17  1  0
 17 21  1  0
 17 18  1  6
 19 20  2  0
 19 18  1  0
 21 22  1  0
 23 19  1  0
 24 21  2  0
M  END
$$$$
