TMD.pdb
     RDKit          3D

 24 23  0  0  1  0  0  0  0  0999 V2000
   19.6895   -8.5173  -13.1124 C   0  0  0  0  0  0  0  0  0  0  0  0
   19.2412   -9.5180  -14.1143 C   0  0  1  0  0  0  0  0  0  0  0  0
   20.3558  -10.1282  -14.6839 O   0  0  0  0  0  0  0  0  0  0  0  0
   18.3524  -10.6180  -13.5708 C   0  0  2  0  0  0  0  0  0  0  0  0
   18.1026  -11.4893  -14.7246 N   0  0  0  0  0  0  0  0  0  0  0  0
   17.1116  -10.1030  -12.9669 C   0  0  0  0  0  0  0  0  0  0  0  0
   16.2578   -9.5338  -13.7166 O   0  0  0  0  0  0  0  0  0  0  0  0
   11.0095  -10.2999   -8.1757 C   0  0  0  0  0  0  0  0  0  0  0  0
   12.3827  -11.1452   -9.0124 S   0  0  0  0  0  0  0  0  0  0  0  0
   13.4816   -9.8665   -9.7292 C   0  0  0  0  0  0  0  0  0  0  0  0
   14.6775  -10.5139  -10.3806 C   0  0  0  0  0  0  0  0  0  0  0  0
   15.6064   -9.5139  -11.0086 C   0  0  2  0  0  0  0  0  0  0  0  0
   16.7693  -10.1820  -11.5977 N   0  0  0  0  0  0  0  0  0  0  0  0
   16.0069   -8.4089  -10.1344 C   0  0  0  0  0  0  0  0  0  0  0  0
   16.8921   -8.5224   -9.2583 O   0  0  0  0  0  0  0  0  0  0  0  0
   15.4114   -7.1043  -10.2180 N   0  0  0  0  0  0  0  0  0  0  0  0
   15.8452   -5.9815   -9.3974 C   0  0  1  0  0  0  0  0  0  0  0  0
   16.3925   -4.8607  -10.2417 C   0  0  0  0  0  0  0  0  0  0  0  0
   16.7096   -3.6521   -9.4505 C   0  0  0  0  0  0  0  0  0  0  0  0
   17.7241   -3.5690   -8.7120 O   0  0  0  0  0  0  0  0  0  0  0  0
   14.6929   -5.5451   -8.5874 C   0  0  0  0  0  0  0  0  0  0  0  0
   13.4220   -6.0394   -8.8744 O   0  0  0  0  0  0  0  0  0  0  0  0
   15.8717   -2.5337   -9.4985 O   0  0  0  0  0  0  0  0  0  0  0  0
   14.8385   -4.7361   -7.6454 O   0  0  0  0  0  0  0  0  0  0  0  0
  2  1  1  1
  2  3  1  0
  4  6  1  0
  4  2  1  0
  4  5  1  6
  6 13  1  0
  6  7  2  0
  8  9  1  0
  9 10  1  0
 10 11  1  0
 12 11  1  1
 12 14  1  0
 13 12  1  0
 14 16  1  0
 14 15  2  0
 16 17  1  0
 17 21  1  0
 17 18  1  6
 19 20  2  0
 19 18  1  0
 21 22  1  0
 23 19  1  0
 24 21  2  0
M  END
$$$$
