FKL.pdb
     RDKit          3D

 29 29  0  0  1  0  0  0  0  0999 V2000
   25.1072  -11.9720  -18.7067 N   0  0  0  0  0  0  0  0  0  0  0  0
   24.7283  -11.6664  -17.3514 C   0  0  1  0  0  0  0  0  0  0  0  0
   25.8818  -11.1984  -16.5069 C   0  0  0  0  0  0  0  0  0  0  0  0
   26.9456  -12.1849  -16.3430 C   0  0  0  0  0  0  0  0  0  0  0  0
   26.7443  -13.2689  -15.5175 C   0  0  0  0  0  0  0  0  0  0  0  0
   27.7268  -14.2371  -15.3275 C   0  0  0  0  0  0  0  0  0  0  0  0
   28.9293  -14.1197  -15.9728 C   0  0  0  0  0  0  0  0  0  0  0  0
   29.1371  -13.0375  -16.8001 C   0  0  0  0  0  0  0  0  0  0  0  0
   28.1561  -12.0728  -16.9884 C   0  0  0  0  0  0  0  0  0  0  0  0
   23.7296  -10.5714  -17.3944 C   0  0  0  0  0  0  0  0  0  0  0  0
   23.7900   -9.7578  -18.3466 O   0  0  0  0  0  0  0  0  0  0  0  0
   22.7046  -10.3794  -16.4272 N   0  0  0  0  0  0  0  0  0  0  0  0
   21.6736   -9.3750  -16.5919 C   0  0  1  0  0  0  0  0  0  0  0  0
   20.3191   -9.8825  -16.1891 C   0  0  0  0  0  0  0  0  0  0  0  0
   19.8824  -10.9355  -17.1795 C   0  0  0  0  0  0  0  0  0  0  0  0
   18.5252  -11.4998  -16.7952 C   0  0  0  0  0  0  0  0  0  0  0  0
   18.0885  -12.5041  -17.8182 C   0  0  0  0  0  0  0  0  0  0  0  0
   16.7657  -12.9861  -17.3881 N   0  0  0  0  0  0  0  0  0  0  0  0
   21.9937   -8.1314  -15.8111 C   0  0  0  0  0  0  0  0  0  0  0  0
   22.4280   -8.2821  -14.6530 O   0  0  0  0  0  0  0  0  0  0  0  0
   24.9012   -4.8659  -16.3047 C   0  0  0  0  0  0  0  0  0  0  0  0
   23.6474   -4.6610  -17.1668 C   0  0  2  0  0  0  0  0  0  0  0  0
   23.8818   -3.5475  -18.1470 C   0  0  0  0  0  0  0  0  0  0  0  0
   22.4429   -4.4815  -16.3203 C   0  0  0  0  0  0  0  0  0  0  0  0
   22.1501   -5.6863  -15.4856 C   0  0  2  0  0  0  0  0  0  0  0  0
   21.8194   -6.8327  -16.3424 N   0  0  0  0  0  0  0  0  0  0  0  0
   21.0302   -5.4723  -14.5584 C   0  0  0  0  0  0  0  0  0  0  0  0
   19.8739   -5.9011  -14.8880 O   0  0  0  0  0  0  0  0  0  0  0  0
   21.1403   -4.8367  -13.3436 O   0  0  0  0  0  0  0  0  0  0  0  0
  2 10  1  0
  2  1  1  6
  3  2  1  0
  4  9  2  0
  4  3  1  0
  5  4  1  0
  6  7  1  0
  6  5  2  0
  7  8  2  0
  8  9  1  0
 10 11  2  0
 12 13  1  0
 12 10  1  0
 13 14  1  1
 14 15  1  0
 15 16  1  0
 16 17  1  0
 17 18  1  0
 19 13  1  0
 20 19  2  0
 22 21  1  1
 23 22  1  0
 25 24  1  6
 24 22  1  0
 25 26  1  0
 26 19  1  0
 27 25  1  0
 27 29  1  0
 28 27  2  0
M  END
$$$$
