FKL.pdb
     RDKit          3D

 29 29  0  0  1  0  0  0  0  0999 V2000
   26.9435  -18.2980   -8.4778 N   0  0  0  0  0  0  0  0  0  0  0  0
   26.9540  -19.7357   -8.5588 C   0  0  1  0  0  0  0  0  0  0  0  0
   26.6535  -20.4036   -7.2449 C   0  0  0  0  0  0  0  0  0  0  0  0
   27.6314  -20.1321   -6.1953 C   0  0  0  0  0  0  0  0  0  0  0  0
   28.8189  -20.8298   -6.1776 C   0  0  0  0  0  0  0  0  0  0  0  0
   29.7839  -20.6082   -5.1985 C   0  0  0  0  0  0  0  0  0  0  0  0
   29.5581  -19.6745   -4.2219 C   0  0  0  0  0  0  0  0  0  0  0  0
   28.3721  -18.9731   -4.2340 C   0  0  0  0  0  0  0  0  0  0  0  0
   27.4109  -19.1954   -5.2112 C   0  0  0  0  0  0  0  0  0  0  0  0
   25.9031  -20.1446   -9.5214 C   0  0  0  0  0  0  0  0  0  0  0  0
   24.8322  -19.4924   -9.5346 O   0  0  0  0  0  0  0  0  0  0  0  0
   26.0259  -21.2289  -10.4336 N   0  0  0  0  0  0  0  0  0  0  0  0
   25.5301  -21.1474  -11.7925 C   0  0  1  0  0  0  0  0  0  0  0  0
   26.1777  -22.1594  -12.6931 C   0  0  0  0  0  0  0  0  0  0  0  0
   25.6767  -21.9449  -14.1014 C   0  0  0  0  0  0  0  0  0  0  0  0
   26.6703  -21.1202  -14.9018 C   0  0  0  0  0  0  0  0  0  0  0  0
   26.1479  -20.9093  -16.2905 C   0  0  0  0  0  0  0  0  0  0  0  0
   27.1887  -20.1631  -17.0165 N   0  0  0  0  0  0  0  0  0  0  0  0
   24.0378  -21.3188  -11.8400 C   0  0  0  0  0  0  0  0  0  0  0  0
   23.5462  -22.2259  -11.1414 O   0  0  0  0  0  0  0  0  0  0  0  0
   20.1273  -19.1508  -10.8166 C   0  0  0  0  0  0  0  0  0  0  0  0
   20.8100  -18.5443  -12.0509 C   0  0  2  0  0  0  0  0  0  0  0  0
   20.0524  -17.3294  -12.5042 C   0  0  0  0  0  0  0  0  0  0  0  0
   21.0061  -19.5669  -13.1070 C   0  0  0  0  0  0  0  0  0  0  0  0
   21.7567  -20.7602  -12.6104 C   0  0  2  0  0  0  0  0  0  0  0  0
   23.2023  -20.5004  -12.6345 N   0  0  0  0  0  0  0  0  0  0  0  0
   21.4966  -21.9645  -13.4115 C   0  0  0  0  0  0  0  0  0  0  0  0
   22.2452  -22.2019  -14.4179 O   0  0  0  0  0  0  0  0  0  0  0  0
   20.4926  -22.8674  -13.1501 O   0  0  0  0  0  0  0  0  0  0  0  0
  2 10  1  0
  2  1  1  1
  3  2  1  0
  4  9  2  0
  4  3  1  0
  5  4  1  0
  6  7  1  0
  6  5  2  0
  7  8  2  0
  8  9  1  0
 10 11  2  0
 12 13  1  0
 12 10  1  0
 13 14  1  6
 14 15  1  0
 15 16  1  0
 16 17  1  0
 17 18  1  0
 19 13  1  0
 20 19  2  0
 22 21  1  1
 23 22  1  0
 25 24  1  6
 24 22  1  0
 25 26  1  0
 26 19  1  0
 27 25  1  0
 27 29  1  0
 28 27  2  0
M  END
$$$$
