FKL.pdb
     RDKit          3D

 29 29  0  0  1  0  0  0  0  0999 V2000
   25.3831  -17.8881  -18.0352 N   0  0  0  0  0  0  0  0  0  0  0  0
   25.8781  -18.5395  -16.8502 C   0  0  1  0  0  0  0  0  0  0  0  0
   25.9138  -17.6339  -15.6495 C   0  0  0  0  0  0  0  0  0  0  0  0
   26.8335  -16.5068  -15.7741 C   0  0  0  0  0  0  0  0  0  0  0  0
   26.5698  -15.3377  -15.0953 C   0  0  0  0  0  0  0  0  0  0  0  0
   27.4152  -14.2346  -15.1809 C   0  0  0  0  0  0  0  0  0  0  0  0
   28.5417  -14.3013  -15.9574 C   0  0  0  0  0  0  0  0  0  0  0  0
   28.8112  -15.4681  -16.6391 C   0  0  0  0  0  0  0  0  0  0  0  0
   27.9671  -16.5673  -16.5525 C   0  0  0  0  0  0  0  0  0  0  0  0
   24.9668  -19.6661  -16.5362 C   0  0  0  0  0  0  0  0  0  0  0  0
   23.7573  -19.5474  -16.8453 O   0  0  0  0  0  0  0  0  0  0  0  0
   25.3707  -20.8758  -15.9067 N   0  0  0  0  0  0  0  0  0  0  0  0
   24.4286  -21.9338  -15.6033 C   0  0  1  0  0  0  0  0  0  0  0  0
   25.1163  -23.2034  -15.1912 C   0  0  0  0  0  0  0  0  0  0  0  0
   25.8665  -23.7554  -16.3799 C   0  0  0  0  0  0  0  0  0  0  0  0
   26.5817  -25.0433  -16.0087 C   0  0  0  0  0  0  0  0  0  0  0  0
   27.5167  -25.4371  -17.1117 C   0  0  0  0  0  0  0  0  0  0  0  0
   28.2561  -26.6146  -16.6283 N   0  0  0  0  0  0  0  0  0  0  0  0
   23.4659  -21.5154  -14.5279 C   0  0  0  0  0  0  0  0  0  0  0  0
   23.9250  -20.8494  -13.5802 O   0  0  0  0  0  0  0  0  0  0  0  0
   19.7073  -17.8864  -13.0888 C   0  0  0  0  0  0  0  0  0  0  0  0
   20.2832  -19.2150  -12.5784 C   0  0  2  0  0  0  0  0  0  0  0  0
   20.8865  -19.0172  -11.2173 C   0  0  0  0  0  0  0  0  0  0  0  0
   21.2089  -19.8106  -13.5723 C   0  0  0  0  0  0  0  0  0  0  0  0
   21.2221  -21.3041  -13.5132 C   0  0  2  0  0  0  0  0  0  0  0  0
   22.0923  -21.8489  -14.5637 N   0  0  0  0  0  0  0  0  0  0  0  0
   19.8839  -21.8877  -13.6816 C   0  0  0  0  0  0  0  0  0  0  0  0
   19.5503  -22.3283  -14.8323 O   0  0  0  0  0  0  0  0  0  0  0  0
   18.9535  -21.9968  -12.6745 O   0  0  0  0  0  0  0  0  0  0  0  0
  2 10  1  0
  2  1  1  6
  3  2  1  0
  4  9  2  0
  4  3  1  0
  5  4  1  0
  6  7  1  0
  6  5  2  0
  7  8  2  0
  8  9  1  0
 10 11  2  0
 12 13  1  0
 12 10  1  0
 13 14  1  1
 14 15  1  0
 15 16  1  0
 16 17  1  0
 17 18  1  0
 19 13  1  0
 20 19  2  0
 22 21  1  6
 23 22  1  0
 25 24  1  6
 24 22  1  0
 25 26  1  0
 26 19  1  0
 27 25  1  0
 27 29  1  0
 28 27  2  0
M  END
$$$$
