FKL.pdb
     RDKit          3D

 29 29  0  0  1  0  0  0  0  0999 V2000
   22.6952   -6.3263  -17.7914 N   0  0  0  0  0  0  0  0  0  0  0  0
   22.9328   -7.0259  -16.5554 C   0  0  1  0  0  0  0  0  0  0  0  0
   21.7949   -6.9038  -15.5792 C   0  0  0  0  0  0  0  0  0  0  0  0
   21.5216   -5.5375  -15.1428 C   0  0  0  0  0  0  0  0  0  0  0  0
   22.3997   -4.9104  -14.2867 C   0  0  0  0  0  0  0  0  0  0  0  0
   22.1845   -3.6088  -13.8414 C   0  0  0  0  0  0  0  0  0  0  0  0
   21.0742   -2.9235  -14.2584 C   0  0  0  0  0  0  0  0  0  0  0  0
   20.1918   -3.5452  -15.1149 C   0  0  0  0  0  0  0  0  0  0  0  0
   20.4080   -4.8434  -15.5580 C   0  0  0  0  0  0  0  0  0  0  0  0
   23.1005   -8.4646  -16.8722 C   0  0  0  0  0  0  0  0  0  0  0  0
   22.4265   -8.9410  -17.8162 O   0  0  0  0  0  0  0  0  0  0  0  0
   23.9757   -9.3444  -16.1772 N   0  0  0  0  0  0  0  0  0  0  0  0
   24.0568  -10.7553  -16.4966 C   0  0  1  0  0  0  0  0  0  0  0  0
   25.0746  -11.4689  -15.6543 C   0  0  0  0  0  0  0  0  0  0  0  0
   25.0788  -12.9303  -16.0346 C   0  0  0  0  0  0  0  0  0  0  0  0
   25.7897  -13.1347  -17.3616 C   0  0  0  0  0  0  0  0  0  0  0  0
   25.7887  -14.5909  -17.7154 C   0  0  0  0  0  0  0  0  0  0  0  0
   26.5310  -14.7109  -18.9809 N   0  0  0  0  0  0  0  0  0  0  0  0
   22.7213  -11.4272  -16.3428 C   0  0  0  0  0  0  0  0  0  0  0  0
   22.0105  -11.0687  -15.3843 O   0  0  0  0  0  0  0  0  0  0  0  0
   17.6793  -12.2210  -18.9608 C   0  0  0  0  0  0  0  0  0  0  0  0
   18.5491  -12.6625  -17.7752 C   0  0  2  0  0  0  0  0  0  0  0  0
   17.9072  -12.2330  -16.4871 C   0  0  0  0  0  0  0  0  0  0  0  0
   19.9484  -12.1998  -17.9402 C   0  0  0  0  0  0  0  0  0  0  0  0
   20.8994  -12.9382  -17.0544 C   0  0  2  0  0  0  0  0  0  0  0  0
   22.2649  -12.4267  -17.2326 N   0  0  0  0  0  0  0  0  0  0  0  0
   20.9152  -14.3830  -17.3228 C   0  0  0  0  0  0  0  0  0  0  0  0
   21.7376  -14.8343  -18.1886 O   0  0  0  0  0  0  0  0  0  0  0  0
   20.0982  -15.2964  -16.6983 O   0  0  0  0  0  0  0  0  0  0  0  0
  2 10  1  0
  2  1  1  6
  3  2  1  0
  4  9  2  0
  4  3  1  0
  5  4  1  0
  6  7  1  0
  6  5  2  0
  7  8  2  0
  8  9  1  0
 10 11  2  0
 12 13  1  0
 12 10  1  0
 13 14  1  1
 14 15  1  0
 15 16  1  0
 16 17  1  0
 17 18  1  0
 19 13  1  0
 20 19  2  0
 22 21  1  6
 23 22  1  0
 25 24  1  6
 24 22  1  0
 25 26  1  0
 26 19  1  0
 27 25  1  0
 27 29  1  0
 28 27  2  0
M  END
$$$$
