FKL.pdb
     RDKit          3D

 29 29  0  0  1  0  0  0  0  0999 V2000
   19.9652  -21.7173  -14.8000 N   0  0  0  0  0  0  0  0  0  0  0  0
   21.0025  -20.7187  -14.8219 C   0  0  1  0  0  0  0  0  0  0  0  0
   20.6285  -19.4621  -14.0845 C   0  0  0  0  0  0  0  0  0  0  0  0
   19.6639  -18.6190  -14.7849 C   0  0  0  0  0  0  0  0  0  0  0  0
   18.3543  -18.5888  -14.3591 C   0  0  0  0  0  0  0  0  0  0  0  0
   17.3963  -17.8017  -14.9928 C   0  0  0  0  0  0  0  0  0  0  0  0
   17.7531  -17.0327  -16.0688 C   0  0  0  0  0  0  0  0  0  0  0  0
   19.0618  -17.0584  -16.4997 C   0  0  0  0  0  0  0  0  0  0  0  0
   20.0158  -17.8441  -15.8665 C   0  0  0  0  0  0  0  0  0  0  0  0
   22.1982  -21.2905  -14.1573 C   0  0  0  0  0  0  0  0  0  0  0  0
   22.0433  -21.8423  -13.0420 O   0  0  0  0  0  0  0  0  0  0  0  0
   23.5129  -21.2565  -14.6990 N   0  0  0  0  0  0  0  0  0  0  0  0
   24.6285  -21.9101  -14.0455 C   0  0  1  0  0  0  0  0  0  0  0  0
   25.6902  -22.3287  -15.0213 C   0  0  0  0  0  0  0  0  0  0  0  0
   25.2147  -23.5597  -15.7554 C   0  0  0  0  0  0  0  0  0  0  0  0
   26.2205  -23.9697  -16.8176 C   0  0  0  0  0  0  0  0  0  0  0  0
   25.7219  -25.1826  -17.5431 C   0  0  0  0  0  0  0  0  0  0  0  0
   26.6801  -25.4385  -18.6309 N   0  0  0  0  0  0  0  0  0  0  0  0
   25.2376  -21.0272  -12.9928 C   0  0  0  0  0  0  0  0  0  0  0  0
   25.0651  -19.7989  -13.1101 O   0  0  0  0  0  0  0  0  0  0  0  0
   28.4263  -20.2078   -8.6607 C   0  0  0  0  0  0  0  0  0  0  0  0
   26.9231  -19.8953   -8.6565 C   0  0  2  0  0  0  0  0  0  0  0  0
   26.3985  -19.9442   -7.2501 C   0  0  0  0  0  0  0  0  0  0  0  0
   26.1950  -20.7702   -9.6071 C   0  0  0  0  0  0  0  0  0  0  0  0
   26.6552  -20.5848  -11.0170 C   0  0  2  0  0  0  0  0  0  0  0  0
   25.9798  -21.5409  -11.9044 N   0  0  0  0  0  0  0  0  0  0  0  0
   28.1054  -20.7700  -11.1667 C   0  0  0  0  0  0  0  0  0  0  0  0
   28.5425  -21.9213  -11.5028 O   0  0  0  0  0  0  0  0  0  0  0  0
   29.0378  -19.7782  -10.9701 O   0  0  0  0  0  0  0  0  0  0  0  0
  2 10  1  0
  2  1  1  1
  3  2  1  0
  4  9  2  0
  4  3  1  0
  5  4  1  0
  6  7  1  0
  6  5  2  0
  7  8  2  0
  8  9  1  0
 10 11  2  0
 12 13  1  0
 12 10  1  0
 13 14  1  6
 14 15  1  0
 15 16  1  0
 16 17  1  0
 17 18  1  0
 19 13  1  0
 20 19  2  0
 22 21  1  1
 23 22  1  0
 25 24  1  1
 24 22  1  0
 25 26  1  0
 26 19  1  0
 27 25  1  0
 27 29  1  0
 28 27  2  0
M  END
$$$$
