FKK.pdb
     RDKit          3D

 30 30  0  0  1  0  0  0  0  0999 V2000
    6.0940  -17.0063   26.1864 N   0  0  0  0  0  0  0  0  0  0  0  0
    6.8621  -16.0981   25.3860 C   0  0  1  0  0  0  0  0  0  0  0  0
    7.9409  -15.4740   26.2278 C   0  0  0  0  0  0  0  0  0  0  0  0
    7.6424  -14.0218   26.3416 C   0  0  0  0  0  0  0  0  0  0  0  0
    7.1531  -13.5291   27.5380 C   0  0  0  0  0  0  0  0  0  0  0  0
    6.8857  -12.1780   27.6127 C   0  0  0  0  0  0  0  0  0  0  0  0
    7.0749  -11.3017   26.5794 C   0  0  0  0  0  0  0  0  0  0  0  0
    7.5666  -11.7951   25.3766 C   0  0  0  0  0  0  0  0  0  0  0  0
    7.8430  -13.1438   25.2735 C   0  0  0  0  0  0  0  0  0  0  0  0
    7.4003  -16.7632   24.1742 C   0  0  0  0  0  0  0  0  0  0  0  0
    7.7091  -17.9806   24.2569 O   0  0  0  0  0  0  0  0  0  0  0  0
    7.5856  -16.1191   22.9445 N   0  0  0  0  0  0  0  0  0  0  0  0
    8.0815  -16.7728   21.7729 C   0  0  1  0  0  0  0  0  0  0  0  0
    7.8293  -15.9641   20.5100 C   0  0  0  0  0  0  0  0  0  0  0  0
    8.1177  -16.8410   19.2854 C   0  0  0  0  0  0  0  0  0  0  0  0
    8.6204  -16.0112   18.1348 C   0  0  0  0  0  0  0  0  0  0  0  0
    8.7916  -16.9413   16.9524 C   0  0  0  0  0  0  0  0  0  0  0  0
    9.1959  -16.2301   15.7666 N   0  0  0  0  0  0  0  0  0  0  0  0
    9.5387  -17.0101   21.8650 C   0  0  0  0  0  0  0  0  0  0  0  0
   10.2889  -16.0064   21.8528 O   0  0  0  0  0  0  0  0  0  0  0  0
   10.1157  -18.2948   21.9645 N   0  0  0  0  0  0  0  0  0  0  0  0
   11.5700  -18.4083   21.7534 C   0  0  1  0  0  0  0  0  0  0  0  0
   11.9093  -18.0057   20.3361 C   0  0  0  0  0  0  0  0  0  0  0  0
   13.3710  -18.0977   20.1080 C   0  0  0  0  0  0  0  0  0  0  0  0
   13.7786  -17.7924   18.6806 C   0  0  0  0  0  0  0  0  0  0  0  0
   15.2730  -17.8004   18.4911 C   0  0  0  0  0  0  0  0  0  0  0  0
   15.6500  -17.5914   17.1096 N   0  0  0  0  0  0  0  0  0  0  0  0
   12.1933  -17.5852   22.7923 C   0  0  0  0  0  0  0  0  0  0  0  0
   12.8424  -16.5245   22.5830 O   0  0  0  0  0  0  0  0  0  0  0  0
   12.1028  -17.9425   24.1516 O   0  0  0  0  0  0  0  0  0  0  0  0
  2  1  1  1
  2  3  1  0
  3  4  1  0
  4  9  2  0
  5  4  1  0
  5  6  2  0
  6  7  1  0
  7  8  2  0
  9  8  1  0
 10 12  1  0
 10  2  1  0
 11 10  2  0
 13 19  1  0
 13 12  1  0
 13 14  1  6
 15 14  1  0
 16 15  1  0
 17 18  1  0
 17 16  1  0
 19 21  1  0
 20 19  2  0
 21 22  1  0
 22 28  1  0
 23 24  1  0
 22 23  1  6
 25 24  1  0
 26 25  1  0
 27 26  1  0
 28 29  2  0
 28 30  1  0
M  END
$$$$
