FKK.pdb
     RDKit          3D

 30 30  0  0  1  0  0  0  0  0999 V2000
    5.7246  -17.7768   25.5067 N   0  0  0  0  0  0  0  0  0  0  0  0
    6.2406  -16.4463   25.3694 C   0  0  1  0  0  0  0  0  0  0  0  0
    6.7519  -15.9649   26.6993 C   0  0  0  0  0  0  0  0  0  0  0  0
    6.7746  -14.4786   26.6641 C   0  0  0  0  0  0  0  0  0  0  0  0
    5.5778  -13.7913   26.5694 C   0  0  0  0  0  0  0  0  0  0  0  0
    5.6313  -12.4134   26.5387 C   0  0  0  0  0  0  0  0  0  0  0  0
    6.7914  -11.6907   26.5961 C   0  0  0  0  0  0  0  0  0  0  0  0
    7.9948  -12.3797   26.6912 C   0  0  0  0  0  0  0  0  0  0  0  0
    7.9710  -13.7597   26.7239 C   0  0  0  0  0  0  0  0  0  0  0  0
    7.2694  -16.3697   24.3036 C   0  0  0  0  0  0  0  0  0  0  0  0
    8.0784  -17.3278   24.1940 O   0  0  0  0  0  0  0  0  0  0  0  0
    7.3952  -15.2967   23.4124 N   0  0  0  0  0  0  0  0  0  0  0  0
    8.3298  -15.2693   22.3300 C   0  0  1  0  0  0  0  0  0  0  0  0
    8.1878  -14.0191   21.4760 C   0  0  0  0  0  0  0  0  0  0  0  0
    8.2382  -14.4135   19.9948 C   0  0  0  0  0  0  0  0  0  0  0  0
    8.2348  -13.1945   19.1122 C   0  0  0  0  0  0  0  0  0  0  0  0
    8.1225  -13.6771   17.6815 C   0  0  0  0  0  0  0  0  0  0  0  0
    8.0622  -12.5798   16.7499 N   0  0  0  0  0  0  0  0  0  0  0  0
    9.7242  -15.3156   22.8215 C   0  0  0  0  0  0  0  0  0  0  0  0
   10.0263  -14.5580   23.7729 O   0  0  0  0  0  0  0  0  0  0  0  0
   10.7161  -16.1603   22.2776 N   0  0  0  0  0  0  0  0  0  0  0  0
   11.9459  -16.3639   23.0641 C   0  0  1  0  0  0  0  0  0  0  0  0
   11.9109  -17.7279   23.7155 C   0  0  0  0  0  0  0  0  0  0  0  0
   13.1906  -18.0019   24.4113 C   0  0  0  0  0  0  0  0  0  0  0  0
   13.2606  -19.3878   25.0206 C   0  0  0  0  0  0  0  0  0  0  0  0
   14.5243  -19.6099   25.8100 C   0  0  0  0  0  0  0  0  0  0  0  0
   14.4902  -20.8474   26.5596 N   0  0  0  0  0  0  0  0  0  0  0  0
   13.0580  -16.1551   22.1341 C   0  0  0  0  0  0  0  0  0  0  0  0
   12.9872  -16.2809   20.8813 O   0  0  0  0  0  0  0  0  0  0  0  0
   14.3337  -15.7839   22.6013 O   0  0  0  0  0  0  0  0  0  0  0  0
  2  1  1  1
  2  3  1  0
  3  4  1  0
  4  9  2  0
  5  4  1  0
  5  6  2  0
  6  7  1  0
  7  8  2  0
  9  8  1  0
 10 12  1  0
 10  2  1  0
 11 10  2  0
 13 19  1  0
 13 12  1  0
 13 14  1  1
 15 14  1  0
 16 15  1  0
 17 18  1  0
 17 16  1  0
 19 21  1  0
 20 19  2  0
 21 22  1  0
 22 28  1  0
 23 24  1  0
 22 23  1  6
 25 24  1  0
 26 25  1  0
 27 26  1  0
 28 29  2  0
 28 30  1  0
M  END
$$$$
