FKK.pdb
     RDKit          3D

 30 30  0  0  1  0  0  0  0  0999 V2000
    5.8103  -17.8319   25.9108 N   0  0  0  0  0  0  0  0  0  0  0  0
    6.3149  -16.5120   25.6681 C   0  0  1  0  0  0  0  0  0  0  0  0
    6.9935  -15.9969   26.9074 C   0  0  0  0  0  0  0  0  0  0  0  0
    7.0313  -14.5131   26.8188 C   0  0  0  0  0  0  0  0  0  0  0  0
    5.8391  -13.8130   26.7738 C   0  0  0  0  0  0  0  0  0  0  0  0
    5.9067  -12.4378   26.6916 C   0  0  0  0  0  0  0  0  0  0  0  0
    7.0765  -11.7297   26.6522 C   0  0  0  0  0  0  0  0  0  0  0  0
    8.2753  -12.4316   26.6972 C   0  0  0  0  0  0  0  0  0  0  0  0
    8.2375  -13.8092   26.7797 C   0  0  0  0  0  0  0  0  0  0  0  0
    7.2015  -16.4792   24.4794 C   0  0  0  0  0  0  0  0  0  0  0  0
    7.9829  -17.4493   24.2987 O   0  0  0  0  0  0  0  0  0  0  0  0
    7.2219  -15.4348   23.5464 N   0  0  0  0  0  0  0  0  0  0  0  0
    7.9975  -15.4590   22.3449 C   0  0  1  0  0  0  0  0  0  0  0  0
    7.6399  -14.3193   21.4038 C   0  0  0  0  0  0  0  0  0  0  0  0
    8.3549  -14.5307   20.0636 C   0  0  0  0  0  0  0  0  0  0  0  0
    7.9685  -13.4656   19.0729 C   0  0  0  0  0  0  0  0  0  0  0  0
    8.5393  -13.8732   17.7311 C   0  0  0  0  0  0  0  0  0  0  0  0
    8.3614  -12.8437   16.7391 N   0  0  0  0  0  0  0  0  0  0  0  0
    9.4443  -15.3575   22.6360 C   0  0  0  0  0  0  0  0  0  0  0  0
    9.8143  -14.4458   23.4121 O   0  0  0  0  0  0  0  0  0  0  0  0
   10.4136  -16.2261   22.0891 N   0  0  0  0  0  0  0  0  0  0  0  0
   11.7299  -16.2832   22.7498 C   0  0  1  0  0  0  0  0  0  0  0  0
   11.9392  -17.6574   23.3446 C   0  0  0  0  0  0  0  0  0  0  0  0
   12.0004  -17.5771   24.8234 C   0  0  0  0  0  0  0  0  0  0  0  0
   12.2635  -18.9130   25.4891 C   0  0  0  0  0  0  0  0  0  0  0  0
   12.1277  -18.8494   26.9880 C   0  0  0  0  0  0  0  0  0  0  0  0
   12.3690  -20.1320   27.6136 N   0  0  0  0  0  0  0  0  0  0  0  0
   12.7091  -15.8986   21.7307 C   0  0  0  0  0  0  0  0  0  0  0  0
   12.5332  -15.9937   20.4855 O   0  0  0  0  0  0  0  0  0  0  0  0
   13.9651  -15.3749   22.0933 O   0  0  0  0  0  0  0  0  0  0  0  0
  2  1  1  1
  2  3  1  0
  3  4  1  0
  4  9  2  0
  5  4  1  0
  5  6  2  0
  6  7  1  0
  7  8  2  0
  9  8  1  0
 10 12  1  0
 10  2  1  0
 11 10  2  0
 13 19  1  0
 13 12  1  0
 13 14  1  6
 15 14  1  0
 16 15  1  0
 17 18  1  0
 17 16  1  0
 19 21  1  0
 20 19  2  0
 21 22  1  0
 22 28  1  0
 23 24  1  0
 22 23  1  6
 25 24  1  0
 26 25  1  0
 27 26  1  0
 28 29  2  0
 28 30  1  0
M  END
$$$$
