FKK.pdb
     RDKit          3D

 30 30  0  0  1  0  0  0  0  0999 V2000
    7.7601  -16.8153   26.5233 N   0  0  0  0  0  0  0  0  0  0  0  0
    6.6989  -16.7896   25.5596 C   0  0  1  0  0  0  0  0  0  0  0  0
    5.7223  -15.7026   25.9149 C   0  0  0  0  0  0  0  0  0  0  0  0
    6.5057  -14.5000   26.3033 C   0  0  0  0  0  0  0  0  0  0  0  0
    6.2765  -13.3072   25.6412 C   0  0  0  0  0  0  0  0  0  0  0  0
    7.0188  -12.2095   26.0238 C   0  0  0  0  0  0  0  0  0  0  0  0
    7.9628  -12.2307   27.0137 C   0  0  0  0  0  0  0  0  0  0  0  0
    8.1944  -13.4283   27.6800 C   0  0  0  0  0  0  0  0  0  0  0  0
    7.4656  -14.5434   27.3176 C   0  0  0  0  0  0  0  0  0  0  0  0
    7.2224  -16.6540   24.1783 C   0  0  0  0  0  0  0  0  0  0  0  0
    7.4353  -17.7065   23.5216 O   0  0  0  0  0  0  0  0  0  0  0  0
    7.4941  -15.4265   23.5610 N   0  0  0  0  0  0  0  0  0  0  0  0
    8.2850  -15.2915   22.3769 C   0  0  1  0  0  0  0  0  0  0  0  0
    7.7992  -14.1606   21.4839 C   0  0  0  0  0  0  0  0  0  0  0  0
    8.6092  -14.1647   20.1817 C   0  0  0  0  0  0  0  0  0  0  0  0
    8.1039  -13.1145   19.2294 C   0  0  0  0  0  0  0  0  0  0  0  0
    8.3522  -13.6252   17.8259 C   0  0  0  0  0  0  0  0  0  0  0  0
    7.7198  -12.7932   16.8342 N   0  0  0  0  0  0  0  0  0  0  0  0
    9.7022  -15.0219   22.7041 C   0  0  0  0  0  0  0  0  0  0  0  0
    9.9365  -14.2122   23.6314 O   0  0  0  0  0  0  0  0  0  0  0  0
   10.7871  -15.6246   22.0312 N   0  0  0  0  0  0  0  0  0  0  0  0
   11.9308  -16.0740   22.8451 C   0  0  1  0  0  0  0  0  0  0  0  0
   11.4573  -17.0725   23.8769 C   0  0  0  0  0  0  0  0  0  0  0  0
   12.6118  -17.6532   24.6028 C   0  0  0  0  0  0  0  0  0  0  0  0
   12.2167  -18.7028   25.6222 C   0  0  0  0  0  0  0  0  0  0  0  0
   13.3907  -19.2035   26.4222 C   0  0  0  0  0  0  0  0  0  0  0  0
   12.9825  -20.0627   27.5129 N   0  0  0  0  0  0  0  0  0  0  0  0
   12.9207  -16.5916   21.8976 C   0  0  0  0  0  0  0  0  0  0  0  0
   14.1531  -16.7161   22.1342 O   0  0  0  0  0  0  0  0  0  0  0  0
   12.5414  -17.0013   20.6046 O   0  0  0  0  0  0  0  0  0  0  0  0
  2  1  1  1
  2  3  1  0
  3  4  1  0
  4  9  2  0
  5  4  1  0
  5  6  2  0
  6  7  1  0
  7  8  2  0
  9  8  1  0
 10 12  1  0
 10  2  1  0
 11 10  2  0
 13 19  1  0
 13 12  1  0
 13 14  1  6
 15 14  1  0
 16 15  1  0
 17 18  1  0
 17 16  1  0
 19 21  1  0
 20 19  2  0
 21 22  1  0
 22 28  1  0
 23 24  1  0
 22 23  1  1
 25 24  1  0
 26 25  1  0
 27 26  1  0
 28 29  2  0
 28 30  1  0
M  END
$$$$
