FKK.pdb
     RDKit          3D

 30 30  0  0  1  0  0  0  0  0999 V2000
    5.8869  -17.8451   25.9259 N   0  0  0  0  0  0  0  0  0  0  0  0
    6.4437  -16.5402   25.7199 C   0  0  1  0  0  0  0  0  0  0  0  0
    7.1833  -16.1075   26.9558 C   0  0  0  0  0  0  0  0  0  0  0  0
    7.2729  -14.6236   26.9330 C   0  0  0  0  0  0  0  0  0  0  0  0
    6.1076  -13.8800   26.9848 C   0  0  0  0  0  0  0  0  0  0  0  0
    6.2232  -12.5058   26.9619 C   0  0  0  0  0  0  0  0  0  0  0  0
    7.4154  -11.8387   26.8914 C   0  0  0  0  0  0  0  0  0  0  0  0
    8.5873  -12.5842   26.8393 C   0  0  0  0  0  0  0  0  0  0  0  0
    8.5013  -13.9620   26.8607 C   0  0  0  0  0  0  0  0  0  0  0  0
    7.2936  -16.4976   24.5049 C   0  0  0  0  0  0  0  0  0  0  0  0
    8.0266  -17.4916   24.2621 O   0  0  0  0  0  0  0  0  0  0  0  0
    7.3299  -15.4191   23.6122 N   0  0  0  0  0  0  0  0  0  0  0  0
    8.0542  -15.4338   22.3788 C   0  0  1  0  0  0  0  0  0  0  0  0
    7.7828  -14.1981   21.5351 C   0  0  0  0  0  0  0  0  0  0  0  0
    8.4624  -14.3619   20.1702 C   0  0  0  0  0  0  0  0  0  0  0  0
    8.1316  -13.2086   19.2616 C   0  0  0  0  0  0  0  0  0  0  0  0
    8.6794  -13.5462   17.8910 C   0  0  0  0  0  0  0  0  0  0  0  0
    8.3329  -12.5448   16.9150 N   0  0  0  0  0  0  0  0  0  0  0  0
    9.5133  -15.5007   22.6123 C   0  0  0  0  0  0  0  0  0  0  0  0
    9.9972  -14.7236   23.4681 O   0  0  0  0  0  0  0  0  0  0  0  0
   10.3739  -16.3855   21.9269 N   0  0  0  0  0  0  0  0  0  0  0  0
   11.7214  -16.5973   22.4855 C   0  0  1  0  0  0  0  0  0  0  0  0
   12.1435  -18.0315   22.2606 C   0  0  0  0  0  0  0  0  0  0  0  0
   13.5200  -18.2508   22.7648 C   0  0  0  0  0  0  0  0  0  0  0  0
   14.0308  -19.6582   22.5300 C   0  0  0  0  0  0  0  0  0  0  0  0
   15.3832  -19.8941   23.1501 C   0  0  0  0  0  0  0  0  0  0  0  0
   15.9425  -21.1740   22.7714 N   0  0  0  0  0  0  0  0  0  0  0  0
   12.5822  -15.5963   21.8512 C   0  0  0  0  0  0  0  0  0  0  0  0
   13.5014  -14.9587   22.4334 O   0  0  0  0  0  0  0  0  0  0  0  0
   12.4309  -15.2681   20.4900 O   0  0  0  0  0  0  0  0  0  0  0  0
  2  1  1  1
  2  3  1  0
  3  4  1  0
  4  9  2  0
  5  4  1  0
  5  6  2  0
  6  7  1  0
  7  8  2  0
  9  8  1  0
 10 12  1  0
 10  2  1  0
 11 10  2  0
 13 19  1  0
 13 12  1  0
 13 14  1  1
 15 14  1  0
 16 15  1  0
 17 18  1  0
 17 16  1  0
 19 21  1  0
 20 19  2  0
 21 22  1  0
 22 28  1  0
 23 24  1  0
 22 23  1  6
 25 24  1  0
 26 25  1  0
 27 26  1  0
 28 29  2  0
 28 30  1  0
M  END
$$$$
