FKK.pdb
     RDKit          3D

 30 30  0  0  1  0  0  0  0  0999 V2000
    5.7004  -17.4441   24.8664 N   0  0  0  0  0  0  0  0  0  0  0  0
    6.3011  -16.1425   24.8504 C   0  0  1  0  0  0  0  0  0  0  0  0
    6.5611  -15.6907   26.2611 C   0  0  0  0  0  0  0  0  0  0  0  0
    6.6206  -14.2050   26.2565 C   0  0  0  0  0  0  0  0  0  0  0  0
    7.8548  -13.5827   26.3116 C   0  0  0  0  0  0  0  0  0  0  0  0
    7.8775  -12.2036   26.3059 C   0  0  0  0  0  0  0  0  0  0  0  0
    6.7578  -11.4196   26.2493 C   0  0  0  0  0  0  0  0  0  0  0  0
    5.5169  -12.0432   26.1940 C   0  0  0  0  0  0  0  0  0  0  0  0
    5.4644  -13.4228   26.1982 C   0  0  0  0  0  0  0  0  0  0  0  0
    7.5242  -16.1186   24.0115 C   0  0  0  0  0  0  0  0  0  0  0  0
    8.3657  -17.0415   24.1683 O   0  0  0  0  0  0  0  0  0  0  0  0
    7.7994  -15.1321   23.0563 N   0  0  0  0  0  0  0  0  0  0  0  0
    8.9463  -15.1526   22.2019 C   0  0  1  0  0  0  0  0  0  0  0  0
    8.9928  -13.9526   21.2689 C   0  0  0  0  0  0  0  0  0  0  0  0
    8.2687  -14.3026   19.9631 C   0  0  0  0  0  0  0  0  0  0  0  0
    7.7225  -13.0659   19.3017 C   0  0  0  0  0  0  0  0  0  0  0  0
    7.0253  -13.5072   18.0323 C   0  0  0  0  0  0  0  0  0  0  0  0
    7.8873  -14.3051   17.1981 N   0  0  0  0  0  0  0  0  0  0  0  0
   10.2011  -15.1551   22.9853 C   0  0  0  0  0  0  0  0  0  0  0  0
   10.1528  -14.7053   24.1540 O   0  0  0  0  0  0  0  0  0  0  0  0
   11.4322  -15.6332   22.4862 N   0  0  0  0  0  0  0  0  0  0  0  0
   12.3712  -16.2366   23.4488 C   0  0  1  0  0  0  0  0  0  0  0  0
   11.7088  -17.4092   24.1360 C   0  0  0  0  0  0  0  0  0  0  0  0
   12.6792  -18.1139   25.0071 C   0  0  0  0  0  0  0  0  0  0  0  0
   12.0935  -19.3248   25.7052 C   0  0  0  0  0  0  0  0  0  0  0  0
   13.0567  -19.9546   26.6773 C   0  0  0  0  0  0  0  0  0  0  0  0
   12.4895  -21.1109   27.3375 N   0  0  0  0  0  0  0  0  0  0  0  0
   13.5734  -16.5721   22.6823 C   0  0  0  0  0  0  0  0  0  0  0  0
   13.5780  -17.0450   21.5133 O   0  0  0  0  0  0  0  0  0  0  0  0
   14.8578  -16.3790   23.2271 O   0  0  0  0  0  0  0  0  0  0  0  0
  2  1  1  1
  2  3  1  0
  3  4  1  0
  4  9  2  0
  5  4  1  0
  5  6  2  0
  6  7  1  0
  7  8  2  0
  9  8  1  0
 10 12  1  0
 10  2  1  0
 11 10  2  0
 13 19  1  0
 13 12  1  0
 13 14  1  6
 15 14  1  0
 16 15  1  0
 17 18  1  0
 17 16  1  0
 19 21  1  0
 20 19  2  0
 21 22  1  0
 22 28  1  0
 23 24  1  0
 22 23  1  6
 25 24  1  0
 26 25  1  0
 27 26  1  0
 28 29  2  0
 28 30  1  0
M  END
$$$$
