FKK.pdb
     RDKit          3D

 30 30  0  0  1  0  0  0  0  0999 V2000
    6.7816  -17.8088   26.0716 N   0  0  0  0  0  0  0  0  0  0  0  0
    6.2336  -16.8850   25.1220 C   0  0  1  0  0  0  0  0  0  0  0  0
    5.6892  -15.6837   25.8447 C   0  0  0  0  0  0  0  0  0  0  0  0
    6.8457  -14.8750   26.3128 C   0  0  0  0  0  0  0  0  0  0  0  0
    7.6555  -15.3792   27.3145 C   0  0  0  0  0  0  0  0  0  0  0  0
    8.7203  -14.6057   27.7274 C   0  0  0  0  0  0  0  0  0  0  0  0
    9.0209  -13.3765   27.2076 C   0  0  0  0  0  0  0  0  0  0  0  0
    8.2083  -12.8684   26.2010 C   0  0  0  0  0  0  0  0  0  0  0  0
    7.1351  -13.6214   25.7681 C   0  0  0  0  0  0  0  0  0  0  0  0
    7.2271  -16.5208   24.0824 C   0  0  0  0  0  0  0  0  0  0  0  0
    8.2398  -17.2564   23.9502 O   0  0  0  0  0  0  0  0  0  0  0  0
    7.1066  -15.4086   23.2398 N   0  0  0  0  0  0  0  0  0  0  0  0
    7.9851  -15.1458   22.1420 C   0  0  1  0  0  0  0  0  0  0  0  0
    7.5238  -13.9639   21.3035 C   0  0  0  0  0  0  0  0  0  0  0  0
    8.4833  -13.7812   20.1213 C   0  0  0  0  0  0  0  0  0  0  0  0
    7.7564  -13.9201   18.8108 C   0  0  0  0  0  0  0  0  0  0  0  0
    8.8011  -13.9079   17.7150 C   0  0  0  0  0  0  0  0  0  0  0  0
    8.2271  -14.1956   16.4254 N   0  0  0  0  0  0  0  0  0  0  0  0
    9.3571  -14.8505   22.6093 C   0  0  0  0  0  0  0  0  0  0  0  0
    9.4820  -14.0427   23.5591 O   0  0  0  0  0  0  0  0  0  0  0  0
   10.5154  -15.4271   22.0443 N   0  0  0  0  0  0  0  0  0  0  0  0
   11.4926  -16.0371   22.9638 C   0  0  1  0  0  0  0  0  0  0  0  0
   10.8530  -17.2037   23.6820 C   0  0  0  0  0  0  0  0  0  0  0  0
   11.7742  -17.7478   24.7078 C   0  0  0  0  0  0  0  0  0  0  0  0
   11.8414  -19.2618   24.7154 C   0  0  0  0  0  0  0  0  0  0  0  0
   12.6721  -19.7986   25.8516 C   0  0  0  0  0  0  0  0  0  0  0  0
   12.0066  -19.6589   27.1291 N   0  0  0  0  0  0  0  0  0  0  0  0
   12.6558  -16.3829   22.1437 C   0  0  0  0  0  0  0  0  0  0  0  0
   12.9620  -17.5502   21.7774 O   0  0  0  0  0  0  0  0  0  0  0  0
   13.5457  -15.3890   21.6921 O   0  0  0  0  0  0  0  0  0  0  0  0
  2  1  1  1
  2  3  1  0
  3  4  1  0
  4  9  2  0
  5  4  1  0
  5  6  2  0
  6  7  1  0
  7  8  2  0
  9  8  1  0
 10 12  1  0
 10  2  1  0
 11 10  2  0
 13 19  1  0
 13 12  1  0
 13 14  1  1
 15 14  1  0
 16 15  1  0
 17 18  1  0
 17 16  1  0
 19 21  1  0
 20 19  2  0
 21 22  1  0
 22 28  1  0
 23 24  1  0
 22 23  1  6
 25 24  1  0
 26 25  1  0
 27 26  1  0
 28 29  2  0
 28 30  1  0
M  END
$$$$
