FKK.pdb
     RDKit          3D

 30 30  0  0  1  0  0  0  0  0999 V2000
    5.6505  -17.7640   25.6924 N   0  0  0  0  0  0  0  0  0  0  0  0
    6.1908  -16.4515   25.4903 C   0  0  1  0  0  0  0  0  0  0  0  0
    6.8895  -15.9965   26.7419 C   0  0  0  0  0  0  0  0  0  0  0  0
    7.0993  -14.5285   26.6346 C   0  0  0  0  0  0  0  0  0  0  0  0
    5.9995  -13.6898   26.6615 C   0  0  0  0  0  0  0  0  0  0  0  0
    6.2261  -12.3330   26.5599 C   0  0  0  0  0  0  0  0  0  0  0  0
    7.4672  -11.7713   26.4347 C   0  0  0  0  0  0  0  0  0  0  0  0
    8.5733  -12.6125   26.4074 C   0  0  0  0  0  0  0  0  0  0  0  0
    8.3758  -13.9752   26.5074 C   0  0  0  0  0  0  0  0  0  0  0  0
    7.0722  -16.4043   24.2982 C   0  0  0  0  0  0  0  0  0  0  0  0
    7.8249  -17.3895   24.0811 O   0  0  0  0  0  0  0  0  0  0  0  0
    7.1178  -15.3306   23.4002 N   0  0  0  0  0  0  0  0  0  0  0  0
    7.9450  -15.3062   22.2335 C   0  0  1  0  0  0  0  0  0  0  0  0
    7.6604  -14.1024   21.3490 C   0  0  0  0  0  0  0  0  0  0  0  0
    8.5238  -14.1920   20.0847 C   0  0  0  0  0  0  0  0  0  0  0  0
    8.1871  -13.0847   19.1226 C   0  0  0  0  0  0  0  0  0  0  0  0
    9.0369  -13.2908   17.8866 C   0  0  0  0  0  0  0  0  0  0  0  0
    8.7592  -14.5535   17.2510 N   0  0  0  0  0  0  0  0  0  0  0  0
    9.3796  -15.2652   22.5917 C   0  0  0  0  0  0  0  0  0  0  0  0
    9.7310  -14.4481   23.4745 O   0  0  0  0  0  0  0  0  0  0  0  0
   10.3572  -16.0907   21.9949 N   0  0  0  0  0  0  0  0  0  0  0  0
   11.6808  -16.1576   22.6401 C   0  0  1  0  0  0  0  0  0  0  0  0
   11.9027  -17.5449   23.1986 C   0  0  0  0  0  0  0  0  0  0  0  0
   11.4920  -17.6015   24.6217 C   0  0  0  0  0  0  0  0  0  0  0  0
   11.5589  -18.9952   25.2133 C   0  0  0  0  0  0  0  0  0  0  0  0
   11.0086  -19.0563   26.6142 C   0  0  0  0  0  0  0  0  0  0  0  0
   12.0560  -19.1259   27.6105 N   0  0  0  0  0  0  0  0  0  0  0  0
   12.6472  -15.7434   21.6205 C   0  0  0  0  0  0  0  0  0  0  0  0
   13.7907  -15.2675   21.8578 O   0  0  0  0  0  0  0  0  0  0  0  0
   12.3469  -15.8556   20.2490 O   0  0  0  0  0  0  0  0  0  0  0  0
  2  1  1  1
  2  3  1  0
  3  4  1  0
  4  9  2  0
  5  4  1  0
  5  6  2  0
  6  7  1  0
  7  8  2  0
  9  8  1  0
 10 12  1  0
 10  2  1  0
 11 10  2  0
 13 19  1  0
 13 12  1  0
 13 14  1  1
 15 14  1  0
 16 15  1  0
 17 18  1  0
 17 16  1  0
 19 21  1  0
 20 19  2  0
 21 22  1  0
 22 28  1  0
 23 24  1  0
 22 23  1  6
 25 24  1  0
 26 25  1  0
 27 26  1  0
 28 29  2  0
 28 30  1  0
M  END
$$$$
