QPC.pdb
     RDKit          3D

 23 23  0  0  1  0  0  0  0  0999 V2000
   24.0331  -19.1355  -18.6022 N   0  0  0  0  0  0  0  0  0  0  0  0
   25.2251  -19.8306  -18.9371 C   0  0  0  0  0  0  0  0  0  0  0  0
   26.2915  -19.1715  -19.0082 O   0  0  0  0  0  0  0  0  0  0  0  0
   25.2653  -21.2773  -19.2024 C   0  0  0  0  0  0  0  0  0  0  0  0
   25.4463  -22.0532  -17.9267 C   0  0  0  0  0  0  0  0  0  0  0  0
   26.9165  -21.9845  -17.5343 C   0  0  2  0  0  0  0  0  0  0  0  0
   27.6170  -23.1475  -17.9925 N   0  0  0  0  0  0  0  0  0  0  0  0
   27.0564  -21.8052  -16.1018 C   0  0  0  0  0  0  0  0  0  0  0  0
   26.9291  -22.8541  -15.3783 O   0  0  0  0  0  0  0  0  0  0  0  0
   27.3215  -20.5545  -15.4587 N   0  0  0  0  0  0  0  0  0  0  0  0
   27.8285  -19.4079  -16.1800 C   0  0  0  0  0  0  0  0  0  0  0  0
   28.1452  -18.3455  -15.1363 C   0  0  0  0  0  0  0  0  0  0  0  0
   27.2084  -18.7186  -14.0202 C   0  0  0  0  0  0  0  0  0  0  0  0
   27.1993  -20.2216  -14.0893 C   0  0  1  0  0  0  0  0  0  0  0  0
   25.9829  -20.7528  -13.4096 C   0  0  0  0  0  0  0  0  0  0  0  0
   24.9546  -20.9403  -14.0861 O   0  0  0  0  0  0  0  0  0  0  0  0
   25.9448  -21.0540  -12.0282 N   0  0  0  0  0  0  0  0  0  0  0  0
   24.7524  -21.2169  -11.2542 C   0  0  1  0  0  0  0  0  0  0  0  0
   25.1170  -20.8759   -9.8034 C   0  0  0  0  0  0  0  0  0  0  0  0
   23.6906  -21.0712   -8.7094 S   0  0  0  0  0  0  0  0  0  0  0  0
   23.6475  -20.3319  -11.6420 C   0  0  0  0  0  0  0  0  0  0  0  0
   22.3876  -20.8964  -11.7844 O   0  0  0  0  0  0  0  0  0  0  0  0
   23.7651  -19.0999  -11.8535 O   0  0  0  0  0  0  0  0  0  0  0  0
  2  1  1  0
  2  3  2  0
  4  5  1  0
  4  2  1  0
  6  5  1  0
  6  7  1  1
  8  6  1  0
  8 10  1  0
  9  8  2  0
 10 14  1  0
 11 10  1  0
 11 12  1  0
 12 13  1  0
 14 13  1  0
 14 15  1  6
 15 17  1  0
 16 15  2  0
 18 17  1  0
 18 21  1  0
 18 19  1  1
 20 19  1  0
 21 22  1  0
 23 21  2  0
M  END
$$$$
