QPC.pdb
     RDKit          3D

 23 23  0  0  1  0  0  0  0  0999 V2000
   20.5514  -11.1551  -21.2182 N   0  0  0  0  0  0  0  0  0  0  0  0
   19.7808  -12.2827  -20.8299 C   0  0  0  0  0  0  0  0  0  0  0  0
   19.0974  -12.8609  -21.7104 O   0  0  0  0  0  0  0  0  0  0  0  0
   19.7481  -12.7993  -19.4525 C   0  0  0  0  0  0  0  0  0  0  0  0
   20.6526  -11.9988  -18.5563 C   0  0  0  0  0  0  0  0  0  0  0  0
   20.5257  -12.5484  -17.1414 C   0  0  2  0  0  0  0  0  0  0  0  0
   19.2467  -13.1657  -16.9515 N   0  0  0  0  0  0  0  0  0  0  0  0
   20.7669  -11.5050  -16.1631 C   0  0  0  0  0  0  0  0  0  0  0  0
   19.7654  -10.7710  -15.8501 O   0  0  0  0  0  0  0  0  0  0  0  0
   22.0289  -11.2487  -15.5388 N   0  0  0  0  0  0  0  0  0  0  0  0
   23.1145  -12.2039  -15.5716 C   0  0  0  0  0  0  0  0  0  0  0  0
   24.2035  -11.6529  -14.6613 C   0  0  0  0  0  0  0  0  0  0  0  0
   23.9295  -10.1746  -14.7102 C   0  0  0  0  0  0  0  0  0  0  0  0
   22.4276  -10.1224  -14.7815 C   0  0  1  0  0  0  0  0  0  0  0  0
   21.9915   -8.8029  -15.3224 C   0  0  0  0  0  0  0  0  0  0  0  0
   21.9689   -8.6415  -16.5568 O   0  0  0  0  0  0  0  0  0  0  0  0
   21.6015   -7.7244  -14.4946 N   0  0  0  0  0  0  0  0  0  0  0  0
   21.4342   -6.3717  -14.9300 C   0  0  1  0  0  0  0  0  0  0  0  0
   19.9475   -6.0329  -14.7591 C   0  0  0  0  0  0  0  0  0  0  0  0
   19.6222   -4.3017  -15.1672 S   0  0  0  0  0  0  0  0  0  0  0  0
   22.1949   -5.3831  -14.1564 C   0  0  0  0  0  0  0  0  0  0  0  0
   22.7780   -4.3312  -14.8491 O   0  0  0  0  0  0  0  0  0  0  0  0
   22.3536   -5.4248  -12.9116 O   0  0  0  0  0  0  0  0  0  0  0  0
  2  1  1  0
  2  3  2  0
  4  5  1  0
  4  2  1  0
  6  5  1  0
  6  7  1  1
  8  6  1  0
  8 10  1  0
  9  8  2  0
 10 14  1  0
 11 10  1  0
 11 12  1  0
 12 13  1  0
 14 13  1  0
 14 15  1  6
 15 17  1  0
 16 15  2  0
 18 17  1  0
 18 21  1  0
 18 19  1  1
 20 19  1  0
 21 22  1  0
 23 21  2  0
M  END
$$$$
