QPC.pdb
     RDKit          3D

 23 23  0  0  1  0  0  0  0  0999 V2000
   19.6825  -23.8265   -6.8388 N   0  0  0  0  0  0  0  0  0  0  0  0
   18.5665  -24.4548   -7.4519 C   0  0  0  0  0  0  0  0  0  0  0  0
   17.7245  -25.0163   -6.7085 O   0  0  0  0  0  0  0  0  0  0  0  0
   18.3549  -24.4768   -8.9079 C   0  0  0  0  0  0  0  0  0  0  0  0
   19.4067  -23.6683   -9.6164 C   0  0  0  0  0  0  0  0  0  0  0  0
   19.0631  -22.1937   -9.4506 C   0  0  2  0  0  0  0  0  0  0  0  0
   17.6686  -21.9693   -9.6913 N   0  0  0  0  0  0  0  0  0  0  0  0
   19.8936  -21.3742  -10.3123 C   0  0  0  0  0  0  0  0  0  0  0  0
   19.3330  -20.8918  -11.3576 O   0  0  0  0  0  0  0  0  0  0  0  0
   21.2732  -21.0776  -10.0732 N   0  0  0  0  0  0  0  0  0  0  0  0
   21.9141  -21.3556   -8.8067 C   0  0  0  0  0  0  0  0  0  0  0  0
   23.3066  -20.7447   -8.8831 C   0  0  0  0  0  0  0  0  0  0  0  0
   23.5668  -20.7507  -10.3646 C   0  0  0  0  0  0  0  0  0  0  0  0
   22.2064  -20.4581  -10.9369 C   0  0  1  0  0  0  0  0  0  0  0  0
   22.1496  -20.8996  -12.3601 C   0  0  0  0  0  0  0  0  0  0  0  0
   22.1867  -22.1190  -12.6089 O   0  0  0  0  0  0  0  0  0  0  0  0
   22.0551  -19.9937  -13.4422 N   0  0  0  0  0  0  0  0  0  0  0  0
   22.0939  -20.3575  -14.8255 C   0  0  1  0  0  0  0  0  0  0  0  0
   20.8614  -19.7239  -15.4840 C   0  0  0  0  0  0  0  0  0  0  0  0
   19.3512  -20.1467  -14.5839 S   0  0  0  0  0  0  0  0  0  0  0  0
   23.2718  -19.8689  -15.5522 C   0  0  0  0  0  0  0  0  0  0  0  0
   23.5042  -20.3785  -16.8221 O   0  0  0  0  0  0  0  0  0  0  0  0
   24.0826  -19.0219  -15.1031 O   0  0  0  0  0  0  0  0  0  0  0  0
  2  1  1  0
  2  3  2  0
  4  5  1  0
  4  2  1  0
  6  5  1  0
  6  7  1  6
  8  6  1  0
  8 10  1  0
  9  8  2  0
 10 14  1  0
 11 10  1  0
 11 12  1  0
 12 13  1  0
 14 13  1  0
 14 15  1  6
 15 17  1  0
 16 15  2  0
 18 17  1  0
 18 21  1  0
 18 19  1  6
 20 19  1  0
 21 22  1  0
 23 21  2  0
M  END
$$$$
