QPC.pdb
     RDKit          3D

 23 23  0  0  1  0  0  0  0  0999 V2000
   14.6485  -10.7859  -17.3333 N   0  0  0  0  0  0  0  0  0  0  0  0
   15.8339  -11.0507  -18.0689 C   0  0  0  0  0  0  0  0  0  0  0  0
   15.7162  -11.4167  -19.2643 O   0  0  0  0  0  0  0  0  0  0  0  0
   17.1828  -10.9163  -17.4968 C   0  0  0  0  0  0  0  0  0  0  0  0
   17.1189  -10.4112  -16.0815 C   0  0  0  0  0  0  0  0  0  0  0  0
   18.3709  -10.8819  -15.3529 C   0  0  2  0  0  0  0  0  0  0  0  0
   18.3435  -12.3023  -15.1664 N   0  0  0  0  0  0  0  0  0  0  0  0
   18.5249  -10.1796  -14.0931 C   0  0  0  0  0  0  0  0  0  0  0  0
   17.8317  -10.6130  -13.1076 O   0  0  0  0  0  0  0  0  0  0  0  0
   19.3849   -9.0545  -13.8867 N   0  0  0  0  0  0  0  0  0  0  0  0
   20.4287   -8.6988  -14.8227 C   0  0  0  0  0  0  0  0  0  0  0  0
   21.2263   -7.5752  -14.1751 C   0  0  0  0  0  0  0  0  0  0  0  0
   20.2068   -6.9623  -13.2545 C   0  0  0  0  0  0  0  0  0  0  0  0
   19.4220   -8.1597  -12.7918 C   0  0  1  0  0  0  0  0  0  0  0  0
   18.0914   -7.7256  -12.2772 C   0  0  0  0  0  0  0  0  0  0  0  0
   17.1805   -7.4971  -13.0947 O   0  0  0  0  0  0  0  0  0  0  0  0
   17.8170   -7.5615  -10.8994 N   0  0  0  0  0  0  0  0  0  0  0  0
   16.5776   -7.0952  -10.3572 C   0  0  1  0  0  0  0  0  0  0  0  0
   16.5596   -7.5054   -8.8788 C   0  0  0  0  0  0  0  0  0  0  0  0
   15.0212   -6.9933   -8.0786 S   0  0  0  0  0  0  0  0  0  0  0  0
   16.4004   -5.6389  -10.4042 C   0  0  0  0  0  0  0  0  0  0  0  0
   15.1361   -5.1517  -10.7051 O   0  0  0  0  0  0  0  0  0  0  0  0
   17.3144   -4.8050  -10.1907 O   0  0  0  0  0  0  0  0  0  0  0  0
  2  1  1  0
  2  3  2  0
  4  5  1  0
  4  2  1  0
  6  5  1  0
  6  7  1  1
  8  6  1  0
  8 10  1  0
  9  8  2  0
 10 14  1  0
 11 10  1  0
 11 12  1  0
 12 13  1  0
 14 13  1  0
 14 15  1  6
 15 17  1  0
 16 15  2  0
 18 17  1  0
 18 21  1  0
 18 19  1  1
 20 19  1  0
 21 22  1  0
 23 21  2  0
M  END
$$$$
