QPC.pdb
     RDKit          3D

 23 23  0  0  1  0  0  0  0  0999 V2000
   20.8107  -18.2102  -12.8686 N   0  0  0  0  0  0  0  0  0  0  0  0
   21.3830  -18.3618  -14.1592 C   0  0  0  0  0  0  0  0  0  0  0  0
   20.8435  -17.7562  -15.1179 O   0  0  0  0  0  0  0  0  0  0  0  0
   22.5705  -19.1904  -14.4206 C   0  0  0  0  0  0  0  0  0  0  0  0
   23.1318  -19.7450  -13.1402 C   0  0  0  0  0  0  0  0  0  0  0  0
   24.1564  -20.8146  -13.4955 C   0  0  2  0  0  0  0  0  0  0  0  0
   23.5161  -21.9509  -14.0886 N   0  0  0  0  0  0  0  0  0  0  0  0
   24.9338  -21.1868  -12.3289 C   0  0  0  0  0  0  0  0  0  0  0  0
   24.2837  -21.6743  -11.3393 O   0  0  0  0  0  0  0  0  0  0  0  0
   26.3534  -21.0452  -12.2161 N   0  0  0  0  0  0  0  0  0  0  0  0
   27.2022  -20.8353  -13.3682 C   0  0  0  0  0  0  0  0  0  0  0  0
   28.6381  -20.9134  -12.8680 C   0  0  0  0  0  0  0  0  0  0  0  0
   28.4857  -20.5152  -11.4255 C   0  0  0  0  0  0  0  0  0  0  0  0
   27.1599  -21.1233  -11.0565 C   0  0  1  0  0  0  0  0  0  0  0  0
   26.6089  -20.4434   -9.8491 C   0  0  0  0  0  0  0  0  0  0  0  0
   25.9984  -19.3682   -9.9957 O   0  0  0  0  0  0  0  0  0  0  0  0
   26.7489  -20.9660   -8.5423 N   0  0  0  0  0  0  0  0  0  0  0  0
   26.7881  -20.1853   -7.3438 C   0  0  1  0  0  0  0  0  0  0  0  0
   26.4487  -21.1341   -6.1868 C   0  0  0  0  0  0  0  0  0  0  0  0
   26.7749  -20.3555   -4.5878 S   0  0  0  0  0  0  0  0  0  0  0  0
   28.0963  -19.5902   -7.0457 C   0  0  0  0  0  0  0  0  0  0  0  0
   28.1152  -18.3253   -6.4748 O   0  0  0  0  0  0  0  0  0  0  0  0
   29.1983  -20.1477   -7.2720 O   0  0  0  0  0  0  0  0  0  0  0  0
  2  1  1  0
  2  3  2  0
  4  5  1  0
  4  2  1  0
  6  5  1  0
  6  7  1  1
  8  6  1  0
  8 10  1  0
  9  8  2  0
 10 14  1  0
 11 10  1  0
 11 12  1  0
 12 13  1  0
 14 13  1  0
 14 15  1  1
 15 17  1  0
 16 15  2  0
 18 17  1  0
 18 21  1  0
 18 19  1  1
 20 19  1  0
 21 22  1  0
 23 21  2  0
M  END
$$$$
