QPC.pdb
     RDKit          3D

 23 23  0  0  1  0  0  0  0  0999 V2000
   15.6944  -11.3979  -17.8197 N   0  0  0  0  0  0  0  0  0  0  0  0
   16.1824  -12.6113  -18.3727 C   0  0  0  0  0  0  0  0  0  0  0  0
   15.3588  -13.3785  -18.9293 O   0  0  0  0  0  0  0  0  0  0  0  0
   17.5990  -13.0060  -18.3225 C   0  0  0  0  0  0  0  0  0  0  0  0
   18.4168  -11.9821  -17.5843 C   0  0  0  0  0  0  0  0  0  0  0  0
   19.8738  -12.4247  -17.6182 C   0  0  2  0  0  0  0  0  0  0  0  0
   20.0539  -13.6296  -16.8640 N   0  0  0  0  0  0  0  0  0  0  0  0
   20.7427  -11.3633  -17.1466 C   0  0  0  0  0  0  0  0  0  0  0  0
   20.9620  -11.3206  -15.8858 O   0  0  0  0  0  0  0  0  0  0  0  0
   21.3572  -10.3797  -17.9851 N   0  0  0  0  0  0  0  0  0  0  0  0
   21.4438  -10.5343  -19.4206 C   0  0  0  0  0  0  0  0  0  0  0  0
   22.3086   -9.3885  -19.9279 C   0  0  0  0  0  0  0  0  0  0  0  0
   22.0989   -8.3470  -18.8630 C   0  0  0  0  0  0  0  0  0  0  0  0
   21.9974   -9.1751  -17.6110 C   0  0  1  0  0  0  0  0  0  0  0  0
   21.3127   -8.3941  -16.5409 C   0  0  0  0  0  0  0  0  0  0  0  0
   20.0734   -8.2820  -16.5837 O   0  0  0  0  0  0  0  0  0  0  0  0
   22.0090   -7.7740  -15.4775 N   0  0  0  0  0  0  0  0  0  0  0  0
   21.4149   -6.9302  -14.4863 C   0  0  1  0  0  0  0  0  0  0  0  0
   21.6298   -7.6196  -13.1325 C   0  0  0  0  0  0  0  0  0  0  0  0
   20.9033   -6.6548  -11.7868 S   0  0  0  0  0  0  0  0  0  0  0  0
   22.0088   -5.5914  -14.3890 C   0  0  0  0  0  0  0  0  0  0  0  0
   21.1551   -4.5216  -14.1590 O   0  0  0  0  0  0  0  0  0  0  0  0
   23.2358   -5.3490  -14.4997 O   0  0  0  0  0  0  0  0  0  0  0  0
  2  1  1  0
  2  3  2  0
  4  5  1  0
  4  2  1  0
  6  5  1  0
  6  7  1  1
  8  6  1  0
  8 10  1  0
  9  8  2  0
 10 14  1  0
 11 10  1  0
 11 12  1  0
 12 13  1  0
 14 13  1  0
 14 15  1  1
 15 17  1  0
 16 15  2  0
 18 17  1  0
 18 21  1  0
 18 19  1  1
 20 19  1  0
 21 22  1  0
 23 21  2  0
M  END
$$$$
