QPC.pdb
     RDKit          3D

 23 23  0  0  1  0  0  0  0  0999 V2000
   23.0299  -23.9063  -14.9848 N   0  0  0  0  0  0  0  0  0  0  0  0
   21.6183  -24.0590  -14.9997 C   0  0  0  0  0  0  0  0  0  0  0  0
   21.1520  -25.2245  -15.0331 O   0  0  0  0  0  0  0  0  0  0  0  0
   20.6856  -22.9212  -14.9778 C   0  0  0  0  0  0  0  0  0  0  0  0
   21.4294  -21.6179  -14.8762 C   0  0  0  0  0  0  0  0  0  0  0  0
   21.8659  -21.4326  -13.4287 C   0  0  2  0  0  0  0  0  0  0  0  0
   20.7694  -20.9831  -12.6234 N   0  0  0  0  0  0  0  0  0  0  0  0
   22.9965  -20.5276  -13.3466 C   0  0  0  0  0  0  0  0  0  0  0  0
   22.7466  -19.2827  -13.5121 O   0  0  0  0  0  0  0  0  0  0  0  0
   24.3471  -20.9306  -13.0983 N   0  0  0  0  0  0  0  0  0  0  0  0
   24.6719  -22.1725  -12.4319 C   0  0  0  0  0  0  0  0  0  0  0  0
   26.1763  -22.1575  -12.1979 C   0  0  0  0  0  0  0  0  0  0  0  0
   26.6519  -21.2480  -13.2976 C   0  0  0  0  0  0  0  0  0  0  0  0
   25.5441  -20.2337  -13.3853 C   0  0  1  0  0  0  0  0  0  0  0  0
   25.5840  -19.5531  -14.7115 C   0  0  0  0  0  0  0  0  0  0  0  0
   25.0483  -20.1127  -15.6863 O   0  0  0  0  0  0  0  0  0  0  0  0
   26.2041  -18.2979  -14.9123 N   0  0  0  0  0  0  0  0  0  0  0  0
   26.2916  -17.6147  -16.1665 C   0  0  1  0  0  0  0  0  0  0  0  0
   26.4247  -16.1198  -15.8474 C   0  0  0  0  0  0  0  0  0  0  0  0
   27.0783  -15.8645  -14.1809 S   0  0  0  0  0  0  0  0  0  0  0  0
   27.4518  -17.9873  -16.9848 C   0  0  0  0  0  0  0  0  0  0  0  0
   27.5148  -17.4911  -18.2795 O   0  0  0  0  0  0  0  0  0  0  0  0
   28.3901  -18.7238  -16.5930 O   0  0  0  0  0  0  0  0  0  0  0  0
  2  1  1  0
  2  3  2  0
  4  5  1  0
  4  2  1  0
  6  5  1  0
  6  7  1  1
  8  6  1  0
  8 10  1  0
  9  8  2  0
 10 14  1  0
 11 10  1  0
 11 12  1  0
 12 13  1  0
 14 13  1  0
 14 15  1  6
 15 17  1  0
 16 15  2  0
 18 17  1  0
 18 21  1  0
 18 19  1  1
 20 19  1  0
 21 22  1  0
 23 21  2  0
M  END
$$$$
