WPQ.pdb
     RDKit          3D

 31 33  0  0  1  0  0  0  0  0999 V2000
   26.8815  -19.1108  -10.1594 N   0  0  0  0  0  0  0  0  0  0  0  0
   26.1425  -20.3188  -10.2693 C   0  0  1  0  0  0  0  0  0  0  0  0
   26.0388  -21.0770   -8.9609 C   0  0  0  0  0  0  0  0  0  0  0  0
   27.3199  -21.0713   -8.2084 C   0  0  0  0  0  0  0  0  0  0  0  0
   28.4866  -21.7340   -8.5772 C   0  0  0  0  0  0  0  0  0  0  0  0
   29.4401  -21.5027   -7.6607 N   0  0  0  0  0  0  0  0  0  0  0  0
   28.9699  -20.7036   -6.6735 C   0  0  0  0  0  0  0  0  0  0  0  0
   29.5307  -20.1844   -5.5306 C   0  0  0  0  0  0  0  0  0  0  0  0
   28.7870  -19.3842   -4.7000 C   0  0  0  0  0  0  0  0  0  0  0  0
   27.4740  -19.1215   -5.0459 C   0  0  0  0  0  0  0  0  0  0  0  0
   26.9129  -19.6420   -6.1913 C   0  0  0  0  0  0  0  0  0  0  0  0
   27.6442  -20.4399   -7.0254 C   0  0  0  0  0  0  0  0  0  0  0  0
   24.7712  -20.1961  -10.7939 C   0  0  0  0  0  0  0  0  0  0  0  0
   24.0144  -19.4020  -10.1281 O   0  0  0  0  0  0  0  0  0  0  0  0
   24.2237  -20.8364  -11.9110 N   0  0  0  0  0  0  0  0  0  0  0  0
   24.9547  -21.8586  -12.6840 C   0  0  0  0  0  0  0  0  0  0  0  0
   24.7500  -21.3168  -14.0916 C   0  0  0  0  0  0  0  0  0  0  0  0
   23.3107  -20.8708  -14.0320 C   0  0  0  0  0  0  0  0  0  0  0  0
   22.9471  -20.7182  -12.5751 C   0  0  1  0  0  0  0  0  0  0  0  0
   22.0782  -21.8078  -12.0782 C   0  0  0  0  0  0  0  0  0  0  0  0
   22.6030  -22.8231  -11.5539 O   0  0  0  0  0  0  0  0  0  0  0  0
   18.6636  -23.7334   -6.8038 N   0  0  0  0  0  0  0  0  0  0  0  0
   19.7276  -23.6585   -7.7383 C   0  0  0  0  0  0  0  0  0  0  0  0
   20.8783  -23.5479   -7.2939 O   0  0  0  0  0  0  0  0  0  0  0  0
   19.3963  -23.7163   -9.1813 C   0  0  0  0  0  0  0  0  0  0  0  0
   20.1250  -22.7174  -10.0214 C   0  0  0  0  0  0  0  0  0  0  0  0
   19.8546  -22.7719  -11.4844 C   0  0  2  0  0  0  0  0  0  0  0  0
   20.6572  -21.7427  -12.1752 N   0  0  0  0  0  0  0  0  0  0  0  0
   18.4203  -22.5297  -11.7369 C   0  0  0  0  0  0  0  0  0  0  0  0
   17.5312  -23.5797  -11.6282 O   0  0  0  0  0  0  0  0  0  0  0  0
   18.0066  -21.3991  -12.0443 O   0  0  0  0  0  0  0  0  0  0  0  0
  2  1  1  1
  3  4  1  0
  3  2  1  0
  4  5  2  0
  6  5  1  0
  7  6  1  0
  8  7  2  0
  9  8  1  0
 10  9  2  0
 10 11  1  0
 11 12  2  0
 12  7  1  0
 12  4  1  0
 13 14  2  0
 13  2  1  0
 15 13  1  0
 16 17  1  0
 16 15  1  0
 18 19  1  0
 18 17  1  0
 19 15  1  0
 19 20  1  1
 21 20  2  0
 23 22  1  0
 24 23  2  0
 25 23  1  0
 27 26  1  1
 26 25  1  0
 27 28  1  0
 28 20  1  0
 29 30  1  0
 29 27  1  0
 31 29  2  0
M  END
$$$$
