WPQ.pdb
     RDKit          3D

 31 33  0  0  1  0  0  0  0  0999 V2000
   24.2802  -19.4633  -11.4644 N   0  0  0  0  0  0  0  0  0  0  0  0
   25.5079  -20.0681  -11.8449 C   0  0  1  0  0  0  0  0  0  0  0  0
   25.8936  -21.2413  -10.9660 C   0  0  0  0  0  0  0  0  0  0  0  0
   25.9968  -20.8572   -9.5344 C   0  0  0  0  0  0  0  0  0  0  0  0
   24.9323  -20.5494   -8.6927 C   0  0  0  0  0  0  0  0  0  0  0  0
   25.4014  -20.2504   -7.4708 N   0  0  0  0  0  0  0  0  0  0  0  0
   26.7523  -20.3417   -7.4423 C   0  0  0  0  0  0  0  0  0  0  0  0
   27.6922  -20.1423   -6.4589 C   0  0  0  0  0  0  0  0  0  0  0  0
   29.0255  -20.3152   -6.7342 C   0  0  0  0  0  0  0  0  0  0  0  0
   29.3867  -20.6912   -8.0151 C   0  0  0  0  0  0  0  0  0  0  0  0
   28.4443  -20.8909   -9.0001 C   0  0  0  0  0  0  0  0  0  0  0  0
   27.1142  -20.7215   -8.7367 C   0  0  0  0  0  0  0  0  0  0  0  0
   25.5955  -20.5398  -13.2379 C   0  0  0  0  0  0  0  0  0  0  0  0
   24.4623  -20.7519  -13.8016 O   0  0  0  0  0  0  0  0  0  0  0  0
   26.7525  -20.7734  -13.9893 N   0  0  0  0  0  0  0  0  0  0  0  0
   28.0913  -20.8869  -13.3800 C   0  0  0  0  0  0  0  0  0  0  0  0
   28.8647  -19.9232  -14.2689 C   0  0  0  0  0  0  0  0  0  0  0  0
   28.2942  -20.2482  -15.6264 C   0  0  0  0  0  0  0  0  0  0  0  0
   26.9774  -20.9515  -15.4044 C   0  0  1  0  0  0  0  0  0  0  0  0
   27.0456  -22.4054  -15.6701 C   0  0  0  0  0  0  0  0  0  0  0  0
   27.8122  -23.1224  -14.9778 O   0  0  0  0  0  0  0  0  0  0  0  0
   23.9168  -25.6838  -13.1916 N   0  0  0  0  0  0  0  0  0  0  0  0
   23.1977  -24.9152  -14.1418 C   0  0  0  0  0  0  0  0  0  0  0  0
   22.0084  -24.6669  -13.9012 O   0  0  0  0  0  0  0  0  0  0  0  0
   23.9117  -24.4602  -15.3578 C   0  0  0  0  0  0  0  0  0  0  0  0
   25.3485  -24.8687  -15.4180 C   0  0  0  0  0  0  0  0  0  0  0  0
   26.0854  -24.4877  -16.6542 C   0  0  2  0  0  0  0  0  0  0  0  0
   26.2656  -23.0225  -16.6917 N   0  0  0  0  0  0  0  0  0  0  0  0
   25.3250  -24.9211  -17.8431 C   0  0  0  0  0  0  0  0  0  0  0  0
   25.1977  -26.2701  -18.1054 O   0  0  0  0  0  0  0  0  0  0  0  0
   24.8016  -24.0913  -18.6055 O   0  0  0  0  0  0  0  0  0  0  0  0
  2  1  1  1
  3  4  1  0
  3  2  1  0
  4  5  2  0
  6  5  1  0
  7  6  1  0
  8  7  2  0
  9  8  1  0
 10  9  2  0
 10 11  1  0
 11 12  2  0
 12  7  1  0
 12  4  1  0
 13 14  2  0
 13  2  1  0
 15 13  1  0
 16 17  1  0
 16 15  1  0
 18 19  1  0
 18 17  1  0
 19 15  1  0
 19 20  1  1
 21 20  2  0
 23 22  1  0
 24 23  2  0
 25 23  1  0
 27 26  1  1
 26 25  1  0
 27 28  1  0
 28 20  1  0
 29 30  1  0
 29 27  1  0
 31 29  2  0
M  END
$$$$
