WPQ.pdb
     RDKit          3D

 31 33  0  0  1  0  0  0  0  0999 V2000
   28.2249  -20.0351  -11.3289 N   0  0  0  0  0  0  0  0  0  0  0  0
   27.1577  -20.9478  -11.1157 C   0  0  1  0  0  0  0  0  0  0  0  0
   26.8433  -21.1675   -9.6493 C   0  0  0  0  0  0  0  0  0  0  0  0
   28.0546  -21.0599   -8.7956 C   0  0  0  0  0  0  0  0  0  0  0  0
   29.3233  -21.5342   -9.1147 C   0  0  0  0  0  0  0  0  0  0  0  0
   30.1687  -21.2594   -8.1085 N   0  0  0  0  0  0  0  0  0  0  0  0
   29.5256  -20.6123   -7.1076 C   0  0  0  0  0  0  0  0  0  0  0  0
   29.9279  -20.1224   -5.8876 C   0  0  0  0  0  0  0  0  0  0  0  0
   29.0256  -19.4963   -5.0646 C   0  0  0  0  0  0  0  0  0  0  0  0
   27.7175  -19.3765   -5.4972 C   0  0  0  0  0  0  0  0  0  0  0  0
   27.3152  -19.8677   -6.7198 C   0  0  0  0  0  0  0  0  0  0  0  0
   28.2053  -20.4927   -7.5470 C   0  0  0  0  0  0  0  0  0  0  0  0
   25.8813  -20.6203  -11.7748 C   0  0  0  0  0  0  0  0  0  0  0  0
   25.1779  -19.7364  -11.1660 O   0  0  0  0  0  0  0  0  0  0  0  0
   25.3708  -21.1570  -12.9619 N   0  0  0  0  0  0  0  0  0  0  0  0
   25.9654  -22.3312  -13.6284 C   0  0  0  0  0  0  0  0  0  0  0  0
   26.0815  -21.7942  -15.0479 C   0  0  0  0  0  0  0  0  0  0  0  0
   24.7783  -21.0493  -15.1913 C   0  0  0  0  0  0  0  0  0  0  0  0
   24.2556  -20.7854  -13.8003 C   0  0  1  0  0  0  0  0  0  0  0  0
   23.1116  -21.6508  -13.4379 C   0  0  0  0  0  0  0  0  0  0  0  0
   23.3297  -22.7657  -12.8987 O   0  0  0  0  0  0  0  0  0  0  0  0
   21.2939  -21.0470   -8.7467 N   0  0  0  0  0  0  0  0  0  0  0  0
   20.1678  -21.8486   -9.0630 C   0  0  0  0  0  0  0  0  0  0  0  0
   19.4688  -22.2562   -8.1255 O   0  0  0  0  0  0  0  0  0  0  0  0
   19.9002  -22.1470  -10.4895 C   0  0  0  0  0  0  0  0  0  0  0  0
   20.9185  -21.5970  -11.4357 C   0  0  0  0  0  0  0  0  0  0  0  0
   20.6905  -21.8810  -12.8792 C   0  0  2  0  0  0  0  0  0  0  0  0
   21.7626  -21.2588  -13.6818 N   0  0  0  0  0  0  0  0  0  0  0  0
   19.3835  -21.3353  -13.2956 C   0  0  0  0  0  0  0  0  0  0  0  0
   18.2341  -22.0364  -12.9923 O   0  0  0  0  0  0  0  0  0  0  0  0
   19.3063  -20.2592  -13.9121 O   0  0  0  0  0  0  0  0  0  0  0  0
  2  1  1  1
  3  4  1  0
  3  2  1  0
  4  5  2  0
  6  5  1  0
  7  6  1  0
  8  7  2  0
  9  8  1  0
 10  9  2  0
 10 11  1  0
 11 12  2  0
 12  7  1  0
 12  4  1  0
 13 14  2  0
 13  2  1  0
 15 13  1  0
 16 17  1  0
 16 15  1  0
 18 19  1  0
 18 17  1  0
 19 15  1  0
 19 20  1  1
 21 20  2  0
 23 22  1  0
 24 23  2  0
 25 23  1  0
 27 26  1  1
 26 25  1  0
 27 28  1  0
 28 20  1  0
 29 30  1  0
 29 27  1  0
 31 29  2  0
M  END
$$$$
