WPQ.pdb
     RDKit          3D

 31 33  0  0  1  0  0  0  0  0999 V2000
   24.0163  -21.2817  -14.3750 N   0  0  0  0  0  0  0  0  0  0  0  0
   23.2251  -20.7508  -13.3215 C   0  0  1  0  0  0  0  0  0  0  0  0
   21.9442  -20.1008  -13.8055 C   0  0  0  0  0  0  0  0  0  0  0  0
   22.1594  -19.2820  -15.0265 C   0  0  0  0  0  0  0  0  0  0  0  0
   21.7947  -19.6361  -16.3219 C   0  0  0  0  0  0  0  0  0  0  0  0
   22.1439  -18.6539  -17.1681 N   0  0  0  0  0  0  0  0  0  0  0  0
   22.7365  -17.6359  -16.4998 C   0  0  0  0  0  0  0  0  0  0  0  0
   23.2628  -16.4279  -16.8921 C   0  0  0  0  0  0  0  0  0  0  0  0
   23.8118  -15.5806  -15.9626 C   0  0  0  0  0  0  0  0  0  0  0  0
   23.8178  -15.9767  -14.6376 C   0  0  0  0  0  0  0  0  0  0  0  0
   23.2902  -17.1873  -14.2452 C   0  0  0  0  0  0  0  0  0  0  0  0
   22.7412  -18.0385  -15.1624 C   0  0  0  0  0  0  0  0  0  0  0  0
   22.8414  -21.6953  -12.2577 C   0  0  0  0  0  0  0  0  0  0  0  0
   22.7952  -22.9236  -12.6261 O   0  0  0  0  0  0  0  0  0  0  0  0
   22.5315  -21.4009  -10.9254 N   0  0  0  0  0  0  0  0  0  0  0  0
   22.3646  -20.0213  -10.4300 C   0  0  0  0  0  0  0  0  0  0  0  0
   23.2664  -20.0734   -9.2048 C   0  0  0  0  0  0  0  0  0  0  0  0
   22.9387  -21.4378   -8.6525 C   0  0  0  0  0  0  0  0  0  0  0  0
   22.3086  -22.2353   -9.7683 C   0  0  1  0  0  0  0  0  0  0  0  0
   20.8473  -22.4014   -9.6075 C   0  0  0  0  0  0  0  0  0  0  0  0
   20.0871  -21.4289   -9.8474 O   0  0  0  0  0  0  0  0  0  0  0  0
   18.4174  -27.9188   -9.0283 N   0  0  0  0  0  0  0  0  0  0  0  0
   18.7641  -27.3579  -10.2836 C   0  0  0  0  0  0  0  0  0  0  0  0
   19.0223  -28.1366  -11.2114 O   0  0  0  0  0  0  0  0  0  0  0  0
   18.7961  -25.8815  -10.4051 C   0  0  0  0  0  0  0  0  0  0  0  0
   18.3806  -25.1522   -9.1680 C   0  0  0  0  0  0  0  0  0  0  0  0
   18.8007  -23.7268   -9.0771 C   0  0  2  0  0  0  0  0  0  0  0  0
   20.2705  -23.6356   -9.1869 N   0  0  0  0  0  0  0  0  0  0  0  0
   18.3670  -23.1593   -7.7851 C   0  0  0  0  0  0  0  0  0  0  0  0
   19.3207  -22.7884   -6.8590 O   0  0  0  0  0  0  0  0  0  0  0  0
   17.1613  -23.0127   -7.5230 O   0  0  0  0  0  0  0  0  0  0  0  0
  2  1  1  6
  3  4  1  0
  3  2  1  0
  4  5  2  0
  6  5  1  0
  7  6  1  0
  8  7  2  0
  9  8  1  0
 10  9  2  0
 10 11  1  0
 11 12  2  0
 12  7  1  0
 12  4  1  0
 13 14  2  0
 13  2  1  0
 15 13  1  0
 16 17  1  0
 16 15  1  0
 18 19  1  0
 18 17  1  0
 19 15  1  0
 19 20  1  1
 21 20  2  0
 23 22  1  0
 24 23  2  0
 25 23  1  0
 27 26  1  1
 26 25  1  0
 27 28  1  0
 28 20  1  0
 29 30  1  0
 29 27  1  0
 31 29  2  0
M  END
$$$$
