WPQ.pdb
     RDKit          3D

 31 33  0  0  1  0  0  0  0  0999 V2000
   24.0879  -19.9113  -11.3241 N   0  0  0  0  0  0  0  0  0  0  0  0
   25.4384  -20.1391  -11.7007 C   0  0  1  0  0  0  0  0  0  0  0  0
   26.1070  -21.2344  -10.8939 C   0  0  0  0  0  0  0  0  0  0  0  0
   26.1583  -20.9095   -9.4449 C   0  0  0  0  0  0  0  0  0  0  0  0
   25.0619  -20.6666   -8.6232 C   0  0  0  0  0  0  0  0  0  0  0  0
   25.4872  -20.4079   -7.3763 N   0  0  0  0  0  0  0  0  0  0  0  0
   26.8388  -20.4643   -7.3113 C   0  0  0  0  0  0  0  0  0  0  0  0
   27.7441  -20.2823   -6.2927 C   0  0  0  0  0  0  0  0  0  0  0  0
   29.0890  -20.4076   -6.5352 C   0  0  0  0  0  0  0  0  0  0  0  0
   29.4972  -20.7184   -7.8195 C   0  0  0  0  0  0  0  0  0  0  0  0
   28.5894  -20.9008   -8.8396 C   0  0  0  0  0  0  0  0  0  0  0  0
   27.2481  -20.7784   -8.6092 C   0  0  0  0  0  0  0  0  0  0  0  0
   25.6720  -20.4599  -13.1196 C   0  0  0  0  0  0  0  0  0  0  0  0
   24.6538  -20.9456  -13.7313 O   0  0  0  0  0  0  0  0  0  0  0  0
   26.8544  -20.2945  -13.8491 N   0  0  0  0  0  0  0  0  0  0  0  0
   28.1531  -20.0068  -13.2111 C   0  0  0  0  0  0  0  0  0  0  0  0
   28.5993  -18.8191  -14.0520 C   0  0  0  0  0  0  0  0  0  0  0  0
   28.1777  -19.2570  -15.4320 C   0  0  0  0  0  0  0  0  0  0  0  0
   27.1434  -20.3431  -15.2629 C   0  0  1  0  0  0  0  0  0  0  0  0
   27.6658  -21.6928  -15.5698 C   0  0  0  0  0  0  0  0  0  0  0  0
   28.5386  -22.2001  -14.8201 O   0  0  0  0  0  0  0  0  0  0  0  0
   23.0371  -23.6003  -14.7786 N   0  0  0  0  0  0  0  0  0  0  0  0
   23.5578  -24.9191  -14.8039 C   0  0  0  0  0  0  0  0  0  0  0  0
   22.7847  -25.8492  -14.5372 O   0  0  0  0  0  0  0  0  0  0  0  0
   24.9881  -25.0999  -15.1458 C   0  0  0  0  0  0  0  0  0  0  0  0
   25.7381  -23.8236  -15.3537 C   0  0  0  0  0  0  0  0  0  0  0  0
   26.7173  -23.8159  -16.4752 C   0  0  2  0  0  0  0  0  0  0  0  0
   27.2086  -22.4406  -16.6943 N   0  0  0  0  0  0  0  0  0  0  0  0
   26.0706  -24.3101  -17.7068 C   0  0  0  0  0  0  0  0  0  0  0  0
   25.4213  -23.4144  -18.5320 O   0  0  0  0  0  0  0  0  0  0  0  0
   26.1035  -25.5153  -18.0075 O   0  0  0  0  0  0  0  0  0  0  0  0
  2  1  1  6
  3  4  1  0
  3  2  1  0
  4  5  2  0
  6  5  1  0
  7  6  1  0
  8  7  2  0
  9  8  1  0
 10  9  2  0
 10 11  1  0
 11 12  2  0
 12  7  1  0
 12  4  1  0
 13 14  2  0
 13  2  1  0
 15 13  1  0
 16 17  1  0
 16 15  1  0
 18 19  1  0
 18 17  1  0
 19 15  1  0
 19 20  1  1
 21 20  2  0
 23 22  1  0
 24 23  2  0
 25 23  1  0
 27 26  1  1
 26 25  1  0
 27 28  1  0
 28 20  1  0
 29 30  1  0
 29 27  1  0
 31 29  2  0
M  END
$$$$
