WPQ.pdb
     RDKit          3D

 31 33  0  0  1  0  0  0  0  0999 V2000
   27.9837  -19.4651  -13.1839 N   0  0  0  0  0  0  0  0  0  0  0  0
   27.3486  -20.7348  -13.2293 C   0  0  1  0  0  0  0  0  0  0  0  0
   26.8612  -21.2079  -11.8742 C   0  0  0  0  0  0  0  0  0  0  0  0
   27.8741  -20.9915  -10.8089 C   0  0  0  0  0  0  0  0  0  0  0  0
   29.2424  -21.2163  -10.9254 C   0  0  0  0  0  0  0  0  0  0  0  0
   29.8452  -20.9115   -9.7650 N   0  0  0  0  0  0  0  0  0  0  0  0
   28.9389  -20.4846   -8.8537 C   0  0  0  0  0  0  0  0  0  0  0  0
   29.0378  -20.0632   -7.5488 C   0  0  0  0  0  0  0  0  0  0  0  0
   27.9135  -19.6811   -6.8607 C   0  0  0  0  0  0  0  0  0  0  0  0
   26.6958  -19.7335   -7.5141 C   0  0  0  0  0  0  0  0  0  0  0  0
   26.5975  -20.1558   -8.8218 C   0  0  0  0  0  0  0  0  0  0  0  0
   27.7105  -20.5384   -9.5162 C   0  0  0  0  0  0  0  0  0  0  0  0
   26.2073  -20.8578  -14.1529 C   0  0  0  0  0  0  0  0  0  0  0  0
   25.5294  -19.7796  -14.3097 O   0  0  0  0  0  0  0  0  0  0  0  0
   25.7975  -21.9951  -14.8575 N   0  0  0  0  0  0  0  0  0  0  0  0
   26.3086  -23.3466  -14.5595 C   0  0  0  0  0  0  0  0  0  0  0  0
   26.6963  -23.7937  -15.9620 C   0  0  0  0  0  0  0  0  0  0  0  0
   25.5436  -23.2587  -16.7736 C   0  0  0  0  0  0  0  0  0  0  0  0
   24.8738  -22.1853  -15.9507 C   0  0  1  0  0  0  0  0  0  0  0  0
   23.5803  -22.6180  -15.3774 C   0  0  0  0  0  0  0  0  0  0  0  0
   23.5695  -23.4894  -14.4709 O   0  0  0  0  0  0  0  0  0  0  0  0
   22.1240  -21.0970  -11.6542 N   0  0  0  0  0  0  0  0  0  0  0  0
   21.4399  -19.8864  -11.9319 C   0  0  0  0  0  0  0  0  0  0  0  0
   20.8256  -19.3451  -11.0026 O   0  0  0  0  0  0  0  0  0  0  0  0
   21.5026  -19.3481  -13.3110 C   0  0  0  0  0  0  0  0  0  0  0  0
   22.2490  -20.2117  -14.2763 C   0  0  0  0  0  0  0  0  0  0  0  0
   21.4919  -21.3591  -14.8479 C   0  0  2  0  0  0  0  0  0  0  0  0
   22.3392  -22.0754  -15.8224 N   0  0  0  0  0  0  0  0  0  0  0  0
   20.2735  -20.8681  -15.5215 C   0  0  0  0  0  0  0  0  0  0  0  0
   19.0647  -20.9350  -14.8587 O   0  0  0  0  0  0  0  0  0  0  0  0
   20.3228  -20.3984  -16.6708 O   0  0  0  0  0  0  0  0  0  0  0  0
  2  1  1  1
  3  4  1  0
  3  2  1  0
  4  5  2  0
  6  5  1  0
  7  6  1  0
  8  7  2  0
  9  8  1  0
 10  9  2  0
 10 11  1  0
 11 12  2  0
 12  7  1  0
 12  4  1  0
 13 14  2  0
 13  2  1  0
 15 13  1  0
 16 17  1  0
 16 15  1  0
 18 19  1  0
 18 17  1  0
 19 15  1  0
 19 20  1  1
 21 20  2  0
 23 22  1  0
 24 23  2  0
 25 23  1  0
 27 26  1  6
 26 25  1  0
 27 28  1  0
 28 20  1  0
 29 30  1  0
 29 27  1  0
 31 29  2  0
M  END
$$$$
