WPQ.pdb
     RDKit          3D

 31 33  0  0  1  0  0  0  0  0999 V2000
   16.7294  -18.9356    1.3942 N   0  0  0  0  0  0  0  0  0  0  0  0
   17.4099  -19.1076    2.6290 C   0  0  1  0  0  0  0  0  0  0  0  0
   18.7441  -18.3901    2.6810 C   0  0  0  0  0  0  0  0  0  0  0  0
   19.5643  -18.6464    1.4689 C   0  0  0  0  0  0  0  0  0  0  0  0
   19.3772  -19.6840    0.5607 C   0  0  0  0  0  0  0  0  0  0  0  0
   20.3033  -19.6018   -0.4079 N   0  0  0  0  0  0  0  0  0  0  0  0
   21.1216  -18.5433   -0.1978 C   0  0  0  0  0  0  0  0  0  0  0  0
   22.2012  -18.0338   -0.8797 C   0  0  0  0  0  0  0  0  0  0  0  0
   22.8481  -16.9177   -0.4114 C   0  0  0  0  0  0  0  0  0  0  0  0
   22.3845  -16.3313    0.7521 C   0  0  0  0  0  0  0  0  0  0  0  0
   21.3025  -16.8424    1.4348 C   0  0  0  0  0  0  0  0  0  0  0  0
   20.6512  -17.9532    0.9775 C   0  0  0  0  0  0  0  0  0  0  0  0
   16.6706  -18.7085    3.8394 C   0  0  0  0  0  0  0  0  0  0  0  0
   15.5533  -18.1195    3.6121 O   0  0  0  0  0  0  0  0  0  0  0  0
   17.0485  -18.8997    5.1729 N   0  0  0  0  0  0  0  0  0  0  0  0
   18.1956  -19.7404    5.5654 C   0  0  0  0  0  0  0  0  0  0  0  0
   17.5346  -20.6017    6.6323 C   0  0  0  0  0  0  0  0  0  0  0  0
   16.6800  -19.5855    7.3471 C   0  0  0  0  0  0  0  0  0  0  0  0
   16.5118  -18.4069    6.4194 C   0  0  1  0  0  0  0  0  0  0  0  0
   17.3164  -17.2328    6.8234 C   0  0  0  0  0  0  0  0  0  0  0  0
   18.5556  -17.2330    6.6103 O   0  0  0  0  0  0  0  0  0  0  0  0
   17.6559  -11.8254    4.9787 N   0  0  0  0  0  0  0  0  0  0  0  0
   16.3942  -12.4288    5.2127 C   0  0  0  0  0  0  0  0  0  0  0  0
   15.4101  -11.9506    4.6325 O   0  0  0  0  0  0  0  0  0  0  0  0
   16.3334  -13.5880    6.1336 C   0  0  0  0  0  0  0  0  0  0  0  0
   17.6504  -13.9744    6.7258 C   0  0  0  0  0  0  0  0  0  0  0  0
   17.6031  -14.9688    7.8328 C   0  0  2  0  0  0  0  0  0  0  0  0
   16.7281  -16.0951    7.4498 N   0  0  0  0  0  0  0  0  0  0  0  0
   17.0777  -14.3306    9.0559 C   0  0  0  0  0  0  0  0  0  0  0  0
   17.7669  -13.2718    9.6117 O   0  0  0  0  0  0  0  0  0  0  0  0
   16.0292  -14.7326    9.5877 O   0  0  0  0  0  0  0  0  0  0  0  0
  2  1  1  6
  3  4  1  0
  3  2  1  0
  4  5  2  0
  6  5  1  0
  7  6  1  0
  8  7  2  0
  9  8  1  0
 10  9  2  0
 10 11  1  0
 11 12  2  0
 12  7  1  0
 12  4  1  0
 13 14  2  0
 13  2  1  0
 15 13  1  0
 16 17  1  0
 16 15  1  0
 18 19  1  0
 18 17  1  0
 19 15  1  0
 19 20  1  1
 21 20  2  0
 23 22  1  0
 24 23  2  0
 25 23  1  0
 27 26  1  6
 26 25  1  0
 27 28  1  0
 28 20  1  0
 29 30  1  0
 29 27  1  0
 31 29  2  0
M  END
$$$$
