WPQ.pdb
     RDKit          3D

 31 33  0  0  1  0  0  0  0  0999 V2000
   19.8409  -10.7951  -14.9417 N   0  0  0  0  0  0  0  0  0  0  0  0
   19.4068   -9.4433  -14.9009 C   0  0  1  0  0  0  0  0  0  0  0  0
   18.0611   -9.2276  -15.5642 C   0  0  0  0  0  0  0  0  0  0  0  0
   18.0353   -9.7435  -16.9574 C   0  0  0  0  0  0  0  0  0  0  0  0
   18.9118  -10.6794  -17.4979 C   0  0  0  0  0  0  0  0  0  0  0  0
   18.5873  -10.9061  -18.7808 N   0  0  0  0  0  0  0  0  0  0  0  0
   17.5174  -10.1584  -19.1421 C   0  0  0  0  0  0  0  0  0  0  0  0
   16.8104  -10.0249  -20.3137 C   0  0  0  0  0  0  0  0  0  0  0  0
   15.7428   -9.1651  -20.3804 C   0  0  0  0  0  0  0  0  0  0  0  0
   15.4069   -8.4482  -19.2466 C   0  0  0  0  0  0  0  0  0  0  0  0
   16.1158   -8.5826  -18.0729 C   0  0  0  0  0  0  0  0  0  0  0  0
   17.1804   -9.4357  -17.9954 C   0  0  0  0  0  0  0  0  0  0  0  0
   19.3201   -8.8289  -13.5646 C   0  0  0  0  0  0  0  0  0  0  0  0
   18.9517   -9.6297  -12.6320 O   0  0  0  0  0  0  0  0  0  0  0  0
   19.5904   -7.5010  -13.2160 N   0  0  0  0  0  0  0  0  0  0  0  0
   19.8525   -6.4497  -14.2174 C   0  0  0  0  0  0  0  0  0  0  0  0
   21.1290   -5.8535  -13.6412 C   0  0  0  0  0  0  0  0  0  0  0  0
   20.8154   -5.8486  -12.1663 C   0  0  0  0  0  0  0  0  0  0  0  0
   19.6882   -6.8271  -11.9429 C   0  0  1  0  0  0  0  0  0  0  0  0
   18.3906   -6.1657  -11.6825 C   0  0  0  0  0  0  0  0  0  0  0  0
   17.7500   -5.6673  -12.6429 O   0  0  0  0  0  0  0  0  0  0  0  0
   14.5704   -7.5456   -7.0222 N   0  0  0  0  0  0  0  0  0  0  0  0
   14.4365   -8.1166   -8.3132 C   0  0  0  0  0  0  0  0  0  0  0  0
   13.7351   -9.1312   -8.4249 O   0  0  0  0  0  0  0  0  0  0  0  0
   15.1421   -7.4662   -9.4423 C   0  0  0  0  0  0  0  0  0  0  0  0
   15.7789   -6.1579   -9.0994 C   0  0  0  0  0  0  0  0  0  0  0  0
   16.5021   -5.4729  -10.2058 C   0  0  2  0  0  0  0  0  0  0  0  0
   17.8405   -6.0750  -10.3702 N   0  0  0  0  0  0  0  0  0  0  0  0
   16.6428   -4.0361   -9.8969 C   0  0  0  0  0  0  0  0  0  0  0  0
   17.8964   -3.5253   -9.6277 O   0  0  0  0  0  0  0  0  0  0  0  0
   15.6525   -3.2860   -9.8764 O   0  0  0  0  0  0  0  0  0  0  0  0
  2  1  1  1
  3  4  1  0
  3  2  1  0
  4  5  2  0
  6  5  1  0
  7  6  1  0
  8  7  2  0
  9  8  1  0
 10  9  2  0
 10 11  1  0
 11 12  2  0
 12  7  1  0
 12  4  1  0
 13 14  2  0
 13  2  1  0
 15 13  1  0
 16 17  1  0
 16 15  1  0
 18 19  1  0
 18 17  1  0
 19 15  1  0
 19 20  1  6
 21 20  2  0
 23 22  1  0
 24 23  2  0
 25 23  1  0
 27 26  1  1
 26 25  1  0
 27 28  1  0
 28 20  1  0
 29 30  1  0
 29 27  1  0
 31 29  2  0
M  END
$$$$
