CMA.pdb
     RDKit          3D

 20 19  0  0  1  0  0  0  0  0999 V2000
    9.7350  -17.3389   20.6075 N   0  0  0  0  0  0  0  0  0  0  0  0
    8.8426  -17.1988   21.7139 C   0  0  1  0  0  0  0  0  0  0  0  0
    8.7812  -18.5248   22.4376 C   0  0  0  0  0  0  0  0  0  0  0  0
   10.4214  -18.9620   23.0542 S   0  0  0  0  0  0  0  0  0  0  0  0
    9.2520  -16.1385   22.6644 C   0  0  0  0  0  0  0  0  0  0  0  0
   10.4259  -15.6580   22.6129 O   0  0  0  0  0  0  0  0  0  0  0  0
    5.1330  -12.3903   26.9300 C   0  0  0  0  0  0  0  0  0  0  0  0
    6.1746  -11.5580   25.6992 S   0  0  0  0  0  0  0  0  0  0  0  0
    7.7594  -12.4986   25.6043 C   0  0  0  0  0  0  0  0  0  0  0  0
    7.5602  -13.6803   24.7058 C   0  0  0  0  0  0  0  0  0  0  0  0
    8.7848  -14.5229   24.5305 C   0  0  2  0  0  0  0  0  0  0  0  0
    8.3772  -15.6367   23.6361 N   0  0  0  0  0  0  0  0  0  0  0  0
    9.2466  -15.1010   25.8026 C   0  0  0  0  0  0  0  0  0  0  0  0
    8.5137  -15.9583   26.3733 O   0  0  0  0  0  0  0  0  0  0  0  0
    9.9865  -14.1019   28.7655 C   0  0  0  0  0  0  0  0  0  0  0  0
   10.7294  -15.0445   27.8473 C   0  0  2  0  0  0  0  0  0  0  0  0
   10.4654  -14.7793   26.4544 N   0  0  0  0  0  0  0  0  0  0  0  0
   10.4806  -16.4570   28.2209 C   0  0  0  0  0  0  0  0  0  0  0  0
    9.9480  -17.3577   27.3119 O   0  0  0  0  0  0  0  0  0  0  0  0
   10.7395  -16.8952   29.3692 O   0  0  0  0  0  0  0  0  0  0  0  0
  2  1  1  6
  2  3  1  0
  3  4  1  0
  5  6  2  0
  5  2  1  0
  8  9  1  0
  8  7  1  0
  9 10  1  0
 11 10  1  1
 11 12  1  0
 11 13  1  0
 12  5  1  0
 13 14  2  0
 16 15  1  1
 17 13  1  0
 17 16  1  0
 18 19  1  0
 18 16  1  0
 20 18  2  0
M  END
$$$$
