CMA.pdb
     RDKit          3D

 20 19  0  0  1  0  0  0  0  0999 V2000
    4.7862  -19.8066   22.6868 N   0  0  0  0  0  0  0  0  0  0  0  0
    5.6062  -19.4961   23.8144 C   0  0  1  0  0  0  0  0  0  0  0  0
    6.5622  -20.6473   24.0302 C   0  0  0  0  0  0  0  0  0  0  0  0
    6.9451  -20.8037   25.7881 S   0  0  0  0  0  0  0  0  0  0  0  0
    6.3770  -18.2416   23.6488 C   0  0  0  0  0  0  0  0  0  0  0  0
    6.9788  -18.0054   22.5563 O   0  0  0  0  0  0  0  0  0  0  0  0
    6.5080  -11.0988   26.1012 C   0  0  0  0  0  0  0  0  0  0  0  0
    6.7814  -12.7232   26.8622 S   0  0  0  0  0  0  0  0  0  0  0  0
    7.5415  -13.8047   25.5746 C   0  0  0  0  0  0  0  0  0  0  0  0
    6.8156  -15.1148   25.5622 C   0  0  0  0  0  0  0  0  0  0  0  0
    7.2831  -16.0578   24.4980 C   0  0  2  0  0  0  0  0  0  0  0  0
    6.4691  -17.2884   24.6707 N   0  0  0  0  0  0  0  0  0  0  0  0
    8.7006  -16.4184   24.6607 C   0  0  0  0  0  0  0  0  0  0  0  0
    9.0148  -17.2121   25.5930 O   0  0  0  0  0  0  0  0  0  0  0  0
   11.5678  -16.6799   22.3490 C   0  0  0  0  0  0  0  0  0  0  0  0
   11.0585  -16.5808   23.7683 C   0  0  2  0  0  0  0  0  0  0  0  0
    9.7641  -15.9496   23.8465 N   0  0  0  0  0  0  0  0  0  0  0  0
   12.0639  -15.9425   24.6506 C   0  0  0  0  0  0  0  0  0  0  0  0
   13.3565  -16.4346   24.7408 O   0  0  0  0  0  0  0  0  0  0  0  0
   11.7896  -14.9357   25.3496 O   0  0  0  0  0  0  0  0  0  0  0  0
  2  1  1  6
  2  3  1  0
  3  4  1  0
  5  6  2  0
  5  2  1  0
  8  9  1  0
  8  7  1  0
  9 10  1  0
 11 10  1  1
 11 12  1  0
 11 13  1  0
 12  5  1  0
 13 14  2  0
 16 15  1  6
 17 13  1  0
 17 16  1  0
 18 19  1  0
 18 16  1  0
 20 18  2  0
M  END
$$$$
