CMA.pdb
     RDKit          3D

 20 19  0  0  1  0  0  0  0  0999 V2000
    8.9478  -15.7515   19.2729 N   0  0  0  0  0  0  0  0  0  0  0  0
    8.0488  -15.8822   20.3751 C   0  0  1  0  0  0  0  0  0  0  0  0
    7.5210  -17.2990   20.3841 C   0  0  0  0  0  0  0  0  0  0  0  0
    6.2728  -17.4954   19.0937 S   0  0  0  0  0  0  0  0  0  0  0  0
    8.6795  -15.5844   21.6823 C   0  0  0  0  0  0  0  0  0  0  0  0
    9.8841  -15.9220   21.8980 O   0  0  0  0  0  0  0  0  0  0  0  0
    5.4216  -12.4864   26.7455 C   0  0  0  0  0  0  0  0  0  0  0  0
    7.0910  -11.7918   26.5940 S   0  0  0  0  0  0  0  0  0  0  0  0
    8.1919  -13.1491   26.0014 C   0  0  0  0  0  0  0  0  0  0  0  0
    7.7715  -13.5346   24.6165 C   0  0  0  0  0  0  0  0  0  0  0  0
    8.6691  -14.5414   23.9677 C   0  0  2  0  0  0  0  0  0  0  0  0
    7.9846  -14.9325   22.7087 N   0  0  0  0  0  0  0  0  0  0  0  0
    8.8365  -15.7481   24.7932 C   0  0  0  0  0  0  0  0  0  0  0  0
    7.8128  -16.4406   25.0586 O   0  0  0  0  0  0  0  0  0  0  0  0
   11.3659  -18.2774   25.6177 C   0  0  0  0  0  0  0  0  0  0  0  0
   10.2080  -17.4284   26.0888 C   0  0  2  0  0  0  0  0  0  0  0  0
   10.0677  -16.2141   25.3232 N   0  0  0  0  0  0  0  0  0  0  0  0
   10.2885  -17.1820   27.5481 C   0  0  0  0  0  0  0  0  0  0  0  0
   10.2649  -15.8949   28.0620 O   0  0  0  0  0  0  0  0  0  0  0  0
   10.3812  -18.1222   28.3757 O   0  0  0  0  0  0  0  0  0  0  0  0
  2  1  1  6
  2  3  1  0
  3  4  1  0
  5  6  2  0
  5  2  1  0
  8  9  1  0
  8  7  1  0
  9 10  1  0
 11 10  1  1
 11 12  1  0
 11 13  1  0
 12  5  1  0
 13 14  2  0
 16 15  1  6
 17 13  1  0
 17 16  1  0
 18 19  1  0
 18 16  1  0
 20 18  2  0
M  END
$$$$
