CMA.pdb
     RDKit          3D

 20 19  0  0  1  0  0  0  0  0999 V2000
    9.2082  -16.0758   19.0803 N   0  0  0  0  0  0  0  0  0  0  0  0
    8.2433  -16.1354   20.1318 C   0  0  1  0  0  0  0  0  0  0  0  0
    7.7021  -17.5458   20.1921 C   0  0  0  0  0  0  0  0  0  0  0  0
    6.8798  -17.9528   18.6365 S   0  0  0  0  0  0  0  0  0  0  0  0
    8.7972  -15.7646   21.4551 C   0  0  0  0  0  0  0  0  0  0  0  0
    9.9878  -16.0847   21.7577 O   0  0  0  0  0  0  0  0  0  0  0  0
    5.4654  -12.7392   26.9781 C   0  0  0  0  0  0  0  0  0  0  0  0
    6.8256  -11.8678   26.1518 S   0  0  0  0  0  0  0  0  0  0  0  0
    8.0501  -13.1452   25.6286 C   0  0  0  0  0  0  0  0  0  0  0  0
    7.7005  -13.6040   24.2463 C   0  0  0  0  0  0  0  0  0  0  0  0
    8.6482  -14.6175   23.6851 C   0  0  2  0  0  0  0  0  0  0  0  0
    8.0434  -15.0612   22.4029 N   0  0  0  0  0  0  0  0  0  0  0  0
    8.7842  -15.7931   24.5597 C   0  0  0  0  0  0  0  0  0  0  0  0
    7.7881  -16.5597   24.6941 O   0  0  0  0  0  0  0  0  0  0  0  0
   11.0484  -18.3460   25.4210 C   0  0  0  0  0  0  0  0  0  0  0  0
   10.0907  -17.3605   26.0495 C   0  0  2  0  0  0  0  0  0  0  0  0
    9.9566  -16.1515   25.2744 N   0  0  0  0  0  0  0  0  0  0  0  0
   10.4481  -17.1000   27.4640 C   0  0  0  0  0  0  0  0  0  0  0  0
   10.5457  -18.1335   28.3826 O   0  0  0  0  0  0  0  0  0  0  0  0
   10.6759  -15.9400   27.8883 O   0  0  0  0  0  0  0  0  0  0  0  0
  2  1  1  6
  2  3  1  0
  3  4  1  0
  5  6  2  0
  5  2  1  0
  8  9  1  0
  8  7  1  0
  9 10  1  0
 11 10  1  1
 11 12  1  0
 11 13  1  0
 12  5  1  0
 13 14  2  0
 16 15  1  6
 17 13  1  0
 17 16  1  0
 18 19  1  0
 18 16  1  0
 20 18  2  0
M  END
$$$$
