CMA.pdb
     RDKit          3D

 20 19  0  0  1  0  0  0  0  0999 V2000
    8.3454  -15.0544   19.0837 N   0  0  0  0  0  0  0  0  0  0  0  0
    7.4398  -15.0066   20.1873 C   0  0  1  0  0  0  0  0  0  0  0  0
    6.6135  -16.2726   20.1708 C   0  0  0  0  0  0  0  0  0  0  0  0
    7.6624  -17.6932   20.5492 S   0  0  0  0  0  0  0  0  0  0  0  0
    8.1208  -14.8814   21.4972 C   0  0  0  0  0  0  0  0  0  0  0  0
    9.3762  -15.0512   21.5793 O   0  0  0  0  0  0  0  0  0  0  0  0
    6.5915  -10.7530   26.7530 C   0  0  0  0  0  0  0  0  0  0  0  0
    6.3636  -12.5019   27.1796 S   0  0  0  0  0  0  0  0  0  0  0  0
    7.6364  -13.4584   26.2466 C   0  0  0  0  0  0  0  0  0  0  0  0
    7.1445  -13.6696   24.8478 C   0  0  0  0  0  0  0  0  0  0  0  0
    8.1353  -14.3439   23.9512 C   0  0  2  0  0  0  0  0  0  0  0  0
    7.4195  -14.5772   22.6706 N   0  0  0  0  0  0  0  0  0  0  0  0
    8.5648  -15.6479   24.4812 C   0  0  0  0  0  0  0  0  0  0  0  0
    7.7072  -16.5725   24.5676 O   0  0  0  0  0  0  0  0  0  0  0  0
   11.6174  -17.7018   24.9347 C   0  0  0  0  0  0  0  0  0  0  0  0
   10.2671  -17.2494   25.4404 C   0  0  2  0  0  0  0  0  0  0  0  0
    9.8805  -15.9663   24.9070 N   0  0  0  0  0  0  0  0  0  0  0  0
   10.2102  -17.2977   26.9205 C   0  0  0  0  0  0  0  0  0  0  0  0
   10.4279  -18.4804   27.6099 O   0  0  0  0  0  0  0  0  0  0  0  0
    9.9638  -16.2764   27.6089 O   0  0  0  0  0  0  0  0  0  0  0  0
  2  1  1  6
  2  3  1  0
  3  4  1  0
  5  6  2  0
  5  2  1  0
  8  9  1  0
  8  7  1  0
  9 10  1  0
 11 10  1  1
 11 12  1  0
 11 13  1  0
 12  5  1  0
 13 14  2  0
 16 15  1  1
 17 13  1  0
 17 16  1  0
 18 19  1  0
 18 16  1  0
 20 18  2  0
M  END
$$$$
