CMA.pdb
     RDKit          3D

 20 19  0  0  1  0  0  0  0  0999 V2000
    7.6306  -16.2023   20.4676 N   0  0  0  0  0  0  0  0  0  0  0  0
    7.1436  -16.3265   21.8046 C   0  0  1  0  0  0  0  0  0  0  0  0
    7.0407  -17.7991   22.1312 C   0  0  0  0  0  0  0  0  0  0  0  0
    6.2704  -18.0146   23.7504 S   0  0  0  0  0  0  0  0  0  0  0  0
    8.0088  -15.6603   22.8061 C   0  0  0  0  0  0  0  0  0  0  0  0
    9.2516  -15.5276   22.5839 O   0  0  0  0  0  0  0  0  0  0  0  0
    6.5811  -11.6352   27.7428 C   0  0  0  0  0  0  0  0  0  0  0  0
    5.8962  -11.4252   26.0757 S   0  0  0  0  0  0  0  0  0  0  0  0
    6.8279  -12.5611   24.9591 C   0  0  0  0  0  0  0  0  0  0  0  0
    7.5155  -13.5955   25.7961 C   0  0  0  0  0  0  0  0  0  0  0  0
    8.3901  -14.5255   25.0147 C   0  0  2  0  0  0  0  0  0  0  0  0
    7.4985  -15.1620   24.0113 N   0  0  0  0  0  0  0  0  0  0  0  0
    8.9637  -15.5865   25.8578 C   0  0  0  0  0  0  0  0  0  0  0  0
    9.7488  -15.2531   26.7907 O   0  0  0  0  0  0  0  0  0  0  0  0
    8.5308  -19.3077   26.4625 C   0  0  0  0  0  0  0  0  0  0  0  0
    9.2614  -17.9899   26.5774 C   0  0  2  0  0  0  0  0  0  0  0  0
    8.7053  -16.9747   25.7169 N   0  0  0  0  0  0  0  0  0  0  0  0
   10.7195  -18.1717   26.3845 C   0  0  0  0  0  0  0  0  0  0  0  0
   11.4465  -19.0435   27.1801 O   0  0  0  0  0  0  0  0  0  0  0  0
   11.3547  -17.5480   25.4985 O   0  0  0  0  0  0  0  0  0  0  0  0
  2  1  1  6
  2  3  1  0
  3  4  1  0
  5  6  2  0
  5  2  1  0
  8  9  1  0
  8  7  1  0
  9 10  1  0
 11 10  1  1
 11 12  1  0
 11 13  1  0
 12  5  1  0
 13 14  2  0
 16 15  1  6
 17 13  1  0
 17 16  1  0
 18 19  1  0
 18 16  1  0
 20 18  2  0
M  END
$$$$
