CMA.pdb
     RDKit          3D

 20 19  0  0  1  0  0  0  0  0999 V2000
    7.6400  -12.9354   19.5500 N   0  0  0  0  0  0  0  0  0  0  0  0
    7.2817  -13.9509   20.4884 C   0  0  1  0  0  0  0  0  0  0  0  0
    7.5727  -15.2945   19.8592 C   0  0  0  0  0  0  0  0  0  0  0  0
    6.9951  -16.6169   20.9449 S   0  0  0  0  0  0  0  0  0  0  0  0
    8.0103  -13.8422   21.7740 C   0  0  0  0  0  0  0  0  0  0  0  0
    9.1756  -13.3394   21.8031 O   0  0  0  0  0  0  0  0  0  0  0  0
    7.3133  -11.2891   27.5472 C   0  0  0  0  0  0  0  0  0  0  0  0
    5.8043  -11.9668   26.8016 S   0  0  0  0  0  0  0  0  0  0  0  0
    6.2593  -12.5879   25.1246 C   0  0  0  0  0  0  0  0  0  0  0  0
    7.0367  -13.8586   25.2806 C   0  0  0  0  0  0  0  0  0  0  0  0
    8.1336  -14.0265   24.2763 C   0  0  2  0  0  0  0  0  0  0  0  0
    7.4523  -14.2812   22.9811 N   0  0  0  0  0  0  0  0  0  0  0  0
    8.9905  -15.1838   24.5798 C   0  0  0  0  0  0  0  0  0  0  0  0
    9.5766  -15.2195   25.6992 O   0  0  0  0  0  0  0  0  0  0  0  0
    9.8000  -18.6048   23.1590 C   0  0  0  0  0  0  0  0  0  0  0  0
   10.0651  -17.4055   24.0393 C   0  0  2  0  0  0  0  0  0  0  0  0
    9.2175  -16.2849   23.7138 N   0  0  0  0  0  0  0  0  0  0  0  0
   11.5053  -17.0557   24.0417 C   0  0  0  0  0  0  0  0  0  0  0  0
   12.4688  -17.9803   24.4132 O   0  0  0  0  0  0  0  0  0  0  0  0
   11.9116  -15.9145   23.7098 O   0  0  0  0  0  0  0  0  0  0  0  0
  2  1  1  6
  2  3  1  0
  3  4  1  0
  5  6  2  0
  5  2  1  0
  8  9  1  0
  8  7  1  0
  9 10  1  0
 11 10  1  1
 11 12  1  0
 11 13  1  0
 12  5  1  0
 13 14  2  0
 16 15  1  6
 17 13  1  0
 17 16  1  0
 18 19  1  0
 18 16  1  0
 20 18  2  0
M  END
$$$$
