CMA.pdb
     RDKit          3D

 20 19  0  0  1  0  0  0  0  0999 V2000
    9.4624  -15.8389   19.4452 N   0  0  0  0  0  0  0  0  0  0  0  0
    8.5343  -16.0104   20.5173 C   0  0  1  0  0  0  0  0  0  0  0  0
    8.0756  -17.4510   20.5142 C   0  0  0  0  0  0  0  0  0  0  0  0
    7.0199  -17.7541   19.0806 S   0  0  0  0  0  0  0  0  0  0  0  0
    9.1058  -15.6795   21.8437 C   0  0  0  0  0  0  0  0  0  0  0  0
   10.3385  -15.8794   22.0720 O   0  0  0  0  0  0  0  0  0  0  0  0
    5.6214  -12.5580   26.8214 C   0  0  0  0  0  0  0  0  0  0  0  0
    7.3104  -11.9165   26.6530 S   0  0  0  0  0  0  0  0  0  0  0  0
    8.3838  -13.3358   26.1645 C   0  0  0  0  0  0  0  0  0  0  0  0
    7.9851  -13.7861   24.7928 C   0  0  0  0  0  0  0  0  0  0  0  0
    8.9277  -14.7742   24.1803 C   0  0  2  0  0  0  0  0  0  0  0  0
    8.3235  -15.1447   22.8747 N   0  0  0  0  0  0  0  0  0  0  0  0
    9.0539  -15.9959   24.9909 C   0  0  0  0  0  0  0  0  0  0  0  0
    8.0450  -16.7494   25.1020 O   0  0  0  0  0  0  0  0  0  0  0  0
   11.4704  -18.5101   25.9706 C   0  0  0  0  0  0  0  0  0  0  0  0
   10.3309  -17.6314   26.4322 C   0  0  2  0  0  0  0  0  0  0  0  0
   10.2298  -16.4130   25.6671 N   0  0  0  0  0  0  0  0  0  0  0  0
   10.4042  -17.3891   27.8925 C   0  0  0  0  0  0  0  0  0  0  0  0
   10.4862  -18.4404   28.7921 O   0  0  0  0  0  0  0  0  0  0  0  0
   10.3948  -16.2291   28.3741 O   0  0  0  0  0  0  0  0  0  0  0  0
  2  1  1  6
  2  3  1  0
  3  4  1  0
  5  6  2  0
  5  2  1  0
  8  9  1  0
  8  7  1  0
  9 10  1  0
 11 10  1  1
 11 12  1  0
 11 13  1  0
 12  5  1  0
 13 14  2  0
 16 15  1  6
 17 13  1  0
 17 16  1  0
 18 19  1  0
 18 16  1  0
 20 18  2  0
M  END
$$$$
