CMA.pdb
     RDKit          3D

 20 19  0  0  1  0  0  0  0  0999 V2000
    9.2217  -16.5849   20.6851 N   0  0  0  0  0  0  0  0  0  0  0  0
    8.7919  -16.9850   21.9872 C   0  0  1  0  0  0  0  0  0  0  0  0
    9.4225  -18.3235   22.2982 C   0  0  0  0  0  0  0  0  0  0  0  0
    8.9322  -18.8618   23.9509 S   0  0  0  0  0  0  0  0  0  0  0  0
    9.1531  -16.0136   23.0461 C   0  0  0  0  0  0  0  0  0  0  0  0
   10.2846  -15.4386   23.0214 O   0  0  0  0  0  0  0  0  0  0  0  0
    5.7498  -10.9113   25.0745 C   0  0  0  0  0  0  0  0  0  0  0  0
    5.7770  -12.0079   26.5199 S   0  0  0  0  0  0  0  0  0  0  0  0
    7.3683  -12.9405   26.4638 C   0  0  0  0  0  0  0  0  0  0  0  0
    7.2983  -13.9377   25.3484 C   0  0  0  0  0  0  0  0  0  0  0  0
    8.5992  -14.6201   25.0616 C   0  0  2  0  0  0  0  0  0  0  0  0
    8.2776  -15.6996   24.0931 N   0  0  0  0  0  0  0  0  0  0  0  0
    9.1770  -15.2399   26.2648 C   0  0  0  0  0  0  0  0  0  0  0  0
    8.5091  -16.1335   26.8593 O   0  0  0  0  0  0  0  0  0  0  0  0
   10.1446  -14.3068   29.1826 C   0  0  0  0  0  0  0  0  0  0  0  0
   10.8201  -15.2176   28.1838 C   0  0  2  0  0  0  0  0  0  0  0  0
   10.4417  -14.9212   26.8239 N   0  0  0  0  0  0  0  0  0  0  0  0
   10.6162  -16.6417   28.5401 C   0  0  0  0  0  0  0  0  0  0  0  0
    9.9924  -17.5187   27.6666 O   0  0  0  0  0  0  0  0  0  0  0  0
   10.9968  -17.1115   29.6410 O   0  0  0  0  0  0  0  0  0  0  0  0
  2  1  1  6
  2  3  1  0
  3  4  1  0
  5  6  2  0
  5  2  1  0
  8  9  1  0
  8  7  1  0
  9 10  1  0
 11 10  1  1
 11 12  1  0
 11 13  1  0
 12  5  1  0
 13 14  2  0
 16 15  1  1
 17 13  1  0
 17 16  1  0
 18 19  1  0
 18 16  1  0
 20 18  2  0
M  END
$$$$
