CMA.pdb
     RDKit          3D

 20 19  0  0  1  0  0  0  0  0999 V2000
    7.9412  -14.2496   19.3507 N   0  0  0  0  0  0  0  0  0  0  0  0
    7.3742  -14.9909   20.4321 C   0  0  1  0  0  0  0  0  0  0  0  0
    7.3605  -16.4517   20.0426 C   0  0  0  0  0  0  0  0  0  0  0  0
    6.4782  -17.4103   21.2933 S   0  0  0  0  0  0  0  0  0  0  0  0
    8.1160  -14.8284   21.7043 C   0  0  0  0  0  0  0  0  0  0  0  0
    9.3697  -14.6295   21.6877 O   0  0  0  0  0  0  0  0  0  0  0  0
    7.2076  -11.3252   27.6413 C   0  0  0  0  0  0  0  0  0  0  0  0
    6.0307  -12.2854   26.6487 S   0  0  0  0  0  0  0  0  0  0  0  0
    6.9132  -12.8065   25.1141 C   0  0  0  0  0  0  0  0  0  0  0  0
    7.2504  -14.2613   25.2279 C   0  0  0  0  0  0  0  0  0  0  0  0
    8.2415  -14.7360   24.2117 C   0  0  2  0  0  0  0  0  0  0  0  0
    7.4751  -14.8872   22.9481 N   0  0  0  0  0  0  0  0  0  0  0  0
    8.8108  -16.0468   24.5629 C   0  0  0  0  0  0  0  0  0  0  0  0
    8.0326  -17.0407   24.6297 O   0  0  0  0  0  0  0  0  0  0  0  0
   12.0826  -17.8430   24.6617 C   0  0  0  0  0  0  0  0  0  0  0  0
   10.7022  -17.5871   25.2208 C   0  0  2  0  0  0  0  0  0  0  0  0
   10.1808  -16.2994   24.8334 N   0  0  0  0  0  0  0  0  0  0  0  0
   10.6743  -17.8013   26.6871 C   0  0  0  0  0  0  0  0  0  0  0  0
   10.2126  -16.8182   27.5483 O   0  0  0  0  0  0  0  0  0  0  0  0
   11.0653  -18.8749   27.2085 O   0  0  0  0  0  0  0  0  0  0  0  0
  2  1  1  6
  2  3  1  0
  3  4  1  0
  5  6  2  0
  5  2  1  0
  8  9  1  0
  8  7  1  0
  9 10  1  0
 11 10  1  1
 11 12  1  0
 11 13  1  0
 12  5  1  0
 13 14  2  0
 16 15  1  1
 17 13  1  0
 17 16  1  0
 18 19  1  0
 18 16  1  0
 20 18  2  0
M  END
$$$$
