CMA.pdb
     RDKit          3D

 20 19  0  0  1  0  0  0  0  0999 V2000
    8.4780  -17.0778   20.3478 N   0  0  0  0  0  0  0  0  0  0  0  0
    7.6794  -17.0863   21.5320 C   0  0  1  0  0  0  0  0  0  0  0  0
    7.5474  -18.5184   21.9981 C   0  0  0  0  0  0  0  0  0  0  0  0
    6.9682  -19.5543   20.6369 S   0  0  0  0  0  0  0  0  0  0  0  0
    8.2472  -16.2638   22.6258 C   0  0  0  0  0  0  0  0  0  0  0  0
    9.5009  -16.0767   22.6947 O   0  0  0  0  0  0  0  0  0  0  0  0
    6.4561  -10.2919   26.7177 C   0  0  0  0  0  0  0  0  0  0  0  0
    5.8189  -11.9907   26.6976 S   0  0  0  0  0  0  0  0  0  0  0  0
    7.2456  -13.1013   26.3282 C   0  0  0  0  0  0  0  0  0  0  0  0
    6.9059  -13.9324   25.1294 C   0  0  0  0  0  0  0  0  0  0  0  0
    8.0244  -14.8107   24.6629 C   0  0  2  0  0  0  0  0  0  0  0  0
    7.4386  -15.6737   23.6051 N   0  0  0  0  0  0  0  0  0  0  0  0
    8.5309  -15.6804   25.7366 C   0  0  0  0  0  0  0  0  0  0  0  0
    8.9972  -15.1378   26.7787 O   0  0  0  0  0  0  0  0  0  0  0  0
    8.0734  -19.0449   27.1312 C   0  0  0  0  0  0  0  0  0  0  0  0
    9.0271  -17.9255   26.7835 C   0  0  2  0  0  0  0  0  0  0  0  0
    8.5381  -17.0991   25.7073 N   0  0  0  0  0  0  0  0  0  0  0  0
   10.3914  -18.4478   26.5332 C   0  0  0  0  0  0  0  0  0  0  0  0
   11.0832  -19.1476   27.5093 O   0  0  0  0  0  0  0  0  0  0  0  0
   10.9751  -18.2796   25.4339 O   0  0  0  0  0  0  0  0  0  0  0  0
  2  1  1  6
  2  3  1  0
  3  4  1  0
  5  6  2  0
  5  2  1  0
  8  9  1  0
  8  7  1  0
  9 10  1  0
 11 10  1  1
 11 12  1  0
 11 13  1  0
 12  5  1  0
 13 14  2  0
 16 15  1  6
 17 13  1  0
 17 16  1  0
 18 19  1  0
 18 16  1  0
 20 18  2  0
M  END
$$$$
