NGY.pdb
     RDKit          3D

 25 25  0  0  1  0  0  0  0  0999 V2000
    6.2641  -20.0496   18.8709 N   0  0  0  0  0  0  0  0  0  0  0  0
    6.2393  -18.8754   18.0794 C   0  0  0  0  0  0  0  0  0  0  0  0
    5.7547  -18.9228   16.9218 O   0  0  0  0  0  0  0  0  0  0  0  0
    6.7815  -17.6220   18.6275 C   0  0  0  0  0  0  0  0  0  0  0  0
    7.4153  -17.8198   19.9888 C   0  0  2  0  0  0  0  0  0  0  0  0
    6.4267  -18.0011   21.0154 N   0  0  0  0  0  0  0  0  0  0  0  0
    8.2035  -16.6036   20.2842 C   0  0  0  0  0  0  0  0  0  0  0  0
    9.3464  -16.4880   19.7656 O   0  0  0  0  0  0  0  0  0  0  0  0
    7.6813  -15.6009   21.1278 N   0  0  0  0  0  0  0  0  0  0  0  0
    8.4290  -14.4172   21.4519 C   0  0  0  0  0  0  0  0  0  0  0  0
    9.0459  -14.5239   22.7952 C   0  0  0  0  0  0  0  0  0  0  0  0
    9.7739  -13.5611   23.2259 O   0  0  0  0  0  0  0  0  0  0  0  0
    5.5390  -11.0954   26.7292 O   0  0  0  0  0  0  0  0  0  0  0  0
    6.2818  -12.2592   26.5598 C   0  0  0  0  0  0  0  0  0  0  0  0
    7.6508  -12.2388   26.7061 C   0  0  0  0  0  0  0  0  0  0  0  0
    8.4312  -13.3592   26.5498 C   0  0  0  0  0  0  0  0  0  0  0  0
    7.8661  -14.5787   26.2329 C   0  0  0  0  0  0  0  0  0  0  0  0
    8.5930  -15.8262   26.0429 C   0  0  0  0  0  0  0  0  0  0  0  0
    9.6205  -15.6698   24.9482 C   0  0  2  0  0  0  0  0  0  0  0  0
    8.9110  -15.6050   23.6809 N   0  0  0  0  0  0  0  0  0  0  0  0
   10.6145  -16.7317   24.9790 C   0  0  0  0  0  0  0  0  0  0  0  0
   11.4702  -16.8923   26.0432 O   0  0  0  0  0  0  0  0  0  0  0  0
    6.4827  -14.5961   26.0858 C   0  0  0  0  0  0  0  0  0  0  0  0
    5.7084  -13.4671   26.2445 C   0  0  0  0  0  0  0  0  0  0  0  0
   10.7132  -17.5332   24.0173 O   0  0  0  0  0  0  0  0  0  0  0  0
  1  2  1  0
  2  3  2  0
  4  5  1  0
  4  2  1  0
  5  6  1  1
  7  5  1  0
  8  7  2  0
  9  7  1  0
 10 11  1  0
 10  9  1  0
 11 20  1  0
 12 11  2  0
 14 15  2  0
 14 13  1  0
 16 15  1  0
 17 16  2  0
 18 17  1  0
 19 18  1  1
 20 19  1  0
 21 19  1  0
 21 22  1  0
 23 17  1  0
 23 24  2  0
 24 14  1  0
 25 21  2  0
M  END
$$$$
