NGY.pdb
     RDKit          3D

 25 25  0  0  1  0  0  0  0  0999 V2000
    5.4403  -19.4387   17.8267 N   0  0  0  0  0  0  0  0  0  0  0  0
    5.5523  -18.9854   19.1638 C   0  0  0  0  0  0  0  0  0  0  0  0
    4.8677  -19.5368   20.0607 O   0  0  0  0  0  0  0  0  0  0  0  0
    6.4683  -17.8773   19.4775 C   0  0  0  0  0  0  0  0  0  0  0  0
    7.7334  -18.3560   20.1586 C   0  0  2  0  0  0  0  0  0  0  0  0
    7.4509  -19.0215   21.4002 N   0  0  0  0  0  0  0  0  0  0  0  0
    8.5637  -17.1618   20.4266 C   0  0  0  0  0  0  0  0  0  0  0  0
    8.9066  -16.4380   19.4534 O   0  0  0  0  0  0  0  0  0  0  0  0
    8.9587  -16.8468   21.7437 N   0  0  0  0  0  0  0  0  0  0  0  0
    9.8706  -15.7726   22.0256 C   0  0  0  0  0  0  0  0  0  0  0  0
   10.0970  -15.6302   23.4833 C   0  0  0  0  0  0  0  0  0  0  0  0
   11.0396  -14.8667   23.8969 O   0  0  0  0  0  0  0  0  0  0  0  0
    6.6374  -10.7585   26.2419 O   0  0  0  0  0  0  0  0  0  0  0  0
    7.1112  -12.0602   26.3683 C   0  0  0  0  0  0  0  0  0  0  0  0
    6.4674  -13.0999   25.7352 C   0  0  0  0  0  0  0  0  0  0  0  0
    6.8935  -14.4033   25.8271 C   0  0  0  0  0  0  0  0  0  0  0  0
    8.0076  -14.7345   26.5727 C   0  0  0  0  0  0  0  0  0  0  0  0
    8.5468  -16.0767   26.7409 C   0  0  0  0  0  0  0  0  0  0  0  0
    9.7806  -16.2539   25.8895 C   0  0  2  0  0  0  0  0  0  0  0  0
    9.3607  -16.2629   24.4977 N   0  0  0  0  0  0  0  0  0  0  0  0
   10.5281  -17.4471   26.2558 C   0  0  0  0  0  0  0  0  0  0  0  0
   11.0376  -17.6228   27.5208 O   0  0  0  0  0  0  0  0  0  0  0  0
    8.6559  -13.6819   27.2110 C   0  0  0  0  0  0  0  0  0  0  0  0
    8.2210  -12.3778   27.1129 C   0  0  0  0  0  0  0  0  0  0  0  0
   10.7275  -18.3528   25.4091 O   0  0  0  0  0  0  0  0  0  0  0  0
  1  2  1  0
  2  3  2  0
  4  5  1  0
  4  2  1  0
  5  6  1  1
  7  5  1  0
  8  7  2  0
  9  7  1  0
 10 11  1  0
 10  9  1  0
 11 20  1  0
 12 11  2  0
 14 15  2  0
 14 13  1  0
 16 15  1  0
 17 16  2  0
 18 17  1  0
 19 18  1  1
 20 19  1  0
 21 19  1  0
 21 22  1  0
 23 17  1  0
 23 24  2  0
 24 14  1  0
 25 21  2  0
M  END
$$$$
