NGY.pdb
     RDKit          3D

 25 25  0  0  1  0  0  0  0  0999 V2000
    2.1885  -18.5766   21.1216 N   0  0  0  0  0  0  0  0  0  0  0  0
    3.5115  -19.0817   21.1005 C   0  0  0  0  0  0  0  0  0  0  0  0
    3.6972  -20.3236   21.1170 O   0  0  0  0  0  0  0  0  0  0  0  0
    4.6436  -18.1426   21.0597 C   0  0  0  0  0  0  0  0  0  0  0  0
    5.6275  -18.3831   22.1857 C   0  0  2  0  0  0  0  0  0  0  0  0
    5.2071  -17.7495   23.4048 N   0  0  0  0  0  0  0  0  0  0  0  0
    6.9235  -17.8094   21.7631 C   0  0  0  0  0  0  0  0  0  0  0  0
    7.8216  -18.5925   21.3525 O   0  0  0  0  0  0  0  0  0  0  0  0
    7.1416  -16.4169   21.8211 N   0  0  0  0  0  0  0  0  0  0  0  0
    8.3765  -15.8240   21.3867 C   0  0  0  0  0  0  0  0  0  0  0  0
    9.3226  -15.6675   22.5166 C   0  0  0  0  0  0  0  0  0  0  0  0
   10.5613  -15.4519   22.2681 O   0  0  0  0  0  0  0  0  0  0  0  0
    4.8586  -12.5213   26.8328 O   0  0  0  0  0  0  0  0  0  0  0  0
    6.1313  -13.0062   26.5497 C   0  0  0  0  0  0  0  0  0  0  0  0
    6.2890  -14.2110   25.9017 C   0  0  0  0  0  0  0  0  0  0  0  0
    7.5227  -14.7351   25.5983 C   0  0  0  0  0  0  0  0  0  0  0  0
    8.6812  -14.0639   25.9364 C   0  0  0  0  0  0  0  0  0  0  0  0
   10.0365  -14.5233   25.6669 C   0  0  0  0  0  0  0  0  0  0  0  0
   10.0042  -15.8358   24.9220 C   0  0  2  0  0  0  0  0  0  0  0  0
    8.9953  -15.7292   23.8806 N   0  0  0  0  0  0  0  0  0  0  0  0
    9.7712  -16.9619   25.8133 C   0  0  0  0  0  0  0  0  0  0  0  0
    8.6958  -17.8034   25.6514 O   0  0  0  0  0  0  0  0  0  0  0  0
    8.5185  -12.8470   26.5909 C   0  0  0  0  0  0  0  0  0  0  0  0
    7.2770  -12.3295   26.8909 C   0  0  0  0  0  0  0  0  0  0  0  0
   10.5592  -17.1889   26.7643 O   0  0  0  0  0  0  0  0  0  0  0  0
  1  2  1  0
  2  3  2  0
  4  5  1  0
  4  2  1  0
  5  6  1  1
  7  5  1  0
  8  7  2  0
  9  7  1  0
 10 11  1  0
 10  9  1  0
 11 20  1  0
 12 11  2  0
 14 15  2  0
 14 13  1  0
 16 15  1  0
 17 16  2  0
 18 17  1  0
 19 18  1  1
 20 19  1  0
 21 19  1  0
 21 22  1  0
 23 17  1  0
 23 24  2  0
 24 14  1  0
 25 21  2  0
M  END
$$$$
