LAF.pdb
     RDKit          3D

 25 25  0  0  1  0  0  0  0  0999 V2000
   28.5784  -18.2667  -15.7952 C   0  0  0  0  0  0  0  0  0  0  0  0
   27.6197  -17.0742  -15.8437 C   0  0  2  0  0  0  0  0  0  0  0  0
   28.3632  -15.7692  -15.7518 C   0  0  0  0  0  0  0  0  0  0  0  0
   26.6895  -17.2238  -14.6743 C   0  0  0  0  0  0  0  0  0  0  0  0
   26.0353  -18.6165  -14.8261 C   0  0  2  0  0  0  0  0  0  0  0  0
   25.1720  -18.5046  -15.9588 N   0  0  0  0  0  0  0  0  0  0  0  0
   25.3428  -18.8644  -13.5429 C   0  0  0  0  0  0  0  0  0  0  0  0
   24.4325  -18.1159  -13.1681 O   0  0  0  0  0  0  0  0  0  0  0  0
   24.1511  -21.4191  -11.5268 C   0  0  0  0  0  0  0  0  0  0  0  0
   25.1366  -20.2827  -11.5097 C   0  0  2  0  0  0  0  0  0  0  0  0
   25.7448  -19.9680  -12.7677 N   0  0  0  0  0  0  0  0  0  0  0  0
   26.1006  -20.3511  -10.3876 C   0  0  0  0  0  0  0  0  0  0  0  0
   27.1212  -21.0445  -10.5301 O   0  0  0  0  0  0  0  0  0  0  0  0
   25.9056  -19.6531   -9.1452 N   0  0  0  0  0  0  0  0  0  0  0  0
   26.7051  -19.9285   -7.9936 C   0  0  1  0  0  0  0  0  0  0  0  0
   26.6055  -18.9334   -6.9085 C   0  0  0  0  0  0  0  0  0  0  0  0
   27.6463  -19.1503   -5.8888 C   0  0  0  0  0  0  0  0  0  0  0  0
   27.3867  -20.0505   -4.8756 C   0  0  0  0  0  0  0  0  0  0  0  0
   28.3019  -20.3468   -3.9108 C   0  0  0  0  0  0  0  0  0  0  0  0
   29.5451  -19.7358   -3.9208 C   0  0  0  0  0  0  0  0  0  0  0  0
   29.8432  -18.8160   -4.9309 C   0  0  0  0  0  0  0  0  0  0  0  0
   28.8875  -18.5446   -5.8923 C   0  0  0  0  0  0  0  0  0  0  0  0
   26.3924  -21.3420   -7.5838 C   0  0  0  0  0  0  0  0  0  0  0  0
   25.2163  -21.7472   -7.6237 O   0  0  0  0  0  0  0  0  0  0  0  0
   27.3475  -22.2608   -7.1570 O   0  0  0  0  0  0  0  0  0  0  0  0
  2  1  1  1
  2  3  1  0
  4  2  1  0
  4  5  1  0
  5  7  1  0
  5  6  1  6
  7  8  2  0
 10  9  1  6
 11 10  1  0
 11  7  1  0
 12 14  1  0
 12 10  1  0
 13 12  2  0
 15 14  1  0
 15 16  1  1
 17 16  1  0
 18 17  2  0
 19 18  1  0
 20 19  2  0
 20 21  1  0
 21 22  2  0
 22 17  1  0
 23 25  1  0
 23 15  1  0
 24 23  2  0
M  END
$$$$
