LAF.pdb
     RDKit          3D

 25 25  0  0  1  0  0  0  0  0999 V2000
   29.1121  -16.8986  -16.0098 C   0  0  0  0  0  0  0  0  0  0  0  0
   28.0534  -17.7041  -16.7675 C   0  0  2  0  0  0  0  0  0  0  0  0
   27.7658  -17.0999  -18.1153 C   0  0  0  0  0  0  0  0  0  0  0  0
   26.8148  -17.6900  -15.9187 C   0  0  0  0  0  0  0  0  0  0  0  0
   25.7777  -18.5611  -16.6645 C   0  0  2  0  0  0  0  0  0  0  0  0
   24.7607  -17.6526  -17.0903 N   0  0  0  0  0  0  0  0  0  0  0  0
   25.3327  -19.5691  -15.6779 C   0  0  0  0  0  0  0  0  0  0  0  0
   24.4616  -19.2888  -14.8460 O   0  0  0  0  0  0  0  0  0  0  0  0
   25.7051  -23.2880  -15.2941 C   0  0  0  0  0  0  0  0  0  0  0  0
   25.5704  -21.8788  -14.7853 C   0  0  2  0  0  0  0  0  0  0  0  0
   25.9227  -20.8462  -15.7132 N   0  0  0  0  0  0  0  0  0  0  0  0
   26.1420  -21.6796  -13.4338 C   0  0  0  0  0  0  0  0  0  0  0  0
   27.3740  -21.7614  -13.2981 O   0  0  0  0  0  0  0  0  0  0  0  0
   25.3352  -21.3980  -12.2769 N   0  0  0  0  0  0  0  0  0  0  0  0
   25.9100  -21.2419  -10.9782 C   0  0  1  0  0  0  0  0  0  0  0  0
   27.0417  -20.2978  -10.9025 C   0  0  0  0  0  0  0  0  0  0  0  0
   27.4744  -20.0945   -9.5092 C   0  0  0  0  0  0  0  0  0  0  0  0
   28.4236  -20.9517   -8.9911 C   0  0  0  0  0  0  0  0  0  0  0  0
   28.9145  -20.8186   -7.7273 C   0  0  0  0  0  0  0  0  0  0  0  0
   28.4611  -19.7967   -6.9094 C   0  0  0  0  0  0  0  0  0  0  0  0
   27.4974  -18.9098   -7.3993 C   0  0  0  0  0  0  0  0  0  0  0  0
   27.0265  -19.0782   -8.6882 C   0  0  0  0  0  0  0  0  0  0  0  0
   24.7728  -20.9397  -10.0406 C   0  0  0  0  0  0  0  0  0  0  0  0
   24.8767  -21.2307   -8.8350 O   0  0  0  0  0  0  0  0  0  0  0  0
   23.5802  -20.3351  -10.4290 O   0  0  0  0  0  0  0  0  0  0  0  0
  2  1  1  1
  2  3  1  0
  4  2  1  0
  4  5  1  0
  5  7  1  0
  5  6  1  1
  7  8  2  0
 10  9  1  6
 11 10  1  0
 11  7  1  0
 12 14  1  0
 12 10  1  0
 13 12  2  0
 15 14  1  0
 15 16  1  6
 17 16  1  0
 18 17  2  0
 19 18  1  0
 20 19  2  0
 20 21  1  0
 21 22  2  0
 22 17  1  0
 23 25  1  0
 23 15  1  0
 24 23  2  0
M  END
$$$$
