LAF.pdb
     RDKit          3D

 25 25  0  0  1  0  0  0  0  0999 V2000
   20.6326  -19.6463  -13.7858 C   0  0  0  0  0  0  0  0  0  0  0  0
   20.3983  -21.1014  -13.3720 C   0  0  2  0  0  0  0  0  0  0  0  0
   19.2280  -21.2227  -12.4339 C   0  0  0  0  0  0  0  0  0  0  0  0
   21.6560  -21.5623  -12.6932 C   0  0  0  0  0  0  0  0  0  0  0  0
   22.7809  -21.4294  -13.7457 C   0  0  2  0  0  0  0  0  0  0  0  0
   22.5284  -22.4638  -14.6981 N   0  0  0  0  0  0  0  0  0  0  0  0
   24.0429  -21.5801  -12.9892 C   0  0  0  0  0  0  0  0  0  0  0  0
   24.3061  -22.6440  -12.4163 O   0  0  0  0  0  0  0  0  0  0  0  0
   27.2383  -19.5809  -12.7670 C   0  0  0  0  0  0  0  0  0  0  0  0
   26.2029  -20.5628  -12.2909 C   0  0  2  0  0  0  0  0  0  0  0  0
   24.9292  -20.4880  -12.9417 N   0  0  0  0  0  0  0  0  0  0  0  0
   26.1088  -20.6563  -10.8159 C   0  0  0  0  0  0  0  0  0  0  0  0
   25.0237  -20.3821  -10.2771 O   0  0  0  0  0  0  0  0  0  0  0  0
   27.2152  -21.0478   -9.9847 N   0  0  0  0  0  0  0  0  0  0  0  0
   27.1561  -20.9559   -8.5601 C   0  0  1  0  0  0  0  0  0  0  0  0
   28.4309  -21.2106   -7.8618 C   0  0  0  0  0  0  0  0  0  0  0  0
   28.4413  -20.5879   -6.5268 C   0  0  0  0  0  0  0  0  0  0  0  0
   28.1875  -21.3899   -5.4329 C   0  0  0  0  0  0  0  0  0  0  0  0
   28.2147  -20.9133   -4.1569 C   0  0  0  0  0  0  0  0  0  0  0  0
   28.5023  -19.5792   -3.9192 C   0  0  0  0  0  0  0  0  0  0  0  0
   28.7625  -18.7354   -5.0034 C   0  0  0  0  0  0  0  0  0  0  0  0
   28.7269  -19.2589   -6.2825 C   0  0  0  0  0  0  0  0  0  0  0  0
   26.5171  -19.6312   -8.2432 C   0  0  0  0  0  0  0  0  0  0  0  0
   26.8834  -18.6106   -8.8541 O   0  0  0  0  0  0  0  0  0  0  0  0
   25.5125  -19.4557   -7.2951 O   0  0  0  0  0  0  0  0  0  0  0  0
  2  1  1  1
  2  3  1  0
  4  2  1  0
  4  5  1  0
  5  7  1  0
  5  6  1  6
  7  8  2  0
 10  9  1  1
 11 10  1  0
 11  7  1  0
 12 14  1  0
 12 10  1  0
 13 12  2  0
 15 14  1  0
 15 16  1  1
 17 16  1  0
 18 17  2  0
 19 18  1  0
 20 19  2  0
 20 21  1  0
 21 22  2  0
 22 17  1  0
 23 25  1  0
 23 15  1  0
 24 23  2  0
M  END
$$$$
