LAF.pdb
     RDKit          3D

 25 25  0  0  1  0  0  0  0  0999 V2000
   24.2620  -19.2957  -19.8922 C   0  0  0  0  0  0  0  0  0  0  0  0
   24.1565  -20.2075  -18.6670 C   0  0  2  0  0  0  0  0  0  0  0  0
   23.9084  -21.6367  -19.0672 C   0  0  0  0  0  0  0  0  0  0  0  0
   23.0087  -19.6928  -17.8468 C   0  0  0  0  0  0  0  0  0  0  0  0
   22.8926  -20.6437  -16.6331 C   0  0  2  0  0  0  0  0  0  0  0  0
   21.6315  -20.3380  -16.0356 N   0  0  0  0  0  0  0  0  0  0  0  0
   24.0673  -20.3417  -15.7868 C   0  0  0  0  0  0  0  0  0  0  0  0
   25.2102  -20.4120  -16.2541 O   0  0  0  0  0  0  0  0  0  0  0  0
   25.1485  -18.1388  -13.3825 C   0  0  0  0  0  0  0  0  0  0  0  0
   24.9213  -19.6143  -13.5665 C   0  0  2  0  0  0  0  0  0  0  0  0
   23.8495  -19.9736  -14.4461 N   0  0  0  0  0  0  0  0  0  0  0  0
   24.9258  -20.3774  -12.2973 C   0  0  0  0  0  0  0  0  0  0  0  0
   23.8790  -20.9494  -11.9511 O   0  0  0  0  0  0  0  0  0  0  0  0
   26.0846  -20.4828  -11.4519 N   0  0  0  0  0  0  0  0  0  0  0  0
   26.0577  -21.2157  -10.2257 C   0  0  1  0  0  0  0  0  0  0  0  0
   27.3728  -21.4191   -9.5878 C   0  0  0  0  0  0  0  0  0  0  0  0
   27.5764  -20.4773   -8.4735 C   0  0  0  0  0  0  0  0  0  0  0  0
   28.7461  -19.7458   -8.4455 C   0  0  0  0  0  0  0  0  0  0  0  0
   29.0061  -18.8224   -7.4781 C   0  0  0  0  0  0  0  0  0  0  0  0
   28.0821  -18.5903   -6.4725 C   0  0  0  0  0  0  0  0  0  0  0  0
   26.8860  -19.3146   -6.4667 C   0  0  0  0  0  0  0  0  0  0  0  0
   26.6599  -20.2411   -7.4677 C   0  0  0  0  0  0  0  0  0  0  0  0
   25.0292  -20.5504   -9.3522 C   0  0  0  0  0  0  0  0  0  0  0  0
   24.8029  -19.3340   -9.4870 O   0  0  0  0  0  0  0  0  0  0  0  0
   24.2841  -21.2127   -8.3802 O   0  0  0  0  0  0  0  0  0  0  0  0
  2  1  1  6
  2  3  1  0
  4  2  1  0
  4  5  1  0
  5  7  1  0
  5  6  1  1
  7  8  2  0
 10  9  1  1
 11 10  1  0
 11  7  1  0
 12 14  1  0
 12 10  1  0
 13 12  2  0
 15 14  1  0
 15 16  1  1
 17 16  1  0
 18 17  2  0
 19 18  1  0
 20 19  2  0
 20 21  1  0
 21 22  2  0
 22 17  1  0
 23 25  1  0
 23 15  1  0
 24 23  2  0
M  END
$$$$
