LAF.pdb
     RDKit          3D

 25 25  0  0  1  0  0  0  0  0999 V2000
   33.0145  -24.5274  -16.8191 C   0  0  0  0  0  0  0  0  0  0  0  0
   32.0340  -25.2166  -17.7717 C   0  0  2  0  0  0  0  0  0  0  0  0
   32.6616  -25.4686  -19.1160 C   0  0  0  0  0  0  0  0  0  0  0  0
   30.8560  -24.2965  -17.9144 C   0  0  0  0  0  0  0  0  0  0  0  0
   30.3256  -24.0586  -16.4817 C   0  0  2  0  0  0  0  0  0  0  0  0
   29.9304  -25.3473  -16.0086 N   0  0  0  0  0  0  0  0  0  0  0  0
   29.2190  -23.0887  -16.6311 C   0  0  0  0  0  0  0  0  0  0  0  0
   29.3668  -22.0714  -17.3187 O   0  0  0  0  0  0  0  0  0  0  0  0
   25.9186  -22.5838  -17.0926 C   0  0  0  0  0  0  0  0  0  0  0  0
   26.9131  -22.4250  -15.9751 C   0  0  2  0  0  0  0  0  0  0  0  0
   28.0026  -23.3548  -15.9754 N   0  0  0  0  0  0  0  0  0  0  0  0
   26.2866  -22.2486  -14.6449 C   0  0  0  0  0  0  0  0  0  0  0  0
   25.9157  -23.2622  -14.0302 O   0  0  0  0  0  0  0  0  0  0  0  0
   26.0890  -20.9597  -14.0380 N   0  0  0  0  0  0  0  0  0  0  0  0
   25.5406  -20.8216  -12.7260 C   0  0  1  0  0  0  0  0  0  0  0  0
   26.2434  -19.8643  -11.8500 C   0  0  0  0  0  0  0  0  0  0  0  0
   27.3976  -20.4959  -11.1875 C   0  0  0  0  0  0  0  0  0  0  0  0
   28.5218  -20.7535  -11.9451 C   0  0  0  0  0  0  0  0  0  0  0  0
   29.6515  -21.2979  -11.4125 C   0  0  0  0  0  0  0  0  0  0  0  0
   29.7010  -21.6167  -10.0653 C   0  0  0  0  0  0  0  0  0  0  0  0
   28.5797  -21.3721   -9.2664 C   0  0  0  0  0  0  0  0  0  0  0  0
   27.4539  -20.8166   -9.8453 C   0  0  0  0  0  0  0  0  0  0  0  0
   24.0708  -20.5529  -12.9029 C   0  0  0  0  0  0  0  0  0  0  0  0
   23.3065  -20.6504  -11.9254 O   0  0  0  0  0  0  0  0  0  0  0  0
   23.4840  -20.1859  -14.1110 O   0  0  0  0  0  0  0  0  0  0  0  0
  2  1  1  1
  2  3  1  0
  4  2  1  0
  4  5  1  0
  5  7  1  0
  5  6  1  6
  7  8  2  0
 10  9  1  6
 11 10  1  0
 11  7  1  0
 12 14  1  0
 12 10  1  0
 13 12  2  0
 15 14  1  0
 15 16  1  6
 17 16  1  0
 18 17  2  0
 19 18  1  0
 20 19  2  0
 20 21  1  0
 21 22  2  0
 22 17  1  0
 23 25  1  0
 23 15  1  0
 24 23  2  0
M  END
$$$$
