LAF.pdb
     RDKit          3D

 25 25  0  0  1  0  0  0  0  0999 V2000
   13.1319  -18.3102   -1.2169 C   0  0  0  0  0  0  0  0  0  0  0  0
   11.8457  -18.4073   -0.3924 C   0  0  2  0  0  0  0  0  0  0  0  0
   10.8038  -17.4405   -0.8865 C   0  0  0  0  0  0  0  0  0  0  0  0
   12.2198  -18.0852    1.0258 C   0  0  0  0  0  0  0  0  0  0  0  0
   13.2840  -19.1302    1.4332 C   0  0  2  0  0  0  0  0  0  0  0  0
   12.6241  -20.3939    1.3411 N   0  0  0  0  0  0  0  0  0  0  0  0
   13.7022  -18.7492    2.7998 C   0  0  0  0  0  0  0  0  0  0  0  0
   14.0742  -17.5949    3.0416 O   0  0  0  0  0  0  0  0  0  0  0  0
   13.7271  -20.5353    6.1610 C   0  0  0  0  0  0  0  0  0  0  0  0
   14.0179  -19.4441    5.1674 C   0  0  2  0  0  0  0  0  0  0  0  0
   13.6636  -19.7290    3.8092 N   0  0  0  0  0  0  0  0  0  0  0  0
   15.3676  -18.8527    5.3148 C   0  0  0  0  0  0  0  0  0  0  0  0
   16.2588  -19.2178    4.5304 O   0  0  0  0  0  0  0  0  0  0  0  0
   15.6893  -17.8792    6.3235 N   0  0  0  0  0  0  0  0  0  0  0  0
   16.9911  -17.2989    6.4216 C   0  0  1  0  0  0  0  0  0  0  0  0
   17.0345  -15.8298    6.2892 C   0  0  0  0  0  0  0  0  0  0  0  0
   16.9119  -15.4175    4.8803 C   0  0  0  0  0  0  0  0  0  0  0  0
   15.7591  -14.7667    4.4909 C   0  0  0  0  0  0  0  0  0  0  0  0
   15.5715  -14.3125    3.2202 C   0  0  0  0  0  0  0  0  0  0  0  0
   16.5554  -14.4988    2.2631 C   0  0  0  0  0  0  0  0  0  0  0  0
   17.7366  -15.1564    2.6203 C   0  0  0  0  0  0  0  0  0  0  0  0
   17.8885  -15.6001    3.9208 C   0  0  0  0  0  0  0  0  0  0  0  0
   17.6049  -17.8366    7.6857 C   0  0  0  0  0  0  0  0  0  0  0  0
   16.9207  -18.5427    8.4487 O   0  0  0  0  0  0  0  0  0  0  0  0
   18.9211  -17.6031    8.0753 O   0  0  0  0  0  0  0  0  0  0  0  0
  2  1  1  6
  2  3  1  0
  4  2  1  0
  4  5  1  0
  5  7  1  0
  5  6  1  1
  7  8  2  0
 10  9  1  1
 11 10  1  0
 11  7  1  0
 12 14  1  0
 12 10  1  0
 13 12  2  0
 15 14  1  0
 15 16  1  1
 17 16  1  0
 18 17  2  0
 19 18  1  0
 20 19  2  0
 20 21  1  0
 21 22  2  0
 22 17  1  0
 23 25  1  0
 23 15  1  0
 24 23  2  0
M  END
$$$$
