LAF.pdb
     RDKit          3D

 25 25  0  0  1  0  0  0  0  0999 V2000
   17.8267  -19.9574    1.7145 C   0  0  0  0  0  0  0  0  0  0  0  0
   17.5698  -18.4852    1.3825 C   0  0  2  0  0  0  0  0  0  0  0  0
   18.7245  -17.8841    0.6277 C   0  0  0  0  0  0  0  0  0  0  0  0
   17.3825  -17.7762    2.6929 C   0  0  0  0  0  0  0  0  0  0  0  0
   16.0680  -18.3282    3.2915 C   0  0  2  0  0  0  0  0  0  0  0  0
   15.0563  -18.0083    2.3350 N   0  0  0  0  0  0  0  0  0  0  0  0
   15.9198  -17.6515    4.5982 C   0  0  0  0  0  0  0  0  0  0  0  0
   15.4343  -16.5159    4.6636 O   0  0  0  0  0  0  0  0  0  0  0  0
   16.1625  -18.7435    8.2019 C   0  0  0  0  0  0  0  0  0  0  0  0
   16.2258  -17.7611    7.0645 C   0  0  2  0  0  0  0  0  0  0  0  0
   16.3418  -18.3315    5.7558 N   0  0  0  0  0  0  0  0  0  0  0  0
   17.1589  -16.6364    7.3041 C   0  0  0  0  0  0  0  0  0  0  0  0
   18.2799  -16.6781    6.7709 O   0  0  0  0  0  0  0  0  0  0  0  0
   16.8244  -15.5038    8.1251 N   0  0  0  0  0  0  0  0  0  0  0  0
   17.7528  -14.4432    8.3591 C   0  0  1  0  0  0  0  0  0  0  0  0
   17.3469  -13.1266    7.8305 C   0  0  0  0  0  0  0  0  0  0  0  0
   17.9331  -12.8818    6.5014 C   0  0  0  0  0  0  0  0  0  0  0  0
   17.2144  -13.2751    5.3910 C   0  0  0  0  0  0  0  0  0  0  0  0
   17.6557  -13.0554    4.1209 C   0  0  0  0  0  0  0  0  0  0  0  0
   18.8670  -12.4185    3.9064 C   0  0  0  0  0  0  0  0  0  0  0  0
   19.6244  -12.0076    5.0077 C   0  0  0  0  0  0  0  0  0  0  0  0
   19.1400  -12.2478    6.2801 C   0  0  0  0  0  0  0  0  0  0  0  0
   18.0633  -14.4634    9.8311 C   0  0  0  0  0  0  0  0  0  0  0  0
   17.3254  -15.0993   10.6059 O   0  0  0  0  0  0  0  0  0  0  0  0
   19.1493  -13.8113   10.4091 O   0  0  0  0  0  0  0  0  0  0  0  0
  2  1  1  1
  2  3  1  0
  4  2  1  0
  4  5  1  0
  5  7  1  0
  5  6  1  6
  7  8  2  0
 10  9  1  1
 11 10  1  0
 11  7  1  0
 12 14  1  0
 12 10  1  0
 13 12  2  0
 15 14  1  0
 15 16  1  1
 17 16  1  0
 18 17  2  0
 19 18  1  0
 20 19  2  0
 20 21  1  0
 21 22  2  0
 22 17  1  0
 23 25  1  0
 23 15  1  0
 24 23  2  0
M  END
$$$$
