LAF.pdb
     RDKit          3D

 25 25  0  0  1  0  0  0  0  0999 V2000
   20.2059  -16.2288  -20.5790 C   0  0  0  0  0  0  0  0  0  0  0  0
   19.3889  -15.3199  -21.5009 C   0  0  2  0  0  0  0  0  0  0  0  0
   19.6641  -15.6192  -22.9498 C   0  0  0  0  0  0  0  0  0  0  0  0
   19.7900  -13.9093  -21.1783 C   0  0  0  0  0  0  0  0  0  0  0  0
   19.2995  -13.6466  -19.7357 C   0  0  2  0  0  0  0  0  0  0  0  0
   17.9059  -13.9602  -19.7498 N   0  0  0  0  0  0  0  0  0  0  0  0
   19.6108  -12.2253  -19.4702 C   0  0  0  0  0  0  0  0  0  0  0  0
   20.7847  -11.8375  -19.4354 O   0  0  0  0  0  0  0  0  0  0  0  0
   17.6706   -9.0183  -19.5161 C   0  0  0  0  0  0  0  0  0  0  0  0
   18.7466   -9.9388  -19.0085 C   0  0  2  0  0  0  0  0  0  0  0  0
   18.5422  -11.3337  -19.2616 N   0  0  0  0  0  0  0  0  0  0  0  0
   19.1709   -9.6457  -17.6203 C   0  0  0  0  0  0  0  0  0  0  0  0
   18.7191  -10.3537  -16.7051 O   0  0  0  0  0  0  0  0  0  0  0  0
   20.0784   -8.5805  -17.2880 N   0  0  0  0  0  0  0  0  0  0  0  0
   20.4258   -8.2822  -15.9346 C   0  0  1  0  0  0  0  0  0  0  0  0
   21.8675   -8.0910  -15.6847 C   0  0  0  0  0  0  0  0  0  0  0  0
   22.1199   -7.7072  -14.2851 C   0  0  0  0  0  0  0  0  0  0  0  0
   22.3454   -8.7112  -13.3657 C   0  0  0  0  0  0  0  0  0  0  0  0
   22.6267   -8.4531  -12.0579 C   0  0  0  0  0  0  0  0  0  0  0  0
   22.6929   -7.1453  -11.6061 C   0  0  0  0  0  0  0  0  0  0  0  0
   22.4676   -6.1012  -12.5086 C   0  0  0  0  0  0  0  0  0  0  0  0
   22.1870   -6.4057  -13.8277 C   0  0  0  0  0  0  0  0  0  0  0  0
   19.5545   -7.1303  -15.5133 C   0  0  0  0  0  0  0  0  0  0  0  0
   19.2718   -6.2406  -16.3366 O   0  0  0  0  0  0  0  0  0  0  0  0
   19.0187   -6.9825  -14.2367 O   0  0  0  0  0  0  0  0  0  0  0  0
  2  1  1  1
  2  3  1  0
  4  2  1  0
  4  5  1  0
  5  7  1  0
  5  6  1  6
  7  8  2  0
 10  9  1  1
 11 10  1  0
 11  7  1  0
 12 14  1  0
 12 10  1  0
 13 12  2  0
 15 14  1  0
 15 16  1  6
 17 16  1  0
 18 17  2  0
 19 18  1  0
 20 19  2  0
 20 21  1  0
 21 22  2  0
 22 17  1  0
 23 25  1  0
 23 15  1  0
 24 23  2  0
M  END
$$$$
