LAF.pdb
     RDKit          3D

 25 25  0  0  1  0  0  0  0  0999 V2000
   23.5242  -21.0261  -16.7031 C   0  0  0  0  0  0  0  0  0  0  0  0
   23.0701  -20.7769  -15.2625 C   0  0  2  0  0  0  0  0  0  0  0  0
   21.5717  -20.6732  -15.1704 C   0  0  0  0  0  0  0  0  0  0  0  0
   23.7060  -19.4874  -14.8292 C   0  0  0  0  0  0  0  0  0  0  0  0
   23.8093  -19.5604  -13.2882 C   0  0  2  0  0  0  0  0  0  0  0  0
   24.1924  -18.2477  -12.8747 N   0  0  0  0  0  0  0  0  0  0  0  0
   24.8119  -20.6124  -13.0136 C   0  0  0  0  0  0  0  0  0  0  0  0
   24.4771  -21.8025  -12.9789 O   0  0  0  0  0  0  0  0  0  0  0  0
   28.5264  -20.9469  -12.8384 C   0  0  0  0  0  0  0  0  0  0  0  0
   27.1362  -21.1305  -12.2941 C   0  0  2  0  0  0  0  0  0  0  0  0
   26.1470  -20.2244  -12.7963 N   0  0  0  0  0  0  0  0  0  0  0  0
   27.0928  -21.2974  -10.8233 C   0  0  0  0  0  0  0  0  0  0  0  0
   27.7280  -22.2382  -10.3190 O   0  0  0  0  0  0  0  0  0  0  0  0
   26.3492  -20.4216   -9.9582 N   0  0  0  0  0  0  0  0  0  0  0  0
   26.4103  -20.5388   -8.5355 C   0  0  1  0  0  0  0  0  0  0  0  0
   26.6818  -19.2806   -7.8138 C   0  0  0  0  0  0  0  0  0  0  0  0
   27.5664  -19.5088   -6.6582 C   0  0  0  0  0  0  0  0  0  0  0  0
   26.9910  -19.6072   -5.4078 C   0  0  0  0  0  0  0  0  0  0  0  0
   27.7224  -19.8568   -4.2858 C   0  0  0  0  0  0  0  0  0  0  0  0
   29.0952  -20.0199   -4.3729 C   0  0  0  0  0  0  0  0  0  0  0  0
   29.7139  -19.9246   -5.6233 C   0  0  0  0  0  0  0  0  0  0  0  0
   28.9356  -19.6720   -6.7376 C   0  0  0  0  0  0  0  0  0  0  0  0
   25.1552  -21.2514   -8.1107 C   0  0  0  0  0  0  0  0  0  0  0  0
   24.1587  -21.2377   -8.8562 O   0  0  0  0  0  0  0  0  0  0  0  0
   25.0216  -21.9517   -6.9146 O   0  0  0  0  0  0  0  0  0  0  0  0
  2  1  1  6
  2  3  1  0
  4  2  1  0
  4  5  1  0
  5  7  1  0
  5  6  1  6
  7  8  2  0
 10  9  1  1
 11 10  1  0
 11  7  1  0
 12 14  1  0
 12 10  1  0
 13 12  2  0
 15 14  1  0
 15 16  1  1
 17 16  1  0
 18 17  2  0
 19 18  1  0
 20 19  2  0
 20 21  1  0
 21 22  2  0
 22 17  1  0
 23 25  1  0
 23 15  1  0
 24 23  2  0
M  END
$$$$
