LAF.pdb
     RDKit          3D

 25 25  0  0  1  0  0  0  0  0999 V2000
   31.2646  -26.9724  -24.6238 C   0  0  0  0  0  0  0  0  0  0  0  0
   32.3786  -26.2392  -23.8719 C   0  0  2  0  0  0  0  0  0  0  0  0
   33.6411  -27.0568  -23.8294 C   0  0  0  0  0  0  0  0  0  0  0  0
   31.8702  -25.9989  -22.4795 C   0  0  0  0  0  0  0  0  0  0  0  0
   30.6016  -25.1286  -22.6338 C   0  0  2  0  0  0  0  0  0  0  0  0
   31.0811  -23.7989  -22.8409 N   0  0  0  0  0  0  0  0  0  0  0  0
   29.8399  -25.3231  -21.3810 C   0  0  0  0  0  0  0  0  0  0  0  0
   30.2603  -24.8594  -20.3144 O   0  0  0  0  0  0  0  0  0  0  0  0
   26.3923  -25.9552  -20.3600 C   0  0  0  0  0  0  0  0  0  0  0  0
   27.8493  -26.3181  -20.2694 C   0  0  2  0  0  0  0  0  0  0  0  0
   28.6324  -26.0437  -21.4369 N   0  0  0  0  0  0  0  0  0  0  0  0
   28.0907  -27.6630  -19.6983 C   0  0  0  0  0  0  0  0  0  0  0  0
   28.3382  -28.5976  -20.4781 O   0  0  0  0  0  0  0  0  0  0  0  0
   28.0495  -27.9321  -18.2860 N   0  0  0  0  0  0  0  0  0  0  0  0
   28.2583  -29.2453  -17.7634 C   0  0  1  0  0  0  0  0  0  0  0  0
   28.7964  -29.2956  -16.3902 C   0  0  0  0  0  0  0  0  0  0  0  0
   28.9680  -30.6861  -15.9353 C   0  0  0  0  0  0  0  0  0  0  0  0
   27.9539  -31.2581  -15.1945 C   0  0  0  0  0  0  0  0  0  0  0  0
   28.0044  -32.5496  -14.7638 C   0  0  0  0  0  0  0  0  0  0  0  0
   29.1018  -33.3400  -15.0634 C   0  0  0  0  0  0  0  0  0  0  0  0
   30.1503  -32.7938  -15.8103 C   0  0  0  0  0  0  0  0  0  0  0  0
   30.0593  -31.4797  -16.2300 C   0  0  0  0  0  0  0  0  0  0  0  0
   26.9696  -29.9953  -17.9637 C   0  0  0  0  0  0  0  0  0  0  0  0
   25.8890  -29.4464  -17.6808 O   0  0  0  0  0  0  0  0  0  0  0  0
   26.8906  -31.2928  -18.4627 O   0  0  0  0  0  0  0  0  0  0  0  0
  2  1  1  6
  2  3  1  0
  4  2  1  0
  4  5  1  0
  5  7  1  0
  5  6  1  1
  7  8  2  0
 10  9  1  6
 11 10  1  0
 11  7  1  0
 12 14  1  0
 12 10  1  0
 13 12  2  0
 15 14  1  0
 15 16  1  1
 17 16  1  0
 18 17  2  0
 19 18  1  0
 20 19  2  0
 20 21  1  0
 21 22  2  0
 22 17  1  0
 23 25  1  0
 23 15  1  0
 24 23  2  0
M  END
$$$$
