ADL.pdb
     RDKit          3D

 22 21  0  0  1  0  0  0  0  0999 V2000
   22.9294  -17.3741  -20.0586 C   0  0  0  0  0  0  0  0  0  0  0  0
   23.2481  -18.0408  -18.7390 C   0  0  2  0  0  0  0  0  0  0  0  0
   24.4275  -18.8658  -18.9027 N   0  0  0  0  0  0  0  0  0  0  0  0
   22.0680  -18.8532  -18.3464 C   0  0  0  0  0  0  0  0  0  0  0  0
   20.9701  -18.2757  -18.1878 O   0  0  0  0  0  0  0  0  0  0  0  0
   22.1337  -20.2413  -18.1461 N   0  0  0  0  0  0  0  0  0  0  0  0
   20.9834  -21.0410  -17.6634 C   0  0  1  0  0  0  0  0  0  0  0  0
   21.1636  -22.3901  -18.2355 C   0  0  0  0  0  0  0  0  0  0  0  0
   20.8848  -22.5859  -19.6529 C   0  0  0  0  0  0  0  0  0  0  0  0
   20.4425  -21.7705  -20.4748 O   0  0  0  0  0  0  0  0  0  0  0  0
   20.9025  -20.9648  -16.1924 C   0  0  0  0  0  0  0  0  0  0  0  0
   21.9306  -20.7415  -15.5127 O   0  0  0  0  0  0  0  0  0  0  0  0
   21.1681  -23.8925  -20.1201 O   0  0  0  0  0  0  0  0  0  0  0  0
   20.7028  -19.0358  -11.4413 C   0  0  0  0  0  0  0  0  0  0  0  0
   19.7996  -18.6456  -12.5692 C   0  0  1  0  0  0  0  0  0  0  0  0
   19.7921  -17.1243  -12.7135 C   0  0  0  0  0  0  0  0  0  0  0  0
   19.9088  -19.3484  -13.8461 C   0  0  0  0  0  0  0  0  0  0  0  0
   19.5761  -20.7585  -14.0300 C   0  0  2  0  0  0  0  0  0  0  0  0
   19.6944  -21.1329  -15.4633 N   0  0  0  0  0  0  0  0  0  0  0  0
   18.2549  -21.1987  -13.6057 C   0  0  0  0  0  0  0  0  0  0  0  0
   17.9147  -21.7360  -12.3620 O   0  0  0  0  0  0  0  0  0  0  0  0
   17.2870  -21.1008  -14.4406 O   0  0  0  0  0  0  0  0  0  0  0  0
  2  1  1  6
  2  4  1  0
  3  2  1  0
  4  6  1  0
  4  5  2  0
  6  7  1  0
  7 11  1  0
  7  8  1  1
  9  8  1  0
 10  9  2  0
 11 12  2  0
 11 19  1  0
 13  9  1  0
 15 14  1  1
 16 15  1  0
 18 17  1  6
 17 15  1  0
 18 20  1  0
 19 18  1  0
 20 21  1  0
 22 20  2  0
M  END
$$$$
