ADL.pdb
     RDKit          3D

 22 21  0  0  1  0  0  0  0  0999 V2000
   42.8075  -15.8158   -9.4003 C   0  0  0  0  0  0  0  0  0  0  0  0
   43.9415  -15.4379   -8.4736 C   0  0  2  0  0  0  0  0  0  0  0  0
   44.3012  -16.5930   -7.6769 N   0  0  0  0  0  0  0  0  0  0  0  0
   43.4735  -14.3151   -7.6210 C   0  0  0  0  0  0  0  0  0  0  0  0
   42.8152  -14.5802   -6.5911 O   0  0  0  0  0  0  0  0  0  0  0  0
   43.7390  -12.9699   -7.9228 N   0  0  0  0  0  0  0  0  0  0  0  0
   43.3502  -11.8522   -7.0309 C   0  0  1  0  0  0  0  0  0  0  0  0
   44.5911  -11.0960   -6.7701 C   0  0  0  0  0  0  0  0  0  0  0  0
   44.5193   -9.9186   -5.9136 C   0  0  0  0  0  0  0  0  0  0  0  0
   43.6895   -9.6514   -5.0327 O   0  0  0  0  0  0  0  0  0  0  0  0
   42.2409  -11.0912   -7.6362 C   0  0  0  0  0  0  0  0  0  0  0  0
   42.2553  -10.8148   -8.8578 O   0  0  0  0  0  0  0  0  0  0  0  0
   45.5497   -8.9748   -6.1450 O   0  0  0  0  0  0  0  0  0  0  0  0
   37.0536  -10.4383   -8.5887 C   0  0  0  0  0  0  0  0  0  0  0  0
   37.4578   -9.7386   -7.3288 C   0  0  1  0  0  0  0  0  0  0  0  0
   36.3389   -9.8625   -6.2953 C   0  0  0  0  0  0  0  0  0  0  0  0
   38.7883   -9.9802   -6.7743 C   0  0  0  0  0  0  0  0  0  0  0  0
   40.0256   -9.8419   -7.5378 C   0  0  2  0  0  0  0  0  0  0  0  0
   41.1132  -10.6317   -6.9037 N   0  0  0  0  0  0  0  0  0  0  0  0
   40.5564   -8.4986   -7.7207 C   0  0  0  0  0  0  0  0  0  0  0  0
   40.1746   -7.5773   -8.6987 O   0  0  0  0  0  0  0  0  0  0  0  0
   41.4736   -8.0959   -6.9206 O   0  0  0  0  0  0  0  0  0  0  0  0
  2  1  1  6
  2  4  1  0
  3  2  1  0
  4  6  1  0
  4  5  2  0
  6  7  1  0
  7 11  1  0
  7  8  1  6
  9  8  1  0
 10  9  2  0
 11 12  2  0
 11 19  1  0
 13  9  1  0
 15 14  1  6
 16 15  1  0
 18 17  1  1
 17 15  1  0
 18 20  1  0
 19 18  1  0
 20 21  1  0
 22 20  2  0
M  END
$$$$
