ADL.pdb
     RDKit          3D

 22 21  0  0  1  0  0  0  0  0999 V2000
   27.2236  -17.9451  -19.1282 C   0  0  0  0  0  0  0  0  0  0  0  0
   27.4707  -18.7630  -17.8802 C   0  0  2  0  0  0  0  0  0  0  0  0
   27.5643  -20.1614  -18.2465 N   0  0  0  0  0  0  0  0  0  0  0  0
   26.3387  -18.5206  -16.9493 C   0  0  0  0  0  0  0  0  0  0  0  0
   26.1865  -17.3718  -16.4789 O   0  0  0  0  0  0  0  0  0  0  0  0
   25.4333  -19.5265  -16.5758 N   0  0  0  0  0  0  0  0  0  0  0  0
   24.2986  -19.2872  -15.6533 C   0  0  1  0  0  0  0  0  0  0  0  0
   23.0775  -19.5277  -16.4474 C   0  0  0  0  0  0  0  0  0  0  0  0
   21.7861  -19.4496  -15.7756 C   0  0  0  0  0  0  0  0  0  0  0  0
   21.1417  -20.3561  -15.2288 O   0  0  0  0  0  0  0  0  0  0  0  0
   24.4573  -20.1113  -14.4401 C   0  0  0  0  0  0  0  0  0  0  0  0
   25.5222  -20.7381  -14.2353 O   0  0  0  0  0  0  0  0  0  0  0  0
   21.2207  -18.1511  -15.7645 O   0  0  0  0  0  0  0  0  0  0  0  0
   26.1402  -19.9550   -9.2848 C   0  0  0  0  0  0  0  0  0  0  0  0
   25.7558  -20.7151  -10.5155 C   0  0  1  0  0  0  0  0  0  0  0  0
   25.3795  -22.1463  -10.1340 C   0  0  0  0  0  0  0  0  0  0  0  0
   24.8302  -20.1071  -11.4693 C   0  0  0  0  0  0  0  0  0  0  0  0
   23.7308  -20.8259  -12.1078 C   0  0  2  0  0  0  0  0  0  0  0  0
   23.4488  -20.2501  -13.4485 N   0  0  0  0  0  0  0  0  0  0  0  0
   22.4548  -20.8624  -11.4078 C   0  0  0  0  0  0  0  0  0  0  0  0
   22.0796  -21.7589  -10.4045 O   0  0  0  0  0  0  0  0  0  0  0  0
   21.5630  -19.9991  -11.7291 O   0  0  0  0  0  0  0  0  0  0  0  0
  2  1  1  6
  2  4  1  0
  3  2  1  0
  4  6  1  0
  4  5  2  0
  6  7  1  0
  7 11  1  0
  7  8  1  6
  9  8  1  0
 10  9  2  0
 11 12  2  0
 11 19  1  0
 13  9  1  0
 15 14  1  1
 16 15  1  0
 18 17  1  1
 17 15  1  0
 18 20  1  0
 19 18  1  0
 20 21  1  0
 22 20  2  0
M  END
$$$$
