ADL.pdb
     RDKit          3D

 22 21  0  0  1  0  0  0  0  0999 V2000
   24.2670  -18.1739  -16.9411 C   0  0  0  0  0  0  0  0  0  0  0  0
   24.3795  -18.2015  -15.4331 C   0  0  2  0  0  0  0  0  0  0  0  0
   25.5577  -17.4578  -15.0366 N   0  0  0  0  0  0  0  0  0  0  0  0
   24.4686  -19.6234  -15.0124 C   0  0  0  0  0  0  0  0  0  0  0  0
   23.5015  -20.3796  -15.2512 O   0  0  0  0  0  0  0  0  0  0  0  0
   25.5922  -20.1534  -14.3584 N   0  0  0  0  0  0  0  0  0  0  0  0
   25.7270  -21.5910  -14.0255 C   0  0  1  0  0  0  0  0  0  0  0  0
   26.9729  -22.0396  -14.6783 C   0  0  0  0  0  0  0  0  0  0  0  0
   27.9483  -21.0328  -15.0783 C   0  0  0  0  0  0  0  0  0  0  0  0
   27.8774  -19.8001  -14.9702 O   0  0  0  0  0  0  0  0  0  0  0  0
   25.6571  -21.7751  -12.5635 C   0  0  0  0  0  0  0  0  0  0  0  0
   25.7745  -22.9173  -12.0629 O   0  0  0  0  0  0  0  0  0  0  0  0
   29.1209  -21.5684  -15.6647 O   0  0  0  0  0  0  0  0  0  0  0  0
   27.3925  -19.1444   -7.9262 C   0  0  0  0  0  0  0  0  0  0  0  0
   26.8561  -20.1235   -8.9231 C   0  0  1  0  0  0  0  0  0  0  0  0
   27.2893  -21.5364   -8.5340 C   0  0  0  0  0  0  0  0  0  0  0  0
   25.4532  -20.0371   -9.3238 C   0  0  0  0  0  0  0  0  0  0  0  0
   24.8342  -20.9140  -10.3142 C   0  0  2  0  0  0  0  0  0  0  0  0
   25.4586  -20.7074  -11.6469 N   0  0  0  0  0  0  0  0  0  0  0  0
   23.3980  -20.7901  -10.5181 C   0  0  0  0  0  0  0  0  0  0  0  0
   22.3929  -21.1950   -9.6367 O   0  0  0  0  0  0  0  0  0  0  0  0
   22.9848  -20.2650  -11.6122 O   0  0  0  0  0  0  0  0  0  0  0  0
  2  1  1  6
  2  4  1  0
  3  2  1  0
  4  6  1  0
  4  5  2  0
  6  7  1  0
  7 11  1  0
  7  8  1  1
  9  8  1  0
 10  9  2  0
 11 12  2  0
 11 19  1  0
 13  9  1  0
 15 14  1  1
 16 15  1  0
 18 17  1  1
 17 15  1  0
 18 20  1  0
 19 18  1  0
 20 21  1  0
 22 20  2  0
M  END
$$$$
