ADL.pdb
     RDKit          3D

 22 21  0  0  1  0  0  0  0  0999 V2000
   15.9990  -13.9583  -18.3643 C   0  0  0  0  0  0  0  0  0  0  0  0
   17.2148  -13.7396  -17.4916 C   0  0  2  0  0  0  0  0  0  0  0  0
   16.8659  -14.0373  -16.1176 N   0  0  0  0  0  0  0  0  0  0  0  0
   17.6360  -12.3239  -17.6499 C   0  0  0  0  0  0  0  0  0  0  0  0
   18.3024  -12.0073  -18.6597 O   0  0  0  0  0  0  0  0  0  0  0  0
   17.3175  -11.3271  -16.7137 N   0  0  0  0  0  0  0  0  0  0  0  0
   17.7244   -9.9114  -16.8743 C   0  0  1  0  0  0  0  0  0  0  0  0
   16.4819   -9.1214  -16.7658 C   0  0  0  0  0  0  0  0  0  0  0  0
   16.5741   -7.6686  -16.8432 C   0  0  0  0  0  0  0  0  0  0  0  0
   17.4333   -6.9763  -17.4078 O   0  0  0  0  0  0  0  0  0  0  0  0
   18.7891   -9.5836  -15.9073 C   0  0  0  0  0  0  0  0  0  0  0  0
   18.6523   -9.8670  -14.6949 O   0  0  0  0  0  0  0  0  0  0  0  0
   15.5272   -6.9889  -16.1740 O   0  0  0  0  0  0  0  0  0  0  0  0
   24.0784  -11.2484  -15.3968 C   0  0  0  0  0  0  0  0  0  0  0  0
   22.8158  -10.5928  -14.9315 C   0  0  1  0  0  0  0  0  0  0  0  0
   22.8871  -10.3625  -13.4225 C   0  0  0  0  0  0  0  0  0  0  0  0
   22.2953   -9.4436  -15.6693 C   0  0  0  0  0  0  0  0  0  0  0  0
   21.0953   -8.7051  -15.2847 C   0  0  2  0  0  0  0  0  0  0  0  0
   20.0063   -8.9445  -16.2672 N   0  0  0  0  0  0  0  0  0  0  0  0
   21.2087   -7.2598  -15.1522 C   0  0  0  0  0  0  0  0  0  0  0  0
   21.6018   -6.5555  -14.0117 O   0  0  0  0  0  0  0  0  0  0  0  0
   20.9182   -6.5340  -16.1682 O   0  0  0  0  0  0  0  0  0  0  0  0
  2  1  1  6
  2  4  1  0
  3  2  1  0
  4  6  1  0
  4  5  2  0
  6  7  1  0
  7 11  1  0
  7  8  1  1
  9  8  1  0
 10  9  2  0
 11 12  2  0
 11 19  1  0
 13  9  1  0
 15 14  1  6
 16 15  1  0
 18 17  1  6
 17 15  1  0
 18 20  1  0
 19 18  1  0
 20 21  1  0
 22 20  2  0
M  END
$$$$
