ADL.pdb
     RDKit          3D

 22 21  0  0  1  0  0  0  0  0999 V2000
   42.3322  -16.1622   -9.2469 C   0  0  0  0  0  0  0  0  0  0  0  0
   43.3799  -15.0769   -9.3567 C   0  0  2  0  0  0  0  0  0  0  0  0
   44.6922  -15.6767   -9.2284 N   0  0  0  0  0  0  0  0  0  0  0  0
   43.1255  -14.0919   -8.2742 C   0  0  0  0  0  0  0  0  0  0  0  0
   43.4104  -14.4084   -7.0983 O   0  0  0  0  0  0  0  0  0  0  0  0
   42.5788  -12.8215   -8.5159 N   0  0  0  0  0  0  0  0  0  0  0  0
   42.3944  -11.8078   -7.4509 C   0  0  1  0  0  0  0  0  0  0  0  0
   43.7457  -11.5236   -6.9284 C   0  0  0  0  0  0  0  0  0  0  0  0
   43.8869  -10.5255   -5.8754 C   0  0  0  0  0  0  0  0  0  0  0  0
   43.9907   -9.2952   -5.9837 O   0  0  0  0  0  0  0  0  0  0  0  0
   41.6476  -10.6524   -7.9833 C   0  0  0  0  0  0  0  0  0  0  0  0
   41.9534  -10.1576   -9.0926 O   0  0  0  0  0  0  0  0  0  0  0  0
   43.9043  -11.0676   -4.5671 O   0  0  0  0  0  0  0  0  0  0  0  0
   36.1880   -9.9002   -6.8614 C   0  0  0  0  0  0  0  0  0  0  0  0
   37.4840   -9.9120   -7.6101 C   0  0  1  0  0  0  0  0  0  0  0  0
   37.2133  -10.1572   -9.0940 C   0  0  0  0  0  0  0  0  0  0  0  0
   38.4582   -8.8501   -7.3663 C   0  0  0  0  0  0  0  0  0  0  0  0
   39.8304   -8.8742   -7.8657 C   0  0  2  0  0  0  0  0  0  0  0  0
   40.5637  -10.0368   -7.3007 N   0  0  0  0  0  0  0  0  0  0  0  0
   40.6615   -7.7076   -7.6051 C   0  0  0  0  0  0  0  0  0  0  0  0
   41.7955   -7.6569   -6.7911 O   0  0  0  0  0  0  0  0  0  0  0  0
   40.3396   -6.5984   -8.1615 O   0  0  0  0  0  0  0  0  0  0  0  0
  2  1  1  1
  2  4  1  0
  3  2  1  0
  4  6  1  0
  4  5  2  0
  6  7  1  0
  7 11  1  0
  7  8  1  6
  9  8  1  0
 10  9  2  0
 11 12  2  0
 11 19  1  0
 13  9  1  0
 15 14  1  1
 16 15  1  0
 18 17  1  1
 17 15  1  0
 18 20  1  0
 19 18  1  0
 20 21  1  0
 22 20  2  0
M  END
$$$$
