ADL.pdb
     RDKit          3D

 22 21  0  0  1  0  0  0  0  0999 V2000
   21.9569   -7.6562  -22.8249 C   0  0  0  0  0  0  0  0  0  0  0  0
   22.8038   -7.3029  -21.6226 C   0  0  2  0  0  0  0  0  0  0  0  0
   24.1021   -7.9298  -21.7627 N   0  0  0  0  0  0  0  0  0  0  0  0
   22.0944   -7.7892  -20.4114 C   0  0  0  0  0  0  0  0  0  0  0  0
   21.0151   -7.2444  -20.0911 O   0  0  0  0  0  0  0  0  0  0  0  0
   22.5845   -8.8339  -19.6118 N   0  0  0  0  0  0  0  0  0  0  0  0
   21.8971   -9.2998  -18.3845 C   0  0  1  0  0  0  0  0  0  0  0  0
   22.3267  -10.6988  -18.1899 C   0  0  0  0  0  0  0  0  0  0  0  0
   21.8328  -11.7116  -19.1147 C   0  0  0  0  0  0  0  0  0  0  0  0
   20.6674  -11.9256  -19.4784 O   0  0  0  0  0  0  0  0  0  0  0  0
   22.1775   -8.3734  -17.2712 C   0  0  0  0  0  0  0  0  0  0  0  0
   23.3165   -7.8697  -17.1384 O   0  0  0  0  0  0  0  0  0  0  0  0
   22.8452  -12.5446  -19.6504 O   0  0  0  0  0  0  0  0  0  0  0  0
   23.0933   -4.3942  -14.1014 C   0  0  0  0  0  0  0  0  0  0  0  0
   22.0012   -4.4539  -15.1231 C   0  0  1  0  0  0  0  0  0  0  0  0
   22.0619   -3.2094  -16.0078 C   0  0  0  0  0  0  0  0  0  0  0  0
   21.7949   -5.6901  -15.8751 C   0  0  0  0  0  0  0  0  0  0  0  0
   21.4905   -6.9777  -15.2568 C   0  0  2  0  0  0  0  0  0  0  0  0
   21.2096   -7.9970  -16.3012 N   0  0  0  0  0  0  0  0  0  0  0  0
   20.3691   -7.0302  -14.3298 C   0  0  0  0  0  0  0  0  0  0  0  0
   20.4214   -6.8423  -12.9467 O   0  0  0  0  0  0  0  0  0  0  0  0
   19.2038   -7.2788  -14.8028 O   0  0  0  0  0  0  0  0  0  0  0  0
  2  1  1  6
  2  4  1  0
  3  2  1  0
  4  6  1  0
  4  5  2  0
  6  7  1  0
  7 11  1  0
  7  8  1  1
  9  8  1  0
 10  9  2  0
 11 12  2  0
 11 19  1  0
 13  9  1  0
 15 14  1  6
 16 15  1  0
 18 17  1  6
 17 15  1  0
 18 20  1  0
 19 18  1  0
 20 21  1  0
 22 20  2  0
M  END
$$$$
