CIR.pdb
     RDKit          3D

 26 25  0  0  1  0  0  0  0  0999 V2000
   21.9615  -21.7619   -8.3465 N   0  0  0  0  0  0  0  0  0  0  0  0
   21.9016  -20.5903   -9.1970 C   0  0  1  0  0  0  0  0  0  0  0  0
   21.1951  -19.4685   -8.5151 C   0  0  0  0  0  0  0  0  0  0  0  0
   20.0359  -20.1941   -7.3008 S   0  0  0  0  0  0  0  0  0  0  0  0
   23.2172  -20.2822   -9.7263 C   0  0  0  0  0  0  0  0  0  0  0  0
   23.3524  -19.2895  -10.4840 O   0  0  0  0  0  0  0  0  0  0  0  0
   27.6508  -20.1889   -6.7205 C   0  0  0  0  0  0  0  0  0  0  0  0
   26.5732  -19.8908   -7.7271 C   0  0  0  0  0  0  0  0  0  0  0  0
   26.7834  -20.7699   -8.9194 C   0  0  2  0  0  0  0  0  0  0  0  0
   28.1222  -20.4391   -9.5357 C   0  0  0  0  0  0  0  0  0  0  0  0
   25.6966  -20.6453   -9.9579 C   0  0  2  0  0  0  0  0  0  0  0  0
   24.3956  -21.0360   -9.4468 N   0  0  0  0  0  0  0  0  0  0  0  0
   26.0111  -21.4513  -11.1669 C   0  0  0  0  0  0  0  0  0  0  0  0
   25.8579  -22.7191  -11.1368 O   0  0  0  0  0  0  0  0  0  0  0  0
   20.6951  -23.5999  -16.5198 N   0  0  0  0  0  0  0  0  0  0  0  0
   21.1102  -24.0473  -15.2416 C   0  0  0  0  0  0  0  0  0  0  0  0
   20.6659  -25.1530  -14.7830 N   0  0  0  0  0  0  0  0  0  0  0  0
   22.0135  -23.2648  -14.4846 N   0  0  0  0  0  0  0  0  0  0  0  0
   22.4271  -21.9436  -14.9170 C   0  0  0  0  0  0  0  0  0  0  0  0
   23.9528  -21.9017  -14.9368 C   0  0  0  0  0  0  0  0  0  0  0  0
   24.5041  -21.4042  -13.6457 C   0  0  0  0  0  0  0  0  0  0  0  0
   26.0100  -21.3830  -13.6507 C   0  0  2  0  0  0  0  0  0  0  0  0
   26.4810  -20.8551  -12.3675 N   0  0  0  0  0  0  0  0  0  0  0  0
   26.5902  -20.5445  -14.7127 C   0  0  0  0  0  0  0  0  0  0  0  0
   26.8507  -21.1471  -15.9596 O   0  0  0  0  0  0  0  0  0  0  0  0
   26.8720  -19.3136  -14.5806 O   0  0  0  0  0  0  0  0  0  0  0  0
  2  3  1  0
  2  1  1  1
  4  3  1  0
  5  2  1  0
  6  5  2  0
  7  8  1  0
  9  8  1  0
  9 11  1  0
  9 10  1  6
 11 12  1  1
 12  5  1  0
 13 11  1  0
 13 14  2  0
 16 17  2  0
 16 15  1  0
 18 16  1  0
 19 18  1  0
 20 21  1  0
 20 19  1  0
 22 21  1  1
 22 23  1  0
 23 13  1  0
 24 22  1  0
 25 24  1  0
 26 24  2  0
M  END
$$$$
