CIR.pdb
     RDKit          3D

 26 25  0  0  1  0  0  0  0  0999 V2000
   22.2654  -22.8119   -6.9466 N   0  0  0  0  0  0  0  0  0  0  0  0
   21.6842  -21.8199   -7.8285 C   0  0  1  0  0  0  0  0  0  0  0  0
   20.5968  -21.0645   -7.1430 C   0  0  0  0  0  0  0  0  0  0  0  0
   19.7018  -22.2343   -6.0587 S   0  0  0  0  0  0  0  0  0  0  0  0
   22.7254  -21.0158   -8.4409 C   0  0  0  0  0  0  0  0  0  0  0  0
   22.3985  -20.0732   -9.2041 O   0  0  0  0  0  0  0  0  0  0  0  0
   27.5175  -19.5480   -6.1590 C   0  0  0  0  0  0  0  0  0  0  0  0
   26.2224  -19.5118   -6.9237 C   0  0  0  0  0  0  0  0  0  0  0  0
   26.3997  -20.2868   -8.1913 C   0  0  2  0  0  0  0  0  0  0  0  0
   27.4322  -19.5895   -9.0454 C   0  0  0  0  0  0  0  0  0  0  0  0
   25.1218  -20.4620   -8.9732 C   0  0  2  0  0  0  0  0  0  0  0  0
   24.1232  -21.2170   -8.2391 N   0  0  0  0  0  0  0  0  0  0  0  0
   25.3756  -21.1246  -10.2797 C   0  0  0  0  0  0  0  0  0  0  0  0
   25.8540  -22.3087  -10.3035 O   0  0  0  0  0  0  0  0  0  0  0  0
   24.8058  -22.9646  -17.6800 N   0  0  0  0  0  0  0  0  0  0  0  0
   23.4593  -23.2884  -17.3829 C   0  0  0  0  0  0  0  0  0  0  0  0
   22.9427  -24.3517  -17.8655 N   0  0  0  0  0  0  0  0  0  0  0  0
   22.6988  -22.4306  -16.5540 N   0  0  0  0  0  0  0  0  0  0  0  0
   23.2546  -21.2081  -16.0062 C   0  0  0  0  0  0  0  0  0  0  0  0
   24.3636  -21.5829  -15.0266 C   0  0  0  0  0  0  0  0  0  0  0  0
   24.1874  -20.9030  -13.7132 C   0  0  0  0  0  0  0  0  0  0  0  0
   25.3098  -21.2235  -12.7615 C   0  0  2  0  0  0  0  0  0  0  0  0
   25.1020  -20.4805  -11.5158 N   0  0  0  0  0  0  0  0  0  0  0  0
   26.6437  -20.8657  -13.2717 C   0  0  0  0  0  0  0  0  0  0  0  0
   27.3201  -21.8113  -14.0679 O   0  0  0  0  0  0  0  0  0  0  0  0
   27.2263  -19.7611  -13.0423 O   0  0  0  0  0  0  0  0  0  0  0  0
  2  3  1  0
  2  1  1  1
  4  3  1  0
  5  2  1  0
  6  5  2  0
  7  8  1  0
  9  8  1  0
  9 11  1  0
  9 10  1  6
 11 12  1  1
 12  5  1  0
 13 11  1  0
 13 14  2  0
 16 17  2  0
 16 15  1  0
 18 16  1  0
 19 18  1  0
 20 21  1  0
 20 19  1  0
 22 21  1  6
 22 23  1  0
 23 13  1  0
 24 22  1  0
 25 24  1  0
 26 24  2  0
M  END
$$$$
