CIR.pdb
     RDKit          3D

 26 25  0  0  1  0  0  0  0  0999 V2000
   28.3608  -20.2580  -15.2376 N   0  0  0  0  0  0  0  0  0  0  0  0
   27.6781  -19.4713  -14.2302 C   0  0  1  0  0  0  0  0  0  0  0  0
   27.1139  -18.2222  -14.8169 C   0  0  0  0  0  0  0  0  0  0  0  0
   28.5127  -17.1231  -15.2416 S   0  0  0  0  0  0  0  0  0  0  0  0
   26.7463  -20.2997  -13.4877 C   0  0  0  0  0  0  0  0  0  0  0  0
   26.2052  -21.2759  -14.0641 O   0  0  0  0  0  0  0  0  0  0  0  0
   26.5673  -20.5241   -7.9499 C   0  0  0  0  0  0  0  0  0  0  0  0
   26.4879  -21.1365   -9.3218 C   0  0  0  0  0  0  0  0  0  0  0  0
   25.2612  -20.6156  -10.0020 C   0  0  2  0  0  0  0  0  0  0  0  0
   24.0527  -21.3116   -9.4217 C   0  0  0  0  0  0  0  0  0  0  0  0
   25.2834  -20.7912  -11.4999 C   0  0  2  0  0  0  0  0  0  0  0  0
   26.3889  -20.0870  -12.1232 N   0  0  0  0  0  0  0  0  0  0  0  0
   24.0063  -20.3418  -12.1144 C   0  0  0  0  0  0  0  0  0  0  0  0
   23.8857  -19.1312  -12.5036 O   0  0  0  0  0  0  0  0  0  0  0  0
   22.6825  -21.1744  -19.6350 N   0  0  0  0  0  0  0  0  0  0  0  0
   23.0621  -20.0067  -18.9288 C   0  0  0  0  0  0  0  0  0  0  0  0
   23.8306  -19.1523  -19.4853 N   0  0  0  0  0  0  0  0  0  0  0  0
   22.5861  -19.7977  -17.6131 N   0  0  0  0  0  0  0  0  0  0  0  0
   21.6862  -20.7351  -16.9688 C   0  0  0  0  0  0  0  0  0  0  0  0
   21.3794  -20.2175  -15.5660 C   0  0  0  0  0  0  0  0  0  0  0  0
   22.4106  -20.6533  -14.5835 C   0  0  0  0  0  0  0  0  0  0  0  0
   21.8298  -20.8366  -13.2061 C   0  0  2  0  0  0  0  0  0  0  0  0
   22.9036  -21.2206  -12.2860 N   0  0  0  0  0  0  0  0  0  0  0  0
   20.7912  -21.8773  -13.1313 C   0  0  0  0  0  0  0  0  0  0  0  0
   19.4439  -21.4694  -13.1950 O   0  0  0  0  0  0  0  0  0  0  0  0
   21.0280  -23.1191  -13.0132 O   0  0  0  0  0  0  0  0  0  0  0  0
  2  3  1  0
  2  1  1  6
  4  3  1  0
  5  2  1  0
  6  5  2  0
  7  8  1  0
  9  8  1  0
  9 11  1  0
  9 10  1  1
 11 12  1  6
 12  5  1  0
 13 11  1  0
 13 14  2  0
 16 17  2  0
 16 15  1  0
 18 16  1  0
 19 18  1  0
 20 21  1  0
 20 19  1  0
 22 21  1  6
 22 23  1  0
 23 13  1  0
 24 22  1  0
 25 24  1  0
 26 24  2  0
M  END
$$$$
