CIR.pdb
     RDKit          3D

 26 25  0  0  1  0  0  0  0  0999 V2000
   18.2059  -23.4082   -6.0488 N   0  0  0  0  0  0  0  0  0  0  0  0
   18.8386  -23.9104   -7.2518 C   0  0  1  0  0  0  0  0  0  0  0  0
   17.9220  -24.8164   -8.0014 C   0  0  0  0  0  0  0  0  0  0  0  0
   18.9070  -25.6716   -9.2833 S   0  0  0  0  0  0  0  0  0  0  0  0
   19.4130  -22.8177   -8.0146 C   0  0  0  0  0  0  0  0  0  0  0  0
   18.7503  -21.7605   -8.1593 O   0  0  0  0  0  0  0  0  0  0  0  0
   24.5901  -21.3616   -7.6318 C   0  0  0  0  0  0  0  0  0  0  0  0
   23.0888  -21.3512   -7.7301 C   0  0  0  0  0  0  0  0  0  0  0  0
   22.7076  -21.5347   -9.1653 C   0  0  2  0  0  0  0  0  0  0  0  0
   23.1881  -20.3377   -9.9514 C   0  0  0  0  0  0  0  0  0  0  0  0
   21.2259  -21.7239   -9.3747 C   0  0  2  0  0  0  0  0  0  0  0  0
   20.7010  -22.8516   -8.6270 N   0  0  0  0  0  0  0  0  0  0  0  0
   20.9028  -21.8972  -10.8155 C   0  0  0  0  0  0  0  0  0  0  0  0
   20.9539  -23.0619  -11.3373 O   0  0  0  0  0  0  0  0  0  0  0  0
   18.0861  -24.3839  -16.8135 N   0  0  0  0  0  0  0  0  0  0  0  0
   18.1304  -25.1447  -15.6196 C   0  0  0  0  0  0  0  0  0  0  0  0
   18.5696  -26.3433  -15.6488 N   0  0  0  0  0  0  0  0  0  0  0  0
   17.6877  -24.5694  -14.4053 N   0  0  0  0  0  0  0  0  0  0  0  0
   17.2070  -23.2027  -14.3386 C   0  0  0  0  0  0  0  0  0  0  0  0
   18.4138  -22.2685  -14.3683 C   0  0  0  0  0  0  0  0  0  0  0  0
   18.9240  -21.9887  -12.9971 C   0  0  0  0  0  0  0  0  0  0  0  0
   20.1134  -21.0651  -13.0197 C   0  0  2  0  0  0  0  0  0  0  0  0
   20.5352  -20.8015  -11.6414 N   0  0  0  0  0  0  0  0  0  0  0  0
   19.8455  -19.7647  -13.6558 C   0  0  0  0  0  0  0  0  0  0  0  0
   20.0962  -19.6427  -15.0371 O   0  0  0  0  0  0  0  0  0  0  0  0
   19.4035  -18.7444  -13.0428 O   0  0  0  0  0  0  0  0  0  0  0  0
  2  3  1  0
  2  1  1  1
  4  3  1  0
  5  2  1  0
  6  5  2  0
  7  8  1  0
  9  8  1  0
  9 11  1  0
  9 10  1  6
 11 12  1  1
 12  5  1  0
 13 11  1  0
 13 14  2  0
 16 17  2  0
 16 15  1  0
 18 16  1  0
 19 18  1  0
 20 21  1  0
 20 19  1  0
 22 21  1  1
 22 23  1  0
 23 13  1  0
 24 22  1  0
 25 24  1  0
 26 24  2  0
M  END
$$$$
