CIR.pdb
     RDKit          3D

 26 25  0  0  1  0  0  0  0  0999 V2000
   28.9975  -19.8302  -14.9055 N   0  0  0  0  0  0  0  0  0  0  0  0
   27.8183  -19.1432  -14.4187 C   0  0  1  0  0  0  0  0  0  0  0  0
   27.0927  -18.4684  -15.5327 C   0  0  0  0  0  0  0  0  0  0  0  0
   28.0754  -17.0110  -16.0376 S   0  0  0  0  0  0  0  0  0  0  0  0
   27.0229  -20.0297  -13.5896 C   0  0  0  0  0  0  0  0  0  0  0  0
   27.0181  -21.2601  -13.8425 O   0  0  0  0  0  0  0  0  0  0  0  0
   26.7482  -21.2773   -9.3189 C   0  0  0  0  0  0  0  0  0  0  0  0
   26.1600  -19.9070   -9.5186 C   0  0  0  0  0  0  0  0  0  0  0  0
   24.9686  -20.0299  -10.4153 C   0  0  2  0  0  0  0  0  0  0  0  0
   23.9803  -20.9799   -9.7809 C   0  0  0  0  0  0  0  0  0  0  0  0
   25.3093  -20.4996  -11.8076 C   0  0  2  0  0  0  0  0  0  0  0  0
   26.2279  -19.6029  -12.4847 N   0  0  0  0  0  0  0  0  0  0  0  0
   24.0855  -20.6654  -12.6353 C   0  0  0  0  0  0  0  0  0  0  0  0
   23.4800  -19.6320  -13.0792 O   0  0  0  0  0  0  0  0  0  0  0  0
   21.7826  -27.7524  -15.6246 N   0  0  0  0  0  0  0  0  0  0  0  0
   21.2904  -27.2761  -14.3847 C   0  0  0  0  0  0  0  0  0  0  0  0
   21.3544  -28.0215  -13.3499 N   0  0  0  0  0  0  0  0  0  0  0  0
   20.7323  -25.9787  -14.3042 N   0  0  0  0  0  0  0  0  0  0  0  0
   20.7223  -25.0799  -15.4424 C   0  0  0  0  0  0  0  0  0  0  0  0
   20.8680  -23.6510  -14.9258 C   0  0  0  0  0  0  0  0  0  0  0  0
   22.1924  -23.4343  -14.2796 C   0  0  0  0  0  0  0  0  0  0  0  0
   22.3378  -22.0291  -13.7576 C   0  0  2  0  0  0  0  0  0  0  0  0
   23.5600  -21.9461  -12.9536 N   0  0  0  0  0  0  0  0  0  0  0  0
   21.2190  -21.5913  -12.9066 C   0  0  0  0  0  0  0  0  0  0  0  0
   20.1781  -20.8592  -13.5119 O   0  0  0  0  0  0  0  0  0  0  0  0
   21.1288  -21.8290  -11.6627 O   0  0  0  0  0  0  0  0  0  0  0  0
  2  3  1  0
  2  1  1  6
  4  3  1  0
  5  2  1  0
  6  5  2  0
  7  8  1  0
  9  8  1  0
  9 11  1  0
  9 10  1  1
 11 12  1  6
 12  5  1  0
 13 11  1  0
 13 14  2  0
 16 17  2  0
 16 15  1  0
 18 16  1  0
 19 18  1  0
 20 21  1  0
 20 19  1  0
 22 21  1  1
 22 23  1  0
 23 13  1  0
 24 22  1  0
 25 24  1  0
 26 24  2  0
M  END
$$$$
