CIR.pdb
     RDKit          3D

 26 25  0  0  1  0  0  0  0  0999 V2000
   24.8096  -20.0966  -16.1359 N   0  0  0  0  0  0  0  0  0  0  0  0
   23.3953  -19.9400  -16.4097 C   0  0  1  0  0  0  0  0  0  0  0  0
   22.9869  -20.7436  -17.5972 C   0  0  0  0  0  0  0  0  0  0  0  0
   23.9043  -20.1063  -19.0454 S   0  0  0  0  0  0  0  0  0  0  0  0
   22.6199  -20.1549  -15.2021 C   0  0  0  0  0  0  0  0  0  0  0  0
   23.2077  -20.5372  -14.1599 O   0  0  0  0  0  0  0  0  0  0  0  0
   19.6005  -16.4712  -13.1073 C   0  0  0  0  0  0  0  0  0  0  0  0
   20.5228  -17.6361  -13.3439 C   0  0  0  0  0  0  0  0  0  0  0  0
   19.6936  -18.8712  -13.5033 C   0  0  2  0  0  0  0  0  0  0  0  0
   18.9211  -19.1047  -12.2264 C   0  0  0  0  0  0  0  0  0  0  0  0
   20.5014  -20.0983  -13.8449 C   0  0  2  0  0  0  0  0  0  0  0  0
   21.2099  -19.9614  -15.1041 N   0  0  0  0  0  0  0  0  0  0  0  0
   19.6441  -21.3120  -13.8936 C   0  0  0  0  0  0  0  0  0  0  0  0
   18.8111  -21.4573  -14.8510 O   0  0  0  0  0  0  0  0  0  0  0  0
   20.7052  -28.7069   -9.8647 N   0  0  0  0  0  0  0  0  0  0  0  0
   21.1339  -28.1145  -11.0778 C   0  0  0  0  0  0  0  0  0  0  0  0
   22.2479  -28.4648  -11.5943 N   0  0  0  0  0  0  0  0  0  0  0  0
   20.3237  -27.1399  -11.7064 N   0  0  0  0  0  0  0  0  0  0  0  0
   18.9551  -26.9007  -11.2898 C   0  0  0  0  0  0  0  0  0  0  0  0
   18.3952  -25.7502  -12.1221 C   0  0  0  0  0  0  0  0  0  0  0  0
   19.3390  -24.5989  -12.1705 C   0  0  0  0  0  0  0  0  0  0  0  0
   18.7803  -23.4497  -12.9676 C   0  0  2  0  0  0  0  0  0  0  0  0
   19.7192  -22.3267  -12.9025 N   0  0  0  0  0  0  0  0  0  0  0  0
   17.4780  -22.9651  -12.4813 C   0  0  0  0  0  0  0  0  0  0  0  0
   16.3145  -23.5546  -13.0147 O   0  0  0  0  0  0  0  0  0  0  0  0
   17.3323  -22.0506  -11.6126 O   0  0  0  0  0  0  0  0  0  0  0  0
  2  3  1  0
  2  1  1  1
  4  3  1  0
  5  2  1  0
  6  5  2  0
  7  8  1  0
  9  8  1  0
  9 11  1  0
  9 10  1  1
 11 12  1  6
 12  5  1  0
 13 11  1  0
 13 14  2  0
 16 17  2  0
 16 15  1  0
 18 16  1  0
 19 18  1  0
 20 21  1  0
 20 19  1  0
 22 21  1  1
 22 23  1  0
 23 13  1  0
 24 22  1  0
 25 24  1  0
 26 24  2  0
M  END
$$$$
