MNI.pdb
     RDKit          3D

 25 24  0  0  1  0  0  0  0  0999 V2000
   29.8287  -22.3522  -11.4689 C   0  0  0  0  0  0  0  0  0  0  0  0
   30.5440  -20.6920  -11.6179 S   0  0  0  0  0  0  0  0  0  0  0  0
   30.5913  -20.2018  -13.3636 C   0  0  0  0  0  0  0  0  0  0  0  0
   29.2010  -19.7272  -13.7535 C   0  0  0  0  0  0  0  0  0  0  0  0
   28.8372  -20.4432  -15.0619 C   0  0  2  0  0  0  0  0  0  0  0  0
   29.6467  -19.8849  -16.1189 N   0  0  0  0  0  0  0  0  0  0  0  0
   27.4127  -20.1473  -15.3415 C   0  0  0  0  0  0  0  0  0  0  0  0
   27.0283  -19.0090  -15.7475 O   0  0  0  0  0  0  0  0  0  0  0  0
   21.6671  -21.3909  -16.5426 N   0  0  0  0  0  0  0  0  0  0  0  0
   22.7891  -20.5557  -16.2828 C   0  0  0  0  0  0  0  0  0  0  0  0
   22.5739  -19.3621  -15.9956 O   0  0  0  0  0  0  0  0  0  0  0  0
   24.1492  -21.1480  -16.3654 C   0  0  0  0  0  0  0  0  0  0  0  0
   24.9900  -20.7375  -15.2369 C   0  0  2  0  0  0  0  0  0  0  0  0
   26.3562  -21.0860  -15.1862 N   0  0  0  0  0  0  0  0  0  0  0  0
   24.2988  -21.2159  -13.9773 C   0  0  0  0  0  0  0  0  0  0  0  0
   24.2739  -22.4374  -13.6666 O   0  0  0  0  0  0  0  0  0  0  0  0
   25.7318  -20.0608   -9.2470 C   0  0  0  0  0  0  0  0  0  0  0  0
   25.0800  -20.7143  -10.4627 C   0  0  0  0  0  0  0  0  0  0  0  0
   23.6389  -20.3132  -10.6055 C   0  0  2  0  0  0  0  0  0  0  0  0
   22.8015  -20.8140   -9.4352 C   0  0  0  0  0  0  0  0  0  0  0  0
   23.0500  -20.8022  -11.8405 C   0  0  2  0  0  0  0  0  0  0  0  0
   23.6443  -20.3644  -13.0734 N   0  0  0  0  0  0  0  0  0  0  0  0
   21.6086  -20.5028  -11.9451 C   0  0  0  0  0  0  0  0  0  0  0  0
   20.6445  -21.3041  -11.2796 O   0  0  0  0  0  0  0  0  0  0  0  0
   21.0952  -19.5612  -12.5958 O   0  0  0  0  0  0  0  0  0  0  0  0
  2  1  1  0
  3  2  1  0
  4  3  1  0
  5  4  1  0
  5  6  1  6
  7  5  1  0
  8  7  2  0
 10  9  1  0
 11 10  2  0
 13 12  1  6
 12 10  1  0
 13 14  1  0
 14  7  1  0
 15 13  1  0
 15 16  2  0
 17 18  1  0
 18 19  1  0
 19 21  1  0
 19 20  1  1
 21 22  1  6
 22 15  1  0
 23 21  1  0
 24 23  1  0
 25 23  2  0
M  END
$$$$
