MNI.pdb
     RDKit          3D

 25 24  0  0  1  0  0  0  0  0999 V2000
   19.5416  -19.1751  -17.1111 C   0  0  0  0  0  0  0  0  0  0  0  0
   20.2584  -20.8168  -16.8260 S   0  0  0  0  0  0  0  0  0  0  0  0
   21.9205  -20.6433  -16.1209 C   0  0  0  0  0  0  0  0  0  0  0  0
   22.3396  -19.1893  -16.2644 C   0  0  0  0  0  0  0  0  0  0  0  0
   23.7603  -19.0774  -15.6935 C   0  0  2  0  0  0  0  0  0  0  0  0
   24.5095  -20.2337  -16.1249 N   0  0  0  0  0  0  0  0  0  0  0  0
   23.6423  -19.1059  -14.2170 C   0  0  0  0  0  0  0  0  0  0  0  0
   23.2687  -18.0931  -13.5514 O   0  0  0  0  0  0  0  0  0  0  0  0
   21.2453  -20.0930  -11.6309 N   0  0  0  0  0  0  0  0  0  0  0  0
   21.9051  -21.2147  -11.0562 C   0  0  0  0  0  0  0  0  0  0  0  0
   21.2132  -22.0404  -10.4294 O   0  0  0  0  0  0  0  0  0  0  0  0
   23.3746  -21.3421  -11.2346 C   0  0  0  0  0  0  0  0  0  0  0  0
   23.9274  -20.2231  -12.0035 C   0  0  2  0  0  0  0  0  0  0  0  0
   23.9295  -20.2436  -13.4143 N   0  0  0  0  0  0  0  0  0  0  0  0
   25.3372  -19.9974  -11.4988 C   0  0  0  0  0  0  0  0  0  0  0  0
   26.2429  -19.5581  -12.2578 O   0  0  0  0  0  0  0  0  0  0  0  0
   27.0167  -19.3031   -6.1067 C   0  0  0  0  0  0  0  0  0  0  0  0
   26.8243  -19.1943   -7.6171 C   0  0  0  0  0  0  0  0  0  0  0  0
   27.3821  -20.3895   -8.3374 C   0  0  2  0  0  0  0  0  0  0  0  0
   28.8852  -20.5184   -8.1241 C   0  0  0  0  0  0  0  0  0  0  0  0
   27.1179  -20.3454   -9.7655 C   0  0  2  0  0  0  0  0  0  0  0  0
   25.7452  -20.2516  -10.1800 N   0  0  0  0  0  0  0  0  0  0  0  0
   27.6924  -21.4961  -10.4895 C   0  0  0  0  0  0  0  0  0  0  0  0
   29.0200  -21.4570  -10.9901 O   0  0  0  0  0  0  0  0  0  0  0  0
   27.1104  -22.5801  -10.7340 O   0  0  0  0  0  0  0  0  0  0  0  0
  2  1  1  0
  3  2  1  0
  4  3  1  0
  5  4  1  0
  5  6  1  6
  7  5  1  0
  8  7  2  0
 10  9  1  0
 11 10  2  0
 13 12  1  1
 12 10  1  0
 13 14  1  0
 14  7  1  0
 15 13  1  0
 15 16  2  0
 17 18  1  0
 18 19  1  0
 19 21  1  0
 19 20  1  6
 21 22  1  1
 22 15  1  0
 23 21  1  0
 24 23  1  0
 25 23  2  0
M  END
$$$$
