MNI.pdb
     RDKit          3D

 25 24  0  0  1  0  0  0  0  0999 V2000
   25.2705  -17.5512  -16.4307 C   0  0  0  0  0  0  0  0  0  0  0  0
   26.6110  -18.5895  -17.0753 S   0  0  0  0  0  0  0  0  0  0  0  0
   27.0846  -19.8189  -15.8286 C   0  0  0  0  0  0  0  0  0  0  0  0
   26.7425  -19.2524  -14.4603 C   0  0  0  0  0  0  0  0  0  0  0  0
   27.3658  -20.1943  -13.4204 C   0  0  2  0  0  0  0  0  0  0  0  0
   26.9607  -21.5433  -13.7372 N   0  0  0  0  0  0  0  0  0  0  0  0
   26.8046  -19.8223  -12.1008 C   0  0  0  0  0  0  0  0  0  0  0  0
   26.8790  -18.6409  -11.6458 O   0  0  0  0  0  0  0  0  0  0  0  0
   22.7800  -21.1954  -11.7737 N   0  0  0  0  0  0  0  0  0  0  0  0
   23.1795  -20.2909  -10.7508 C   0  0  0  0  0  0  0  0  0  0  0  0
   22.6968  -19.1419  -10.7670 O   0  0  0  0  0  0  0  0  0  0  0  0
   24.1433  -20.7623   -9.7231 C   0  0  0  0  0  0  0  0  0  0  0  0
   25.5133  -20.3394  -10.0285 C   0  0  2  0  0  0  0  0  0  0  0  0
   26.1418  -20.7299  -11.2298 N   0  0  0  0  0  0  0  0  0  0  0  0
   26.3726  -20.7503   -8.8512 C   0  0  0  0  0  0  0  0  0  0  0  0
   27.0592  -21.8072   -8.8779 O   0  0  0  0  0  0  0  0  0  0  0  0
   29.3807  -17.5359   -5.6680 C   0  0  0  0  0  0  0  0  0  0  0  0
   28.9031  -18.7822   -6.4086 C   0  0  0  0  0  0  0  0  0  0  0  0
   27.8161  -19.4959   -5.6552 C   0  0  2  0  0  0  0  0  0  0  0  0
   28.3609  -20.1892   -4.4126 C   0  0  0  0  0  0  0  0  0  0  0  0
   27.1328  -20.4818   -6.4750 C   0  0  2  0  0  0  0  0  0  0  0  0
   26.4749  -20.0107   -7.6625 N   0  0  0  0  0  0  0  0  0  0  0  0
   26.1259  -21.2541   -5.7213 C   0  0  0  0  0  0  0  0  0  0  0  0
   26.5124  -22.3042   -4.8481 O   0  0  0  0  0  0  0  0  0  0  0  0
   24.8837  -21.0845   -5.7607 O   0  0  0  0  0  0  0  0  0  0  0  0
  2  1  1  0
  3  2  1  0
  4  3  1  0
  5  4  1  0
  5  6  1  6
  7  5  1  0
  8  7  2  0
 10  9  1  0
 11 10  2  0
 13 12  1  1
 12 10  1  0
 13 14  1  0
 14  7  1  0
 15 13  1  0
 15 16  2  0
 17 18  1  0
 18 19  1  0
 19 21  1  0
 19 20  1  1
 21 22  1  6
 22 15  1  0
 23 21  1  0
 24 23  1  0
 25 23  2  0
M  END
$$$$
