MNI.pdb
     RDKit          3D

 25 24  0  0  1  0  0  0  0  0999 V2000
   32.0910  -21.5015   -9.9704 C   0  0  0  0  0  0  0  0  0  0  0  0
   32.5557  -22.2636  -11.5494 S   0  0  0  0  0  0  0  0  0  0  0  0
   31.1784  -22.1278  -12.7218 C   0  0  0  0  0  0  0  0  0  0  0  0
   30.1147  -21.2430  -12.0926 C   0  0  0  0  0  0  0  0  0  0  0  0
   29.0179  -21.0464  -13.1486 C   0  0  2  0  0  0  0  0  0  0  0  0
   29.5007  -20.0999  -14.1262 N   0  0  0  0  0  0  0  0  0  0  0  0
   27.8437  -20.4649  -12.4573 C   0  0  0  0  0  0  0  0  0  0  0  0
   27.6425  -19.2137  -12.4079 O   0  0  0  0  0  0  0  0  0  0  0  0
   23.9333  -21.4044  -13.5503 N   0  0  0  0  0  0  0  0  0  0  0  0
   24.0390  -20.4347  -12.5148 C   0  0  0  0  0  0  0  0  0  0  0  0
   23.7783  -19.2491  -12.7970 O   0  0  0  0  0  0  0  0  0  0  0  0
   24.4502  -20.8850  -11.1599 C   0  0  0  0  0  0  0  0  0  0  0  0
   25.8821  -20.6733  -10.9283 C   0  0  2  0  0  0  0  0  0  0  0  0
   26.8468  -21.2312  -11.7937 N   0  0  0  0  0  0  0  0  0  0  0  0
   26.1662  -21.1090   -9.5061 C   0  0  0  0  0  0  0  0  0  0  0  0
   26.3001  -22.3264   -9.2076 O   0  0  0  0  0  0  0  0  0  0  0  0
   29.1421  -20.0853   -4.3535 C   0  0  0  0  0  0  0  0  0  0  0  0
   27.8764  -20.6242   -5.0149 C   0  0  0  0  0  0  0  0  0  0  0  0
   27.6673  -20.0347   -6.3814 C   0  0  2  0  0  0  0  0  0  0  0  0
   27.4591  -18.5269   -6.3128 C   0  0  0  0  0  0  0  0  0  0  0  0
   26.5348  -20.6288   -7.0709 C   0  0  2  0  0  0  0  0  0  0  0  0
   26.3003  -20.2197   -8.4283 N   0  0  0  0  0  0  0  0  0  0  0  0
   25.2606  -20.4334   -6.3524 C   0  0  0  0  0  0  0  0  0  0  0  0
   24.2109  -19.6648   -6.9198 O   0  0  0  0  0  0  0  0  0  0  0  0
   24.9714  -20.8954   -5.2226 O   0  0  0  0  0  0  0  0  0  0  0  0
  2  1  1  0
  3  2  1  0
  4  3  1  0
  5  4  1  0
  5  6  1  6
  7  5  1  0
  8  7  2  0
 10  9  1  0
 11 10  2  0
 13 12  1  6
 12 10  1  0
 13 14  1  0
 14  7  1  0
 15 13  1  0
 15 16  2  0
 17 18  1  0
 18 19  1  0
 19 21  1  0
 19 20  1  1
 21 22  1  6
 22 15  1  0
 23 21  1  0
 24 23  1  0
 25 23  2  0
M  END
$$$$
