MNI.pdb
     RDKit          3D

 25 24  0  0  1  0  0  0  0  0999 V2000
   22.4062  -26.1514  -17.6779 C   0  0  0  0  0  0  0  0  0  0  0  0
   22.8450  -27.8670  -18.0708 S   0  0  0  0  0  0  0  0  0  0  0  0
   21.7836  -28.9992  -17.1318 C   0  0  0  0  0  0  0  0  0  0  0  0
   22.0859  -28.8062  -15.6548 C   0  0  0  0  0  0  0  0  0  0  0  0
   21.1957  -29.7928  -14.8859 C   0  0  2  0  0  0  0  0  0  0  0  0
   19.8426  -29.2899  -14.9113 N   0  0  0  0  0  0  0  0  0  0  0  0
   21.6737  -29.8127  -13.4838 C   0  0  0  0  0  0  0  0  0  0  0  0
   22.8837  -30.0509  -13.1880 O   0  0  0  0  0  0  0  0  0  0  0  0
   20.8564  -26.9091  -11.1449 N   0  0  0  0  0  0  0  0  0  0  0  0
   20.2395  -27.6058  -10.0688 C   0  0  0  0  0  0  0  0  0  0  0  0
   19.5116  -26.9554   -9.2939 O   0  0  0  0  0  0  0  0  0  0  0  0
   20.4928  -29.0630   -9.9286 C   0  0  0  0  0  0  0  0  0  0  0  0
   21.3185  -29.5789  -11.0245 C   0  0  2  0  0  0  0  0  0  0  0  0
   20.8450  -29.5735  -12.3536 N   0  0  0  0  0  0  0  0  0  0  0  0
   21.7305  -30.9844  -10.6400 C   0  0  0  0  0  0  0  0  0  0  0  0
   21.2288  -31.9929  -11.2063 O   0  0  0  0  0  0  0  0  0  0  0  0
   26.8033  -32.1058   -8.6563 C   0  0  0  0  0  0  0  0  0  0  0  0
   25.4937  -32.1336   -9.4401 C   0  0  0  0  0  0  0  0  0  0  0  0
   24.3813  -32.7568   -8.6447 C   0  0  2  0  0  0  0  0  0  0  0  0
   24.6339  -34.2390   -8.3982 C   0  0  0  0  0  0  0  0  0  0  0  0
   23.0894  -32.6075   -9.2927 C   0  0  2  0  0  0  0  0  0  0  0  0
   22.6792  -31.2768   -9.6476 N   0  0  0  0  0  0  0  0  0  0  0  0
   21.9838  -33.1865   -8.5049 C   0  0  0  0  0  0  0  0  0  0  0  0
   21.5810  -34.5349   -8.6903 O   0  0  0  0  0  0  0  0  0  0  0  0
   21.3091  -32.5914   -7.6308 O   0  0  0  0  0  0  0  0  0  0  0  0
  2  1  1  0
  3  2  1  0
  4  3  1  0
  5  4  1  0
  5  6  1  1
  7  5  1  0
  8  7  2  0
 10  9  1  0
 11 10  2  0
 13 12  1  1
 12 10  1  0
 13 14  1  0
 14  7  1  0
 15 13  1  0
 15 16  2  0
 17 18  1  0
 18 19  1  0
 19 21  1  0
 19 20  1  6
 21 22  1  1
 22 15  1  0
 23 21  1  0
 24 23  1  0
 25 23  2  0
M  END
$$$$
