MNI.pdb
     RDKit          3D

 25 24  0  0  1  0  0  0  0  0999 V2000
   21.5186  -16.5064  -15.4493 C   0  0  0  0  0  0  0  0  0  0  0  0
   20.0025  -17.2991  -16.0519 S   0  0  0  0  0  0  0  0  0  0  0  0
   19.3194  -16.3409  -17.4322 C   0  0  0  0  0  0  0  0  0  0  0  0
   19.6081  -14.8719  -17.1692 C   0  0  0  0  0  0  0  0  0  0  0  0
   18.9951  -14.0825  -18.3345 C   0  0  2  0  0  0  0  0  0  0  0  0
   19.7885  -14.3352  -19.5140 N   0  0  0  0  0  0  0  0  0  0  0  0
   19.0934  -12.6452  -17.9893 C   0  0  0  0  0  0  0  0  0  0  0  0
   20.0484  -11.9178  -18.3984 O   0  0  0  0  0  0  0  0  0  0  0  0
   16.9054   -7.3353  -17.1307 N   0  0  0  0  0  0  0  0  0  0  0  0
   17.3252   -8.3876  -16.2703 C   0  0  0  0  0  0  0  0  0  0  0  0
   17.9403   -8.0809  -15.2306 O   0  0  0  0  0  0  0  0  0  0  0  0
   17.0079   -9.7875  -16.6540 C   0  0  0  0  0  0  0  0  0  0  0  0
   18.2212  -10.5669  -16.9172 C   0  0  2  0  0  0  0  0  0  0  0  0
   18.1506  -11.9508  -17.1828 N   0  0  0  0  0  0  0  0  0  0  0  0
   19.1612  -10.3221  -15.7554 C   0  0  0  0  0  0  0  0  0  0  0  0
   19.0043  -10.9080  -14.6503 O   0  0  0  0  0  0  0  0  0  0  0  0
   24.7403  -10.7392  -14.0946 C   0  0  0  0  0  0  0  0  0  0  0  0
   23.4380   -9.9851  -13.8389 C   0  0  0  0  0  0  0  0  0  0  0  0
   22.5305  -10.0183  -15.0362 C   0  0  2  0  0  0  0  0  0  0  0  0
   23.1865   -9.3752  -16.2518 C   0  0  0  0  0  0  0  0  0  0  0  0
   21.2632   -9.3531  -14.7863 C   0  0  2  0  0  0  0  0  0  0  0  0
   20.2566   -9.4459  -15.8077 N   0  0  0  0  0  0  0  0  0  0  0  0
   21.4202   -7.9163  -14.4875 C   0  0  0  0  0  0  0  0  0  0  0  0
   20.8634   -6.9267  -15.3391 O   0  0  0  0  0  0  0  0  0  0  0  0
   22.0280   -7.4285  -13.5047 O   0  0  0  0  0  0  0  0  0  0  0  0
  2  1  1  0
  3  2  1  0
  4  3  1  0
  5  4  1  0
  5  6  1  6
  7  5  1  0
  8  7  2  0
 10  9  1  0
 11 10  2  0
 13 12  1  1
 12 10  1  0
 13 14  1  0
 14  7  1  0
 15 13  1  0
 15 16  2  0
 17 18  1  0
 18 19  1  0
 19 21  1  0
 19 20  1  6
 21 22  1  6
 22 15  1  0
 23 21  1  0
 24 23  1  0
 25 23  2  0
M  END
$$$$
