MNI.pdb
     RDKit          3D

 25 24  0  0  1  0  0  0  0  0999 V2000
   28.5548  -14.9943  -18.1340 C   0  0  0  0  0  0  0  0  0  0  0  0
   29.5626  -16.4511  -17.7438 S   0  0  0  0  0  0  0  0  0  0  0  0
   28.6475  -17.5441  -16.6223 C   0  0  0  0  0  0  0  0  0  0  0  0
   27.3096  -16.8892  -16.3200 C   0  0  0  0  0  0  0  0  0  0  0  0
   26.5068  -17.8873  -15.4738 C   0  0  2  0  0  0  0  0  0  0  0  0
   27.4386  -18.7914  -14.8422 N   0  0  0  0  0  0  0  0  0  0  0  0
   25.6469  -18.6568  -16.4029 C   0  0  0  0  0  0  0  0  0  0  0  0
   25.4243  -18.2712  -17.5904 O   0  0  0  0  0  0  0  0  0  0  0  0
   27.1328  -22.5630  -17.2578 N   0  0  0  0  0  0  0  0  0  0  0  0
   27.8693  -21.7647  -16.3390 C   0  0  0  0  0  0  0  0  0  0  0  0
   29.1123  -21.7661  -16.4310 O   0  0  0  0  0  0  0  0  0  0  0  0
   27.1217  -20.9753  -15.3265 C   0  0  0  0  0  0  0  0  0  0  0  0
   25.6765  -21.0093  -15.5698 C   0  0  2  0  0  0  0  0  0  0  0  0
   24.9980  -19.8763  -16.0665 N   0  0  0  0  0  0  0  0  0  0  0  0
   25.0247  -21.4646  -14.2810 C   0  0  0  0  0  0  0  0  0  0  0  0
   25.0867  -22.6659  -13.9036 O   0  0  0  0  0  0  0  0  0  0  0  0
   26.5640  -20.7677   -9.6556 C   0  0  0  0  0  0  0  0  0  0  0  0
   25.8135  -21.2306  -10.9015 C   0  0  0  0  0  0  0  0  0  0  0  0
   24.4213  -20.6674  -10.9550 C   0  0  2  0  0  0  0  0  0  0  0  0
   23.5870  -21.1276   -9.7661 C   0  0  0  0  0  0  0  0  0  0  0  0
   23.7262  -21.0304  -12.1782 C   0  0  2  0  0  0  0  0  0  0  0  0
   24.3150  -20.6123  -13.4206 N   0  0  0  0  0  0  0  0  0  0  0  0
   22.3275  -20.5601  -12.2027 C   0  0  0  0  0  0  0  0  0  0  0  0
   21.3014  -21.2805  -11.5372 O   0  0  0  0  0  0  0  0  0  0  0  0
   21.9047  -19.5299  -12.7801 O   0  0  0  0  0  0  0  0  0  0  0  0
  2  1  1  0
  3  2  1  0
  4  3  1  0
  5  4  1  0
  5  6  1  6
  7  5  1  0
  8  7  2  0
 10  9  1  0
 11 10  2  0
 13 12  1  1
 12 10  1  0
 13 14  1  0
 14  7  1  0
 15 13  1  0
 15 16  2  0
 17 18  1  0
 18 19  1  0
 19 21  1  0
 19 20  1  1
 21 22  1  6
 22 15  1  0
 23 21  1  0
 24 23  1  0
 25 23  2  0
M  END
$$$$
