MNI.pdb
     RDKit          3D

 25 24  0  0  1  0  0  0  0  0999 V2000
   28.5941  -17.5809  -15.0032 C   0  0  0  0  0  0  0  0  0  0  0  0
   29.2568  -17.1421  -16.6337 S   0  0  0  0  0  0  0  0  0  0  0  0
   28.5947  -18.2740  -17.8868 C   0  0  0  0  0  0  0  0  0  0  0  0
   27.1276  -18.5147  -17.5705 C   0  0  0  0  0  0  0  0  0  0  0  0
   26.5845  -19.4478  -18.6619 C   0  0  2  0  0  0  0  0  0  0  0  0
   26.0579  -18.6307  -19.7294 N   0  0  0  0  0  0  0  0  0  0  0  0
   25.4755  -20.2252  -18.0613 C   0  0  0  0  0  0  0  0  0  0  0  0
   24.2813  -19.7985  -18.0524 O   0  0  0  0  0  0  0  0  0  0  0  0
   24.2360  -22.5145  -19.5043 N   0  0  0  0  0  0  0  0  0  0  0  0
   24.0739  -23.6838  -18.7104 C   0  0  0  0  0  0  0  0  0  0  0  0
   23.7941  -24.7499  -19.2923 O   0  0  0  0  0  0  0  0  0  0  0  0
   24.2479  -23.5726  -17.2391 C   0  0  0  0  0  0  0  0  0  0  0  0
   24.5764  -22.2029  -16.8328 C   0  0  2  0  0  0  0  0  0  0  0  0
   25.6327  -21.4979  -17.4475 N   0  0  0  0  0  0  0  0  0  0  0  0
   24.7901  -22.2286  -15.3339 C   0  0  0  0  0  0  0  0  0  0  0  0
   25.4844  -23.1269  -14.7859 O   0  0  0  0  0  0  0  0  0  0  0  0
   27.7677  -19.8925  -12.2720 C   0  0  0  0  0  0  0  0  0  0  0  0
   26.7372  -20.8554  -12.8558 C   0  0  0  0  0  0  0  0  0  0  0  0
   25.3495  -20.5506  -12.3661 C   0  0  2  0  0  0  0  0  0  0  0  0
   25.2337  -20.7467  -10.8596 C   0  0  0  0  0  0  0  0  0  0  0  0
   24.3421  -21.3687  -13.0196 C   0  0  2  0  0  0  0  0  0  0  0  0
   24.2482  -21.2815  -14.4508 N   0  0  0  0  0  0  0  0  0  0  0  0
   22.9824  -21.1266  -12.4989 C   0  0  0  0  0  0  0  0  0  0  0  0
   22.4762  -21.8700  -11.4008 O   0  0  0  0  0  0  0  0  0  0  0  0
   22.1620  -20.2859  -12.9387 O   0  0  0  0  0  0  0  0  0  0  0  0
  2  1  1  0
  3  2  1  0
  4  3  1  0
  5  4  1  0
  5  6  1  6
  7  5  1  0
  8  7  2  0
 10  9  1  0
 11 10  2  0
 13 12  1  6
 12 10  1  0
 13 14  1  0
 14  7  1  0
 15 13  1  0
 15 16  2  0
 17 18  1  0
 18 19  1  0
 19 21  1  0
 19 20  1  1
 21 22  1  6
 22 15  1  0
 23 21  1  0
 24 23  1  0
 25 23  2  0
M  END
$$$$
