MNI.pdb
     RDKit          3D

 25 24  0  0  1  0  0  0  0  0999 V2000
   27.5336  -15.1629  -15.2406 C   0  0  0  0  0  0  0  0  0  0  0  0
   28.0168  -15.6553  -16.9182 S   0  0  0  0  0  0  0  0  0  0  0  0
   28.5358  -17.3933  -16.9188 C   0  0  0  0  0  0  0  0  0  0  0  0
   27.9827  -18.0466  -15.6628 C   0  0  0  0  0  0  0  0  0  0  0  0
   28.3082  -19.5438  -15.7598 C   0  0  2  0  0  0  0  0  0  0  0  0
   27.8491  -20.0204  -17.0430 N   0  0  0  0  0  0  0  0  0  0  0  0
   27.5427  -20.2283  -14.6921 C   0  0  0  0  0  0  0  0  0  0  0  0
   28.0925  -21.0289  -13.8765 O   0  0  0  0  0  0  0  0  0  0  0  0
   25.4285  -21.8981  -10.3383 N   0  0  0  0  0  0  0  0  0  0  0  0
   25.0739  -20.6442  -10.9091 C   0  0  0  0  0  0  0  0  0  0  0  0
   24.0545  -20.0731  -10.4753 O   0  0  0  0  0  0  0  0  0  0  0  0
   25.9337  -20.0849  -11.9839 C   0  0  0  0  0  0  0  0  0  0  0  0
   25.4794  -20.5001  -13.3144 C   0  0  2  0  0  0  0  0  0  0  0  0
   26.1470  -20.0626  -14.4778 N   0  0  0  0  0  0  0  0  0  0  0  0
   24.0111  -20.1418  -13.4087 C   0  0  0  0  0  0  0  0  0  0  0  0
   23.6310  -18.9408  -13.4570 O   0  0  0  0  0  0  0  0  0  0  0  0
   21.5471  -22.2136  -17.3774 C   0  0  0  0  0  0  0  0  0  0  0  0
   21.9815  -21.3112  -16.2256 C   0  0  0  0  0  0  0  0  0  0  0  0
   21.1116  -21.4958  -15.0142 C   0  0  2  0  0  0  0  0  0  0  0  0
   19.6864  -21.0235  -15.2733 C   0  0  0  0  0  0  0  0  0  0  0  0
   21.6290  -20.7945  -13.8516 C   0  0  2  0  0  0  0  0  0  0  0  0
   22.9764  -21.0896  -13.4487 N   0  0  0  0  0  0  0  0  0  0  0  0
   20.7879  -20.9760  -12.6525 C   0  0  0  0  0  0  0  0  0  0  0  0
   19.8276  -20.0003  -12.2777 O   0  0  0  0  0  0  0  0  0  0  0  0
   20.8200  -21.9552  -11.8693 O   0  0  0  0  0  0  0  0  0  0  0  0
  2  1  1  0
  3  2  1  0
  4  3  1  0
  5  4  1  0
  5  6  1  6
  7  5  1  0
  8  7  2  0
 10  9  1  0
 11 10  2  0
 13 12  1  1
 12 10  1  0
 13 14  1  0
 14  7  1  0
 15 13  1  0
 15 16  2  0
 17 18  1  0
 18 19  1  0
 19 21  1  0
 19 20  1  6
 21 22  1  1
 22 15  1  0
 23 21  1  0
 24 23  1  0
 25 23  2  0
M  END
$$$$
