MNI.pdb
     RDKit          3D

 25 24  0  0  1  0  0  0  0  0999 V2000
   22.0944  -13.6304  -19.3853 C   0  0  0  0  0  0  0  0  0  0  0  0
   23.6575  -14.1016  -20.1759 S   0  0  0  0  0  0  0  0  0  0  0  0
   23.9428  -15.8790  -19.9535 C   0  0  0  0  0  0  0  0  0  0  0  0
   23.4906  -16.2530  -18.5514 C   0  0  0  0  0  0  0  0  0  0  0  0
   24.7133  -16.8388  -17.8310 C   0  0  2  0  0  0  0  0  0  0  0  0
   25.5036  -17.5584  -18.8016 N   0  0  0  0  0  0  0  0  0  0  0  0
   24.2083  -17.7958  -16.8192 C   0  0  0  0  0  0  0  0  0  0  0  0
   23.4214  -17.4411  -15.8901 O   0  0  0  0  0  0  0  0  0  0  0  0
   23.0308  -22.1410  -18.4615 N   0  0  0  0  0  0  0  0  0  0  0  0
   22.6967  -21.5364  -17.2178 C   0  0  0  0  0  0  0  0  0  0  0  0
   21.5388  -21.0982  -17.0746 O   0  0  0  0  0  0  0  0  0  0  0  0
   23.7394  -21.4620  -16.1620 C   0  0  0  0  0  0  0  0  0  0  0  0
   24.0611  -20.0751  -15.8130 C   0  0  2  0  0  0  0  0  0  0  0  0
   24.5465  -19.1764  -16.7863 N   0  0  0  0  0  0  0  0  0  0  0  0
   25.0263  -20.1281  -14.6473 C   0  0  0  0  0  0  0  0  0  0  0  0
   26.2451  -19.8398  -14.7915 O   0  0  0  0  0  0  0  0  0  0  0  0
   25.6294  -19.8536   -8.5092 C   0  0  0  0  0  0  0  0  0  0  0  0
   26.1341  -20.3444   -9.8636 C   0  0  0  0  0  0  0  0  0  0  0  0
   25.0707  -20.2520  -10.9215 C   0  0  2  0  0  0  0  0  0  0  0  0
   23.8904  -21.1630  -10.6074 C   0  0  0  0  0  0  0  0  0  0  0  0
   25.5762  -20.5858  -12.2422 C   0  0  2  0  0  0  0  0  0  0  0  0
   24.6573  -20.4931  -13.3431 N   0  0  0  0  0  0  0  0  0  0  0  0
   26.1643  -21.9380  -12.3050 C   0  0  0  0  0  0  0  0  0  0  0  0
   25.4540  -23.0184  -12.8905 O   0  0  0  0  0  0  0  0  0  0  0  0
   27.2937  -22.2729  -11.8740 O   0  0  0  0  0  0  0  0  0  0  0  0
  2  1  1  0
  3  2  1  0
  4  3  1  0
  5  4  1  0
  5  6  1  6
  7  5  1  0
  8  7  2  0
 10  9  1  0
 11 10  2  0
 13 12  1  6
 12 10  1  0
 13 14  1  0
 14  7  1  0
 15 13  1  0
 15 16  2  0
 17 18  1  0
 18 19  1  0
 19 21  1  0
 19 20  1  1
 21 22  1  6
 22 15  1  0
 23 21  1  0
 24 23  1  0
 25 23  2  0
M  END
$$$$
