HLF.pdb
     RDKit          3D

 30 31  0  0  1  0  0  0  0  0999 V2000
   18.0397  -11.1317  -18.4696 N   0  0  0  0  0  0  0  0  0  0  0  0
   18.7173  -10.5055  -17.3738 C   0  0  1  0  0  0  0  0  0  0  0  0
   20.0068  -11.2344  -17.0157 C   0  0  0  0  0  0  0  0  0  0  0  0
   19.6377  -12.5767  -16.5205 C   0  0  0  0  0  0  0  0  0  0  0  0
   19.4040  -12.9241  -15.2192 C   0  0  0  0  0  0  0  0  0  0  0  0
   19.0970  -14.2434  -15.2044 N   0  0  0  0  0  0  0  0  0  0  0  0
   19.1385  -14.7048  -16.4627 C   0  0  0  0  0  0  0  0  0  0  0  0
   19.4737  -13.6671  -17.2715 N   0  0  0  0  0  0  0  0  0  0  0  0
   19.0130   -9.1045  -17.7269 C   0  0  0  0  0  0  0  0  0  0  0  0
   19.1456   -8.7846  -18.9237 O   0  0  0  0  0  0  0  0  0  0  0  0
   16.6323   -4.2442  -18.4084 C   0  0  0  0  0  0  0  0  0  0  0  0
   18.0290   -4.7590  -18.0119 C   0  0  2  0  0  0  0  0  0  0  0  0
   18.9042   -4.4513  -19.2124 C   0  0  0  0  0  0  0  0  0  0  0  0
   17.9333   -6.2179  -17.6800 C   0  0  0  0  0  0  0  0  0  0  0  0
   19.1512   -6.7458  -17.0397 C   0  0  2  0  0  0  0  0  0  0  0  0
   19.1452   -8.1346  -16.7188 N   0  0  0  0  0  0  0  0  0  0  0  0
   19.4808   -6.0023  -15.7601 C   0  0  0  0  0  0  0  0  0  0  0  0
   18.7613   -6.1021  -14.7407 O   0  0  0  0  0  0  0  0  0  0  0  0
   20.6232   -5.1679  -15.6834 N   0  0  0  0  0  0  0  0  0  0  0  0
   21.0767   -4.5064  -14.4610 C   0  0  1  0  0  0  0  0  0  0  0  0
   22.3114   -5.1700  -13.9626 C   0  0  0  0  0  0  0  0  0  0  0  0
   22.2572   -6.6099  -13.7693 C   0  0  0  0  0  0  0  0  0  0  0  0
   22.8968   -7.4682  -14.6514 C   0  0  0  0  0  0  0  0  0  0  0  0
   22.8236   -8.8495  -14.4355 C   0  0  0  0  0  0  0  0  0  0  0  0
   22.1331   -9.3890  -13.3702 C   0  0  0  0  0  0  0  0  0  0  0  0
   21.4905   -8.5327  -12.4838 C   0  0  0  0  0  0  0  0  0  0  0  0
   21.5793   -7.1719  -12.7206 C   0  0  0  0  0  0  0  0  0  0  0  0
   21.3044   -3.0618  -14.6932 C   0  0  0  0  0  0  0  0  0  0  0  0
   21.2281   -2.5490  -15.8293 O   0  0  0  0  0  0  0  0  0  0  0  0
   21.6121   -2.2777  -13.5905 O   0  0  0  0  0  0  0  0  0  0  0  0
  2  1  1  6
  2  9  1  0
  2  3  1  0
  3  4  1  0
  4  8  1  0
  4  5  2  0
  5  6  1  0
  7  6  1  0
  8  7  2  0
  9 10  2  0
 12 11  1  6
 12 13  1  0
 12 14  1  0
 15 14  1  1
 16 15  1  0
 16  9  1  0
 17 15  1  0
 17 18  2  0
 19 17  1  0
 20 19  1  0
 20 28  1  0
 20 21  1  6
 22 21  1  0
 23 22  2  0
 24 23  1  0
 25 24  2  0
 25 26  1  0
 26 27  2  0
 27 22  1  0
 28 30  1  0
 29 28  2  0
M  END
$$$$
