HLF.pdb
     RDKit          3D

 30 31  0  0  1  0  0  0  0  0999 V2000
   27.4134  -18.0534  -16.3058 N   0  0  0  0  0  0  0  0  0  0  0  0
   26.7325  -17.8346  -15.0645 C   0  0  1  0  0  0  0  0  0  0  0  0
   25.4430  -17.0462  -15.2585 C   0  0  0  0  0  0  0  0  0  0  0  0
   25.8155  -15.6716  -15.6521 C   0  0  0  0  0  0  0  0  0  0  0  0
   27.0851  -15.1803  -15.7763 C   0  0  0  0  0  0  0  0  0  0  0  0
   26.9792  -13.8837  -16.1541 N   0  0  0  0  0  0  0  0  0  0  0  0
   25.6785  -13.5761  -16.2621 C   0  0  0  0  0  0  0  0  0  0  0  0
   24.9646  -14.6880  -15.9500 N   0  0  0  0  0  0  0  0  0  0  0  0
   26.4362  -19.1378  -14.4410 C   0  0  0  0  0  0  0  0  0  0  0  0
   25.8306  -20.0101  -15.0925 O   0  0  0  0  0  0  0  0  0  0  0  0
   29.3687  -21.7424  -12.8533 C   0  0  0  0  0  0  0  0  0  0  0  0
   28.8889  -20.7861  -11.7451 C   0  0  2  0  0  0  0  0  0  0  0  0
   29.8386  -21.0349  -10.5885 C   0  0  0  0  0  0  0  0  0  0  0  0
   27.4526  -21.0831  -11.4347 C   0  0  0  0  0  0  0  0  0  0  0  0
   26.5289  -20.6393  -12.4937 C   0  0  2  0  0  0  0  0  0  0  0  0
   26.8343  -19.3948  -13.1181 N   0  0  0  0  0  0  0  0  0  0  0  0
   25.1027  -20.5374  -11.9892 C   0  0  0  0  0  0  0  0  0  0  0  0
   24.8336  -20.0036  -10.8895 O   0  0  0  0  0  0  0  0  0  0  0  0
   24.0268  -21.0477  -12.7568 N   0  0  0  0  0  0  0  0  0  0  0  0
   22.6271  -21.0095  -12.3364 C   0  0  1  0  0  0  0  0  0  0  0  0
   22.2422  -19.6104  -12.0083 C   0  0  0  0  0  0  0  0  0  0  0  0
   20.8605  -19.3773  -11.6207 C   0  0  0  0  0  0  0  0  0  0  0  0
   20.4328  -19.6404  -10.3277 C   0  0  0  0  0  0  0  0  0  0  0  0
   19.0950  -19.4050   -9.9889 C   0  0  0  0  0  0  0  0  0  0  0  0
   18.1827  -18.9183  -10.9019 C   0  0  0  0  0  0  0  0  0  0  0  0
   18.6068  -18.6534  -12.1987 C   0  0  0  0  0  0  0  0  0  0  0  0
   19.9344  -18.8948  -12.5066 C   0  0  0  0  0  0  0  0  0  0  0  0
   21.7438  -21.5742  -13.3821 C   0  0  0  0  0  0  0  0  0  0  0  0
   22.0466  -21.5525  -14.5935 O   0  0  0  0  0  0  0  0  0  0  0  0
   20.5453  -22.1392  -12.9701 O   0  0  0  0  0  0  0  0  0  0  0  0
  2  1  1  6
  2  9  1  0
  2  3  1  0
  3  4  1  0
  4  8  1  0
  4  5  2  0
  5  6  1  0
  7  6  1  0
  8  7  2  0
  9 10  2  0
 12 11  1  6
 12 13  1  0
 12 14  1  0
 15 14  1  1
 16 15  1  0
 16  9  1  0
 17 15  1  0
 17 18  2  0
 19 17  1  0
 20 19  1  0
 20 28  1  0
 20 21  1  6
 22 21  1  0
 23 22  2  0
 24 23  1  0
 25 24  2  0
 25 26  1  0
 26 27  2  0
 27 22  1  0
 28 30  1  0
 29 28  2  0
M  END
$$$$
