HLF.pdb
     RDKit          3D

 30 31  0  0  1  0  0  0  0  0999 V2000
   24.2506  -19.1943  -17.1924 N   0  0  0  0  0  0  0  0  0  0  0  0
   24.4718  -18.7139  -15.8610 C   0  0  1  0  0  0  0  0  0  0  0  0
   23.1627  -18.5173  -15.1062 C   0  0  0  0  0  0  0  0  0  0  0  0
   22.4336  -17.4100  -15.7587 C   0  0  0  0  0  0  0  0  0  0  0  0
   22.9519  -16.1950  -16.1107 C   0  0  0  0  0  0  0  0  0  0  0  0
   21.9509  -15.4802  -16.6781 N   0  0  0  0  0  0  0  0  0  0  0  0
   20.8392  -16.2301  -16.6793 C   0  0  0  0  0  0  0  0  0  0  0  0
   21.1462  -17.4232  -16.1087 N   0  0  0  0  0  0  0  0  0  0  0  0
   25.3295  -19.6721  -15.1390 C   0  0  0  0  0  0  0  0  0  0  0  0
   25.2591  -20.8868  -15.4071 O   0  0  0  0  0  0  0  0  0  0  0  0
   30.3351  -19.9514  -11.5247 C   0  0  0  0  0  0  0  0  0  0  0  0
   29.1107  -20.6340  -12.1632 C   0  0  2  0  0  0  0  0  0  0  0  0
   29.6978  -21.6865  -13.0848 C   0  0  0  0  0  0  0  0  0  0  0  0
   28.2857  -19.5963  -12.8634 C   0  0  0  0  0  0  0  0  0  0  0  0
   27.0362  -20.1362  -13.4283 C   0  0  2  0  0  0  0  0  0  0  0  0
   26.2216  -19.2179  -14.1530 N   0  0  0  0  0  0  0  0  0  0  0  0
   26.1559  -20.7523  -12.3585 C   0  0  0  0  0  0  0  0  0  0  0  0
   26.4148  -21.8717  -11.8618 O   0  0  0  0  0  0  0  0  0  0  0  0
   25.0068  -20.0703  -11.8877 N   0  0  0  0  0  0  0  0  0  0  0  0
   24.0871  -20.6056  -10.8852 C   0  0  1  0  0  0  0  0  0  0  0  0
   24.1807  -19.7975   -9.6395 C   0  0  0  0  0  0  0  0  0  0  0  0
   25.3018  -20.0712   -8.7554 C   0  0  0  0  0  0  0  0  0  0  0  0
   25.5025  -21.3422   -8.2376 C   0  0  0  0  0  0  0  0  0  0  0  0
   26.5921  -21.5705   -7.3888 C   0  0  0  0  0  0  0  0  0  0  0  0
   27.4773  -20.5691   -7.0475 C   0  0  0  0  0  0  0  0  0  0  0  0
   27.2800  -19.2939   -7.5639 C   0  0  0  0  0  0  0  0  0  0  0  0
   26.1954  -19.0961   -8.4006 C   0  0  0  0  0  0  0  0  0  0  0  0
   22.6989  -20.6328  -11.4000 C   0  0  0  0  0  0  0  0  0  0  0  0
   21.7456  -21.0721  -10.7236 O   0  0  0  0  0  0  0  0  0  0  0  0
   22.4827  -20.1474  -12.6818 O   0  0  0  0  0  0  0  0  0  0  0  0
  2  1  1  6
  2  9  1  0
  2  3  1  0
  3  4  1  0
  4  8  1  0
  4  5  2  0
  5  6  1  0
  7  6  1  0
  8  7  2  0
  9 10  2  0
 12 11  1  6
 12 13  1  0
 12 14  1  0
 15 14  1  1
 16 15  1  0
 16  9  1  0
 17 15  1  0
 17 18  2  0
 19 17  1  0
 20 19  1  0
 20 28  1  0
 20 21  1  1
 22 21  1  0
 23 22  2  0
 24 23  1  0
 25 24  2  0
 25 26  1  0
 26 27  2  0
 27 22  1  0
 28 30  1  0
 29 28  2  0
M  END
$$$$
