HLF.pdb
     RDKit          3D

 30 31  0  0  1  0  0  0  0  0999 V2000
   27.5285  -20.9765  -16.1881 N   0  0  0  0  0  0  0  0  0  0  0  0
   26.7918  -19.9910  -15.4545 C   0  0  1  0  0  0  0  0  0  0  0  0
   26.1601  -18.9552  -16.3765 C   0  0  0  0  0  0  0  0  0  0  0  0
   27.2570  -18.2020  -17.0191 C   0  0  0  0  0  0  0  0  0  0  0  0
   28.0662  -17.2785  -16.4182 C   0  0  0  0  0  0  0  0  0  0  0  0
   28.9329  -16.8313  -17.3584 N   0  0  0  0  0  0  0  0  0  0  0  0
   28.6702  -17.4596  -18.5135 C   0  0  0  0  0  0  0  0  0  0  0  0
   27.6317  -18.3065  -18.2953 N   0  0  0  0  0  0  0  0  0  0  0  0
   25.7455  -20.6628  -14.6614 C   0  0  0  0  0  0  0  0  0  0  0  0
   25.1696  -21.6663  -15.1237 O   0  0  0  0  0  0  0  0  0  0  0  0
   26.4858  -22.1906  -10.8486 C   0  0  0  0  0  0  0  0  0  0  0  0
   25.9667  -20.7529  -10.6582 C   0  0  2  0  0  0  0  0  0  0  0  0
   26.1378  -20.4785   -9.1759 C   0  0  0  0  0  0  0  0  0  0  0  0
   24.5474  -20.6812  -11.1358 C   0  0  0  0  0  0  0  0  0  0  0  0
   24.4203  -20.8387  -12.5955 C   0  0  2  0  0  0  0  0  0  0  0  0
   25.3989  -20.1737  -13.3906 N   0  0  0  0  0  0  0  0  0  0  0  0
   23.0646  -20.3785  -13.0946 C   0  0  0  0  0  0  0  0  0  0  0  0
   22.7278  -19.1736  -13.0584 O   0  0  0  0  0  0  0  0  0  0  0  0
   22.1348  -21.3089  -13.6210 N   0  0  0  0  0  0  0  0  0  0  0  0
   20.7731  -20.9679  -14.0295 C   0  0  1  0  0  0  0  0  0  0  0  0
   20.6045  -21.2403  -15.4824 C   0  0  0  0  0  0  0  0  0  0  0  0
   21.3807  -20.4259  -16.4031 C   0  0  0  0  0  0  0  0  0  0  0  0
   22.5169  -20.9346  -17.0147 C   0  0  0  0  0  0  0  0  0  0  0  0
   23.2409  -20.1224  -17.8957 C   0  0  0  0  0  0  0  0  0  0  0  0
   22.8613  -18.8264  -18.1772 C   0  0  0  0  0  0  0  0  0  0  0  0
   21.7235  -18.3125  -17.5665 C   0  0  0  0  0  0  0  0  0  0  0  0
   21.0264  -19.1369  -16.7005 C   0  0  0  0  0  0  0  0  0  0  0  0
   19.7765  -21.7142  -13.2279 C   0  0  0  0  0  0  0  0  0  0  0  0
   18.5574  -21.4458  -13.2624 O   0  0  0  0  0  0  0  0  0  0  0  0
   20.2448  -22.7407  -12.4202 O   0  0  0  0  0  0  0  0  0  0  0  0
  2  1  1  6
  2  9  1  0
  2  3  1  0
  3  4  1  0
  4  8  1  0
  4  5  2  0
  5  6  1  0
  7  6  1  0
  8  7  2  0
  9 10  2  0
 12 11  1  1
 12 13  1  0
 12 14  1  0
 15 14  1  1
 16 15  1  0
 16  9  1  0
 17 15  1  0
 17 18  2  0
 19 17  1  0
 20 19  1  0
 20 28  1  0
 20 21  1  6
 22 21  1  0
 23 22  2  0
 24 23  1  0
 25 24  2  0
 25 26  1  0
 26 27  2  0
 27 22  1  0
 28 30  1  0
 29 28  2  0
M  END
$$$$
