HLF.pdb
     RDKit          3D

 30 31  0  0  1  0  0  0  0  0999 V2000
   22.4354  -38.8881  -11.9273 N   0  0  0  0  0  0  0  0  0  0  0  0
   22.2104  -37.6289  -11.2825 C   0  0  1  0  0  0  0  0  0  0  0  0
   21.9436  -37.7969   -9.7916 C   0  0  0  0  0  0  0  0  0  0  0  0
   20.5670  -38.3119   -9.6401 C   0  0  0  0  0  0  0  0  0  0  0  0
   19.4141  -37.5847   -9.7423 C   0  0  0  0  0  0  0  0  0  0  0  0
   18.3816  -38.4371   -9.5363 N   0  0  0  0  0  0  0  0  0  0  0  0
   18.8785  -39.6621   -9.3120 C   0  0  0  0  0  0  0  0  0  0  0  0
   20.2319  -39.5765   -9.3780 N   0  0  0  0  0  0  0  0  0  0  0  0
   23.3876  -36.7647  -11.4884 C   0  0  0  0  0  0  0  0  0  0  0  0
   24.4672  -37.2689  -11.8522 O   0  0  0  0  0  0  0  0  0  0  0  0
   25.3139  -34.5556  -14.3867 C   0  0  0  0  0  0  0  0  0  0  0  0
   23.9989  -33.9210  -13.8959 C   0  0  2  0  0  0  0  0  0  0  0  0
   23.7071  -32.8222  -14.9005 C   0  0  0  0  0  0  0  0  0  0  0  0
   24.1888  -33.4335  -12.4910 C   0  0  0  0  0  0  0  0  0  0  0  0
   24.4064  -34.5251  -11.5252 C   0  0  2  0  0  0  0  0  0  0  0  0
   23.2928  -35.3791  -11.2750 N   0  0  0  0  0  0  0  0  0  0  0  0
   24.8671  -34.0010  -10.1790 C   0  0  0  0  0  0  0  0  0  0  0  0
   25.9387  -33.3660  -10.0553 O   0  0  0  0  0  0  0  0  0  0  0  0
   24.0891  -34.2174   -9.0150 N   0  0  0  0  0  0  0  0  0  0  0  0
   24.3974  -33.6494   -7.7036 C   0  0  1  0  0  0  0  0  0  0  0  0
   23.3203  -32.7044   -7.3029 C   0  0  0  0  0  0  0  0  0  0  0  0
   23.0296  -31.6079   -8.2121 C   0  0  0  0  0  0  0  0  0  0  0  0
   23.9355  -30.5720   -8.3862 C   0  0  0  0  0  0  0  0  0  0  0  0
   23.6231  -29.5317   -9.2693 C   0  0  0  0  0  0  0  0  0  0  0  0
   22.4385  -29.5010   -9.9755 C   0  0  0  0  0  0  0  0  0  0  0  0
   21.5278  -30.5368   -9.8041 C   0  0  0  0  0  0  0  0  0  0  0  0
   21.8619  -31.5526   -8.9255 C   0  0  0  0  0  0  0  0  0  0  0  0
   24.5742  -34.7162   -6.6920 C   0  0  0  0  0  0  0  0  0  0  0  0
   24.3635  -35.9200   -6.9489 O   0  0  0  0  0  0  0  0  0  0  0  0
   24.9883  -34.3330   -5.4243 O   0  0  0  0  0  0  0  0  0  0  0  0
  2  1  1  1
  2  9  1  0
  2  3  1  0
  3  4  1  0
  4  8  1  0
  4  5  2  0
  5  6  1  0
  7  6  1  0
  8  7  2  0
  9 10  2  0
 12 11  1  6
 12 13  1  0
 12 14  1  0
 15 14  1  6
 16 15  1  0
 16  9  1  0
 17 15  1  0
 17 18  2  0
 19 17  1  0
 20 19  1  0
 20 28  1  0
 20 21  1  1
 22 21  1  0
 23 22  2  0
 24 23  1  0
 25 24  2  0
 25 26  1  0
 26 27  2  0
 27 22  1  0
 28 30  1  0
 29 28  2  0
M  END
$$$$
