HLF.pdb
     RDKit          3D

 30 31  0  0  1  0  0  0  0  0999 V2000
   22.1152  -20.3037  -17.0278 N   0  0  0  0  0  0  0  0  0  0  0  0
   22.5849  -19.2878  -16.1337 C   0  0  1  0  0  0  0  0  0  0  0  0
   21.6783  -19.1418  -14.9177 C   0  0  0  0  0  0  0  0  0  0  0  0
   20.5690  -18.2410  -15.2939 C   0  0  0  0  0  0  0  0  0  0  0  0
   19.4162  -18.5994  -15.9351 C   0  0  0  0  0  0  0  0  0  0  0  0
   18.6744  -17.4761  -16.0862 N   0  0  0  0  0  0  0  0  0  0  0  0
   19.3474  -16.4460  -15.5533 C   0  0  0  0  0  0  0  0  0  0  0  0
   20.5191  -16.9276  -15.0647 N   0  0  0  0  0  0  0  0  0  0  0  0
   23.9552  -19.6213  -15.7021 C   0  0  0  0  0  0  0  0  0  0  0  0
   24.3117  -20.8138  -15.6471 O   0  0  0  0  0  0  0  0  0  0  0  0
   28.1211  -19.4559  -17.1571 C   0  0  0  0  0  0  0  0  0  0  0  0
   27.5208  -18.0717  -16.8469 C   0  0  2  0  0  0  0  0  0  0  0  0
   28.5618  -17.0847  -17.3410 C   0  0  0  0  0  0  0  0  0  0  0  0
   27.2389  -17.9821  -15.3772 C   0  0  0  0  0  0  0  0  0  0  0  0
   26.1815  -18.9080  -14.9342 C   0  0  2  0  0  0  0  0  0  0  0  0
   24.8546  -18.5994  -15.3540 N   0  0  0  0  0  0  0  0  0  0  0  0
   26.1438  -19.0370  -13.4239 C   0  0  0  0  0  0  0  0  0  0  0  0
   26.1513  -18.0302  -12.6802 O   0  0  0  0  0  0  0  0  0  0  0  0
   26.0977  -20.3124  -12.8090 N   0  0  0  0  0  0  0  0  0  0  0  0
   26.0826  -20.5271  -11.3629 C   0  0  1  0  0  0  0  0  0  0  0  0
   25.0070  -19.7040  -10.7470 C   0  0  0  0  0  0  0  0  0  0  0  0
   23.6375  -20.0176  -11.1203 C   0  0  0  0  0  0  0  0  0  0  0  0
   22.5797  -19.2634  -10.6342 C   0  0  0  0  0  0  0  0  0  0  0  0
   21.2733  -19.5937  -11.0138 C   0  0  0  0  0  0  0  0  0  0  0  0
   21.0005  -20.6495  -11.8586 C   0  0  0  0  0  0  0  0  0  0  0  0
   22.0573  -21.4080  -12.3480 C   0  0  0  0  0  0  0  0  0  0  0  0
   23.3384  -21.0596  -11.9572 C   0  0  0  0  0  0  0  0  0  0  0  0
   25.9062  -21.9618  -11.0416 C   0  0  0  0  0  0  0  0  0  0  0  0
   25.8296  -22.3772   -9.8665 O   0  0  0  0  0  0  0  0  0  0  0  0
   25.8274  -22.8501  -12.1047 O   0  0  0  0  0  0  0  0  0  0  0  0
  2  1  1  6
  2  9  1  0
  2  3  1  0
  3  4  1  0
  4  8  1  0
  4  5  2  0
  5  6  1  0
  7  6  1  0
  8  7  2  0
  9 10  2  0
 12 11  1  1
 12 13  1  0
 12 14  1  0
 15 14  1  1
 16 15  1  0
 16  9  1  0
 17 15  1  0
 17 18  2  0
 19 17  1  0
 20 19  1  0
 20 28  1  0
 20 21  1  1
 22 21  1  0
 23 22  2  0
 24 23  1  0
 25 24  2  0
 25 26  1  0
 26 27  2  0
 27 22  1  0
 28 30  1  0
 29 28  2  0
M  END
$$$$
