HLF.pdb
     RDKit          3D

 30 31  0  0  1  0  0  0  0  0999 V2000
   26.2491  -20.2501  -17.7902 N   0  0  0  0  0  0  0  0  0  0  0  0
   25.6874  -19.3700  -16.8093 C   0  0  1  0  0  0  0  0  0  0  0  0
   24.5469  -18.5382  -17.3832 C   0  0  0  0  0  0  0  0  0  0  0  0
   25.1320  -17.5850  -18.3489 C   0  0  0  0  0  0  0  0  0  0  0  0
   25.7300  -16.3929  -18.0494 C   0  0  0  0  0  0  0  0  0  0  0  0
   26.1252  -15.8363  -19.2195 N   0  0  0  0  0  0  0  0  0  0  0  0
   25.7824  -16.6600  -20.2205 C   0  0  0  0  0  0  0  0  0  0  0  0
   25.1682  -17.7403  -19.6735 N   0  0  0  0  0  0  0  0  0  0  0  0
   25.2030  -20.1673  -15.6671 C   0  0  0  0  0  0  0  0  0  0  0  0
   24.7193  -21.2983  -15.8651 O   0  0  0  0  0  0  0  0  0  0  0  0
   25.5057  -20.4856   -9.5067 C   0  0  0  0  0  0  0  0  0  0  0  0
   24.9404  -21.0019  -10.8434 C   0  0  2  0  0  0  0  0  0  0  0  0
   25.3692  -22.4560  -10.9030 C   0  0  0  0  0  0  0  0  0  0  0  0
   25.4794  -20.1568  -11.9582 C   0  0  0  0  0  0  0  0  0  0  0  0
   24.8167  -20.4123  -13.2493 C   0  0  2  0  0  0  0  0  0  0  0  0
   25.2859  -19.6543  -14.3616 N   0  0  0  0  0  0  0  0  0  0  0  0
   23.3195  -20.1874  -13.1668 C   0  0  0  0  0  0  0  0  0  0  0  0
   22.8412  -19.1148  -12.7338 O   0  0  0  0  0  0  0  0  0  0  0  0
   22.4139  -21.1945  -13.5824 N   0  0  0  0  0  0  0  0  0  0  0  0
   20.9609  -21.0974  -13.4520 C   0  0  1  0  0  0  0  0  0  0  0  0
   20.3327  -21.1683  -14.7988 C   0  0  0  0  0  0  0  0  0  0  0  0
   20.5176  -20.0243  -15.6766 C   0  0  0  0  0  0  0  0  0  0  0  0
   19.7898  -18.8591  -15.4856 C   0  0  0  0  0  0  0  0  0  0  0  0
   19.9926  -17.7768  -16.3501 C   0  0  0  0  0  0  0  0  0  0  0  0
   20.8958  -17.8301  -17.3913 C   0  0  0  0  0  0  0  0  0  0  0  0
   21.6272  -18.9956  -17.5866 C   0  0  0  0  0  0  0  0  0  0  0  0
   21.4073  -20.0500  -16.7174 C   0  0  0  0  0  0  0  0  0  0  0  0
   20.4363  -22.1586  -12.5625 C   0  0  0  0  0  0  0  0  0  0  0  0
   19.2745  -22.1313  -12.1055 O   0  0  0  0  0  0  0  0  0  0  0  0
   21.2896  -23.2054  -12.2437 O   0  0  0  0  0  0  0  0  0  0  0  0
  2  1  1  6
  2  9  1  0
  2  3  1  0
  3  4  1  0
  4  8  1  0
  4  5  2  0
  5  6  1  0
  7  6  1  0
  8  7  2  0
  9 10  2  0
 12 11  1  1
 12 13  1  0
 12 14  1  0
 15 14  1  1
 16 15  1  0
 16  9  1  0
 17 15  1  0
 17 18  2  0
 19 17  1  0
 20 19  1  0
 20 28  1  0
 20 21  1  6
 22 21  1  0
 23 22  2  0
 24 23  1  0
 25 24  2  0
 25 26  1  0
 26 27  2  0
 27 22  1  0
 28 30  1  0
 29 28  2  0
M  END
$$$$
