HLF.pdb
     RDKit          3D

 30 31  0  0  1  0  0  0  0  0999 V2000
   23.0901  -17.4823  -18.9506 N   0  0  0  0  0  0  0  0  0  0  0  0
   23.9119  -18.6461  -19.0999 C   0  0  1  0  0  0  0  0  0  0  0  0
   24.8360  -18.5346  -20.3064 C   0  0  0  0  0  0  0  0  0  0  0  0
   23.9873  -18.3647  -21.5041 C   0  0  0  0  0  0  0  0  0  0  0  0
   23.1042  -19.2787  -22.0074 C   0  0  0  0  0  0  0  0  0  0  0  0
   22.5371  -18.7265  -23.1067 N   0  0  0  0  0  0  0  0  0  0  0  0
   23.0534  -17.5015  -23.2829 C   0  0  0  0  0  0  0  0  0  0  0  0
   23.9502  -17.2849  -22.2868 N   0  0  0  0  0  0  0  0  0  0  0  0
   24.7078  -18.8349  -17.8727 C   0  0  0  0  0  0  0  0  0  0  0  0
   25.4288  -19.8440  -17.7540 O   0  0  0  0  0  0  0  0  0  0  0  0
   27.9199  -16.5676  -16.6835 C   0  0  0  0  0  0  0  0  0  0  0  0
   26.6143  -15.9500  -16.1479 C   0  0  2  0  0  0  0  0  0  0  0  0
   27.0204  -14.5786  -15.6415 C   0  0  0  0  0  0  0  0  0  0  0  0
   26.0474  -16.8509  -15.0923 C   0  0  0  0  0  0  0  0  0  0  0  0
   25.4082  -18.0581  -15.6454 C   0  0  2  0  0  0  0  0  0  0  0  0
   24.6533  -17.8818  -16.8417 N   0  0  0  0  0  0  0  0  0  0  0  0
   24.4854  -18.7168  -14.6387 C   0  0  0  0  0  0  0  0  0  0  0  0
   24.8548  -18.9488  -13.4654 O   0  0  0  0  0  0  0  0  0  0  0  0
   23.1680  -19.0898  -15.0025 N   0  0  0  0  0  0  0  0  0  0  0  0
   22.2323  -19.7742  -14.1117 C   0  0  1  0  0  0  0  0  0  0  0  0
   22.0013  -18.9453  -12.8980 C   0  0  0  0  0  0  0  0  0  0  0  0
   21.0209  -19.4315  -11.9409 C   0  0  0  0  0  0  0  0  0  0  0  0
   21.4211  -20.1021  -10.7946 C   0  0  0  0  0  0  0  0  0  0  0  0
   20.4502  -20.5572   -9.8946 C   0  0  0  0  0  0  0  0  0  0  0  0
   19.1019  -20.3610  -10.1103 C   0  0  0  0  0  0  0  0  0  0  0  0
   18.6963  -19.6896  -11.2576 C   0  0  0  0  0  0  0  0  0  0  0  0
   19.6767  -19.2502  -12.1301 C   0  0  0  0  0  0  0  0  0  0  0  0
   20.9583  -20.0692  -14.8063 C   0  0  0  0  0  0  0  0  0  0  0  0
   20.5125  -19.3420  -15.7184 O   0  0  0  0  0  0  0  0  0  0  0  0
   20.2588  -21.1990  -14.4066 O   0  0  0  0  0  0  0  0  0  0  0  0
  2  1  1  1
  2  9  1  0
  2  3  1  0
  3  4  1  0
  4  8  1  0
  4  5  2  0
  5  6  1  0
  7  6  1  0
  8  7  2  0
  9 10  2  0
 12 11  1  1
 12 13  1  0
 12 14  1  0
 15 14  1  1
 16 15  1  0
 16  9  1  0
 17 15  1  0
 17 18  2  0
 19 17  1  0
 20 19  1  0
 20 28  1  0
 20 21  1  1
 22 21  1  0
 23 22  2  0
 24 23  1  0
 25 24  2  0
 25 26  1  0
 26 27  2  0
 27 22  1  0
 28 30  1  0
 29 28  2  0
M  END
$$$$
