HLF.pdb
     RDKit          3D

 30 31  0  0  1  0  0  0  0  0999 V2000
   20.1872  -11.1097  -18.1933 N   0  0  0  0  0  0  0  0  0  0  0  0
   19.4252  -10.2422  -17.3453 C   0  0  1  0  0  0  0  0  0  0  0  0
   19.4490  -10.7063  -15.8941 C   0  0  0  0  0  0  0  0  0  0  0  0
   18.6161  -11.9233  -15.8012 C   0  0  0  0  0  0  0  0  0  0  0  0
   17.4294  -12.1437  -16.4428 C   0  0  0  0  0  0  0  0  0  0  0  0
   17.0014  -13.3778  -16.0837 N   0  0  0  0  0  0  0  0  0  0  0  0
   17.8978  -13.9112  -15.2411 C   0  0  0  0  0  0  0  0  0  0  0  0
   18.8944  -13.0049  -15.0713 N   0  0  0  0  0  0  0  0  0  0  0  0
   19.9662   -8.8738  -17.4446 C   0  0  0  0  0  0  0  0  0  0  0  0
   21.1938   -8.6867  -17.3426 O   0  0  0  0  0  0  0  0  0  0  0  0
   20.1140   -5.6745  -20.6875 C   0  0  0  0  0  0  0  0  0  0  0  0
   18.7308   -5.9010  -20.0485 C   0  0  2  0  0  0  0  0  0  0  0  0
   17.7870   -5.0386  -20.8655 C   0  0  0  0  0  0  0  0  0  0  0  0
   18.7991   -5.5312  -18.5973 C   0  0  0  0  0  0  0  0  0  0  0  0
   19.6158   -6.4645  -17.8011 C   0  0  2  0  0  0  0  0  0  0  0  0
   19.1018   -7.7858  -17.6527 N   0  0  0  0  0  0  0  0  0  0  0  0
   19.8724   -5.9352  -16.4036 C   0  0  0  0  0  0  0  0  0  0  0  0
   19.0474   -6.1041  -15.4776 O   0  0  0  0  0  0  0  0  0  0  0  0
   21.0644   -5.2298  -16.1061 N   0  0  0  0  0  0  0  0  0  0  0  0
   21.3504   -4.6082  -14.8140 C   0  0  1  0  0  0  0  0  0  0  0  0
   22.6261   -5.1483  -14.2714 C   0  0  0  0  0  0  0  0  0  0  0  0
   22.7099   -6.5878  -14.0857 C   0  0  0  0  0  0  0  0  0  0  0  0
   22.1025   -7.1989  -12.9987 C   0  0  0  0  0  0  0  0  0  0  0  0
   22.2036   -8.5873  -12.8504 C   0  0  0  0  0  0  0  0  0  0  0  0
   22.8907   -9.3724  -13.7528 C   0  0  0  0  0  0  0  0  0  0  0  0
   23.5010   -8.7643  -14.8434 C   0  0  0  0  0  0  0  0  0  0  0  0
   23.3851   -7.3906  -14.9660 C   0  0  0  0  0  0  0  0  0  0  0  0
   21.4047   -3.1335  -14.9355 C   0  0  0  0  0  0  0  0  0  0  0  0
   21.3717   -2.5541  -16.0413 O   0  0  0  0  0  0  0  0  0  0  0  0
   21.4958   -2.3982  -13.7623 O   0  0  0  0  0  0  0  0  0  0  0  0
  2  1  1  6
  2  9  1  0
  2  3  1  0
  3  4  1  0
  4  8  1  0
  4  5  2  0
  5  6  1  0
  7  6  1  0
  8  7  2  0
  9 10  2  0
 12 11  1  6
 12 13  1  0
 12 14  1  0
 15 14  1  1
 16 15  1  0
 16  9  1  0
 17 15  1  0
 17 18  2  0
 19 17  1  0
 20 19  1  0
 20 28  1  0
 20 21  1  6
 22 21  1  0
 23 22  2  0
 24 23  1  0
 25 24  2  0
 25 26  1  0
 26 27  2  0
 27 22  1  0
 28 30  1  0
 29 28  2  0
M  END
$$$$
