DFP.pdb
     RDKit          3D

 27 28  0  0  1  0  0  0  0  0999 V2000
   20.4361  -17.8834  -16.6157 N   0  0  0  0  0  0  0  0  0  0  0  0
   21.7183  -17.2914  -16.9383 C   0  0  1  0  0  0  0  0  0  0  0  0
   21.6599  -15.8133  -17.0654 C   0  0  0  0  0  0  0  0  0  0  0  0
   20.4959  -15.3146  -17.8005 C   0  0  0  0  0  0  0  0  0  0  0  0
   20.1022  -14.1388  -17.5462 O   0  0  0  0  0  0  0  0  0  0  0  0
   22.7793  -17.7322  -16.0370 C   0  0  0  0  0  0  0  0  0  0  0  0
   23.8139  -16.9996  -15.9649 O   0  0  0  0  0  0  0  0  0  0  0  0
   19.7929  -16.0184  -18.7465 O   0  0  0  0  0  0  0  0  0  0  0  0
   22.6292  -18.9257  -15.2844 N   0  0  0  0  0  0  0  0  0  0  0  0
   23.6246  -19.3687  -14.3316 C   0  0  1  0  0  0  0  0  0  0  0  0
   23.0317  -20.0883  -13.1928 C   0  0  0  0  0  0  0  0  0  0  0  0
   24.1381  -20.4519  -12.2099 C   0  0  0  0  0  0  0  0  0  0  0  0
   24.4261  -19.6679  -11.1213 C   0  0  0  0  0  0  0  0  0  0  0  0
   25.4476  -20.0186  -10.2466 C   0  0  0  0  0  0  0  0  0  0  0  0
   26.1990  -21.1534  -10.4389 C   0  0  0  0  0  0  0  0  0  0  0  0
   25.8889  -21.9205  -11.5370 C   0  0  0  0  0  0  0  0  0  0  0  0
   24.8819  -21.5906  -12.4146 C   0  0  0  0  0  0  0  0  0  0  0  0
   24.7518  -19.9663  -15.0412 C   0  0  0  0  0  0  0  0  0  0  0  0
   24.4191  -20.9067  -15.8740 O   0  0  0  0  0  0  0  0  0  0  0  0
   26.1181  -19.7052  -14.9840 N   0  0  0  0  0  0  0  0  0  0  0  0
   26.7040  -18.6898  -14.1193 C   0  0  0  0  0  0  0  0  0  0  0  0
   27.8825  -18.2018  -14.9231 C   0  0  0  0  0  0  0  0  0  0  0  0
   28.4781  -19.5621  -15.3217 C   0  0  0  0  0  0  0  0  0  0  0  0
   27.1954  -20.3163  -15.7022 C   0  0  1  0  0  0  0  0  0  0  0  0
   27.4347  -21.7317  -15.3850 C   0  0  0  0  0  0  0  0  0  0  0  0
   28.3409  -22.5039  -16.0905 O   0  0  0  0  0  0  0  0  0  0  0  0
   26.7904  -22.2395  -14.4457 O   0  0  0  0  0  0  0  0  0  0  0  0
  2  3  1  0
  2  1  1  1
  4  3  1  0
  5  4  2  0
  6  7  2  0
  6  2  1  0
  8  4  1  0
  9  6  1  0
 10 11  1  1
 10  9  1  0
 11 12  1  0
 12 17  2  0
 13 14  2  0
 13 12  1  0
 14 15  1  0
 15 16  2  0
 17 16  1  0
 18 10  1  0
 19 18  2  0
 20 18  1  0
 20 21  1  0
 21 22  1  0
 23 22  1  0
 24 23  1  0
 24 20  1  0
 24 25  1  1
 26 25  1  0
 27 25  2  0
M  END
$$$$
