DFP.pdb
     RDKit          3D

 27 28  0  0  1  0  0  0  0  0999 V2000
   41.2057   -4.3132   -7.0000 N   0  0  0  0  0  0  0  0  0  0  0  0
   41.1128   -4.9937   -5.7245 C   0  0  1  0  0  0  0  0  0  0  0  0
   39.9121   -4.6025   -4.9437 C   0  0  0  0  0  0  0  0  0  0  0  0
   39.7232   -3.1569   -4.8077 C   0  0  0  0  0  0  0  0  0  0  0  0
   38.6726   -2.6541   -5.3032 O   0  0  0  0  0  0  0  0  0  0  0  0
   41.2466   -6.4421   -5.8534 C   0  0  0  0  0  0  0  0  0  0  0  0
   41.1952   -7.1221   -4.7823 O   0  0  0  0  0  0  0  0  0  0  0  0
   40.5938   -2.2974   -4.1850 O   0  0  0  0  0  0  0  0  0  0  0  0
   41.4186   -7.0340   -7.1315 N   0  0  0  0  0  0  0  0  0  0  0  0
   41.4095   -8.4681   -7.3265 C   0  0  1  0  0  0  0  0  0  0  0  0
   40.2872   -8.9140   -8.1677 C   0  0  0  0  0  0  0  0  0  0  0  0
   38.9815   -8.6499   -7.4276 C   0  0  0  0  0  0  0  0  0  0  0  0
   38.5640   -9.4442   -6.3895 C   0  0  0  0  0  0  0  0  0  0  0  0
   37.3634   -9.1859   -5.7389 C   0  0  0  0  0  0  0  0  0  0  0  0
   36.5586   -8.1347   -6.1085 C   0  0  0  0  0  0  0  0  0  0  0  0
   37.0011   -7.3551   -7.1511 C   0  0  0  0  0  0  0  0  0  0  0  0
   38.1861   -7.5941   -7.8080 C   0  0  0  0  0  0  0  0  0  0  0  0
   42.7589   -8.9299   -7.6382 C   0  0  0  0  0  0  0  0  0  0  0  0
   43.4063   -8.1644   -8.4651 O   0  0  0  0  0  0  0  0  0  0  0  0
   43.4737  -10.0432   -7.2049 N   0  0  0  0  0  0  0  0  0  0  0  0
   42.9981  -10.9451   -6.1645 C   0  0  0  0  0  0  0  0  0  0  0  0
   44.2732  -11.3833   -5.4897 C   0  0  0  0  0  0  0  0  0  0  0  0
   45.0960  -11.7333   -6.7404 C   0  0  0  0  0  0  0  0  0  0  0  0
   44.7473  -10.5351   -7.6358 C   0  0  1  0  0  0  0  0  0  0  0  0
   44.7924  -11.0236   -9.0216 C   0  0  0  0  0  0  0  0  0  0  0  0
   43.6540  -11.1472   -9.7988 O   0  0  0  0  0  0  0  0  0  0  0  0
   45.9021  -11.3342   -9.4984 O   0  0  0  0  0  0  0  0  0  0  0  0
  2  3  1  0
  2  1  1  6
  4  3  1  0
  5  4  2  0
  6  7  2  0
  6  2  1  0
  8  4  1  0
  9  6  1  0
 10 11  1  6
 10  9  1  0
 11 12  1  0
 12 17  2  0
 13 14  2  0
 13 12  1  0
 14 15  1  0
 15 16  2  0
 17 16  1  0
 18 10  1  0
 19 18  2  0
 20 18  1  0
 20 21  1  0
 21 22  1  0
 23 22  1  0
 24 23  1  0
 24 20  1  0
 24 25  1  6
 26 25  1  0
 27 25  2  0
M  END
$$$$
