DFP.pdb
     RDKit          3D

 27 28  0  0  1  0  0  0  0  0999 V2000
   19.4219  -16.8340  -17.1007 N   0  0  0  0  0  0  0  0  0  0  0  0
   19.9972  -15.9626  -16.0965 C   0  0  1  0  0  0  0  0  0  0  0  0
   21.0440  -16.6283  -15.2809 C   0  0  0  0  0  0  0  0  0  0  0  0
   20.5856  -17.8195  -14.5632 C   0  0  0  0  0  0  0  0  0  0  0  0
   19.3839  -18.1791  -14.7322 O   0  0  0  0  0  0  0  0  0  0  0  0
   20.4493  -14.6908  -16.6538 C   0  0  0  0  0  0  0  0  0  0  0  0
   21.0179  -14.7298  -17.7885 O   0  0  0  0  0  0  0  0  0  0  0  0
   21.3535  -18.5822  -13.7187 O   0  0  0  0  0  0  0  0  0  0  0  0
   20.2425  -13.4824  -15.9393 N   0  0  0  0  0  0  0  0  0  0  0  0
   20.4922  -12.1841  -16.5282 C   0  0  1  0  0  0  0  0  0  0  0  0
   19.8120  -12.0134  -17.8221 C   0  0  0  0  0  0  0  0  0  0  0  0
   18.3090  -12.1507  -17.6105 C   0  0  0  0  0  0  0  0  0  0  0  0
   17.5072  -12.8021  -18.5135 C   0  0  0  0  0  0  0  0  0  0  0  0
   16.1376  -12.9034  -18.3000 C   0  0  0  0  0  0  0  0  0  0  0  0
   15.5428  -12.3600  -17.1863 C   0  0  0  0  0  0  0  0  0  0  0  0
   16.3697  -11.7135  -16.2981 C   0  0  0  0  0  0  0  0  0  0  0  0
   17.7274  -11.6022  -16.4913 C   0  0  0  0  0  0  0  0  0  0  0  0
   20.3527  -11.1478  -15.5096 C   0  0  0  0  0  0  0  0  0  0  0  0
   19.5707  -11.4717  -14.5235 O   0  0  0  0  0  0  0  0  0  0  0  0
   20.9104   -9.8762  -15.4078 N   0  0  0  0  0  0  0  0  0  0  0  0
   21.8463   -9.3318  -16.3823 C   0  0  0  0  0  0  0  0  0  0  0  0
   22.7438   -8.4627  -15.5385 C   0  0  0  0  0  0  0  0  0  0  0  0
   21.6655   -7.7107  -14.7412 C   0  0  0  0  0  0  0  0  0  0  0  0
   20.7207   -8.8736  -14.4035 C   0  0  1  0  0  0  0  0  0  0  0  0
   19.3670   -8.3044  -14.3363 C   0  0  0  0  0  0  0  0  0  0  0  0
   18.4371   -8.4886  -15.3447 O   0  0  0  0  0  0  0  0  0  0  0  0
   19.0617   -7.6341  -13.3300 O   0  0  0  0  0  0  0  0  0  0  0  0
  2  3  1  0
  2  1  1  6
  4  3  1  0
  5  4  2  0
  6  7  2  0
  6  2  1  0
  8  4  1  0
  9  6  1  0
 10 11  1  6
 10  9  1  0
 11 12  1  0
 12 17  2  0
 13 14  2  0
 13 12  1  0
 14 15  1  0
 15 16  2  0
 17 16  1  0
 18 10  1  0
 19 18  2  0
 20 18  1  0
 20 21  1  0
 21 22  1  0
 23 22  1  0
 24 23  1  0
 24 20  1  0
 24 25  1  6
 26 25  1  0
 27 25  2  0
M  END
$$$$
