DFP.pdb
     RDKit          3D

 27 28  0  0  1  0  0  0  0  0999 V2000
   29.1545  -22.5388  -18.2708 N   0  0  0  0  0  0  0  0  0  0  0  0
   28.5344  -21.3395  -17.7455 C   0  0  1  0  0  0  0  0  0  0  0  0
   27.6909  -20.6366  -18.7449 C   0  0  0  0  0  0  0  0  0  0  0  0
   28.3431  -19.4972  -19.3932 C   0  0  0  0  0  0  0  0  0  0  0  0
   29.4950  -19.6828  -19.8839 O   0  0  0  0  0  0  0  0  0  0  0  0
   27.8283  -21.5801  -16.4902 C   0  0  0  0  0  0  0  0  0  0  0  0
   27.3662  -22.7481  -16.3049 O   0  0  0  0  0  0  0  0  0  0  0  0
   27.8076  -18.2390  -19.5139 O   0  0  0  0  0  0  0  0  0  0  0  0
   27.6869  -20.5380  -15.5376 N   0  0  0  0  0  0  0  0  0  0  0  0
   26.9997  -20.7302  -14.2784 C   0  0  1  0  0  0  0  0  0  0  0  0
   27.6558  -20.0239  -13.1663 C   0  0  0  0  0  0  0  0  0  0  0  0
   26.8799  -20.2967  -11.8833 C   0  0  0  0  0  0  0  0  0  0  0  0
   27.2040  -21.3359  -11.0481 C   0  0  0  0  0  0  0  0  0  0  0  0
   26.4726  -21.5675   -9.8893 C   0  0  0  0  0  0  0  0  0  0  0  0
   25.4080  -20.7706   -9.5413 C   0  0  0  0  0  0  0  0  0  0  0  0
   25.1056  -19.7367  -10.3957 C   0  0  0  0  0  0  0  0  0  0  0  0
   25.8170  -19.4909  -11.5474 C   0  0  0  0  0  0  0  0  0  0  0  0
   25.5620  -20.5684  -14.4738 C   0  0  0  0  0  0  0  0  0  0  0  0
   25.2198  -19.4266  -14.9916 O   0  0  0  0  0  0  0  0  0  0  0  0
   24.4949  -21.4212  -14.2051 N   0  0  0  0  0  0  0  0  0  0  0  0
   24.6575  -22.7541  -13.6403 C   0  0  0  0  0  0  0  0  0  0  0  0
   23.5316  -23.5292  -14.2764 C   0  0  0  0  0  0  0  0  0  0  0  0
   22.3877  -22.5317  -14.0309 C   0  0  0  0  0  0  0  0  0  0  0  0
   23.0916  -21.2183  -14.4031 C   0  0  1  0  0  0  0  0  0  0  0  0
   22.4874  -20.1706  -13.5674 C   0  0  0  0  0  0  0  0  0  0  0  0
   21.1870  -19.7354  -13.7534 O   0  0  0  0  0  0  0  0  0  0  0  0
   23.1842  -19.6658  -12.6646 O   0  0  0  0  0  0  0  0  0  0  0  0
  2  3  1  0
  2  1  1  6
  4  3  1  0
  5  4  2  0
  6  7  2  0
  6  2  1  0
  8  4  1  0
  9  6  1  0
 10 11  1  1
 10  9  1  0
 11 12  1  0
 12 17  2  0
 13 14  2  0
 13 12  1  0
 14 15  1  0
 15 16  2  0
 17 16  1  0
 18 10  1  0
 19 18  2  0
 20 18  1  0
 20 21  1  0
 21 22  1  0
 23 22  1  0
 24 23  1  0
 24 20  1  0
 24 25  1  1
 26 25  1  0
 27 25  2  0
M  END
$$$$
