DFP.pdb
     RDKit          3D

 27 28  0  0  1  0  0  0  0  0999 V2000
   20.1671  -20.1523  -13.0251 N   0  0  0  0  0  0  0  0  0  0  0  0
   21.0251  -20.3557  -14.1745 C   0  0  1  0  0  0  0  0  0  0  0  0
   20.5662  -19.6193  -15.3792 C   0  0  0  0  0  0  0  0  0  0  0  0
   19.3162  -20.1195  -15.9547 C   0  0  0  0  0  0  0  0  0  0  0  0
   18.3965  -19.2790  -16.1783 O   0  0  0  0  0  0  0  0  0  0  0  0
   22.4320  -20.1081  -13.8717 C   0  0  0  0  0  0  0  0  0  0  0  0
   22.7293  -18.9601  -13.4179 O   0  0  0  0  0  0  0  0  0  0  0  0
   19.0570  -21.4293  -16.2736 O   0  0  0  0  0  0  0  0  0  0  0  0
   23.3987  -21.1259  -14.0796 N   0  0  0  0  0  0  0  0  0  0  0  0
   24.7816  -20.9710  -13.6816 C   0  0  1  0  0  0  0  0  0  0  0  0
   25.1892  -21.9582  -12.6690 C   0  0  0  0  0  0  0  0  0  0  0  0
   25.0926  -21.3176  -11.2896 C   0  0  0  0  0  0  0  0  0  0  0  0
   23.8872  -21.1271  -10.6625 C   0  0  0  0  0  0  0  0  0  0  0  0
   23.8280  -20.5309   -9.4084 C   0  0  0  0  0  0  0  0  0  0  0  0
   24.9648  -20.1149   -8.7572 C   0  0  0  0  0  0  0  0  0  0  0  0
   26.1587  -20.3183   -9.4082 C   0  0  0  0  0  0  0  0  0  0  0  0
   26.2385  -20.9063  -10.6495 C   0  0  0  0  0  0  0  0  0  0  0  0
   25.6148  -20.7810  -14.8651 C   0  0  0  0  0  0  0  0  0  0  0  0
   25.2250  -21.4557  -15.9051 O   0  0  0  0  0  0  0  0  0  0  0  0
   26.7509  -20.0043  -15.0759 N   0  0  0  0  0  0  0  0  0  0  0  0
   27.3323  -19.1422  -14.0557 C   0  0  0  0  0  0  0  0  0  0  0  0
   27.8873  -17.9946  -14.8606 C   0  0  0  0  0  0  0  0  0  0  0  0
   28.6189  -18.7985  -15.9479 C   0  0  0  0  0  0  0  0  0  0  0  0
   27.5598  -19.8691  -16.2495 C   0  0  1  0  0  0  0  0  0  0  0  0
   28.2927  -21.0801  -16.6463 C   0  0  0  0  0  0  0  0  0  0  0  0
   28.4318  -22.1690  -15.8036 O   0  0  0  0  0  0  0  0  0  0  0  0
   28.8016  -21.1112  -17.7844 O   0  0  0  0  0  0  0  0  0  0  0  0
  2  3  1  0
  2  1  1  1
  4  3  1  0
  5  4  2  0
  6  7  2  0
  6  2  1  0
  8  4  1  0
  9  6  1  0
 10 11  1  6
 10  9  1  0
 11 12  1  0
 12 17  2  0
 13 14  2  0
 13 12  1  0
 14 15  1  0
 15 16  2  0
 17 16  1  0
 18 10  1  0
 19 18  2  0
 20 18  1  0
 20 21  1  0
 21 22  1  0
 23 22  1  0
 24 23  1  0
 24 20  1  0
 24 25  1  1
 26 25  1  0
 27 25  2  0
M  END
$$$$
