DFP.pdb
     RDKit          3D

 27 28  0  0  1  0  0  0  0  0999 V2000
   25.2746  -21.9809  -19.1905 N   0  0  0  0  0  0  0  0  0  0  0  0
   24.3587  -21.7819  -18.0859 C   0  0  1  0  0  0  0  0  0  0  0  0
   23.5039  -22.9663  -17.8198 C   0  0  0  0  0  0  0  0  0  0  0  0
   22.4203  -23.1598  -18.7854 C   0  0  0  0  0  0  0  0  0  0  0  0
   22.3750  -22.3779  -19.7797 O   0  0  0  0  0  0  0  0  0  0  0  0
   25.0312  -21.2980  -16.8833 C   0  0  0  0  0  0  0  0  0  0  0  0
   26.2051  -21.7310  -16.6671 O   0  0  0  0  0  0  0  0  0  0  0  0
   21.4451  -24.1223  -18.7021 O   0  0  0  0  0  0  0  0  0  0  0  0
   24.3792  -20.3810  -16.0187 N   0  0  0  0  0  0  0  0  0  0  0  0
   25.0045  -19.8755  -14.8153 C   0  0  1  0  0  0  0  0  0  0  0  0
   25.1074  -18.4074  -14.8092 C   0  0  0  0  0  0  0  0  0  0  0  0
   26.1934  -17.9856  -15.7915 C   0  0  0  0  0  0  0  0  0  0  0  0
   25.8964  -17.3461  -16.9686 C   0  0  0  0  0  0  0  0  0  0  0  0
   26.9066  -16.9818  -17.8509 C   0  0  0  0  0  0  0  0  0  0  0  0
   28.2276  -17.2463  -17.5780 C   0  0  0  0  0  0  0  0  0  0  0  0
   28.4966  -17.8875  -16.3918 C   0  0  0  0  0  0  0  0  0  0  0  0
   27.5112  -18.2565  -15.5054 C   0  0  0  0  0  0  0  0  0  0  0  0
   24.4459  -20.5539  -13.6495 C   0  0  0  0  0  0  0  0  0  0  0  0
   23.2998  -21.1273  -13.8651 O   0  0  0  0  0  0  0  0  0  0  0  0
   24.9249  -20.6959  -12.3500 N   0  0  0  0  0  0  0  0  0  0  0  0
   26.2606  -20.2846  -11.9394 C   0  0  0  0  0  0  0  0  0  0  0  0
   26.6132  -21.2957  -10.8781 C   0  0  0  0  0  0  0  0  0  0  0  0
   25.3138  -21.2425  -10.0579 C   0  0  0  0  0  0  0  0  0  0  0  0
   24.2792  -21.2382  -11.1930 C   0  0  1  0  0  0  0  0  0  0  0  0
   23.1261  -20.4693  -10.7027 C   0  0  0  0  0  0  0  0  0  0  0  0
   22.8555  -19.1842  -11.1391 O   0  0  0  0  0  0  0  0  0  0  0  0
   22.3760  -21.0073   -9.8641 O   0  0  0  0  0  0  0  0  0  0  0  0
  2  3  1  0
  2  1  1  6
  4  3  1  0
  5  4  2  0
  6  7  2  0
  6  2  1  0
  8  4  1  0
  9  6  1  0
 10 11  1  1
 10  9  1  0
 11 12  1  0
 12 17  2  0
 13 14  2  0
 13 12  1  0
 14 15  1  0
 15 16  2  0
 17 16  1  0
 18 10  1  0
 19 18  2  0
 20 18  1  0
 20 21  1  0
 21 22  1  0
 23 22  1  0
 24 23  1  0
 24 20  1  0
 24 25  1  1
 26 25  1  0
 27 25  2  0
M  END
$$$$
