DFP.pdb
     RDKit          3D

 27 28  0  0  1  0  0  0  0  0999 V2000
   20.5959  -20.1767  -11.6098 N   0  0  0  0  0  0  0  0  0  0  0  0
   21.4146  -20.8993  -12.5618 C   0  0  1  0  0  0  0  0  0  0  0  0
   20.8572  -20.8819  -13.9378 C   0  0  0  0  0  0  0  0  0  0  0  0
   19.5608  -21.5488  -14.0742 C   0  0  0  0  0  0  0  0  0  0  0  0
   18.5300  -20.8174  -14.1411 O   0  0  0  0  0  0  0  0  0  0  0  0
   22.8143  -20.4852  -12.5218 C   0  0  0  0  0  0  0  0  0  0  0  0
   23.0434  -19.2385  -12.4480 O   0  0  0  0  0  0  0  0  0  0  0  0
   19.3690  -22.9066  -14.1358 O   0  0  0  0  0  0  0  0  0  0  0  0
   23.8490  -21.4555  -12.5586 N   0  0  0  0  0  0  0  0  0  0  0  0
   25.2488  -21.0958  -12.4809 C   0  0  1  0  0  0  0  0  0  0  0  0
   25.9832  -21.9049  -11.4950 C   0  0  0  0  0  0  0  0  0  0  0  0
   26.0551  -21.1355  -10.1815 C   0  0  0  0  0  0  0  0  0  0  0  0
   24.9250  -20.7445   -9.5086 C   0  0  0  0  0  0  0  0  0  0  0  0
   25.0203  -20.0347   -8.3175 C   0  0  0  0  0  0  0  0  0  0  0  0
   26.2391  -19.7025   -7.7756 C   0  0  0  0  0  0  0  0  0  0  0  0
   27.3545  -20.1070   -8.4703 C   0  0  0  0  0  0  0  0  0  0  0  0
   27.2816  -20.8100   -9.6507 C   0  0  0  0  0  0  0  0  0  0  0  0
   25.7936  -20.9487  -13.8272 C   0  0  0  0  0  0  0  0  0  0  0  0
   25.3384  -21.8136  -14.6837 O   0  0  0  0  0  0  0  0  0  0  0  0
   26.7121  -20.0451  -14.3547 N   0  0  0  0  0  0  0  0  0  0  0  0
   27.2178  -18.8949  -13.6178 C   0  0  0  0  0  0  0  0  0  0  0  0
   27.4260  -17.8662  -14.7002 C   0  0  0  0  0  0  0  0  0  0  0  0
   28.1761  -18.7407  -15.7182 C   0  0  0  0  0  0  0  0  0  0  0  0
   27.3331  -20.0225  -15.6445 C   0  0  1  0  0  0  0  0  0  0  0  0
   28.2491  -21.1397  -15.9170 C   0  0  0  0  0  0  0  0  0  0  0  0
   28.7298  -21.4081  -17.1867 O   0  0  0  0  0  0  0  0  0  0  0  0
   28.5945  -21.8616  -14.9606 O   0  0  0  0  0  0  0  0  0  0  0  0
  2  3  1  0
  2  1  1  1
  4  3  1  0
  5  4  2  0
  6  7  2  0
  6  2  1  0
  8  4  1  0
  9  6  1  0
 10 11  1  6
 10  9  1  0
 11 12  1  0
 12 17  2  0
 13 14  2  0
 13 12  1  0
 14 15  1  0
 15 16  2  0
 17 16  1  0
 18 10  1  0
 19 18  2  0
 20 18  1  0
 20 21  1  0
 21 22  1  0
 23 22  1  0
 24 23  1  0
 24 20  1  0
 24 25  1  1
 26 25  1  0
 27 25  2  0
M  END
$$$$
