CQH.pdb
     RDKit          3D

 26 26  0  0  1  0  0  0  0  0999 V2000
   26.4343  -12.5523  -18.1111 N   0  0  0  0  0  0  0  0  0  0  0  0
   25.8520  -12.2298  -16.8238 C   0  0  1  0  0  0  0  0  0  0  0  0
   26.8119  -11.4282  -15.9722 C   0  0  0  0  0  0  0  0  0  0  0  0
   28.2111  -12.4947  -15.5099 S   0  0  0  0  0  0  0  0  0  0  0  0
   24.6201  -11.4452  -17.0379 C   0  0  0  0  0  0  0  0  0  0  0  0
   24.5787  -10.6569  -18.0157 O   0  0  0  0  0  0  0  0  0  0  0  0
   18.9594  -13.3505  -15.8520 N   0  0  0  0  0  0  0  0  0  0  0  0
   18.6670  -12.0619  -16.3484 C   0  0  0  0  0  0  0  0  0  0  0  0
   17.4931  -11.7582  -16.6339 O   0  0  0  0  0  0  0  0  0  0  0  0
   19.7777  -11.0925  -16.5188 C   0  0  0  0  0  0  0  0  0  0  0  0
   21.1046  -11.7260  -16.2368 C   0  0  0  0  0  0  0  0  0  0  0  0
   22.2431  -10.8026  -16.4519 C   0  0  2  0  0  0  0  0  0  0  0  0
   23.4817  -11.5318  -16.2018 N   0  0  0  0  0  0  0  0  0  0  0  0
   22.2097   -9.5265  -15.7340 C   0  0  0  0  0  0  0  0  0  0  0  0
   22.6382   -9.3670  -14.5599 O   0  0  0  0  0  0  0  0  0  0  0  0
   21.6571   -8.3842  -16.4009 N   0  0  0  0  0  0  0  0  0  0  0  0
   21.4550   -7.1022  -15.7562 C   0  0  1  0  0  0  0  0  0  0  0  0
   22.5774   -6.1536  -15.9771 C   0  0  0  0  0  0  0  0  0  0  0  0
   22.3182   -4.8786  -15.2716 C   0  0  0  0  0  0  0  0  0  0  0  0
   22.4128   -4.5597  -13.9295 C   0  0  0  0  0  0  0  0  0  0  0  0
   22.0549   -3.2739  -13.7906 N   0  0  0  0  0  0  0  0  0  0  0  0
   21.7346   -2.7534  -14.9851 C   0  0  0  0  0  0  0  0  0  0  0  0
   21.8984   -3.7342  -15.8699 N   0  0  0  0  0  0  0  0  0  0  0  0
   20.1049   -6.5634  -16.0567 C   0  0  0  0  0  0  0  0  0  0  0  0
   19.4518   -5.7059  -15.1413 O   0  0  0  0  0  0  0  0  0  0  0  0
   19.4541   -6.8092  -17.1002 O   0  0  0  0  0  0  0  0  0  0  0  0
  2  1  1  6
  2  5  1  0
  3  2  1  0
  4  3  1  0
  5  6  2  0
  7  8  1  0
  8  9  2  0
  8 10  1  0
 10 11  1  0
 12 11  1  1
 12 14  1  0
 13  5  1  0
 13 12  1  0
 14 15  2  0
 16 17  1  0
 16 14  1  0
 17 24  1  0
 18 19  1  0
 17 18  1  6
 19 20  2  0
 19 23  1  0
 20 21  1  0
 21 22  1  0
 23 22  2  0
 24 26  2  0
 24 25  1  0
M  END
$$$$
