CQH.pdb
     RDKit          3D

 26 26  0  0  1  0  0  0  0  0999 V2000
   18.0840  -12.0634  -15.1789 N   0  0  0  0  0  0  0  0  0  0  0  0
   18.5481  -11.1246  -16.1806 C   0  0  1  0  0  0  0  0  0  0  0  0
   17.3988  -10.3350  -16.7677 C   0  0  0  0  0  0  0  0  0  0  0  0
   16.4132  -11.4393  -17.8252 S   0  0  0  0  0  0  0  0  0  0  0  0
   19.5090  -10.1938  -15.5566 C   0  0  0  0  0  0  0  0  0  0  0  0
   19.1860   -9.6412  -14.4751 O   0  0  0  0  0  0  0  0  0  0  0  0
   25.6113   -8.6948  -16.4889 N   0  0  0  0  0  0  0  0  0  0  0  0
   24.7480   -8.9827  -17.5680 C   0  0  0  0  0  0  0  0  0  0  0  0
   25.1425   -8.8221  -18.7386 O   0  0  0  0  0  0  0  0  0  0  0  0
   23.3785   -9.4743  -17.2762 C   0  0  0  0  0  0  0  0  0  0  0  0
   23.1088   -9.5000  -15.8038 C   0  0  0  0  0  0  0  0  0  0  0  0
   21.7501   -9.0217  -15.4568 C   0  0  2  0  0  0  0  0  0  0  0  0
   20.7754   -9.8890  -16.1096 N   0  0  0  0  0  0  0  0  0  0  0  0
   21.4622   -7.6056  -15.6947 C   0  0  0  0  0  0  0  0  0  0  0  0
   21.1514   -7.1287  -16.8187 O   0  0  0  0  0  0  0  0  0  0  0  0
   21.5365   -6.7000  -14.5859 N   0  0  0  0  0  0  0  0  0  0  0  0
   21.3993   -5.2632  -14.7165 C   0  0  1  0  0  0  0  0  0  0  0  0
   20.2340   -4.7176  -13.9730 C   0  0  0  0  0  0  0  0  0  0  0  0
   18.9767   -5.0288  -14.6892 C   0  0  0  0  0  0  0  0  0  0  0  0
   18.7681   -5.6201  -15.9216 C   0  0  0  0  0  0  0  0  0  0  0  0
   17.4436   -5.6650  -16.1324 N   0  0  0  0  0  0  0  0  0  0  0  0
   16.7928   -5.1283  -15.0889 C   0  0  0  0  0  0  0  0  0  0  0  0
   17.7317   -4.7485  -14.2252 N   0  0  0  0  0  0  0  0  0  0  0  0
   22.6909   -4.5802  -14.4549 C   0  0  0  0  0  0  0  0  0  0  0  0
   22.8163   -3.1834  -14.6362 O   0  0  0  0  0  0  0  0  0  0  0  0
   23.7366   -5.1543  -14.0679 O   0  0  0  0  0  0  0  0  0  0  0  0
  2  1  1  1
  2  5  1  0
  3  2  1  0
  4  3  1  0
  5  6  2  0
  7  8  1  0
  8  9  2  0
  8 10  1  0
 10 11  1  0
 12 11  1  6
 12 14  1  0
 13  5  1  0
 13 12  1  0
 14 15  2  0
 16 17  1  0
 16 14  1  0
 17 24  1  0
 18 19  1  0
 17 18  1  1
 19 20  2  0
 19 23  1  0
 20 21  1  0
 21 22  1  0
 23 22  2  0
 24 26  2  0
 24 25  1  0
M  END
$$$$
