CQH.pdb
     RDKit          3D

 26 26  0  0  1  0  0  0  0  0999 V2000
   14.5349  -12.6625  -13.0436 N   0  0  0  0  0  0  0  0  0  0  0  0
   15.6383  -12.0377  -12.3419 C   0  0  1  0  0  0  0  0  0  0  0  0
   16.9281  -12.1647  -13.1227 C   0  0  0  0  0  0  0  0  0  0  0  0
   17.5066  -13.8860  -13.0164 S   0  0  0  0  0  0  0  0  0  0  0  0
   15.3304  -10.6082  -12.1405 C   0  0  0  0  0  0  0  0  0  0  0  0
   14.6575  -10.0144  -13.0201 O   0  0  0  0  0  0  0  0  0  0  0  0
   14.9461   -6.2329   -6.5560 N   0  0  0  0  0  0  0  0  0  0  0  0
   14.1676   -6.8768   -7.5419 C   0  0  0  0  0  0  0  0  0  0  0  0
   13.0649   -7.3701   -7.2379 O   0  0  0  0  0  0  0  0  0  0  0  0
   14.6891   -6.9499   -8.9294 C   0  0  0  0  0  0  0  0  0  0  0  0
   14.9286   -8.3667   -9.3497 C   0  0  0  0  0  0  0  0  0  0  0  0
   15.3593   -8.4853  -10.7623 C   0  0  2  0  0  0  0  0  0  0  0  0
   15.7518   -9.8685  -11.0101 N   0  0  0  0  0  0  0  0  0  0  0  0
   16.3760   -7.5403  -11.2296 C   0  0  0  0  0  0  0  0  0  0  0  0
   16.2417   -6.2880  -11.1982 O   0  0  0  0  0  0  0  0  0  0  0  0
   17.6019   -8.0644  -11.7565 N   0  0  0  0  0  0  0  0  0  0  0  0
   18.6287   -7.2405  -12.3623 C   0  0  1  0  0  0  0  0  0  0  0  0
   19.8365   -8.0099  -12.7594 C   0  0  0  0  0  0  0  0  0  0  0  0
   20.8465   -7.1076  -13.3565 C   0  0  0  0  0  0  0  0  0  0  0  0
   21.4282   -5.9563  -12.8585 C   0  0  0  0  0  0  0  0  0  0  0  0
   22.2746   -5.4921  -13.7906 N   0  0  0  0  0  0  0  0  0  0  0  0
   22.2615   -6.2952  -14.8654 C   0  0  0  0  0  0  0  0  0  0  0  0
   21.3944   -7.2665  -14.5888 N   0  0  0  0  0  0  0  0  0  0  0  0
   18.0568   -6.3724  -13.4218 C   0  0  0  0  0  0  0  0  0  0  0  0
   18.3147   -4.9821  -13.4305 O   0  0  0  0  0  0  0  0  0  0  0  0
   17.3283   -6.7760  -14.3595 O   0  0  0  0  0  0  0  0  0  0  0  0
  2  1  1  6
  2  5  1  0
  3  2  1  0
  4  3  1  0
  5  6  2  0
  7  8  1  0
  8  9  2  0
  8 10  1  0
 10 11  1  0
 12 11  1  1
 12 14  1  0
 13  5  1  0
 13 12  1  0
 14 15  2  0
 16 17  1  0
 16 14  1  0
 17 24  1  0
 18 19  1  0
 17 18  1  6
 19 20  2  0
 19 23  1  0
 20 21  1  0
 21 22  1  0
 23 22  2  0
 24 26  2  0
 24 25  1  0
M  END
$$$$
