CQH.pdb
     RDKit          3D

 26 26  0  0  1  0  0  0  0  0999 V2000
   22.4171  -14.7414  -15.8428 N   0  0  0  0  0  0  0  0  0  0  0  0
   21.7645  -13.6949  -16.6038 C   0  0  1  0  0  0  0  0  0  0  0  0
   20.2827  -13.6399  -16.3033 C   0  0  0  0  0  0  0  0  0  0  0  0
   19.5303  -15.2232  -16.7889 S   0  0  0  0  0  0  0  0  0  0  0  0
   22.3791  -12.3977  -16.2599 C   0  0  0  0  0  0  0  0  0  0  0  0
   22.3264  -12.0120  -15.0650 O   0  0  0  0  0  0  0  0  0  0  0  0
   26.9234   -9.3540  -19.1503 N   0  0  0  0  0  0  0  0  0  0  0  0
   26.3859   -8.2831  -18.4041 C   0  0  0  0  0  0  0  0  0  0  0  0
   26.9217   -7.1598  -18.4557 O   0  0  0  0  0  0  0  0  0  0  0  0
   25.1836   -8.5266  -17.5687 C   0  0  0  0  0  0  0  0  0  0  0  0
   24.6513   -9.9117  -17.7670 C   0  0  0  0  0  0  0  0  0  0  0  0
   23.4911  -10.2149  -16.8967 C   0  0  2  0  0  0  0  0  0  0  0  0
   23.0251  -11.5632  -17.2026 N   0  0  0  0  0  0  0  0  0  0  0  0
   22.3911   -9.2479  -16.8935 C   0  0  0  0  0  0  0  0  0  0  0  0
   21.5592   -9.1236  -17.8315 O   0  0  0  0  0  0  0  0  0  0  0  0
   22.2452   -8.3863  -15.7570 N   0  0  0  0  0  0  0  0  0  0  0  0
   21.2218   -7.3655  -15.6538 C   0  0  1  0  0  0  0  0  0  0  0  0
   20.3763   -7.5063  -14.4398 C   0  0  0  0  0  0  0  0  0  0  0  0
   19.3822   -8.5864  -14.6292 C   0  0  0  0  0  0  0  0  0  0  0  0
   19.1236   -9.3863  -15.7270 C   0  0  0  0  0  0  0  0  0  0  0  0
   18.1109  -10.2054  -15.4041 N   0  0  0  0  0  0  0  0  0  0  0  0
   17.7080   -9.9661  -14.1468 C   0  0  0  0  0  0  0  0  0  0  0  0
   18.4849   -8.9858  -13.6915 N   0  0  0  0  0  0  0  0  0  0  0  0
   21.7961   -6.0139  -15.8696 C   0  0  0  0  0  0  0  0  0  0  0  0
   20.9663   -4.8689  -15.8581 O   0  0  0  0  0  0  0  0  0  0  0  0
   23.0112   -5.7783  -16.0718 O   0  0  0  0  0  0  0  0  0  0  0  0
  2  1  1  1
  2  5  1  0
  3  2  1  0
  4  3  1  0
  5  6  2  0
  7  8  1  0
  8  9  2  0
  8 10  1  0
 10 11  1  0
 12 11  1  6
 12 14  1  0
 13  5  1  0
 13 12  1  0
 14 15  2  0
 16 17  1  0
 16 14  1  0
 17 24  1  0
 18 19  1  0
 17 18  1  1
 19 20  2  0
 19 23  1  0
 20 21  1  0
 21 22  1  0
 23 22  2  0
 24 26  2  0
 24 25  1  0
M  END
$$$$
