CQH.pdb
     RDKit          3D

 26 26  0  0  1  0  0  0  0  0999 V2000
   19.8306  -15.4824  -15.4249 N   0  0  0  0  0  0  0  0  0  0  0  0
   19.6607  -14.3835  -16.3543 C   0  0  1  0  0  0  0  0  0  0  0  0
   18.1964  -14.1049  -16.6136 C   0  0  0  0  0  0  0  0  0  0  0  0
   17.3983  -15.6447  -17.1621 S   0  0  0  0  0  0  0  0  0  0  0  0
   20.2930  -13.1754  -15.7890 C   0  0  0  0  0  0  0  0  0  0  0  0
   19.9580  -12.8134  -14.6332 O   0  0  0  0  0  0  0  0  0  0  0  0
   25.9457  -11.1701  -17.0874 N   0  0  0  0  0  0  0  0  0  0  0  0
   25.5530  -10.1786  -16.1626 C   0  0  0  0  0  0  0  0  0  0  0  0
   26.3938   -9.3713  -15.7234 O   0  0  0  0  0  0  0  0  0  0  0  0
   24.1333  -10.1235  -15.7335 C   0  0  0  0  0  0  0  0  0  0  0  0
   23.3507  -11.2751  -16.2837 C   0  0  0  0  0  0  0  0  0  0  0  0
   21.9214  -11.2405  -15.8950 C   0  0  2  0  0  0  0  0  0  0  0  0
   21.2569  -12.4013  -16.4777 N   0  0  0  0  0  0  0  0  0  0  0  0
   21.1879  -10.0021  -16.1659 C   0  0  0  0  0  0  0  0  0  0  0  0
   20.7503   -9.6762  -17.3015 O   0  0  0  0  0  0  0  0  0  0  0  0
   20.9491   -9.1002  -15.0775 N   0  0  0  0  0  0  0  0  0  0  0  0
   20.3460   -7.7926  -15.2405 C   0  0  1  0  0  0  0  0  0  0  0  0
   19.0145   -7.6781  -14.5905 C   0  0  0  0  0  0  0  0  0  0  0  0
   17.9686   -8.2687  -15.4554 C   0  0  0  0  0  0  0  0  0  0  0  0
   18.0564   -8.8247  -16.7183 C   0  0  0  0  0  0  0  0  0  0  0  0
   16.8219   -9.2045  -17.0824 N   0  0  0  0  0  0  0  0  0  0  0  0
   15.9455   -8.9164  -16.1081 C   0  0  0  0  0  0  0  0  0  0  0  0
   16.6524   -8.3516  -15.1320 N   0  0  0  0  0  0  0  0  0  0  0  0
   21.3097   -6.7167  -14.8986 C   0  0  0  0  0  0  0  0  0  0  0  0
   21.0572   -5.3774  -15.2756 O   0  0  0  0  0  0  0  0  0  0  0  0
   22.3832   -6.8917  -14.2742 O   0  0  0  0  0  0  0  0  0  0  0  0
  2  1  1  1
  2  5  1  0
  3  2  1  0
  4  3  1  0
  5  6  2  0
  7  8  1  0
  8  9  2  0
  8 10  1  0
 10 11  1  0
 12 11  1  6
 12 14  1  0
 13  5  1  0
 13 12  1  0
 14 15  2  0
 16 17  1  0
 16 14  1  0
 17 24  1  0
 18 19  1  0
 17 18  1  1
 19 20  2  0
 19 23  1  0
 20 21  1  0
 21 22  1  0
 23 22  2  0
 24 26  2  0
 24 25  1  0
M  END
$$$$
