CQH.pdb
     RDKit          3D

 26 26  0  0  1  0  0  0  0  0999 V2000
   28.9667  -23.7835  -17.8045 N   0  0  0  0  0  0  0  0  0  0  0  0
   28.2429  -24.4828  -16.7618 C   0  0  1  0  0  0  0  0  0  0  0  0
   27.1361  -23.6237  -16.1907 C   0  0  0  0  0  0  0  0  0  0  0  0
   27.8840  -22.2119  -15.3211 S   0  0  0  0  0  0  0  0  0  0  0  0
   27.6594  -25.7152  -17.3272 C   0  0  0  0  0  0  0  0  0  0  0  0
   27.1957  -25.6734  -18.4944 O   0  0  0  0  0  0  0  0  0  0  0  0
   29.1238  -31.5226  -15.8963 N   0  0  0  0  0  0  0  0  0  0  0  0
   28.0649  -31.7633  -16.7982 C   0  0  0  0  0  0  0  0  0  0  0  0
   27.8313  -32.9238  -17.1860 O   0  0  0  0  0  0  0  0  0  0  0  0
   27.2491  -30.6150  -17.2656 C   0  0  0  0  0  0  0  0  0  0  0  0
   27.7555  -29.3214  -16.7076 C   0  0  0  0  0  0  0  0  0  0  0  0
   26.9789  -28.1483  -17.1725 C   0  0  2  0  0  0  0  0  0  0  0  0
   27.5933  -26.9429  -16.6264 N   0  0  0  0  0  0  0  0  0  0  0  0
   25.5329  -28.1733  -16.9411 C   0  0  0  0  0  0  0  0  0  0  0  0
   24.9986  -28.0566  -15.8061 O   0  0  0  0  0  0  0  0  0  0  0  0
   24.6655  -28.3406  -18.0702 N   0  0  0  0  0  0  0  0  0  0  0  0
   23.2195  -28.3253  -17.9765 C   0  0  1  0  0  0  0  0  0  0  0  0
   22.6481  -26.9535  -17.9799 C   0  0  0  0  0  0  0  0  0  0  0  0
   22.5968  -26.4156  -16.6019 C   0  0  0  0  0  0  0  0  0  0  0  0
   22.9712  -26.9878  -15.4002 C   0  0  0  0  0  0  0  0  0  0  0  0
   22.7113  -26.0998  -14.4282 N   0  0  0  0  0  0  0  0  0  0  0  0
   22.1864  -24.9823  -14.9537 C   0  0  0  0  0  0  0  0  0  0  0  0
   22.1232  -25.1877  -16.2673 N   0  0  0  0  0  0  0  0  0  0  0  0
   22.6139  -29.2635  -18.9545 C   0  0  0  0  0  0  0  0  0  0  0  0
   21.3608  -29.8649  -18.6943 O   0  0  0  0  0  0  0  0  0  0  0  0
   23.1353  -29.5908  -20.0471 O   0  0  0  0  0  0  0  0  0  0  0  0
  2  1  1  6
  2  5  1  0
  3  2  1  0
  4  3  1  0
  5  6  2  0
  7  8  1  0
  8  9  2  0
  8 10  1  0
 10 11  1  0
 12 11  1  1
 12 14  1  0
 13  5  1  0
 13 12  1  0
 14 15  2  0
 16 17  1  0
 16 14  1  0
 17 24  1  0
 18 19  1  0
 17 18  1  6
 19 20  2  0
 19 23  1  0
 20 21  1  0
 21 22  1  0
 23 22  2  0
 24 26  2  0
 24 25  1  0
M  END
$$$$
