CQH.pdb
     RDKit          3D

 26 26  0  0  1  0  0  0  0  0999 V2000
   14.0469  -12.3264  -12.8621 N   0  0  0  0  0  0  0  0  0  0  0  0
   15.3979  -11.8360  -13.0480 C   0  0  1  0  0  0  0  0  0  0  0  0
   15.9275  -12.1921  -14.4198 C   0  0  0  0  0  0  0  0  0  0  0  0
   17.6637  -11.6607  -14.5302 S   0  0  0  0  0  0  0  0  0  0  0  0
   15.4009  -10.3682  -12.8914 C   0  0  0  0  0  0  0  0  0  0  0  0
   14.6708   -9.6866  -13.6540 O   0  0  0  0  0  0  0  0  0  0  0  0
   15.2688   -6.8079   -8.0538 N   0  0  0  0  0  0  0  0  0  0  0  0
   14.2192   -7.3771   -8.8068 C   0  0  0  0  0  0  0  0  0  0  0  0
   13.0765   -7.4573   -8.3175 O   0  0  0  0  0  0  0  0  0  0  0  0
   14.5080   -7.8701  -10.1765 C   0  0  0  0  0  0  0  0  0  0  0  0
   15.9707   -7.7966  -10.4871 C   0  0  0  0  0  0  0  0  0  0  0  0
   16.2910   -8.2318  -11.8667 C   0  0  2  0  0  0  0  0  0  0  0  0
   16.1815   -9.6853  -11.9287 N   0  0  0  0  0  0  0  0  0  0  0  0
   17.5535   -7.7575  -12.4378 C   0  0  0  0  0  0  0  0  0  0  0  0
   18.5455   -8.4992  -12.6684 O   0  0  0  0  0  0  0  0  0  0  0  0
   17.6760   -6.3653  -12.7569 N   0  0  0  0  0  0  0  0  0  0  0  0
   18.8184   -5.8007  -13.4470 C   0  0  1  0  0  0  0  0  0  0  0  0
   19.1746   -6.5379  -14.6872 C   0  0  0  0  0  0  0  0  0  0  0  0
   19.8901   -7.7897  -14.3527 C   0  0  0  0  0  0  0  0  0  0  0  0
   19.5890   -9.1045  -14.6565 C   0  0  0  0  0  0  0  0  0  0  0  0
   20.5416   -9.8765  -14.1112 N   0  0  0  0  0  0  0  0  0  0  0  0
   21.4412   -9.1144  -13.4707 C   0  0  0  0  0  0  0  0  0  0  0  0
   21.0346   -7.8564  -13.6251 N   0  0  0  0  0  0  0  0  0  0  0  0
   18.6706   -4.3324  -13.6060 C   0  0  0  0  0  0  0  0  0  0  0  0
   19.7429   -3.5494  -14.0929 O   0  0  0  0  0  0  0  0  0  0  0  0
   17.6305   -3.6860  -13.3354 O   0  0  0  0  0  0  0  0  0  0  0  0
  2  1  1  6
  2  5  1  0
  3  2  1  0
  4  3  1  0
  5  6  2  0
  7  8  1  0
  8  9  2  0
  8 10  1  0
 10 11  1  0
 12 11  1  1
 12 14  1  0
 13  5  1  0
 13 12  1  0
 14 15  2  0
 16 17  1  0
 16 14  1  0
 17 24  1  0
 18 19  1  0
 17 18  1  6
 19 20  2  0
 19 23  1  0
 20 21  1  0
 21 22  1  0
 23 22  2  0
 24 26  2  0
 24 25  1  0
M  END
$$$$
