CQH.pdb
     RDKit          3D

 26 26  0  0  1  0  0  0  0  0999 V2000
   39.0049   -8.2431  -11.9463 N   0  0  0  0  0  0  0  0  0  0  0  0
   37.6017   -7.9453  -12.1522 C   0  0  1  0  0  0  0  0  0  0  0  0
   37.2470   -6.5748  -11.6180 C   0  0  0  0  0  0  0  0  0  0  0  0
   37.3342   -6.6168   -9.8015 S   0  0  0  0  0  0  0  0  0  0  0  0
   37.3081   -7.9947  -13.5979 C   0  0  0  0  0  0  0  0  0  0  0  0
   38.1919   -7.5985  -14.3988 O   0  0  0  0  0  0  0  0  0  0  0  0
   33.6007  -11.9658  -16.4597 N   0  0  0  0  0  0  0  0  0  0  0  0
   33.9588  -11.1545  -17.5579 C   0  0  0  0  0  0  0  0  0  0  0  0
   33.6421  -11.4977  -18.7127 O   0  0  0  0  0  0  0  0  0  0  0  0
   34.7114   -9.9006  -17.3049 C   0  0  0  0  0  0  0  0  0  0  0  0
   35.0217   -9.7332  -15.8499 C   0  0  0  0  0  0  0  0  0  0  0  0
   35.7942   -8.5021  -15.5619 C   0  0  2  0  0  0  0  0  0  0  0  0
   36.0850   -8.4641  -14.1327 N   0  0  0  0  0  0  0  0  0  0  0  0
   35.2297   -7.2363  -16.0351 C   0  0  0  0  0  0  0  0  0  0  0  0
   35.1057   -6.9307  -17.2511 O   0  0  0  0  0  0  0  0  0  0  0  0
   34.7889   -6.2810  -15.0613 N   0  0  0  0  0  0  0  0  0  0  0  0
   34.2384   -4.9852  -15.4048 C   0  0  1  0  0  0  0  0  0  0  0  0
   32.7562   -4.9362  -15.3095 C   0  0  0  0  0  0  0  0  0  0  0  0
   32.1443   -5.6018  -16.4813 C   0  0  0  0  0  0  0  0  0  0  0  0
   32.7305   -6.2163  -17.5724 C   0  0  0  0  0  0  0  0  0  0  0  0
   31.7449   -6.6529  -18.3717 N   0  0  0  0  0  0  0  0  0  0  0  0
   30.5515   -6.3455  -17.8411 C   0  0  0  0  0  0  0  0  0  0  0  0
   30.8085   -5.7109  -16.6996 N   0  0  0  0  0  0  0  0  0  0  0  0
   34.9531   -3.8981  -14.6901 C   0  0  0  0  0  0  0  0  0  0  0  0
   34.9997   -3.8748  -13.2769 O   0  0  0  0  0  0  0  0  0  0  0  0
   35.5509   -2.9483  -15.2498 O   0  0  0  0  0  0  0  0  0  0  0  0
  2  1  1  6
  2  5  1  0
  3  2  1  0
  4  3  1  0
  5  6  2  0
  7  8  1  0
  8  9  2  0
  8 10  1  0
 10 11  1  0
 12 11  1  1
 12 14  1  0
 13  5  1  0
 13 12  1  0
 14 15  2  0
 16 17  1  0
 16 14  1  0
 17 24  1  0
 18 19  1  0
 17 18  1  1
 19 20  2  0
 19 23  1  0
 20 21  1  0
 21 22  1  0
 23 22  2  0
 24 26  2  0
 24 25  1  0
M  END
$$$$
