CQH.pdb
     RDKit          3D

 26 26  0  0  1  0  0  0  0  0999 V2000
   14.9112   -9.8606   -9.8476 N   0  0  0  0  0  0  0  0  0  0  0  0
   15.0621   -8.5703  -10.4899 C   0  0  1  0  0  0  0  0  0  0  0  0
   15.1565   -7.4567   -9.4699 C   0  0  0  0  0  0  0  0  0  0  0  0
   13.5205   -7.2224   -8.7098 S   0  0  0  0  0  0  0  0  0  0  0  0
   16.2892   -8.5837  -11.3102 C   0  0  0  0  0  0  0  0  0  0  0  0
   17.3297   -9.0870  -10.8169 O   0  0  0  0  0  0  0  0  0  0  0  0
   16.1912   -9.7511  -17.2018 N   0  0  0  0  0  0  0  0  0  0  0  0
   17.5887   -9.6388  -17.0380 C   0  0  0  0  0  0  0  0  0  0  0  0
   18.3511   -9.9659  -17.9673 O   0  0  0  0  0  0  0  0  0  0  0  0
   18.1186   -9.1285  -15.7491 C   0  0  0  0  0  0  0  0  0  0  0  0
   17.0131   -8.8101  -14.7910 C   0  0  0  0  0  0  0  0  0  0  0  0
   17.5029   -8.2560  -13.5071 C   0  0  2  0  0  0  0  0  0  0  0  0
   16.3589   -8.0603  -12.6231 N   0  0  0  0  0  0  0  0  0  0  0  0
   18.3461   -7.0606  -13.5768 C   0  0  0  0  0  0  0  0  0  0  0  0
   17.8983   -5.8837  -13.6180 O   0  0  0  0  0  0  0  0  0  0  0  0
   19.7693   -7.2316  -13.6000 N   0  0  0  0  0  0  0  0  0  0  0  0
   20.7057   -6.1288  -13.6836 C   0  0  1  0  0  0  0  0  0  0  0  0
   21.7732   -6.1891  -12.6515 C   0  0  0  0  0  0  0  0  0  0  0  0
   21.2041   -5.9349  -11.3090 C   0  0  0  0  0  0  0  0  0  0  0  0
   19.9241   -5.5748  -10.9299 C   0  0  0  0  0  0  0  0  0  0  0  0
   19.9160   -5.4476   -9.5941 N   0  0  0  0  0  0  0  0  0  0  0  0
   21.1351   -5.7104   -9.0991 C   0  0  0  0  0  0  0  0  0  0  0  0
   21.9025   -6.0031  -10.1465 N   0  0  0  0  0  0  0  0  0  0  0  0
   21.1842   -5.9426  -15.0763 C   0  0  0  0  0  0  0  0  0  0  0  0
   22.0396   -4.8658  -15.4058 O   0  0  0  0  0  0  0  0  0  0  0  0
   20.8865   -6.6888  -16.0393 O   0  0  0  0  0  0  0  0  0  0  0  0
  2  1  1  1
  2  5  1  0
  3  2  1  0
  4  3  1  0
  5  6  2  0
  7  8  1  0
  8  9  2  0
  8 10  1  0
 10 11  1  0
 12 11  1  6
 12 14  1  0
 13  5  1  0
 13 12  1  0
 14 15  2  0
 16 17  1  0
 16 14  1  0
 17 24  1  0
 18 19  1  0
 17 18  1  1
 19 20  2  0
 19 23  1  0
 20 21  1  0
 21 22  1  0
 23 22  2  0
 24 26  2  0
 24 25  1  0
M  END
$$$$
