WPH.pdb
     RDKit          3D

 32 35  0  0  1  0  0  0  0  0999 V2000
   25.1065  -18.9816  -11.1856 N   0  0  0  0  0  0  0  0  0  0  0  0
   25.5975  -20.2900  -11.6473 C   0  0  1  0  0  0  0  0  0  0  0  0
   25.4271  -21.2071  -10.4401 C   0  0  0  0  0  0  0  0  0  0  0  0
   26.1306  -20.6769   -9.2375 C   0  0  0  0  0  0  0  0  0  0  0  0
   25.4644  -20.0061   -8.2040 C   0  0  0  0  0  0  0  0  0  0  0  0
   26.3387  -19.6897   -7.2549 N   0  0  0  0  0  0  0  0  0  0  0  0
   27.5639  -20.1306   -7.6284 C   0  0  0  0  0  0  0  0  0  0  0  0
   28.7724  -20.0287   -6.9818 C   0  0  0  0  0  0  0  0  0  0  0  0
   29.8882  -20.5594   -7.5951 C   0  0  0  0  0  0  0  0  0  0  0  0
   29.7651  -21.1674   -8.8197 C   0  0  0  0  0  0  0  0  0  0  0  0
   28.5504  -21.2739   -9.4773 C   0  0  0  0  0  0  0  0  0  0  0  0
   27.4411  -20.7408   -8.8538 C   0  0  0  0  0  0  0  0  0  0  0  0
   24.8349  -20.7592  -12.8054 C   0  0  0  0  0  0  0  0  0  0  0  0
   23.5704  -20.5556  -12.7624 O   0  0  0  0  0  0  0  0  0  0  0  0
   25.4053  -21.4089  -13.9443 N   0  0  0  0  0  0  0  0  0  0  0  0
   26.7722  -21.7575  -14.0677 C   0  0  0  0  0  0  0  0  0  0  0  0
   26.8653  -22.5304  -15.3707 C   0  0  0  0  0  0  0  0  0  0  0  0
   25.6761  -21.9865  -16.1815 C   0  0  0  0  0  0  0  0  0  0  0  0
   24.6816  -21.7972  -15.1061 C   0  0  1  0  0  0  0  0  0  0  0  0
   23.7876  -22.9600  -14.8927 C   0  0  0  0  0  0  0  0  0  0  0  0
   23.9506  -23.6186  -13.8376 O   0  0  0  0  0  0  0  0  0  0  0  0
   22.7715  -23.3793  -15.7868 N   0  0  0  0  0  0  0  0  0  0  0  0
   21.3664  -23.4104  -15.4355 C   0  0  1  0  0  0  0  0  0  0  0  0
   20.9518  -22.0465  -14.9092 C   0  0  0  0  0  0  0  0  0  0  0  0
   20.6157  -22.1073  -13.4602 C   0  0  0  0  0  0  0  0  0  0  0  0
   20.7093  -23.2017  -12.6415 C   0  0  0  0  0  0  0  0  0  0  0  0
   20.3144  -22.8521  -11.4081 N   0  0  0  0  0  0  0  0  0  0  0  0
   19.9813  -21.5426  -11.4806 C   0  0  0  0  0  0  0  0  0  0  0  0
   20.1623  -21.0880  -12.7214 N   0  0  0  0  0  0  0  0  0  0  0  0
   20.5024  -23.7388  -16.5826 C   0  0  0  0  0  0  0  0  0  0  0  0
   19.7671  -24.9087  -16.5388 O   0  0  0  0  0  0  0  0  0  0  0  0
   20.4025  -23.0097  -17.5941 O   0  0  0  0  0  0  0  0  0  0  0  0
  2  3  1  0
  2  1  1  1
  4  5  2  0
  4  3  1  0
  6  5  1  0
  7 12  2  0
  7  6  1  0
  8  7  1  0
  9 10  1  0
  9  8  2  0
 10 11  2  0
 11 12  1  0
 12  4  1  0
 13  2  1  0
 14 13  2  0
 15 13  1  0
 16 15  1  0
 17 16  1  0
 18 19  1  0
 18 17  1  0
 19 15  1  0
 20 22  1  0
 19 20  1  1
 21 20  2  0
 23 22  1  0
 23 30  1  0
 23 24  1  6
 25 29  1  0
 25 24  1  0
 26 25  2  0
 27 26  1  0
 27 28  1  0
 28 29  2  0
 30 31  1  0
 32 30  2  0
M  END
$$$$
