WPH.pdb
     RDKit          3D

 32 35  0  0  1  0  0  0  0  0999 V2000
   25.6452  -15.0563  -18.3048 N   0  0  0  0  0  0  0  0  0  0  0  0
   25.6840  -13.6946  -18.8620 C   0  0  1  0  0  0  0  0  0  0  0  0
   24.5042  -13.6458  -19.8281 C   0  0  0  0  0  0  0  0  0  0  0  0
   24.7510  -14.4682  -21.0466 C   0  0  0  0  0  0  0  0  0  0  0  0
   25.3239  -15.7453  -20.9958 C   0  0  0  0  0  0  0  0  0  0  0  0
   25.3810  -16.2468  -22.2249 N   0  0  0  0  0  0  0  0  0  0  0  0
   24.8632  -15.3404  -23.0883 C   0  0  0  0  0  0  0  0  0  0  0  0
   24.7184  -15.4061  -24.4534 C   0  0  0  0  0  0  0  0  0  0  0  0
   24.1635  -14.3238  -25.1043 C   0  0  0  0  0  0  0  0  0  0  0  0
   23.7754  -13.2230  -24.3817 C   0  0  0  0  0  0  0  0  0  0  0  0
   23.9182  -13.1499  -23.0056 C   0  0  0  0  0  0  0  0  0  0  0  0
   24.4732  -14.2386  -22.3652 C   0  0  0  0  0  0  0  0  0  0  0  0
   25.5693  -12.6898  -17.8037 C   0  0  0  0  0  0  0  0  0  0  0  0
   24.7656  -12.9742  -16.8470 O   0  0  0  0  0  0  0  0  0  0  0  0
   26.2826  -11.4507  -17.7796 N   0  0  0  0  0  0  0  0  0  0  0  0
   27.2804  -11.0814  -18.7140 C   0  0  0  0  0  0  0  0  0  0  0  0
   27.6419   -9.6507  -18.3591 C   0  0  0  0  0  0  0  0  0  0  0  0
   27.2931   -9.5664  -16.8629 C   0  0  0  0  0  0  0  0  0  0  0  0
   26.0878  -10.4191  -16.8194 C   0  0  1  0  0  0  0  0  0  0  0  0
   24.8138   -9.6803  -16.9858 C   0  0  0  0  0  0  0  0  0  0  0  0
   24.4068   -9.5022  -18.1590 O   0  0  0  0  0  0  0  0  0  0  0  0
   24.0289   -9.1635  -15.9253 N   0  0  0  0  0  0  0  0  0  0  0  0
   22.7279   -8.5572  -16.1212 C   0  0  1  0  0  0  0  0  0  0  0  0
   21.6773   -9.3812  -15.3959 C   0  0  0  0  0  0  0  0  0  0  0  0
   20.3214   -8.7881  -15.5567 C   0  0  0  0  0  0  0  0  0  0  0  0
   20.0095   -7.6128  -16.1879 C   0  0  0  0  0  0  0  0  0  0  0  0
   18.6832   -7.4254  -16.1189 N   0  0  0  0  0  0  0  0  0  0  0  0
   18.1909   -8.4903  -15.4445 C   0  0  0  0  0  0  0  0  0  0  0  0
   19.1796   -9.3175  -15.1024 N   0  0  0  0  0  0  0  0  0  0  0  0
   22.6617   -7.1784  -15.6066 C   0  0  0  0  0  0  0  0  0  0  0  0
   21.6024   -6.3804  -15.9970 O   0  0  0  0  0  0  0  0  0  0  0  0
   23.5184   -6.6954  -14.8335 O   0  0  0  0  0  0  0  0  0  0  0  0
  2  3  1  0
  2  1  1  1
  4  5  2  0
  4  3  1  0
  6  5  1  0
  7 12  2  0
  7  6  1  0
  8  7  1  0
  9 10  1  0
  9  8  2  0
 10 11  2  0
 11 12  1  0
 12  4  1  0
 13  2  1  0
 14 13  2  0
 15 13  1  0
 16 15  1  0
 17 16  1  0
 18 19  1  0
 18 17  1  0
 19 15  1  0
 20 22  1  0
 19 20  1  6
 21 20  2  0
 23 22  1  0
 23 30  1  0
 23 24  1  1
 25 29  1  0
 25 24  1  0
 26 25  2  0
 27 26  1  0
 27 28  1  0
 28 29  2  0
 30 31  1  0
 32 30  2  0
M  END
$$$$
