WPH.pdb
     RDKit          3D

 32 35  0  0  1  0  0  0  0  0999 V2000
   21.7874  -18.0795  -14.1552 N   0  0  0  0  0  0  0  0  0  0  0  0
   22.1172  -19.2999  -13.4016 C   0  0  1  0  0  0  0  0  0  0  0  0
   21.1755  -20.3600  -13.9646 C   0  0  0  0  0  0  0  0  0  0  0  0
   20.7732  -20.0556  -15.3673 C   0  0  0  0  0  0  0  0  0  0  0  0
   19.6394  -19.2961  -15.6828 C   0  0  0  0  0  0  0  0  0  0  0  0
   19.5604  -19.1578  -17.0018 N   0  0  0  0  0  0  0  0  0  0  0  0
   20.6076  -19.8029  -17.5698 C   0  0  0  0  0  0  0  0  0  0  0  0
   20.9422  -19.9441  -18.8952 C   0  0  0  0  0  0  0  0  0  0  0  0
   22.0707  -20.6721  -19.2101 C   0  0  0  0  0  0  0  0  0  0  0  0
   22.8210  -21.2301  -18.2049 C   0  0  0  0  0  0  0  0  0  0  0  0
   22.4899  -21.0917  -16.8668 C   0  0  0  0  0  0  0  0  0  0  0  0
   21.3599  -20.3605  -16.5637 C   0  0  0  0  0  0  0  0  0  0  0  0
   23.5237  -19.6643  -13.5801 C   0  0  0  0  0  0  0  0  0  0  0  0
   24.0865  -19.2195  -14.6420 O   0  0  0  0  0  0  0  0  0  0  0  0
   24.2788  -20.4613  -12.6639 N   0  0  0  0  0  0  0  0  0  0  0  0
   23.7867  -20.9447  -11.4273 C   0  0  0  0  0  0  0  0  0  0  0  0
   24.8906  -21.8339  -10.8848 C   0  0  0  0  0  0  0  0  0  0  0  0
   26.1557  -21.2549  -11.5419 C   0  0  0  0  0  0  0  0  0  0  0  0
   25.6229  -20.8808  -12.8676 C   0  0  1  0  0  0  0  0  0  0  0  0
   25.7708  -21.9324  -13.9015 C   0  0  0  0  0  0  0  0  0  0  0  0
   24.7929  -22.6975  -14.0808 O   0  0  0  0  0  0  0  0  0  0  0  0
   26.9271  -22.1359  -14.6949 N   0  0  0  0  0  0  0  0  0  0  0  0
   27.0075  -23.1340  -15.7418 C   0  0  1  0  0  0  0  0  0  0  0  0
   25.9422  -22.8497  -16.7874 C   0  0  0  0  0  0  0  0  0  0  0  0
   26.0919  -21.4800  -17.3509 C   0  0  0  0  0  0  0  0  0  0  0  0
   27.0415  -20.5525  -17.0116 C   0  0  0  0  0  0  0  0  0  0  0  0
   26.8404  -19.4440  -17.7395 N   0  0  0  0  0  0  0  0  0  0  0  0
   25.7666  -19.7013  -18.5217 C   0  0  0  0  0  0  0  0  0  0  0  0
   25.3106  -20.9330  -18.2892 N   0  0  0  0  0  0  0  0  0  0  0  0
   28.3174  -23.1442  -16.4159 C   0  0  0  0  0  0  0  0  0  0  0  0
   28.5752  -24.1416  -17.3379 O   0  0  0  0  0  0  0  0  0  0  0  0
   29.2072  -22.2936  -16.1936 O   0  0  0  0  0  0  0  0  0  0  0  0
  2  3  1  0
  2  1  1  6
  4  5  2  0
  4  3  1  0
  6  5  1  0
  7 12  2  0
  7  6  1  0
  8  7  1  0
  9 10  1  0
  9  8  2  0
 10 11  2  0
 11 12  1  0
 12  4  1  0
 13  2  1  0
 14 13  2  0
 15 13  1  0
 16 15  1  0
 17 16  1  0
 18 19  1  0
 18 17  1  0
 19 15  1  0
 20 22  1  0
 19 20  1  6
 21 20  2  0
 23 22  1  0
 23 30  1  0
 23 24  1  6
 25 29  1  0
 25 24  1  0
 26 25  2  0
 27 26  1  0
 27 28  1  0
 28 29  2  0
 30 31  1  0
 32 30  2  0
M  END
$$$$
