WPH.pdb
     RDKit          3D

 32 35  0  0  1  0  0  0  0  0999 V2000
   24.7388  -20.0892   -8.8310 N   0  0  0  0  0  0  0  0  0  0  0  0
   26.0232  -19.8810   -9.5187 C   0  0  1  0  0  0  0  0  0  0  0  0
   27.0318  -20.6656   -8.6852 C   0  0  0  0  0  0  0  0  0  0  0  0
   27.4534  -19.9113   -7.4705 C   0  0  0  0  0  0  0  0  0  0  0  0
   27.2324  -18.5368   -7.3172 C   0  0  0  0  0  0  0  0  0  0  0  0
   27.6758  -18.1542   -6.1246 N   0  0  0  0  0  0  0  0  0  0  0  0
   28.1840  -19.2338   -5.4832 C   0  0  0  0  0  0  0  0  0  0  0  0
   28.7600  -19.3297   -4.2391 C   0  0  0  0  0  0  0  0  0  0  0  0
   29.2141  -20.5639   -3.8229 C   0  0  0  0  0  0  0  0  0  0  0  0
   29.0812  -21.6508   -4.6510 C   0  0  0  0  0  0  0  0  0  0  0  0
   28.5015  -21.5616   -5.9061 C   0  0  0  0  0  0  0  0  0  0  0  0
   28.0499  -20.3225   -6.3113 C   0  0  0  0  0  0  0  0  0  0  0  0
   25.9633  -20.3587  -10.9011 C   0  0  0  0  0  0  0  0  0  0  0  0
   24.8222  -20.7881  -11.2957 O   0  0  0  0  0  0  0  0  0  0  0  0
   27.0712  -20.3702  -11.8051 N   0  0  0  0  0  0  0  0  0  0  0  0
   28.4081  -20.6503  -11.4317 C   0  0  0  0  0  0  0  0  0  0  0  0
   29.1845  -20.6728  -12.7356 C   0  0  0  0  0  0  0  0  0  0  0  0
   28.3483  -19.7629  -13.6522 C   0  0  0  0  0  0  0  0  0  0  0  0
   26.9847  -20.1063  -13.2005 C   0  0  1  0  0  0  0  0  0  0  0  0
   26.3429  -21.1941  -13.9760 C   0  0  0  0  0  0  0  0  0  0  0  0
   26.6332  -22.3715  -13.6548 O   0  0  0  0  0  0  0  0  0  0  0  0
   25.4337  -21.0029  -15.0459 N   0  0  0  0  0  0  0  0  0  0  0  0
   24.0058  -21.2144  -14.9233 C   0  0  1  0  0  0  0  0  0  0  0  0
   23.4628  -20.3327  -13.8112 C   0  0  0  0  0  0  0  0  0  0  0  0
   21.9842  -20.4607  -13.6951 C   0  0  0  0  0  0  0  0  0  0  0  0
   21.1653  -21.2428  -14.4663 C   0  0  0  0  0  0  0  0  0  0  0  0
   19.9000  -21.0818  -14.0513 N   0  0  0  0  0  0  0  0  0  0  0  0
   19.9532  -20.2003  -13.0260 C   0  0  0  0  0  0  0  0  0  0  0  0
   21.2134  -19.8219  -12.8074 N   0  0  0  0  0  0  0  0  0  0  0  0
   23.2762  -20.8890  -16.1611 C   0  0  0  0  0  0  0  0  0  0  0  0
   22.3441  -21.7944  -16.6329 O   0  0  0  0  0  0  0  0  0  0  0  0
   23.4601  -19.8327  -16.8054 O   0  0  0  0  0  0  0  0  0  0  0  0
  2  3  1  0
  2  1  1  1
  4  5  2  0
  4  3  1  0
  6  5  1  0
  7 12  2  0
  7  6  1  0
  8  7  1  0
  9 10  1  0
  9  8  2  0
 10 11  2  0
 11 12  1  0
 12  4  1  0
 13  2  1  0
 14 13  2  0
 15 13  1  0
 16 15  1  0
 17 16  1  0
 18 19  1  0
 18 17  1  0
 19 15  1  0
 20 22  1  0
 19 20  1  6
 21 20  2  0
 23 22  1  0
 23 30  1  0
 23 24  1  1
 25 29  1  0
 25 24  1  0
 26 25  2  0
 27 26  1  0
 27 28  1  0
 28 29  2  0
 30 31  1  0
 32 30  2  0
M  END
$$$$
