WPH.pdb
     RDKit          3D

 32 35  0  0  1  0  0  0  0  0999 V2000
   24.4248  -19.1420  -15.9715 N   0  0  0  0  0  0  0  0  0  0  0  0
   24.8392  -20.5428  -15.7922 C   0  0  1  0  0  0  0  0  0  0  0  0
   25.7316  -20.5195  -14.5550 C   0  0  0  0  0  0  0  0  0  0  0  0
   24.9627  -20.1819  -13.3233 C   0  0  0  0  0  0  0  0  0  0  0  0
   23.7741  -19.4415  -13.3508 C   0  0  0  0  0  0  0  0  0  0  0  0
   23.2979  -19.3352  -12.1151 N   0  0  0  0  0  0  0  0  0  0  0  0
   24.1351  -19.9828  -11.2696 C   0  0  0  0  0  0  0  0  0  0  0  0
   24.0649  -20.1373   -9.9058 C   0  0  0  0  0  0  0  0  0  0  0  0
   25.0692  -20.8423   -9.2756 C   0  0  0  0  0  0  0  0  0  0  0  0
   26.1000  -21.3646  -10.0168 C   0  0  0  0  0  0  0  0  0  0  0  0
   26.1772  -21.2130  -11.3917 C   0  0  0  0  0  0  0  0  0  0  0  0
   25.1666  -20.5072  -12.0113 C   0  0  0  0  0  0  0  0  0  0  0  0
   23.6780  -21.4163  -15.6154 C   0  0  0  0  0  0  0  0  0  0  0  0
   22.5381  -20.8911  -15.8745 O   0  0  0  0  0  0  0  0  0  0  0  0
   23.7444  -22.7785  -15.1854 N   0  0  0  0  0  0  0  0  0  0  0  0
   24.9385  -23.4477  -14.8229 C   0  0  0  0  0  0  0  0  0  0  0  0
   24.4904  -24.8081  -14.3206 C   0  0  0  0  0  0  0  0  0  0  0  0
   23.1551  -25.0251  -15.0535 C   0  0  0  0  0  0  0  0  0  0  0  0
   22.6244  -23.6467  -15.0591 C   0  0  1  0  0  0  0  0  0  0  0  0
   21.7475  -23.3278  -13.9075 C   0  0  0  0  0  0  0  0  0  0  0  0
   22.1717  -22.4807  -13.0852 O   0  0  0  0  0  0  0  0  0  0  0  0
   20.4762  -23.9061  -13.6688 N   0  0  0  0  0  0  0  0  0  0  0  0
   19.4537  -23.2730  -12.8610 C   0  0  1  0  0  0  0  0  0  0  0  0
   19.0471  -21.9593  -13.5075 C   0  0  0  0  0  0  0  0  0  0  0  0
   18.0800  -21.2154  -12.6546 C   0  0  0  0  0  0  0  0  0  0  0  0
   17.6251  -21.5847  -11.4162 C   0  0  0  0  0  0  0  0  0  0  0  0
   16.7660  -20.6528  -10.9772 N   0  0  0  0  0  0  0  0  0  0  0  0
   16.7010  -19.7169  -11.9524 C   0  0  0  0  0  0  0  0  0  0  0  0
   17.4951  -20.0539  -12.9696 N   0  0  0  0  0  0  0  0  0  0  0  0
   18.2464  -24.1053  -12.7202 C   0  0  0  0  0  0  0  0  0  0  0  0
   17.6270  -24.1627  -11.4856 O   0  0  0  0  0  0  0  0  0  0  0  0
   17.7552  -24.7625  -13.6645 O   0  0  0  0  0  0  0  0  0  0  0  0
  2  3  1  0
  2  1  1  1
  4  5  2  0
  4  3  1  0
  6  5  1  0
  7 12  2  0
  7  6  1  0
  8  7  1  0
  9 10  1  0
  9  8  2  0
 10 11  2  0
 11 12  1  0
 12  4  1  0
 13  2  1  0
 14 13  2  0
 15 13  1  0
 16 15  1  0
 17 16  1  0
 18 19  1  0
 18 17  1  0
 19 15  1  0
 20 22  1  0
 19 20  1  1
 21 20  2  0
 23 22  1  0
 23 30  1  0
 23 24  1  6
 25 29  1  0
 25 24  1  0
 26 25  2  0
 27 26  1  0
 27 28  1  0
 28 29  2  0
 30 31  1  0
 32 30  2  0
M  END
$$$$
