WPH.pdb
     RDKit          3D

 32 35  0  0  1  0  0  0  0  0999 V2000
   25.1005  -21.0718  -11.9448 N   0  0  0  0  0  0  0  0  0  0  0  0
   26.0525  -20.3811  -11.0600 C   0  0  1  0  0  0  0  0  0  0  0  0
   25.1911  -19.4069  -10.2620 C   0  0  0  0  0  0  0  0  0  0  0  0
   26.0151  -18.5357   -9.3764 C   0  0  0  0  0  0  0  0  0  0  0  0
   26.6090  -17.3479   -9.8215 C   0  0  0  0  0  0  0  0  0  0  0  0
   27.2418  -16.7697   -8.8064 N   0  0  0  0  0  0  0  0  0  0  0  0
   27.0851  -17.5386   -7.7022 C   0  0  0  0  0  0  0  0  0  0  0  0
   27.5617  -17.3563   -6.4261 C   0  0  0  0  0  0  0  0  0  0  0  0
   27.2639  -18.3100   -5.4751 C   0  0  0  0  0  0  0  0  0  0  0  0
   26.5092  -19.4029   -5.8226 C   0  0  0  0  0  0  0  0  0  0  0  0
   26.0253  -19.5931   -7.1068 C   0  0  0  0  0  0  0  0  0  0  0  0
   26.3284  -18.6322   -8.0493 C   0  0  0  0  0  0  0  0  0  0  0  0
   26.7512  -21.3325  -10.1943 C   0  0  0  0  0  0  0  0  0  0  0  0
   26.0055  -22.1198   -9.5115 O   0  0  0  0  0  0  0  0  0  0  0  0
   28.1729  -21.4289  -10.0746 N   0  0  0  0  0  0  0  0  0  0  0  0
   29.0955  -20.8067  -10.9503 C   0  0  0  0  0  0  0  0  0  0  0  0
   30.4602  -21.0862  -10.3477 C   0  0  0  0  0  0  0  0  0  0  0  0
   30.2292  -22.3847   -9.5552 C   0  0  0  0  0  0  0  0  0  0  0  0
   28.8559  -22.1576   -9.0613 C   0  0  1  0  0  0  0  0  0  0  0  0
   28.7878  -21.5263   -7.7220 C   0  0  0  0  0  0  0  0  0  0  0  0
   28.0845  -20.4932   -7.6136 O   0  0  0  0  0  0  0  0  0  0  0  0
   29.4546  -21.9999   -6.5650 N   0  0  0  0  0  0  0  0  0  0  0  0
   28.8126  -22.1245   -5.2722 C   0  0  1  0  0  0  0  0  0  0  0  0
   27.6796  -23.1322   -5.3711 C   0  0  0  0  0  0  0  0  0  0  0  0
   26.3677  -22.4523   -5.5521 C   0  0  0  0  0  0  0  0  0  0  0  0
   26.1113  -21.1137   -5.4135 C   0  0  0  0  0  0  0  0  0  0  0  0
   24.8104  -20.8966   -5.6575 N   0  0  0  0  0  0  0  0  0  0  0  0
   24.2780  -22.1070   -5.9449 C   0  0  0  0  0  0  0  0  0  0  0  0
   25.2178  -23.0514   -5.8821 N   0  0  0  0  0  0  0  0  0  0  0  0
   29.7385  -22.5805   -4.2211 C   0  0  0  0  0  0  0  0  0  0  0  0
   29.7546  -21.8999   -3.0178 O   0  0  0  0  0  0  0  0  0  0  0  0
   30.5107  -23.5539   -4.3655 O   0  0  0  0  0  0  0  0  0  0  0  0
  2  3  1  0
  2  1  1  6
  4  5  2  0
  4  3  1  0
  6  5  1  0
  7 12  2  0
  7  6  1  0
  8  7  1  0
  9 10  1  0
  9  8  2  0
 10 11  2  0
 11 12  1  0
 12  4  1  0
 13  2  1  0
 14 13  2  0
 15 13  1  0
 16 15  1  0
 17 16  1  0
 18 19  1  0
 18 17  1  0
 19 15  1  0
 20 22  1  0
 19 20  1  1
 21 20  2  0
 23 22  1  0
 23 30  1  0
 23 24  1  6
 25 29  1  0
 25 24  1  0
 26 25  2  0
 27 26  1  0
 27 28  1  0
 28 29  2  0
 30 31  1  0
 32 30  2  0
M  END
$$$$
