WPH.pdb
     RDKit          3D

 32 35  0  0  1  0  0  0  0  0999 V2000
   24.4375  -21.7372  -14.3383 N   0  0  0  0  0  0  0  0  0  0  0  0
   23.6337  -20.9304  -13.4062 C   0  0  1  0  0  0  0  0  0  0  0  0
   22.2912  -20.7609  -14.1110 C   0  0  0  0  0  0  0  0  0  0  0  0
   22.3811  -19.8068  -15.2528 C   0  0  0  0  0  0  0  0  0  0  0  0
   23.1647  -20.0539  -16.3871 C   0  0  0  0  0  0  0  0  0  0  0  0
   23.0145  -19.0526  -17.2474 N   0  0  0  0  0  0  0  0  0  0  0  0
   22.1551  -18.1495  -16.7172 C   0  0  0  0  0  0  0  0  0  0  0  0
   21.7031  -16.9568  -17.2289 C   0  0  0  0  0  0  0  0  0  0  0  0
   20.8280  -16.2094  -16.4684 C   0  0  0  0  0  0  0  0  0  0  0  0
   20.4361  -16.6696  -15.2358 C   0  0  0  0  0  0  0  0  0  0  0  0
   20.8874  -17.8709  -14.7137 C   0  0  0  0  0  0  0  0  0  0  0  0
   21.7613  -18.6104  -15.4837 C   0  0  0  0  0  0  0  0  0  0  0  0
   23.4942  -21.6031  -12.1136 C   0  0  0  0  0  0  0  0  0  0  0  0
   22.9356  -22.7561  -12.1404 O   0  0  0  0  0  0  0  0  0  0  0  0
   23.9343  -21.0625  -10.8651 N   0  0  0  0  0  0  0  0  0  0  0  0
   24.7524  -19.9145  -10.7320 C   0  0  0  0  0  0  0  0  0  0  0  0
   24.8372  -19.6625   -9.2377 C   0  0  0  0  0  0  0  0  0  0  0  0
   24.6042  -21.0598   -8.6373 C   0  0  0  0  0  0  0  0  0  0  0  0
   23.6101  -21.5985   -9.5876 C   0  0  1  0  0  0  0  0  0  0  0  0
   22.2011  -21.3751   -9.1857 C   0  0  0  0  0  0  0  0  0  0  0  0
   21.6125  -20.3904   -9.6931 O   0  0  0  0  0  0  0  0  0  0  0  0
   21.4766  -22.1853   -8.2765 N   0  0  0  0  0  0  0  0  0  0  0  0
   20.1038  -22.5933   -8.4947 C   0  0  1  0  0  0  0  0  0  0  0  0
   19.9957  -23.2858   -9.8429 C   0  0  0  0  0  0  0  0  0  0  0  0
   18.5881  -23.6675  -10.1415 C   0  0  0  0  0  0  0  0  0  0  0  0
   17.5036  -23.5119   -9.3190 C   0  0  0  0  0  0  0  0  0  0  0  0
   16.4150  -23.9788   -9.9482 N   0  0  0  0  0  0  0  0  0  0  0  0
   16.8416  -24.4179  -11.1550 C   0  0  0  0  0  0  0  0  0  0  0  0
   18.1568  -24.2312  -11.2758 N   0  0  0  0  0  0  0  0  0  0  0  0
   19.6186  -23.5256   -7.4625 C   0  0  0  0  0  0  0  0  0  0  0  0
   20.5243  -24.0152   -6.5399 O   0  0  0  0  0  0  0  0  0  0  0  0
   18.4264  -23.8954   -7.3813 O   0  0  0  0  0  0  0  0  0  0  0  0
  2  3  1  0
  2  1  1  6
  4  5  2  0
  4  3  1  0
  6  5  1  0
  7 12  2  0
  7  6  1  0
  8  7  1  0
  9 10  1  0
  9  8  2  0
 10 11  2  0
 11 12  1  0
 12  4  1  0
 13  2  1  0
 14 13  2  0
 15 13  1  0
 16 15  1  0
 17 16  1  0
 18 19  1  0
 18 17  1  0
 19 15  1  0
 20 22  1  0
 19 20  1  1
 21 20  2  0
 23 22  1  0
 23 30  1  0
 23 24  1  6
 25 29  1  0
 25 24  1  0
 26 25  2  0
 27 26  1  0
 27 28  1  0
 28 29  2  0
 30 31  1  0
 32 30  2  0
M  END
$$$$
