VPP.pdb
     RDKit          3D

 22 23  0  0  1  0  0  0  0  0999 V2000
   25.8036  -17.0212  -16.5664 C   0  0  0  0  0  0  0  0  0  0  0  0
   25.8448  -17.6208  -15.1982 C   0  0  2  0  0  0  0  0  0  0  0  0
   26.9405  -16.9562  -14.3532 C   0  0  0  0  0  0  0  0  0  0  0  0
   26.0665  -19.1291  -15.2265 C   0  0  2  0  0  0  0  0  0  0  0  0
   25.0358  -19.7402  -16.0850 N   0  0  0  0  0  0  0  0  0  0  0  0
   26.0484  -19.7016  -13.8685 C   0  0  0  0  0  0  0  0  0  0  0  0
   24.8774  -19.7964  -13.3400 O   0  0  0  0  0  0  0  0  0  0  0  0
   27.1749  -20.1343  -13.1432 N   0  0  0  0  0  0  0  0  0  0  0  0
   28.5554  -19.9970  -13.5579 C   0  0  0  0  0  0  0  0  0  0  0  0
   29.2550  -21.2119  -12.9631 C   0  0  0  0  0  0  0  0  0  0  0  0
   28.4892  -21.4128  -11.6952 C   0  0  0  0  0  0  0  0  0  0  0  0
   27.1274  -20.8025  -11.8580 C   0  0  1  0  0  0  0  0  0  0  0  0
   26.9042  -19.8674  -10.7466 C   0  0  0  0  0  0  0  0  0  0  0  0
   27.2708  -18.6725  -10.7656 O   0  0  0  0  0  0  0  0  0  0  0  0
   26.2179  -20.3852   -9.5748 N   0  0  0  0  0  0  0  0  0  0  0  0
   25.5236  -21.6493   -9.4973 C   0  0  0  0  0  0  0  0  0  0  0  0
   24.5753  -21.5104   -8.3117 C   0  0  0  0  0  0  0  0  0  0  0  0
   25.3248  -20.5780   -7.4024 C   0  0  0  0  0  0  0  0  0  0  0  0
   26.1158  -19.7234   -8.3041 C   0  0  1  0  0  0  0  0  0  0  0  0
   27.4700  -19.3988   -7.7658 C   0  0  0  0  0  0  0  0  0  0  0  0
   28.4272  -20.1111   -8.1445 O   0  0  0  0  0  0  0  0  0  0  0  0
   27.7232  -18.3666   -6.8820 O   0  0  0  0  0  0  0  0  0  0  0  0
  2  3  1  1
  2  1  1  0
  4  2  1  0
  4  6  1  0
  4  5  1  6
  6  8  1  0
  6  7  2  0
  8 12  1  0
  9  8  1  0
  9 10  1  0
 10 11  1  0
 12 11  1  0
 12 13  1  1
 13 15  1  0
 14 13  2  0
 15 19  1  0
 15 16  1  0
 16 17  1  0
 18 17  1  0
 19 20  1  1
 19 18  1  0
 20 22  1  0
 21 20  2  0
M  END
$$$$
