VPP.pdb
     RDKit          3D

 22 23  0  0  1  0  0  0  0  0999 V2000
   24.1712  -19.8160  -10.5805 C   0  0  0  0  0  0  0  0  0  0  0  0
   25.2557  -19.9256  -11.6027 C   0  0  2  0  0  0  0  0  0  0  0  0
   24.7000  -19.6503  -13.0069 C   0  0  0  0  0  0  0  0  0  0  0  0
   25.9428  -21.2866  -11.5836 C   0  0  2  0  0  0  0  0  0  0  0  0
   24.9377  -22.3253  -11.8729 N   0  0  0  0  0  0  0  0  0  0  0  0
   26.6180  -21.5309  -10.2965 C   0  0  0  0  0  0  0  0  0  0  0  0
   25.8913  -22.1201   -9.4108 O   0  0  0  0  0  0  0  0  0  0  0  0
   27.9454  -21.1806   -9.9845 N   0  0  0  0  0  0  0  0  0  0  0  0
   28.9105  -20.6104  -10.9010 C   0  0  0  0  0  0  0  0  0  0  0  0
   30.2537  -21.1450  -10.4221 C   0  0  0  0  0  0  0  0  0  0  0  0
   30.0376  -21.2302   -8.9455 C   0  0  0  0  0  0  0  0  0  0  0  0
   28.5641  -21.3485   -8.6846 C   0  0  1  0  0  0  0  0  0  0  0  0
   28.1763  -20.2939   -7.7376 C   0  0  0  0  0  0  0  0  0  0  0  0
   27.6703  -19.2052   -8.0859 O   0  0  0  0  0  0  0  0  0  0  0  0
   28.4038  -20.5564   -6.3264 N   0  0  0  0  0  0  0  0  0  0  0  0
   28.8816  -21.8001   -5.7689 C   0  0  0  0  0  0  0  0  0  0  0  0
   28.4717  -21.7618   -4.3011 C   0  0  0  0  0  0  0  0  0  0  0  0
   28.5205  -20.2931   -3.9873 C   0  0  0  0  0  0  0  0  0  0  0  0
   28.1881  -19.6232   -5.2560 C   0  0  1  0  0  0  0  0  0  0  0  0
   28.9696  -18.3709   -5.4798 C   0  0  0  0  0  0  0  0  0  0  0  0
   29.8519  -18.3924   -6.3676 O   0  0  0  0  0  0  0  0  0  0  0  0
   28.7755  -17.2013   -4.7690 O   0  0  0  0  0  0  0  0  0  0  0  0
  2  3  1  6
  2  1  1  0
  4  2  1  0
  4  6  1  0
  4  5  1  1
  6  8  1  0
  6  7  2  0
  8 12  1  0
  9  8  1  0
  9 10  1  0
 10 11  1  0
 12 11  1  0
 12 13  1  1
 13 15  1  0
 14 13  2  0
 15 19  1  0
 15 16  1  0
 16 17  1  0
 18 17  1  0
 19 20  1  6
 19 18  1  0
 20 22  1  0
 21 20  2  0
M  END
$$$$
