VPP.pdb
     RDKit          3D

 22 23  0  0  1  0  0  0  0  0999 V2000
   20.4694  -19.8406  -17.0056 C   0  0  0  0  0  0  0  0  0  0  0  0
   21.7108  -20.0585  -16.2028 C   0  0  2  0  0  0  0  0  0  0  0  0
   21.5310  -19.5166  -14.7779 C   0  0  0  0  0  0  0  0  0  0  0  0
   22.9399  -19.4199  -16.8404 C   0  0  2  0  0  0  0  0  0  0  0  0
   23.0588  -19.9084  -18.2259 N   0  0  0  0  0  0  0  0  0  0  0  0
   24.1586  -19.7017  -16.0609 C   0  0  0  0  0  0  0  0  0  0  0  0
   24.5655  -20.9226  -16.1210 O   0  0  0  0  0  0  0  0  0  0  0  0
   24.8770  -18.7673  -15.2909 N   0  0  0  0  0  0  0  0  0  0  0  0
   24.6390  -17.3397  -15.2495 C   0  0  0  0  0  0  0  0  0  0  0  0
   26.0130  -16.7307  -15.0041 C   0  0  0  0  0  0  0  0  0  0  0  0
   26.6606  -17.7754  -14.1535 C   0  0  0  0  0  0  0  0  0  0  0  0
   25.9874  -19.0909  -14.4174 C   0  0  1  0  0  0  0  0  0  0  0  0
   25.5464  -19.6505  -13.1322 C   0  0  0  0  0  0  0  0  0  0  0  0
   24.3926  -19.5027  -12.6744 O   0  0  0  0  0  0  0  0  0  0  0  0
   26.5237  -20.4123  -12.3728 N   0  0  0  0  0  0  0  0  0  0  0  0
   27.9106  -20.5950  -12.7321 C   0  0  0  0  0  0  0  0  0  0  0  0
   28.3622  -21.8297  -11.9602 C   0  0  0  0  0  0  0  0  0  0  0  0
   27.5181  -21.7648  -10.7188 C   0  0  0  0  0  0  0  0  0  0  0  0
   26.2693  -21.1098  -11.1433 C   0  0  1  0  0  0  0  0  0  0  0  0
   25.7145  -20.1822  -10.1133 C   0  0  0  0  0  0  0  0  0  0  0  0
   26.0193  -18.9714  -10.2034 O   0  0  0  0  0  0  0  0  0  0  0  0
   24.8919  -20.5814   -9.0765 O   0  0  0  0  0  0  0  0  0  0  0  0
  2  3  1  1
  2  1  1  0
  4  2  1  0
  4  6  1  0
  4  5  1  6
  6  8  1  0
  6  7  2  0
  8 12  1  0
  9  8  1  0
  9 10  1  0
 10 11  1  0
 12 11  1  0
 12 13  1  1
 13 15  1  0
 14 13  2  0
 15 19  1  0
 15 16  1  0
 16 17  1  0
 18 17  1  0
 19 20  1  1
 19 18  1  0
 20 22  1  0
 21 20  2  0
M  END
$$$$
