VPP.pdb
     RDKit          3D

 22 23  0  0  1  0  0  0  0  0999 V2000
   24.5627  -19.5977  -10.6386 C   0  0  0  0  0  0  0  0  0  0  0  0
   25.6405  -19.8549  -11.6411 C   0  0  2  0  0  0  0  0  0  0  0  0
   25.1273  -19.5852  -13.0626 C   0  0  0  0  0  0  0  0  0  0  0  0
   26.1909  -21.2744  -11.5580 C   0  0  2  0  0  0  0  0  0  0  0  0
   25.0994  -22.2202  -11.8522 N   0  0  0  0  0  0  0  0  0  0  0  0
   26.7971  -21.5406  -10.2412 C   0  0  0  0  0  0  0  0  0  0  0  0
   26.0006  -22.0726   -9.3797 O   0  0  0  0  0  0  0  0  0  0  0  0
   28.1294  -21.2663   -9.8784 N   0  0  0  0  0  0  0  0  0  0  0  0
   29.1687  -20.7858  -10.7648 C   0  0  0  0  0  0  0  0  0  0  0  0
   30.4521  -21.3902  -10.2111 C   0  0  0  0  0  0  0  0  0  0  0  0
   30.1664  -21.4178   -8.7441 C   0  0  0  0  0  0  0  0  0  0  0  0
   28.6783  -21.4345   -8.5476 C   0  0  1  0  0  0  0  0  0  0  0  0
   28.3185  -20.3299   -7.6478 C   0  0  0  0  0  0  0  0  0  0  0  0
   27.9155  -19.2165   -8.0485 O   0  0  0  0  0  0  0  0  0  0  0  0
   28.4470  -20.5714   -6.2205 N   0  0  0  0  0  0  0  0  0  0  0  0
   28.8021  -21.8310   -5.6095 C   0  0  0  0  0  0  0  0  0  0  0  0
   28.3143  -21.7261   -4.1690 C   0  0  0  0  0  0  0  0  0  0  0  0
   28.4509  -20.2569   -3.8849 C   0  0  0  0  0  0  0  0  0  0  0  0
   28.2393  -19.5981   -5.1849 C   0  0  1  0  0  0  0  0  0  0  0  0
   29.1201  -18.4102   -5.3901 C   0  0  0  0  0  0  0  0  0  0  0  0
   30.0529  -18.5200   -6.2178 O   0  0  0  0  0  0  0  0  0  0  0  0
   28.9650  -17.2087   -4.7244 O   0  0  0  0  0  0  0  0  0  0  0  0
  2  3  1  6
  2  1  1  0
  4  2  1  0
  4  6  1  0
  4  5  1  1
  6  8  1  0
  6  7  2  0
  8 12  1  0
  9  8  1  0
  9 10  1  0
 10 11  1  0
 12 11  1  0
 12 13  1  1
 13 15  1  0
 14 13  2  0
 15 19  1  0
 15 16  1  0
 16 17  1  0
 18 17  1  0
 19 20  1  6
 19 18  1  0
 20 22  1  0
 21 20  2  0
M  END
$$$$
