VPP.pdb
     RDKit          3D

 22 23  0  0  1  0  0  0  0  0999 V2000
   23.5770  -21.2833  -10.2346 C   0  0  0  0  0  0  0  0  0  0  0  0
   24.2582  -20.5082  -11.3155 C   0  0  2  0  0  0  0  0  0  0  0  0
   23.3227  -20.3295  -12.5194 C   0  0  0  0  0  0  0  0  0  0  0  0
   25.5590  -21.1595  -11.7722 C   0  0  2  0  0  0  0  0  0  0  0  0
   25.2506  -22.4926  -12.3202 N   0  0  0  0  0  0  0  0  0  0  0  0
   26.5362  -21.2398  -10.6719 C   0  0  0  0  0  0  0  0  0  0  0  0
   26.5463  -22.3635  -10.0419 O   0  0  0  0  0  0  0  0  0  0  0  0
   27.4214  -20.2169  -10.2816 N   0  0  0  0  0  0  0  0  0  0  0  0
   27.5653  -18.9278  -10.9250 C   0  0  0  0  0  0  0  0  0  0  0  0
   29.0313  -18.5651  -10.7291 C   0  0  0  0  0  0  0  0  0  0  0  0
   29.3220  -19.1831   -9.3995 C   0  0  0  0  0  0  0  0  0  0  0  0
   28.3457  -20.2997   -9.1683 C   0  0  1  0  0  0  0  0  0  0  0  0
   27.6871  -20.0771   -7.8737 C   0  0  0  0  0  0  0  0  0  0  0  0
   26.5408  -19.5922   -7.7566 O   0  0  0  0  0  0  0  0  0  0  0  0
   28.4300  -20.4494   -6.6814 N   0  0  0  0  0  0  0  0  0  0  0  0
   29.7096  -21.1189   -6.6630 C   0  0  0  0  0  0  0  0  0  0  0  0
   29.8182  -21.7317   -5.2713 C   0  0  0  0  0  0  0  0  0  0  0  0
   29.0406  -20.7621   -4.4268 C   0  0  0  0  0  0  0  0  0  0  0  0
   28.0119  -20.2150   -5.3274 C   0  0  1  0  0  0  0  0  0  0  0  0
   27.7450  -18.7639   -5.0993 C   0  0  0  0  0  0  0  0  0  0  0  0
   28.1971  -17.9549   -5.9410 O   0  0  0  0  0  0  0  0  0  0  0  0
   27.0342  -18.2688   -4.0221 O   0  0  0  0  0  0  0  0  0  0  0  0
  2  3  1  6
  2  1  1  0
  4  2  1  0
  4  6  1  0
  4  5  1  1
  6  8  1  0
  6  7  2  0
  8 12  1  0
  9  8  1  0
  9 10  1  0
 10 11  1  0
 12 11  1  0
 12 13  1  1
 13 15  1  0
 14 13  2  0
 15 19  1  0
 15 16  1  0
 16 17  1  0
 18 17  1  0
 19 20  1  6
 19 18  1  0
 20 22  1  0
 21 20  2  0
M  END
$$$$
