VPP.pdb
     RDKit          3D

 22 23  0  0  1  0  0  0  0  0999 V2000
   23.1408  -20.8134  -12.9310 C   0  0  0  0  0  0  0  0  0  0  0  0
   24.0218  -20.9547  -11.7322 C   0  0  2  0  0  0  0  0  0  0  0  0
   24.2270  -19.5934  -11.0531 C   0  0  0  0  0  0  0  0  0  0  0  0
   25.3772  -21.5658  -12.0706 C   0  0  2  0  0  0  0  0  0  0  0  0
   25.1556  -22.8444  -12.7696 N   0  0  0  0  0  0  0  0  0  0  0  0
   26.2032  -21.7454  -10.8633 C   0  0  0  0  0  0  0  0  0  0  0  0
   25.7416  -22.6006  -10.0176 O   0  0  0  0  0  0  0  0  0  0  0  0
   27.4103  -21.0761  -10.5855 N   0  0  0  0  0  0  0  0  0  0  0  0
   28.1217  -20.1981  -11.4908 C   0  0  0  0  0  0  0  0  0  0  0  0
   29.5894  -20.3870  -11.1310 C   0  0  0  0  0  0  0  0  0  0  0  0
   29.5111  -20.6411   -9.6600 C   0  0  0  0  0  0  0  0  0  0  0  0
   28.1439  -21.1714   -9.3392 C   0  0  1  0  0  0  0  0  0  0  0  0
   27.5614  -20.3366   -8.2794 C   0  0  0  0  0  0  0  0  0  0  0  0
   26.7493  -19.4115   -8.4972 O   0  0  0  0  0  0  0  0  0  0  0  0
   27.9680  -20.6229   -6.9138 N   0  0  0  0  0  0  0  0  0  0  0  0
   28.8233  -21.7114   -6.5020 C   0  0  0  0  0  0  0  0  0  0  0  0
   28.5400  -21.8998   -5.0159 C   0  0  0  0  0  0  0  0  0  0  0  0
   28.1944  -20.5068   -4.5709 C   0  0  0  0  0  0  0  0  0  0  0  0
   27.5835  -19.8723   -5.7511 C   0  0  1  0  0  0  0  0  0  0  0  0
   27.9558  -18.4344   -5.9021 C   0  0  0  0  0  0  0  0  0  0  0  0
   28.7786  -18.1428   -6.7994 O   0  0  0  0  0  0  0  0  0  0  0  0
   27.4482  -17.4178   -5.1149 O   0  0  0  0  0  0  0  0  0  0  0  0
  2  3  1  6
  2  1  1  0
  4  2  1  0
  4  6  1  0
  4  5  1  1
  6  8  1  0
  6  7  2  0
  8 12  1  0
  9  8  1  0
  9 10  1  0
 10 11  1  0
 12 11  1  0
 12 13  1  1
 13 15  1  0
 14 13  2  0
 15 19  1  0
 15 16  1  0
 16 17  1  0
 18 17  1  0
 19 20  1  6
 19 18  1  0
 20 22  1  0
 21 20  2  0
M  END
$$$$
