VPP.pdb
     RDKit          3D

 22 23  0  0  1  0  0  0  0  0999 V2000
   12.0443  -23.6206   -0.2935 C   0  0  0  0  0  0  0  0  0  0  0  0
   12.7210  -22.8937    0.8231 C   0  0  2  0  0  0  0  0  0  0  0  0
   12.3240  -21.4109    0.8172 C   0  0  0  0  0  0  0  0  0  0  0  0
   14.2398  -23.0156    0.7655 C   0  0  2  0  0  0  0  0  0  0  0  0
   14.5957  -24.4452    0.7188 N   0  0  0  0  0  0  0  0  0  0  0  0
   14.8781  -22.3363    1.9071 C   0  0  0  0  0  0  0  0  0  0  0  0
   14.5848  -22.8306    3.0601 O   0  0  0  0  0  0  0  0  0  0  0  0
   15.7497  -21.2337    1.8256 N   0  0  0  0  0  0  0  0  0  0  0  0
   16.2277  -20.6181    0.6053 C   0  0  0  0  0  0  0  0  0  0  0  0
   17.6205  -20.1106    0.9541 C   0  0  0  0  0  0  0  0  0  0  0  0
   17.4587  -19.7456    2.3946 C   0  0  0  0  0  0  0  0  0  0  0  0
   16.3202  -20.5413    2.9639 C   0  0  1  0  0  0  0  0  0  0  0  0
   15.3711  -19.6088    3.5875 C   0  0  0  0  0  0  0  0  0  0  0  0
   14.4257  -19.0710    2.9713 O   0  0  0  0  0  0  0  0  0  0  0  0
   15.5643  -19.3134    4.9974 N   0  0  0  0  0  0  0  0  0  0  0  0
   16.4887  -19.9878    5.8786 C   0  0  0  0  0  0  0  0  0  0  0  0
   15.9749  -19.7053    7.2859 C   0  0  0  0  0  0  0  0  0  0  0  0
   15.3446  -18.3495    7.1366 C   0  0  0  0  0  0  0  0  0  0  0  0
   14.8658  -18.3051    5.7446 C   0  0  1  0  0  0  0  0  0  0  0  0
   15.0333  -16.9643    5.1097 C   0  0  0  0  0  0  0  0  0  0  0  0
   16.0180  -16.8029    4.3538 O   0  0  0  0  0  0  0  0  0  0  0  0
   14.1711  -15.9021    5.3079 O   0  0  0  0  0  0  0  0  0  0  0  0
  2  3  1  6
  2  1  1  0
  4  2  1  0
  4  6  1  0
  4  5  1  1
  6  8  1  0
  6  7  2  0
  8 12  1  0
  9  8  1  0
  9 10  1  0
 10 11  1  0
 12 11  1  0
 12 13  1  6
 13 15  1  0
 14 13  2  0
 15 19  1  0
 15 16  1  0
 16 17  1  0
 18 17  1  0
 19 20  1  6
 19 18  1  0
 20 22  1  0
 21 20  2  0
M  END
$$$$
