SRL.pdb
     RDKit          3D

 26 25  0  0  1  0  0  0  0  0999 V2000
   27.5202  -17.2195  -18.2114 O   0  0  0  0  0  0  0  0  0  0  0  0
   28.8751  -17.1559  -17.9004 C   0  0  0  0  0  0  0  0  0  0  0  0
   29.6990  -17.6679  -19.0597 C   0  0  2  0  0  0  0  0  0  0  0  0
   29.4559  -16.8245  -20.2108 N   0  0  0  0  0  0  0  0  0  0  0  0
   29.3052  -19.0770  -19.4034 C   0  0  0  0  0  0  0  0  0  0  0  0
   28.5845  -19.3033  -20.4130 O   0  0  0  0  0  0  0  0  0  0  0  0
   29.9018  -25.8513  -16.4199 N   0  0  0  0  0  0  0  0  0  0  0  0
   31.0990  -25.1467  -16.1775 C   0  0  0  0  0  0  0  0  0  0  0  0
   31.6131  -24.9987  -15.0107 N   0  0  0  0  0  0  0  0  0  0  0  0
   31.7590  -24.5765  -17.2940 N   0  0  0  0  0  0  0  0  0  0  0  0
   31.2987  -24.7960  -18.6358 C   0  0  0  0  0  0  0  0  0  0  0  0
   30.0788  -23.9251  -18.9435 C   0  0  0  0  0  0  0  0  0  0  0  0
   30.3610  -22.4866  -18.6075 C   0  0  0  0  0  0  0  0  0  0  0  0
   29.2351  -21.5505  -18.9909 C   0  0  2  0  0  0  0  0  0  0  0  0
   29.7165  -20.1915  -18.6265 N   0  0  0  0  0  0  0  0  0  0  0  0
   27.9720  -21.8060  -18.2749 C   0  0  0  0  0  0  0  0  0  0  0  0
   27.8043  -21.2121  -17.1583 O   0  0  0  0  0  0  0  0  0  0  0  0
   32.4478  -24.4126  -14.8393 C   0  0  0  0  0  0  0  0  0  0  0  0
   23.4316  -20.4720  -17.9158 C   0  0  1  0  0  0  0  0  0  0  0  0
   23.9383  -20.4309  -19.3737 C   0  0  0  0  0  0  0  0  0  0  0  0
   22.9944  -21.2408  -20.2388 C   0  0  0  0  0  0  0  0  0  0  0  0
   25.3586  -20.9167  -19.4337 C   0  0  1  0  0  0  0  0  0  0  0  0
   25.5153  -22.2074  -18.7131 N   0  0  0  0  0  0  0  0  0  0  0  0
   26.9188  -22.6337  -18.6843 C   0  0  0  0  0  0  0  0  0  0  0  0
   24.6605  -23.2510  -19.2789 O   0  0  0  0  0  0  0  0  0  0  0  0
   23.5738  -23.7092  -18.4866 O   0  0  0  0  0  0  0  0  0  0  0  0
  1  2  1  0
  3  2  1  0
  3  4  1  6
  5  3  1  0
  6  5  2  0
  7  8  1  0
  8 10  1  0
  8  9  2  0
 10 11  1  0
 11 12  1  0
 13 12  1  0
 14 13  1  1
 14 15  1  0
 15  5  1  0
 16 14  1  0
 16 17  2  0
 19 21  1  0
 19 18  1  6
 20 19  1  0
 22 21  1  1
 22 23  1  0
 23 16  1  0
 24 22  1  0
 25 24  1  0
 26 24  2  0
M  END
$$$$
