SRL.pdb
     RDKit          3D

 26 25  0  0  1  0  0  0  0  0999 V2000
   26.2072  -19.0816  -17.4816 O   0  0  0  0  0  0  0  0  0  0  0  0
   27.4535  -19.3105  -16.9066 C   0  0  0  0  0  0  0  0  0  0  0  0
   27.5853  -20.7640  -16.5129 C   0  0  2  0  0  0  0  0  0  0  0  0
   27.4244  -21.5823  -17.6961 N   0  0  0  0  0  0  0  0  0  0  0  0
   26.5212  -21.1387  -15.5198 C   0  0  0  0  0  0  0  0  0  0  0  0
   25.5612  -21.8771  -15.8708 O   0  0  0  0  0  0  0  0  0  0  0  0
   22.8053  -19.8950   -9.0273 N   0  0  0  0  0  0  0  0  0  0  0  0
   23.3476  -20.8383   -8.1303 C   0  0  0  0  0  0  0  0  0  0  0  0
   22.7155  -21.2947   -7.1106 N   0  0  0  0  0  0  0  0  0  0  0  0
   24.6637  -21.2981   -8.3823 N   0  0  0  0  0  0  0  0  0  0  0  0
   25.4720  -20.7368   -9.4274 C   0  0  0  0  0  0  0  0  0  0  0  0
   24.9995  -21.2181  -10.8008 C   0  0  0  0  0  0  0  0  0  0  0  0
   25.8780  -20.6583  -11.8855 C   0  0  0  0  0  0  0  0  0  0  0  0
   25.4001  -21.0023  -13.2798 C   0  0  2  0  0  0  0  0  0  0  0  0
   26.5470  -20.6900  -14.1735 N   0  0  0  0  0  0  0  0  0  0  0  0
   24.2341  -20.2178  -13.7252 C   0  0  0  0  0  0  0  0  0  0  0  0
   24.4601  -19.2149  -14.4807 O   0  0  0  0  0  0  0  0  0  0  0  0
   23.1215  -22.0003   -6.4727 C   0  0  0  0  0  0  0  0  0  0  0  0
   21.1882  -18.3315  -15.9549 C   0  0  1  0  0  0  0  0  0  0  0  0
   22.2871  -19.2474  -16.5357 C   0  0  0  0  0  0  0  0  0  0  0  0
   22.0372  -19.4248  -18.0195 C   0  0  0  0  0  0  0  0  0  0  0  0
   22.3187  -20.5467  -15.7824 C   0  0  2  0  0  0  0  0  0  0  0  0
   21.8031  -20.3775  -14.3985 N   0  0  0  0  0  0  0  0  0  0  0  0
   22.8883  -20.4497  -13.4139 C   0  0  0  0  0  0  0  0  0  0  0  0
   20.7492  -21.3444  -14.0910 O   0  0  0  0  0  0  0  0  0  0  0  0
   19.4976  -20.8329  -13.6544 O   0  0  0  0  0  0  0  0  0  0  0  0
  1  2  1  0
  3  2  1  0
  3  4  1  6
  5  3  1  0
  6  5  2  0
  7  8  1  0
  8 10  1  0
  8  9  2  0
 10 11  1  0
 11 12  1  0
 13 12  1  0
 14 13  1  1
 14 15  1  0
 15  5  1  0
 16 14  1  0
 16 17  2  0
 19 21  1  0
 19 18  1  6
 20 19  1  0
 22 21  1  6
 22 23  1  0
 23 16  1  0
 24 22  1  0
 25 24  1  0
 26 24  2  0
M  END
$$$$
