SRL.pdb
     RDKit          3D

 26 25  0  0  1  0  0  0  0  0999 V2000
   18.1734  -17.4926  -19.5241 O   0  0  0  0  0  0  0  0  0  0  0  0
   19.2853  -17.7012  -18.7138 C   0  0  0  0  0  0  0  0  0  0  0  0
   18.8473  -18.0241  -17.3035 C   0  0  2  0  0  0  0  0  0  0  0  0
   17.9753  -16.9681  -16.8344 N   0  0  0  0  0  0  0  0  0  0  0  0
   20.0373  -18.1078  -16.3891 C   0  0  0  0  0  0  0  0  0  0  0  0
   20.3611  -17.1160  -15.6811 O   0  0  0  0  0  0  0  0  0  0  0  0
   25.6426  -22.4978  -12.9343 N   0  0  0  0  0  0  0  0  0  0  0  0
   25.3823  -21.5614  -11.9126 C   0  0  0  0  0  0  0  0  0  0  0  0
   26.2599  -21.1807  -11.0567 N   0  0  0  0  0  0  0  0  0  0  0  0
   24.0751  -21.0198  -11.8402 N   0  0  0  0  0  0  0  0  0  0  0  0
   23.0324  -21.4435  -12.7311 C   0  0  0  0  0  0  0  0  0  0  0  0
   23.3677  -21.0753  -14.1780 C   0  0  0  0  0  0  0  0  0  0  0  0
   22.1111  -20.7886  -14.9528 C   0  0  0  0  0  0  0  0  0  0  0  0
   21.9342  -19.3226  -15.2849 C   0  0  2  0  0  0  0  0  0  0  0  0
   20.8323  -19.2788  -16.2827 N   0  0  0  0  0  0  0  0  0  0  0  0
   23.1276  -18.6937  -15.8795 C   0  0  0  0  0  0  0  0  0  0  0  0
   23.3321  -18.8907  -17.1233 O   0  0  0  0  0  0  0  0  0  0  0  0
   26.0499  -20.4980  -10.3087 C   0  0  0  0  0  0  0  0  0  0  0  0
   27.1176  -14.0238  -15.4618 C   0  0  1  0  0  0  0  0  0  0  0  0
   26.6947  -15.3403  -16.1487 C   0  0  0  0  0  0  0  0  0  0  0  0
   26.4072  -15.0554  -17.6088 C   0  0  0  0  0  0  0  0  0  0  0  0
   25.5251  -15.9415  -15.4226 C   0  0  2  0  0  0  0  0  0  0  0  0
   25.2514  -17.3234  -15.8971 N   0  0  0  0  0  0  0  0  0  0  0  0
   24.0747  -17.8917  -15.2301 C   0  0  0  0  0  0  0  0  0  0  0  0
   26.4173  -18.1922  -15.7367 O   0  0  0  0  0  0  0  0  0  0  0  0
   27.2869  -18.3347  -16.8512 O   0  0  0  0  0  0  0  0  0  0  0  0
  1  2  1  0
  3  2  1  0
  3  4  1  1
  5  3  1  0
  6  5  2  0
  7  8  1  0
  8 10  1  0
  8  9  2  0
 10 11  1  0
 11 12  1  0
 13 12  1  0
 14 13  1  6
 14 15  1  0
 15  5  1  0
 16 14  1  0
 16 17  2  0
 19 21  1  0
 19 18  1  6
 20 19  1  0
 22 21  1  6
 22 23  1  0
 23 16  1  0
 24 22  1  0
 25 24  1  0
 26 24  2  0
M  END
$$$$
