SRL.pdb
     RDKit          3D

 26 25  0  0  1  0  0  0  0  0999 V2000
   24.5828  -25.9838  -16.1467 O   0  0  0  0  0  0  0  0  0  0  0  0
   25.1783  -25.6154  -17.3492 C   0  0  0  0  0  0  0  0  0  0  0  0
   26.5693  -25.0796  -17.0978 C   0  0  2  0  0  0  0  0  0  0  0  0
   27.3757  -26.1336  -16.5196 N   0  0  0  0  0  0  0  0  0  0  0  0
   26.5228  -23.9259  -16.1357 C   0  0  0  0  0  0  0  0  0  0  0  0
   26.7907  -24.1082  -14.9171 O   0  0  0  0  0  0  0  0  0  0  0  0
   28.0972  -17.0399  -18.1195 N   0  0  0  0  0  0  0  0  0  0  0  0
   26.9680  -17.7095  -18.6341 C   0  0  0  0  0  0  0  0  0  0  0  0
   26.8158  -17.9953  -19.8762 N   0  0  0  0  0  0  0  0  0  0  0  0
   25.9541  -18.0809  -17.7168 N   0  0  0  0  0  0  0  0  0  0  0  0
   26.0376  -17.7458  -16.3236 C   0  0  0  0  0  0  0  0  0  0  0  0
   26.0427  -19.0077  -15.4581 C   0  0  0  0  0  0  0  0  0  0  0  0
   26.0841  -20.2380  -16.3220 C   0  0  0  0  0  0  0  0  0  0  0  0
   26.1176  -21.5260  -15.5277 C   0  0  2  0  0  0  0  0  0  0  0  0
   26.1836  -22.6096  -16.5441 N   0  0  0  0  0  0  0  0  0  0  0  0
   24.9253  -21.7449  -14.6888 C   0  0  0  0  0  0  0  0  0  0  0  0
   24.5186  -22.9468  -14.5555 O   0  0  0  0  0  0  0  0  0  0  0  0
   25.9652  -18.4558  -20.2424 C   0  0  0  0  0  0  0  0  0  0  0  0
   23.4140  -20.4535   -9.9804 C   0  0  1  0  0  0  0  0  0  0  0  0
   24.8283  -20.9825  -10.3025 C   0  0  0  0  0  0  0  0  0  0  0  0
   25.8243  -20.2893   -9.3952 C   0  0  0  0  0  0  0  0  0  0  0  0
   25.1248  -20.7890  -11.7624 C   0  0  1  0  0  0  0  0  0  0  0  0
   23.8803  -20.8371  -12.5739 N   0  0  0  0  0  0  0  0  0  0  0  0
   24.1781  -20.7745  -14.0090 C   0  0  0  0  0  0  0  0  0  0  0  0
   22.9395  -19.7862  -12.1859 O   0  0  0  0  0  0  0  0  0  0  0  0
   21.8068  -20.1709  -11.4193 O   0  0  0  0  0  0  0  0  0  0  0  0
  1  2  1  0
  3  2  1  0
  3  4  1  1
  5  3  1  0
  6  5  2  0
  7  8  1  0
  8 10  1  0
  8  9  2  0
 10 11  1  0
 11 12  1  0
 13 12  1  0
 14 13  1  6
 14 15  1  0
 15  5  1  0
 16 14  1  0
 16 17  2  0
 19 21  1  0
 19 18  1  1
 20 19  1  0
 22 21  1  6
 22 23  1  0
 23 16  1  0
 24 22  1  0
 25 24  1  0
 26 24  2  0
M  END
$$$$
