SRL.pdb
     RDKit          3D

 26 25  0  0  1  0  0  0  0  0999 V2000
   16.7773  -26.5877  -11.2551 O   0  0  0  0  0  0  0  0  0  0  0  0
   17.6458  -27.4586  -10.6041 C   0  0  0  0  0  0  0  0  0  0  0  0
   18.7266  -26.6784   -9.8912 C   0  0  2  0  0  0  0  0  0  0  0  0
   18.1124  -25.8703   -8.8591 N   0  0  0  0  0  0  0  0  0  0  0  0
   19.4410  -25.7703  -10.8525 C   0  0  0  0  0  0  0  0  0  0  0  0
   19.2418  -24.5259  -10.8129 O   0  0  0  0  0  0  0  0  0  0  0  0
   23.6193  -24.7554  -16.8033 N   0  0  0  0  0  0  0  0  0  0  0  0
   24.9359  -24.4808  -16.3793 C   0  0  0  0  0  0  0  0  0  0  0  0
   25.7632  -23.7631  -17.0487 N   0  0  0  0  0  0  0  0  0  0  0  0
   25.3534  -25.0345  -15.1439 N   0  0  0  0  0  0  0  0  0  0  0  0
   24.4853  -25.8638  -14.3569 C   0  0  0  0  0  0  0  0  0  0  0  0
   23.2325  -25.0944  -13.9328 C   0  0  0  0  0  0  0  0  0  0  0  0
   22.2812  -26.0004  -13.2008 C   0  0  0  0  0  0  0  0  0  0  0  0
   21.0190  -25.3004  -12.7452 C   0  0  2  0  0  0  0  0  0  0  0  0
   20.3511  -26.2595  -11.8257 N   0  0  0  0  0  0  0  0  0  0  0  0
   20.0854  -24.9747  -13.8386 C   0  0  0  0  0  0  0  0  0  0  0  0
   19.2377  -25.8696  -14.1676 O   0  0  0  0  0  0  0  0  0  0  0  0
   26.7045  -23.5210  -16.6952 C   0  0  0  0  0  0  0  0  0  0  0  0
   16.3790  -23.6061  -16.5500 C   0  0  1  0  0  0  0  0  0  0  0  0
   16.4181  -22.8523  -15.2031 C   0  0  0  0  0  0  0  0  0  0  0  0
   16.3508  -21.3638  -15.4776 C   0  0  0  0  0  0  0  0  0  0  0  0
   17.6404  -23.2556  -14.4284 C   0  0  1  0  0  0  0  0  0  0  0  0
   18.8301  -23.3513  -15.3144 N   0  0  0  0  0  0  0  0  0  0  0  0
   20.0173  -23.7799  -14.5665 C   0  0  0  0  0  0  0  0  0  0  0  0
   19.0801  -22.0964  -16.0232 O   0  0  0  0  0  0  0  0  0  0  0  0
   19.7556  -21.0667  -15.3147 O   0  0  0  0  0  0  0  0  0  0  0  0
  1  2  1  0
  3  2  1  0
  3  4  1  1
  5  3  1  0
  6  5  2  0
  7  8  1  0
  8 10  1  0
  8  9  2  0
 10 11  1  0
 11 12  1  0
 13 12  1  0
 14 13  1  6
 14 15  1  0
 15  5  1  0
 16 14  1  0
 16 17  2  0
 19 21  1  0
 19 18  1  1
 20 19  1  0
 22 21  1  6
 22 23  1  0
 23 16  1  0
 24 22  1  0
 25 24  1  0
 26 24  2  0
M  END
$$$$
