SRL.pdb
     RDKit          3D

 26 25  0  0  1  0  0  0  0  0999 V2000
   28.1535  -20.3413  -18.8979 O   0  0  0  0  0  0  0  0  0  0  0  0
   27.0963  -21.0376  -18.3201 C   0  0  0  0  0  0  0  0  0  0  0  0
   27.6076  -21.9400  -17.2204 C   0  0  2  0  0  0  0  0  0  0  0  0
   28.0519  -23.1851  -17.8099 N   0  0  0  0  0  0  0  0  0  0  0  0
   26.5142  -22.2377  -16.2331 C   0  0  0  0  0  0  0  0  0  0  0  0
   25.7245  -23.1996  -16.4358 O   0  0  0  0  0  0  0  0  0  0  0  0
   25.8051  -20.6130   -7.6215 N   0  0  0  0  0  0  0  0  0  0  0  0
   24.5003  -21.0441   -7.9380 C   0  0  0  0  0  0  0  0  0  0  0  0
   23.5617  -21.1655   -7.0708 N   0  0  0  0  0  0  0  0  0  0  0  0
   24.2259  -21.3565   -9.2924 N   0  0  0  0  0  0  0  0  0  0  0  0
   25.2047  -21.1636  -10.3245 C   0  0  0  0  0  0  0  0  0  0  0  0
   24.6763  -21.6503  -11.6755 C   0  0  0  0  0  0  0  0  0  0  0  0
   25.6656  -21.3484  -12.7672 C   0  0  0  0  0  0  0  0  0  0  0  0
   25.2087  -21.8115  -14.1338 C   0  0  2  0  0  0  0  0  0  0  0  0
   26.3245  -21.4689  -15.0551 N   0  0  0  0  0  0  0  0  0  0  0  0
   23.9847  -21.1455  -14.6149 C   0  0  0  0  0  0  0  0  0  0  0  0
   24.0401  -19.8838  -14.7962 O   0  0  0  0  0  0  0  0  0  0  0  0
   22.6141  -21.4983   -7.3175 C   0  0  0  0  0  0  0  0  0  0  0  0
   21.8235  -20.3724  -18.1315 C   0  0  1  0  0  0  0  0  0  0  0  0
   21.5345  -21.7829  -17.5741 C   0  0  0  0  0  0  0  0  0  0  0  0
   20.8247  -22.5907  -18.6415 C   0  0  0  0  0  0  0  0  0  0  0  0
   20.7522  -21.6758  -16.2962 C   0  0  2  0  0  0  0  0  0  0  0  0
   21.5407  -20.9883  -15.2401 N   0  0  0  0  0  0  0  0  0  0  0  0
   22.7518  -21.7446  -14.9031 C   0  0  0  0  0  0  0  0  0  0  0  0
   20.7357  -20.7261  -14.0471 O   0  0  0  0  0  0  0  0  0  0  0  0
   19.6842  -19.7774  -14.1614 O   0  0  0  0  0  0  0  0  0  0  0  0
  1  2  1  0
  3  2  1  0
  3  4  1  6
  5  3  1  0
  6  5  2  0
  7  8  1  0
  8 10  1  0
  8  9  2  0
 10 11  1  0
 11 12  1  0
 13 12  1  0
 14 13  1  1
 14 15  1  0
 15  5  1  0
 16 14  1  0
 16 17  2  0
 19 21  1  0
 19 18  1  6
 20 19  1  0
 22 21  1  6
 22 23  1  0
 23 16  1  0
 24 22  1  0
 25 24  1  0
 26 24  2  0
M  END
$$$$
