SRL.pdb
     RDKit          3D

 26 25  0  0  1  0  0  0  0  0999 V2000
   19.3901  -28.2503  -11.5855 O   0  0  0  0  0  0  0  0  0  0  0  0
   19.1105  -29.3958  -10.8466 C   0  0  0  0  0  0  0  0  0  0  0  0
   17.8981  -29.1678   -9.9730 C   0  0  2  0  0  0  0  0  0  0  0  0
   16.7287  -29.6741  -10.6598 N   0  0  0  0  0  0  0  0  0  0  0  0
   17.7058  -27.7001   -9.7125 C   0  0  0  0  0  0  0  0  0  0  0  0
   17.0030  -27.0060  -10.4962 O   0  0  0  0  0  0  0  0  0  0  0  0
   15.6624  -24.5147   -3.9746 N   0  0  0  0  0  0  0  0  0  0  0  0
   16.1016  -25.6941   -3.3384 C   0  0  0  0  0  0  0  0  0  0  0  0
   15.3398  -26.4450   -2.6288 N   0  0  0  0  0  0  0  0  0  0  0  0
   17.4614  -26.0568   -3.5011 N   0  0  0  0  0  0  0  0  0  0  0  0
   18.2712  -25.4990   -4.5469 C   0  0  0  0  0  0  0  0  0  0  0  0
   17.6663  -25.7933   -5.9213 C   0  0  0  0  0  0  0  0  0  0  0  0
   18.5677  -25.2853   -7.0126 C   0  0  0  0  0  0  0  0  0  0  0  0
   18.0533  -25.5885   -8.4034 C   0  0  2  0  0  0  0  0  0  0  0  0
   18.2919  -27.0433   -8.5990 N   0  0  0  0  0  0  0  0  0  0  0  0
   18.7496  -24.8529   -9.4745 C   0  0  0  0  0  0  0  0  0  0  0  0
   19.8444  -25.3470   -9.9047 O   0  0  0  0  0  0  0  0  0  0  0  0
   15.6789  -27.3062   -2.1673 C   0  0  0  0  0  0  0  0  0  0  0  0
   18.7884  -24.3807  -14.8928 C   0  0  1  0  0  0  0  0  0  0  0  0
   19.4334  -23.6497  -13.6954 C   0  0  0  0  0  0  0  0  0  0  0  0
   20.9383  -23.7976  -13.7897 C   0  0  0  0  0  0  0  0  0  0  0  0
   18.8670  -24.1800  -12.4091 C   0  0  2  0  0  0  0  0  0  0  0  0
   18.9163  -23.1519  -11.3367 N   0  0  0  0  0  0  0  0  0  0  0  0
   18.3427  -23.6601  -10.0856 C   0  0  0  0  0  0  0  0  0  0  0  0
   18.2638  -21.9088  -11.7473 O   0  0  0  0  0  0  0  0  0  0  0  0
   16.9269  -21.6966  -11.3155 O   0  0  0  0  0  0  0  0  0  0  0  0
  1  2  1  0
  3  2  1  0
  3  4  1  6
  5  3  1  0
  6  5  2  0
  7  8  1  0
  8 10  1  0
  8  9  2  0
 10 11  1  0
 11 12  1  0
 13 12  1  0
 14 13  1  1
 14 15  1  0
 15  5  1  0
 16 14  1  0
 16 17  2  0
 19 21  1  0
 19 18  1  6
 20 19  1  0
 22 21  1  1
 22 23  1  0
 23 16  1  0
 24 22  1  0
 25 24  1  0
 26 24  2  0
M  END
$$$$
