SRL.pdb
     RDKit          3D

 26 25  0  0  1  0  0  0  0  0999 V2000
   18.9267  -13.8878  -16.9717 O   0  0  0  0  0  0  0  0  0  0  0  0
   19.4501  -12.6909  -16.4923 C   0  0  0  0  0  0  0  0  0  0  0  0
   18.3620  -11.6450  -16.4068 C   0  0  2  0  0  0  0  0  0  0  0  0
   17.5621  -11.7071  -17.6116 N   0  0  0  0  0  0  0  0  0  0  0  0
   18.9605  -10.2708  -16.2963 C   0  0  0  0  0  0  0  0  0  0  0  0
   19.0636   -9.5424  -17.3204 O   0  0  0  0  0  0  0  0  0  0  0  0
   17.3987   -7.1259   -8.9996 N   0  0  0  0  0  0  0  0  0  0  0  0
   16.4037   -7.5188   -9.9185 C   0  0  0  0  0  0  0  0  0  0  0  0
   15.1486   -7.5211   -9.6495 N   0  0  0  0  0  0  0  0  0  0  0  0
   16.8290   -7.9309  -11.2055 N   0  0  0  0  0  0  0  0  0  0  0  0
   18.1562   -7.6642  -11.6829 C   0  0  0  0  0  0  0  0  0  0  0  0
   18.3314   -8.1667  -13.1176 C   0  0  0  0  0  0  0  0  0  0  0  0
   19.7216   -7.8751  -13.6112 C   0  0  0  0  0  0  0  0  0  0  0  0
   19.9685   -8.3579  -15.0243 C   0  0  2  0  0  0  0  0  0  0  0  0
   19.4260   -9.7420  -15.0641 N   0  0  0  0  0  0  0  0  0  0  0  0
   21.3925   -8.4035  -15.4028 C   0  0  0  0  0  0  0  0  0  0  0  0
   22.0123   -7.2908  -15.4763 O   0  0  0  0  0  0  0  0  0  0  0  0
   14.4309   -7.8011  -10.3395 C   0  0  0  0  0  0  0  0  0  0  0  0
   26.6110  -11.4414  -14.9421 C   0  0  1  0  0  0  0  0  0  0  0  0
   25.8301  -10.3674  -15.7299 C   0  0  0  0  0  0  0  0  0  0  0  0
   26.5998   -9.0639  -15.6673 C   0  0  0  0  0  0  0  0  0  0  0  0
   24.4326  -10.2550  -15.1906 C   0  0  2  0  0  0  0  0  0  0  0  0
   23.5586   -9.4913  -16.1194 N   0  0  0  0  0  0  0  0  0  0  0  0
   22.1559   -9.5416  -15.6924 C   0  0  0  0  0  0  0  0  0  0  0  0
   23.7043   -9.9500  -17.5008 O   0  0  0  0  0  0  0  0  0  0  0  0
   22.8188  -10.9658  -17.9510 O   0  0  0  0  0  0  0  0  0  0  0  0
  1  2  1  0
  3  2  1  0
  3  4  1  6
  5  3  1  0
  6  5  2  0
  7  8  1  0
  8 10  1  0
  8  9  2  0
 10 11  1  0
 11 12  1  0
 13 12  1  0
 14 13  1  1
 14 15  1  0
 15  5  1  0
 16 14  1  0
 16 17  2  0
 19 21  1  0
 19 18  1  6
 20 19  1  0
 22 21  1  1
 22 23  1  0
 23 16  1  0
 24 22  1  0
 25 24  1  0
 26 24  2  0
M  END
$$$$
