SRL.pdb
     RDKit          3D

 26 25  0  0  1  0  0  0  0  0999 V2000
   25.7214  -20.1433  -17.6118 O   0  0  0  0  0  0  0  0  0  0  0  0
   24.8137  -19.5054  -18.4519 C   0  0  0  0  0  0  0  0  0  0  0  0
   24.2470  -18.2808  -17.7705 C   0  0  2  0  0  0  0  0  0  0  0  0
   25.2239  -17.2150  -17.8425 N   0  0  0  0  0  0  0  0  0  0  0  0
   23.9558  -18.5704  -16.3248 C   0  0  0  0  0  0  0  0  0  0  0  0
   24.6920  -18.0864  -15.4227 O   0  0  0  0  0  0  0  0  0  0  0  0
   16.7113  -21.8395  -13.5390 N   0  0  0  0  0  0  0  0  0  0  0  0
   17.7417  -22.1824  -14.4385 C   0  0  0  0  0  0  0  0  0  0  0  0
   17.5627  -22.9097  -15.4809 N   0  0  0  0  0  0  0  0  0  0  0  0
   19.0409  -21.6889  -14.1627 N   0  0  0  0  0  0  0  0  0  0  0  0
   19.3318  -20.9603  -12.9607 C   0  0  0  0  0  0  0  0  0  0  0  0
   20.7698  -20.4374  -12.9741 C   0  0  0  0  0  0  0  0  0  0  0  0
   21.1902  -20.0896  -14.3755 C   0  0  0  0  0  0  0  0  0  0  0  0
   22.6180  -19.5956  -14.4667 C   0  0  2  0  0  0  0  0  0  0  0  0
   22.8651  -19.3822  -15.9176 N   0  0  0  0  0  0  0  0  0  0  0  0
   23.6177  -20.5526  -13.9587 C   0  0  0  0  0  0  0  0  0  0  0  0
   24.0094  -21.4663  -14.7583 O   0  0  0  0  0  0  0  0  0  0  0  0
   18.3353  -23.1754  -16.1150 C   0  0  0  0  0  0  0  0  0  0  0  0
   27.9030  -22.0990  -12.4465 C   0  0  1  0  0  0  0  0  0  0  0  0
   27.9334  -20.7145  -13.1292 C   0  0  0  0  0  0  0  0  0  0  0  0
   28.8910  -19.8194  -12.3694 C   0  0  0  0  0  0  0  0  0  0  0  0
   26.5413  -20.1558  -13.2113 C   0  0  1  0  0  0  0  0  0  0  0  0
   25.5843  -20.9824  -12.4300 N   0  0  0  0  0  0  0  0  0  0  0  0
   24.1981  -20.5744  -12.6841 C   0  0  0  0  0  0  0  0  0  0  0  0
   25.8866  -20.9543  -10.9990 O   0  0  0  0  0  0  0  0  0  0  0  0
   25.0305  -20.1881  -10.1632 O   0  0  0  0  0  0  0  0  0  0  0  0
  1  2  1  0
  3  2  1  0
  3  4  1  1
  5  3  1  0
  6  5  2  0
  7  8  1  0
  8 10  1  0
  8  9  2  0
 10 11  1  0
 11 12  1  0
 13 12  1  0
 14 13  1  6
 14 15  1  0
 15  5  1  0
 16 14  1  0
 16 17  2  0
 19 21  1  0
 19 18  1  6
 20 19  1  0
 22 21  1  6
 22 23  1  0
 23 16  1  0
 24 22  1  0
 25 24  1  0
 26 24  2  0
M  END
$$$$
