SRL.pdb
     RDKit          3D

 26 25  0  0  1  0  0  0  0  0999 V2000
   30.3228  -25.7178  -15.9476 O   0  0  0  0  0  0  0  0  0  0  0  0
   29.1092  -25.0371  -15.9567 C   0  0  0  0  0  0  0  0  0  0  0  0
   28.2818  -25.4659  -17.1470 C   0  0  2  0  0  0  0  0  0  0  0  0
   28.8252  -24.8474  -18.3376 N   0  0  0  0  0  0  0  0  0  0  0  0
   26.8549  -25.0232  -16.9828 C   0  0  0  0  0  0  0  0  0  0  0  0
   26.4689  -23.9345  -17.4884 O   0  0  0  0  0  0  0  0  0  0  0  0
   19.6840  -29.6369  -16.3216 N   0  0  0  0  0  0  0  0  0  0  0  0
   20.0380  -28.7812  -17.3850 C   0  0  0  0  0  0  0  0  0  0  0  0
   19.6188  -28.9322  -18.5888 N   0  0  0  0  0  0  0  0  0  0  0  0
   20.9048  -27.6994  -17.0924 N   0  0  0  0  0  0  0  0  0  0  0  0
   21.3373  -27.4202  -15.7524 C   0  0  0  0  0  0  0  0  0  0  0  0
   22.1971  -26.1552  -15.7090 C   0  0  0  0  0  0  0  0  0  0  0  0
   23.6277  -26.4796  -16.0403 C   0  0  0  0  0  0  0  0  0  0  0  0
   24.5214  -25.2592  -16.0927 C   0  0  2  0  0  0  0  0  0  0  0  0
   25.8988  -25.7916  -16.2685 N   0  0  0  0  0  0  0  0  0  0  0  0
   24.4905  -24.4397  -14.8676 C   0  0  0  0  0  0  0  0  0  0  0  0
   25.1477  -24.8693  -13.8620 O   0  0  0  0  0  0  0  0  0  0  0  0
   19.8748  -28.2851  -19.3538 C   0  0  0  0  0  0  0  0  0  0  0  0
   27.2260  -19.9368  -13.5917 C   0  0  1  0  0  0  0  0  0  0  0  0
   26.1849  -20.8670  -12.9324 C   0  0  0  0  0  0  0  0  0  0  0  0
   26.8001  -21.4821  -11.6918 C   0  0  0  0  0  0  0  0  0  0  0  0
   25.7124  -21.8892  -13.9266 C   0  0  2  0  0  0  0  0  0  0  0  0
   24.2671  -22.1856  -13.7461 N   0  0  0  0  0  0  0  0  0  0  0  0
   23.8171  -23.2265  -14.6769 C   0  0  0  0  0  0  0  0  0  0  0  0
   23.4473  -20.9803  -13.8690 O   0  0  0  0  0  0  0  0  0  0  0  0
   23.3288  -20.1485  -12.7233 O   0  0  0  0  0  0  0  0  0  0  0  0
  1  2  1  0
  3  2  1  0
  3  4  1  6
  5  3  1  0
  6  5  2  0
  7  8  1  0
  8 10  1  0
  8  9  2  0
 10 11  1  0
 11 12  1  0
 13 12  1  0
 14 13  1  1
 14 15  1  0
 15  5  1  0
 16 14  1  0
 16 17  2  0
 19 21  1  0
 19 18  1  1
 20 19  1  0
 22 21  1  1
 22 23  1  0
 23 16  1  0
 24 22  1  0
 25 24  1  0
 26 24  2  0
M  END
$$$$
