SRL.pdb
     RDKit          3D

 26 25  0  0  1  0  0  0  0  0999 V2000
   20.7624  -17.9290  -13.7648 O   0  0  0  0  0  0  0  0  0  0  0  0
   21.4430  -17.1099  -14.6605 C   0  0  0  0  0  0  0  0  0  0  0  0
   21.9530  -17.9257  -15.8265 C   0  0  2  0  0  0  0  0  0  0  0  0
   20.8881  -18.7897  -16.2902 N   0  0  0  0  0  0  0  0  0  0  0  0
   23.1156  -18.7789  -15.4032 C   0  0  0  0  0  0  0  0  0  0  0  0
   22.9184  -19.9487  -14.9759 O   0  0  0  0  0  0  0  0  0  0  0  0
   28.5514  -21.3870  -18.1083 N   0  0  0  0  0  0  0  0  0  0  0  0
   28.7827  -20.4365  -19.1240 C   0  0  0  0  0  0  0  0  0  0  0  0
   28.9055  -20.7383  -20.3656 N   0  0  0  0  0  0  0  0  0  0  0  0
   28.8825  -19.0774  -18.7366 N   0  0  0  0  0  0  0  0  0  0  0  0
   28.5757  -18.6489  -17.4014 C   0  0  0  0  0  0  0  0  0  0  0  0
   27.2589  -19.2621  -16.9205 C   0  0  0  0  0  0  0  0  0  0  0  0
   26.8159  -18.6169  -15.6363 C   0  0  0  0  0  0  0  0  0  0  0  0
   25.5590  -19.2322  -15.0599 C   0  0  2  0  0  0  0  0  0  0  0  0
   24.4570  -18.3188  -15.4634 N   0  0  0  0  0  0  0  0  0  0  0  0
   25.5625  -19.3384  -13.5896 C   0  0  0  0  0  0  0  0  0  0  0  0
   25.1538  -18.3252  -12.9307 O   0  0  0  0  0  0  0  0  0  0  0  0
   29.0221  -20.0240  -21.1043 C   0  0  0  0  0  0  0  0  0  0  0  0
   25.8419  -20.0819   -8.8125 C   0  0  1  0  0  0  0  0  0  0  0  0
   24.4159  -20.1930   -9.3939 C   0  0  0  0  0  0  0  0  0  0  0  0
   23.7213  -21.3775   -8.7534 C   0  0  0  0  0  0  0  0  0  0  0  0
   24.4817  -20.2857  -10.8918 C   0  0  1  0  0  0  0  0  0  0  0  0
   25.8802  -20.4795  -11.3567 N   0  0  0  0  0  0  0  0  0  0  0  0
   25.9649  -20.4380  -12.8207 C   0  0  0  0  0  0  0  0  0  0  0  0
   26.4593  -21.7160  -10.8316 O   0  0  0  0  0  0  0  0  0  0  0  0
   27.4392  -21.5986   -9.8095 O   0  0  0  0  0  0  0  0  0  0  0  0
  1  2  1  0
  3  2  1  0
  3  4  1  1
  5  3  1  0
  6  5  2  0
  7  8  1  0
  8 10  1  0
  8  9  2  0
 10 11  1  0
 11 12  1  0
 13 12  1  0
 14 13  1  1
 14 15  1  0
 15  5  1  0
 16 14  1  0
 16 17  2  0
 19 21  1  0
 19 18  1  1
 20 19  1  0
 22 21  1  1
 22 23  1  0
 23 16  1  0
 24 22  1  0
 25 24  1  0
 26 24  2  0
M  END
$$$$
