SRL.pdb
     RDKit          3D

 26 25  0  0  1  0  0  0  0  0999 V2000
   29.1231  -21.5975  -13.8617 O   0  0  0  0  0  0  0  0  0  0  0  0
   28.1377  -22.1197  -14.6941 C   0  0  0  0  0  0  0  0  0  0  0  0
   27.1565  -21.0367  -15.0808 C   0  0  2  0  0  0  0  0  0  0  0  0
   27.8506  -20.0408  -15.8695 N   0  0  0  0  0  0  0  0  0  0  0  0
   26.5943  -20.3738  -13.8547 C   0  0  0  0  0  0  0  0  0  0  0  0
   26.8487  -19.1616  -13.6189 O   0  0  0  0  0  0  0  0  0  0  0  0
   19.8997  -21.8467  -11.1308 N   0  0  0  0  0  0  0  0  0  0  0  0
   20.4201  -22.3804  -12.3279 C   0  0  0  0  0  0  0  0  0  0  0  0
   20.2157  -23.5866  -12.7164 N   0  0  0  0  0  0  0  0  0  0  0  0
   21.2100  -21.5254  -13.1355 N   0  0  0  0  0  0  0  0  0  0  0  0
   21.4101  -20.1440  -12.8008 C   0  0  0  0  0  0  0  0  0  0  0  0
   22.8973  -19.7850  -12.8315 C   0  0  0  0  0  0  0  0  0  0  0  0
   23.6688  -20.6568  -11.8794 C   0  0  0  0  0  0  0  0  0  0  0  0
   25.1409  -20.3116  -11.8109 C   0  0  2  0  0  0  0  0  0  0  0  0
   25.7706  -21.0647  -12.9279 N   0  0  0  0  0  0  0  0  0  0  0  0
   25.7933  -20.7124  -10.5512 C   0  0  0  0  0  0  0  0  0  0  0  0
   26.1687  -21.9276  -10.4498 O   0  0  0  0  0  0  0  0  0  0  0  0
   20.6958  -23.9978  -13.5349 C   0  0  0  0  0  0  0  0  0  0  0  0
   27.9039  -18.6728   -5.0622 C   0  0  1  0  0  0  0  0  0  0  0  0
   27.7478  -19.8329   -6.0691 C   0  0  0  0  0  0  0  0  0  0  0  0
   29.0883  -20.5209   -6.2286 C   0  0  0  0  0  0  0  0  0  0  0  0
   27.1929  -19.3125   -7.3644 C   0  0  2  0  0  0  0  0  0  0  0  0
   26.6083  -20.4108   -8.1777 N   0  0  0  0  0  0  0  0  0  0  0  0
   26.0555  -19.9033   -9.4383 C   0  0  0  0  0  0  0  0  0  0  0  0
   25.6026  -21.1638   -7.4282 O   0  0  0  0  0  0  0  0  0  0  0  0
   26.0531  -22.2631   -6.6489 O   0  0  0  0  0  0  0  0  0  0  0  0
  1  2  1  0
  3  2  1  0
  3  4  1  6
  5  3  1  0
  6  5  2  0
  7  8  1  0
  8 10  1  0
  8  9  2  0
 10 11  1  0
 11 12  1  0
 13 12  1  0
 14 13  1  1
 14 15  1  0
 15  5  1  0
 16 14  1  0
 16 17  2  0
 19 21  1  0
 19 18  1  1
 20 19  1  0
 22 21  1  6
 22 23  1  0
 23 16  1  0
 24 22  1  0
 25 24  1  0
 26 24  2  0
M  END
$$$$
