SQE.pdb
     RDKit          3D

 25 24  0  0  1  0  0  0  0  0999 V2000
    8.6424  -19.8325   20.4252 O   0  0  0  0  0  0  0  0  0  0  0  0
    7.3537  -20.3888   20.2785 C   0  0  0  0  0  0  0  0  0  0  0  0
    6.4004  -19.4117   20.9642 C   0  0  2  0  0  0  0  0  0  0  0  0
    6.4694  -18.1799   20.2170 N   0  0  0  0  0  0  0  0  0  0  0  0
    6.7919  -19.1635   22.3590 C   0  0  0  0  0  0  0  0  0  0  0  0
    7.3181  -18.0530   22.6890 O   0  0  0  0  0  0  0  0  0  0  0  0
    5.0569  -22.6280   27.2462 N   0  0  0  0  0  0  0  0  0  0  0  0
    5.9425  -21.7565   27.9277 C   0  0  0  0  0  0  0  0  0  0  0  0
    6.0574  -21.8848   29.1710 O   0  0  0  0  0  0  0  0  0  0  0  0
    6.6825  -20.7436   27.1351 C   0  0  0  0  0  0  0  0  0  0  0  0
    6.2957  -20.9087   25.7032 C   0  0  0  0  0  0  0  0  0  0  0  0
    6.9526  -19.9134   24.7787 C   0  0  2  0  0  0  0  0  0  0  0  0
    6.6102  -20.1228   23.3903 N   0  0  0  0  0  0  0  0  0  0  0  0
    8.4296  -19.8788   24.9650 C   0  0  0  0  0  0  0  0  0  0  0  0
    9.1787  -20.5425   24.2027 O   0  0  0  0  0  0  0  0  0  0  0  0
    9.0689  -19.1198   25.9812 N   0  0  0  0  0  0  0  0  0  0  0  0
   10.5229  -19.0300   26.0858 C   0  0  1  0  0  0  0  0  0  0  0  0
   11.1419  -18.4148   24.8923 C   0  0  0  0  0  0  0  0  0  0  0  0
   11.0170  -16.9603   24.6855 C   0  0  0  0  0  0  0  0  0  0  0  0
   11.5877  -16.3302   23.5236 C   0  0  0  0  0  0  0  0  0  0  0  0
   12.5807  -15.6068   23.5105 O   0  0  0  0  0  0  0  0  0  0  0  0
   10.9572  -18.5229   27.3813 C   0  0  0  0  0  0  0  0  0  0  0  0
   12.3301  -18.4305   27.6904 O   0  0  0  0  0  0  0  0  0  0  0  0
   10.9632  -16.5522   22.2780 O   0  0  0  0  0  0  0  0  0  0  0  0
   10.1669  -18.1495   28.2860 O   0  0  0  0  0  0  0  0  0  0  0  0
  2  1  1  0
  2  3  1  0
  3  5  1  0
  3  4  1  6
  5  6  2  0
  7  8  1  0
  8  9  2  0
 10  8  1  0
 10 11  1  0
 12 11  1  1
 13 12  1  0
 13  5  1  0
 14 16  1  0
 14 12  1  0
 15 14  2  0
 17 18  1  6
 17 16  1  0
 19 18  1  0
 20 24  1  0
 20 19  1  0
 21 20  2  0
 22 23  1  0
 22 17  1  0
 25 22  2  0
M  END
$$$$
