SQE.pdb
     RDKit          3D

 25 24  0  0  1  0  0  0  0  0999 V2000
    9.2406  -18.0744   13.5412 O   0  0  0  0  0  0  0  0  0  0  0  0
   10.2716  -17.4733   14.2945 C   0  0  0  0  0  0  0  0  0  0  0  0
   10.0019  -15.9706   14.2403 C   0  0  2  0  0  0  0  0  0  0  0  0
   10.8048  -15.4491   13.1616 N   0  0  0  0  0  0  0  0  0  0  0  0
   10.3772  -15.3083   15.4976 C   0  0  0  0  0  0  0  0  0  0  0  0
   11.5874  -14.9790   15.7120 O   0  0  0  0  0  0  0  0  0  0  0  0
    6.3660  -13.6263   20.0144 N   0  0  0  0  0  0  0  0  0  0  0  0
    7.5555  -13.1146   20.5903 C   0  0  0  0  0  0  0  0  0  0  0  0
    7.4672  -12.5028   21.6827 O   0  0  0  0  0  0  0  0  0  0  0  0
    8.8354  -13.3302   19.8712 C   0  0  0  0  0  0  0  0  0  0  0  0
    8.5299  -14.0329   18.5905 C   0  0  0  0  0  0  0  0  0  0  0  0
    9.7491  -14.3138   17.7470 C   0  0  2  0  0  0  0  0  0  0  0  0
    9.4362  -15.0061   16.5174 N   0  0  0  0  0  0  0  0  0  0  0  0
   10.7972  -15.0396   18.5165 C   0  0  0  0  0  0  0  0  0  0  0  0
   10.7744  -16.2955   18.5864 O   0  0  0  0  0  0  0  0  0  0  0  0
   11.8562  -14.3842   19.1995 N   0  0  0  0  0  0  0  0  0  0  0  0
   12.9458  -15.1214   19.8339 C   0  0  1  0  0  0  0  0  0  0  0  0
   14.2719  -14.5326   19.5495 C   0  0  0  0  0  0  0  0  0  0  0  0
   15.4748  -15.1507   20.1365 C   0  0  0  0  0  0  0  0  0  0  0  0
   16.7855  -14.6285   19.8498 C   0  0  0  0  0  0  0  0  0  0  0  0
   17.7680  -14.7045   20.5835 O   0  0  0  0  0  0  0  0  0  0  0  0
   12.6608  -15.4472   21.2255 C   0  0  0  0  0  0  0  0  0  0  0  0
   11.6270  -14.7842   21.9189 O   0  0  0  0  0  0  0  0  0  0  0  0
   16.9778  -13.9659   18.6191 O   0  0  0  0  0  0  0  0  0  0  0  0
   13.2969  -16.3085   21.8857 O   0  0  0  0  0  0  0  0  0  0  0  0
  2  1  1  0
  2  3  1  0
  3  5  1  0
  3  4  1  6
  5  6  2  0
  7  8  1  0
  8  9  2  0
 10  8  1  0
 10 11  1  0
 12 11  1  1
 13 12  1  0
 13  5  1  0
 14 16  1  0
 14 12  1  0
 15 14  2  0
 17 18  1  1
 17 16  1  0
 19 18  1  0
 20 24  1  0
 20 19  1  0
 21 20  2  0
 22 23  1  0
 22 17  1  0
 25 22  2  0
M  END
$$$$
