SQE.pdb
     RDKit          3D

 25 24  0  0  1  0  0  0  0  0999 V2000
    7.9803  -16.0407   19.4199 O   0  0  0  0  0  0  0  0  0  0  0  0
    8.5107  -14.8778   18.8215 C   0  0  0  0  0  0  0  0  0  0  0  0
    7.9853  -13.7083   19.6522 C   0  0  2  0  0  0  0  0  0  0  0  0
    8.4409  -12.5054   18.9998 N   0  0  0  0  0  0  0  0  0  0  0  0
    8.5014  -13.7475   21.0278 C   0  0  0  0  0  0  0  0  0  0  0  0
    9.7114  -13.4353   21.2675 O   0  0  0  0  0  0  0  0  0  0  0  0
    5.1716  -13.8810   26.2218 N   0  0  0  0  0  0  0  0  0  0  0  0
    5.7205  -12.6616   25.7524 C   0  0  0  0  0  0  0  0  0  0  0  0
    5.2153  -11.5891   26.1643 O   0  0  0  0  0  0  0  0  0  0  0  0
    6.8590  -12.7214   24.8025 C   0  0  0  0  0  0  0  0  0  0  0  0
    7.1647  -14.1587   24.5419 C   0  0  0  0  0  0  0  0  0  0  0  0
    8.2049  -14.3730   23.4700 C   0  0  2  0  0  0  0  0  0  0  0  0
    7.7008  -14.1257   22.1382 N   0  0  0  0  0  0  0  0  0  0  0  0
    8.8241  -15.7239   23.5642 C   0  0  0  0  0  0  0  0  0  0  0  0
    8.9114  -16.4521   22.5420 O   0  0  0  0  0  0  0  0  0  0  0  0
    9.3399  -16.2617   24.7735 N   0  0  0  0  0  0  0  0  0  0  0  0
   10.5530  -17.0743   24.8077 C   0  0  1  0  0  0  0  0  0  0  0  0
   11.6047  -16.5643   23.9023 C   0  0  0  0  0  0  0  0  0  0  0  0
   12.1314  -17.4442   22.8429 C   0  0  0  0  0  0  0  0  0  0  0  0
   13.2258  -17.0194   22.0095 C   0  0  0  0  0  0  0  0  0  0  0  0
   14.1928  -16.3544   22.3730 O   0  0  0  0  0  0  0  0  0  0  0  0
   10.9643  -17.4029   26.1666 C   0  0  0  0  0  0  0  0  0  0  0  0
   10.2976  -16.8372   27.2731 O   0  0  0  0  0  0  0  0  0  0  0  0
   13.2026  -17.3914   20.6487 O   0  0  0  0  0  0  0  0  0  0  0  0
   11.9126  -18.1829   26.4402 O   0  0  0  0  0  0  0  0  0  0  0  0
  2  1  1  0
  2  3  1  0
  3  5  1  0
  3  4  1  6
  5  6  2  0
  7  8  1  0
  8  9  2  0
 10  8  1  0
 10 11  1  0
 12 11  1  1
 13 12  1  0
 13  5  1  0
 14 16  1  0
 14 12  1  0
 15 14  2  0
 17 18  1  1
 17 16  1  0
 19 18  1  0
 20 24  1  0
 20 19  1  0
 21 20  2  0
 22 23  1  0
 22 17  1  0
 25 22  2  0
M  END
$$$$
