SQE.pdb
     RDKit          3D

 25 24  0  0  1  0  0  0  0  0999 V2000
    5.9552  -19.4265   21.5507 O   0  0  0  0  0  0  0  0  0  0  0  0
    6.9207  -19.6792   20.5528 C   0  0  0  0  0  0  0  0  0  0  0  0
    6.6547  -18.6554   19.4507 C   0  0  2  0  0  0  0  0  0  0  0  0
    6.7702  -19.3622   18.1987 N   0  0  0  0  0  0  0  0  0  0  0  0
    7.6300  -17.5564   19.4869 C   0  0  0  0  0  0  0  0  0  0  0  0
    8.8364  -17.7583   19.1363 O   0  0  0  0  0  0  0  0  0  0  0  0
    9.0119  -12.9011   17.8409 N   0  0  0  0  0  0  0  0  0  0  0  0
    9.5075  -12.6846   19.1508 C   0  0  0  0  0  0  0  0  0  0  0  0
   10.7421  -12.5103   19.2940 O   0  0  0  0  0  0  0  0  0  0  0  0
    8.5411  -12.6761   20.2768 C   0  0  0  0  0  0  0  0  0  0  0  0
    7.5837  -13.8019   20.0688 C   0  0  0  0  0  0  0  0  0  0  0  0
    8.2370  -15.1621   20.0718 C   0  0  2  0  0  0  0  0  0  0  0  0
    7.2910  -16.2419   19.9039 N   0  0  0  0  0  0  0  0  0  0  0  0
    9.0740  -15.3695   21.2857 C   0  0  0  0  0  0  0  0  0  0  0  0
    8.5413  -15.3890   22.4253 O   0  0  0  0  0  0  0  0  0  0  0  0
   10.4818  -15.5530   21.2391 N   0  0  0  0  0  0  0  0  0  0  0  0
   11.2710  -15.8198   22.4387 C   0  0  1  0  0  0  0  0  0  0  0  0
   10.6747  -16.8719   23.2893 C   0  0  0  0  0  0  0  0  0  0  0  0
   11.3916  -17.3104   24.5008 C   0  0  0  0  0  0  0  0  0  0  0  0
   10.8314  -18.3174   25.3639 C   0  0  0  0  0  0  0  0  0  0  0  0
    9.7071  -18.8036   25.2693 O   0  0  0  0  0  0  0  0  0  0  0  0
   12.6948  -15.9406   22.1524 C   0  0  0  0  0  0  0  0  0  0  0  0
   13.6338  -16.0018   23.2029 O   0  0  0  0  0  0  0  0  0  0  0  0
   11.6320  -18.8018   26.4198 O   0  0  0  0  0  0  0  0  0  0  0  0
   13.1717  -15.9921   20.9894 O   0  0  0  0  0  0  0  0  0  0  0  0
  2  1  1  0
  2  3  1  0
  3  5  1  0
  3  4  1  6
  5  6  2  0
  7  8  1  0
  8  9  2  0
 10  8  1  0
 10 11  1  0
 12 11  1  1
 13 12  1  0
 13  5  1  0
 14 16  1  0
 14 12  1  0
 15 14  2  0
 17 18  1  6
 17 16  1  0
 19 18  1  0
 20 24  1  0
 20 19  1  0
 21 20  2  0
 22 23  1  0
 22 17  1  0
 25 22  2  0
M  END
$$$$
