SQE.pdb
     RDKit          3D

 25 24  0  0  1  0  0  0  0  0999 V2000
    8.2938  -20.9712   20.4425 O   0  0  0  0  0  0  0  0  0  0  0  0
    7.0236  -20.6037   19.9492 C   0  0  0  0  0  0  0  0  0  0  0  0
    7.2918  -19.7192   18.7328 C   0  0  2  0  0  0  0  0  0  0  0  0
    7.8723  -20.5731   17.7257 N   0  0  0  0  0  0  0  0  0  0  0  0
    8.2256  -18.6299   19.0520 C   0  0  0  0  0  0  0  0  0  0  0  0
    9.4707  -18.7673   18.8291 O   0  0  0  0  0  0  0  0  0  0  0  0
    8.3660  -11.6115   19.5844 N   0  0  0  0  0  0  0  0  0  0  0  0
    8.0504  -12.6232   20.5253 C   0  0  0  0  0  0  0  0  0  0  0  0
    7.0970  -12.4184   21.3155 O   0  0  0  0  0  0  0  0  0  0  0  0
    8.8629  -13.8649   20.5234 C   0  0  0  0  0  0  0  0  0  0  0  0
    7.9622  -15.0025   20.1742 C   0  0  0  0  0  0  0  0  0  0  0  0
    8.6869  -16.3111   19.9758 C   0  0  2  0  0  0  0  0  0  0  0  0
    7.8030  -17.3952   19.6120 N   0  0  0  0  0  0  0  0  0  0  0  0
    9.5121  -16.6702   21.1621 C   0  0  0  0  0  0  0  0  0  0  0  0
    9.0604  -17.4602   22.0308 O   0  0  0  0  0  0  0  0  0  0  0  0
   10.8197  -16.1618   21.3841 N   0  0  0  0  0  0  0  0  0  0  0  0
   11.6846  -16.6766   22.4424 C   0  0  1  0  0  0  0  0  0  0  0  0
   11.6544  -18.1520   22.5340 C   0  0  0  0  0  0  0  0  0  0  0  0
   12.5114  -18.8294   23.5242 C   0  0  0  0  0  0  0  0  0  0  0  0
   12.4814  -20.2618   23.6665 C   0  0  0  0  0  0  0  0  0  0  0  0
   11.7334  -21.0302   23.0671 O   0  0  0  0  0  0  0  0  0  0  0  0
   13.0000  -16.0493   22.4403 C   0  0  0  0  0  0  0  0  0  0  0  0
   13.9104  -16.2914   23.4898 O   0  0  0  0  0  0  0  0  0  0  0  0
   13.3864  -20.8545   24.5723 O   0  0  0  0  0  0  0  0  0  0  0  0
   13.4014  -15.2709   21.5373 O   0  0  0  0  0  0  0  0  0  0  0  0
  2  1  1  0
  2  3  1  0
  3  5  1  0
  3  4  1  6
  5  6  2  0
  7  8  1  0
  8  9  2  0
 10  8  1  0
 10 11  1  0
 12 11  1  1
 13 12  1  0
 13  5  1  0
 14 16  1  0
 14 12  1  0
 15 14  2  0
 17 18  1  6
 17 16  1  0
 19 18  1  0
 20 24  1  0
 20 19  1  0
 21 20  2  0
 22 23  1  0
 22 17  1  0
 25 22  2  0
M  END
$$$$
