SQE.pdb
     RDKit          3D

 25 24  0  0  1  0  0  0  0  0999 V2000
   -0.4568  -24.0218   26.8503 O   0  0  0  0  0  0  0  0  0  0  0  0
   -0.8223  -24.8791   27.9102 C   0  0  0  0  0  0  0  0  0  0  0  0
   -2.3233  -25.1154   27.7528 C   0  0  2  0  0  0  0  0  0  0  0  0
   -2.5135  -25.6793   26.4389 N   0  0  0  0  0  0  0  0  0  0  0  0
   -3.0826  -23.8619   27.8646 C   0  0  0  0  0  0  0  0  0  0  0  0
   -3.0583  -23.1923   28.9463 O   0  0  0  0  0  0  0  0  0  0  0  0
   -4.5102  -19.9787   23.3091 N   0  0  0  0  0  0  0  0  0  0  0  0
   -3.2917  -19.9443   24.0319 C   0  0  0  0  0  0  0  0  0  0  0  0
   -2.3513  -19.2519   23.5719 O   0  0  0  0  0  0  0  0  0  0  0  0
   -3.1964  -20.7268   25.2891 C   0  0  0  0  0  0  0  0  0  0  0  0
   -4.5382  -21.3195   25.5640 C   0  0  0  0  0  0  0  0  0  0  0  0
   -4.6041  -22.0992   26.8541 C   0  0  2  0  0  0  0  0  0  0  0  0
   -3.8655  -23.3404   26.8007 N   0  0  0  0  0  0  0  0  0  0  0  0
   -6.0098  -22.3326   27.2865 C   0  0  0  0  0  0  0  0  0  0  0  0
   -6.7557  -23.0999   26.6250 O   0  0  0  0  0  0  0  0  0  0  0  0
   -6.5823  -21.7249   28.4357 N   0  0  0  0  0  0  0  0  0  0  0  0
   -7.8403  -22.1886   29.0149 C   0  0  1  0  0  0  0  0  0  0  0  0
   -7.8452  -23.6445   29.2724 C   0  0  0  0  0  0  0  0  0  0  0  0
   -7.0931  -24.1743   30.4246 C   0  0  0  0  0  0  0  0  0  0  0  0
   -7.2130  -25.5564   30.8096 C   0  0  0  0  0  0  0  0  0  0  0  0
   -8.2640  -26.1771   30.9494 O   0  0  0  0  0  0  0  0  0  0  0  0
   -8.3024  -21.3320   30.0997 C   0  0  0  0  0  0  0  0  0  0  0  0
   -9.6031  -21.4800   30.6244 O   0  0  0  0  0  0  0  0  0  0  0  0
   -6.0261  -26.2796   31.0526 O   0  0  0  0  0  0  0  0  0  0  0  0
   -7.6013  -20.4284   30.6235 O   0  0  0  0  0  0  0  0  0  0  0  0
  2  1  1  0
  2  3  1  0
  3  5  1  0
  3  4  1  6
  5  6  2  0
  7  8  1  0
  8  9  2  0
 10  8  1  0
 10 11  1  0
 12 11  1  6
 13 12  1  0
 13  5  1  0
 14 16  1  0
 14 12  1  0
 15 14  2  0
 17 18  1  1
 17 16  1  0
 19 18  1  0
 20 24  1  0
 20 19  1  0
 21 20  2  0
 22 23  1  0
 22 17  1  0
 25 22  2  0
M  END
$$$$
