SFP.pdb
     RDKit          3D

 25 26  0  0  1  0  0  0  0  0999 V2000
   24.5757  -21.8196  -13.1580 O   0  0  0  0  0  0  0  0  0  0  0  0
   24.6683  -21.5591  -11.7919 C   0  0  0  0  0  0  0  0  0  0  0  0
   25.0052  -20.0841  -11.5396 C   0  0  2  0  0  0  0  0  0  0  0  0
   25.4545  -19.5428  -12.8068 N   0  0  0  0  0  0  0  0  0  0  0  0
   26.1350  -20.0654  -10.5844 C   0  0  0  0  0  0  0  0  0  0  0  0
   27.3026  -20.3025  -10.9885 O   0  0  0  0  0  0  0  0  0  0  0  0
   25.9824  -19.7899   -9.2048 N   0  0  0  0  0  0  0  0  0  0  0  0
   27.1218  -19.8479   -8.2996 C   0  0  1  0  0  0  0  0  0  0  0  0
   26.7297  -19.1655   -6.9836 C   0  0  0  0  0  0  0  0  0  0  0  0
   27.7870  -19.2234   -5.9722 C   0  0  0  0  0  0  0  0  0  0  0  0
   28.6444  -18.1197   -5.8345 C   0  0  0  0  0  0  0  0  0  0  0  0
   29.6666  -18.0877   -4.9168 C   0  0  0  0  0  0  0  0  0  0  0  0
   29.8901  -19.1579   -4.0836 C   0  0  0  0  0  0  0  0  0  0  0  0
   29.0730  -20.2569   -4.1873 C   0  0  0  0  0  0  0  0  0  0  0  0
   28.0412  -20.2643   -5.1285 C   0  0  0  0  0  0  0  0  0  0  0  0
   27.6235  -21.1926   -8.0283 C   0  0  0  0  0  0  0  0  0  0  0  0
   26.7406  -22.1068   -7.8845 O   0  0  0  0  0  0  0  0  0  0  0  0
   28.9777  -21.5044   -7.9341 N   0  0  0  0  0  0  0  0  0  0  0  0
   30.0859  -20.5835   -8.0494 C   0  0  0  0  0  0  0  0  0  0  0  0
   30.8223  -21.3171   -9.1836 C   0  0  0  0  0  0  0  0  0  0  0  0
   30.8679  -22.7111   -8.6447 C   0  0  0  0  0  0  0  0  0  0  0  0
   29.6064  -22.7916   -7.7648 C   0  0  1  0  0  0  0  0  0  0  0  0
   29.9935  -23.0278   -6.3670 C   0  0  0  0  0  0  0  0  0  0  0  0
   30.1156  -24.3309   -5.8519 O   0  0  0  0  0  0  0  0  0  0  0  0
   30.2230  -22.0723   -5.6044 O   0  0  0  0  0  0  0  0  0  0  0  0
  2  1  1  0
  3  2  1  0
  3  4  1  6
  5  3  1  0
  5  6  2  0
  7  5  1  0
  8  7  1  0
  8  9  1  1
  9 10  1  0
 10 11  2  0
 10 15  1  0
 11 12  1  0
 12 13  2  0
 14 13  1  0
 15 14  2  0
 16  8  1  0
 17 16  2  0
 18 22  1  0
 18 16  1  0
 19 20  1  0
 19 18  1  0
 20 21  1  0
 21 22  1  0
 23 24  1  0
 22 23  1  1
 25 23  2  0
M  END
$$$$
