SFP.pdb
     RDKit          3D

 25 26  0  0  1  0  0  0  0  0999 V2000
   22.6548  -18.1509  -19.6543 O   0  0  0  0  0  0  0  0  0  0  0  0
   22.4333  -17.1384  -18.7223 C   0  0  0  0  0  0  0  0  0  0  0  0
   23.7381  -16.3999  -18.3988 C   0  0  2  0  0  0  0  0  0  0  0  0
   24.3944  -16.1506  -19.6667 N   0  0  0  0  0  0  0  0  0  0  0  0
   24.5680  -17.3345  -17.6068 C   0  0  0  0  0  0  0  0  0  0  0  0
   25.6149  -17.8219  -18.1061 O   0  0  0  0  0  0  0  0  0  0  0  0
   24.2508  -17.7270  -16.2847 N   0  0  0  0  0  0  0  0  0  0  0  0
   25.1014  -18.6576  -15.5558 C   0  0  1  0  0  0  0  0  0  0  0  0
   24.8213  -18.4971  -14.0569 C   0  0  0  0  0  0  0  0  0  0  0  0
   25.5784  -19.4386  -13.2295 C   0  0  0  0  0  0  0  0  0  0  0  0
   24.8849  -20.4833  -12.5970 C   0  0  0  0  0  0  0  0  0  0  0  0
   25.5114  -21.4095  -11.7985 C   0  0  0  0  0  0  0  0  0  0  0  0
   26.8681  -21.3443  -11.5866 C   0  0  0  0  0  0  0  0  0  0  0  0
   27.5823  -20.3370  -12.1877 C   0  0  0  0  0  0  0  0  0  0  0  0
   26.9215  -19.4081  -12.9945 C   0  0  0  0  0  0  0  0  0  0  0  0
   24.9496  -20.0587  -15.9394 C   0  0  0  0  0  0  0  0  0  0  0  0
   23.7847  -20.4148  -16.3296 O   0  0  0  0  0  0  0  0  0  0  0  0
   25.9910  -20.9831  -15.9060 N   0  0  0  0  0  0  0  0  0  0  0  0
   27.3292  -20.7586  -15.4080 C   0  0  0  0  0  0  0  0  0  0  0  0
   28.0774  -21.1727  -16.6870 C   0  0  0  0  0  0  0  0  0  0  0  0
   27.4401  -22.4933  -16.9801 C   0  0  0  0  0  0  0  0  0  0  0  0
   26.0221  -22.3384  -16.3991 C   0  0  1  0  0  0  0  0  0  0  0  0
   25.8216  -23.3144  -15.3191 C   0  0  0  0  0  0  0  0  0  0  0  0
   25.7658  -22.9137  -13.9719 O   0  0  0  0  0  0  0  0  0  0  0  0
   25.6961  -24.5250  -15.5760 O   0  0  0  0  0  0  0  0  0  0  0  0
  2  1  1  0
  3  2  1  0
  3  4  1  6
  5  3  1  0
  5  6  2  0
  7  5  1  0
  8  7  1  0
  8  9  1  1
  9 10  1  0
 10 11  2  0
 10 15  1  0
 11 12  1  0
 12 13  2  0
 14 13  1  0
 15 14  2  0
 16  8  1  0
 17 16  2  0
 18 22  1  0
 18 16  1  0
 19 20  1  0
 19 18  1  0
 20 21  1  0
 21 22  1  0
 23 24  1  0
 22 23  1  1
 25 23  2  0
M  END
$$$$
