SFP.pdb
     RDKit          3D

 25 26  0  0  1  0  0  0  0  0999 V2000
   31.8593  -30.0553  -17.8343 O   0  0  0  0  0  0  0  0  0  0  0  0
   33.1474  -30.3785  -18.2578 C   0  0  0  0  0  0  0  0  0  0  0  0
   34.1717  -29.3849  -17.6956 C   0  0  2  0  0  0  0  0  0  0  0  0
   34.2313  -28.2814  -18.6333 N   0  0  0  0  0  0  0  0  0  0  0  0
   35.4778  -30.0801  -17.6921 C   0  0  0  0  0  0  0  0  0  0  0  0
   36.1376  -30.1818  -18.7584 O   0  0  0  0  0  0  0  0  0  0  0  0
   36.0497  -30.6550  -16.5323 N   0  0  0  0  0  0  0  0  0  0  0  0
   37.3291  -31.3479  -16.5935 C   0  0  1  0  0  0  0  0  0  0  0  0
   38.2194  -30.8213  -15.4616 C   0  0  0  0  0  0  0  0  0  0  0  0
   38.6966  -29.4571  -15.6968 C   0  0  0  0  0  0  0  0  0  0  0  0
   39.9306  -29.2805  -16.3437 C   0  0  0  0  0  0  0  0  0  0  0  0
   40.4591  -28.0386  -16.6014 C   0  0  0  0  0  0  0  0  0  0  0  0
   39.7837  -26.9014  -16.2269 C   0  0  0  0  0  0  0  0  0  0  0  0
   38.5731  -27.0319  -15.5915 C   0  0  0  0  0  0  0  0  0  0  0  0
   38.0580  -28.3056  -15.3413 C   0  0  0  0  0  0  0  0  0  0  0  0
   37.2436  -32.8041  -16.5179 C   0  0  0  0  0  0  0  0  0  0  0  0
   36.2880  -33.2783  -15.8121 O   0  0  0  0  0  0  0  0  0  0  0  0
   38.1262  -33.6618  -17.1702 N   0  0  0  0  0  0  0  0  0  0  0  0
   39.2251  -33.2807  -18.0284 C   0  0  0  0  0  0  0  0  0  0  0  0
   38.7921  -34.0942  -19.2603 C   0  0  0  0  0  0  0  0  0  0  0  0
   38.5560  -35.4389  -18.6505 C   0  0  0  0  0  0  0  0  0  0  0  0
   38.1348  -35.1039  -17.2074 C   0  0  1  0  0  0  0  0  0  0  0  0
   39.1118  -35.6660  -16.2647 C   0  0  0  0  0  0  0  0  0  0  0  0
   40.0037  -34.8404  -15.5564 O   0  0  0  0  0  0  0  0  0  0  0  0
   39.1709  -36.8935  -16.0721 O   0  0  0  0  0  0  0  0  0  0  0  0
  2  1  1  0
  3  2  1  0
  3  4  1  6
  5  3  1  0
  5  6  2  0
  7  5  1  0
  8  7  1  0
  8  9  1  1
  9 10  1  0
 10 11  2  0
 10 15  1  0
 11 12  1  0
 12 13  2  0
 14 13  1  0
 15 14  2  0
 16  8  1  0
 17 16  2  0
 18 22  1  0
 18 16  1  0
 19 20  1  0
 19 18  1  0
 20 21  1  0
 21 22  1  0
 23 24  1  0
 22 23  1  1
 25 23  2  0
M  END
$$$$
