SFP.pdb
     RDKit          3D

 25 26  0  0  1  0  0  0  0  0999 V2000
   25.5145  -17.8453  -14.1430 O   0  0  0  0  0  0  0  0  0  0  0  0
   26.2429  -16.7796  -13.6171 C   0  0  0  0  0  0  0  0  0  0  0  0
   27.6862  -17.2019  -13.3150 C   0  0  2  0  0  0  0  0  0  0  0  0
   28.1582  -17.9173  -14.4837 N   0  0  0  0  0  0  0  0  0  0  0  0
   27.6221  -18.1410  -12.1734 C   0  0  0  0  0  0  0  0  0  0  0  0
   27.8243  -19.3689  -12.3585 O   0  0  0  0  0  0  0  0  0  0  0  0
   27.3397  -17.7352  -10.8474 N   0  0  0  0  0  0  0  0  0  0  0  0
   27.3306  -18.6989   -9.7557 C   0  0  1  0  0  0  0  0  0  0  0  0
   27.6087  -17.9502   -8.4468 C   0  0  0  0  0  0  0  0  0  0  0  0
   27.9028  -18.8464   -7.3267 C   0  0  0  0  0  0  0  0  0  0  0  0
   26.9236  -19.0252   -6.3360 C   0  0  0  0  0  0  0  0  0  0  0  0
   27.1138  -19.8418   -5.2475 C   0  0  0  0  0  0  0  0  0  0  0  0
   28.2946  -20.5270   -5.0869 C   0  0  0  0  0  0  0  0  0  0  0  0
   29.2777  -20.3786   -6.0345 C   0  0  0  0  0  0  0  0  0  0  0  0
   29.0593  -19.5424   -7.1315 C   0  0  0  0  0  0  0  0  0  0  0  0
   26.0986  -19.4732   -9.6296 C   0  0  0  0  0  0  0  0  0  0  0  0
   25.0056  -18.8140   -9.7135 O   0  0  0  0  0  0  0  0  0  0  0  0
   26.0725  -20.8527   -9.4383 N   0  0  0  0  0  0  0  0  0  0  0  0
   27.2102  -21.7141   -9.2083 C   0  0  0  0  0  0  0  0  0  0  0  0
   26.9514  -22.6824  -10.3756 C   0  0  0  0  0  0  0  0  0  0  0  0
   25.5117  -23.0216  -10.1561 C   0  0  0  0  0  0  0  0  0  0  0  0
   24.9494  -21.7570   -9.4801 C   0  0  1  0  0  0  0  0  0  0  0  0
   24.4692  -22.0899   -8.1319 C   0  0  0  0  0  0  0  0  0  0  0  0
   23.2085  -22.6799   -7.9293 O   0  0  0  0  0  0  0  0  0  0  0  0
   25.1733  -21.8547   -7.1338 O   0  0  0  0  0  0  0  0  0  0  0  0
  2  1  1  0
  3  2  1  0
  3  4  1  6
  5  3  1  0
  5  6  2  0
  7  5  1  0
  8  7  1  0
  8  9  1  1
  9 10  1  0
 10 11  2  0
 10 15  1  0
 11 12  1  0
 12 13  2  0
 14 13  1  0
 15 14  2  0
 16  8  1  0
 17 16  2  0
 18 22  1  0
 18 16  1  0
 19 20  1  0
 19 18  1  0
 20 21  1  0
 21 22  1  0
 23 24  1  0
 22 23  1  1
 25 23  2  0
M  END
$$$$
