SFP.pdb
     RDKit          3D

 25 26  0  0  1  0  0  0  0  0999 V2000
   21.2573  -21.1783  -14.2678 O   0  0  0  0  0  0  0  0  0  0  0  0
   21.2667  -21.5309  -12.9193 C   0  0  0  0  0  0  0  0  0  0  0  0
   21.6422  -20.3288  -12.0438 C   0  0  2  0  0  0  0  0  0  0  0  0
   20.9201  -19.1908  -12.5767 N   0  0  0  0  0  0  0  0  0  0  0  0
   23.0927  -20.1051  -12.2319 C   0  0  0  0  0  0  0  0  0  0  0  0
   23.4939  -19.1219  -12.9067 O   0  0  0  0  0  0  0  0  0  0  0  0
   24.0873  -20.9507  -11.6857 N   0  0  0  0  0  0  0  0  0  0  0  0
   25.4964  -20.7407  -11.9876 C   0  0  1  0  0  0  0  0  0  0  0  0
   26.3295  -21.6106  -11.0388 C   0  0  0  0  0  0  0  0  0  0  0  0
   26.4985  -21.0114   -9.7134 C   0  0  0  0  0  0  0  0  0  0  0  0
   27.8011  -20.7648   -9.2501 C   0  0  0  0  0  0  0  0  0  0  0  0
   28.0552  -20.2109   -8.0186 C   0  0  0  0  0  0  0  0  0  0  0  0
   27.0209  -19.8715   -7.1792 C   0  0  0  0  0  0  0  0  0  0  0  0
   25.7318  -20.0970   -7.5959 C   0  0  0  0  0  0  0  0  0  0  0  0
   25.5006  -20.6614   -8.8522 C   0  0  0  0  0  0  0  0  0  0  0  0
   25.8761  -21.0153  -13.3710 C   0  0  0  0  0  0  0  0  0  0  0  0
   25.1193  -21.8200  -14.0157 O   0  0  0  0  0  0  0  0  0  0  0  0
   26.9852  -20.4459  -13.9922 N   0  0  0  0  0  0  0  0  0  0  0  0
   28.0214  -19.6617  -13.3595 C   0  0  0  0  0  0  0  0  0  0  0  0
   27.8901  -18.4185  -14.2563 C   0  0  0  0  0  0  0  0  0  0  0  0
   27.9389  -19.0370  -15.6168 C   0  0  0  0  0  0  0  0  0  0  0  0
   27.3427  -20.4388  -15.3897 C   0  0  1  0  0  0  0  0  0  0  0  0
   28.3527  -21.4608  -15.6975 C   0  0  0  0  0  0  0  0  0  0  0  0
   28.9928  -22.1874  -14.6772 O   0  0  0  0  0  0  0  0  0  0  0  0
   28.6652  -21.7063  -16.8763 O   0  0  0  0  0  0  0  0  0  0  0  0
  2  1  1  0
  3  2  1  0
  3  4  1  6
  5  3  1  0
  5  6  2  0
  7  5  1  0
  8  7  1  0
  8  9  1  1
  9 10  1  0
 10 11  2  0
 10 15  1  0
 11 12  1  0
 12 13  2  0
 14 13  1  0
 15 14  2  0
 16  8  1  0
 17 16  2  0
 18 22  1  0
 18 16  1  0
 19 20  1  0
 19 18  1  0
 20 21  1  0
 21 22  1  0
 23 24  1  0
 22 23  1  1
 25 23  2  0
M  END
$$$$
