SFP.pdb
     RDKit          3D

 25 26  0  0  1  0  0  0  0  0999 V2000
   25.7075  -18.0043  -14.1120 O   0  0  0  0  0  0  0  0  0  0  0  0
   26.0477  -16.7819  -13.5350 C   0  0  0  0  0  0  0  0  0  0  0  0
   27.5072  -16.7888  -13.0635 C   0  0  2  0  0  0  0  0  0  0  0  0
   28.2957  -17.2827  -14.1748 N   0  0  0  0  0  0  0  0  0  0  0  0
   27.5879  -17.7611  -11.9510 C   0  0  0  0  0  0  0  0  0  0  0  0
   27.9426  -18.9466  -12.1779 O   0  0  0  0  0  0  0  0  0  0  0  0
   27.2826  -17.4338  -10.6085 N   0  0  0  0  0  0  0  0  0  0  0  0
   27.3340  -18.4447   -9.5615 C   0  0  1  0  0  0  0  0  0  0  0  0
   27.4288  -17.7336   -8.2063 C   0  0  0  0  0  0  0  0  0  0  0  0
   27.6555  -18.6554   -7.0914 C   0  0  0  0  0  0  0  0  0  0  0  0
   28.9766  -18.9043   -6.6852 C   0  0  0  0  0  0  0  0  0  0  0  0
   29.2843  -19.7577   -5.6531 C   0  0  0  0  0  0  0  0  0  0  0  0
   28.2882  -20.4115   -4.9677 C   0  0  0  0  0  0  0  0  0  0  0  0
   26.9826  -20.1948   -5.3348 C   0  0  0  0  0  0  0  0  0  0  0  0
   26.6967  -19.3226   -6.3874 C   0  0  0  0  0  0  0  0  0  0  0  0
   26.2102  -19.3776   -9.5522 C   0  0  0  0  0  0  0  0  0  0  0  0
   25.0498  -18.8663   -9.7203 O   0  0  0  0  0  0  0  0  0  0  0  0
   26.3528  -20.7528   -9.3831 N   0  0  0  0  0  0  0  0  0  0  0  0
   27.5797  -21.4666   -9.1107 C   0  0  0  0  0  0  0  0  0  0  0  0
   27.5023  -22.4352  -10.3036 C   0  0  0  0  0  0  0  0  0  0  0  0
   26.1094  -22.9599  -10.1600 C   0  0  0  0  0  0  0  0  0  0  0  0
   25.3584  -21.7921   -9.4935 C   0  0  1  0  0  0  0  0  0  0  0  0
   24.8625  -22.2119   -8.1755 C   0  0  0  0  0  0  0  0  0  0  0  0
   23.4865  -22.3626   -7.9255 O   0  0  0  0  0  0  0  0  0  0  0  0
   25.6559  -22.4445   -7.2461 O   0  0  0  0  0  0  0  0  0  0  0  0
  2  1  1  0
  3  2  1  0
  3  4  1  6
  5  3  1  0
  5  6  2  0
  7  5  1  0
  8  7  1  0
  8  9  1  1
  9 10  1  0
 10 11  2  0
 10 15  1  0
 11 12  1  0
 12 13  2  0
 14 13  1  0
 15 14  2  0
 16  8  1  0
 17 16  2  0
 18 22  1  0
 18 16  1  0
 19 20  1  0
 19 18  1  0
 20 21  1  0
 21 22  1  0
 23 24  1  0
 22 23  1  1
 25 23  2  0
M  END
$$$$
