SFP.pdb
     RDKit          3D

 25 26  0  0  1  0  0  0  0  0999 V2000
   14.3426  -23.5694    3.8084 O   0  0  0  0  0  0  0  0  0  0  0  0
   15.4599  -22.7361    3.8001 C   0  0  0  0  0  0  0  0  0  0  0  0
   15.4816  -21.8657    2.5373 C   0  0  2  0  0  0  0  0  0  0  0  0
   16.0161  -22.6951    1.4757 N   0  0  0  0  0  0  0  0  0  0  0  0
   16.4280  -20.7595    2.8020 C   0  0  0  0  0  0  0  0  0  0  0  0
   17.6601  -20.9962    2.8945 O   0  0  0  0  0  0  0  0  0  0  0  0
   16.0246  -19.4126    2.9626 N   0  0  0  0  0  0  0  0  0  0  0  0
   16.9767  -18.3902    3.3736 C   0  0  1  0  0  0  0  0  0  0  0  0
   16.4846  -17.0339    2.8544 C   0  0  0  0  0  0  0  0  0  0  0  0
   17.3918  -15.9325    3.1831 C   0  0  0  0  0  0  0  0  0  0  0  0
   17.0149  -15.0317    4.1924 C   0  0  0  0  0  0  0  0  0  0  0  0
   17.7997  -13.9666    4.5636 C   0  0  0  0  0  0  0  0  0  0  0  0
   19.0071  -13.7410    3.9465 C   0  0  0  0  0  0  0  0  0  0  0  0
   19.4116  -14.5998    2.9539 C   0  0  0  0  0  0  0  0  0  0  0  0
   18.5953  -15.6747    2.5954 C   0  0  0  0  0  0  0  0  0  0  0  0
   17.2118  -18.3123    4.8130 C   0  0  0  0  0  0  0  0  0  0  0  0
   16.2186  -18.6041    5.5645 O   0  0  0  0  0  0  0  0  0  0  0  0
   18.4352  -17.9548    5.3749 N   0  0  0  0  0  0  0  0  0  0  0  0
   19.6464  -17.6163    4.6626 C   0  0  0  0  0  0  0  0  0  0  0  0
   20.5570  -18.6583    5.3350 C   0  0  0  0  0  0  0  0  0  0  0  0
   20.2670  -18.4063    6.7801 C   0  0  0  0  0  0  0  0  0  0  0  0
   18.8153  -17.8918    6.7650 C   0  0  1  0  0  0  0  0  0  0  0  0
   18.7739  -16.5154    7.2779 C   0  0  0  0  0  0  0  0  0  0  0  0
   18.6113  -15.4173    6.4140 O   0  0  0  0  0  0  0  0  0  0  0  0
   18.8826  -16.2912    8.4966 O   0  0  0  0  0  0  0  0  0  0  0  0
  2  1  1  0
  3  2  1  0
  3  4  1  6
  5  3  1  0
  5  6  2  0
  7  5  1  0
  8  7  1  0
  8  9  1  1
  9 10  1  0
 10 11  2  0
 10 15  1  0
 11 12  1  0
 12 13  2  0
 14 13  1  0
 15 14  2  0
 16  8  1  0
 17 16  2  0
 18 22  1  0
 18 16  1  0
 19 20  1  0
 19 18  1  0
 20 21  1  0
 21 22  1  0
 23 24  1  0
 22 23  1  6
 25 23  2  0
M  END
$$$$
