SFP.pdb
     RDKit          3D

 25 26  0  0  1  0  0  0  0  0999 V2000
   25.6437  -18.7706  -19.2938 O   0  0  0  0  0  0  0  0  0  0  0  0
   26.6538  -17.9545  -18.7872 C   0  0  0  0  0  0  0  0  0  0  0  0
   27.8521  -18.7931  -18.3252 C   0  0  2  0  0  0  0  0  0  0  0  0
   28.1471  -19.7167  -19.4025 N   0  0  0  0  0  0  0  0  0  0  0  0
   27.3998  -19.5635  -17.1457 C   0  0  0  0  0  0  0  0  0  0  0  0
   26.9907  -20.7449  -17.2867 O   0  0  0  0  0  0  0  0  0  0  0  0
   27.3976  -19.0418  -15.8302 N   0  0  0  0  0  0  0  0  0  0  0  0
   26.7862  -19.7795  -14.7336 C   0  0  1  0  0  0  0  0  0  0  0  0
   27.3515  -19.2415  -13.4137 C   0  0  0  0  0  0  0  0  0  0  0  0
   26.8162  -19.9320  -12.2386 C   0  0  0  0  0  0  0  0  0  0  0  0
   25.7403  -19.3483  -11.5500 C   0  0  0  0  0  0  0  0  0  0  0  0
   25.1777  -19.9217  -10.4352 C   0  0  0  0  0  0  0  0  0  0  0  0
   25.6589  -21.1123   -9.9446 C   0  0  0  0  0  0  0  0  0  0  0  0
   26.7108  -21.7150  -10.5900 C   0  0  0  0  0  0  0  0  0  0  0  0
   27.2647  -21.1114  -11.7210 C   0  0  0  0  0  0  0  0  0  0  0  0
   25.3266  -19.7343  -14.7007 C   0  0  0  0  0  0  0  0  0  0  0  0
   24.7879  -18.6241  -15.0373 O   0  0  0  0  0  0  0  0  0  0  0  0
   24.5309  -20.8188  -14.3391 N   0  0  0  0  0  0  0  0  0  0  0  0
   24.9872  -22.0961  -13.8397 C   0  0  0  0  0  0  0  0  0  0  0  0
   24.2919  -22.9706  -14.8975 C   0  0  0  0  0  0  0  0  0  0  0  0
   22.8971  -22.4341  -14.8446 C   0  0  0  0  0  0  0  0  0  0  0  0
   23.0984  -20.9661  -14.4245 C   0  0  1  0  0  0  0  0  0  0  0  0
   22.4495  -20.7302  -13.1274 C   0  0  0  0  0  0  0  0  0  0  0  0
   21.1208  -20.2758  -13.0459 O   0  0  0  0  0  0  0  0  0  0  0  0
   23.0669  -20.9291  -12.0660 O   0  0  0  0  0  0  0  0  0  0  0  0
  2  1  1  0
  3  2  1  0
  3  4  1  6
  5  3  1  0
  5  6  2  0
  7  5  1  0
  8  7  1  0
  8  9  1  1
  9 10  1  0
 10 11  2  0
 10 15  1  0
 11 12  1  0
 12 13  2  0
 14 13  1  0
 15 14  2  0
 16  8  1  0
 17 16  2  0
 18 22  1  0
 18 16  1  0
 19 20  1  0
 19 18  1  0
 20 21  1  0
 21 22  1  0
 23 24  1  0
 22 23  1  1
 25 23  2  0
M  END
$$$$
