SFP.pdb
     RDKit          3D

 25 26  0  0  1  0  0  0  0  0999 V2000
   16.0062  -11.9455  -16.8446 O   0  0  0  0  0  0  0  0  0  0  0  0
   17.0459  -12.2366  -17.7261 C   0  0  0  0  0  0  0  0  0  0  0  0
   18.2225  -12.8854  -16.9862 C   0  0  2  0  0  0  0  0  0  0  0  0
   17.7100  -14.1004  -16.3848 N   0  0  0  0  0  0  0  0  0  0  0  0
   18.6145  -11.9481  -15.9105 C   0  0  0  0  0  0  0  0  0  0  0  0
   18.0676  -12.0259  -14.7801 O   0  0  0  0  0  0  0  0  0  0  0  0
   19.5938  -10.9401  -16.0759 N   0  0  0  0  0  0  0  0  0  0  0  0
   19.8371   -9.9545  -15.0318 C   0  0  1  0  0  0  0  0  0  0  0  0
   21.2982   -9.4992  -15.1270 C   0  0  0  0  0  0  0  0  0  0  0  0
   21.6590   -8.5170  -14.1026 C   0  0  0  0  0  0  0  0  0  0  0  0
   22.1278   -8.9821  -12.8632 C   0  0  0  0  0  0  0  0  0  0  0  0
   22.4843   -8.1343  -11.8423 C   0  0  0  0  0  0  0  0  0  0  0  0
   22.3925   -6.7721  -12.0022 C   0  0  0  0  0  0  0  0  0  0  0  0
   21.9382   -6.2774  -13.2001 C   0  0  0  0  0  0  0  0  0  0  0  0
   21.5821   -7.1605  -14.2218 C   0  0  0  0  0  0  0  0  0  0  0  0
   18.9541   -8.7915  -15.0666 C   0  0  0  0  0  0  0  0  0  0  0  0
   18.5894   -8.3933  -16.2261 O   0  0  0  0  0  0  0  0  0  0  0  0
   18.5043   -8.1321  -13.9251 N   0  0  0  0  0  0  0  0  0  0  0  0
   18.8670   -8.4283  -12.5576 C   0  0  0  0  0  0  0  0  0  0  0  0
   17.4381   -8.6295  -12.0238 C   0  0  0  0  0  0  0  0  0  0  0  0
   16.7654   -7.3915  -12.5246 C   0  0  0  0  0  0  0  0  0  0  0  0
   17.5458   -7.0602  -13.8105 C   0  0  1  0  0  0  0  0  0  0  0  0
   18.2048   -5.7549  -13.6657 C   0  0  0  0  0  0  0  0  0  0  0  0
   17.4669   -4.5575  -13.6773 O   0  0  0  0  0  0  0  0  0  0  0  0
   19.4390   -5.6814  -13.5289 O   0  0  0  0  0  0  0  0  0  0  0  0
  2  1  1  0
  3  2  1  0
  3  4  1  1
  5  3  1  0
  5  6  2  0
  7  5  1  0
  8  7  1  0
  8  9  1  6
  9 10  1  0
 10 11  2  0
 10 15  1  0
 11 12  1  0
 12 13  2  0
 14 13  1  0
 15 14  2  0
 16  8  1  0
 17 16  2  0
 18 22  1  0
 18 16  1  0
 19 20  1  0
 19 18  1  0
 20 21  1  0
 21 22  1  0
 23 24  1  0
 22 23  1  1
 25 23  2  0
M  END
$$$$
