SFP.pdb
     RDKit          3D

 25 26  0  0  1  0  0  0  0  0999 V2000
   17.5095  -11.0637  -18.4055 O   0  0  0  0  0  0  0  0  0  0  0  0
   18.3678  -11.7496  -19.2631 C   0  0  0  0  0  0  0  0  0  0  0  0
   19.0899  -12.8815  -18.5215 C   0  0  2  0  0  0  0  0  0  0  0  0
   18.1053  -13.4990  -17.6555 N   0  0  0  0  0  0  0  0  0  0  0  0
   20.1294  -12.2431  -17.6841 C   0  0  0  0  0  0  0  0  0  0  0  0
   19.8672  -11.9179  -16.4974 O   0  0  0  0  0  0  0  0  0  0  0  0
   21.4383  -11.9667  -18.1457 N   0  0  0  0  0  0  0  0  0  0  0  0
   22.4242  -11.3457  -17.2721 C   0  0  1  0  0  0  0  0  0  0  0  0
   23.7935  -11.9698  -17.5670 C   0  0  0  0  0  0  0  0  0  0  0  0
   24.8715  -11.3890  -16.7641 C   0  0  0  0  0  0  0  0  0  0  0  0
   25.5641  -10.2787  -17.2741 C   0  0  0  0  0  0  0  0  0  0  0  0
   26.5922   -9.6723  -16.5935 C   0  0  0  0  0  0  0  0  0  0  0  0
   26.9871  -10.1414  -15.3633 C   0  0  0  0  0  0  0  0  0  0  0  0
   26.3346  -11.2259  -14.8300 C   0  0  0  0  0  0  0  0  0  0  0  0
   25.2928  -11.8242  -15.5421 C   0  0  0  0  0  0  0  0  0  0  0  0
   22.5109   -9.8916  -17.3790 C   0  0  0  0  0  0  0  0  0  0  0  0
   22.4343   -9.4061  -18.5600 O   0  0  0  0  0  0  0  0  0  0  0  0
   22.6585   -9.0465  -16.2816 N   0  0  0  0  0  0  0  0  0  0  0  0
   22.8878   -9.4435  -14.9108 C   0  0  0  0  0  0  0  0  0  0  0  0
   21.6853   -8.7050  -14.2979 C   0  0  0  0  0  0  0  0  0  0  0  0
   21.8606   -7.3372  -14.8761 C   0  0  0  0  0  0  0  0  0  0  0  0
   22.5625   -7.6085  -16.2199 C   0  0  1  0  0  0  0  0  0  0  0  0
   23.8882   -6.9748  -16.2214 C   0  0  0  0  0  0  0  0  0  0  0  0
   25.0664   -7.7431  -16.2140 O   0  0  0  0  0  0  0  0  0  0  0  0
   23.9968   -5.7356  -16.2292 O   0  0  0  0  0  0  0  0  0  0  0  0
  2  1  1  0
  3  2  1  0
  3  4  1  1
  5  3  1  0
  5  6  2  0
  7  5  1  0
  8  7  1  0
  8  9  1  6
  9 10  1  0
 10 11  2  0
 10 15  1  0
 11 12  1  0
 12 13  2  0
 14 13  1  0
 15 14  2  0
 16  8  1  0
 17 16  2  0
 18 22  1  0
 18 16  1  0
 19 20  1  0
 19 18  1  0
 20 21  1  0
 21 22  1  0
 23 24  1  0
 22 23  1  1
 25 23  2  0
M  END
$$$$
