SFP.pdb
     RDKit          3D

 25 26  0  0  1  0  0  0  0  0999 V2000
   24.9139   -9.9745  -15.1977 O   0  0  0  0  0  0  0  0  0  0  0  0
   23.6039  -10.1501  -14.7548 C   0  0  0  0  0  0  0  0  0  0  0  0
   22.6578  -10.3996  -15.9360 C   0  0  2  0  0  0  0  0  0  0  0  0
   23.4399  -11.0723  -16.9540 N   0  0  0  0  0  0  0  0  0  0  0  0
   22.2552   -9.0694  -16.4439 C   0  0  0  0  0  0  0  0  0  0  0  0
   22.7440   -8.6334  -17.5180 O   0  0  0  0  0  0  0  0  0  0  0  0
   21.3283   -8.2313  -15.7798 N   0  0  0  0  0  0  0  0  0  0  0  0
   20.9304   -6.9533  -16.3534 C   0  0  1  0  0  0  0  0  0  0  0  0
   19.4122   -6.8046  -16.1978 C   0  0  0  0  0  0  0  0  0  0  0  0
   18.6569   -7.6371  -17.1363 C   0  0  0  0  0  0  0  0  0  0  0  0
   18.1450   -8.8637  -16.6826 C   0  0  0  0  0  0  0  0  0  0  0  0
   17.4295   -9.7114  -17.4934 C   0  0  0  0  0  0  0  0  0  0  0  0
   17.1846   -9.3812  -18.8051 C   0  0  0  0  0  0  0  0  0  0  0  0
   17.6686   -8.1897  -19.2871 C   0  0  0  0  0  0  0  0  0  0  0  0
   18.3930   -7.3459  -18.4423 C   0  0  0  0  0  0  0  0  0  0  0  0
   21.6017   -5.7880  -15.7835 C   0  0  0  0  0  0  0  0  0  0  0  0
   22.1120   -5.9422  -14.6208 O   0  0  0  0  0  0  0  0  0  0  0  0
   21.7104   -4.5645  -16.4404 N   0  0  0  0  0  0  0  0  0  0  0  0
   21.2893   -4.2694  -17.7912 C   0  0  0  0  0  0  0  0  0  0  0  0
   22.6444   -3.7484  -18.3007 C   0  0  0  0  0  0  0  0  0  0  0  0
   22.9934   -2.7597  -17.2345 C   0  0  0  0  0  0  0  0  0  0  0  0
   22.3068   -3.3339  -15.9811 C   0  0  1  0  0  0  0  0  0  0  0  0
   21.2934   -2.3870  -15.4957 C   0  0  0  0  0  0  0  0  0  0  0  0
   19.9199   -2.6254  -15.6832 O   0  0  0  0  0  0  0  0  0  0  0  0
   21.6322   -1.3465  -14.9040 O   0  0  0  0  0  0  0  0  0  0  0  0
  2  1  1  0
  3  2  1  0
  3  4  1  6
  5  3  1  0
  5  6  2  0
  7  5  1  0
  8  7  1  0
  8  9  1  1
  9 10  1  0
 10 11  2  0
 10 15  1  0
 11 12  1  0
 12 13  2  0
 14 13  1  0
 15 14  2  0
 16  8  1  0
 17 16  2  0
 18 22  1  0
 18 16  1  0
 19 20  1  0
 19 18  1  0
 20 21  1  0
 21 22  1  0
 23 24  1  0
 22 23  1  6
 25 23  2  0
M  END
$$$$
