SFP.pdb
     RDKit          3D

 25 26  0  0  1  0  0  0  0  0999 V2000
   27.1790  -22.4772  -17.9459 O   0  0  0  0  0  0  0  0  0  0  0  0
   27.4520  -21.4189  -18.8110 C   0  0  0  0  0  0  0  0  0  0  0  0
   28.5075  -20.4820  -18.2103 C   0  0  2  0  0  0  0  0  0  0  0  0
   29.7852  -21.1477  -18.3681 N   0  0  0  0  0  0  0  0  0  0  0  0
   28.2018  -20.3704  -16.7669 C   0  0  0  0  0  0  0  0  0  0  0  0
   28.9138  -20.9773  -15.9257 O   0  0  0  0  0  0  0  0  0  0  0  0
   27.1286  -19.6022  -16.2564 N   0  0  0  0  0  0  0  0  0  0  0  0
   26.9415  -19.4385  -14.8215 C   0  0  1  0  0  0  0  0  0  0  0  0
   26.5286  -17.9871  -14.5496 C   0  0  0  0  0  0  0  0  0  0  0  0
   25.3242  -17.5885  -15.2809 C   0  0  0  0  0  0  0  0  0  0  0  0
   25.4702  -17.0436  -16.5671 C   0  0  0  0  0  0  0  0  0  0  0  0
   24.3977  -16.6374  -17.3238 C   0  0  0  0  0  0  0  0  0  0  0  0
   23.1170  -16.7527  -16.8378 C   0  0  0  0  0  0  0  0  0  0  0  0
   22.9322  -17.2809  -15.5836 C   0  0  0  0  0  0  0  0  0  0  0  0
   24.0391  -17.6862  -14.8347 C   0  0  0  0  0  0  0  0  0  0  0  0
   25.9704  -20.3491  -14.2204 C   0  0  0  0  0  0  0  0  0  0  0  0
   25.3684  -21.1430  -15.0225 O   0  0  0  0  0  0  0  0  0  0  0  0
   25.6945  -20.3888  -12.8557 N   0  0  0  0  0  0  0  0  0  0  0  0
   26.3005  -19.5725  -11.8282 C   0  0  0  0  0  0  0  0  0  0  0  0
   26.7985  -20.7265  -10.9410 C   0  0  0  0  0  0  0  0  0  0  0  0
   25.5572  -21.5507  -10.8149 C   0  0  0  0  0  0  0  0  0  0  0  0
   24.8087  -21.2666  -12.1306 C   0  0  1  0  0  0  0  0  0  0  0  0
   23.5225  -20.6194  -11.8373 C   0  0  0  0  0  0  0  0  0  0  0  0
   22.3909  -21.3718  -11.4741 O   0  0  0  0  0  0  0  0  0  0  0  0
   23.4070  -19.3826  -11.9046 O   0  0  0  0  0  0  0  0  0  0  0  0
  2  1  1  0
  3  2  1  0
  3  4  1  1
  5  3  1  0
  5  6  2  0
  7  5  1  0
  8  7  1  0
  8  9  1  6
  9 10  1  0
 10 11  2  0
 10 15  1  0
 11 12  1  0
 12 13  2  0
 14 13  1  0
 15 14  2  0
 16  8  1  0
 17 16  2  0
 18 22  1  0
 18 16  1  0
 19 20  1  0
 19 18  1  0
 20 21  1  0
 21 22  1  0
 23 24  1  0
 22 23  1  1
 25 23  2  0
M  END
$$$$
