QSR.pdb
     RDKit          3D

 27 26  0  0  1  0  0  0  0  0999 V2000
   31.0942  -26.6469  -20.0164 N   0  0  0  0  0  0  0  0  0  0  0  0
   30.2725  -27.7436  -19.6860 C   0  0  0  0  0  0  0  0  0  0  0  0
   30.5964  -28.9030  -20.0390 O   0  0  0  0  0  0  0  0  0  0  0  0
   29.0383  -27.5209  -18.9281 C   0  0  0  0  0  0  0  0  0  0  0  0
   28.8042  -26.0296  -18.6591 C   0  0  0  0  0  0  0  0  0  0  0  0
   29.0331  -25.8222  -17.1716 C   0  0  2  0  0  0  0  0  0  0  0  0
   28.3813  -26.9315  -16.5003 N   0  0  0  0  0  0  0  0  0  0  0  0
   28.4659  -24.5662  -16.6811 C   0  0  0  0  0  0  0  0  0  0  0  0
   27.5784  -24.5718  -15.7645 O   0  0  0  0  0  0  0  0  0  0  0  0
   29.7973  -21.0384  -18.1532 O   0  0  0  0  0  0  0  0  0  0  0  0
   29.2430  -20.9380  -16.8959 C   0  0  0  0  0  0  0  0  0  0  0  0
   28.2166  -22.0508  -16.6465 C   0  0  2  0  0  0  0  0  0  0  0  0
   28.8234  -23.2676  -17.1482 N   0  0  0  0  0  0  0  0  0  0  0  0
   27.0002  -21.6643  -17.3935 C   0  0  0  0  0  0  0  0  0  0  0  0
   26.8375  -21.9728  -18.6033 O   0  0  0  0  0  0  0  0  0  0  0  0
   19.9238  -21.5197  -12.9050 N   0  0  0  0  0  0  0  0  0  0  0  0
   20.2766  -22.6436  -13.7122 C   0  0  0  0  0  0  0  0  0  0  0  0
   19.6505  -23.7606  -13.5277 N   0  0  0  0  0  0  0  0  0  0  0  0
   21.3023  -22.5193  -14.6984 N   0  0  0  0  0  0  0  0  0  0  0  0
   21.9495  -21.2606  -14.9191 C   0  0  0  0  0  0  0  0  0  0  0  0
   22.9546  -21.4427  -16.0304 C   0  0  0  0  0  0  0  0  0  0  0  0
   23.7056  -20.1920  -16.3449 C   0  0  0  0  0  0  0  0  0  0  0  0
   24.8023  -20.4341  -17.3487 C   0  0  2  0  0  0  0  0  0  0  0  0
   26.0163  -20.9242  -16.6805 N   0  0  0  0  0  0  0  0  0  0  0  0
   25.1128  -19.2622  -18.1952 C   0  0  0  0  0  0  0  0  0  0  0  0
   24.5936  -19.0868  -19.4644 O   0  0  0  0  0  0  0  0  0  0  0  0
   25.8851  -18.3720  -17.7563 O   0  0  0  0  0  0  0  0  0  0  0  0
  1  2  1  0
  2  4  1  0
  2  3  2  0
  4  5  1  0
  5  6  1  0
  6  7  1  1
  6  8  1  0
  8 13  1  0
  8  9  2  0
 11 10  1  0
 12 11  1  6
 13 12  1  0
 14 12  1  0
 14 15  2  0
 17 19  1  0
 17 16  1  0
 18 17  2  0
 20 19  1  0
 20 21  1  0
 21 22  1  0
 23 22  1  1
 23 24  1  0
 24 14  1  0
 25 23  1  0
 26 25  1  0
 27 25  2  0
M  END
$$$$
