QSR.pdb
     RDKit          3D

 27 26  0  0  1  0  0  0  0  0999 V2000
   17.7222  -18.9701  -15.3954 N   0  0  0  0  0  0  0  0  0  0  0  0
   18.4016  -18.5830  -16.5684 C   0  0  0  0  0  0  0  0  0  0  0  0
   17.8139  -18.6129  -17.6763 O   0  0  0  0  0  0  0  0  0  0  0  0
   19.7977  -18.1457  -16.4854 C   0  0  0  0  0  0  0  0  0  0  0  0
   20.3034  -18.1488  -15.0379 C   0  0  0  0  0  0  0  0  0  0  0  0
   21.7718  -17.7632  -15.0970 C   0  0  2  0  0  0  0  0  0  0  0  0
   21.8698  -16.6776  -16.0551 N   0  0  0  0  0  0  0  0  0  0  0  0
   22.6296  -18.8650  -15.5328 C   0  0  0  0  0  0  0  0  0  0  0  0
   22.8415  -19.8620  -14.7655 O   0  0  0  0  0  0  0  0  0  0  0  0
   25.1675  -18.6245  -18.8850 O   0  0  0  0  0  0  0  0  0  0  0  0
   24.5275  -19.8173  -18.6289 C   0  0  0  0  0  0  0  0  0  0  0  0
   24.2352  -19.9853  -17.1321 C   0  0  2  0  0  0  0  0  0  0  0  0
   23.2877  -18.9416  -16.7951 N   0  0  0  0  0  0  0  0  0  0  0  0
   25.5323  -19.8301  -16.4390 C   0  0  0  0  0  0  0  0  0  0  0  0
   25.8683  -18.7465  -15.8928 O   0  0  0  0  0  0  0  0  0  0  0  0
   25.3811  -20.9297   -9.4088 N   0  0  0  0  0  0  0  0  0  0  0  0
   24.5101  -21.0713  -10.5315 C   0  0  0  0  0  0  0  0  0  0  0  0
   23.2362  -20.9398  -10.3484 N   0  0  0  0  0  0  0  0  0  0  0  0
   25.0515  -21.3523  -11.8230 N   0  0  0  0  0  0  0  0  0  0  0  0
   26.4630  -21.5218  -11.9981 C   0  0  0  0  0  0  0  0  0  0  0  0
   26.7201  -21.8051  -13.4582 C   0  0  0  0  0  0  0  0  0  0  0  0
   27.3225  -20.6445  -14.1776 C   0  0  0  0  0  0  0  0  0  0  0  0
   27.6222  -20.9716  -15.6172 C   0  0  2  0  0  0  0  0  0  0  0  0
   26.3887  -20.9659  -16.4165 N   0  0  0  0  0  0  0  0  0  0  0  0
   28.3571  -22.2408  -15.8055 C   0  0  0  0  0  0  0  0  0  0  0  0
   27.8000  -23.3561  -16.4028 O   0  0  0  0  0  0  0  0  0  0  0  0
   29.5473  -22.3286  -15.4089 O   0  0  0  0  0  0  0  0  0  0  0  0
  1  2  1  0
  2  4  1  0
  2  3  2  0
  4  5  1  0
  5  6  1  0
  6  7  1  6
  6  8  1  0
  8 13  1  0
  8  9  2  0
 11 10  1  0
 12 11  1  6
 13 12  1  0
 14 12  1  0
 14 15  2  0
 17 19  1  0
 17 16  1  0
 18 17  2  0
 20 19  1  0
 20 21  1  0
 21 22  1  0
 23 22  1  1
 23 24  1  0
 24 14  1  0
 25 23  1  0
 26 25  1  0
 27 25  2  0
M  END
$$$$
