QSR.pdb
     RDKit          3D

 27 26  0  0  1  0  0  0  0  0999 V2000
   26.6402  -14.6066  -21.5313 N   0  0  0  0  0  0  0  0  0  0  0  0
   26.3467  -15.9849  -21.4946 C   0  0  0  0  0  0  0  0  0  0  0  0
   26.8015  -16.7501  -22.3785 O   0  0  0  0  0  0  0  0  0  0  0  0
   25.5074  -16.5177  -20.4180 C   0  0  0  0  0  0  0  0  0  0  0  0
   25.0847  -15.4178  -19.4369 C   0  0  0  0  0  0  0  0  0  0  0  0
   25.8503  -15.6752  -18.1501 C   0  0  2  0  0  0  0  0  0  0  0  0
   25.2312  -16.8333  -17.5322 N   0  0  0  0  0  0  0  0  0  0  0  0
   25.7904  -14.5475  -17.2203 C   0  0  0  0  0  0  0  0  0  0  0  0
   24.8134  -14.4302  -16.4081 O   0  0  0  0  0  0  0  0  0  0  0  0
   28.7709  -11.6049  -17.0091 O   0  0  0  0  0  0  0  0  0  0  0  0
   28.0051  -11.8900  -15.9000 C   0  0  0  0  0  0  0  0  0  0  0  0
   26.5911  -12.3351  -16.2958 C   0  0  2  0  0  0  0  0  0  0  0  0
   26.7648  -13.5113  -17.1246 N   0  0  0  0  0  0  0  0  0  0  0  0
   25.9913  -11.1989  -17.0281 C   0  0  0  0  0  0  0  0  0  0  0  0
   25.9813  -11.1505  -18.2862 O   0  0  0  0  0  0  0  0  0  0  0  0
   19.7488   -5.1984  -14.7160 N   0  0  0  0  0  0  0  0  0  0  0  0
   20.3187   -4.8000  -15.9633 C   0  0  0  0  0  0  0  0  0  0  0  0
   19.7826   -3.8111  -16.6023 N   0  0  0  0  0  0  0  0  0  0  0  0
   21.4573   -5.4903  -16.4799 N   0  0  0  0  0  0  0  0  0  0  0  0
   22.0174   -6.6014  -15.7700 C   0  0  0  0  0  0  0  0  0  0  0  0
   23.1402   -7.1684  -16.6043 C   0  0  0  0  0  0  0  0  0  0  0  0
   23.7928   -8.3523  -15.9720 C   0  0  0  0  0  0  0  0  0  0  0  0
   24.8299   -8.9688  -16.8738 C   0  0  2  0  0  0  0  0  0  0  0  0
   25.4230  -10.1570  -16.2437 N   0  0  0  0  0  0  0  0  0  0  0  0
   25.8862   -8.0289  -17.3067 C   0  0  0  0  0  0  0  0  0  0  0  0
   25.7965   -7.2678  -18.4572 O   0  0  0  0  0  0  0  0  0  0  0  0
   26.9237   -7.9030  -16.6073 O   0  0  0  0  0  0  0  0  0  0  0  0
  1  2  1  0
  2  4  1  0
  2  3  2  0
  4  5  1  0
  5  6  1  0
  6  7  1  1
  6  8  1  0
  8 13  1  0
  8  9  2  0
 11 10  1  0
 12 11  1  6
 13 12  1  0
 14 12  1  0
 14 15  2  0
 17 19  1  0
 17 16  1  0
 18 17  2  0
 20 19  1  0
 20 21  1  0
 21 22  1  0
 23 22  1  1
 23 24  1  0
 24 14  1  0
 25 23  1  0
 26 25  1  0
 27 25  2  0
M  END
$$$$
