QSR.pdb
     RDKit          3D

 27 26  0  0  1  0  0  0  0  0999 V2000
   24.4849  -18.2555  -18.1798 N   0  0  0  0  0  0  0  0  0  0  0  0
   25.3689  -19.2409  -18.6641 C   0  0  0  0  0  0  0  0  0  0  0  0
   25.4854  -19.4316  -19.8985 O   0  0  0  0  0  0  0  0  0  0  0  0
   26.1503  -20.0408  -17.7170 C   0  0  0  0  0  0  0  0  0  0  0  0
   25.7917  -19.7032  -16.2650 C   0  0  0  0  0  0  0  0  0  0  0  0
   26.6163  -20.6348  -15.3930 C   0  0  2  0  0  0  0  0  0  0  0  0
   27.2179  -21.6053  -16.2888 N   0  0  0  0  0  0  0  0  0  0  0  0
   25.8099  -21.3392  -14.3963 C   0  0  0  0  0  0  0  0  0  0  0  0
   25.2035  -22.4195  -14.7014 O   0  0  0  0  0  0  0  0  0  0  0  0
   23.9767  -21.3544   -9.8565 O   0  0  0  0  0  0  0  0  0  0  0  0
   24.8710  -20.8763  -10.7889 C   0  0  0  0  0  0  0  0  0  0  0  0
   24.6129  -21.4829  -12.1743 C   0  0  2  0  0  0  0  0  0  0  0  0
   25.6230  -20.9185  -13.0471 N   0  0  0  0  0  0  0  0  0  0  0  0
   23.2396  -21.0830  -12.5499 C   0  0  0  0  0  0  0  0  0  0  0  0
   22.9752  -19.9238  -12.9642 O   0  0  0  0  0  0  0  0  0  0  0  0
   15.7185  -24.3343  -10.5586 N   0  0  0  0  0  0  0  0  0  0  0  0
   15.3015  -23.7456  -11.7911 C   0  0  0  0  0  0  0  0  0  0  0  0
   14.0457  -23.4845  -11.9599 N   0  0  0  0  0  0  0  0  0  0  0  0
   16.2647  -23.4577  -12.8056 N   0  0  0  0  0  0  0  0  0  0  0  0
   17.6249  -23.8819  -12.6577 C   0  0  0  0  0  0  0  0  0  0  0  0
   18.5034  -22.6557  -12.7141 C   0  0  0  0  0  0  0  0  0  0  0  0
   19.9524  -22.9712  -12.5457 C   0  0  0  0  0  0  0  0  0  0  0  0
   20.8058  -21.7311  -12.5983 C   0  0  2  0  0  0  0  0  0  0  0  0
   22.2247  -22.0717  -12.4217 N   0  0  0  0  0  0  0  0  0  0  0  0
   20.4008  -20.6807  -11.6396 C   0  0  0  0  0  0  0  0  0  0  0  0
   19.5850  -19.6183  -11.9814 O   0  0  0  0  0  0  0  0  0  0  0  0
   20.8089  -20.7399  -10.4516 O   0  0  0  0  0  0  0  0  0  0  0  0
  1  2  1  0
  2  4  1  0
  2  3  2  0
  4  5  1  0
  5  6  1  0
  6  7  1  6
  6  8  1  0
  8 13  1  0
  8  9  2  0
 11 10  1  0
 12 11  1  1
 13 12  1  0
 14 12  1  0
 14 15  2  0
 17 19  1  0
 17 16  1  0
 18 17  2  0
 20 19  1  0
 20 21  1  0
 21 22  1  0
 23 22  1  1
 23 24  1  0
 24 14  1  0
 25 23  1  0
 26 25  1  0
 27 25  2  0
M  END
$$$$
