QSR.pdb
     RDKit          3D

 27 26  0  0  1  0  0  0  0  0999 V2000
   26.9699  -10.7605  -15.2919 N   0  0  0  0  0  0  0  0  0  0  0  0
   26.1321  -11.0949  -16.3753 C   0  0  0  0  0  0  0  0  0  0  0  0
   26.5678  -11.8049  -17.3133 O   0  0  0  0  0  0  0  0  0  0  0  0
   24.7502  -10.6082  -16.3987 C   0  0  0  0  0  0  0  0  0  0  0  0
   24.4211   -9.7875  -15.1460 C   0  0  0  0  0  0  0  0  0  0  0  0
   23.0866  -10.3035  -14.6350 C   0  0  2  0  0  0  0  0  0  0  0  0
   22.3358  -10.7204  -15.8050 N   0  0  0  0  0  0  0  0  0  0  0  0
   22.3234   -9.2841  -13.9150 C   0  0  0  0  0  0  0  0  0  0  0  0
   22.8201   -8.7078  -12.8908 O   0  0  0  0  0  0  0  0  0  0  0  0
   20.9594   -5.9117  -14.7219 O   0  0  0  0  0  0  0  0  0  0  0  0
   19.8967   -6.7543  -14.4795 C   0  0  0  0  0  0  0  0  0  0  0  0
   20.2764   -7.8632  -13.4895 C   0  0  2  0  0  0  0  0  0  0  0  0
   21.0114   -8.8462  -14.2602 N   0  0  0  0  0  0  0  0  0  0  0  0
   19.0031   -8.3890  -12.9516 C   0  0  0  0  0  0  0  0  0  0  0  0
   18.3914   -9.3410  -13.5037 O   0  0  0  0  0  0  0  0  0  0  0  0
   13.7089   -5.0153   -6.4362 N   0  0  0  0  0  0  0  0  0  0  0  0
   13.0021   -6.0411   -7.1343 C   0  0  0  0  0  0  0  0  0  0  0  0
   11.7652   -6.2617   -6.8262 N   0  0  0  0  0  0  0  0  0  0  0  0
   13.6630   -6.7984   -8.1491 N   0  0  0  0  0  0  0  0  0  0  0  0
   15.0400   -6.5531   -8.4583 C   0  0  0  0  0  0  0  0  0  0  0  0
   15.4344   -7.4734   -9.5878 C   0  0  0  0  0  0  0  0  0  0  0  0
   16.8323   -7.2481  -10.0593 C   0  0  0  0  0  0  0  0  0  0  0  0
   17.1692   -8.1112  -11.2470 C   0  0  2  0  0  0  0  0  0  0  0  0
   18.4970   -7.7680  -11.7759 N   0  0  0  0  0  0  0  0  0  0  0  0
   16.1563   -8.0752  -12.3237 C   0  0  0  0  0  0  0  0  0  0  0  0
   16.0609   -7.0432  -13.2385 O   0  0  0  0  0  0  0  0  0  0  0  0
   15.3331   -9.0202  -12.4274 O   0  0  0  0  0  0  0  0  0  0  0  0
  1  2  1  0
  2  4  1  0
  2  3  2  0
  4  5  1  0
  5  6  1  0
  6  7  1  6
  6  8  1  0
  8 13  1  0
  8  9  2  0
 11 10  1  0
 12 11  1  6
 13 12  1  0
 14 12  1  0
 14 15  2  0
 17 19  1  0
 17 16  1  0
 18 17  2  0
 20 19  1  0
 20 21  1  0
 21 22  1  0
 23 22  1  1
 23 24  1  0
 24 14  1  0
 25 23  1  0
 26 25  1  0
 27 25  2  0
M  END
$$$$
