QSR.pdb
     RDKit          3D

 27 26  0  0  1  0  0  0  0  0999 V2000
   17.7715  -22.7516    2.3306 N   0  0  0  0  0  0  0  0  0  0  0  0
   16.9005  -23.2847    1.3588 C   0  0  0  0  0  0  0  0  0  0  0  0
   17.0846  -24.4436    0.9151 O   0  0  0  0  0  0  0  0  0  0  0  0
   15.7795  -22.4771    0.8705 C   0  0  0  0  0  0  0  0  0  0  0  0
   15.7470  -21.0972    1.5381 C   0  0  0  0  0  0  0  0  0  0  0  0
   14.8378  -21.2288    2.7483 C   0  0  2  0  0  0  0  0  0  0  0  0
   13.7200  -20.3325    2.5176 N   0  0  0  0  0  0  0  0  0  0  0  0
   15.5006  -20.8554    3.9977 C   0  0  0  0  0  0  0  0  0  0  0  0
   15.8978  -21.7534    4.8124 O   0  0  0  0  0  0  0  0  0  0  0  0
   18.7562  -19.5145    6.4475 O   0  0  0  0  0  0  0  0  0  0  0  0
   17.9339  -19.7450    5.3665 C   0  0  0  0  0  0  0  0  0  0  0  0
   16.5211  -19.1989    5.6118 C   0  0  2  0  0  0  0  0  0  0  0  0
   15.7615  -19.5189    4.4197 N   0  0  0  0  0  0  0  0  0  0  0  0
   16.6731  -17.7432    5.8235 C   0  0  0  0  0  0  0  0  0  0  0  0
   17.0014  -16.9666    4.8884 O   0  0  0  0  0  0  0  0  0  0  0  0
   11.7315  -11.1649    7.1850 N   0  0  0  0  0  0  0  0  0  0  0  0
   13.0214  -10.6930    7.5760 C   0  0  0  0  0  0  0  0  0  0  0  0
   13.1672   -9.4352    7.8414 N   0  0  0  0  0  0  0  0  0  0  0  0
   14.1168  -11.6049    7.6670 N   0  0  0  0  0  0  0  0  0  0  0  0
   13.9390  -12.9890    7.3438 C   0  0  0  0  0  0  0  0  0  0  0  0
   15.2466  -13.6983    7.5995 C   0  0  0  0  0  0  0  0  0  0  0  0
   15.1761  -15.1635    7.3244 C   0  0  0  0  0  0  0  0  0  0  0  0
   16.5251  -15.8223    7.4465 C   0  0  2  0  0  0  0  0  0  0  0  0
   16.4304  -17.2563    7.1381 N   0  0  0  0  0  0  0  0  0  0  0  0
   17.1797  -15.6151    8.7561 C   0  0  0  0  0  0  0  0  0  0  0  0
   17.4586  -16.6459    9.6340 O   0  0  0  0  0  0  0  0  0  0  0  0
   17.5051  -14.4517    9.1054 O   0  0  0  0  0  0  0  0  0  0  0  0
  1  2  1  0
  2  4  1  0
  2  3  2  0
  4  5  1  0
  5  6  1  0
  6  7  1  6
  6  8  1  0
  8 13  1  0
  8  9  2  0
 11 10  1  0
 12 11  1  6
 13 12  1  0
 14 12  1  0
 14 15  2  0
 17 19  1  0
 17 16  1  0
 18 17  2  0
 20 19  1  0
 20 21  1  0
 21 22  1  0
 23 22  1  1
 23 24  1  0
 24 14  1  0
 25 23  1  0
 26 25  1  0
 27 25  2  0
M  END
$$$$
