QSR.pdb
     RDKit          3D

 27 26  0  0  1  0  0  0  0  0999 V2000
   28.0538  -18.8995  -18.6412 N   0  0  0  0  0  0  0  0  0  0  0  0
   28.3798  -20.2105  -18.2383 C   0  0  0  0  0  0  0  0  0  0  0  0
   28.1759  -21.1768  -19.0120 O   0  0  0  0  0  0  0  0  0  0  0  0
   28.9578  -20.4373  -16.9111 C   0  0  0  0  0  0  0  0  0  0  0  0
   28.0337  -21.2892  -16.0327 C   0  0  0  0  0  0  0  0  0  0  0  0
   27.3621  -20.3312  -15.0635 C   0  0  2  0  0  0  0  0  0  0  0  0
   28.3986  -19.8777  -14.1546 N   0  0  0  0  0  0  0  0  0  0  0  0
   26.2923  -20.9637  -14.2919 C   0  0  0  0  0  0  0  0  0  0  0  0
   25.2631  -21.4358  -14.8799 O   0  0  0  0  0  0  0  0  0  0  0  0
   25.7089  -20.1109  -10.2444 O   0  0  0  0  0  0  0  0  0  0  0  0
   25.5000  -21.4121  -10.6460 C   0  0  0  0  0  0  0  0  0  0  0  0
   25.0984  -21.4835  -12.1251 C   0  0  2  0  0  0  0  0  0  0  0  0
   26.2828  -21.1141  -12.8743 N   0  0  0  0  0  0  0  0  0  0  0  0
   23.9866  -20.5237  -12.2969 C   0  0  0  0  0  0  0  0  0  0  0  0
   24.1916  -19.3103  -12.5631 O   0  0  0  0  0  0  0  0  0  0  0  0
   23.6051  -20.1535  -17.9262 N   0  0  0  0  0  0  0  0  0  0  0  0
   22.6930  -21.2460  -17.8087 C   0  0  0  0  0  0  0  0  0  0  0  0
   23.0126  -22.3807  -18.3416 N   0  0  0  0  0  0  0  0  0  0  0  0
   21.4577  -21.0718  -17.1133 N   0  0  0  0  0  0  0  0  0  0  0  0
   21.0589  -19.7749  -16.6539 C   0  0  0  0  0  0  0  0  0  0  0  0
   20.7367  -19.8811  -15.1831 C   0  0  0  0  0  0  0  0  0  0  0  0
   21.8599  -20.4508  -14.3822 C   0  0  0  0  0  0  0  0  0  0  0  0
   21.5436  -20.4724  -12.9096 C   0  0  2  0  0  0  0  0  0  0  0  0
   22.6674  -21.0351  -12.1474 N   0  0  0  0  0  0  0  0  0  0  0  0
   20.2859  -21.1741  -12.5745 C   0  0  0  0  0  0  0  0  0  0  0  0
   19.0957  -20.5162  -12.3260 O   0  0  0  0  0  0  0  0  0  0  0  0
   20.2796  -22.4298  -12.5072 O   0  0  0  0  0  0  0  0  0  0  0  0
  1  2  1  0
  2  4  1  0
  2  3  2  0
  4  5  1  0
  5  6  1  0
  6  7  1  1
  6  8  1  0
  8 13  1  0
  8  9  2  0
 11 10  1  0
 12 11  1  1
 13 12  1  0
 14 12  1  0
 14 15  2  0
 17 19  1  0
 17 16  1  0
 18 17  2  0
 20 19  1  0
 20 21  1  0
 21 22  1  0
 23 22  1  6
 23 24  1  0
 24 14  1  0
 25 23  1  0
 26 25  1  0
 27 25  2  0
M  END
$$$$
