QSR.pdb
     RDKit          3D

 27 26  0  0  1  0  0  0  0  0999 V2000
   21.0187   -5.7692  -10.3516 N   0  0  0  0  0  0  0  0  0  0  0  0
   22.1558   -5.7417  -11.1844 C   0  0  0  0  0  0  0  0  0  0  0  0
   23.2532   -5.3276  -10.7394 O   0  0  0  0  0  0  0  0  0  0  0  0
   22.0479   -6.1996  -12.5722 C   0  0  0  0  0  0  0  0  0  0  0  0
   20.6094   -6.5975  -12.9234 C   0  0  0  0  0  0  0  0  0  0  0  0
   20.6446   -7.1112  -14.3528 C   0  0  2  0  0  0  0  0  0  0  0  0
   20.9657   -5.9690  -15.1886 N   0  0  0  0  0  0  0  0  0  0  0  0
   19.3653   -7.6747  -14.7836 C   0  0  0  0  0  0  0  0  0  0  0  0
   18.9007   -7.4124  -15.9426 O   0  0  0  0  0  0  0  0  0  0  0  0
   18.1244  -10.9463  -15.4172 O   0  0  0  0  0  0  0  0  0  0  0  0
   17.4239   -9.7901  -15.6826 C   0  0  0  0  0  0  0  0  0  0  0  0
   17.2182   -8.9562  -14.4112 C   0  0  2  0  0  0  0  0  0  0  0  0
   18.5414   -8.5329  -13.9981 N   0  0  0  0  0  0  0  0  0  0  0  0
   16.5690   -9.8530  -13.4308 C   0  0  0  0  0  0  0  0  0  0  0  0
   17.2342  -10.6455  -12.7132 O   0  0  0  0  0  0  0  0  0  0  0  0
   11.9626   -7.4083   -7.0876 N   0  0  0  0  0  0  0  0  0  0  0  0
   13.2957   -7.5697   -7.5734 C   0  0  0  0  0  0  0  0  0  0  0  0
   14.2270   -6.8118   -7.0919 N   0  0  0  0  0  0  0  0  0  0  0  0
   13.5771   -8.5526   -8.5706 N   0  0  0  0  0  0  0  0  0  0  0  0
   12.5148   -9.3009   -9.1736 C   0  0  0  0  0  0  0  0  0  0  0  0
   13.1246  -10.2467  -10.1795 C   0  0  0  0  0  0  0  0  0  0  0  0
   13.8666   -9.5406  -11.2651 C   0  0  0  0  0  0  0  0  0  0  0  0
   14.4242  -10.5032  -12.2807 C   0  0  2  0  0  0  0  0  0  0  0  0
   15.1515   -9.7804  -13.3338 N   0  0  0  0  0  0  0  0  0  0  0  0
   13.4133  -11.4051  -12.8734 C   0  0  0  0  0  0  0  0  0  0  0  0
   13.0749  -12.6275  -12.3235 O   0  0  0  0  0  0  0  0  0  0  0  0
   12.8230  -11.0605  -13.9289 O   0  0  0  0  0  0  0  0  0  0  0  0
  1  2  1  0
  2  4  1  0
  2  3  2  0
  4  5  1  0
  5  6  1  0
  6  7  1  6
  6  8  1  0
  8 13  1  0
  8  9  2  0
 11 10  1  0
 12 11  1  6
 13 12  1  0
 14 12  1  0
 14 15  2  0
 17 19  1  0
 17 16  1  0
 18 17  2  0
 20 19  1  0
 20 21  1  0
 21 22  1  0
 23 22  1  1
 23 24  1  0
 24 14  1  0
 25 23  1  0
 26 25  1  0
 27 25  2  0
M  END
$$$$
