QSR.pdb
     RDKit          3D

 27 26  0  0  1  0  0  0  0  0999 V2000
   30.2018  -23.5842  -22.2429 N   0  0  0  0  0  0  0  0  0  0  0  0
   31.3879  -24.2421  -21.8588 C   0  0  0  0  0  0  0  0  0  0  0  0
   32.5009  -23.6929  -22.0416 O   0  0  0  0  0  0  0  0  0  0  0  0
   31.3126  -25.5706  -21.2452 C   0  0  0  0  0  0  0  0  0  0  0  0
   29.8605  -26.0384  -21.0919 C   0  0  0  0  0  0  0  0  0  0  0  0
   29.9183  -27.4002  -20.4208 C   0  0  2  0  0  0  0  0  0  0  0  0
   30.0805  -28.3727  -21.4858 N   0  0  0  0  0  0  0  0  0  0  0  0
   28.7034  -27.7128  -19.6684 C   0  0  0  0  0  0  0  0  0  0  0  0
   27.5942  -27.8867  -20.2744 O   0  0  0  0  0  0  0  0  0  0  0  0
   28.7414  -27.8644  -15.5667 O   0  0  0  0  0  0  0  0  0  0  0  0
   27.7978  -28.6634  -16.1744 C   0  0  0  0  0  0  0  0  0  0  0  0
   27.3903  -28.1051  -17.5441 C   0  0  2  0  0  0  0  0  0  0  0  0
   28.6294  -27.8502  -18.2514 N   0  0  0  0  0  0  0  0  0  0  0  0
   26.6184  -26.8730  -17.2738 C   0  0  0  0  0  0  0  0  0  0  0  0
   27.1406  -25.7303  -17.3566 O   0  0  0  0  0  0  0  0  0  0  0  0
   18.7002  -25.6042  -13.3148 N   0  0  0  0  0  0  0  0  0  0  0  0
   19.0528  -24.3859  -13.9711 C   0  0  0  0  0  0  0  0  0  0  0  0
   18.3061  -23.3452  -13.7896 N   0  0  0  0  0  0  0  0  0  0  0  0
   20.2096  -24.3355  -14.8073 N   0  0  0  0  0  0  0  0  0  0  0  0
   21.0312  -25.4958  -14.9819 C   0  0  0  0  0  0  0  0  0  0  0  0
   22.1130  -25.1543  -15.9777 C   0  0  0  0  0  0  0  0  0  0  0  0
   22.9974  -26.3139  -16.2948 C   0  0  0  0  0  0  0  0  0  0  0  0
   24.4161  -25.8813  -16.5578 C   0  0  2  0  0  0  0  0  0  0  0  0
   25.2517  -27.0369  -16.9140 N   0  0  0  0  0  0  0  0  0  0  0  0
   25.0287  -25.1200  -15.4480 C   0  0  0  0  0  0  0  0  0  0  0  0
   25.1248  -23.7410  -15.4391 O   0  0  0  0  0  0  0  0  0  0  0  0
   25.4904  -25.7402  -14.4562 O   0  0  0  0  0  0  0  0  0  0  0  0
  1  2  1  0
  2  4  1  0
  2  3  2  0
  4  5  1  0
  5  6  1  0
  6  7  1  6
  6  8  1  0
  8 13  1  0
  8  9  2  0
 11 10  1  0
 12 11  1  1
 13 12  1  0
 14 12  1  0
 14 15  2  0
 17 19  1  0
 17 16  1  0
 18 17  2  0
 20 19  1  0
 20 21  1  0
 21 22  1  0
 23 22  1  1
 23 24  1  0
 24 14  1  0
 25 23  1  0
 26 25  1  0
 27 25  2  0
M  END
$$$$
