WQR.pdb
     RDKit          3D

 35 36  0  0  1  0  0  0  0  0999 V2000
    9.0014  -17.3900   16.4900 N   0  0  0  0  0  0  0  0  0  0  0  0
    9.3009  -16.4987   17.5829 C   0  0  1  0  0  0  0  0  0  0  0  0
    8.0845  -16.1507   18.3798 C   0  0  0  0  0  0  0  0  0  0  0  0
    7.9771  -14.7037   18.6048 C   0  0  0  0  0  0  0  0  0  0  0  0
    7.8679  -13.7391   17.6336 C   0  0  0  0  0  0  0  0  0  0  0  0
    7.7543  -12.5228   18.1932 N   0  0  0  0  0  0  0  0  0  0  0  0
    7.7914  -12.7089   19.5270 C   0  0  0  0  0  0  0  0  0  0  0  0
    7.7271  -11.8487   20.6071 C   0  0  0  0  0  0  0  0  0  0  0  0
    7.7949  -12.2736   21.9047 C   0  0  0  0  0  0  0  0  0  0  0  0
    7.9327  -13.6016   22.1757 C   0  0  0  0  0  0  0  0  0  0  0  0
    8.0014  -14.4979   21.1434 C   0  0  0  0  0  0  0  0  0  0  0  0
    7.9311  -14.0655   19.8151 C   0  0  0  0  0  0  0  0  0  0  0  0
   10.3608  -17.1331   18.4175 C   0  0  0  0  0  0  0  0  0  0  0  0
   10.3249  -18.3645   18.6926 O   0  0  0  0  0  0  0  0  0  0  0  0
   16.2541  -14.4185   20.1660 N   0  0  0  0  0  0  0  0  0  0  0  0
   15.2025  -14.4635   19.2250 C   0  0  0  0  0  0  0  0  0  0  0  0
   15.3254  -13.9842   18.0798 O   0  0  0  0  0  0  0  0  0  0  0  0
   13.9223  -15.0951   19.6067 C   0  0  0  0  0  0  0  0  0  0  0  0
   13.8748  -16.5583   19.2642 C   0  0  0  0  0  0  0  0  0  0  0  0
   12.4925  -17.0730   19.6955 C   0  0  2  0  0  0  0  0  0  0  0  0
   11.4743  -16.3975   18.9540 N   0  0  0  0  0  0  0  0  0  0  0  0
   12.3270  -16.9197   21.1670 C   0  0  0  0  0  0  0  0  0  0  0  0
   11.8234  -15.8767   21.6554 O   0  0  0  0  0  0  0  0  0  0  0  0
   10.7884  -22.7695   26.6468 N   0  0  0  0  0  0  0  0  0  0  0  0
   11.5342  -22.0371   27.6001 C   0  0  0  0  0  0  0  0  0  0  0  0
   11.2279  -22.1702   28.8418 N   0  0  0  0  0  0  0  0  0  0  0  0
   12.5915  -21.1762   27.2247 N   0  0  0  0  0  0  0  0  0  0  0  0
   12.8594  -20.8862   25.8454 C   0  0  0  0  0  0  0  0  0  0  0  0
   12.5530  -19.4377   25.4941 C   0  0  0  0  0  0  0  0  0  0  0  0
   12.7680  -19.2829   24.0086 C   0  0  0  0  0  0  0  0  0  0  0  0
   12.5683  -17.8682   23.5088 C   0  0  2  0  0  0  0  0  0  0  0  0
   12.7290  -17.9394   22.0641 N   0  0  0  0  0  0  0  0  0  0  0  0
   13.4766  -16.8825   24.1152 C   0  0  0  0  0  0  0  0  0  0  0  0
   13.2161  -16.3347   25.3611 O   0  0  0  0  0  0  0  0  0  0  0  0
   14.5133  -16.5035   23.5312 O   0  0  0  0  0  0  0  0  0  0  0  0
  2 13  1  0
  2  1  1  6
  3  2  1  0
  4 12  1  0
  4  3  1  0
  5  4  2  0
  6  5  1  0
  6  7  1  0
  7 12  2  0
  8  7  1  0
  8  9  2  0
  9 10  1  0
 10 11  2  0
 12 11  1  0
 13 14  2  0
 15 16  1  0
 16 17  2  0
 18 19  1  0
 18 16  1  0
 20 19  1  6
 20 21  1  0
 20 22  1  0
 21 13  1  0
 22 32  1  0
 23 22  2  0
 25 24  1  0
 25 26  2  0
 27 25  1  0
 28 27  1  0
 29 28  1  0
 30 29  1  0
 31 30  1  1
 31 33  1  0
 32 31  1  0
 33 34  1  0
 35 33  2  0
M  END
$$$$
