WQR.pdb
     RDKit          3D

 35 36  0  0  1  0  0  0  0  0999 V2000
    6.8536  -18.3862   25.0694 N   0  0  0  0  0  0  0  0  0  0  0  0
    6.9530  -16.9942   24.7073 C   0  0  1  0  0  0  0  0  0  0  0  0
    7.6342  -16.1818   25.7617 C   0  0  0  0  0  0  0  0  0  0  0  0
    6.7820  -15.0856   26.2391 C   0  0  0  0  0  0  0  0  0  0  0  0
    5.4501  -15.1765   26.5610 C   0  0  0  0  0  0  0  0  0  0  0  0
    4.9920  -13.9904   26.9956 N   0  0  0  0  0  0  0  0  0  0  0  0
    6.0336  -13.1371   26.9514 C   0  0  0  0  0  0  0  0  0  0  0  0
    6.1769  -11.7980   27.2632 C   0  0  0  0  0  0  0  0  0  0  0  0
    7.3575  -11.1223   27.1277 C   0  0  0  0  0  0  0  0  0  0  0  0
    8.4610  -11.7740   26.6656 C   0  0  0  0  0  0  0  0  0  0  0  0
    8.3754  -13.1012   26.3418 C   0  0  0  0  0  0  0  0  0  0  0  0
    7.1687  -13.7947   26.4807 C   0  0  0  0  0  0  0  0  0  0  0  0
    7.6482  -16.9092   23.3913 C   0  0  0  0  0  0  0  0  0  0  0  0
    8.4410  -17.8154   23.0124 O   0  0  0  0  0  0  0  0  0  0  0  0
    7.4519  -12.3375   18.8077 N   0  0  0  0  0  0  0  0  0  0  0  0
    8.2107  -13.4058   18.2821 C   0  0  0  0  0  0  0  0  0  0  0  0
    8.6416  -13.3914   17.1114 O   0  0  0  0  0  0  0  0  0  0  0  0
    8.5023  -14.5721   19.1413 C   0  0  0  0  0  0  0  0  0  0  0  0
    7.8208  -14.4895   20.4790 C   0  0  0  0  0  0  0  0  0  0  0  0
    8.1482  -15.7909   21.2278 C   0  0  2  0  0  0  0  0  0  0  0  0
    7.4645  -15.8093   22.4828 N   0  0  0  0  0  0  0  0  0  0  0  0
    9.6222  -15.9377   21.3762 C   0  0  0  0  0  0  0  0  0  0  0  0
   10.2547  -15.2719   22.2345 O   0  0  0  0  0  0  0  0  0  0  0  0
   13.7406  -20.6954   17.2563 N   0  0  0  0  0  0  0  0  0  0  0  0
   13.9723  -21.2331   18.5442 C   0  0  0  0  0  0  0  0  0  0  0  0
   15.0909  -21.8294   18.7601 N   0  0  0  0  0  0  0  0  0  0  0  0
   13.0175  -21.1313   19.5824 N   0  0  0  0  0  0  0  0  0  0  0  0
   11.6962  -20.6321   19.3304 C   0  0  0  0  0  0  0  0  0  0  0  0
   11.3194  -19.5033   20.2786 C   0  0  0  0  0  0  0  0  0  0  0  0
   12.0839  -18.2781   19.8412 C   0  0  0  0  0  0  0  0  0  0  0  0
   11.7938  -17.0494   20.6761 C   0  0  2  0  0  0  0  0  0  0  0  0
   10.3600  -16.8289   20.5591 N   0  0  0  0  0  0  0  0  0  0  0  0
   12.5667  -15.8604   20.2848 C   0  0  0  0  0  0  0  0  0  0  0  0
   13.8598  -15.6603   20.7410 O   0  0  0  0  0  0  0  0  0  0  0  0
   12.0876  -14.9894   19.5291 O   0  0  0  0  0  0  0  0  0  0  0  0
  2 13  1  0
  2  1  1  1
  3  2  1  0
  4 12  1  0
  4  3  1  0
  5  4  2  0
  6  5  1  0
  6  7  1  0
  7 12  2  0
  8  7  1  0
  8  9  2  0
  9 10  1  0
 10 11  2  0
 12 11  1  0
 13 14  2  0
 15 16  1  0
 16 17  2  0
 18 19  1  0
 18 16  1  0
 20 19  1  1
 20 21  1  0
 20 22  1  0
 21 13  1  0
 22 32  1  0
 23 22  2  0
 25 24  1  0
 25 26  2  0
 27 25  1  0
 28 27  1  0
 29 28  1  0
 30 29  1  0
 31 30  1  6
 31 33  1  0
 32 31  1  0
 33 34  1  0
 35 33  2  0
M  END
$$$$
