WQR.pdb
     RDKit          3D

 35 36  0  0  1  0  0  0  0  0999 V2000
    9.1608  -18.0541   20.5488 N   0  0  0  0  0  0  0  0  0  0  0  0
    9.0583  -17.2576   21.7462 C   0  0  1  0  0  0  0  0  0  0  0  0
    7.6769  -16.7255   21.9561 C   0  0  0  0  0  0  0  0  0  0  0  0
    7.5706  -15.3160   21.5584 C   0  0  0  0  0  0  0  0  0  0  0  0
    7.3710  -14.8472   20.2832 C   0  0  0  0  0  0  0  0  0  0  0  0
    7.2886  -13.5061   20.2856 N   0  0  0  0  0  0  0  0  0  0  0  0
    7.4364  -13.1146   21.5662 C   0  0  0  0  0  0  0  0  0  0  0  0
    7.4498  -11.8786   22.1849 C   0  0  0  0  0  0  0  0  0  0  0  0
    7.6282  -11.7196   23.5309 C   0  0  0  0  0  0  0  0  0  0  0  0
    7.8037  -12.8132   24.3242 C   0  0  0  0  0  0  0  0  0  0  0  0
    7.7990  -14.0620   23.7635 C   0  0  0  0  0  0  0  0  0  0  0  0
    7.6156  -14.2270   22.3867 C   0  0  0  0  0  0  0  0  0  0  0  0
    9.5244  -18.0882   22.8931 C   0  0  0  0  0  0  0  0  0  0  0  0
    9.2514  -19.3186   22.9611 O   0  0  0  0  0  0  0  0  0  0  0  0
   14.2733  -18.7275   21.0829 N   0  0  0  0  0  0  0  0  0  0  0  0
   14.5828  -19.2754   22.3468 C   0  0  0  0  0  0  0  0  0  0  0  0
   15.6469  -19.8935   22.5517 O   0  0  0  0  0  0  0  0  0  0  0  0
   13.6207  -19.1125   23.4564 C   0  0  0  0  0  0  0  0  0  0  0  0
   12.4390  -18.2637   23.0771 C   0  0  0  0  0  0  0  0  0  0  0  0
   11.5539  -18.1463   24.3279 C   0  0  2  0  0  0  0  0  0  0  0  0
   10.3021  -17.5520   23.9778 N   0  0  0  0  0  0  0  0  0  0  0  0
   12.2702  -17.3893   25.3910 C   0  0  0  0  0  0  0  0  0  0  0  0
   13.4172  -17.7365   25.7703 O   0  0  0  0  0  0  0  0  0  0  0  0
    5.3650  -13.3702   26.1788 N   0  0  0  0  0  0  0  0  0  0  0  0
    6.4577  -12.5255   25.8725 C   0  0  0  0  0  0  0  0  0  0  0  0
    6.2069  -11.3205   25.5001 N   0  0  0  0  0  0  0  0  0  0  0  0
    7.7974  -12.9688   25.9649 N   0  0  0  0  0  0  0  0  0  0  0  0
    8.1257  -14.2157   26.5940 C   0  0  0  0  0  0  0  0  0  0  0  0
    9.6282  -14.4475   26.6577 C   0  0  0  0  0  0  0  0  0  0  0  0
    9.8499  -15.7399   27.4044 C   0  0  0  0  0  0  0  0  0  0  0  0
   11.2916  -16.2008   27.4089 C   0  0  2  0  0  0  0  0  0  0  0  0
   11.6868  -16.2563   26.0093 N   0  0  0  0  0  0  0  0  0  0  0  0
   11.5103  -17.4845   28.0934 C   0  0  0  0  0  0  0  0  0  0  0  0
   12.4208  -17.6006   29.1316 O   0  0  0  0  0  0  0  0  0  0  0  0
   10.8855  -18.5146   27.7651 O   0  0  0  0  0  0  0  0  0  0  0  0
  2 13  1  0
  2  1  1  6
  3  2  1  0
  4 12  1  0
  4  3  1  0
  5  4  2  0
  6  5  1  0
  6  7  1  0
  7 12  2  0
  8  7  1  0
  8  9  2  0
  9 10  1  0
 10 11  2  0
 12 11  1  0
 13 14  2  0
 15 16  1  0
 16 17  2  0
 18 19  1  0
 18 16  1  0
 20 19  1  6
 20 21  1  0
 20 22  1  0
 21 13  1  0
 22 32  1  0
 23 22  2  0
 25 24  1  0
 25 26  2  0
 27 25  1  0
 28 27  1  0
 29 28  1  0
 30 29  1  0
 31 30  1  6
 31 33  1  0
 32 31  1  0
 33 34  1  0
 35 33  2  0
M  END
$$$$
