WQR.pdb
     RDKit          3D

 35 36  0  0  1  0  0  0  0  0999 V2000
    8.2833  -17.5156   18.1199 N   0  0  0  0  0  0  0  0  0  0  0  0
    8.6645  -16.6548   19.2120 C   0  0  1  0  0  0  0  0  0  0  0  0
    7.4955  -16.2591   20.0560 C   0  0  0  0  0  0  0  0  0  0  0  0
    7.7469  -15.0071   20.7809 C   0  0  0  0  0  0  0  0  0  0  0  0
    8.1698  -13.8229   20.2291 C   0  0  0  0  0  0  0  0  0  0  0  0
    8.2637  -12.8734   21.1752 N   0  0  0  0  0  0  0  0  0  0  0  0
    7.9003  -13.4514   22.3366 C   0  0  0  0  0  0  0  0  0  0  0  0
    7.8045  -12.9908   23.6364 C   0  0  0  0  0  0  0  0  0  0  0  0
    7.4115  -13.7803   24.6809 C   0  0  0  0  0  0  0  0  0  0  0  0
    7.0935  -15.0864   24.4598 C   0  0  0  0  0  0  0  0  0  0  0  0
    7.1708  -15.5949   23.1913 C   0  0  0  0  0  0  0  0  0  0  0  0
    7.5716  -14.7886   22.1209 C   0  0  0  0  0  0  0  0  0  0  0  0
    9.7208  -17.3514   20.0003 C   0  0  0  0  0  0  0  0  0  0  0  0
   10.4857  -18.1983   19.4610 O   0  0  0  0  0  0  0  0  0  0  0  0
   13.4152  -14.2739   18.5348 N   0  0  0  0  0  0  0  0  0  0  0  0
   13.6537  -15.3372   19.4324 C   0  0  0  0  0  0  0  0  0  0  0  0
   14.7976  -15.5905   19.8611 O   0  0  0  0  0  0  0  0  0  0  0  0
   12.5182  -16.1724   19.8760 C   0  0  0  0  0  0  0  0  0  0  0  0
   11.7586  -15.5561   21.0178 C   0  0  0  0  0  0  0  0  0  0  0  0
   11.2243  -16.7142   21.8751 C   0  0  2  0  0  0  0  0  0  0  0  0
    9.9345  -17.1084   21.4018 N   0  0  0  0  0  0  0  0  0  0  0  0
   11.2126  -16.3232   23.3114 C   0  0  0  0  0  0  0  0  0  0  0  0
   12.2727  -15.9903   23.8991 O   0  0  0  0  0  0  0  0  0  0  0  0
    6.1824  -19.5649   23.0267 N   0  0  0  0  0  0  0  0  0  0  0  0
    6.0846  -19.8328   24.4123 C   0  0  0  0  0  0  0  0  0  0  0  0
    5.9906  -21.0590   24.7877 N   0  0  0  0  0  0  0  0  0  0  0  0
    6.0880  -18.7997   25.3781 N   0  0  0  0  0  0  0  0  0  0  0  0
    6.7538  -17.5532   25.1305 C   0  0  0  0  0  0  0  0  0  0  0  0
    7.8776  -17.2963   26.1236 C   0  0  0  0  0  0  0  0  0  0  0  0
    8.4562  -15.9401   25.8030 C   0  0  0  0  0  0  0  0  0  0  0  0
    9.9335  -15.9705   25.4752 C   0  0  2  0  0  0  0  0  0  0  0  0
   10.0118  -16.3122   24.0626 N   0  0  0  0  0  0  0  0  0  0  0  0
   10.7154  -16.8965   26.3090 C   0  0  0  0  0  0  0  0  0  0  0  0
   11.2179  -18.0803   25.7929 O   0  0  0  0  0  0  0  0  0  0  0  0
   10.9547  -16.6510   27.5097 O   0  0  0  0  0  0  0  0  0  0  0  0
  2 13  1  0
  2  1  1  6
  3  2  1  0
  4 12  1  0
  4  3  1  0
  5  4  2  0
  6  5  1  0
  6  7  1  0
  7 12  2  0
  8  7  1  0
  8  9  2  0
  9 10  1  0
 10 11  2  0
 12 11  1  0
 13 14  2  0
 15 16  1  0
 16 17  2  0
 18 19  1  0
 18 16  1  0
 20 19  1  6
 20 21  1  0
 20 22  1  0
 21 13  1  0
 22 32  1  0
 23 22  2  0
 25 24  1  0
 25 26  2  0
 27 25  1  0
 28 27  1  0
 29 28  1  0
 30 29  1  0
 31 30  1  1
 31 33  1  0
 32 31  1  0
 33 34  1  0
 35 33  2  0
M  END
$$$$
