WQR.pdb
     RDKit          3D

 35 36  0  0  1  0  0  0  0  0999 V2000
    6.0632  -17.4824   23.7183 N   0  0  0  0  0  0  0  0  0  0  0  0
    6.8080  -16.2943   23.3828 C   0  0  1  0  0  0  0  0  0  0  0  0
    7.7113  -15.8598   24.4923 C   0  0  0  0  0  0  0  0  0  0  0  0
    7.0490  -14.9064   25.3913 C   0  0  0  0  0  0  0  0  0  0  0  0
    6.2188  -15.2232   26.4383 C   0  0  0  0  0  0  0  0  0  0  0  0
    5.8167  -14.1078   27.0703 N   0  0  0  0  0  0  0  0  0  0  0  0
    6.3907  -13.0732   26.4259 C   0  0  0  0  0  0  0  0  0  0  0  0
    6.3486  -11.7032   26.6044 C   0  0  0  0  0  0  0  0  0  0  0  0
    7.0227  -10.8249   25.8024 C   0  0  0  0  0  0  0  0  0  0  0  0
    7.7790  -11.2939   24.7710 C   0  0  0  0  0  0  0  0  0  0  0  0
    7.8562  -12.6424   24.5487 C   0  0  0  0  0  0  0  0  0  0  0  0
    7.1682  -13.5428   25.3687 C   0  0  0  0  0  0  0  0  0  0  0  0
    7.5525  -16.5591   22.1187 C   0  0  0  0  0  0  0  0  0  0  0  0
    7.9301  -17.7248   21.8158 O   0  0  0  0  0  0  0  0  0  0  0  0
    8.6436  -12.7373   17.2026 N   0  0  0  0  0  0  0  0  0  0  0  0
    7.8675  -13.9130   17.1086 C   0  0  0  0  0  0  0  0  0  0  0  0
    7.0554  -14.0910   16.1784 O   0  0  0  0  0  0  0  0  0  0  0  0
    8.0212  -14.9606   18.1393 C   0  0  0  0  0  0  0  0  0  0  0  0
    8.9697  -14.5593   19.2347 C   0  0  0  0  0  0  0  0  0  0  0  0
    8.9692  -15.6990   20.2655 C   0  0  2  0  0  0  0  0  0  0  0  0
    7.8831  -15.5227   21.1777 N   0  0  0  0  0  0  0  0  0  0  0  0
   10.2885  -15.7675   20.9517 C   0  0  0  0  0  0  0  0  0  0  0  0
   11.1753  -14.9035   20.7346 O   0  0  0  0  0  0  0  0  0  0  0  0
   11.0426  -22.7871   25.1145 N   0  0  0  0  0  0  0  0  0  0  0  0
   11.4839  -21.5768   25.6992 C   0  0  0  0  0  0  0  0  0  0  0  0
   11.4602  -21.4787   26.9811 N   0  0  0  0  0  0  0  0  0  0  0  0
   11.9431  -20.4904   24.9189 N   0  0  0  0  0  0  0  0  0  0  0  0
   12.4327  -19.2895   25.5324 C   0  0  0  0  0  0  0  0  0  0  0  0
   12.8339  -18.2426   24.5036 C   0  0  0  0  0  0  0  0  0  0  0  0
   11.6174  -17.9586   23.6572 C   0  0  0  0  0  0  0  0  0  0  0  0
   11.8582  -16.9335   22.5699 C   0  0  2  0  0  0  0  0  0  0  0  0
   10.5891  -16.8037   21.8694 N   0  0  0  0  0  0  0  0  0  0  0  0
   12.9587  -17.2744   21.6552 C   0  0  0  0  0  0  0  0  0  0  0  0
   12.7310  -17.9892   20.4901 O   0  0  0  0  0  0  0  0  0  0  0  0
   14.1360  -16.9335   21.8941 O   0  0  0  0  0  0  0  0  0  0  0  0
  2 13  1  0
  2  1  1  1
  3  2  1  0
  4 12  1  0
  4  3  1  0
  5  4  2  0
  6  5  1  0
  6  7  1  0
  7 12  2  0
  8  7  1  0
  8  9  2  0
  9 10  1  0
 10 11  2  0
 12 11  1  0
 13 14  2  0
 15 16  1  0
 16 17  2  0
 18 19  1  0
 18 16  1  0
 20 19  1  6
 20 21  1  0
 20 22  1  0
 21 13  1  0
 22 32  1  0
 23 22  2  0
 25 24  1  0
 25 26  2  0
 27 25  1  0
 28 27  1  0
 29 28  1  0
 30 29  1  0
 31 30  1  1
 31 33  1  0
 32 31  1  0
 33 34  1  0
 35 33  2  0
M  END
$$$$
