QVA.pdb
     RDKit          3D

 22 21  0  0  1  0  0  0  0  0999 V2000
    5.5275  -19.3526   23.0202 N   0  0  0  0  0  0  0  0  0  0  0  0
    4.9432  -18.7601   21.8330 C   0  0  0  0  0  0  0  0  0  0  0  0
    4.2188  -19.4729   21.1336 O   0  0  0  0  0  0  0  0  0  0  0  0
    5.2630  -17.3642   21.5703 C   0  0  0  0  0  0  0  0  0  0  0  0
    6.1983  -16.6889   22.4978 C   0  0  0  0  0  0  0  0  0  0  0  0
    6.4786  -15.2419   22.2434 C   0  0  2  0  0  0  0  0  0  0  0  0
    6.8798  -14.9699   20.8964 N   0  0  0  0  0  0  0  0  0  0  0  0
    7.4823  -14.7229   23.2405 C   0  0  0  0  0  0  0  0  0  0  0  0
    8.7080  -14.6990   22.9207 O   0  0  0  0  0  0  0  0  0  0  0  0
    6.3927  -13.1354   27.1935 C   0  0  0  0  0  0  0  0  0  0  0  0
    7.5242  -12.7371   26.3005 C   0  0  2  0  0  0  0  0  0  0  0  0
    7.1684  -11.5481   25.4204 C   0  0  0  0  0  0  0  0  0  0  0  0
    8.1429  -13.8441   25.5119 C   0  0  2  0  0  0  0  0  0  0  0  0
    7.1283  -14.2567   24.5242 N   0  0  0  0  0  0  0  0  0  0  0  0
    8.6272  -14.9948   26.2742 C   0  0  0  0  0  0  0  0  0  0  0  0
    7.7407  -15.8171   26.6946 O   0  0  0  0  0  0  0  0  0  0  0  0
   11.6941  -16.9918   26.9629 C   0  0  0  0  0  0  0  0  0  0  0  0
   10.2803  -16.5402   27.3392 C   0  0  2  0  0  0  0  0  0  0  0  0
    9.9458  -15.3111   26.6023 N   0  0  0  0  0  0  0  0  0  0  0  0
   10.3029  -16.2511   28.7859 C   0  0  0  0  0  0  0  0  0  0  0  0
   10.4963  -17.2470   29.7155 O   0  0  0  0  0  0  0  0  0  0  0  0
   10.1432  -15.0773   29.1743 O   0  0  0  0  0  0  0  0  0  0  0  0
  2  3  2  0
  2  1  1  0
  4  2  1  0
  5  4  1  0
  6  5  1  0
  6  7  1  6
  8  6  1  0
  8 14  1  0
  9  8  2  0
 11 10  1  6
 11 13  1  0
 11 12  1  0
 13 14  1  6
 13 15  1  0
 15 19  1  0
 16 15  2  0
 18 20  1  0
 18 17  1  6
 19 18  1  0
 20 21  1  0
 22 20  2  0
M  END
$$$$
