QVA.pdb
     RDKit          3D

 22 21  0  0  1  0  0  0  0  0999 V2000
    7.5155  -19.9077   21.5625 N   0  0  0  0  0  0  0  0  0  0  0  0
    7.4266  -18.9103   20.5141 C   0  0  0  0  0  0  0  0  0  0  0  0
    6.7076  -19.1612   19.5435 O   0  0  0  0  0  0  0  0  0  0  0  0
    8.1974  -17.6896   20.7021 C   0  0  0  0  0  0  0  0  0  0  0  0
    7.9963  -16.9389   21.9619 C   0  0  0  0  0  0  0  0  0  0  0  0
    7.8228  -15.4577   21.8481 C   0  0  2  0  0  0  0  0  0  0  0  0
    8.3265  -14.9200   20.6207 N   0  0  0  0  0  0  0  0  0  0  0  0
    8.4230  -14.7697   23.0470 C   0  0  0  0  0  0  0  0  0  0  0  0
    9.6339  -14.3998   22.9991 O   0  0  0  0  0  0  0  0  0  0  0  0
    6.8105  -11.9365   25.2084 C   0  0  0  0  0  0  0  0  0  0  0  0
    7.3216  -13.0529   26.0623 C   0  0  2  0  0  0  0  0  0  0  0  0
    7.7671  -12.5676   27.4338 C   0  0  0  0  0  0  0  0  0  0  0  0
    8.3469  -13.9329   25.4265 C   0  0  2  0  0  0  0  0  0  0  0  0
    7.7030  -14.5114   24.2324 N   0  0  0  0  0  0  0  0  0  0  0  0
    8.9185  -14.9818   26.2708 C   0  0  0  0  0  0  0  0  0  0  0  0
    8.1033  -15.8572   26.7269 O   0  0  0  0  0  0  0  0  0  0  0  0
   12.2077  -16.4754   27.2989 C   0  0  0  0  0  0  0  0  0  0  0  0
   10.6904  -16.3151   27.4274 C   0  0  2  0  0  0  0  0  0  0  0  0
   10.2524  -15.1493   26.6434 N   0  0  0  0  0  0  0  0  0  0  0  0
   10.4132  -16.0742   28.8565 C   0  0  0  0  0  0  0  0  0  0  0  0
   10.4360  -17.0976   29.7760 O   0  0  0  0  0  0  0  0  0  0  0  0
   10.1524  -14.9167   29.2389 O   0  0  0  0  0  0  0  0  0  0  0  0
  2  3  2  0
  2  1  1  0
  4  2  1  0
  5  4  1  0
  6  5  1  0
  6  7  1  6
  8  6  1  0
  8 14  1  0
  9  8  2  0
 11 10  1  6
 11 13  1  0
 11 12  1  0
 13 14  1  6
 13 15  1  0
 15 19  1  0
 16 15  2  0
 18 20  1  0
 18 17  1  1
 19 18  1  0
 20 21  1  0
 22 20  2  0
M  END
$$$$
