QVA.pdb
     RDKit          3D

 22 21  0  0  1  0  0  0  0  0999 V2000
    9.4369  -21.4716   18.4206 N   0  0  0  0  0  0  0  0  0  0  0  0
    8.7131  -20.6410   19.3630 C   0  0  0  0  0  0  0  0  0  0  0  0
    8.3422  -21.1610   20.4184 O   0  0  0  0  0  0  0  0  0  0  0  0
    8.4887  -19.2547   18.9790 C   0  0  0  0  0  0  0  0  0  0  0  0
    8.9795  -18.8231   17.6509 C   0  0  0  0  0  0  0  0  0  0  0  0
    8.8143  -17.3776   17.3040 C   0  0  2  0  0  0  0  0  0  0  0  0
    9.4423  -17.0149   16.0697 N   0  0  0  0  0  0  0  0  0  0  0  0
    9.2832  -16.5116   18.4446 C   0  0  0  0  0  0  0  0  0  0  0  0
   10.5207  -16.2645   18.5581 O   0  0  0  0  0  0  0  0  0  0  0  0
    7.4708  -13.2038   19.6009 C   0  0  0  0  0  0  0  0  0  0  0  0
    7.8131  -14.0971   20.7503 C   0  0  2  0  0  0  0  0  0  0  0  0
    8.0561  -13.3142   22.0320 C   0  0  0  0  0  0  0  0  0  0  0  0
    8.8989  -15.0898   20.4937 C   0  0  2  0  0  0  0  0  0  0  0  0
    8.4107  -15.9543   19.4031 N   0  0  0  0  0  0  0  0  0  0  0  0
    9.3337  -15.8897   21.6387 C   0  0  0  0  0  0  0  0  0  0  0  0
    8.5143  -16.7782   22.0604 O   0  0  0  0  0  0  0  0  0  0  0  0
   12.3746  -16.7913   23.6276 C   0  0  0  0  0  0  0  0  0  0  0  0
   10.8567  -16.7243   23.4384 C   0  0  2  0  0  0  0  0  0  0  0  0
   10.5404  -15.8049   22.3336 N   0  0  0  0  0  0  0  0  0  0  0  0
   10.3003  -16.1871   24.6950 C   0  0  0  0  0  0  0  0  0  0  0  0
   10.3162  -16.9194   25.8597 O   0  0  0  0  0  0  0  0  0  0  0  0
    9.8045  -15.0433   24.7007 O   0  0  0  0  0  0  0  0  0  0  0  0
  2  3  2  0
  2  1  1  0
  4  2  1  0
  5  4  1  0
  6  5  1  0
  6  7  1  6
  8  6  1  0
  8 14  1  0
  9  8  2  0
 11 10  1  6
 11 13  1  0
 11 12  1  0
 13 14  1  6
 13 15  1  0
 15 19  1  0
 16 15  2  0
 18 20  1  0
 18 17  1  1
 19 18  1  0
 20 21  1  0
 22 20  2  0
M  END
$$$$
