QVA.pdb
     RDKit          3D

 22 21  0  0  1  0  0  0  0  0999 V2000
    7.0118  -20.1002   21.6024 N   0  0  0  0  0  0  0  0  0  0  0  0
    6.2769  -18.9817   21.0449 C   0  0  0  0  0  0  0  0  0  0  0  0
    5.0608  -19.1161   20.8874 O   0  0  0  0  0  0  0  0  0  0  0  0
    7.0446  -17.7879   20.7205 C   0  0  0  0  0  0  0  0  0  0  0  0
    7.6637  -17.0453   21.8413 C   0  0  0  0  0  0  0  0  0  0  0  0
    7.5130  -15.5572   21.8338 C   0  0  2  0  0  0  0  0  0  0  0  0
    7.9826  -14.9454   20.6277 N   0  0  0  0  0  0  0  0  0  0  0  0
    8.1675  -14.9615   23.0535 C   0  0  0  0  0  0  0  0  0  0  0  0
    9.4086  -14.7087   23.0213 O   0  0  0  0  0  0  0  0  0  0  0  0
    6.5866  -12.1132   25.1779 C   0  0  0  0  0  0  0  0  0  0  0  0
    7.1445  -13.1821   26.0626 C   0  0  2  0  0  0  0  0  0  0  0  0
    7.6574  -12.6243   27.3819 C   0  0  0  0  0  0  0  0  0  0  0  0
    8.1395  -14.0936   25.4228 C   0  0  2  0  0  0  0  0  0  0  0  0
    7.4668  -14.6661   24.2418 N   0  0  0  0  0  0  0  0  0  0  0  0
    8.6943  -15.1493   26.2700 C   0  0  0  0  0  0  0  0  0  0  0  0
    7.8623  -15.9980   26.7458 O   0  0  0  0  0  0  0  0  0  0  0  0
   11.9092  -16.8504   27.0943 C   0  0  0  0  0  0  0  0  0  0  0  0
   10.4469  -16.5229   27.4087 C   0  0  2  0  0  0  0  0  0  0  0  0
   10.0283  -15.3488   26.6264 N   0  0  0  0  0  0  0  0  0  0  0  0
   10.3895  -16.1970   28.8467 C   0  0  0  0  0  0  0  0  0  0  0  0
   10.4334  -17.1793   29.8091 O   0  0  0  0  0  0  0  0  0  0  0  0
   10.2991  -15.0040   29.1969 O   0  0  0  0  0  0  0  0  0  0  0  0
  2  3  2  0
  2  1  1  0
  4  2  1  0
  5  4  1  0
  6  5  1  0
  6  7  1  6
  8  6  1  0
  8 14  1  0
  9  8  2  0
 11 10  1  6
 11 13  1  0
 11 12  1  0
 13 14  1  6
 13 15  1  0
 15 19  1  0
 16 15  2  0
 18 20  1  0
 18 17  1  6
 19 18  1  0
 20 21  1  0
 22 20  2  0
M  END
$$$$
