QVA.pdb
     RDKit          3D

 22 21  0  0  1  0  0  0  0  0999 V2000
    9.6311  -21.4668   17.9319 N   0  0  0  0  0  0  0  0  0  0  0  0
    8.4593  -21.2776   17.0994 C   0  0  0  0  0  0  0  0  0  0  0  0
    8.0803  -22.2330   16.4172 O   0  0  0  0  0  0  0  0  0  0  0  0
    7.8265  -19.9672   17.1447 C   0  0  0  0  0  0  0  0  0  0  0  0
    8.3767  -18.9724   18.0926 C   0  0  0  0  0  0  0  0  0  0  0  0
    8.5599  -17.5785   17.5821 C   0  0  2  0  0  0  0  0  0  0  0  0
    9.3933  -17.5047   16.4205 N   0  0  0  0  0  0  0  0  0  0  0  0
    9.0591  -16.6814   18.6853 C   0  0  0  0  0  0  0  0  0  0  0  0
   10.3057  -16.6084   18.8992 O   0  0  0  0  0  0  0  0  0  0  0  0
    7.4111  -13.1325   19.6667 C   0  0  0  0  0  0  0  0  0  0  0  0
    7.6979  -14.0178   20.8373 C   0  0  2  0  0  0  0  0  0  0  0  0
    7.9870  -13.2212   22.1009 C   0  0  0  0  0  0  0  0  0  0  0  0
    8.7218  -15.0800   20.6061 C   0  0  2  0  0  0  0  0  0  0  0  0
    8.2055  -15.9097   19.5015 N   0  0  0  0  0  0  0  0  0  0  0  0
    9.0733  -15.9077   21.7601 C   0  0  0  0  0  0  0  0  0  0  0  0
    8.4617  -17.0270   21.8692 O   0  0  0  0  0  0  0  0  0  0  0  0
   11.0279  -17.8136   23.1834 C   0  0  0  0  0  0  0  0  0  0  0  0
   10.3188  -16.6108   23.8117 C   0  0  2  0  0  0  0  0  0  0  0  0
   10.0003  -15.6274   22.7642 N   0  0  0  0  0  0  0  0  0  0  0  0
   11.2713  -16.0142   24.7678 C   0  0  0  0  0  0  0  0  0  0  0  0
   11.8180  -14.7694   24.5564 O   0  0  0  0  0  0  0  0  0  0  0  0
   11.5874  -16.6533   25.7904 O   0  0  0  0  0  0  0  0  0  0  0  0
  2  3  2  0
  2  1  1  0
  4  2  1  0
  5  4  1  0
  6  5  1  0
  6  7  1  6
  8  6  1  0
  8 14  1  0
  9  8  2  0
 11 10  1  6
 11 13  1  0
 11 12  1  0
 13 14  1  6
 13 15  1  0
 15 19  1  0
 16 15  2  0
 18 20  1  0
 18 17  1  6
 19 18  1  0
 20 21  1  0
 22 20  2  0
M  END
$$$$
