QVA.pdb
     RDKit          3D

 22 21  0  0  1  0  0  0  0  0999 V2000
   10.3471  -20.8411   17.7349 N   0  0  0  0  0  0  0  0  0  0  0  0
    9.5554  -20.5302   16.5608 C   0  0  0  0  0  0  0  0  0  0  0  0
    9.0132  -21.4678   15.9701 O   0  0  0  0  0  0  0  0  0  0  0  0
    9.4670  -19.1275   16.1810 C   0  0  0  0  0  0  0  0  0  0  0  0
   10.1176  -18.1353   17.0660 C   0  0  0  0  0  0  0  0  0  0  0  0
    9.9532  -16.6933   16.7041 C   0  0  2  0  0  0  0  0  0  0  0  0
   10.8426  -16.2635   15.6679 N   0  0  0  0  0  0  0  0  0  0  0  0
   10.0712  -15.8311   17.9344 C   0  0  0  0  0  0  0  0  0  0  0  0
   11.2201  -15.4485   18.3069 O   0  0  0  0  0  0  0  0  0  0  0  0
    7.7762  -12.7730   19.0844 C   0  0  0  0  0  0  0  0  0  0  0  0
    7.9187  -13.8372   20.1253 C   0  0  2  0  0  0  0  0  0  0  0  0
    7.7857  -13.2812   21.5353 C   0  0  0  0  0  0  0  0  0  0  0  0
    9.1181  -14.7163   19.9878 C   0  0  2  0  0  0  0  0  0  0  0  0
    8.9607  -15.4215   18.7021 N   0  0  0  0  0  0  0  0  0  0  0  0
    9.3593  -15.6635   21.0763 C   0  0  0  0  0  0  0  0  0  0  0  0
    8.5724  -16.6710   21.1433 O   0  0  0  0  0  0  0  0  0  0  0  0
   11.8924  -17.1602   23.1590 C   0  0  0  0  0  0  0  0  0  0  0  0
   10.4548  -16.6364   23.1032 C   0  0  2  0  0  0  0  0  0  0  0  0
   10.3488  -15.6058   22.0580 N   0  0  0  0  0  0  0  0  0  0  0  0
   10.1783  -16.0277   24.4186 C   0  0  0  0  0  0  0  0  0  0  0  0
   10.0797  -16.7923   25.5583 O   0  0  0  0  0  0  0  0  0  0  0  0
   10.0307  -14.7925   24.4984 O   0  0  0  0  0  0  0  0  0  0  0  0
  2  3  2  0
  2  1  1  0
  4  2  1  0
  5  4  1  0
  6  5  1  0
  6  7  1  6
  8  6  1  0
  8 14  1  0
  9  8  2  0
 11 10  1  6
 11 13  1  0
 11 12  1  0
 13 14  1  6
 13 15  1  0
 15 19  1  0
 16 15  2  0
 18 20  1  0
 18 17  1  1
 19 18  1  0
 20 21  1  0
 22 20  2  0
M  END
$$$$
