QVA.pdb
     RDKit          3D

 22 21  0  0  1  0  0  0  0  0999 V2000
    9.5374  -19.0394   25.8754 N   0  0  0  0  0  0  0  0  0  0  0  0
    8.7797  -19.8634   24.9541 C   0  0  0  0  0  0  0  0  0  0  0  0
    8.2193  -20.8644   25.4078 O   0  0  0  0  0  0  0  0  0  0  0  0
    8.7443  -19.4318   23.5640 C   0  0  0  0  0  0  0  0  0  0  0  0
    9.4098  -18.1537   23.2258 C   0  0  0  0  0  0  0  0  0  0  0  0
    8.5285  -17.0215   22.8029 C   0  0  2  0  0  0  0  0  0  0  0  0
    8.5770  -16.7595   21.3964 N   0  0  0  0  0  0  0  0  0  0  0  0
    8.8406  -15.7888   23.6116 C   0  0  0  0  0  0  0  0  0  0  0  0
    9.8338  -15.0746   23.2818 O   0  0  0  0  0  0  0  0  0  0  0  0
    6.6141  -12.8820   24.1864 C   0  0  0  0  0  0  0  0  0  0  0  0
    7.1161  -13.3618   25.5109 C   0  0  2  0  0  0  0  0  0  0  0  0
    7.1749  -12.2433   26.5407 C   0  0  0  0  0  0  0  0  0  0  0  0
    8.3860  -14.1465   25.4727 C   0  0  2  0  0  0  0  0  0  0  0  0
    8.0792  -15.3815   24.7273 N   0  0  0  0  0  0  0  0  0  0  0  0
    8.9995  -14.4555   26.7643 C   0  0  0  0  0  0  0  0  0  0  0  0
    8.2485  -15.0190   27.6346 O   0  0  0  0  0  0  0  0  0  0  0  0
    9.9050  -13.6703   29.5256 C   0  0  0  0  0  0  0  0  0  0  0  0
   10.7546  -14.4844   28.5458 C   0  0  2  0  0  0  0  0  0  0  0  0
   10.3121  -14.2115   27.1691 N   0  0  0  0  0  0  0  0  0  0  0  0
   10.5153  -15.9054   28.8628 C   0  0  0  0  0  0  0  0  0  0  0  0
   10.9456  -16.4608   30.0458 O   0  0  0  0  0  0  0  0  0  0  0  0
    9.9092  -16.6187   28.0394 O   0  0  0  0  0  0  0  0  0  0  0  0
  2  3  2  0
  2  1  1  0
  4  2  1  0
  5  4  1  0
  6  5  1  0
  6  7  1  6
  8  6  1  0
  8 14  1  0
  9  8  2  0
 11 10  1  6
 11 13  1  0
 11 12  1  0
 13 14  1  1
 13 15  1  0
 15 19  1  0
 16 15  2  0
 18 20  1  0
 18 17  1  1
 19 18  1  0
 20 21  1  0
 22 20  2  0
M  END
$$$$
