QVA.pdb
     RDKit          3D

 22 21  0  0  1  0  0  0  0  0999 V2000
    6.6619  -20.5958   24.5093 N   0  0  0  0  0  0  0  0  0  0  0  0
    5.6025  -20.3025   23.5640 C   0  0  0  0  0  0  0  0  0  0  0  0
    4.7848  -21.1946   23.3241 O   0  0  0  0  0  0  0  0  0  0  0  0
    5.5953  -18.9694   22.9787 C   0  0  0  0  0  0  0  0  0  0  0  0
    6.5786  -17.9896   23.4926 C   0  0  0  0  0  0  0  0  0  0  0  0
    6.5664  -16.6283   22.8732 C   0  0  2  0  0  0  0  0  0  0  0  0
    6.9249  -16.6323   21.4872 N   0  0  0  0  0  0  0  0  0  0  0  0
    7.4305  -15.6857   23.6707 C   0  0  0  0  0  0  0  0  0  0  0  0
    8.6402  -15.5260   23.3295 O   0  0  0  0  0  0  0  0  0  0  0  0
    6.3267  -12.2231   25.3727 C   0  0  0  0  0  0  0  0  0  0  0  0
    7.0367  -13.1470   26.3101 C   0  0  2  0  0  0  0  0  0  0  0  0
    7.8101  -12.3930   27.3816 C   0  0  0  0  0  0  0  0  0  0  0  0
    7.8721  -14.2031   25.6643 C   0  0  2  0  0  0  0  0  0  0  0  0
    6.9614  -14.9632   24.7879 N   0  0  0  0  0  0  0  0  0  0  0  0
    8.5990  -15.0988   26.5638 C   0  0  0  0  0  0  0  0  0  0  0  0
    7.8913  -15.8954   27.2734 O   0  0  0  0  0  0  0  0  0  0  0  0
   12.0378  -16.4222   27.2610 C   0  0  0  0  0  0  0  0  0  0  0  0
   10.5678  -16.2101   27.6333 C   0  0  2  0  0  0  0  0  0  0  0  0
    9.9788  -15.1947   26.7457 N   0  0  0  0  0  0  0  0  0  0  0  0
   10.5542  -15.7114   29.0220 C   0  0  0  0  0  0  0  0  0  0  0  0
   10.8458  -16.5351   30.0848 O   0  0  0  0  0  0  0  0  0  0  0  0
   10.2719  -14.5162   29.2364 O   0  0  0  0  0  0  0  0  0  0  0  0
  2  3  2  0
  2  1  1  0
  4  2  1  0
  5  4  1  0
  6  5  1  0
  6  7  1  6
  8  6  1  0
  8 14  1  0
  9  8  2  0
 11 10  1  6
 11 13  1  0
 11 12  1  0
 13 14  1  1
 13 15  1  0
 15 19  1  0
 16 15  2  0
 18 20  1  0
 18 17  1  6
 19 18  1  0
 20 21  1  0
 22 20  2  0
M  END
$$$$
