QVA.pdb
     RDKit          3D

 22 21  0  0  1  0  0  0  0  0999 V2000
    9.2849  -21.0934   20.3186 N   0  0  0  0  0  0  0  0  0  0  0  0
    8.3571  -21.1258   19.2050 C   0  0  0  0  0  0  0  0  0  0  0  0
    7.6324  -22.1177   19.0912 O   0  0  0  0  0  0  0  0  0  0  0  0
    8.3604  -19.9744   18.3140 C   0  0  0  0  0  0  0  0  0  0  0  0
    9.2859  -18.8640   18.6320 C   0  0  0  0  0  0  0  0  0  0  0  0
    9.1850  -17.6341   17.7867 C   0  0  2  0  0  0  0  0  0  0  0  0
    9.9899  -17.6907   16.6042 N   0  0  0  0  0  0  0  0  0  0  0  0
    9.4888  -16.4096   18.6109 C   0  0  0  0  0  0  0  0  0  0  0  0
   10.6867  -16.0040   18.6874 O   0  0  0  0  0  0  0  0  0  0  0  0
    7.5242  -13.0117   18.8245 C   0  0  0  0  0  0  0  0  0  0  0  0
    7.7486  -13.6084   20.1773 C   0  0  2  0  0  0  0  0  0  0  0  0
    7.8680  -12.5458   21.2597 C   0  0  0  0  0  0  0  0  0  0  0  0
    8.8502  -14.6129   20.2637 C   0  0  2  0  0  0  0  0  0  0  0  0
    8.5022  -15.6819   19.3090 N   0  0  0  0  0  0  0  0  0  0  0  0
    9.1239  -15.1666   21.5898 C   0  0  0  0  0  0  0  0  0  0  0  0
    8.3386  -16.0919   21.9970 O   0  0  0  0  0  0  0  0  0  0  0  0
    8.9564  -15.3908   24.5384 C   0  0  0  0  0  0  0  0  0  0  0  0
   10.2869  -15.4625   23.7841 C   0  0  2  0  0  0  0  0  0  0  0  0
   10.1430  -14.8096   22.4730 N   0  0  0  0  0  0  0  0  0  0  0  0
   10.5808  -16.8949   23.5864 C   0  0  0  0  0  0  0  0  0  0  0  0
   11.8288  -17.4149   23.8417 O   0  0  0  0  0  0  0  0  0  0  0  0
    9.6771  -17.6507   23.1787 O   0  0  0  0  0  0  0  0  0  0  0  0
  2  3  2  0
  2  1  1  0
  4  2  1  0
  5  4  1  0
  6  5  1  0
  6  7  1  6
  8  6  1  0
  8 14  1  0
  9  8  2  0
 11 10  1  6
 11 13  1  0
 11 12  1  0
 13 14  1  6
 13 15  1  0
 15 19  1  0
 16 15  2  0
 18 20  1  0
 18 17  1  1
 19 18  1  0
 20 21  1  0
 22 20  2  0
M  END
$$$$
