QVA.pdb
     RDKit          3D

 22 21  0  0  1  0  0  0  0  0999 V2000
    6.0362  -19.3418   18.4590 N   0  0  0  0  0  0  0  0  0  0  0  0
    6.0401  -19.4492   17.0132 C   0  0  0  0  0  0  0  0  0  0  0  0
    5.0281  -19.8981   16.4689 O   0  0  0  0  0  0  0  0  0  0  0  0
    7.2464  -19.0115   16.3256 C   0  0  0  0  0  0  0  0  0  0  0  0
    8.2825  -18.3243   17.1288 C   0  0  0  0  0  0  0  0  0  0  0  0
    8.6920  -16.9574   16.6805 C   0  0  2  0  0  0  0  0  0  0  0  0
    9.6496  -16.9724   15.6164 N   0  0  0  0  0  0  0  0  0  0  0  0
    9.1757  -16.1472   17.8555 C   0  0  0  0  0  0  0  0  0  0  0  0
   10.4161  -16.1199   18.1122 O   0  0  0  0  0  0  0  0  0  0  0  0
    7.4809  -12.6984   19.2733 C   0  0  0  0  0  0  0  0  0  0  0  0
    7.7513  -13.7549   20.2965 C   0  0  2  0  0  0  0  0  0  0  0  0
    7.9995  -13.1654   21.6770 C   0  0  0  0  0  0  0  0  0  0  0  0
    8.7943  -14.7577   19.9271 C   0  0  2  0  0  0  0  0  0  0  0  0
    8.3141  -15.4091   18.6942 N   0  0  0  0  0  0  0  0  0  0  0  0
    9.1309  -15.7524   20.9456 C   0  0  0  0  0  0  0  0  0  0  0  0
    8.2013  -16.5665   21.2800 O   0  0  0  0  0  0  0  0  0  0  0  0
   11.8406  -17.7803   22.1943 C   0  0  0  0  0  0  0  0  0  0  0  0
   10.5570  -17.0282   22.5561 C   0  0  2  0  0  0  0  0  0  0  0  0
   10.3491  -15.9264   21.6028 N   0  0  0  0  0  0  0  0  0  0  0  0
   10.7627  -16.4722   23.9073 C   0  0  0  0  0  0  0  0  0  0  0  0
   10.7695  -17.2775   25.0230 O   0  0  0  0  0  0  0  0  0  0  0  0
   10.9342  -15.2447   24.0404 O   0  0  0  0  0  0  0  0  0  0  0  0
  2  3  2  0
  2  1  1  0
  4  2  1  0
  5  4  1  0
  6  5  1  0
  6  7  1  6
  8  6  1  0
  8 14  1  0
  9  8  2  0
 11 10  1  6
 11 13  1  0
 11 12  1  0
 13 14  1  6
 13 15  1  0
 15 19  1  0
 16 15  2  0
 18 20  1  0
 18 17  1  6
 19 18  1  0
 20 21  1  0
 22 20  2  0
M  END
$$$$
