GEE.pdb
     RDKit          3D

 23 22  0  0  1  0  0  0  0  0999 V2000
    8.2599  -19.4034   22.1825 N   0  0  0  0  0  0  0  0  0  0  0  0
    8.2153  -17.9573   22.2559 C   0  0  0  0  0  0  0  0  0  0  0  0
    9.3626  -17.4101   21.4996 C   0  0  0  0  0  0  0  0  0  0  0  0
   10.2808  -18.1797   21.1269 O   0  0  0  0  0  0  0  0  0  0  0  0
    9.4876  -16.0432   21.1653 N   0  0  0  0  0  0  0  0  0  0  0  0
   10.5767  -15.4800   20.4189 C   0  0  1  0  0  0  0  0  0  0  0  0
   10.2719  -14.1511   19.7958 C   0  0  0  0  0  0  0  0  0  0  0  0
   11.4263  -13.6970   18.9172 C   0  0  0  0  0  0  0  0  0  0  0  0
   11.4446  -14.4435   17.6307 C   0  0  0  0  0  0  0  0  0  0  0  0
   10.3977  -14.6405   16.9573 O   0  0  0  0  0  0  0  0  0  0  0  0
   11.7420  -15.3883   21.3314 C   0  0  0  0  0  0  0  0  0  0  0  0
   11.5893  -14.7939   22.4229 O   0  0  0  0  0  0  0  0  0  0  0  0
   12.6622  -14.9336   17.1683 O   0  0  0  0  0  0  0  0  0  0  0  0
   13.0091  -15.9323   21.0380 N   0  0  0  0  0  0  0  0  0  0  0  0
   14.1359  -15.8234   21.9981 C   0  0  1  0  0  0  0  0  0  0  0  0
   14.7158  -17.1677   22.2548 C   0  0  0  0  0  0  0  0  0  0  0  0
   13.8025  -18.0368   23.0389 C   0  0  0  0  0  0  0  0  0  0  0  0
   14.3150  -19.3947   23.3030 C   0  0  0  0  0  0  0  0  0  0  0  0
   14.6832  -20.1525   22.3983 O   0  0  0  0  0  0  0  0  0  0  0  0
   15.1513  -14.9025   21.4581 C   0  0  0  0  0  0  0  0  0  0  0  0
   16.1394  -14.5597   22.1946 O   0  0  0  0  0  0  0  0  0  0  0  0
   14.3895  -19.8454   24.6167 O   0  0  0  0  0  0  0  0  0  0  0  0
   15.1422  -14.3583   20.1967 O   0  0  0  0  0  0  0  0  0  0  0  0
  2  1  1  0
  3  5  1  0
  3  2  1  0
  4  3  2  0
  6  7  1  1
  6  5  1  0
  8  7  1  0
  9  8  1  0
 10  9  2  0
 11 14  1  0
 11  6  1  0
 12 11  2  0
 13  9  1  0
 15 14  1  0
 15 16  1  6
 16 17  1  0
 17 18  1  0
 18 22  1  0
 19 18  2  0
 20 15  1  0
 21 20  2  0
 23 20  1  0
M  END
$$$$
