GEE.pdb
     RDKit          3D

 23 22  0  0  1  0  0  0  0  0999 V2000
    3.4397  -17.9900   22.4325 N   0  0  0  0  0  0  0  0  0  0  0  0
    4.1767  -16.8359   21.9597 C   0  0  0  0  0  0  0  0  0  0  0  0
    5.5013  -17.2854   21.4790 C   0  0  0  0  0  0  0  0  0  0  0  0
    5.8748  -18.4614   21.7061 O   0  0  0  0  0  0  0  0  0  0  0  0
    6.3890  -16.4506   20.7642 N   0  0  0  0  0  0  0  0  0  0  0  0
    7.7056  -16.8316   20.3378 C   0  0  1  0  0  0  0  0  0  0  0  0
    8.1143  -16.2539   19.0163 C   0  0  0  0  0  0  0  0  0  0  0  0
    7.6910  -14.7972   18.9175 C   0  0  0  0  0  0  0  0  0  0  0  0
    8.0208  -14.2343   17.5806 C   0  0  0  0  0  0  0  0  0  0  0  0
    7.1312  -13.8033   16.7989 O   0  0  0  0  0  0  0  0  0  0  0  0
    8.6523  -16.4384   21.4093 C   0  0  0  0  0  0  0  0  0  0  0  0
    8.5733  -15.2754   21.8666 O   0  0  0  0  0  0  0  0  0  0  0  0
    9.3569  -14.1883   17.1943 O   0  0  0  0  0  0  0  0  0  0  0  0
    9.6339  -17.3002   21.9399 N   0  0  0  0  0  0  0  0  0  0  0  0
   10.4933  -16.8829   23.0759 C   0  0  1  0  0  0  0  0  0  0  0  0
   10.5928  -17.9847   24.0686 C   0  0  0  0  0  0  0  0  0  0  0  0
   11.4954  -17.6476   25.1983 C   0  0  0  0  0  0  0  0  0  0  0  0
   11.7264  -18.7464   26.1552 C   0  0  0  0  0  0  0  0  0  0  0  0
   11.2306  -19.8693   26.0083 O   0  0  0  0  0  0  0  0  0  0  0  0
   11.8240  -16.5043   22.5691 C   0  0  0  0  0  0  0  0  0  0  0  0
   12.1988  -16.9252   21.4209 O   0  0  0  0  0  0  0  0  0  0  0  0
   12.5308  -18.5170   27.2664 O   0  0  0  0  0  0  0  0  0  0  0  0
   12.7326  -15.7144   23.2307 O   0  0  0  0  0  0  0  0  0  0  0  0
  2  1  1  0
  3  5  1  0
  3  2  1  0
  4  3  2  0
  6  7  1  6
  6  5  1  0
  8  7  1  0
  9  8  1  0
 10  9  2  0
 11 14  1  0
 11  6  1  0
 12 11  2  0
 13  9  1  0
 15 14  1  0
 15 16  1  1
 16 17  1  0
 17 18  1  0
 18 22  1  0
 19 18  2  0
 20 15  1  0
 21 20  2  0
 23 20  1  0
M  END
$$$$
