GEE.pdb
     RDKit          3D

 23 22  0  0  1  0  0  0  0  0999 V2000
   14.2898  -18.8759   16.6835 N   0  0  0  0  0  0  0  0  0  0  0  0
   14.9043  -19.3996   17.8863 C   0  0  0  0  0  0  0  0  0  0  0  0
   14.3218  -18.7057   19.0553 C   0  0  0  0  0  0  0  0  0  0  0  0
   14.4387  -17.4606   19.1564 O   0  0  0  0  0  0  0  0  0  0  0  0
   13.6270  -19.3767   20.0863 N   0  0  0  0  0  0  0  0  0  0  0  0
   12.9594  -18.7285   21.1791 C   0  0  1  0  0  0  0  0  0  0  0  0
   11.6170  -19.3082   21.5096 C   0  0  0  0  0  0  0  0  0  0  0  0
   10.6473  -19.0975   20.3581 C   0  0  0  0  0  0  0  0  0  0  0  0
    9.3422  -19.7573   20.6308 C   0  0  0  0  0  0  0  0  0  0  0  0
    8.3693  -19.1326   21.1325 O   0  0  0  0  0  0  0  0  0  0  0  0
   13.8675  -18.7805   22.3502 C   0  0  0  0  0  0  0  0  0  0  0  0
   14.1668  -19.9048   22.8132 O   0  0  0  0  0  0  0  0  0  0  0  0
    9.2054  -21.1062   20.3175 O   0  0  0  0  0  0  0  0  0  0  0  0
   14.4111  -17.6363   22.9692 N   0  0  0  0  0  0  0  0  0  0  0  0
   15.2131  -17.7408   24.2138 C   0  0  1  0  0  0  0  0  0  0  0  0
   16.2050  -16.6354   24.2729 C   0  0  0  0  0  0  0  0  0  0  0  0
   17.2727  -16.7789   23.2513 C   0  0  0  0  0  0  0  0  0  0  0  0
   18.2386  -15.6648   23.2046 C   0  0  0  0  0  0  0  0  0  0  0  0
   17.8902  -14.4915   23.0305 O   0  0  0  0  0  0  0  0  0  0  0  0
   14.3130  -17.7082   25.3798 C   0  0  0  0  0  0  0  0  0  0  0  0
   13.1232  -17.2601   25.2389 O   0  0  0  0  0  0  0  0  0  0  0  0
   19.5933  -15.9378   23.3616 O   0  0  0  0  0  0  0  0  0  0  0  0
   14.6364  -18.1283   26.6472 O   0  0  0  0  0  0  0  0  0  0  0  0
  2  1  1  0
  3  5  1  0
  3  2  1  0
  4  3  2  0
  6  7  1  1
  6  5  1  0
  8  7  1  0
  9  8  1  0
 10  9  2  0
 11 14  1  0
 11  6  1  0
 12 11  2  0
 13  9  1  0
 15 14  1  0
 15 16  1  1
 16 17  1  0
 17 18  1  0
 18 22  1  0
 19 18  2  0
 20 15  1  0
 21 20  2  0
 23 20  1  0
M  END
$$$$
