GEE.pdb
     RDKit          3D

 23 22  0  0  1  0  0  0  0  0999 V2000
    2.4275  -23.0496   23.4011 N   0  0  0  0  0  0  0  0  0  0  0  0
    2.5557  -21.6535   23.0364 C   0  0  0  0  0  0  0  0  0  0  0  0
    3.9853  -21.2787   23.0964 C   0  0  0  0  0  0  0  0  0  0  0  0
    4.8157  -22.0845   23.5814 O   0  0  0  0  0  0  0  0  0  0  0  0
    4.4807  -20.0406   22.6298 N   0  0  0  0  0  0  0  0  0  0  0  0
    5.8701  -19.6844   22.5738 C   0  0  1  0  0  0  0  0  0  0  0  0
    6.2284  -18.7877   21.4272 C   0  0  0  0  0  0  0  0  0  0  0  0
    6.3774  -19.5935   20.1468 C   0  0  0  0  0  0  0  0  0  0  0  0
    6.7550  -18.7179   19.0051 C   0  0  0  0  0  0  0  0  0  0  0  0
    5.8995  -18.0536   18.3607 O   0  0  0  0  0  0  0  0  0  0  0  0
    6.2227  -19.0598   23.8717 C   0  0  0  0  0  0  0  0  0  0  0  0
    5.4485  -18.1924   24.3369 O   0  0  0  0  0  0  0  0  0  0  0  0
    8.0978  -18.6394   18.6485 O   0  0  0  0  0  0  0  0  0  0  0  0
    7.3788  -19.3884   24.6087 N   0  0  0  0  0  0  0  0  0  0  0  0
    7.6423  -18.7850   25.9389 C   0  0  1  0  0  0  0  0  0  0  0  0
    8.1244  -19.8272   26.8827 C   0  0  0  0  0  0  0  0  0  0  0  0
    8.4089  -19.2789   28.2329 C   0  0  0  0  0  0  0  0  0  0  0  0
    9.0367  -20.2314   29.1681 C   0  0  0  0  0  0  0  0  0  0  0  0
    9.2655  -19.9482   30.3496 O   0  0  0  0  0  0  0  0  0  0  0  0
    8.6299  -17.7008   25.7972 C   0  0  0  0  0  0  0  0  0  0  0  0
    8.7589  -16.8453   26.7394 O   0  0  0  0  0  0  0  0  0  0  0  0
    9.3869  -21.4971   28.7100 O   0  0  0  0  0  0  0  0  0  0  0  0
    9.4563  -17.5129   24.7159 O   0  0  0  0  0  0  0  0  0  0  0  0
  2  1  1  0
  3  5  1  0
  3  2  1  0
  4  3  2  0
  6  7  1  6
  6  5  1  0
  8  7  1  0
  9  8  1  0
 10  9  2  0
 11 14  1  0
 11  6  1  0
 12 11  2  0
 13  9  1  0
 15 14  1  0
 15 16  1  1
 16 17  1  0
 17 18  1  0
 18 22  1  0
 19 18  2  0
 20 15  1  0
 21 20  2  0
 23 20  1  0
M  END
$$$$
