GEE.pdb
     RDKit          3D

 23 22  0  0  1  0  0  0  0  0999 V2000
    6.4632  -13.1516   20.2936 N   0  0  0  0  0  0  0  0  0  0  0  0
    7.6006  -13.3458   19.4177 C   0  0  0  0  0  0  0  0  0  0  0  0
    8.3218  -14.5652   19.8428 C   0  0  0  0  0  0  0  0  0  0  0  0
    7.8738  -15.2477   20.7955 O   0  0  0  0  0  0  0  0  0  0  0  0
    9.5102  -15.0158   19.2260 N   0  0  0  0  0  0  0  0  0  0  0  0
   10.1723  -16.2522   19.5315 C   0  0  1  0  0  0  0  0  0  0  0  0
   10.7714  -16.9385   18.3409 C   0  0  0  0  0  0  0  0  0  0  0  0
   11.3582  -18.2828   18.7401 C   0  0  0  0  0  0  0  0  0  0  0  0
   11.9136  -18.9956   17.5584 C   0  0  0  0  0  0  0  0  0  0  0  0
   12.7564  -19.9255   17.6740 O   0  0  0  0  0  0  0  0  0  0  0  0
   11.2031  -15.9642   20.5577 C   0  0  0  0  0  0  0  0  0  0  0  0
   11.9940  -15.0163   20.3475 O   0  0  0  0  0  0  0  0  0  0  0  0
   11.4804  -18.6135   16.2924 O   0  0  0  0  0  0  0  0  0  0  0  0
   11.3410  -16.6970   21.7542 N   0  0  0  0  0  0  0  0  0  0  0  0
   12.3547  -16.3259   22.7730 C   0  0  1  0  0  0  0  0  0  0  0  0
   11.9601  -16.8636   24.1013 C   0  0  0  0  0  0  0  0  0  0  0  0
   10.6313  -16.3671   24.5398 C   0  0  0  0  0  0  0  0  0  0  0  0
   10.1320  -16.9605   25.7947 C   0  0  0  0  0  0  0  0  0  0  0  0
    8.9981  -16.7326   26.2313 O   0  0  0  0  0  0  0  0  0  0  0  0
   13.6723  -16.8421   22.3625 C   0  0  0  0  0  0  0  0  0  0  0  0
   13.7351  -17.7608   21.4748 O   0  0  0  0  0  0  0  0  0  0  0  0
   10.9630  -17.8089   26.5187 O   0  0  0  0  0  0  0  0  0  0  0  0
   14.8825  -16.4173   22.8550 O   0  0  0  0  0  0  0  0  0  0  0  0
  2  1  1  0
  3  5  1  0
  3  2  1  0
  4  3  2  0
  6  7  1  6
  6  5  1  0
  8  7  1  0
  9  8  1  0
 10  9  2  0
 11 14  1  0
 11  6  1  0
 12 11  2  0
 13  9  1  0
 15 14  1  0
 15 16  1  1
 16 17  1  0
 17 18  1  0
 18 22  1  0
 19 18  2  0
 20 15  1  0
 21 20  2  0
 23 20  1  0
M  END
$$$$
