GEE.pdb
     RDKit          3D

 23 22  0  0  1  0  0  0  0  0999 V2000
    6.5135  -13.1045   19.9421 N   0  0  0  0  0  0  0  0  0  0  0  0
    7.5128  -12.6397   19.0019 C   0  0  0  0  0  0  0  0  0  0  0  0
    8.5554  -13.6800   18.8674 C   0  0  0  0  0  0  0  0  0  0  0  0
    8.4683  -14.7334   19.5434 O   0  0  0  0  0  0  0  0  0  0  0  0
    9.6668  -13.5545   18.0043 N   0  0  0  0  0  0  0  0  0  0  0  0
   10.6611  -14.5691   17.7982 C   0  0  1  0  0  0  0  0  0  0  0  0
   11.1525  -14.6695   16.3855 C   0  0  0  0  0  0  0  0  0  0  0  0
   12.1245  -15.8292   16.2405 C   0  0  0  0  0  0  0  0  0  0  0  0
   12.5487  -15.9972   14.8246 C   0  0  0  0  0  0  0  0  0  0  0  0
   13.7072  -16.3855   14.5155 O   0  0  0  0  0  0  0  0  0  0  0  0
   11.7777  -14.2955   18.7348 C   0  0  0  0  0  0  0  0  0  0  0  0
   12.3361  -13.1763   18.6738 O   0  0  0  0  0  0  0  0  0  0  0  0
   11.6278  -15.7132   13.8208 O   0  0  0  0  0  0  0  0  0  0  0  0
   12.2438  -15.2241   19.6878 N   0  0  0  0  0  0  0  0  0  0  0  0
   13.3812  -14.9022   20.5855 C   0  0  1  0  0  0  0  0  0  0  0  0
   13.4093  -15.8507   21.7295 C   0  0  0  0  0  0  0  0  0  0  0  0
   12.2728  -15.6445   22.6625 C   0  0  0  0  0  0  0  0  0  0  0  0
   12.2746  -16.5269   23.8448 C   0  0  0  0  0  0  0  0  0  0  0  0
   13.3129  -16.8361   24.4403 O   0  0  0  0  0  0  0  0  0  0  0  0
   14.6391  -14.9576   19.8203 C   0  0  0  0  0  0  0  0  0  0  0  0
   14.7460  -15.7867   18.8521 O   0  0  0  0  0  0  0  0  0  0  0  0
   11.0664  -17.0333   24.3119 O   0  0  0  0  0  0  0  0  0  0  0  0
   15.7463  -14.1776   20.0508 O   0  0  0  0  0  0  0  0  0  0  0  0
  2  1  1  0
  3  5  1  0
  3  2  1  0
  4  3  2  0
  6  7  1  6
  6  5  1  0
  8  7  1  0
  9  8  1  0
 10  9  2  0
 11 14  1  0
 11  6  1  0
 12 11  2  0
 13  9  1  0
 15 14  1  0
 15 16  1  1
 16 17  1  0
 17 18  1  0
 18 22  1  0
 19 18  2  0
 20 15  1  0
 21 20  2  0
 23 20  1  0
M  END
$$$$
