GEE.pdb
     RDKit          3D

 23 22  0  0  1  0  0  0  0  0999 V2000
   12.9539  -17.6917   19.7858 N   0  0  0  0  0  0  0  0  0  0  0  0
   12.9259  -19.0596   20.2618 C   0  0  0  0  0  0  0  0  0  0  0  0
   11.9942  -19.1424   21.4074 C   0  0  0  0  0  0  0  0  0  0  0  0
   11.4774  -18.0930   21.8609 O   0  0  0  0  0  0  0  0  0  0  0  0
   11.6448  -20.3595   22.0340 N   0  0  0  0  0  0  0  0  0  0  0  0
   10.6842  -20.4880   23.0928 C   0  0  1  0  0  0  0  0  0  0  0  0
    9.8305  -21.7170   23.0018 C   0  0  0  0  0  0  0  0  0  0  0  0
    9.9341  -22.5337   24.2796 C   0  0  0  0  0  0  0  0  0  0  0  0
    9.1338  -23.7838   24.1813 C   0  0  0  0  0  0  0  0  0  0  0  0
    9.0131  -24.5784   25.1522 O   0  0  0  0  0  0  0  0  0  0  0  0
   11.4266  -20.4463   24.3758 C   0  0  0  0  0  0  0  0  0  0  0  0
   12.5729  -20.9493   24.4088 O   0  0  0  0  0  0  0  0  0  0  0  0
    8.5044  -24.0723   22.9742 O   0  0  0  0  0  0  0  0  0  0  0  0
   10.9140  -19.8726   25.5572 N   0  0  0  0  0  0  0  0  0  0  0  0
   11.7591  -19.7149   26.7672 C   0  0  1  0  0  0  0  0  0  0  0  0
   11.2724  -18.5700   27.5806 C   0  0  0  0  0  0  0  0  0  0  0  0
   12.0556  -18.3905   28.8292 C   0  0  0  0  0  0  0  0  0  0  0  0
   11.6106  -17.2735   29.6839 C   0  0  0  0  0  0  0  0  0  0  0  0
   10.6403  -17.3657   30.4444 O   0  0  0  0  0  0  0  0  0  0  0  0
   11.7367  -20.9656   27.5458 C   0  0  0  0  0  0  0  0  0  0  0  0
   10.6913  -21.7020   27.5160 O   0  0  0  0  0  0  0  0  0  0  0  0
   12.3042  -16.0689   29.6371 O   0  0  0  0  0  0  0  0  0  0  0  0
   12.7649  -21.4361   28.3261 O   0  0  0  0  0  0  0  0  0  0  0  0
  2  1  1  0
  3  5  1  0
  3  2  1  0
  4  3  2  0
  6  7  1  6
  6  5  1  0
  8  7  1  0
  9  8  1  0
 10  9  2  0
 11 14  1  0
 11  6  1  0
 12 11  2  0
 13  9  1  0
 15 14  1  0
 15 16  1  1
 16 17  1  0
 17 18  1  0
 18 22  1  0
 19 18  2  0
 20 15  1  0
 21 20  2  0
 23 20  1  0
M  END
$$$$
