DDH.pdb
     RDKit          3D

 27 27  0  0  1  0  0  0  0  0999 V2000
    9.4223  -17.3593   15.3826 N   0  0  0  0  0  0  0  0  0  0  0  0
    9.8941  -16.1007   15.8710 C   0  0  1  0  0  0  0  0  0  0  0  0
    8.7640  -15.0996   15.5701 C   0  0  0  0  0  0  0  0  0  0  0  0
    8.5402  -15.1688   14.1061 C   0  0  0  0  0  0  0  0  0  0  0  0
    8.9365  -16.2045   13.5237 O   0  0  0  0  0  0  0  0  0  0  0  0
   10.2517  -16.0753   17.2931 C   0  0  0  0  0  0  0  0  0  0  0  0
   10.7373  -15.0179   17.7971 O   0  0  0  0  0  0  0  0  0  0  0  0
    7.9259  -14.1446   13.4313 O   0  0  0  0  0  0  0  0  0  0  0  0
   10.0972  -17.1653   18.1802 N   0  0  0  0  0  0  0  0  0  0  0  0
   10.4386  -17.0511   19.6108 C   0  0  1  0  0  0  0  0  0  0  0  0
    9.7802  -18.1662   20.3239 C   0  0  0  0  0  0  0  0  0  0  0  0
    8.3254  -18.2763   20.1897 C   0  0  0  0  0  0  0  0  0  0  0  0
    7.6367  -17.3308   20.6655 O   0  0  0  0  0  0  0  0  0  0  0  0
   11.9183  -16.9954   19.7227 C   0  0  0  0  0  0  0  0  0  0  0  0
   12.6976  -17.7373   19.0766 O   0  0  0  0  0  0  0  0  0  0  0  0
    7.6627  -19.3146   19.5946 O   0  0  0  0  0  0  0  0  0  0  0  0
   12.5539  -16.0730   20.5924 N   0  0  0  0  0  0  0  0  0  0  0  0
   13.9865  -15.8833   20.7075 C   0  0  1  0  0  0  0  0  0  0  0  0
   14.4145  -14.4919   20.4802 C   0  0  0  0  0  0  0  0  0  0  0  0
   14.5435  -14.2134   19.0370 C   0  0  0  0  0  0  0  0  0  0  0  0
   14.4289  -15.0400   17.9457 C   0  0  0  0  0  0  0  0  0  0  0  0
   14.6771  -14.3223   16.8369 N   0  0  0  0  0  0  0  0  0  0  0  0
   14.9470  -13.0595   17.1887 C   0  0  0  0  0  0  0  0  0  0  0  0
   14.8681  -12.9888   18.5160 N   0  0  0  0  0  0  0  0  0  0  0  0
   14.3466  -16.3212   22.0710 C   0  0  0  0  0  0  0  0  0  0  0  0
   13.3965  -16.7555   23.0147 O   0  0  0  0  0  0  0  0  0  0  0  0
   15.5398  -16.3202   22.4455 O   0  0  0  0  0  0  0  0  0  0  0  0
  2  1  1  1
  2  3  1  0
  3  4  1  0
  4  8  1  0
  5  4  2  0
  6  7  2  0
  6  2  1  0
  9  6  1  0
 10  9  1  0
 10 11  1  1
 12 13  2  0
 12 11  1  0
 14 17  1  0
 14 10  1  0
 15 14  2  0
 16 12  1  0
 18 17  1  0
 18 25  1  0
 18 19  1  1
 20 19  1  0
 21 20  2  0
 22 21  1  0
 23 22  1  0
 23 24  2  0
 24 20  1  0
 25 27  2  0
 25 26  1  0
M  END
$$$$
