DDH.pdb
     RDKit          3D

 27 27  0  0  1  0  0  0  0  0999 V2000
   11.2176  -17.6456   15.2651 N   0  0  0  0  0  0  0  0  0  0  0  0
   11.9749  -16.8352   16.1678 C   0  0  1  0  0  0  0  0  0  0  0  0
   11.8017  -15.3923   15.6600 C   0  0  0  0  0  0  0  0  0  0  0  0
   12.4867  -15.3399   14.3461 C   0  0  0  0  0  0  0  0  0  0  0  0
   12.2659  -14.3325   13.6352 O   0  0  0  0  0  0  0  0  0  0  0  0
   11.5909  -16.9436   17.5790 C   0  0  0  0  0  0  0  0  0  0  0  0
   10.3643  -17.0315   17.8884 O   0  0  0  0  0  0  0  0  0  0  0  0
   13.3218  -16.3490   13.9386 O   0  0  0  0  0  0  0  0  0  0  0  0
   12.5011  -16.9582   18.6608 N   0  0  0  0  0  0  0  0  0  0  0  0
   12.0481  -17.1721   20.0484 C   0  0  1  0  0  0  0  0  0  0  0  0
   13.1686  -17.7724   20.8030 C   0  0  0  0  0  0  0  0  0  0  0  0
   13.6655  -19.0699   20.3382 C   0  0  0  0  0  0  0  0  0  0  0  0
   14.8969  -19.1444   20.0684 O   0  0  0  0  0  0  0  0  0  0  0  0
   11.5399  -15.8764   20.5661 C   0  0  0  0  0  0  0  0  0  0  0  0
   11.5882  -14.7988   19.9247 O   0  0  0  0  0  0  0  0  0  0  0  0
   12.9052  -20.1955   20.1753 O   0  0  0  0  0  0  0  0  0  0  0  0
   10.9535  -15.7804   21.8538 N   0  0  0  0  0  0  0  0  0  0  0  0
    9.8135  -14.9520   22.1937 C   0  0  1  0  0  0  0  0  0  0  0  0
    8.5926  -15.2975   21.4446 C   0  0  0  0  0  0  0  0  0  0  0  0
    8.5341  -14.5573   20.1696 C   0  0  0  0  0  0  0  0  0  0  0  0
    9.4177  -13.6734   19.5991 C   0  0  0  0  0  0  0  0  0  0  0  0
    8.8936  -13.2295   18.4439 N   0  0  0  0  0  0  0  0  0  0  0  0
    7.6995  -13.8051   18.2596 C   0  0  0  0  0  0  0  0  0  0  0  0
    7.4778  -14.6073   19.2990 N   0  0  0  0  0  0  0  0  0  0  0  0
    9.6002  -15.1285   23.6441 C   0  0  0  0  0  0  0  0  0  0  0  0
    8.8361  -14.2383   24.4224 O   0  0  0  0  0  0  0  0  0  0  0  0
   10.1054  -16.1000   24.2482 O   0  0  0  0  0  0  0  0  0  0  0  0
  2  1  1  6
  2  3  1  0
  3  4  1  0
  4  8  1  0
  5  4  2  0
  6  7  2  0
  6  2  1  0
  9  6  1  0
 10  9  1  0
 10 11  1  1
 12 13  2  0
 12 11  1  0
 14 17  1  0
 14 10  1  0
 15 14  2  0
 16 12  1  0
 18 17  1  0
 18 25  1  0
 18 19  1  6
 20 19  1  0
 21 20  2  0
 22 21  1  0
 23 22  1  0
 23 24  2  0
 24 20  1  0
 25 27  2  0
 25 26  1  0
M  END
$$$$
