DDH.pdb
     RDKit          3D

 27 27  0  0  1  0  0  0  0  0999 V2000
   12.1675  -16.7554   15.6922 N   0  0  0  0  0  0  0  0  0  0  0  0
   10.9118  -16.7138   16.3753 C   0  0  1  0  0  0  0  0  0  0  0  0
   10.0042  -17.6981   15.6156 C   0  0  0  0  0  0  0  0  0  0  0  0
    9.9575  -17.2093   14.2166 C   0  0  0  0  0  0  0  0  0  0  0  0
   10.3260  -16.0285   14.0196 O   0  0  0  0  0  0  0  0  0  0  0  0
   10.9646  -17.0451   17.8030 C   0  0  0  0  0  0  0  0  0  0  0  0
    9.8861  -17.2482   18.4382 O   0  0  0  0  0  0  0  0  0  0  0  0
    9.5324  -18.0190   13.1941 O   0  0  0  0  0  0  0  0  0  0  0  0
   12.1546  -17.1605   18.5578 N   0  0  0  0  0  0  0  0  0  0  0  0
   12.1299  -17.5198   19.9883 C   0  0  1  0  0  0  0  0  0  0  0  0
   13.4927  -17.9452   20.3719 C   0  0  0  0  0  0  0  0  0  0  0  0
   13.6868  -18.3933   21.7533 C   0  0  0  0  0  0  0  0  0  0  0  0
   12.7119  -18.9765   22.3048 O   0  0  0  0  0  0  0  0  0  0  0  0
   11.5778  -16.3634   20.7387 C   0  0  0  0  0  0  0  0  0  0  0  0
   12.0753  -15.2114   20.7148 O   0  0  0  0  0  0  0  0  0  0  0  0
   14.8316  -18.2296   22.4841 O   0  0  0  0  0  0  0  0  0  0  0  0
   10.4223  -16.4993   21.5495 N   0  0  0  0  0  0  0  0  0  0  0  0
    9.7412  -15.4116   22.2236 C   0  0  1  0  0  0  0  0  0  0  0  0
    8.3969  -15.1378   21.6861 C   0  0  0  0  0  0  0  0  0  0  0  0
    8.4844  -14.4453   20.3861 C   0  0  0  0  0  0  0  0  0  0  0  0
    9.5657  -13.9446   19.7026 C   0  0  0  0  0  0  0  0  0  0  0  0
    9.1264  -13.3605   18.5747 N   0  0  0  0  0  0  0  0  0  0  0  0
    7.7940  -13.4740   18.5179 C   0  0  0  0  0  0  0  0  0  0  0  0
    7.4016  -14.1278   19.6095 N   0  0  0  0  0  0  0  0  0  0  0  0
    9.6625  -15.8000   23.6461 C   0  0  0  0  0  0  0  0  0  0  0  0
    9.2283  -14.9239   24.6590 O   0  0  0  0  0  0  0  0  0  0  0  0
    9.9887  -16.9509   24.0106 O   0  0  0  0  0  0  0  0  0  0  0  0
  2  1  1  6
  2  3  1  0
  3  4  1  0
  4  8  1  0
  5  4  2  0
  6  7  2  0
  6  2  1  0
  9  6  1  0
 10  9  1  0
 10 11  1  1
 12 13  2  0
 12 11  1  0
 14 17  1  0
 14 10  1  0
 15 14  2  0
 16 12  1  0
 18 17  1  0
 18 25  1  0
 18 19  1  6
 20 19  1  0
 21 20  2  0
 22 21  1  0
 23 22  1  0
 23 24  2  0
 24 20  1  0
 25 27  2  0
 25 26  1  0
M  END
$$$$
