DDH.pdb
     RDKit          3D

 27 27  0  0  1  0  0  0  0  0999 V2000
   13.0542  -20.8398   18.7077 N   0  0  0  0  0  0  0  0  0  0  0  0
   12.4105  -19.6942   19.2720 C   0  0  1  0  0  0  0  0  0  0  0  0
   11.3983  -19.2327   18.2079 C   0  0  0  0  0  0  0  0  0  0  0  0
   12.2060  -18.7616   17.0574 C   0  0  0  0  0  0  0  0  0  0  0  0
   12.9890  -17.8075   17.2714 O   0  0  0  0  0  0  0  0  0  0  0  0
   11.7491  -19.9197   20.5614 C   0  0  0  0  0  0  0  0  0  0  0  0
   11.1386  -18.9628   21.1269 O   0  0  0  0  0  0  0  0  0  0  0  0
   12.0963  -19.3497   15.8229 O   0  0  0  0  0  0  0  0  0  0  0  0
   11.7336  -21.1533   21.2520 N   0  0  0  0  0  0  0  0  0  0  0  0
   11.0749  -21.2956   22.5642 C   0  0  1  0  0  0  0  0  0  0  0  0
   10.8400  -22.7361   22.7991 C   0  0  0  0  0  0  0  0  0  0  0  0
   10.0724  -23.1000   23.9928 C   0  0  0  0  0  0  0  0  0  0  0  0
   10.4846  -22.6436   25.0957 O   0  0  0  0  0  0  0  0  0  0  0  0
   11.9165  -20.6042   23.5735 C   0  0  0  0  0  0  0  0  0  0  0  0
   13.1715  -20.6157   23.5649 O   0  0  0  0  0  0  0  0  0  0  0  0
    8.9547  -23.8888   24.0039 O   0  0  0  0  0  0  0  0  0  0  0  0
   11.3323  -19.8696   24.6366 N   0  0  0  0  0  0  0  0  0  0  0  0
   12.0639  -19.0875   25.6136 C   0  0  1  0  0  0  0  0  0  0  0  0
   11.7320  -17.6522   25.5841 C   0  0  0  0  0  0  0  0  0  0  0  0
   12.0199  -17.0759   24.2567 C   0  0  0  0  0  0  0  0  0  0  0  0
   13.1366  -17.1592   23.4608 C   0  0  0  0  0  0  0  0  0  0  0  0
   12.9310  -16.4222   22.3559 N   0  0  0  0  0  0  0  0  0  0  0  0
   11.7137  -15.8699   22.4230 C   0  0  0  0  0  0  0  0  0  0  0  0
   11.1599  -16.2612   23.5689 N   0  0  0  0  0  0  0  0  0  0  0  0
   11.7346  -19.6696   26.9301 C   0  0  0  0  0  0  0  0  0  0  0  0
   10.7779  -20.6880   27.1024 O   0  0  0  0  0  0  0  0  0  0  0  0
   12.3083  -19.2667   27.9657 O   0  0  0  0  0  0  0  0  0  0  0  0
  2  1  1  6
  2  3  1  0
  3  4  1  0
  4  8  1  0
  5  4  2  0
  6  7  2  0
  6  2  1  0
  9  6  1  0
 10  9  1  0
 10 11  1  1
 12 13  2  0
 12 11  1  0
 14 17  1  0
 14 10  1  0
 15 14  2  0
 16 12  1  0
 18 17  1  0
 18 25  1  0
 18 19  1  1
 20 19  1  0
 21 20  2  0
 22 21  1  0
 23 22  1  0
 23 24  2  0
 24 20  1  0
 25 27  2  0
 25 26  1  0
M  END
$$$$
