DDH.pdb
     RDKit          3D

 27 27  0  0  1  0  0  0  0  0999 V2000
    9.3271  -17.1314   20.1345 N   0  0  0  0  0  0  0  0  0  0  0  0
    9.9556  -18.0150   21.0668 C   0  0  1  0  0  0  0  0  0  0  0  0
   11.4634  -17.7320   20.9405 C   0  0  0  0  0  0  0  0  0  0  0  0
   11.8708  -18.2839   19.6261 C   0  0  0  0  0  0  0  0  0  0  0  0
   11.0692  -19.0711   19.0725 O   0  0  0  0  0  0  0  0  0  0  0  0
    9.5112  -17.8765   22.4576 C   0  0  0  0  0  0  0  0  0  0  0  0
    9.4929  -16.7291   22.9971 O   0  0  0  0  0  0  0  0  0  0  0  0
   13.0682  -17.9412   19.0510 O   0  0  0  0  0  0  0  0  0  0  0  0
    9.0881  -18.9485   23.2767 N   0  0  0  0  0  0  0  0  0  0  0  0
    8.6700  -18.7337   24.6750 C   0  0  1  0  0  0  0  0  0  0  0  0
    7.7633  -19.8389   25.0514 C   0  0  0  0  0  0  0  0  0  0  0  0
    6.6041  -20.0735   24.1867 C   0  0  0  0  0  0  0  0  0  0  0  0
    5.8428  -19.0883   23.9756 O   0  0  0  0  0  0  0  0  0  0  0  0
    9.8965  -18.5933   25.5004 C   0  0  0  0  0  0  0  0  0  0  0  0
   11.0381  -18.9554   25.1252 O   0  0  0  0  0  0  0  0  0  0  0  0
    6.2863  -21.2661   23.5966 O   0  0  0  0  0  0  0  0  0  0  0  0
    9.8458  -18.0251   26.7987 N   0  0  0  0  0  0  0  0  0  0  0  0
   10.9977  -17.7308   27.6282 C   0  0  1  0  0  0  0  0  0  0  0  0
   11.4516  -16.3326   27.5277 C   0  0  0  0  0  0  0  0  0  0  0  0
   10.3426  -15.4011   27.8093 C   0  0  0  0  0  0  0  0  0  0  0  0
    9.3964  -14.8491   26.9802 C   0  0  0  0  0  0  0  0  0  0  0  0
    8.6231  -14.0217   27.7038 N   0  0  0  0  0  0  0  0  0  0  0  0
    9.0484  -14.0292   28.9728 C   0  0  0  0  0  0  0  0  0  0  0  0
   10.0865  -14.8602   29.0415 N   0  0  0  0  0  0  0  0  0  0  0  0
   10.5937  -18.0474   29.0127 C   0  0  0  0  0  0  0  0  0  0  0  0
   11.4641  -17.9300   30.1130 O   0  0  0  0  0  0  0  0  0  0  0  0
    9.4340  -18.4428   29.2628 O   0  0  0  0  0  0  0  0  0  0  0  0
  2  1  1  6
  2  3  1  0
  3  4  1  0
  4  8  1  0
  5  4  2  0
  6  7  2  0
  6  2  1  0
  9  6  1  0
 10  9  1  0
 10 11  1  1
 12 13  2  0
 12 11  1  0
 14 17  1  0
 14 10  1  0
 15 14  2  0
 16 12  1  0
 18 17  1  0
 18 25  1  0
 18 19  1  1
 20 19  1  0
 21 20  2  0
 22 21  1  0
 23 22  1  0
 23 24  2  0
 24 20  1  0
 25 27  2  0
 25 26  1  0
M  END
$$$$
