DDH.pdb
     RDKit          3D

 27 27  0  0  1  0  0  0  0  0999 V2000
   12.3958  -17.5123   14.7463 N   0  0  0  0  0  0  0  0  0  0  0  0
   13.3005  -18.0003   15.7405 C   0  0  1  0  0  0  0  0  0  0  0  0
   14.6776  -17.4354   15.3478 C   0  0  0  0  0  0  0  0  0  0  0  0
   15.0627  -18.1371   14.0998 C   0  0  0  0  0  0  0  0  0  0  0  0
   15.1863  -17.4319   13.0719 O   0  0  0  0  0  0  0  0  0  0  0  0
   12.9630  -17.6443   17.1226 C   0  0  0  0  0  0  0  0  0  0  0  0
   12.5968  -16.4605   17.3920 O   0  0  0  0  0  0  0  0  0  0  0  0
   15.2738  -19.4924   14.0819 O   0  0  0  0  0  0  0  0  0  0  0  0
   13.0132  -18.5372   18.2177 N   0  0  0  0  0  0  0  0  0  0  0  0
   12.6699  -18.1026   19.5850 C   0  0  1  0  0  0  0  0  0  0  0  0
   12.1150  -19.2685   20.3048 C   0  0  0  0  0  0  0  0  0  0  0  0
   11.6365  -19.0421   21.6710 C   0  0  0  0  0  0  0  0  0  0  0  0
   11.7539  -17.8709   22.1284 O   0  0  0  0  0  0  0  0  0  0  0  0
   13.8813  -17.4882   20.1851 C   0  0  0  0  0  0  0  0  0  0  0  0
   15.0262  -17.9994   20.1294 O   0  0  0  0  0  0  0  0  0  0  0  0
   11.0784  -19.9928   22.4809 O   0  0  0  0  0  0  0  0  0  0  0  0
   13.8111  -16.2518   20.8762 N   0  0  0  0  0  0  0  0  0  0  0  0
   14.9319  -15.5800   21.5039 C   0  0  1  0  0  0  0  0  0  0  0  0
   15.0580  -14.1635   21.1182 C   0  0  0  0  0  0  0  0  0  0  0  0
   15.7034  -14.0364   19.7975 C   0  0  0  0  0  0  0  0  0  0  0  0
   16.3415  -14.9662   19.0129 C   0  0  0  0  0  0  0  0  0  0  0  0
   16.8033  -14.3517   17.9104 N   0  0  0  0  0  0  0  0  0  0  0  0
   16.4780  -13.0547   17.9681 C   0  0  0  0  0  0  0  0  0  0  0  0
   15.8142  -12.8593   19.1057 N   0  0  0  0  0  0  0  0  0  0  0  0
   14.7178  -15.7048   22.9596 C   0  0  0  0  0  0  0  0  0  0  0  0
   15.6469  -15.2501   23.9146 O   0  0  0  0  0  0  0  0  0  0  0  0
   13.6768  -16.2341   23.4068 O   0  0  0  0  0  0  0  0  0  0  0  0
  2  1  1  6
  2  3  1  0
  3  4  1  0
  4  8  1  0
  5  4  2  0
  6  7  2  0
  6  2  1  0
  9  6  1  0
 10  9  1  0
 10 11  1  1
 12 13  2  0
 12 11  1  0
 14 17  1  0
 14 10  1  0
 15 14  2  0
 16 12  1  0
 18 17  1  0
 18 25  1  0
 18 19  1  6
 20 19  1  0
 21 20  2  0
 22 21  1  0
 23 22  1  0
 23 24  2  0
 24 20  1  0
 25 27  2  0
 25 26  1  0
M  END
$$$$
