DDH.pdb
     RDKit          3D

 27 27  0  0  1  0  0  0  0  0999 V2000
   13.6384  -19.0440   19.3520 N   0  0  0  0  0  0  0  0  0  0  0  0
   13.9277  -17.8393   20.0663 C   0  0  1  0  0  0  0  0  0  0  0  0
   14.6642  -16.9377   19.0591 C   0  0  0  0  0  0  0  0  0  0  0  0
   15.8739  -16.4478   19.7625 C   0  0  0  0  0  0  0  0  0  0  0  0
   16.3608  -17.2005   20.6372 O   0  0  0  0  0  0  0  0  0  0  0  0
   12.7621  -17.1511   20.6308 C   0  0  0  0  0  0  0  0  0  0  0  0
   12.9115  -16.0208   21.1860 O   0  0  0  0  0  0  0  0  0  0  0  0
   16.4272  -15.2292   19.4613 O   0  0  0  0  0  0  0  0  0  0  0  0
   11.4420  -17.6566   20.6095 N   0  0  0  0  0  0  0  0  0  0  0  0
   10.3149  -16.8978   21.1840 C   0  0  1  0  0  0  0  0  0  0  0  0
    9.0982  -17.2461   20.4200 C   0  0  0  0  0  0  0  0  0  0  0  0
    7.8326  -16.6729   20.8851 C   0  0  0  0  0  0  0  0  0  0  0  0
    7.8879  -15.9129   21.8920 O   0  0  0  0  0  0  0  0  0  0  0  0
   10.2687  -17.1841   22.6404 C   0  0  0  0  0  0  0  0  0  0  0  0
   10.3796  -18.3336   23.1317 O   0  0  0  0  0  0  0  0  0  0  0  0
    6.6079  -16.8962   20.3179 O   0  0  0  0  0  0  0  0  0  0  0  0
   10.0909  -16.1434   23.5872 N   0  0  0  0  0  0  0  0  0  0  0  0
   10.1179  -16.3095   25.0270 C   0  0  1  0  0  0  0  0  0  0  0  0
   11.2341  -15.6021   25.6787 C   0  0  0  0  0  0  0  0  0  0  0  0
   11.1238  -15.6912   27.1473 C   0  0  0  0  0  0  0  0  0  0  0  0
   10.0533  -15.4906   27.9846 C   0  0  0  0  0  0  0  0  0  0  0  0
   10.4667  -15.6480   29.2537 N   0  0  0  0  0  0  0  0  0  0  0  0
   11.7720  -15.9439   29.2513 C   0  0  0  0  0  0  0  0  0  0  0  0
   12.1734  -15.9707   27.9820 N   0  0  0  0  0  0  0  0  0  0  0  0
    8.8223  -15.8006   25.5198 C   0  0  0  0  0  0  0  0  0  0  0  0
    8.2253  -16.2472   26.7140 O   0  0  0  0  0  0  0  0  0  0  0  0
    8.1925  -14.9331   24.8757 O   0  0  0  0  0  0  0  0  0  0  0  0
  2  1  1  6
  2  3  1  0
  3  4  1  0
  4  8  1  0
  5  4  2  0
  6  7  2  0
  6  2  1  0
  9  6  1  0
 10  9  1  0
 10 11  1  6
 12 13  2  0
 12 11  1  0
 14 17  1  0
 14 10  1  0
 15 14  2  0
 16 12  1  0
 18 17  1  0
 18 25  1  0
 18 19  1  1
 20 19  1  0
 21 20  2  0
 22 21  1  0
 23 22  1  0
 23 24  2  0
 24 20  1  0
 25 27  2  0
 25 26  1  0
M  END
$$$$
