DDH.pdb
     RDKit          3D

 27 27  0  0  1  0  0  0  0  0999 V2000
   10.9210  -19.0521   16.2473 N   0  0  0  0  0  0  0  0  0  0  0  0
   11.0510  -17.8363   16.9891 C   0  0  1  0  0  0  0  0  0  0  0  0
   10.1099  -16.8352   16.2949 C   0  0  0  0  0  0  0  0  0  0  0  0
   10.6950  -16.5911   14.9546 C   0  0  0  0  0  0  0  0  0  0  0  0
    9.9471  -16.0603   14.1014 O   0  0  0  0  0  0  0  0  0  0  0  0
   10.7431  -17.9397   18.4192 C   0  0  0  0  0  0  0  0  0  0  0  0
    9.5675  -17.6929   18.8254 O   0  0  0  0  0  0  0  0  0  0  0  0
   11.9937  -16.9311   14.6728 O   0  0  0  0  0  0  0  0  0  0  0  0
   11.6759  -18.3023   19.4180 N   0  0  0  0  0  0  0  0  0  0  0  0
   11.2707  -18.4793   20.8254 C   0  0  1  0  0  0  0  0  0  0  0  0
   12.2746  -19.3448   21.4800 C   0  0  0  0  0  0  0  0  0  0  0  0
   11.8644  -20.0289   22.7090 C   0  0  0  0  0  0  0  0  0  0  0  0
   11.1775  -19.3599   23.5307 O   0  0  0  0  0  0  0  0  0  0  0  0
   11.0922  -17.1308   21.4208 C   0  0  0  0  0  0  0  0  0  0  0  0
   11.9742  -16.2380   21.4092 O   0  0  0  0  0  0  0  0  0  0  0  0
   12.1658  -21.3238   23.0314 O   0  0  0  0  0  0  0  0  0  0  0  0
    9.8783  -16.7642   22.0558 N   0  0  0  0  0  0  0  0  0  0  0  0
    9.6220  -15.4898   22.6974 C   0  0  1  0  0  0  0  0  0  0  0  0
    8.2948  -14.9314   22.3845 C   0  0  0  0  0  0  0  0  0  0  0  0
    8.2701  -14.3753   21.0181 C   0  0  0  0  0  0  0  0  0  0  0  0
    9.2663  -14.2402   20.0818 C   0  0  0  0  0  0  0  0  0  0  0  0
    8.7559  -13.6303   18.9984 N   0  0  0  0  0  0  0  0  0  0  0  0
    7.4608  -13.3717   19.2158 C   0  0  0  0  0  0  0  0  0  0  0  0
    7.1629  -13.8192   20.4340 N   0  0  0  0  0  0  0  0  0  0  0  0
    9.7553  -15.7304   24.1481 C   0  0  0  0  0  0  0  0  0  0  0  0
    9.8287  -14.6919   25.0958 O   0  0  0  0  0  0  0  0  0  0  0  0
    9.8105  -16.8961   24.5976 O   0  0  0  0  0  0  0  0  0  0  0  0
  2  1  1  6
  2  3  1  0
  3  4  1  0
  4  8  1  0
  5  4  2  0
  6  7  2  0
  6  2  1  0
  9  6  1  0
 10  9  1  0
 10 11  1  1
 12 13  2  0
 12 11  1  0
 14 17  1  0
 14 10  1  0
 15 14  2  0
 16 12  1  0
 18 17  1  0
 18 25  1  0
 18 19  1  1
 20 19  1  0
 21 20  2  0
 22 21  1  0
 23 22  1  0
 23 24  2  0
 24 20  1  0
 25 27  2  0
 25 26  1  0
M  END
$$$$
