DDH.pdb
     RDKit          3D

 27 27  0  0  1  0  0  0  0  0999 V2000
   11.6507  -16.5365   16.1489 N   0  0  0  0  0  0  0  0  0  0  0  0
   10.3837  -16.5034   16.8114 C   0  0  1  0  0  0  0  0  0  0  0  0
    9.5204  -17.5528   16.0880 C   0  0  0  0  0  0  0  0  0  0  0  0
    9.1541  -16.9480   14.7849 C   0  0  0  0  0  0  0  0  0  0  0  0
    8.8493  -17.7387   13.8624 O   0  0  0  0  0  0  0  0  0  0  0  0
   10.4248  -16.7632   18.2542 C   0  0  0  0  0  0  0  0  0  0  0  0
    9.3397  -16.8870   18.8985 O   0  0  0  0  0  0  0  0  0  0  0  0
    9.1497  -15.5876   14.6083 O   0  0  0  0  0  0  0  0  0  0  0  0
   11.6101  -16.8911   19.0143 N   0  0  0  0  0  0  0  0  0  0  0  0
   11.5724  -17.1620   20.4639 C   0  0  1  0  0  0  0  0  0  0  0  0
   12.8635  -17.7737   20.8439 C   0  0  0  0  0  0  0  0  0  0  0  0
   13.3194  -18.9161   20.0480 C   0  0  0  0  0  0  0  0  0  0  0  0
   12.5450  -19.9117   19.9856 O   0  0  0  0  0  0  0  0  0  0  0  0
   11.2289  -15.8936   21.1554 C   0  0  0  0  0  0  0  0  0  0  0  0
   11.3663  -14.7568   20.6417 O   0  0  0  0  0  0  0  0  0  0  0  0
   14.5079  -18.9863   19.3742 O   0  0  0  0  0  0  0  0  0  0  0  0
   10.7106  -15.8949   22.4754 N   0  0  0  0  0  0  0  0  0  0  0  0
    9.5380  -15.1640   22.9140 C   0  0  1  0  0  0  0  0  0  0  0  0
    8.3320  -15.4585   22.1204 C   0  0  0  0  0  0  0  0  0  0  0  0
    8.2030  -14.5137   20.9945 C   0  0  0  0  0  0  0  0  0  0  0  0
    8.9275  -13.3920   20.6716 C   0  0  0  0  0  0  0  0  0  0  0  0
    8.3940  -12.8405   19.5681 N   0  0  0  0  0  0  0  0  0  0  0  0
    7.3485  -13.5785   19.1763 C   0  0  0  0  0  0  0  0  0  0  0  0
    7.2288  -14.5895   20.0345 N   0  0  0  0  0  0  0  0  0  0  0  0
    9.3324  -15.5353   24.3283 C   0  0  0  0  0  0  0  0  0  0  0  0
    9.8392  -16.7212   24.8929 O   0  0  0  0  0  0  0  0  0  0  0  0
    8.6825  -14.7902   25.0940 O   0  0  0  0  0  0  0  0  0  0  0  0
  2  1  1  6
  2  3  1  0
  3  4  1  0
  4  8  1  0
  5  4  2  0
  6  7  2  0
  6  2  1  0
  9  6  1  0
 10  9  1  0
 10 11  1  1
 12 13  2  0
 12 11  1  0
 14 17  1  0
 14 10  1  0
 15 14  2  0
 16 12  1  0
 18 17  1  0
 18 25  1  0
 18 19  1  6
 20 19  1  0
 21 20  2  0
 22 21  1  0
 23 22  1  0
 23 24  2  0
 24 20  1  0
 25 27  2  0
 25 26  1  0
M  END
$$$$
