MPM.pdb
     RDKit          3D

 24 24  0  0  1  0  0  0  0  0999 V2000
    7.4367  -11.7675   18.8838 C   0  0  0  0  0  0  0  0  0  0  0  0
    7.6706  -12.3607   20.5717 S   0  0  0  0  0  0  0  0  0  0  0  0
    8.4172  -14.0377   20.5846 C   0  0  0  0  0  0  0  0  0  0  0  0
    7.5677  -14.9203   19.7411 C   0  0  0  0  0  0  0  0  0  0  0  0
    7.9896  -16.3646   19.6836 C   0  0  2  0  0  0  0  0  0  0  0  0
    6.9739  -17.0788   18.9784 N   0  0  0  0  0  0  0  0  0  0  0  0
    8.4043  -16.9369   20.9674 C   0  0  0  0  0  0  0  0  0  0  0  0
    7.4789  -17.4680   21.6851 O   0  0  0  0  0  0  0  0  0  0  0  0
    9.7098  -16.9709   21.5066 N   0  0  0  0  0  0  0  0  0  0  0  0
   10.9824  -16.4951   21.0111 C   0  0  0  0  0  0  0  0  0  0  0  0
   11.8895  -17.6912   21.3088 C   0  0  0  0  0  0  0  0  0  0  0  0
   11.4545  -18.0699   22.7071 C   0  0  0  0  0  0  0  0  0  0  0  0
   10.0391  -17.5498   22.8001 C   0  0  1  0  0  0  0  0  0  0  0  0
    9.9730  -16.5549   23.8874 C   0  0  0  0  0  0  0  0  0  0  0  0
   10.4008  -15.3949   23.6171 O   0  0  0  0  0  0  0  0  0  0  0  0
    6.7635  -11.5377   27.0538 C   0  0  0  0  0  0  0  0  0  0  0  0
    7.7197  -12.6978   26.0609 S   0  0  0  0  0  0  0  0  0  0  0  0
    6.7751  -14.2597   25.8699 C   0  0  0  0  0  0  0  0  0  0  0  0
    7.5835  -15.2692   25.1082 C   0  0  0  0  0  0  0  0  0  0  0  0
    8.7502  -15.7391   25.9233 C   0  0  2  0  0  0  0  0  0  0  0  0
    9.4782  -16.7929   25.1830 N   0  0  0  0  0  0  0  0  0  0  0  0
    8.3170  -16.2571   27.2290 C   0  0  0  0  0  0  0  0  0  0  0  0
    8.8061  -15.6323   28.4000 O   0  0  0  0  0  0  0  0  0  0  0  0
    7.5464  -17.2105   27.4456 O   0  0  0  0  0  0  0  0  0  0  0  0
  1  2  1  0
  3  4  1  0
  3  2  1  0
  5  4  1  0
  5  6  1  1
  7  5  1  0
  8  7  2  0
  9 10  1  0
  9  7  1  0
 11 10  1  0
 12 13  1  0
 12 11  1  0
 13  9  1  0
 14 21  1  0
 13 14  1  1
 15 14  2  0
 17 16  1  0
 18 17  1  0
 19 18  1  0
 20 19  1  6
 20 21  1  0
 22 20  1  0
 22 23  1  0
 24 22  2  0
M  END
$$$$
