MPM.pdb
     RDKit          3D

 24 24  0  0  1  0  0  0  0  0999 V2000
    5.6108  -12.3393   26.2970 C   0  0  0  0  0  0  0  0  0  0  0  0
    7.2335  -13.0065   26.7177 S   0  0  0  0  0  0  0  0  0  0  0  0
    7.3083  -14.8124   26.3971 C   0  0  0  0  0  0  0  0  0  0  0  0
    6.1634  -15.1657   25.5157 C   0  0  0  0  0  0  0  0  0  0  0  0
    6.2603  -16.5034   24.8313 C   0  0  2  0  0  0  0  0  0  0  0  0
    6.1237  -17.5085   25.8363 N   0  0  0  0  0  0  0  0  0  0  0  0
    7.4031  -16.6509   23.9259 C   0  0  0  0  0  0  0  0  0  0  0  0
    7.9719  -17.8039   23.9022 O   0  0  0  0  0  0  0  0  0  0  0  0
    7.9517  -15.6662   23.0739 N   0  0  0  0  0  0  0  0  0  0  0  0
    7.6445  -14.2670   22.8758 C   0  0  0  0  0  0  0  0  0  0  0  0
    7.6302  -14.1736   21.3483 C   0  0  0  0  0  0  0  0  0  0  0  0
    8.8570  -14.9765   20.9769 C   0  0  0  0  0  0  0  0  0  0  0  0
    9.0462  -15.9126   22.1476 C   0  0  1  0  0  0  0  0  0  0  0  0
   10.3621  -15.6440   22.7579 C   0  0  0  0  0  0  0  0  0  0  0  0
   10.7609  -14.4432   22.7327 O   0  0  0  0  0  0  0  0  0  0  0  0
    9.4143  -13.7712   27.9476 C   0  0  0  0  0  0  0  0  0  0  0  0
   11.1243  -14.2394   27.6273 S   0  0  0  0  0  0  0  0  0  0  0  0
   11.1842  -15.9879   27.0733 C   0  0  0  0  0  0  0  0  0  0  0  0
   10.6511  -16.1116   25.6757 C   0  0  0  0  0  0  0  0  0  0  0  0
   11.7609  -16.3867   24.7067 C   0  0  2  0  0  0  0  0  0  0  0  0
   11.1960  -16.6062   23.3572 N   0  0  0  0  0  0  0  0  0  0  0  0
   12.5481  -17.5596   25.1133 C   0  0  0  0  0  0  0  0  0  0  0  0
   13.6670  -17.3635   25.9563 O   0  0  0  0  0  0  0  0  0  0  0  0
   12.3501  -18.7480   24.7998 O   0  0  0  0  0  0  0  0  0  0  0  0
  1  2  1  0
  3  4  1  0
  3  2  1  0
  5  4  1  0
  5  6  1  1
  7  5  1  0
  8  7  2  0
  9 10  1  0
  9  7  1  0
 11 10  1  0
 12 13  1  0
 12 11  1  0
 13  9  1  0
 14 21  1  0
 13 14  1  1
 15 14  2  0
 17 16  1  0
 18 17  1  0
 19 18  1  0
 20 19  1  1
 20 21  1  0
 22 20  1  0
 22 23  1  0
 24 22  2  0
M  END
$$$$
