MPM.pdb
     RDKit          3D

 24 24  0  0  1  0  0  0  0  0999 V2000
    5.0984  -15.8831   19.0714 C   0  0  0  0  0  0  0  0  0  0  0  0
    5.8548  -14.3246   19.5758 S   0  0  0  0  0  0  0  0  0  0  0  0
    7.4930  -14.6073   20.3542 C   0  0  0  0  0  0  0  0  0  0  0  0
    7.9414  -13.3207   20.9507 C   0  0  0  0  0  0  0  0  0  0  0  0
    9.1625  -13.4030   21.8279 C   0  0  2  0  0  0  0  0  0  0  0  0
   10.2406  -13.8708   21.0169 N   0  0  0  0  0  0  0  0  0  0  0  0
    8.9622  -14.1053   23.0984 C   0  0  0  0  0  0  0  0  0  0  0  0
    9.8677  -14.9542   23.4343 O   0  0  0  0  0  0  0  0  0  0  0  0
    7.8833  -13.9542   23.9981 N   0  0  0  0  0  0  0  0  0  0  0  0
    6.6272  -13.2436   23.9042 C   0  0  0  0  0  0  0  0  0  0  0  0
    6.5744  -12.5412   25.2629 C   0  0  0  0  0  0  0  0  0  0  0  0
    7.0166  -13.6436   26.1993 C   0  0  0  0  0  0  0  0  0  0  0  0
    7.8390  -14.5575   25.3213 C   0  0  1  0  0  0  0  0  0  0  0  0
    7.2057  -15.8898   25.3038 C   0  0  0  0  0  0  0  0  0  0  0  0
    6.2821  -16.0640   24.4562 O   0  0  0  0  0  0  0  0  0  0  0  0
   10.4878  -13.4651   28.9387 C   0  0  0  0  0  0  0  0  0  0  0  0
   10.8810  -15.0846   29.6233 S   0  0  0  0  0  0  0  0  0  0  0  0
   10.5242  -16.3786   28.3718 C   0  0  0  0  0  0  0  0  0  0  0  0
    9.1779  -16.1468   27.7500 C   0  0  0  0  0  0  0  0  0  0  0  0
    8.9256  -17.1309   26.6482 C   0  0  2  0  0  0  0  0  0  0  0  0
    7.5444  -16.9661   26.1446 N   0  0  0  0  0  0  0  0  0  0  0  0
    9.1258  -18.5126   27.1082 C   0  0  0  0  0  0  0  0  0  0  0  0
    8.5230  -18.9145   28.3231 O   0  0  0  0  0  0  0  0  0  0  0  0
    9.7821  -19.4085   26.5458 O   0  0  0  0  0  0  0  0  0  0  0  0
  1  2  1  0
  3  4  1  0
  3  2  1  0
  5  4  1  0
  5  6  1  6
  7  5  1  0
  8  7  2  0
  9 10  1  0
  9  7  1  0
 11 10  1  0
 12 13  1  0
 12 11  1  0
 13  9  1  0
 14 21  1  0
 13 14  1  6
 15 14  2  0
 17 16  1  0
 18 17  1  0
 19 18  1  0
 20 19  1  1
 20 21  1  0
 22 20  1  0
 22 23  1  0
 24 22  2  0
M  END
$$$$
