MPM.pdb
     RDKit          3D

 24 24  0  0  1  0  0  0  0  0999 V2000
    7.1413  -11.6255   26.8048 C   0  0  0  0  0  0  0  0  0  0  0  0
    6.5588  -13.3028   27.1259 S   0  0  0  0  0  0  0  0  0  0  0  0
    6.8953  -14.4036   25.6960 C   0  0  0  0  0  0  0  0  0  0  0  0
    6.0811  -15.6362   25.8693 C   0  0  0  0  0  0  0  0  0  0  0  0
    6.0879  -16.5877   24.7024 C   0  0  2  0  0  0  0  0  0  0  0  0
    5.5607  -17.8324   25.1627 N   0  0  0  0  0  0  0  0  0  0  0  0
    7.3564  -16.6577   23.9719 C   0  0  0  0  0  0  0  0  0  0  0  0
    8.0727  -17.7081   24.1644 O   0  0  0  0  0  0  0  0  0  0  0  0
    7.8822  -15.6985   23.0776 N   0  0  0  0  0  0  0  0  0  0  0  0
    7.4374  -14.3775   22.6920 C   0  0  0  0  0  0  0  0  0  0  0  0
    7.5942  -14.4373   21.1708 C   0  0  0  0  0  0  0  0  0  0  0  0
    8.9429  -15.1060   21.0241 C   0  0  0  0  0  0  0  0  0  0  0  0
    9.1007  -15.8899   22.3060 C   0  0  1  0  0  0  0  0  0  0  0  0
   10.2934  -15.3935   23.0182 C   0  0  0  0  0  0  0  0  0  0  0  0
   10.3312  -14.1512   23.2570 O   0  0  0  0  0  0  0  0  0  0  0  0
   10.5622  -14.2996   28.9176 C   0  0  0  0  0  0  0  0  0  0  0  0
    9.5801  -14.1033   27.4199 S   0  0  0  0  0  0  0  0  0  0  0  0
   10.6629  -14.2980   25.9510 C   0  0  0  0  0  0  0  0  0  0  0  0
   11.1151  -15.7232   25.8207 C   0  0  0  0  0  0  0  0  0  0  0  0
   12.0981  -15.8678   24.6987 C   0  0  2  0  0  0  0  0  0  0  0  0
   11.3764  -16.1833   23.4465 N   0  0  0  0  0  0  0  0  0  0  0  0
   13.0843  -16.9201   24.9832 C   0  0  0  0  0  0  0  0  0  0  0  0
   14.4059  -16.5369   25.3111 O   0  0  0  0  0  0  0  0  0  0  0  0
   12.8999  -18.1511   24.9725 O   0  0  0  0  0  0  0  0  0  0  0  0
  1  2  1  0
  3  4  1  0
  3  2  1  0
  5  4  1  0
  5  6  1  1
  7  5  1  0
  8  7  2  0
  9 10  1  0
  9  7  1  0
 11 10  1  0
 12 13  1  0
 12 11  1  0
 13  9  1  0
 14 21  1  0
 13 14  1  1
 15 14  2  0
 17 16  1  0
 18 17  1  0
 19 18  1  0
 20 19  1  1
 20 21  1  0
 22 20  1  0
 22 23  1  0
 24 22  2  0
M  END
$$$$
