MPM.pdb
     RDKit          3D

 24 24  0  0  1  0  0  0  0  0999 V2000
    6.9622  -11.4608   26.6849 C   0  0  0  0  0  0  0  0  0  0  0  0
    5.7847  -12.7295   26.1756 S   0  0  0  0  0  0  0  0  0  0  0  0
    6.6164  -14.3506   25.9521 C   0  0  0  0  0  0  0  0  0  0  0  0
    5.6272  -15.2920   25.3625 C   0  0  0  0  0  0  0  0  0  0  0  0
    6.1479  -16.6705   25.0531 C   0  0  2  0  0  0  0  0  0  0  0  0
    6.1978  -17.3945   26.2828 N   0  0  0  0  0  0  0  0  0  0  0  0
    7.3666  -16.7005   24.2396 C   0  0  0  0  0  0  0  0  0  0  0  0
    8.0779  -17.7694   24.3102 O   0  0  0  0  0  0  0  0  0  0  0  0
    7.8491  -15.6845   23.3844 N   0  0  0  0  0  0  0  0  0  0  0  0
    7.4486  -14.3100   23.1800 C   0  0  0  0  0  0  0  0  0  0  0  0
    7.4308  -14.2240   21.6521 C   0  0  0  0  0  0  0  0  0  0  0  0
    8.7097  -14.9438   21.2860 C   0  0  0  0  0  0  0  0  0  0  0  0
    8.9594  -15.8602   22.4609 C   0  0  1  0  0  0  0  0  0  0  0  0
   10.2531  -15.5011   23.0722 C   0  0  0  0  0  0  0  0  0  0  0  0
   10.4929  -14.2649   23.1991 O   0  0  0  0  0  0  0  0  0  0  0  0
    9.7146  -15.0173   28.6648 C   0  0  0  0  0  0  0  0  0  0  0  0
   11.3219  -14.3303   28.2280 S   0  0  0  0  0  0  0  0  0  0  0  0
   12.1598  -15.4483   27.0380 C   0  0  0  0  0  0  0  0  0  0  0  0
   11.2903  -15.6782   25.8363 C   0  0  0  0  0  0  0  0  0  0  0  0
   12.1166  -16.0807   24.6525 C   0  0  2  0  0  0  0  0  0  0  0  0
   11.2267  -16.4136   23.5185 N   0  0  0  0  0  0  0  0  0  0  0  0
   12.9755  -17.2318   24.9655 C   0  0  0  0  0  0  0  0  0  0  0  0
   12.9354  -17.7690   26.2735 O   0  0  0  0  0  0  0  0  0  0  0  0
   13.7633  -17.8170   24.1997 O   0  0  0  0  0  0  0  0  0  0  0  0
  1  2  1  0
  3  4  1  0
  3  2  1  0
  5  4  1  0
  5  6  1  1
  7  5  1  0
  8  7  2  0
  9 10  1  0
  9  7  1  0
 11 10  1  0
 12 13  1  0
 12 11  1  0
 13  9  1  0
 14 21  1  0
 13 14  1  1
 15 14  2  0
 17 16  1  0
 18 17  1  0
 19 18  1  0
 20 19  1  1
 20 21  1  0
 22 20  1  0
 22 23  1  0
 24 22  2  0
M  END
$$$$
