MPM.pdb
     RDKit          3D

 24 24  0  0  1  0  0  0  0  0999 V2000
    8.9364  -19.6246   22.8775 C   0  0  0  0  0  0  0  0  0  0  0  0
    9.2025  -20.7023   21.4551 S   0  0  0  0  0  0  0  0  0  0  0  0
   10.1368  -19.8343   20.1348 C   0  0  0  0  0  0  0  0  0  0  0  0
    9.2535  -18.7785   19.5714 C   0  0  0  0  0  0  0  0  0  0  0  0
    9.9308  -17.4756   19.2385 C   0  0  2  0  0  0  0  0  0  0  0  0
   11.2573  -17.7813   18.8074 N   0  0  0  0  0  0  0  0  0  0  0  0
    9.8122  -16.4390   20.2676 C   0  0  0  0  0  0  0  0  0  0  0  0
   10.8998  -16.0880   20.8572 O   0  0  0  0  0  0  0  0  0  0  0  0
    8.6344  -15.7801   20.6859 N   0  0  0  0  0  0  0  0  0  0  0  0
    7.2465  -15.9299   20.3082 C   0  0  0  0  0  0  0  0  0  0  0  0
    6.8226  -14.4704   20.1281 C   0  0  0  0  0  0  0  0  0  0  0  0
    7.4506  -13.8136   21.3373 C   0  0  0  0  0  0  0  0  0  0  0  0
    8.6069  -14.7220   21.6841 C   0  0  1  0  0  0  0  0  0  0  0  0
    8.4005  -15.2484   23.0467 C   0  0  0  0  0  0  0  0  0  0  0  0
    8.0076  -16.4482   23.1341 O   0  0  0  0  0  0  0  0  0  0  0  0
    5.5252  -11.1116   26.8371 C   0  0  0  0  0  0  0  0  0  0  0  0
    6.3340  -12.6529   27.3021 S   0  0  0  0  0  0  0  0  0  0  0  0
    7.7949  -12.9240   26.2250 C   0  0  0  0  0  0  0  0  0  0  0  0
    8.5290  -14.1646   26.6430 C   0  0  0  0  0  0  0  0  0  0  0  0
    8.4916  -15.1953   25.5556 C   0  0  2  0  0  0  0  0  0  0  0  0
    8.6040  -14.5297   24.2392 N   0  0  0  0  0  0  0  0  0  0  0  0
    7.2532  -15.9855   25.6094 C   0  0  0  0  0  0  0  0  0  0  0  0
    6.2476  -15.7323   24.6474 O   0  0  0  0  0  0  0  0  0  0  0  0
    6.9641  -16.8824   26.4228 O   0  0  0  0  0  0  0  0  0  0  0  0
  1  2  1  0
  3  4  1  0
  3  2  1  0
  5  4  1  0
  5  6  1  1
  7  5  1  0
  8  7  2  0
  9 10  1  0
  9  7  1  0
 11 10  1  0
 12 13  1  0
 12 11  1  0
 13  9  1  0
 14 21  1  0
 13 14  1  1
 15 14  2  0
 17 16  1  0
 18 17  1  0
 19 18  1  0
 20 19  1  1
 20 21  1  0
 22 20  1  0
 22 23  1  0
 24 22  2  0
M  END
$$$$
