MPM.pdb
     RDKit          3D

 24 24  0  0  1  0  0  0  0  0999 V2000
    7.2569  -12.5766   27.6256 C   0  0  0  0  0  0  0  0  0  0  0  0
    6.1792  -13.4382   26.4630 S   0  0  0  0  0  0  0  0  0  0  0  0
    6.8606  -15.0864   26.0282 C   0  0  0  0  0  0  0  0  0  0  0  0
    6.0918  -15.6040   24.8649 C   0  0  0  0  0  0  0  0  0  0  0  0
    6.4599  -16.9911   24.4094 C   0  0  2  0  0  0  0  0  0  0  0  0
    6.1174  -17.8920   25.4630 N   0  0  0  0  0  0  0  0  0  0  0  0
    7.8150  -17.1221   23.8668 C   0  0  0  0  0  0  0  0  0  0  0  0
    8.3359  -18.2973   23.9002 O   0  0  0  0  0  0  0  0  0  0  0  0
    8.6155  -16.0997   23.3097 N   0  0  0  0  0  0  0  0  0  0  0  0
    8.4176  -14.6742   23.1677 C   0  0  0  0  0  0  0  0  0  0  0  0
    8.8543  -14.4509   21.7181 C   0  0  0  0  0  0  0  0  0  0  0  0
   10.1142  -15.2844   21.6418 C   0  0  0  0  0  0  0  0  0  0  0  0
    9.9265  -16.3253   22.7207 C   0  0  1  0  0  0  0  0  0  0  0  0
   11.0123  -16.1809   23.7088 C   0  0  0  0  0  0  0  0  0  0  0  0
   11.7290  -15.1424   23.6114 O   0  0  0  0  0  0  0  0  0  0  0  0
   10.6459  -12.2787   26.9155 C   0  0  0  0  0  0  0  0  0  0  0  0
   10.6867  -13.4114   28.3159 S   0  0  0  0  0  0  0  0  0  0  0  0
   11.5524  -14.9541   27.8273 C   0  0  0  0  0  0  0  0  0  0  0  0
   11.0822  -15.4118   26.4774 C   0  0  0  0  0  0  0  0  0  0  0  0
   11.8354  -16.6308   26.0382 C   0  0  2  0  0  0  0  0  0  0  0  0
   11.3081  -17.0955   24.7365 N   0  0  0  0  0  0  0  0  0  0  0  0
   11.7323  -17.7102   27.0307 C   0  0  0  0  0  0  0  0  0  0  0  0
   10.7687  -18.7257   26.8273 O   0  0  0  0  0  0  0  0  0  0  0  0
   12.4088  -17.8517   28.0661 O   0  0  0  0  0  0  0  0  0  0  0  0
  1  2  1  0
  3  4  1  0
  3  2  1  0
  5  4  1  0
  5  6  1  1
  7  5  1  0
  8  7  2  0
  9 10  1  0
  9  7  1  0
 11 10  1  0
 12 13  1  0
 12 11  1  0
 13  9  1  0
 14 21  1  0
 13 14  1  1
 15 14  2  0
 17 16  1  0
 18 17  1  0
 19 18  1  0
 20 19  1  1
 20 21  1  0
 22 20  1  0
 22 23  1  0
 24 22  2  0
M  END
$$$$
