MPM.pdb
     RDKit          3D

 24 24  0  0  1  0  0  0  0  0999 V2000
    5.6414  -12.8096   26.3417 C   0  0  0  0  0  0  0  0  0  0  0  0
    7.1199  -13.7679   26.7302 S   0  0  0  0  0  0  0  0  0  0  0  0
    6.8641  -15.5503   26.3733 C   0  0  0  0  0  0  0  0  0  0  0  0
    5.8922  -15.6549   25.2523 C   0  0  0  0  0  0  0  0  0  0  0  0
    6.1002  -16.8187   24.3199 C   0  0  2  0  0  0  0  0  0  0  0  0
    5.8748  -18.0128   25.0698 N   0  0  0  0  0  0  0  0  0  0  0  0
    7.3423  -16.7720   23.5437 C   0  0  0  0  0  0  0  0  0  0  0  0
    7.8892  -17.9023   23.2666 O   0  0  0  0  0  0  0  0  0  0  0  0
    8.0084  -15.6218   23.0644 N   0  0  0  0  0  0  0  0  0  0  0  0
    7.7789  -14.2079   23.2635 C   0  0  0  0  0  0  0  0  0  0  0  0
    7.9117  -13.6755   21.8348 C   0  0  0  0  0  0  0  0  0  0  0  0
    9.1339  -14.4166   21.3400 C   0  0  0  0  0  0  0  0  0  0  0  0
    9.1739  -15.6619   22.1945 C   0  0  1  0  0  0  0  0  0  0  0  0
   10.4367  -15.6700   22.9570 C   0  0  0  0  0  0  0  0  0  0  0  0
   11.1669  -14.6420   22.8494 O   0  0  0  0  0  0  0  0  0  0  0  0
   10.7863  -12.3788   27.7067 C   0  0  0  0  0  0  0  0  0  0  0  0
   10.3668  -14.0621   28.1929 S   0  0  0  0  0  0  0  0  0  0  0  0
   11.3735  -15.2471   27.2180 C   0  0  0  0  0  0  0  0  0  0  0  0
   10.7198  -15.5234   25.8955 C   0  0  0  0  0  0  0  0  0  0  0  0
   11.5700  -16.4349   25.0633 C   0  0  2  0  0  0  0  0  0  0  0  0
   10.8853  -16.7174   23.7827 N   0  0  0  0  0  0  0  0  0  0  0  0
   11.8506  -17.6951   25.7660 C   0  0  0  0  0  0  0  0  0  0  0  0
   11.2022  -18.8729   25.3265 O   0  0  0  0  0  0  0  0  0  0  0  0
   12.6137  -17.8663   26.7346 O   0  0  0  0  0  0  0  0  0  0  0  0
  1  2  1  0
  3  4  1  0
  3  2  1  0
  5  4  1  0
  5  6  1  1
  7  5  1  0
  8  7  2  0
  9 10  1  0
  9  7  1  0
 11 10  1  0
 12 13  1  0
 12 11  1  0
 13  9  1  0
 14 21  1  0
 13 14  1  1
 15 14  2  0
 17 16  1  0
 18 17  1  0
 19 18  1  0
 20 19  1  1
 20 21  1  0
 22 20  1  0
 22 23  1  0
 24 22  2  0
M  END
$$$$
