YTH.pdb
     RDKit          3D

 30 31  0  0  1  0  0  0  0  0999 V2000
   18.3757  -16.1551  -19.5357 O   0  0  0  0  0  0  0  0  0  0  0  0
   19.0342  -15.0183  -19.0549 C   0  0  0  0  0  0  0  0  0  0  0  0
   19.5461  -14.9887  -17.7767 C   0  0  0  0  0  0  0  0  0  0  0  0
   20.1986  -13.8649  -17.2977 C   0  0  0  0  0  0  0  0  0  0  0  0
   20.3492  -12.7530  -18.0899 C   0  0  0  0  0  0  0  0  0  0  0  0
   21.0445  -11.5755  -17.5581 C   0  0  0  0  0  0  0  0  0  0  0  0
   22.3745  -11.3138  -18.2415 C   0  0  2  0  0  0  0  0  0  0  0  0
   23.2711  -12.3928  -17.8358 N   0  0  0  0  0  0  0  0  0  0  0  0
   22.9027  -10.0406  -17.6717 C   0  0  0  0  0  0  0  0  0  0  0  0
   23.5143  -10.1239  -16.5813 O   0  0  0  0  0  0  0  0  0  0  0  0
   19.8382  -12.7831  -19.3652 C   0  0  0  0  0  0  0  0  0  0  0  0
   19.1817  -13.8995  -19.8622 C   0  0  0  0  0  0  0  0  0  0  0  0
   25.0518   -7.3852  -19.4694 C   0  0  0  0  0  0  0  0  0  0  0  0
   23.8684   -6.6680  -18.8372 C   0  0  1  0  0  0  0  0  0  0  0  0
   22.9084   -6.5287  -19.8307 O   0  0  0  0  0  0  0  0  0  0  0  0
   23.3194   -7.5513  -17.7712 C   0  0  2  0  0  0  0  0  0  0  0  0
   22.7607   -8.7845  -18.2665 N   0  0  0  0  0  0  0  0  0  0  0  0
   22.2212   -6.8413  -17.0680 C   0  0  0  0  0  0  0  0  0  0  0  0
   21.0109   -6.9252  -17.4864 O   0  0  0  0  0  0  0  0  0  0  0  0
   22.3777   -6.0363  -15.9170 N   0  0  0  0  0  0  0  0  0  0  0  0
   21.2325   -5.3058  -15.3449 C   0  0  1  0  0  0  0  0  0  0  0  0
   21.0882   -5.5912  -13.8910 C   0  0  0  0  0  0  0  0  0  0  0  0
   20.5748   -6.9422  -13.6295 C   0  0  0  0  0  0  0  0  0  0  0  0
   20.1910   -7.8709  -14.5648 C   0  0  0  0  0  0  0  0  0  0  0  0
   19.7561   -8.9785  -13.9233 N   0  0  0  0  0  0  0  0  0  0  0  0
   19.8608   -8.7591  -12.6068 C   0  0  0  0  0  0  0  0  0  0  0  0
   20.3570   -7.5246  -12.4305 N   0  0  0  0  0  0  0  0  0  0  0  0
   21.4680   -3.8772  -15.5830 C   0  0  0  0  0  0  0  0  0  0  0  0
   22.5523   -3.4974  -16.0800 O   0  0  0  0  0  0  0  0  0  0  0  0
   20.5322   -2.9067  -15.2821 O   0  0  0  0  0  0  0  0  0  0  0  0
  2  3  2  0
  2  1  1  0
  4  3  1  0
  5  4  2  0
  6  5  1  0
  7  9  1  0
  7  6  1  0
  7  8  1  1
  9 10  2  0
 11  5  1  0
 11 12  2  0
 12  2  1  0
 14 13  1  6
 15 14  1  0
 16 14  1  0
 16 17  1  6
 17  9  1  0
 18 16  1  0
 19 18  2  0
 20 18  1  0
 21 20  1  0
 21 22  1  1
 23 22  1  0
 24 23  2  0
 25 26  1  0
 25 24  1  0
 26 27  2  0
 27 23  1  0
 28 30  1  0
 28 21  1  0
 29 28  2  0
M  END
$$$$
