YTH.pdb
     RDKit          3D

 30 31  0  0  1  0  0  0  0  0999 V2000
   18.2003  -19.2907  -18.0652 O   0  0  0  0  0  0  0  0  0  0  0  0
   18.7999  -18.0292  -18.1449 C   0  0  0  0  0  0  0  0  0  0  0  0
   20.1615  -17.9057  -18.3104 C   0  0  0  0  0  0  0  0  0  0  0  0
   20.7582  -16.6585  -18.3896 C   0  0  0  0  0  0  0  0  0  0  0  0
   20.0020  -15.5150  -18.3046 C   0  0  0  0  0  0  0  0  0  0  0  0
   20.6591  -14.2059  -18.3915 C   0  0  0  0  0  0  0  0  0  0  0  0
   20.3358  -13.4648  -19.6762 C   0  0  2  0  0  0  0  0  0  0  0  0
   21.0273  -14.1719  -20.7507 N   0  0  0  0  0  0  0  0  0  0  0  0
   20.9473  -12.1101  -19.5516 C   0  0  0  0  0  0  0  0  0  0  0  0
   22.1077  -11.9735  -20.0039 O   0  0  0  0  0  0  0  0  0  0  0  0
   18.6434  -15.6387  -18.1394 C   0  0  0  0  0  0  0  0  0  0  0  0
   18.0281  -16.8794  -18.0580 C   0  0  0  0  0  0  0  0  0  0  0  0
   19.9049   -9.0337  -21.1520 C   0  0  0  0  0  0  0  0  0  0  0  0
   19.9173   -8.6846  -19.6714 C   0  0  1  0  0  0  0  0  0  0  0  0
   18.6242   -8.8790  -19.2042 O   0  0  0  0  0  0  0  0  0  0  0  0
   20.8174   -9.6520  -18.9846 C   0  0  2  0  0  0  0  0  0  0  0  0
   20.3189  -11.0047  -18.9729 N   0  0  0  0  0  0  0  0  0  0  0  0
   20.9757   -9.2469  -17.5649 C   0  0  0  0  0  0  0  0  0  0  0  0
   20.2507   -9.7738  -16.6466 O   0  0  0  0  0  0  0  0  0  0  0  0
   21.8968   -8.2858  -17.0903 N   0  0  0  0  0  0  0  0  0  0  0  0
   22.0100   -7.9951  -15.6498 C   0  0  1  0  0  0  0  0  0  0  0  0
   23.4338   -7.8299  -15.2476 C   0  0  0  0  0  0  0  0  0  0  0  0
   24.2021   -9.0759  -15.3677 C   0  0  0  0  0  0  0  0  0  0  0  0
   23.7379  -10.2880  -15.8144 C   0  0  0  0  0  0  0  0  0  0  0  0
   24.7447  -11.1880  -15.7524 N   0  0  0  0  0  0  0  0  0  0  0  0
   25.8275  -10.5613  -15.2756 C   0  0  0  0  0  0  0  0  0  0  0  0
   25.4970   -9.2815  -15.0430 N   0  0  0  0  0  0  0  0  0  0  0  0
   21.2423   -6.7712  -15.3938 C   0  0  0  0  0  0  0  0  0  0  0  0
   20.7825   -6.1105  -16.3524 O   0  0  0  0  0  0  0  0  0  0  0  0
   20.9928   -6.3001  -14.1195 O   0  0  0  0  0  0  0  0  0  0  0  0
  2  3  2  0
  2  1  1  0
  4  3  1  0
  5  4  2  0
  6  5  1  0
  7  9  1  0
  7  6  1  0
  7  8  1  6
  9 10  2  0
 11  5  1  0
 11 12  2  0
 12  2  1  0
 14 13  1  6
 15 14  1  0
 16 14  1  0
 16 17  1  1
 17  9  1  0
 18 16  1  0
 19 18  2  0
 20 18  1  0
 21 20  1  0
 21 22  1  6
 23 22  1  0
 24 23  2  0
 25 26  1  0
 25 24  1  0
 26 27  2  0
 27 23  1  0
 28 30  1  0
 28 21  1  0
 29 28  2  0
M  END
$$$$
