YTH.pdb
     RDKit          3D

 30 31  0  0  1  0  0  0  0  0999 V2000
   29.4008  -20.8508   -3.4004 O   0  0  0  0  0  0  0  0  0  0  0  0
   28.8085  -20.6158   -4.6458 C   0  0  0  0  0  0  0  0  0  0  0  0
   29.4299  -19.8199   -5.5823 C   0  0  0  0  0  0  0  0  0  0  0  0
   28.8464  -19.5853   -6.8161 C   0  0  0  0  0  0  0  0  0  0  0  0
   27.6318  -20.1433   -7.1326 C   0  0  0  0  0  0  0  0  0  0  0  0
   27.0353  -19.8788   -8.4468 C   0  0  0  0  0  0  0  0  0  0  0  0
   27.0654  -21.0871   -9.3652 C   0  0  2  0  0  0  0  0  0  0  0  0
   28.4716  -21.3587   -9.6509 N   0  0  0  0  0  0  0  0  0  0  0  0
   26.4114  -20.6699  -10.6392 C   0  0  0  0  0  0  0  0  0  0  0  0
   27.1663  -20.2533  -11.5483 O   0  0  0  0  0  0  0  0  0  0  0  0
   27.0121  -20.9374   -6.1977 C   0  0  0  0  0  0  0  0  0  0  0  0
   27.5813  -21.1836   -4.9568 C   0  0  0  0  0  0  0  0  0  0  0  0
   26.2847  -21.5066  -13.3151 C   0  0  0  0  0  0  0  0  0  0  0  0
   24.7691  -21.5175  -13.1831 C   0  0  1  0  0  0  0  0  0  0  0  0
   24.4180  -22.7761  -12.7131 O   0  0  0  0  0  0  0  0  0  0  0  0
   24.3961  -20.5085  -12.1533 C   0  0  2  0  0  0  0  0  0  0  0  0
   25.0356  -20.7137  -10.8777 N   0  0  0  0  0  0  0  0  0  0  0  0
   22.9331  -20.5790  -11.9096 C   0  0  0  0  0  0  0  0  0  0  0  0
   22.4540  -20.4028  -10.7322 O   0  0  0  0  0  0  0  0  0  0  0  0
   21.9545  -20.8334  -12.8970 N   0  0  0  0  0  0  0  0  0  0  0  0
   20.8039  -19.9288  -13.0706 C   0  0  1  0  0  0  0  0  0  0  0  0
   21.2519  -18.5579  -13.4394 C   0  0  0  0  0  0  0  0  0  0  0  0
   20.1291  -17.6346  -13.6488 C   0  0  0  0  0  0  0  0  0  0  0  0
   18.7999  -17.8923  -13.4226 C   0  0  0  0  0  0  0  0  0  0  0  0
   18.0821  -16.7974  -13.7593 N   0  0  0  0  0  0  0  0  0  0  0  0
   18.9372  -15.8620  -14.1912 C   0  0  0  0  0  0  0  0  0  0  0  0
   20.1772  -16.3710  -14.1236 N   0  0  0  0  0  0  0  0  0  0  0  0
   19.9530  -20.5070  -14.1170 C   0  0  0  0  0  0  0  0  0  0  0  0
   20.4338  -20.7569  -15.2454 O   0  0  0  0  0  0  0  0  0  0  0  0
   18.6179  -20.7986  -13.9160 O   0  0  0  0  0  0  0  0  0  0  0  0
  2  3  2  0
  2  1  1  0
  4  3  1  0
  5  4  2  0
  6  5  1  0
  7  9  1  0
  7  6  1  0
  7  8  1  6
  9 10  2  0
 11  5  1  0
 11 12  2  0
 12  2  1  0
 14 13  1  1
 15 14  1  0
 16 14  1  0
 16 17  1  1
 17  9  1  0
 18 16  1  0
 19 18  2  0
 20 18  1  0
 21 20  1  0
 21 22  1  6
 23 22  1  0
 24 23  2  0
 25 26  1  0
 25 24  1  0
 26 27  2  0
 27 23  1  0
 28 30  1  0
 28 21  1  0
 29 28  2  0
M  END
$$$$
