YTH.pdb
     RDKit          3D

 30 31  0  0  1  0  0  0  0  0999 V2000
   18.0139  -15.8646  -22.1928 O   0  0  0  0  0  0  0  0  0  0  0  0
   18.1349  -14.9306  -21.1584 C   0  0  0  0  0  0  0  0  0  0  0  0
   18.9809  -13.8507  -21.2797 C   0  0  0  0  0  0  0  0  0  0  0  0
   19.1031  -12.9244  -20.2576 C   0  0  0  0  0  0  0  0  0  0  0  0
   18.3806  -13.0637  -19.0977 C   0  0  0  0  0  0  0  0  0  0  0  0
   18.5285  -12.0681  -18.0301 C   0  0  0  0  0  0  0  0  0  0  0  0
   19.8522  -12.1792  -17.2954 C   0  0  2  0  0  0  0  0  0  0  0  0
   19.7912  -13.4090  -16.5101 N   0  0  0  0  0  0  0  0  0  0  0  0
   19.9092  -11.0312  -16.3449 C   0  0  0  0  0  0  0  0  0  0  0  0
   19.2741  -11.1576  -15.2722 O   0  0  0  0  0  0  0  0  0  0  0  0
   17.5365  -14.1414  -18.9771 C   0  0  0  0  0  0  0  0  0  0  0  0
   17.4011  -15.0793  -19.9901 C   0  0  0  0  0  0  0  0  0  0  0  0
   22.3138  -10.1070  -14.2288 C   0  0  0  0  0  0  0  0  0  0  0  0
   22.1586   -8.7929  -14.9794 C   0  0  1  0  0  0  0  0  0  0  0  0
   23.1164   -8.7915  -15.9849 O   0  0  0  0  0  0  0  0  0  0  0  0
   20.8105   -8.7882  -15.6121 C   0  0  2  0  0  0  0  0  0  0  0  0
   20.6132   -9.8460  -16.5715 N   0  0  0  0  0  0  0  0  0  0  0  0
   20.6208   -7.5110  -16.3452 C   0  0  0  0  0  0  0  0  0  0  0  0
   20.9610   -7.4043  -17.5779 O   0  0  0  0  0  0  0  0  0  0  0  0
   20.0709   -6.3307  -15.7958 N   0  0  0  0  0  0  0  0  0  0  0  0
   19.8231   -5.1486  -16.6405 C   0  0  1  0  0  0  0  0  0  0  0  0
   18.5014   -4.5374  -16.3311 C   0  0  0  0  0  0  0  0  0  0  0  0
   17.3766   -5.3865  -16.7444 C   0  0  0  0  0  0  0  0  0  0  0  0
   17.4485   -6.5532  -17.4642 C   0  0  0  0  0  0  0  0  0  0  0  0
   16.1952   -7.0202  -17.6601 N   0  0  0  0  0  0  0  0  0  0  0  0
   15.3430   -6.1679  -17.0771 C   0  0  0  0  0  0  0  0  0  0  0  0
   16.0605   -5.1785  -16.5227 N   0  0  0  0  0  0  0  0  0  0  0  0
   20.9157   -4.2016  -16.3907 C   0  0  0  0  0  0  0  0  0  0  0  0
   21.7859   -4.4651  -15.5303 O   0  0  0  0  0  0  0  0  0  0  0  0
   21.0380   -3.0070  -17.0734 O   0  0  0  0  0  0  0  0  0  0  0  0
  2  3  2  0
  2  1  1  0
  4  3  1  0
  5  4  2  0
  6  5  1  0
  7  9  1  0
  7  6  1  0
  7  8  1  1
  9 10  2  0
 11  5  1  0
 11 12  2  0
 12  2  1  0
 14 13  1  6
 15 14  1  0
 16 14  1  0
 16 17  1  6
 17  9  1  0
 18 16  1  0
 19 18  2  0
 20 18  1  0
 21 20  1  0
 21 22  1  1
 23 22  1  0
 24 23  2  0
 25 26  1  0
 25 24  1  0
 26 27  2  0
 27 23  1  0
 28 30  1  0
 28 21  1  0
 29 28  2  0
M  END
$$$$
