YTH.pdb
     RDKit          3D

 30 31  0  0  1  0  0  0  0  0999 V2000
   24.7379  -33.9725  -14.5597 O   0  0  0  0  0  0  0  0  0  0  0  0
   25.0859  -33.8375  -13.2115 C   0  0  0  0  0  0  0  0  0  0  0  0
   24.5768  -34.6967  -12.2632 C   0  0  0  0  0  0  0  0  0  0  0  0
   24.9193  -34.5659  -10.9278 C   0  0  0  0  0  0  0  0  0  0  0  0
   25.7767  -33.5733  -10.5198 C   0  0  0  0  0  0  0  0  0  0  0  0
   26.1234  -33.4566   -9.0989 C   0  0  0  0  0  0  0  0  0  0  0  0
   24.9421  -33.0613   -8.2313 C   0  0  2  0  0  0  0  0  0  0  0  0
   24.6876  -31.6472   -8.4928 N   0  0  0  0  0  0  0  0  0  0  0  0
   25.3917  -33.1916   -6.8150 C   0  0  0  0  0  0  0  0  0  0  0  0
   25.9624  -32.1957   -6.3127 O   0  0  0  0  0  0  0  0  0  0  0  0
   26.2844  -32.7163  -11.4664 C   0  0  0  0  0  0  0  0  0  0  0  0
   25.9527  -32.8318  -12.8084 C   0  0  0  0  0  0  0  0  0  0  0  0
   25.3563  -35.5084   -2.4663 C   0  0  0  0  0  0  0  0  0  0  0  0
   24.8201  -35.4724   -3.8896 C   0  0  1  0  0  0  0  0  0  0  0  0
   23.5101  -35.0184   -3.8116 O   0  0  0  0  0  0  0  0  0  0  0  0
   25.6208  -34.4739   -4.6510 C   0  0  2  0  0  0  0  0  0  0  0  0
   25.2194  -34.3331   -6.0284 N   0  0  0  0  0  0  0  0  0  0  0  0
   27.0432  -34.8994   -4.6659 C   0  0  0  0  0  0  0  0  0  0  0  0
   27.5803  -35.3590   -5.7369 O   0  0  0  0  0  0  0  0  0  0  0  0
   27.9205  -34.8469   -3.5591 N   0  0  0  0  0  0  0  0  0  0  0  0
   29.3731  -35.0213   -3.7378 C   0  0  1  0  0  0  0  0  0  0  0  0
   29.9098  -34.0527   -4.7327 C   0  0  0  0  0  0  0  0  0  0  0  0
   31.3647  -34.1641   -4.9005 C   0  0  0  0  0  0  0  0  0  0  0  0
   32.1939  -35.0776   -4.2985 C   0  0  0  0  0  0  0  0  0  0  0  0
   33.4643  -34.8358   -4.6919 N   0  0  0  0  0  0  0  0  0  0  0  0
   33.4441  -33.7895   -5.5271 C   0  0  0  0  0  0  0  0  0  0  0  0
   32.1709  -33.3837   -5.6523 N   0  0  0  0  0  0  0  0  0  0  0  0
   29.9967  -34.8304   -2.4234 C   0  0  0  0  0  0  0  0  0  0  0  0
   31.0473  -35.4469   -2.1353 O   0  0  0  0  0  0  0  0  0  0  0  0
   29.4734  -33.9839   -1.4655 O   0  0  0  0  0  0  0  0  0  0  0  0
  2  3  2  0
  2  1  1  0
  4  3  1  0
  5  4  2  0
  6  5  1  0
  7  9  1  0
  7  6  1  0
  7  8  1  6
  9 10  2  0
 11  5  1  0
 11 12  2  0
 12  2  1  0
 14 13  1  1
 15 14  1  0
 16 14  1  0
 16 17  1  6
 17  9  1  0
 18 16  1  0
 19 18  2  0
 20 18  1  0
 21 20  1  0
 21 22  1  6
 23 22  1  0
 24 23  2  0
 25 26  1  0
 25 24  1  0
 26 27  2  0
 27 23  1  0
 28 30  1  0
 28 21  1  0
 29 28  2  0
M  END
$$$$
