YTH.pdb
     RDKit          3D

 30 31  0  0  1  0  0  0  0  0999 V2000
   19.0928  -19.6255  -17.0128 O   0  0  0  0  0  0  0  0  0  0  0  0
   19.6683  -18.3575  -16.8775 C   0  0  0  0  0  0  0  0  0  0  0  0
   19.9935  -17.8605  -15.6350 C   0  0  0  0  0  0  0  0  0  0  0  0
   20.5632  -16.6058  -15.4976 C   0  0  0  0  0  0  0  0  0  0  0  0
   20.8167  -15.8284  -16.6012 C   0  0  0  0  0  0  0  0  0  0  0  0
   21.4211  -14.5026  -16.4281 C   0  0  0  0  0  0  0  0  0  0  0  0
   22.8508  -14.4325  -16.9334 C   0  0  2  0  0  0  0  0  0  0  0  0
   23.6556  -15.2401  -16.0207 N   0  0  0  0  0  0  0  0  0  0  0  0
   23.2834  -13.0122  -16.7912 C   0  0  0  0  0  0  0  0  0  0  0  0
   23.8963  -12.7139  -15.7398 O   0  0  0  0  0  0  0  0  0  0  0  0
   20.4920  -16.3247  -17.8409 C   0  0  0  0  0  0  0  0  0  0  0  0
   19.9208  -17.5791  -17.9980 C   0  0  0  0  0  0  0  0  0  0  0  0
   24.5441   -8.6845  -18.6263 C   0  0  0  0  0  0  0  0  0  0  0  0
   24.0968  -10.1135  -18.8949 C   0  0  1  0  0  0  0  0  0  0  0  0
   25.2435  -10.8456  -19.1730 O   0  0  0  0  0  0  0  0  0  0  0  0
   23.4917  -10.6428  -17.6413 C   0  0  2  0  0  0  0  0  0  0  0  0
   23.0524  -12.0124  -17.7391 N   0  0  0  0  0  0  0  0  0  0  0  0
   22.2920   -9.8366  -17.3013 C   0  0  0  0  0  0  0  0  0  0  0  0
   21.2353   -9.8930  -18.0272 O   0  0  0  0  0  0  0  0  0  0  0  0
   22.1846   -8.9630  -16.1956 N   0  0  0  0  0  0  0  0  0  0  0  0
   20.9586   -8.1764  -15.9709 C   0  0  1  0  0  0  0  0  0  0  0  0
   20.8727   -7.7109  -14.5595 C   0  0  0  0  0  0  0  0  0  0  0  0
   19.6970   -6.8655  -14.3148 C   0  0  0  0  0  0  0  0  0  0  0  0
   18.4683   -7.2774  -13.8618 C   0  0  0  0  0  0  0  0  0  0  0  0
   17.6498   -6.2039  -13.7908 N   0  0  0  0  0  0  0  0  0  0  0  0
   18.3433   -5.1308  -14.1907 C   0  0  0  0  0  0  0  0  0  0  0  0
   19.5836   -5.5335  -14.5079 N   0  0  0  0  0  0  0  0  0  0  0  0
   20.9957   -7.0421  -16.9010 C   0  0  0  0  0  0  0  0  0  0  0  0
   20.0063   -6.7980  -17.6278 O   0  0  0  0  0  0  0  0  0  0  0  0
   22.0911   -6.2086  -17.0174 O   0  0  0  0  0  0  0  0  0  0  0  0
  2  3  2  0
  2  1  1  0
  4  3  1  0
  5  4  2  0
  6  5  1  0
  7  9  1  0
  7  6  1  0
  7  8  1  1
  9 10  2  0
 11  5  1  0
 11 12  2  0
 12  2  1  0
 14 13  1  1
 15 14  1  0
 16 14  1  0
 16 17  1  6
 17  9  1  0
 18 16  1  0
 19 18  2  0
 20 18  1  0
 21 20  1  0
 21 22  1  1
 23 22  1  0
 24 23  2  0
 25 26  1  0
 25 24  1  0
 26 27  2  0
 27 23  1  0
 28 30  1  0
 28 21  1  0
 29 28  2  0
M  END
$$$$
