YTH.pdb
     RDKit          3D

 30 31  0  0  1  0  0  0  0  0999 V2000
   22.3977  -12.8857  -21.5230 O   0  0  0  0  0  0  0  0  0  0  0  0
   22.2716  -14.1034  -20.8460 C   0  0  0  0  0  0  0  0  0  0  0  0
   21.9038  -14.1369  -19.5193 C   0  0  0  0  0  0  0  0  0  0  0  0
   21.7780  -15.3407  -18.8462 C   0  0  0  0  0  0  0  0  0  0  0  0
   22.0182  -16.5301  -19.4898 C   0  0  0  0  0  0  0  0  0  0  0  0
   21.8778  -17.7915  -18.7536 C   0  0  0  0  0  0  0  0  0  0  0  0
   23.0554  -18.0784  -17.8396 C   0  0  2  0  0  0  0  0  0  0  0  0
   24.1966  -18.3604  -18.7062 N   0  0  0  0  0  0  0  0  0  0  0  0
   22.7235  -19.3290  -17.0976 C   0  0  0  0  0  0  0  0  0  0  0  0
   22.8620  -20.4065  -17.7219 O   0  0  0  0  0  0  0  0  0  0  0  0
   22.3852  -16.4961  -20.8137 C   0  0  0  0  0  0  0  0  0  0  0  0
   22.5162  -15.3002  -21.5043 C   0  0  0  0  0  0  0  0  0  0  0  0
   24.2735  -21.0392  -14.3681 C   0  0  0  0  0  0  0  0  0  0  0  0
   22.8677  -20.7777  -13.8487 C   0  0  1  0  0  0  0  0  0  0  0  0
   22.9229  -19.5940  -13.1249 O   0  0  0  0  0  0  0  0  0  0  0  0
   21.9804  -20.5694  -15.0265 C   0  0  2  0  0  0  0  0  0  0  0  0
   22.2763  -19.3733  -15.7749 N   0  0  0  0  0  0  0  0  0  0  0  0
   20.5760  -20.4415  -14.5619 C   0  0  0  0  0  0  0  0  0  0  0  0
   20.0588  -19.2876  -14.3435 O   0  0  0  0  0  0  0  0  0  0  0  0
   19.6962  -21.5212  -14.3220 N   0  0  0  0  0  0  0  0  0  0  0  0
   18.3126  -21.2827  -13.8734 C   0  0  1  0  0  0  0  0  0  0  0  0
   17.4674  -20.7786  -14.9904 C   0  0  0  0  0  0  0  0  0  0  0  0
   16.0555  -20.6388  -14.6108 C   0  0  0  0  0  0  0  0  0  0  0  0
   15.5400  -20.6641  -13.3388 C   0  0  0  0  0  0  0  0  0  0  0  0
   14.1972  -20.5263  -13.4119 N   0  0  0  0  0  0  0  0  0  0  0  0
   13.8649  -20.4158  -14.7042 C   0  0  0  0  0  0  0  0  0  0  0  0
   14.9922  -20.4843  -15.4293 N   0  0  0  0  0  0  0  0  0  0  0  0
   17.8003  -22.5561  -13.3549 C   0  0  0  0  0  0  0  0  0  0  0  0
   18.1957  -23.6360  -13.8493 O   0  0  0  0  0  0  0  0  0  0  0  0
   16.8840  -22.6270  -12.3237 O   0  0  0  0  0  0  0  0  0  0  0  0
  2  3  2  0
  2  1  1  0
  4  3  1  0
  5  4  2  0
  6  5  1  0
  7  9  1  0
  7  6  1  0
  7  8  1  6
  9 10  2  0
 11  5  1  0
 11 12  2  0
 12  2  1  0
 14 13  1  6
 15 14  1  0
 16 14  1  0
 16 17  1  1
 17  9  1  0
 18 16  1  0
 19 18  2  0
 20 18  1  0
 21 20  1  0
 21 22  1  6
 23 22  1  0
 24 23  2  0
 25 26  1  0
 25 24  1  0
 26 27  2  0
 27 23  1  0
 28 30  1  0
 28 21  1  0
 29 28  2  0
M  END
$$$$
