KSE.pdb
     RDKit          3D

 25 24  0  0  1  0  0  0  0  0999 V2000
   19.9305  -13.2750  -16.3772 N   0  0  0  0  0  0  0  0  0  0  0  0
   20.5964  -12.1821  -17.1398 C   0  0  1  0  0  0  0  0  0  0  0  0
   19.4730  -11.6168  -17.9979 C   0  0  0  0  0  0  0  0  0  0  0  0
   18.7567  -12.6179  -18.8240 C   0  0  0  0  0  0  0  0  0  0  0  0
   17.7032  -12.0890  -19.7459 C   0  0  0  0  0  0  0  0  0  0  0  0
   17.0271  -13.0749  -20.6343 C   0  0  0  0  0  0  0  0  0  0  0  0
   16.1062  -12.5110  -21.5935 N   0  0  0  0  0  0  0  0  0  0  0  0
   20.9808  -11.1171  -16.1483 C   0  0  0  0  0  0  0  0  0  0  0  0
   20.0770  -10.6311  -15.4413 O   0  0  0  0  0  0  0  0  0  0  0  0
   24.8415   -9.8626  -16.0032 O   0  0  0  0  0  0  0  0  0  0  0  0
   24.1932   -9.8369  -14.7509 C   0  0  0  0  0  0  0  0  0  0  0  0
   22.7169   -9.6833  -15.0799 C   0  0  2  0  0  0  0  0  0  0  0  0
   22.3298  -10.6915  -16.0364 N   0  0  0  0  0  0  0  0  0  0  0  0
   22.4581   -8.3122  -15.6427 C   0  0  0  0  0  0  0  0  0  0  0  0
   22.6663   -8.1188  -16.8710 O   0  0  0  0  0  0  0  0  0  0  0  0
   21.9933   -7.2281  -14.8702 N   0  0  0  0  0  0  0  0  0  0  0  0
   21.8260   -5.8849  -15.3521 C   0  0  1  0  0  0  0  0  0  0  0  0
   20.3797   -5.4321  -15.3325 C   0  0  0  0  0  0  0  0  0  0  0  0
   20.2523   -3.9939  -15.7913 C   0  0  0  0  0  0  0  0  0  0  0  0
   18.8371   -3.5734  -15.7511 C   0  0  0  0  0  0  0  0  0  0  0  0
   17.8897   -4.2812  -15.3406 O   0  0  0  0  0  0  0  0  0  0  0  0
   22.7109   -4.9152  -14.6435 C   0  0  0  0  0  0  0  0  0  0  0  0
   23.0333   -5.1223  -13.4574 O   0  0  0  0  0  0  0  0  0  0  0  0
   18.5588   -2.2801  -16.2130 O   0  0  0  0  0  0  0  0  0  0  0  0
   23.2022   -3.7640  -15.2634 O   0  0  0  0  0  0  0  0  0  0  0  0
  2  1  1  1
  3  2  1  0
  4  3  1  0
  5  6  1  0
  5  4  1  0
  6  7  1  0
  8  2  1  0
  8  9  2  0
 10 11  1  0
 12 11  1  6
 12 13  1  0
 13  8  1  0
 14 12  1  0
 15 14  2  0
 16 14  1  0
 17 22  1  0
 17 16  1  0
 17 18  1  1
 19 18  1  0
 20 21  2  0
 20 19  1  0
 22 25  1  0
 23 22  2  0
 24 20  1  0
M  END
$$$$
