KSE.pdb
     RDKit          3D

 25 24  0  0  1  0  0  0  0  0999 V2000
   24.4648  -11.9697  -17.5988 N   0  0  0  0  0  0  0  0  0  0  0  0
   24.2778  -11.5766  -16.1740 C   0  0  1  0  0  0  0  0  0  0  0  0
   25.6534  -11.0671  -15.7662 C   0  0  0  0  0  0  0  0  0  0  0  0
   26.6869  -12.1190  -15.6147 C   0  0  0  0  0  0  0  0  0  0  0  0
   27.6264  -12.2998  -16.7655 C   0  0  0  0  0  0  0  0  0  0  0  0
   28.6950  -13.3254  -16.6097 C   0  0  0  0  0  0  0  0  0  0  0  0
   29.5500  -13.5053  -17.7598 N   0  0  0  0  0  0  0  0  0  0  0  0
   23.3414  -10.3986  -16.1560 C   0  0  0  0  0  0  0  0  0  0  0  0
   23.4049   -9.5941  -17.1056 O   0  0  0  0  0  0  0  0  0  0  0  0
   19.7002  -10.8044  -14.7739 O   0  0  0  0  0  0  0  0  0  0  0  0
   20.2473   -9.6304  -14.2154 C   0  0  0  0  0  0  0  0  0  0  0  0
   21.3738   -9.2391  -15.1583 C   0  0  2  0  0  0  0  0  0  0  0  0
   22.4254  -10.2240  -15.0865 N   0  0  0  0  0  0  0  0  0  0  0  0
   21.9094   -7.8846  -14.7811 C   0  0  0  0  0  0  0  0  0  0  0  0
   22.6979   -7.8030  -13.8008 O   0  0  0  0  0  0  0  0  0  0  0  0
   21.5779   -6.6976  -15.4660 N   0  0  0  0  0  0  0  0  0  0  0  0
   22.0357   -5.3839  -15.1067 C   0  0  1  0  0  0  0  0  0  0  0  0
   21.6673   -4.3340  -16.1359 C   0  0  0  0  0  0  0  0  0  0  0  0
   22.2525   -2.9848  -15.7721 C   0  0  0  0  0  0  0  0  0  0  0  0
   21.8808   -1.9810  -16.7897 C   0  0  0  0  0  0  0  0  0  0  0  0
   22.5311   -1.7412  -17.8320 O   0  0  0  0  0  0  0  0  0  0  0  0
   21.5941   -4.9853  -13.7386 C   0  0  0  0  0  0  0  0  0  0  0  0
   20.4656   -5.3207  -13.3291 O   0  0  0  0  0  0  0  0  0  0  0  0
   20.7074   -1.2544  -16.5475 O   0  0  0  0  0  0  0  0  0  0  0  0
   22.4057   -4.2385  -12.8816 O   0  0  0  0  0  0  0  0  0  0  0  0
  2  1  1  6
  3  2  1  0
  4  3  1  0
  5  6  1  0
  5  4  1  0
  6  7  1  0
  8  2  1  0
  8  9  2  0
 10 11  1  0
 12 11  1  1
 12 13  1  0
 13  8  1  0
 14 12  1  0
 15 14  2  0
 16 14  1  0
 17 22  1  0
 17 16  1  0
 17 18  1  6
 19 18  1  0
 20 21  2  0
 20 19  1  0
 22 25  1  0
 23 22  2  0
 24 20  1  0
M  END
$$$$
