KSE.pdb
     RDKit          3D

 25 24  0  0  1  0  0  0  0  0999 V2000
   14.2719  -12.1070  -14.9943 N   0  0  0  0  0  0  0  0  0  0  0  0
   15.1871  -12.0544  -13.8201 C   0  0  1  0  0  0  0  0  0  0  0  0
   16.5717  -12.1171  -14.4503 C   0  0  0  0  0  0  0  0  0  0  0  0
   16.9766  -13.4599  -14.9307 C   0  0  0  0  0  0  0  0  0  0  0  0
   18.3639  -13.5803  -15.4788 C   0  0  0  0  0  0  0  0  0  0  0  0
   18.7433  -14.8923  -16.0729 C   0  0  0  0  0  0  0  0  0  0  0  0
   20.0355  -14.9273  -16.7172 N   0  0  0  0  0  0  0  0  0  0  0  0
   15.0393  -10.6907  -13.2007 C   0  0  0  0  0  0  0  0  0  0  0  0
   14.8328   -9.7276  -13.9640 O   0  0  0  0  0  0  0  0  0  0  0  0
   13.9725   -8.0126   -9.4855 O   0  0  0  0  0  0  0  0  0  0  0  0
   14.0411   -9.3229  -10.0029 C   0  0  0  0  0  0  0  0  0  0  0  0
   14.9915   -9.2252  -11.1854 C   0  0  2  0  0  0  0  0  0  0  0  0
   15.1364  -10.5248  -11.7949 N   0  0  0  0  0  0  0  0  0  0  0  0
   16.3316   -8.7198  -10.7244 C   0  0  0  0  0  0  0  0  0  0  0  0
   17.0342   -9.4661   -9.9904 O   0  0  0  0  0  0  0  0  0  0  0  0
   16.8472   -7.4537  -11.0696 N   0  0  0  0  0  0  0  0  0  0  0  0
   18.1345   -6.9527  -10.6740 C   0  0  1  0  0  0  0  0  0  0  0  0
   19.1102   -6.8682  -11.8307 C   0  0  0  0  0  0  0  0  0  0  0  0
   20.4295   -6.2691  -11.3885 C   0  0  0  0  0  0  0  0  0  0  0  0
   21.3889   -6.2733  -12.5114 C   0  0  0  0  0  0  0  0  0  0  0  0
   21.4644   -7.1644  -13.3872 O   0  0  0  0  0  0  0  0  0  0  0  0
   18.0370   -5.6539   -9.9465 C   0  0  0  0  0  0  0  0  0  0  0  0
   17.1028   -4.8690  -10.2017 O   0  0  0  0  0  0  0  0  0  0  0  0
   22.2715   -5.1871  -12.5800 O   0  0  0  0  0  0  0  0  0  0  0  0
   18.9647   -5.2727   -8.9745 O   0  0  0  0  0  0  0  0  0  0  0  0
  2  1  1  6
  3  2  1  0
  4  3  1  0
  5  6  1  0
  5  4  1  0
  6  7  1  0
  8  2  1  0
  8  9  2  0
 10 11  1  0
 12 11  1  1
 12 13  1  0
 13  8  1  0
 14 12  1  0
 15 14  2  0
 16 14  1  0
 17 22  1  0
 17 16  1  0
 17 18  1  6
 19 18  1  0
 20 21  2  0
 20 19  1  0
 22 25  1  0
 23 22  2  0
 24 20  1  0
M  END
$$$$
