KSE.pdb
     RDKit          3D

 25 24  0  0  1  0  0  0  0  0999 V2000
   18.4058  -18.5487  -15.5769 N   0  0  0  0  0  0  0  0  0  0  0  0
   19.1209  -19.8350  -15.3461 C   0  0  1  0  0  0  0  0  0  0  0  0
   19.6727  -20.1824  -16.7219 C   0  0  0  0  0  0  0  0  0  0  0  0
   18.7427  -20.9411  -17.5921 C   0  0  0  0  0  0  0  0  0  0  0  0
   17.8745  -21.9544  -16.9147 C   0  0  0  0  0  0  0  0  0  0  0  0
   16.9936  -22.7797  -17.7872 C   0  0  0  0  0  0  0  0  0  0  0  0
   16.0877  -23.6628  -17.0904 N   0  0  0  0  0  0  0  0  0  0  0  0
   20.2967  -19.5375  -14.4550 C   0  0  0  0  0  0  0  0  0  0  0  0
   21.2638  -18.9317  -14.9556 O   0  0  0  0  0  0  0  0  0  0  0  0
   20.3622  -21.0242  -10.6662 O   0  0  0  0  0  0  0  0  0  0  0  0
   20.9456  -19.7447  -10.7742 C   0  0  0  0  0  0  0  0  0  0  0  0
   21.3983  -19.6442  -12.2220 C   0  0  2  0  0  0  0  0  0  0  0  0
   20.2888  -19.9415  -13.0948 N   0  0  0  0  0  0  0  0  0  0  0  0
   22.5251  -20.6090  -12.4738 C   0  0  0  0  0  0  0  0  0  0  0  0
   22.2414  -21.8147  -12.7087 O   0  0  0  0  0  0  0  0  0  0  0  0
   23.8854  -20.2379  -12.4624 N   0  0  0  0  0  0  0  0  0  0  0  0
   24.9884  -21.1462  -12.6137 C   0  0  1  0  0  0  0  0  0  0  0  0
   26.0482  -20.6265  -13.5644 C   0  0  0  0  0  0  0  0  0  0  0  0
   27.1330  -21.6598  -13.7893 C   0  0  0  0  0  0  0  0  0  0  0  0
   28.1495  -21.1317  -14.7217 C   0  0  0  0  0  0  0  0  0  0  0  0
   28.1277  -19.9905  -15.2354 O   0  0  0  0  0  0  0  0  0  0  0  0
   25.5789  -21.5427  -11.3024 C   0  0  0  0  0  0  0  0  0  0  0  0
   26.3248  -22.5390  -11.2342 O   0  0  0  0  0  0  0  0  0  0  0  0
   29.2084  -21.9922  -15.0403 O   0  0  0  0  0  0  0  0  0  0  0  0
   25.3270  -20.8325  -10.1264 O   0  0  0  0  0  0  0  0  0  0  0  0
  2  1  1  6
  3  2  1  0
  4  3  1  0
  5  6  1  0
  5  4  1  0
  6  7  1  0
  8  2  1  0
  8  9  2  0
 10 11  1  0
 12 11  1  1
 12 13  1  0
 13  8  1  0
 14 12  1  0
 15 14  2  0
 16 14  1  0
 17 22  1  0
 17 16  1  0
 17 18  1  6
 19 18  1  0
 20 21  2  0
 20 19  1  0
 22 25  1  0
 23 22  2  0
 24 20  1  0
M  END
$$$$
