KSE.pdb
     RDKit          3D

 25 24  0  0  1  0  0  0  0  0999 V2000
   17.5987  -12.2547  -17.3054 N   0  0  0  0  0  0  0  0  0  0  0  0
   16.4725  -11.4031  -16.8303 C   0  0  1  0  0  0  0  0  0  0  0  0
   16.4078  -11.7051  -15.3394 C   0  0  0  0  0  0  0  0  0  0  0  0
   15.8798  -13.0478  -14.9987 C   0  0  0  0  0  0  0  0  0  0  0  0
   14.4385  -13.2963  -15.3157 C   0  0  0  0  0  0  0  0  0  0  0  0
   13.8777  -14.6171  -14.9167 C   0  0  0  0  0  0  0  0  0  0  0  0
   13.7498  -14.8286  -13.4936 N   0  0  0  0  0  0  0  0  0  0  0  0
   16.9052   -9.9692  -16.9776 C   0  0  0  0  0  0  0  0  0  0  0  0
   18.1264   -9.7254  -16.9312 O   0  0  0  0  0  0  0  0  0  0  0  0
   14.1452   -7.0481  -16.9300 O   0  0  0  0  0  0  0  0  0  0  0  0
   15.1326   -6.7866  -17.9026 C   0  0  0  0  0  0  0  0  0  0  0  0
   16.3438   -7.5880  -17.4529 C   0  0  2  0  0  0  0  0  0  0  0  0
   15.9429   -8.9426  -17.1604 N   0  0  0  0  0  0  0  0  0  0  0  0
   16.9512   -6.9548  -16.2307 C   0  0  0  0  0  0  0  0  0  0  0  0
   16.4900   -7.2690  -15.1002 O   0  0  0  0  0  0  0  0  0  0  0  0
   18.0117   -6.0268  -16.2796 N   0  0  0  0  0  0  0  0  0  0  0  0
   18.5954   -5.3818  -15.1361 C   0  0  1  0  0  0  0  0  0  0  0  0
   20.0736   -5.6810  -14.9867 C   0  0  0  0  0  0  0  0  0  0  0  0
   20.6497   -4.9885  -13.7686 C   0  0  0  0  0  0  0  0  0  0  0  0
   22.0842   -5.3133  -13.6330 C   0  0  0  0  0  0  0  0  0  0  0  0
   23.0136   -4.4750  -13.6425 O   0  0  0  0  0  0  0  0  0  0  0  0
   18.3314   -3.9136  -15.1186 C   0  0  0  0  0  0  0  0  0  0  0  0
   18.1034   -3.3119  -16.1861 O   0  0  0  0  0  0  0  0  0  0  0  0
   22.4037   -6.6695  -13.4840 O   0  0  0  0  0  0  0  0  0  0  0  0
   18.3292   -3.1708  -13.9357 O   0  0  0  0  0  0  0  0  0  0  0  0
  2  1  1  6
  3  2  1  0
  4  3  1  0
  5  6  1  0
  5  4  1  0
  6  7  1  0
  8  2  1  0
  8  9  2  0
 10 11  1  0
 12 11  1  1
 12 13  1  0
 13  8  1  0
 14 12  1  0
 15 14  2  0
 16 14  1  0
 17 22  1  0
 17 16  1  0
 17 18  1  6
 19 18  1  0
 20 21  2  0
 20 19  1  0
 22 25  1  0
 23 22  2  0
 24 20  1  0
M  END
$$$$
