KSE.pdb
     RDKit          3D

 25 24  0  0  1  0  0  0  0  0999 V2000
   28.2772  -24.0014  -18.0037 N   0  0  0  0  0  0  0  0  0  0  0  0
   29.1512  -23.4020  -16.9566 C   0  0  1  0  0  0  0  0  0  0  0  0
   30.5506  -23.5557  -17.5363 C   0  0  0  0  0  0  0  0  0  0  0  0
   31.1294  -24.9149  -17.4132 C   0  0  0  0  0  0  0  0  0  0  0  0
   30.5288  -25.9753  -18.2818 C   0  0  0  0  0  0  0  0  0  0  0  0
   31.0461  -27.3614  -18.1102 C   0  0  0  0  0  0  0  0  0  0  0  0
   30.4379  -28.3567  -18.9620 N   0  0  0  0  0  0  0  0  0  0  0  0
   28.8456  -21.9291  -16.9108 C   0  0  0  0  0  0  0  0  0  0  0  0
   29.4817  -21.2309  -16.0978 O   0  0  0  0  0  0  0  0  0  0  0  0
   28.0922  -20.3806  -19.9666 O   0  0  0  0  0  0  0  0  0  0  0  0
   28.0318  -19.3188  -19.0401 C   0  0  0  0  0  0  0  0  0  0  0  0
   27.5646  -19.9600  -17.7432 C   0  0  2  0  0  0  0  0  0  0  0  0
   27.8632  -21.3711  -17.7693 N   0  0  0  0  0  0  0  0  0  0  0  0
   26.0846  -19.7493  -17.5725 C   0  0  0  0  0  0  0  0  0  0  0  0
   25.2979  -20.6237  -18.0263 O   0  0  0  0  0  0  0  0  0  0  0  0
   25.5269  -18.6248  -16.9303 N   0  0  0  0  0  0  0  0  0  0  0  0
   24.1202  -18.3582  -16.8099 C   0  0  1  0  0  0  0  0  0  0  0  0
   23.4182  -19.3286  -15.8810 C   0  0  0  0  0  0  0  0  0  0  0  0
   21.9239  -19.0800  -15.8609 C   0  0  0  0  0  0  0  0  0  0  0  0
   21.2698  -20.0045  -14.9127 C   0  0  0  0  0  0  0  0  0  0  0  0
   21.4994  -21.2325  -14.8342 O   0  0  0  0  0  0  0  0  0  0  0  0
   23.8430  -16.9423  -16.4304 C   0  0  0  0  0  0  0  0  0  0  0  0
   24.7615  -16.2299  -15.9805 O   0  0  0  0  0  0  0  0  0  0  0  0
   20.3242  -19.4408  -14.0460 O   0  0  0  0  0  0  0  0  0  0  0  0
   22.5752  -16.3706  -16.5597 O   0  0  0  0  0  0  0  0  0  0  0  0
  2  1  1  6
  3  2  1  0
  4  3  1  0
  5  6  1  0
  5  4  1  0
  6  7  1  0
  8  2  1  0
  8  9  2  0
 10 11  1  0
 12 11  1  6
 12 13  1  0
 13  8  1  0
 14 12  1  0
 15 14  2  0
 16 14  1  0
 17 22  1  0
 17 16  1  0
 17 18  1  1
 19 18  1  0
 20 21  2  0
 20 19  1  0
 22 25  1  0
 23 22  2  0
 24 20  1  0
M  END
$$$$
