KSE.pdb
     RDKit          3D

 25 24  0  0  1  0  0  0  0  0999 V2000
   17.5770  -11.8968  -16.2366 N   0  0  0  0  0  0  0  0  0  0  0  0
   18.3703  -10.7805  -16.8232 C   0  0  1  0  0  0  0  0  0  0  0  0
   17.3497  -10.0293  -17.6670 C   0  0  0  0  0  0  0  0  0  0  0  0
   17.3215  -10.4139  -19.0984 C   0  0  0  0  0  0  0  0  0  0  0  0
   17.0431  -11.8541  -19.3952 C   0  0  0  0  0  0  0  0  0  0  0  0
   16.9106  -12.2342  -20.8292 C   0  0  0  0  0  0  0  0  0  0  0  0
   16.6545  -13.6342  -21.0752 N   0  0  0  0  0  0  0  0  0  0  0  0
   18.7682   -9.8733  -15.6902 C   0  0  0  0  0  0  0  0  0  0  0  0
   17.8990   -9.5889  -14.8437 O   0  0  0  0  0  0  0  0  0  0  0  0
   22.5792   -9.6085  -14.8033 O   0  0  0  0  0  0  0  0  0  0  0  0
   21.6691   -9.2962  -13.7719 C   0  0  0  0  0  0  0  0  0  0  0  0
   20.5191   -8.5871  -14.4690 C   0  0  2  0  0  0  0  0  0  0  0  0
   20.0909   -9.3667  -15.6048 N   0  0  0  0  0  0  0  0  0  0  0  0
   20.9581   -7.2199  -14.9182 C   0  0  0  0  0  0  0  0  0  0  0  0
   21.6376   -7.1253  -15.9759 O   0  0  0  0  0  0  0  0  0  0  0  0
   20.6500   -6.0344  -14.2198 N   0  0  0  0  0  0  0  0  0  0  0  0
   21.1086   -4.7218  -14.5822 C   0  0  1  0  0  0  0  0  0  0  0  0
   20.0834   -3.6435  -14.2937 C   0  0  0  0  0  0  0  0  0  0  0  0
   20.5712   -2.2879  -14.7624 C   0  0  0  0  0  0  0  0  0  0  0  0
   19.5906   -1.2444  -14.4005 C   0  0  0  0  0  0  0  0  0  0  0  0
   18.5229   -1.4476  -13.7797 O   0  0  0  0  0  0  0  0  0  0  0  0
   22.4301   -4.3955  -13.9718 C   0  0  0  0  0  0  0  0  0  0  0  0
   22.6545   -4.6945  -12.7827 O   0  0  0  0  0  0  0  0  0  0  0  0
   19.9012    0.0644  -14.7931 O   0  0  0  0  0  0  0  0  0  0  0  0
   23.4450   -3.7575  -14.6886 O   0  0  0  0  0  0  0  0  0  0  0  0
  2  1  1  1
  3  2  1  0
  4  3  1  0
  5  6  1  0
  5  4  1  0
  6  7  1  0
  8  2  1  0
  8  9  2  0
 10 11  1  0
 12 11  1  6
 12 13  1  0
 13  8  1  0
 14 12  1  0
 15 14  2  0
 16 14  1  0
 17 22  1  0
 17 16  1  0
 17 18  1  1
 19 18  1  0
 20 21  2  0
 20 19  1  0
 22 25  1  0
 23 22  2  0
 24 20  1  0
M  END
$$$$
