KSE.pdb
     RDKit          3D

 25 24  0  0  1  0  0  0  0  0999 V2000
   19.8245  -12.6152  -15.8437 N   0  0  0  0  0  0  0  0  0  0  0  0
   18.8559  -11.5676  -16.2723 C   0  0  1  0  0  0  0  0  0  0  0  0
   17.5154  -12.1136  -15.8000 C   0  0  0  0  0  0  0  0  0  0  0  0
   17.1355  -13.4219  -16.3846 C   0  0  0  0  0  0  0  0  0  0  0  0
   15.7960  -13.9622  -15.9928 C   0  0  0  0  0  0  0  0  0  0  0  0
   15.3952  -15.2683  -16.5859 C   0  0  0  0  0  0  0  0  0  0  0  0
   14.1394  -15.8017  -16.1121 N   0  0  0  0  0  0  0  0  0  0  0  0
   19.1466  -10.3335  -15.4615 C   0  0  0  0  0  0  0  0  0  0  0  0
   18.4781  -10.1506  -14.4258 O   0  0  0  0  0  0  0  0  0  0  0  0
   22.6490   -8.5489  -15.9349 O   0  0  0  0  0  0  0  0  0  0  0  0
   21.9880   -8.3748  -14.7011 C   0  0  0  0  0  0  0  0  0  0  0  0
   20.5129   -8.2885  -15.0585 C   0  0  2  0  0  0  0  0  0  0  0  0
   20.1491   -9.4193  -15.8770 N   0  0  0  0  0  0  0  0  0  0  0  0
   20.2400   -7.0073  -15.7988 C   0  0  0  0  0  0  0  0  0  0  0  0
   20.4659   -6.9709  -17.0385 O   0  0  0  0  0  0  0  0  0  0  0  0
   19.7432   -5.8414  -15.1808 N   0  0  0  0  0  0  0  0  0  0  0  0
   19.5538   -4.5776  -15.8377 C   0  0  1  0  0  0  0  0  0  0  0  0
   18.3747   -3.8019  -15.2853 C   0  0  0  0  0  0  0  0  0  0  0  0
   18.1813   -2.4983  -16.0326 C   0  0  0  0  0  0  0  0  0  0  0  0
   17.0184   -1.7697  -15.4865 C   0  0  0  0  0  0  0  0  0  0  0  0
   16.3277   -2.1472  -14.5133 O   0  0  0  0  0  0  0  0  0  0  0  0
   20.7959   -3.7513  -15.8438 C   0  0  0  0  0  0  0  0  0  0  0  0
   21.5330   -3.7326  -14.8387 O   0  0  0  0  0  0  0  0  0  0  0  0
   16.6823   -0.5675  -16.1232 O   0  0  0  0  0  0  0  0  0  0  0  0
   21.1748   -2.9835  -16.9473 O   0  0  0  0  0  0  0  0  0  0  0  0
  2  1  1  1
  3  2  1  0
  4  3  1  0
  5  6  1  0
  5  4  1  0
  6  7  1  0
  8  2  1  0
  8  9  2  0
 10 11  1  0
 12 11  1  6
 12 13  1  0
 13  8  1  0
 14 12  1  0
 15 14  2  0
 16 14  1  0
 17 22  1  0
 17 16  1  0
 17 18  1  1
 19 18  1  0
 20 21  2  0
 20 19  1  0
 22 25  1  0
 23 22  2  0
 24 20  1  0
M  END
$$$$
