KSE.pdb
     RDKit          3D

 25 24  0  0  1  0  0  0  0  0999 V2000
   20.7338  -12.8375  -15.7560 N   0  0  0  0  0  0  0  0  0  0  0  0
   20.2679  -12.5644  -17.1444 C   0  0  1  0  0  0  0  0  0  0  0  0
   19.0628  -13.4822  -17.2979 C   0  0  0  0  0  0  0  0  0  0  0  0
   18.4178  -13.8810  -16.0241 C   0  0  0  0  0  0  0  0  0  0  0  0
   17.1515  -14.6704  -16.1377 C   0  0  0  0  0  0  0  0  0  0  0  0
   16.3961  -14.9194  -14.8785 C   0  0  0  0  0  0  0  0  0  0  0  0
   15.1702  -15.6674  -15.0321 N   0  0  0  0  0  0  0  0  0  0  0  0
   19.7580  -11.1487  -17.1729 C   0  0  0  0  0  0  0  0  0  0  0  0
   19.3446  -10.7042  -18.2612 O   0  0  0  0  0  0  0  0  0  0  0  0
   17.8136   -7.4171  -15.2474 O   0  0  0  0  0  0  0  0  0  0  0  0
   18.1563   -8.7778  -15.1050 C   0  0  0  0  0  0  0  0  0  0  0  0
   19.3531   -8.9759  -16.0213 C   0  0  2  0  0  0  0  0  0  0  0  0
   19.7568  -10.3606  -15.9930 N   0  0  0  0  0  0  0  0  0  0  0  0
   20.4905   -8.0981  -15.5743 C   0  0  0  0  0  0  0  0  0  0  0  0
   21.2376   -8.5104  -14.6464 O   0  0  0  0  0  0  0  0  0  0  0  0
   20.7684   -6.8361  -16.1383 N   0  0  0  0  0  0  0  0  0  0  0  0
   21.8506   -5.9775  -15.7432 C   0  0  1  0  0  0  0  0  0  0  0  0
   22.6292   -5.4358  -16.9253 C   0  0  0  0  0  0  0  0  0  0  0  0
   23.7998   -4.5907  -16.4662 C   0  0  0  0  0  0  0  0  0  0  0  0
   25.0697   -5.2928  -16.7416 C   0  0  0  0  0  0  0  0  0  0  0  0
   26.1587   -4.7316  -16.9983 O   0  0  0  0  0  0  0  0  0  0  0  0
   21.4010   -4.8807  -14.8373 C   0  0  0  0  0  0  0  0  0  0  0  0
   20.2638   -4.3894  -14.9756 O   0  0  0  0  0  0  0  0  0  0  0  0
   25.0267   -6.6929  -16.7078 O   0  0  0  0  0  0  0  0  0  0  0  0
   22.2147   -4.3715  -13.8227 O   0  0  0  0  0  0  0  0  0  0  0  0
  2  1  1  1
  3  2  1  0
  4  3  1  0
  5  6  1  0
  5  4  1  0
  6  7  1  0
  8  2  1  0
  8  9  2  0
 10 11  1  0
 12 11  1  1
 12 13  1  0
 13  8  1  0
 14 12  1  0
 15 14  2  0
 16 14  1  0
 17 22  1  0
 17 16  1  0
 17 18  1  6
 19 18  1  0
 20 21  2  0
 20 19  1  0
 22 25  1  0
 23 22  2  0
 24 20  1  0
M  END
$$$$
