SEW.pdb
     RDKit          3D

 30 31  0  0  1  0  0  0  0  0999 V2000
   28.9225  -24.7057  -18.7483 O   0  0  0  0  0  0  0  0  0  0  0  0
   28.6811  -24.3062  -17.4296 C   0  0  0  0  0  0  0  0  0  0  0  0
   29.5605  -23.1631  -17.0484 C   0  0  2  0  0  0  0  0  0  0  0  0
   30.8339  -23.7324  -16.6099 N   0  0  0  0  0  0  0  0  0  0  0  0
   28.9423  -22.3664  -15.9733 C   0  0  0  0  0  0  0  0  0  0  0  0
   29.4926  -22.4524  -14.8159 O   0  0  0  0  0  0  0  0  0  0  0  0
   27.8081  -21.5498  -16.2259 N   0  0  0  0  0  0  0  0  0  0  0  0
   27.3525  -20.6105  -15.2672 C   0  0  1  0  0  0  0  0  0  0  0  0
   26.9640  -19.2633  -15.6938 C   0  0  0  0  0  0  0  0  0  0  0  0
   25.7943  -19.1315  -16.6003 C   0  0  0  0  0  0  0  0  0  0  0  0
   24.8766  -18.0330  -16.3671 C   0  0  0  0  0  0  0  0  0  0  0  0
   25.2477  -16.8426  -16.6125 O   0  0  0  0  0  0  0  0  0  0  0  0
   26.4398  -21.2800  -14.2972 C   0  0  0  0  0  0  0  0  0  0  0  0
   25.4601  -21.9610  -14.6806 O   0  0  0  0  0  0  0  0  0  0  0  0
   23.5972  -18.2101  -15.8812 O   0  0  0  0  0  0  0  0  0  0  0  0
   26.5914  -21.2103  -12.8901 N   0  0  0  0  0  0  0  0  0  0  0  0
   25.7249  -21.8774  -11.9410 C   0  0  1  0  0  0  0  0  0  0  0  0
   26.4213  -22.2488  -10.6767 C   0  0  0  0  0  0  0  0  0  0  0  0
   26.4810  -21.0629   -9.7885 C   0  0  0  0  0  0  0  0  0  0  0  0
   25.6216  -19.9673   -9.7086 C   0  0  0  0  0  0  0  0  0  0  0  0
   26.0297  -19.1076   -8.7809 N   0  0  0  0  0  0  0  0  0  0  0  0
   27.1478  -19.5807   -8.2187 C   0  0  0  0  0  0  0  0  0  0  0  0
   27.9744  -19.0979   -7.2221 C   0  0  0  0  0  0  0  0  0  0  0  0
   29.0742  -19.8105   -6.8440 C   0  0  0  0  0  0  0  0  0  0  0  0
   29.3624  -21.0032   -7.4488 C   0  0  0  0  0  0  0  0  0  0  0  0
   28.5593  -21.5147   -8.4466 C   0  0  0  0  0  0  0  0  0  0  0  0
   27.4520  -20.7843   -8.8180 C   0  0  0  0  0  0  0  0  0  0  0  0
   24.6005  -20.9845  -11.6357 C   0  0  0  0  0  0  0  0  0  0  0  0
   23.5628  -21.4355  -11.1130 O   0  0  0  0  0  0  0  0  0  0  0  0
   24.6861  -19.6419  -11.9257 O   0  0  0  0  0  0  0  0  0  0  0  0
  1  2  1  0
  3  2  1  0
  3  5  1  0
  3  4  1  1
  5  6  2  0
  7  5  1  0
  7  8  1  0
  8  9  1  6
  9 10  1  0
 10 11  1  0
 11 12  2  0
 11 15  1  0
 13  8  1  0
 13 14  2  0
 16 13  1  0
 17 16  1  0
 17 18  1  1
 19 18  1  0
 19 27  1  0
 20 21  1  0
 20 19  2  0
 21 22  1  0
 22 23  1  0
 22 27  2  0
 23 24  2  0
 24 25  1  0
 26 25  2  0
 27 26  1  0
 28 17  1  0
 29 28  2  0
 30 28  1  0
M  END
$$$$
