SEW.pdb
     RDKit          3D

 30 31  0  0  1  0  0  0  0  0999 V2000
   35.7934  -37.2187   -5.9973 O   0  0  0  0  0  0  0  0  0  0  0  0
   34.4474  -36.9367   -5.7412 C   0  0  0  0  0  0  0  0  0  0  0  0
   33.5601  -37.6413   -6.7115 C   0  0  2  0  0  0  0  0  0  0  0  0
   33.8763  -37.1149   -8.0385 N   0  0  0  0  0  0  0  0  0  0  0  0
   32.1419  -37.4147   -6.3798 C   0  0  0  0  0  0  0  0  0  0  0  0
   31.4933  -36.6340   -7.1670 O   0  0  0  0  0  0  0  0  0  0  0  0
   31.5435  -38.0407   -5.2541 N   0  0  0  0  0  0  0  0  0  0  0  0
   30.1462  -37.9641   -5.0290 C   0  0  1  0  0  0  0  0  0  0  0  0
   29.3824  -39.1864   -4.7637 C   0  0  0  0  0  0  0  0  0  0  0  0
   27.9123  -39.0629   -4.5876 C   0  0  0  0  0  0  0  0  0  0  0  0
   27.3530  -39.4112   -3.2956 C   0  0  0  0  0  0  0  0  0  0  0  0
   27.8117  -40.4133   -2.6629 O   0  0  0  0  0  0  0  0  0  0  0  0
   29.8378  -36.7957   -4.1562 C   0  0  0  0  0  0  0  0  0  0  0  0
   30.5582  -36.5023   -3.1736 O   0  0  0  0  0  0  0  0  0  0  0  0
   26.3276  -38.7031   -2.7028 O   0  0  0  0  0  0  0  0  0  0  0  0
   28.7317  -35.9319   -4.3516 N   0  0  0  0  0  0  0  0  0  0  0  0
   28.5407  -34.6782   -3.6527 C   0  0  1  0  0  0  0  0  0  0  0  0
   28.6962  -33.4883   -4.5367 C   0  0  0  0  0  0  0  0  0  0  0  0
   27.3554  -33.0262   -4.9697 C   0  0  0  0  0  0  0  0  0  0  0  0
   26.1979  -32.8261   -4.2179 C   0  0  0  0  0  0  0  0  0  0  0  0
   25.1960  -32.4106   -4.9860 N   0  0  0  0  0  0  0  0  0  0  0  0
   25.6314  -32.3188   -6.2478 C   0  0  0  0  0  0  0  0  0  0  0  0
   25.0176  -31.9444   -7.4278 C   0  0  0  0  0  0  0  0  0  0  0  0
   25.7242  -31.9472   -8.5944 C   0  0  0  0  0  0  0  0  0  0  0  0
   27.0404  -32.3200   -8.6005 C   0  0  0  0  0  0  0  0  0  0  0  0
   27.6844  -32.6994   -7.4414 C   0  0  0  0  0  0  0  0  0  0  0  0
   26.9585  -32.6916   -6.2707 C   0  0  0  0  0  0  0  0  0  0  0  0
   27.1958  -34.6778   -3.0646 C   0  0  0  0  0  0  0  0  0  0  0  0
   26.3199  -35.4522   -3.4966 O   0  0  0  0  0  0  0  0  0  0  0  0
   26.8940  -33.8207   -2.0310 O   0  0  0  0  0  0  0  0  0  0  0  0
  1  2  1  0
  3  2  1  0
  3  5  1  0
  3  4  1  6
  5  6  2  0
  7  5  1  0
  7  8  1  0
  8  9  1  1
  9 10  1  0
 10 11  1  0
 11 12  2  0
 11 15  1  0
 13  8  1  0
 13 14  2  0
 16 13  1  0
 17 16  1  0
 17 18  1  6
 19 18  1  0
 19 27  1  0
 20 21  1  0
 20 19  2  0
 21 22  1  0
 22 23  1  0
 22 27  2  0
 23 24  2  0
 24 25  1  0
 26 25  2  0
 27 26  1  0
 28 17  1  0
 29 28  2  0
 30 28  1  0
M  END
$$$$
