SEW.pdb
     RDKit          3D

 30 31  0  0  1  0  0  0  0  0999 V2000
   28.4693  -17.0831  -15.1848 O   0  0  0  0  0  0  0  0  0  0  0  0
   27.8584  -17.4982  -16.3728 C   0  0  0  0  0  0  0  0  0  0  0  0
   27.4824  -18.9402  -16.3044 C   0  0  2  0  0  0  0  0  0  0  0  0
   26.9219  -19.2970  -17.6069 N   0  0  0  0  0  0  0  0  0  0  0  0
   26.5022  -19.1724  -15.2283 C   0  0  0  0  0  0  0  0  0  0  0  0
   25.5519  -18.3137  -15.1322 O   0  0  0  0  0  0  0  0  0  0  0  0
   26.6155  -20.2930  -14.3632 N   0  0  0  0  0  0  0  0  0  0  0  0
   25.6124  -20.5842  -13.4050 C   0  0  1  0  0  0  0  0  0  0  0  0
   24.4621  -21.4102  -13.7818 C   0  0  0  0  0  0  0  0  0  0  0  0
   24.7188  -22.6371  -14.5795 C   0  0  0  0  0  0  0  0  0  0  0  0
   24.0936  -23.8714  -14.1444 C   0  0  0  0  0  0  0  0  0  0  0  0
   23.2990  -23.8566  -13.1528 O   0  0  0  0  0  0  0  0  0  0  0  0
   26.2435  -20.8987  -12.0917 C   0  0  0  0  0  0  0  0  0  0  0  0
   27.1269  -21.7809  -11.9826 O   0  0  0  0  0  0  0  0  0  0  0  0
   24.3194  -25.0870  -14.7571 O   0  0  0  0  0  0  0  0  0  0  0  0
   25.9122  -20.2468  -10.8779 N   0  0  0  0  0  0  0  0  0  0  0  0
   26.3825  -20.6619   -9.5729 C   0  0  1  0  0  0  0  0  0  0  0  0
   27.2098  -19.6244   -8.8941 C   0  0  0  0  0  0  0  0  0  0  0  0
   28.0590  -20.2752   -7.8675 C   0  0  0  0  0  0  0  0  0  0  0  0
   28.8828  -21.3955   -7.9744 C   0  0  0  0  0  0  0  0  0  0  0  0
   29.4742  -21.6651   -6.8151 N   0  0  0  0  0  0  0  0  0  0  0  0
   29.0803  -20.7608   -5.9112 C   0  0  0  0  0  0  0  0  0  0  0  0
   29.3808  -20.5766   -4.5750 C   0  0  0  0  0  0  0  0  0  0  0  0
   28.8159  -19.5442   -3.8855 C   0  0  0  0  0  0  0  0  0  0  0  0
   27.9517  -18.6893   -4.5128 C   0  0  0  0  0  0  0  0  0  0  0  0
   27.6297  -18.8436   -5.8450 C   0  0  0  0  0  0  0  0  0  0  0  0
   28.2077  -19.8904   -6.5288 C   0  0  0  0  0  0  0  0  0  0  0  0
   25.2153  -20.9779   -8.7407 C   0  0  0  0  0  0  0  0  0  0  0  0
   24.1212  -20.4202   -8.9535 O   0  0  0  0  0  0  0  0  0  0  0  0
   25.3230  -21.8933   -7.7186 O   0  0  0  0  0  0  0  0  0  0  0  0
  1  2  1  0
  3  2  1  0
  3  5  1  0
  3  4  1  6
  5  6  2  0
  7  5  1  0
  7  8  1  0
  8  9  1  6
  9 10  1  0
 10 11  1  0
 11 12  2  0
 11 15  1  0
 13  8  1  0
 13 14  2  0
 16 13  1  0
 17 16  1  0
 17 18  1  1
 19 18  1  0
 19 27  1  0
 20 21  1  0
 20 19  2  0
 21 22  1  0
 22 23  1  0
 22 27  2  0
 23 24  2  0
 24 25  1  0
 26 25  2  0
 27 26  1  0
 28 17  1  0
 29 28  2  0
 30 28  1  0
M  END
$$$$
