SEW.pdb
     RDKit          3D

 30 31  0  0  1  0  0  0  0  0999 V2000
   29.9257  -21.5900  -13.9737 O   0  0  0  0  0  0  0  0  0  0  0  0
   29.3199  -22.2767  -15.0312 C   0  0  0  0  0  0  0  0  0  0  0  0
   28.2496  -21.4504  -15.6611 C   0  0  2  0  0  0  0  0  0  0  0  0
   28.9153  -20.3590  -16.3708 N   0  0  0  0  0  0  0  0  0  0  0  0
   27.3260  -20.9270  -14.6385 C   0  0  0  0  0  0  0  0  0  0  0  0
   27.3535  -19.6573  -14.4464 O   0  0  0  0  0  0  0  0  0  0  0  0
   26.4570  -21.7935  -13.9236 N   0  0  0  0  0  0  0  0  0  0  0  0
   25.3165  -21.2933  -13.2468 C   0  0  1  0  0  0  0  0  0  0  0  0
   23.9850  -21.4697  -13.8331 C   0  0  0  0  0  0  0  0  0  0  0  0
   22.8796  -20.6229  -13.3150 C   0  0  0  0  0  0  0  0  0  0  0  0
   22.8347  -19.2355  -13.7350 C   0  0  0  0  0  0  0  0  0  0  0  0
   22.4522  -18.3436  -12.9145 O   0  0  0  0  0  0  0  0  0  0  0  0
   25.4323  -21.5716  -11.7869 C   0  0  0  0  0  0  0  0  0  0  0  0
   25.5311  -22.7411  -11.3476 O   0  0  0  0  0  0  0  0  0  0  0  0
   23.1885  -18.8201  -15.0025 O   0  0  0  0  0  0  0  0  0  0  0  0
   25.4412  -20.5667  -10.7878 N   0  0  0  0  0  0  0  0  0  0  0  0
   25.4195  -20.8300   -9.3642 C   0  0  1  0  0  0  0  0  0  0  0  0
   26.0549  -19.7469   -8.5612 C   0  0  0  0  0  0  0  0  0  0  0  0
   27.4437  -20.1427   -8.2246 C   0  0  0  0  0  0  0  0  0  0  0  0
   28.3678  -20.8704   -8.9741 C   0  0  0  0  0  0  0  0  0  0  0  0
   29.5090  -21.0200   -8.3097 N   0  0  0  0  0  0  0  0  0  0  0  0
   29.3970  -20.4150   -7.1216 C   0  0  0  0  0  0  0  0  0  0  0  0
   30.2663  -20.2674   -6.0576 C   0  0  0  0  0  0  0  0  0  0  0  0
   29.8716  -19.5848   -4.9447 C   0  0  0  0  0  0  0  0  0  0  0  0
   28.6165  -19.0449   -4.8779 C   0  0  0  0  0  0  0  0  0  0  0  0
   27.7235  -19.1730   -5.9212 C   0  0  0  0  0  0  0  0  0  0  0  0
   28.1357  -19.8647   -7.0388 C   0  0  0  0  0  0  0  0  0  0  0  0
   24.0218  -20.9926   -8.9461 C   0  0  0  0  0  0  0  0  0  0  0  0
   23.0941  -20.6559   -9.7072 O   0  0  0  0  0  0  0  0  0  0  0  0
   23.7276  -21.5187   -7.7088 O   0  0  0  0  0  0  0  0  0  0  0  0
  1  2  1  0
  3  2  1  0
  3  5  1  0
  3  4  1  1
  5  6  2  0
  7  5  1  0
  7  8  1  0
  8  9  1  6
  9 10  1  0
 10 11  1  0
 11 12  2  0
 11 15  1  0
 13  8  1  0
 13 14  2  0
 16 13  1  0
 17 16  1  0
 17 18  1  1
 19 18  1  0
 19 27  1  0
 20 21  1  0
 20 19  2  0
 21 22  1  0
 22 23  1  0
 22 27  2  0
 23 24  2  0
 24 25  1  0
 26 25  2  0
 27 26  1  0
 28 17  1  0
 29 28  2  0
 30 28  1  0
M  END
$$$$
