SEW.pdb
     RDKit          3D

 30 31  0  0  1  0  0  0  0  0999 V2000
   22.7729  -32.5503  -11.2864 O   0  0  0  0  0  0  0  0  0  0  0  0
   23.9279  -31.9181  -10.8139 C   0  0  0  0  0  0  0  0  0  0  0  0
   25.0874  -32.8567  -10.8113 C   0  0  2  0  0  0  0  0  0  0  0  0
   25.0673  -33.5630  -12.0915 N   0  0  0  0  0  0  0  0  0  0  0  0
   24.9882  -33.8038   -9.6862 C   0  0  0  0  0  0  0  0  0  0  0  0
   24.3812  -34.9096   -9.9279 O   0  0  0  0  0  0  0  0  0  0  0  0
   25.5468  -33.4954   -8.4173 N   0  0  0  0  0  0  0  0  0  0  0  0
   25.4623  -34.4093   -7.3372 C   0  0  1  0  0  0  0  0  0  0  0  0
   26.5088  -35.4185   -7.1525 C   0  0  0  0  0  0  0  0  0  0  0  0
   26.3861  -36.3434   -5.9963 C   0  0  0  0  0  0  0  0  0  0  0  0
   27.4162  -37.3493   -5.8209 C   0  0  0  0  0  0  0  0  0  0  0  0
   27.0928  -38.5775   -5.7771 O   0  0  0  0  0  0  0  0  0  0  0  0
   25.0129  -33.6979   -6.1068 C   0  0  0  0  0  0  0  0  0  0  0  0
   25.8179  -33.0675   -5.3821 O   0  0  0  0  0  0  0  0  0  0  0  0
   28.7554  -37.0421   -5.6935 O   0  0  0  0  0  0  0  0  0  0  0  0
   23.6702  -33.6691   -5.6549 N   0  0  0  0  0  0  0  0  0  0  0  0
   23.2058  -32.8960   -4.5221 C   0  0  1  0  0  0  0  0  0  0  0  0
   21.7430  -32.6137   -4.5691 C   0  0  0  0  0  0  0  0  0  0  0  0
   21.0001  -33.8970   -4.5603 C   0  0  0  0  0  0  0  0  0  0  0  0
   20.9792  -34.9062   -3.5979 C   0  0  0  0  0  0  0  0  0  0  0  0
   20.1865  -35.9054   -3.9716 N   0  0  0  0  0  0  0  0  0  0  0  0
   19.6602  -35.6126   -5.1663 C   0  0  0  0  0  0  0  0  0  0  0  0
   18.7885  -36.2880   -5.9990 C   0  0  0  0  0  0  0  0  0  0  0  0
   18.4163  -35.7349   -7.1890 C   0  0  0  0  0  0  0  0  0  0  0  0
   18.9037  -34.5123   -7.5616 C   0  0  0  0  0  0  0  0  0  0  0  0
   19.7752  -33.8107   -6.7550 C   0  0  0  0  0  0  0  0  0  0  0  0
   20.1422  -34.3813   -5.5562 C   0  0  0  0  0  0  0  0  0  0  0  0
   23.5211  -33.6388   -3.2959 C   0  0  0  0  0  0  0  0  0  0  0  0
   23.8790  -34.8311   -3.3569 O   0  0  0  0  0  0  0  0  0  0  0  0
   23.4230  -33.0216   -2.0697 O   0  0  0  0  0  0  0  0  0  0  0  0
  1  2  1  0
  3  2  1  0
  3  5  1  0
  3  4  1  6
  5  6  2  0
  7  5  1  0
  7  8  1  0
  8  9  1  1
  9 10  1  0
 10 11  1  0
 11 12  2  0
 11 15  1  0
 13  8  1  0
 13 14  2  0
 16 13  1  0
 17 16  1  0
 17 18  1  6
 19 18  1  0
 19 27  1  0
 20 21  1  0
 20 19  2  0
 21 22  1  0
 22 23  1  0
 22 27  2  0
 23 24  2  0
 24 25  1  0
 26 25  2  0
 27 26  1  0
 28 17  1  0
 29 28  2  0
 30 28  1  0
M  END
$$$$
