KAF.pdb
     RDKit          3D

 26 26  0  0  1  0  0  0  0  0999 V2000
   25.4763  -18.9317  -15.4726 N   0  0  0  0  0  0  0  0  0  0  0  0
   26.5007  -19.0577  -14.4262 C   0  0  1  0  0  0  0  0  0  0  0  0
   27.3934  -17.8499  -14.5728 C   0  0  0  0  0  0  0  0  0  0  0  0
   28.3454  -18.0517  -15.6948 C   0  0  0  0  0  0  0  0  0  0  0  0
   28.5570  -16.7723  -16.5031 C   0  0  0  0  0  0  0  0  0  0  0  0
   29.6792  -17.0712  -17.4796 C   0  0  0  0  0  0  0  0  0  0  0  0
   29.8972  -15.9110  -18.2943 N   0  0  0  0  0  0  0  0  0  0  0  0
   25.8706  -19.0187  -13.0887 C   0  0  0  0  0  0  0  0  0  0  0  0
   25.2403  -18.0199  -12.6764 O   0  0  0  0  0  0  0  0  0  0  0  0
   24.2134  -21.1760  -10.8241 C   0  0  0  0  0  0  0  0  0  0  0  0
   25.3224  -20.1316  -10.8842 C   0  0  2  0  0  0  0  0  0  0  0  0
   25.9590  -20.1496  -12.1914 N   0  0  0  0  0  0  0  0  0  0  0  0
   26.3481  -20.4425   -9.8612 C   0  0  0  0  0  0  0  0  0  0  0  0
   27.2334  -21.3190  -10.0540 O   0  0  0  0  0  0  0  0  0  0  0  0
   26.3879  -19.7692   -8.6090 N   0  0  0  0  0  0  0  0  0  0  0  0
   27.3233  -20.2155   -7.5639 C   0  0  1  0  0  0  0  0  0  0  0  0
   27.7243  -18.9546   -6.8264 C   0  0  0  0  0  0  0  0  0  0  0  0
   28.4103  -19.1965   -5.5548 C   0  0  0  0  0  0  0  0  0  0  0  0
   27.7777  -18.9608   -4.3576 C   0  0  0  0  0  0  0  0  0  0  0  0
   28.4125  -19.1873   -3.1432 C   0  0  0  0  0  0  0  0  0  0  0  0
   29.7134  -19.6618   -3.1485 C   0  0  0  0  0  0  0  0  0  0  0  0
   30.3323  -19.8925   -4.3534 C   0  0  0  0  0  0  0  0  0  0  0  0
   29.7009  -19.6673   -5.5604 C   0  0  0  0  0  0  0  0  0  0  0  0
   26.6277  -21.1970   -6.7149 C   0  0  0  0  0  0  0  0  0  0  0  0
   25.3701  -21.2037   -6.7178 O   0  0  0  0  0  0  0  0  0  0  0  0
   27.2721  -22.1221   -5.9058 O   0  0  0  0  0  0  0  0  0  0  0  0
  2  3  1  0
  2  1  1  6
  4  3  1  0
  5  4  1  0
  6  5  1  0
  7  6  1  0
  8  9  2  0
  8  2  1  0
 11 10  1  6
 11 12  1  0
 12  8  1  0
 13 14  2  0
 13 11  1  0
 15 13  1  0
 16 17  1  1
 16 15  1  0
 18 17  1  0
 18 23  2  0
 19 18  1  0
 20 19  2  0
 20 21  1  0
 21 22  2  0
 22 23  1  0
 24 16  1  0
 25 24  2  0
 26 24  1  0
M  END
$$$$
