KAF.pdb
     RDKit          3D

 26 26  0  0  1  0  0  0  0  0999 V2000
   23.8669  -18.7760  -15.9924 N   0  0  0  0  0  0  0  0  0  0  0  0
   23.1346  -20.0174  -15.7043 C   0  0  1  0  0  0  0  0  0  0  0  0
   22.4225  -20.3846  -16.9830 C   0  0  0  0  0  0  0  0  0  0  0  0
   21.5191  -19.2817  -17.3994 C   0  0  0  0  0  0  0  0  0  0  0  0
   20.2829  -19.1865  -16.5064 C   0  0  0  0  0  0  0  0  0  0  0  0
   19.3398  -18.2168  -17.1939 C   0  0  0  0  0  0  0  0  0  0  0  0
   18.1808  -18.0425  -16.3670 N   0  0  0  0  0  0  0  0  0  0  0  0
   24.0822  -21.1009  -15.3644 C   0  0  0  0  0  0  0  0  0  0  0  0
   23.6989  -22.2520  -15.0594 O   0  0  0  0  0  0  0  0  0  0  0  0
   27.8683  -21.5085  -15.3477 C   0  0  0  0  0  0  0  0  0  0  0  0
   26.4471  -21.9042  -14.9634 C   0  0  2  0  0  0  0  0  0  0  0  0
   25.5100  -20.8699  -15.3711 N   0  0  0  0  0  0  0  0  0  0  0  0
   26.3595  -22.0600  -13.4926 C   0  0  0  0  0  0  0  0  0  0  0  0
   26.3225  -23.1956  -12.9465 O   0  0  0  0  0  0  0  0  0  0  0  0
   26.3127  -20.9377  -12.6201 N   0  0  0  0  0  0  0  0  0  0  0  0
   26.4645  -21.1282  -11.1686 C   0  0  1  0  0  0  0  0  0  0  0  0
   27.5125  -20.1202  -10.7441 C   0  0  0  0  0  0  0  0  0  0  0  0
   27.7200  -20.0452   -9.2958 C   0  0  0  0  0  0  0  0  0  0  0  0
   26.9507  -19.2147   -8.5164 C   0  0  0  0  0  0  0  0  0  0  0  0
   27.1325  -19.1335   -7.1418 C   0  0  0  0  0  0  0  0  0  0  0  0
   28.1143  -19.9114   -6.5514 C   0  0  0  0  0  0  0  0  0  0  0  0
   28.8751  -20.7368   -7.3440 C   0  0  0  0  0  0  0  0  0  0  0  0
   28.6940  -20.8172   -8.7103 C   0  0  0  0  0  0  0  0  0  0  0  0
   25.1515  -20.9120  -10.5382 C   0  0  0  0  0  0  0  0  0  0  0  0
   24.3144  -20.1883  -11.1357 O   0  0  0  0  0  0  0  0  0  0  0  0
   24.7733  -21.4576   -9.3196 O   0  0  0  0  0  0  0  0  0  0  0  0
  2  3  1  0
  2  1  1  6
  4  3  1  0
  5  4  1  0
  6  5  1  0
  7  6  1  0
  8  9  2  0
  8  2  1  0
 11 10  1  1
 11 12  1  0
 12  8  1  0
 13 14  2  0
 13 11  1  0
 15 13  1  0
 16 17  1  1
 16 15  1  0
 18 17  1  0
 18 23  2  0
 19 18  1  0
 20 19  2  0
 20 21  1  0
 21 22  2  0
 22 23  1  0
 24 16  1  0
 25 24  2  0
 26 24  1  0
M  END
$$$$
