KAF.pdb
     RDKit          3D

 26 26  0  0  1  0  0  0  0  0999 V2000
   27.3674  -20.4771  -16.3458 N   0  0  0  0  0  0  0  0  0  0  0  0
   27.3138  -21.2281  -15.0834 C   0  0  1  0  0  0  0  0  0  0  0  0
   28.7462  -21.5404  -14.7260 C   0  0  0  0  0  0  0  0  0  0  0  0
   29.2043  -22.7472  -15.4607 C   0  0  0  0  0  0  0  0  0  0  0  0
   30.1253  -22.3919  -16.6271 C   0  0  0  0  0  0  0  0  0  0  0  0
   30.5175  -23.7087  -17.2709 C   0  0  0  0  0  0  0  0  0  0  0  0
   31.4772  -24.3617  -16.4282 N   0  0  0  0  0  0  0  0  0  0  0  0
   26.7338  -20.3867  -14.0142 C   0  0  0  0  0  0  0  0  0  0  0  0
   26.9807  -19.1641  -13.9187 O   0  0  0  0  0  0  0  0  0  0  0  0
   23.7599  -19.8917  -12.3168 C   0  0  0  0  0  0  0  0  0  0  0  0
   25.2319  -20.1248  -11.9956 C   0  0  2  0  0  0  0  0  0  0  0  0
   25.8454  -20.9516  -13.0225 N   0  0  0  0  0  0  0  0  0  0  0  0
   25.3473  -20.8302  -10.6978 C   0  0  0  0  0  0  0  0  0  0  0  0
   25.3601  -22.0887  -10.6252 O   0  0  0  0  0  0  0  0  0  0  0  0
   25.4498  -20.1254   -9.4666 N   0  0  0  0  0  0  0  0  0  0  0  0
   25.3905  -20.8595   -8.1923 C   0  0  1  0  0  0  0  0  0  0  0  0
   25.7778  -19.8475   -7.1337 C   0  0  0  0  0  0  0  0  0  0  0  0
   27.2159  -19.7861   -6.8610 C   0  0  0  0  0  0  0  0  0  0  0  0
   27.7525  -18.7440   -6.1431 C   0  0  0  0  0  0  0  0  0  0  0  0
   29.1130  -18.6718   -5.8734 C   0  0  0  0  0  0  0  0  0  0  0  0
   29.9408  -19.6778   -6.3428 C   0  0  0  0  0  0  0  0  0  0  0  0
   29.3893  -20.7129   -7.0589 C   0  0  0  0  0  0  0  0  0  0  0  0
   28.0368  -20.7844   -7.3267 C   0  0  0  0  0  0  0  0  0  0  0  0
   24.0253  -21.3866   -8.0301 C   0  0  0  0  0  0  0  0  0  0  0  0
   23.0916  -20.8304   -8.6629 O   0  0  0  0  0  0  0  0  0  0  0  0
   23.6978  -22.4642   -7.2195 O   0  0  0  0  0  0  0  0  0  0  0  0
  2  3  1  0
  2  1  1  6
  4  3  1  0
  5  4  1  0
  6  5  1  0
  7  6  1  0
  8  9  2  0
  8  2  1  0
 11 10  1  6
 11 12  1  0
 12  8  1  0
 13 14  2  0
 13 11  1  0
 15 13  1  0
 16 17  1  1
 16 15  1  0
 18 17  1  0
 18 23  2  0
 19 18  1  0
 20 19  2  0
 20 21  1  0
 21 22  2  0
 22 23  1  0
 24 16  1  0
 25 24  2  0
 26 24  1  0
M  END
$$$$
