KAF.pdb
     RDKit          3D

 26 26  0  0  1  0  0  0  0  0999 V2000
   25.8243  -17.1147  -15.0158 N   0  0  0  0  0  0  0  0  0  0  0  0
   25.6655  -18.3283  -15.8295 C   0  0  1  0  0  0  0  0  0  0  0  0
   26.2878  -18.0142  -17.1678 C   0  0  0  0  0  0  0  0  0  0  0  0
   25.6802  -16.7845  -17.7375 C   0  0  0  0  0  0  0  0  0  0  0  0
   24.5694  -17.1049  -18.7367 C   0  0  0  0  0  0  0  0  0  0  0  0
   25.2633  -17.4774  -20.0336 C   0  0  0  0  0  0  0  0  0  0  0  0
   24.2635  -17.7366  -21.0289 N   0  0  0  0  0  0  0  0  0  0  0  0
   26.4062  -19.4527  -15.2174 C   0  0  0  0  0  0  0  0  0  0  0  0
   26.3765  -20.6095  -15.6929 O   0  0  0  0  0  0  0  0  0  0  0  0
   29.1721  -19.9169  -12.7365 C   0  0  0  0  0  0  0  0  0  0  0  0
   27.8587  -20.3728  -13.3621 C   0  0  2  0  0  0  0  0  0  0  0  0
   27.2056  -19.2574  -14.0280 N   0  0  0  0  0  0  0  0  0  0  0  0
   26.9559  -20.8761  -12.3005 C   0  0  0  0  0  0  0  0  0  0  0  0
   27.2443  -21.8905  -11.6098 O   0  0  0  0  0  0  0  0  0  0  0  0
   25.7174  -20.2420  -12.0052 N   0  0  0  0  0  0  0  0  0  0  0  0
   24.8149  -20.8246  -10.9990 C   0  0  1  0  0  0  0  0  0  0  0  0
   24.7836  -19.8198   -9.8658 C   0  0  0  0  0  0  0  0  0  0  0  0
   25.8757  -19.9704   -8.9010 C   0  0  0  0  0  0  0  0  0  0  0  0
   26.1496  -21.1915   -8.3326 C   0  0  0  0  0  0  0  0  0  0  0  0
   27.1828  -21.3523   -7.4184 C   0  0  0  0  0  0  0  0  0  0  0  0
   27.9496  -20.2508   -7.0775 C   0  0  0  0  0  0  0  0  0  0  0  0
   27.6634  -19.0368   -7.6542 C   0  0  0  0  0  0  0  0  0  0  0  0
   26.6364  -18.8775   -8.5630 C   0  0  0  0  0  0  0  0  0  0  0  0
   23.5023  -21.0396  -11.6304 C   0  0  0  0  0  0  0  0  0  0  0  0
   23.3450  -20.6685  -12.8217 O   0  0  0  0  0  0  0  0  0  0  0  0
   22.4191  -21.6289  -10.9940 O   0  0  0  0  0  0  0  0  0  0  0  0
  2  3  1  0
  2  1  1  1
  4  3  1  0
  5  4  1  0
  6  5  1  0
  7  6  1  0
  8  9  2  0
  8  2  1  0
 11 10  1  1
 11 12  1  0
 12  8  1  0
 13 14  2  0
 13 11  1  0
 15 13  1  0
 16 17  1  1
 16 15  1  0
 18 17  1  0
 18 23  2  0
 19 18  1  0
 20 19  2  0
 20 21  1  0
 21 22  2  0
 22 23  1  0
 24 16  1  0
 25 24  2  0
 26 24  1  0
M  END
$$$$
