KAF.pdb
     RDKit          3D

 26 26  0  0  1  0  0  0  0  0999 V2000
   27.9065  -20.6182  -14.7122 N   0  0  0  0  0  0  0  0  0  0  0  0
   28.1682  -19.3994  -13.9336 C   0  0  1  0  0  0  0  0  0  0  0  0
   27.9145  -18.2456  -14.8724 C   0  0  0  0  0  0  0  0  0  0  0  0
   27.9207  -18.7211  -16.2794 C   0  0  0  0  0  0  0  0  0  0  0  0
   29.3063  -18.6117  -16.9144 C   0  0  0  0  0  0  0  0  0  0  0  0
   29.1052  -18.8205  -18.4038 C   0  0  0  0  0  0  0  0  0  0  0  0
   29.6257  -17.6794  -19.0997 N   0  0  0  0  0  0  0  0  0  0  0  0
   27.2202  -19.3041  -12.8023 C   0  0  0  0  0  0  0  0  0  0  0  0
   27.1047  -18.2661  -12.1136 O   0  0  0  0  0  0  0  0  0  0  0  0
   24.2838  -21.2560  -11.4965 C   0  0  0  0  0  0  0  0  0  0  0  0
   25.5061  -20.3713  -11.2786 C   0  0  2  0  0  0  0  0  0  0  0  0
   26.3771  -20.4226  -12.4418 N   0  0  0  0  0  0  0  0  0  0  0  0
   26.2659  -20.8610  -10.1047 C   0  0  0  0  0  0  0  0  0  0  0  0
   27.4274  -21.3377  -10.2176 O   0  0  0  0  0  0  0  0  0  0  0  0
   25.7254  -20.8192   -8.7897 N   0  0  0  0  0  0  0  0  0  0  0  0
   26.5840  -21.1180   -7.6322 C   0  0  1  0  0  0  0  0  0  0  0  0
   27.6562  -20.0481   -7.6475 C   0  0  0  0  0  0  0  0  0  0  0  0
   28.4303  -19.9576   -6.4071 C   0  0  0  0  0  0  0  0  0  0  0  0
   28.2108  -18.9370   -5.5130 C   0  0  0  0  0  0  0  0  0  0  0  0
   28.9339  -18.8379   -4.3314 C   0  0  0  0  0  0  0  0  0  0  0  0
   29.8966  -19.7943   -4.0558 C   0  0  0  0  0  0  0  0  0  0  0  0
   30.1043  -20.8085   -4.9595 C   0  0  0  0  0  0  0  0  0  0  0  0
   29.3853  -20.9067   -6.1340 C   0  0  0  0  0  0  0  0  0  0  0  0
   25.7462  -21.0933   -6.4216 C   0  0  0  0  0  0  0  0  0  0  0  0
   24.6783  -20.4297   -6.4481 O   0  0  0  0  0  0  0  0  0  0  0  0
   26.0587  -21.7586   -5.2445 O   0  0  0  0  0  0  0  0  0  0  0  0
  2  3  1  0
  2  1  1  6
  4  3  1  0
  5  4  1  0
  6  5  1  0
  7  6  1  0
  8  9  2  0
  8  2  1  0
 11 10  1  6
 11 12  1  0
 12  8  1  0
 13 14  2  0
 13 11  1  0
 15 13  1  0
 16 17  1  1
 16 15  1  0
 18 17  1  0
 18 23  2  0
 19 18  1  0
 20 19  2  0
 20 21  1  0
 21 22  2  0
 22 23  1  0
 24 16  1  0
 25 24  2  0
 26 24  1  0
M  END
$$$$
