KAF.pdb
     RDKit          3D

 26 26  0  0  1  0  0  0  0  0999 V2000
   24.4228  -36.8305  -13.9264 N   0  0  0  0  0  0  0  0  0  0  0  0
   25.5507  -36.7828  -12.9851 C   0  0  1  0  0  0  0  0  0  0  0  0
   25.9243  -35.3262  -12.8597 C   0  0  0  0  0  0  0  0  0  0  0  0
   26.7984  -34.9239  -13.9911 C   0  0  0  0  0  0  0  0  0  0  0  0
   27.3083  -33.4915  -13.8392 C   0  0  0  0  0  0  0  0  0  0  0  0
   28.2315  -33.2453  -15.0180 C   0  0  0  0  0  0  0  0  0  0  0  0
   28.8022  -31.9360  -14.8859 N   0  0  0  0  0  0  0  0  0  0  0  0
   25.1272  -37.2770  -11.6570 C   0  0  0  0  0  0  0  0  0  0  0  0
   24.0332  -36.9554  -11.1425 O   0  0  0  0  0  0  0  0  0  0  0  0
   26.0282  -40.0443   -9.3292 C   0  0  0  0  0  0  0  0  0  0  0  0
   25.5999  -38.5983   -9.5523 C   0  0  2  0  0  0  0  0  0  0  0  0
   25.9727  -38.1644  -10.8891 N   0  0  0  0  0  0  0  0  0  0  0  0
   26.2841  -37.7246   -8.5704 C   0  0  0  0  0  0  0  0  0  0  0  0
   27.3102  -37.0592   -8.8760 O   0  0  0  0  0  0  0  0  0  0  0  0
   25.8196  -37.5908   -7.2327 N   0  0  0  0  0  0  0  0  0  0  0  0
   26.5026  -36.6741   -6.3057 C   0  0  1  0  0  0  0  0  0  0  0  0
   26.3278  -35.2963   -6.9104 C   0  0  0  0  0  0  0  0  0  0  0  0
   26.6568  -34.1963   -6.0005 C   0  0  0  0  0  0  0  0  0  0  0  0
   25.6707  -33.5412   -5.3023 C   0  0  0  0  0  0  0  0  0  0  0  0
   25.9655  -32.4982   -4.4338 C   0  0  0  0  0  0  0  0  0  0  0  0
   27.2869  -32.1162   -4.2738 C   0  0  0  0  0  0  0  0  0  0  0  0
   28.2614  -32.7809   -4.9787 C   0  0  0  0  0  0  0  0  0  0  0  0
   27.9679  -33.8176   -5.8420 C   0  0  0  0  0  0  0  0  0  0  0  0
   25.8807  -36.8168   -4.9787 C   0  0  0  0  0  0  0  0  0  0  0  0
   24.7088  -37.2685   -4.9141 O   0  0  0  0  0  0  0  0  0  0  0  0
   26.5063  -36.4837   -3.7856 O   0  0  0  0  0  0  0  0  0  0  0  0
  2  3  1  0
  2  1  1  6
  4  3  1  0
  5  4  1  0
  6  5  1  0
  7  6  1  0
  8  9  2  0
  8  2  1  0
 11 10  1  1
 11 12  1  0
 12  8  1  0
 13 14  2  0
 13 11  1  0
 15 13  1  0
 16 17  1  6
 16 15  1  0
 18 17  1  0
 18 23  2  0
 19 18  1  0
 20 19  2  0
 20 21  1  0
 21 22  2  0
 22 23  1  0
 24 16  1  0
 25 24  2  0
 26 24  1  0
M  END
$$$$
