KAF.pdb
     RDKit          3D

 26 26  0  0  1  0  0  0  0  0999 V2000
   27.8716  -20.3856  -16.4366 N   0  0  0  0  0  0  0  0  0  0  0  0
   27.6693  -19.8132  -15.0981 C   0  0  1  0  0  0  0  0  0  0  0  0
   27.1013  -18.4329  -15.3193 C   0  0  0  0  0  0  0  0  0  0  0  0
   27.1241  -18.0970  -16.7659 C   0  0  0  0  0  0  0  0  0  0  0  0
   28.3725  -17.3038  -17.1497 C   0  0  0  0  0  0  0  0  0  0  0  0
   28.1210  -16.7726  -18.5485 C   0  0  0  0  0  0  0  0  0  0  0  0
   29.2931  -16.0731  -18.9894 N   0  0  0  0  0  0  0  0  0  0  0  0
   26.6805  -20.6149  -14.3451 C   0  0  0  0  0  0  0  0  0  0  0  0
   25.6874  -21.1394  -14.8961 O   0  0  0  0  0  0  0  0  0  0  0  0
   26.2688  -21.7214  -10.7164 C   0  0  0  0  0  0  0  0  0  0  0  0
   25.7940  -21.5025  -12.1485 C   0  0  2  0  0  0  0  0  0  0  0  0
   26.8240  -20.8277  -12.9217 N   0  0  0  0  0  0  0  0  0  0  0  0
   24.5823  -20.6499  -12.1409 C   0  0  0  0  0  0  0  0  0  0  0  0
   24.5487  -19.5496  -11.5264 O   0  0  0  0  0  0  0  0  0  0  0  0
   23.3942  -21.0274  -12.8258 N   0  0  0  0  0  0  0  0  0  0  0  0
   22.1822  -20.2010  -12.7053 C   0  0  1  0  0  0  0  0  0  0  0  0
   22.5400  -18.8768  -13.3480 C   0  0  0  0  0  0  0  0  0  0  0  0
   22.7847  -18.9574  -14.7902 C   0  0  0  0  0  0  0  0  0  0  0  0
   21.7602  -19.2340  -15.6637 C   0  0  0  0  0  0  0  0  0  0  0  0
   21.9743  -19.3114  -17.0338 C   0  0  0  0  0  0  0  0  0  0  0  0
   23.2532  -19.1034  -17.5223 C   0  0  0  0  0  0  0  0  0  0  0  0
   24.2669  -18.8278  -16.6364 C   0  0  0  0  0  0  0  0  0  0  0  0
   24.0537  -18.7509  -15.2745 C   0  0  0  0  0  0  0  0  0  0  0  0
   21.0792  -20.9038  -13.3818 C   0  0  0  0  0  0  0  0  0  0  0  0
   21.3411  -21.9623  -14.0083 O   0  0  0  0  0  0  0  0  0  0  0  0
   19.7602  -20.4727  -13.3741 O   0  0  0  0  0  0  0  0  0  0  0  0
  2  3  1  0
  2  1  1  6
  4  3  1  0
  5  4  1  0
  6  5  1  0
  7  6  1  0
  8  9  2  0
  8  2  1  0
 11 10  1  1
 11 12  1  0
 12  8  1  0
 13 14  2  0
 13 11  1  0
 15 13  1  0
 16 17  1  6
 16 15  1  0
 18 17  1  0
 18 23  2  0
 19 18  1  0
 20 19  2  0
 20 21  1  0
 21 22  2  0
 22 23  1  0
 24 16  1  0
 25 24  2  0
 26 24  1  0
M  END
$$$$
