KAF.pdb
     RDKit          3D

 26 26  0  0  1  0  0  0  0  0999 V2000
   26.1285  -21.8366  -15.1863 N   0  0  0  0  0  0  0  0  0  0  0  0
   27.2272  -21.1903  -14.4546 C   0  0  1  0  0  0  0  0  0  0  0  0
   27.7503  -20.1066  -15.3649 C   0  0  0  0  0  0  0  0  0  0  0  0
   27.8674  -20.6189  -16.7541 C   0  0  0  0  0  0  0  0  0  0  0  0
   29.1594  -21.4066  -16.9667 C   0  0  0  0  0  0  0  0  0  0  0  0
   29.2353  -21.6988  -18.4536 C   0  0  0  0  0  0  0  0  0  0  0  0
   30.3871  -22.5173  -18.7005 N   0  0  0  0  0  0  0  0  0  0  0  0
   26.7151  -20.5609  -13.2180 C   0  0  0  0  0  0  0  0  0  0  0  0
   27.3813  -19.7239  -12.5694 O   0  0  0  0  0  0  0  0  0  0  0  0
   23.4009  -20.5974  -11.3358 C   0  0  0  0  0  0  0  0  0  0  0  0
   24.8746  -20.2485  -11.5110 C   0  0  2  0  0  0  0  0  0  0  0  0
   25.4053  -20.8924  -12.7018 N   0  0  0  0  0  0  0  0  0  0  0  0
   25.6387  -20.7340  -10.3381 C   0  0  0  0  0  0  0  0  0  0  0  0
   25.9566  -21.9471  -10.2089 O   0  0  0  0  0  0  0  0  0  0  0  0
   26.0535  -19.8580   -9.2971 N   0  0  0  0  0  0  0  0  0  0  0  0
   26.7682  -20.3933   -8.1271 C   0  0  1  0  0  0  0  0  0  0  0  0
   27.7425  -19.3050   -7.7260 C   0  0  0  0  0  0  0  0  0  0  0  0
   28.3241  -19.4827   -6.3932 C   0  0  0  0  0  0  0  0  0  0  0  0
   27.8183  -18.8068   -5.3085 C   0  0  0  0  0  0  0  0  0  0  0  0
   28.3560  -18.9657   -4.0379 C   0  0  0  0  0  0  0  0  0  0  0  0
   29.4268  -19.8274   -3.8692 C   0  0  0  0  0  0  0  0  0  0  0  0
   29.9211  -20.4959   -4.9633 C   0  0  0  0  0  0  0  0  0  0  0  0
   29.3863  -20.3378   -6.2262 C   0  0  0  0  0  0  0  0  0  0  0  0
   25.7746  -20.7055   -7.0863 C   0  0  0  0  0  0  0  0  0  0  0  0
   24.6669  -20.1111   -7.1210 O   0  0  0  0  0  0  0  0  0  0  0  0
   25.9804  -21.6189   -6.0621 O   0  0  0  0  0  0  0  0  0  0  0  0
  2  3  1  0
  2  1  1  6
  4  3  1  0
  5  4  1  0
  6  5  1  0
  7  6  1  0
  8  9  2  0
  8  2  1  0
 11 10  1  1
 11 12  1  0
 12  8  1  0
 13 14  2  0
 13 11  1  0
 15 13  1  0
 16 17  1  1
 16 15  1  0
 18 17  1  0
 18 23  2  0
 19 18  1  0
 20 19  2  0
 20 21  1  0
 21 22  2  0
 22 23  1  0
 24 16  1  0
 25 24  2  0
 26 24  1  0
M  END
$$$$
