KAM.pdb
     RDKit          3D

 23 22  0  0  1  0  0  0  0  0999 V2000
   12.9464   -8.9471  -11.0280 N   0  0  0  0  0  0  0  0  0  0  0  0
   14.2562   -9.1185  -10.4314 C   0  0  1  0  0  0  0  0  0  0  0  0
   14.9604  -10.2983  -11.0670 C   0  0  0  0  0  0  0  0  0  0  0  0
   14.2827  -11.5972  -10.7655 C   0  0  0  0  0  0  0  0  0  0  0  0
   14.9610  -12.7080  -11.5329 C   0  0  0  0  0  0  0  0  0  0  0  0
   14.2647  -14.0287  -11.2821 C   0  0  0  0  0  0  0  0  0  0  0  0
   14.8295  -15.0936  -12.0786 N   0  0  0  0  0  0  0  0  0  0  0  0
   15.0427   -7.8679  -10.5814 C   0  0  0  0  0  0  0  0  0  0  0  0
   15.1172   -7.2525  -11.6801 O   0  0  0  0  0  0  0  0  0  0  0  0
   16.3453   -5.0963   -8.5071 C   0  0  0  0  0  0  0  0  0  0  0  0
   16.5191   -6.0360   -9.6683 C   0  0  2  0  0  0  0  0  0  0  0  0
   15.7716   -7.2715   -9.4940 N   0  0  0  0  0  0  0  0  0  0  0  0
   17.9517   -6.3118   -9.9615 C   0  0  0  0  0  0  0  0  0  0  0  0
   18.5361   -7.2269   -9.3279 O   0  0  0  0  0  0  0  0  0  0  0  0
   22.3919  -10.0363  -14.2534 C   0  0  0  0  0  0  0  0  0  0  0  0
   20.8324   -9.3349  -13.6997 S   0  0  0  0  0  0  0  0  0  0  0  0
   21.0635   -7.8054  -12.7641 C   0  0  0  0  0  0  0  0  0  0  0  0
   19.7502   -7.2759  -12.2293 C   0  0  0  0  0  0  0  0  0  0  0  0
   19.9815   -5.9856  -11.4335 C   0  0  2  0  0  0  0  0  0  0  0  0
   18.6877   -5.5840  -10.9284 N   0  0  0  0  0  0  0  0  0  0  0  0
   20.5470   -4.9889  -12.3701 C   0  0  0  0  0  0  0  0  0  0  0  0
   19.7533   -4.3459  -13.0999 O   0  0  0  0  0  0  0  0  0  0  0  0
   21.8984   -4.7212  -12.4917 O   0  0  0  0  0  0  0  0  0  0  0  0
  2  1  1  6
  2  8  1  0
  2  3  1  0
  4  3  1  0
  5  4  1  0
  6  5  1  0
  7  6  1  0
  8 12  1  0
  8  9  2  0
 11 10  1  1
 12 11  1  0
 13 14  2  0
 13 11  1  0
 16 17  1  0
 16 15  1  0
 17 18  1  0
 19 18  1  6
 19 20  1  0
 20 13  1  0
 21 19  1  0
 22 21  2  0
 23 21  1  0
M  END
$$$$
