KAM.pdb
     RDKit          3D

 23 22  0  0  1  0  0  0  0  0999 V2000
   27.7807  -21.3477  -15.6562 N   0  0  0  0  0  0  0  0  0  0  0  0
   28.2478  -20.0815  -15.1275 C   0  0  1  0  0  0  0  0  0  0  0  0
   28.3553  -19.0660  -16.2451 C   0  0  0  0  0  0  0  0  0  0  0  0
   28.7228  -19.6932  -17.5524 C   0  0  0  0  0  0  0  0  0  0  0  0
   27.5145  -20.3906  -18.1325 C   0  0  0  0  0  0  0  0  0  0  0  0
   27.8205  -20.9186  -19.5180 C   0  0  0  0  0  0  0  0  0  0  0  0
   26.7366  -21.7190  -20.0393 N   0  0  0  0  0  0  0  0  0  0  0  0
   27.3316  -19.6177  -14.0549 C   0  0  0  0  0  0  0  0  0  0  0  0
   27.4962  -18.5146  -13.4655 O   0  0  0  0  0  0  0  0  0  0  0  0
   23.8981  -19.9750  -12.8554 C   0  0  0  0  0  0  0  0  0  0  0  0
   25.3615  -19.9388  -12.5105 C   0  0  2  0  0  0  0  0  0  0  0  0
   26.1985  -20.3860  -13.6128 N   0  0  0  0  0  0  0  0  0  0  0  0
   25.6665  -20.6925  -11.2643 C   0  0  0  0  0  0  0  0  0  0  0  0
   25.6077  -21.9482  -11.2841 O   0  0  0  0  0  0  0  0  0  0  0  0
   29.6137  -19.5077   -5.4569 C   0  0  0  0  0  0  0  0  0  0  0  0
   27.8350  -19.2960   -5.3094 S   0  0  0  0  0  0  0  0  0  0  0  0
   26.9216  -20.3703   -6.4406 C   0  0  0  0  0  0  0  0  0  0  0  0
   26.8120  -19.7603   -7.8214 C   0  0  0  0  0  0  0  0  0  0  0  0
   26.0849  -20.7203   -8.7708 C   0  0  2  0  0  0  0  0  0  0  0  0
   26.0217  -20.0526  -10.0517 N   0  0  0  0  0  0  0  0  0  0  0  0
   24.7399  -20.9628   -8.2029 C   0  0  0  0  0  0  0  0  0  0  0  0
   23.7868  -20.2588   -8.6177 O   0  0  0  0  0  0  0  0  0  0  0  0
   24.4671  -21.9187   -7.2414 O   0  0  0  0  0  0  0  0  0  0  0  0
  2  1  1  6
  2  8  1  0
  2  3  1  0
  4  3  1  0
  5  4  1  0
  6  5  1  0
  7  6  1  0
  8 12  1  0
  8  9  2  0
 11 10  1  6
 12 11  1  0
 13 14  2  0
 13 11  1  0
 16 17  1  0
 16 15  1  0
 17 18  1  0
 19 18  1  1
 19 20  1  0
 20 13  1  0
 21 19  1  0
 22 21  2  0
 23 21  1  0
M  END
$$$$
