KAM.pdb
     RDKit          3D

 23 22  0  0  1  0  0  0  0  0999 V2000
   16.8923  -10.0659  -17.4661 N   0  0  0  0  0  0  0  0  0  0  0  0
   16.0990  -10.1572  -16.2564 C   0  0  1  0  0  0  0  0  0  0  0  0
   16.4268  -11.4400  -15.5222 C   0  0  0  0  0  0  0  0  0  0  0  0
   15.9986  -12.6564  -16.2799 C   0  0  0  0  0  0  0  0  0  0  0  0
   16.3531  -13.8929  -15.4873 C   0  0  0  0  0  0  0  0  0  0  0  0
   16.0899  -15.1404  -16.3037 C   0  0  0  0  0  0  0  0  0  0  0  0
   16.4172  -16.3414  -15.5702 N   0  0  0  0  0  0  0  0  0  0  0  0
   16.3424   -8.9643  -15.4063 C   0  0  0  0  0  0  0  0  0  0  0  0
   17.4677   -8.3962  -15.3575 O   0  0  0  0  0  0  0  0  0  0  0  0
   14.3585   -6.5163  -13.2956 C   0  0  0  0  0  0  0  0  0  0  0  0
   15.6069   -7.2437  -13.7128 C   0  0  2  0  0  0  0  0  0  0  0  0
   15.3213   -8.3739  -14.5827 N   0  0  0  0  0  0  0  0  0  0  0  0
   16.4346   -7.6582  -12.5478 C   0  0  0  0  0  0  0  0  0  0  0  0
   16.5140   -8.8801  -12.2631 O   0  0  0  0  0  0  0  0  0  0  0  0
   23.1286   -9.0798   -9.9437 C   0  0  0  0  0  0  0  0  0  0  0  0
   21.8979   -8.5555  -11.1441 S   0  0  0  0  0  0  0  0  0  0  0  0
   20.3545   -8.0352  -10.3596 C   0  0  0  0  0  0  0  0  0  0  0  0
   19.3119   -7.6460  -11.3855 C   0  0  0  0  0  0  0  0  0  0  0  0
   18.0574   -7.1040  -10.6897 C   0  0  2  0  0  0  0  0  0  0  0  0
   17.1397   -6.7305  -11.7427 N   0  0  0  0  0  0  0  0  0  0  0  0
   18.4757   -5.9398   -9.8772 C   0  0  0  0  0  0  0  0  0  0  0  0
   18.7626   -6.1330   -8.6705 O   0  0  0  0  0  0  0  0  0  0  0  0
   18.5703   -4.6495  -10.3658 O   0  0  0  0  0  0  0  0  0  0  0  0
  2  1  1  6
  2  8  1  0
  2  3  1  0
  4  3  1  0
  5  4  1  0
  6  5  1  0
  7  6  1  0
  8 12  1  0
  8  9  2  0
 11 10  1  1
 12 11  1  0
 13 14  2  0
 13 11  1  0
 16 17  1  0
 16 15  1  0
 17 18  1  0
 19 18  1  6
 19 20  1  0
 20 13  1  0
 21 19  1  0
 22 21  2  0
 23 21  1  0
M  END
$$$$
