KAM.pdb
     RDKit          3D

 23 22  0  0  1  0  0  0  0  0999 V2000
   21.1712  -26.7962  -16.9765 N   0  0  0  0  0  0  0  0  0  0  0  0
   21.6740  -25.4451  -17.1267 C   0  0  1  0  0  0  0  0  0  0  0  0
   20.5242  -24.4943  -17.3836 C   0  0  0  0  0  0  0  0  0  0  0  0
   20.2803  -24.2754  -18.8430 C   0  0  0  0  0  0  0  0  0  0  0  0
   21.2411  -23.2312  -19.3621 C   0  0  0  0  0  0  0  0  0  0  0  0
   20.9865  -22.9578  -20.8292 C   0  0  0  0  0  0  0  0  0  0  0  0
   21.8737  -21.9425  -21.3483 N   0  0  0  0  0  0  0  0  0  0  0  0
   22.4417  -25.0586  -15.9158 C   0  0  0  0  0  0  0  0  0  0  0  0
   21.9841  -25.2258  -14.7522 O   0  0  0  0  0  0  0  0  0  0  0  0
   25.8353  -23.5743  -15.0343 C   0  0  0  0  0  0  0  0  0  0  0  0
   24.3827  -23.8890  -14.8050 C   0  0  2  0  0  0  0  0  0  0  0  0
   23.7526  -24.4698  -15.9803 N   0  0  0  0  0  0  0  0  0  0  0  0
   23.6202  -22.7091  -14.3144 C   0  0  0  0  0  0  0  0  0  0  0  0
   23.6542  -21.6439  -14.9812 O   0  0  0  0  0  0  0  0  0  0  0  0
   25.7226  -20.7738   -8.1997 C   0  0  0  0  0  0  0  0  0  0  0  0
   25.7111  -20.0241   -9.8332 S   0  0  0  0  0  0  0  0  0  0  0  0
   24.1203  -20.2260  -10.6679 C   0  0  0  0  0  0  0  0  0  0  0  0
   24.0997  -21.4664  -11.5350 C   0  0  0  0  0  0  0  0  0  0  0  0
   22.7326  -21.6190  -12.2127 C   0  0  2  0  0  0  0  0  0  0  0  0
   22.8544  -22.7356  -13.1232 N   0  0  0  0  0  0  0  0  0  0  0  0
   22.4515  -20.3508  -12.9220 C   0  0  0  0  0  0  0  0  0  0  0  0
   22.7179  -20.2865  -14.1471 O   0  0  0  0  0  0  0  0  0  0  0  0
   21.9126  -19.2296  -12.3178 O   0  0  0  0  0  0  0  0  0  0  0  0
  2  1  1  1
  2  8  1  0
  2  3  1  0
  4  3  1  0
  5  4  1  0
  6  5  1  0
  7  6  1  0
  8 12  1  0
  8  9  2  0
 11 10  1  6
 12 11  1  0
 13 14  2  0
 13 11  1  0
 16 17  1  0
 16 15  1  0
 17 18  1  0
 19 18  1  6
 19 20  1  0
 20 13  1  0
 21 19  1  0
 22 21  2  0
 23 21  1  0
M  END
$$$$
