KAM.pdb
     RDKit          3D

 23 22  0  0  1  0  0  0  0  0999 V2000
   22.9474  -14.8699  -17.7165 N   0  0  0  0  0  0  0  0  0  0  0  0
   21.9117  -15.5660  -18.4537 C   0  0  1  0  0  0  0  0  0  0  0  0
   21.7429  -14.9378  -19.8208 C   0  0  0  0  0  0  0  0  0  0  0  0
   21.6243  -13.4483  -19.7533 C   0  0  0  0  0  0  0  0  0  0  0  0
   20.2704  -13.0767  -19.1949 C   0  0  0  0  0  0  0  0  0  0  0  0
   20.0967  -11.5728  -19.1802 C   0  0  0  0  0  0  0  0  0  0  0  0
   18.8236  -11.1846  -18.6180 N   0  0  0  0  0  0  0  0  0  0  0  0
   22.2510  -17.0081  -18.5540 C   0  0  0  0  0  0  0  0  0  0  0  0
   21.5016  -17.8319  -19.1466 O   0  0  0  0  0  0  0  0  0  0  0  0
   25.1534  -19.3323  -17.8653 C   0  0  0  0  0  0  0  0  0  0  0  0
   23.6914  -19.0014  -17.9867 C   0  0  2  0  0  0  0  0  0  0  0  0
   23.4493  -17.5672  -17.9873 N   0  0  0  0  0  0  0  0  0  0  0  0
   22.8702  -19.6844  -16.9506 C   0  0  0  0  0  0  0  0  0  0  0  0
   22.8954  -20.9396  -16.8858 O   0  0  0  0  0  0  0  0  0  0  0  0
   19.6301  -18.8116   -9.8150 C   0  0  0  0  0  0  0  0  0  0  0  0
   20.6076  -18.1724  -11.1812 S   0  0  0  0  0  0  0  0  0  0  0  0
   20.5066  -19.2258  -12.6469 C   0  0  0  0  0  0  0  0  0  0  0  0
   21.4433  -18.7533  -13.7379 C   0  0  0  0  0  0  0  0  0  0  0  0
   21.2642  -19.6069  -14.9993 C   0  0  2  0  0  0  0  0  0  0  0  0
   22.0582  -18.9772  -16.0305 N   0  0  0  0  0  0  0  0  0  0  0  0
   19.8213  -19.6042  -15.3286 C   0  0  0  0  0  0  0  0  0  0  0  0
   19.0793  -20.4302  -14.7429 O   0  0  0  0  0  0  0  0  0  0  0  0
   19.2382  -18.7464  -16.2434 O   0  0  0  0  0  0  0  0  0  0  0  0
  2  1  1  6
  2  8  1  0
  2  3  1  0
  4  3  1  0
  5  4  1  0
  6  5  1  0
  7  6  1  0
  8 12  1  0
  8  9  2  0
 11 10  1  1
 12 11  1  0
 13 14  2  0
 13 11  1  0
 16 17  1  0
 16 15  1  0
 17 18  1  0
 19 18  1  1
 19 20  1  0
 20 13  1  0
 21 19  1  0
 22 21  2  0
 23 21  1  0
M  END
$$$$
