EKC.pdb
     RDKit          3D

 25 24  0  0  1  0  0  0  0  0999 V2000
   17.0800   -9.9886  -13.3451 N   0  0  0  0  0  0  0  0  0  0  0  0
   17.7559   -9.2455  -12.2579 C   0  0  1  0  0  0  0  0  0  0  0  0
   18.8024   -8.4073  -12.9127 C   0  0  0  0  0  0  0  0  0  0  0  0
   19.9174   -9.2343  -13.4603 C   0  0  0  0  0  0  0  0  0  0  0  0
   21.0366   -8.3802  -13.8903 C   0  0  0  0  0  0  0  0  0  0  0  0
   21.0564   -7.1361  -13.8285 O   0  0  0  0  0  0  0  0  0  0  0  0
   16.7243   -8.4086  -11.6196 C   0  0  0  0  0  0  0  0  0  0  0  0
   15.8281   -7.8284  -12.3284 O   0  0  0  0  0  0  0  0  0  0  0  0
   22.1617   -9.0390  -14.4080 O   0  0  0  0  0  0  0  0  0  0  0  0
   16.7201   -8.2425  -10.2144 N   0  0  0  0  0  0  0  0  0  0  0  0
   15.7027   -7.4391   -9.5917 C   0  0  1  0  0  0  0  0  0  0  0  0
   15.1524   -8.1342   -8.3756 C   0  0  0  0  0  0  0  0  0  0  0  0
   14.0061   -7.3902   -7.7335 C   0  0  0  0  0  0  0  0  0  0  0  0
   12.7538   -8.2065   -8.0230 C   0  0  0  0  0  0  0  0  0  0  0  0
   11.5223   -7.5977   -7.4266 C   0  0  0  0  0  0  0  0  0  0  0  0
   10.4182   -8.5009   -7.6988 N   0  0  0  0  0  0  0  0  0  0  0  0
   16.1750   -6.0646   -9.3054 C   0  0  0  0  0  0  0  0  0  0  0  0
   17.1361   -5.7826   -8.5826 O   0  0  0  0  0  0  0  0  0  0  0  0
   15.4609   -4.9950   -9.9142 N   0  0  0  0  0  0  0  0  0  0  0  0
   15.8185   -3.6152   -9.6628 C   0  0  1  0  0  0  0  0  0  0  0  0
   15.9319   -2.8325  -10.9678 C   0  0  0  0  0  0  0  0  0  0  0  0
   17.0627   -3.7122  -12.0805 S   0  0  0  0  0  0  0  0  0  0  0  0
   14.9243   -2.9662   -8.6955 C   0  0  0  0  0  0  0  0  0  0  0  0
   13.9170   -3.5353   -8.2071 O   0  0  0  0  0  0  0  0  0  0  0  0
   15.1616   -1.6530   -8.2655 O   0  0  0  0  0  0  0  0  0  0  0  0
  2  7  1  0
  2  1  1  6
  3  2  1  0
  4  3  1  0
  5  4  1  0
  5  9  1  0
  6  5  2  0
  7  8  2  0
 10 11  1  0
 10  7  1  0
 11 12  1  1
 12 13  1  0
 13 14  1  0
 15 14  1  0
 16 15  1  0
 17 11  1  0
 18 17  2  0
 19 17  1  0
 20 19  1  0
 20 21  1  6
 22 21  1  0
 23 20  1  0
 23 25  1  0
 24 23  2  0
M  END
$$$$
