EKC.pdb
     RDKit          3D

 25 24  0  0  1  0  0  0  0  0999 V2000
   16.4603  -10.7216  -14.8216 N   0  0  0  0  0  0  0  0  0  0  0  0
   17.1377  -10.4197  -13.5405 C   0  0  1  0  0  0  0  0  0  0  0  0
   18.2904   -9.5339  -13.8763 C   0  0  0  0  0  0  0  0  0  0  0  0
   19.3792  -10.2764  -14.5764 C   0  0  0  0  0  0  0  0  0  0  0  0
   20.4190   -9.3496  -15.0524 C   0  0  0  0  0  0  0  0  0  0  0  0
   20.3841   -8.1096  -14.9373 O   0  0  0  0  0  0  0  0  0  0  0  0
   16.1509   -9.7164  -12.7017 C   0  0  0  0  0  0  0  0  0  0  0  0
   15.3695   -8.8396  -13.2144 O   0  0  0  0  0  0  0  0  0  0  0  0
   21.5301   -9.9286  -15.6833 O   0  0  0  0  0  0  0  0  0  0  0  0
   16.0627  -10.0091  -11.3202 N   0  0  0  0  0  0  0  0  0  0  0  0
   15.1232   -9.2971  -10.4963 C   0  0  1  0  0  0  0  0  0  0  0  0
   14.2787  -10.2600   -9.7061 C   0  0  0  0  0  0  0  0  0  0  0  0
   12.8547  -10.3459  -10.2006 C   0  0  0  0  0  0  0  0  0  0  0  0
   12.1300  -11.2880   -9.2489 C   0  0  0  0  0  0  0  0  0  0  0  0
   10.6655  -11.3879   -9.5461 C   0  0  0  0  0  0  0  0  0  0  0  0
   10.0843  -12.2821   -8.5604 N   0  0  0  0  0  0  0  0  0  0  0  0
   15.7854   -8.2801   -9.6467 C   0  0  0  0  0  0  0  0  0  0  0  0
   16.7597   -8.4923   -8.9178 O   0  0  0  0  0  0  0  0  0  0  0  0
   15.2510   -6.9618   -9.6802 N   0  0  0  0  0  0  0  0  0  0  0  0
   15.6867   -5.9516   -8.7395 C   0  0  1  0  0  0  0  0  0  0  0  0
   16.9212   -5.2184   -9.2562 C   0  0  0  0  0  0  0  0  0  0  0  0
   17.3028   -3.8498   -8.1282 S   0  0  0  0  0  0  0  0  0  0  0  0
   14.6078   -5.0321   -8.3565 C   0  0  0  0  0  0  0  0  0  0  0  0
   13.6223   -4.7890   -9.0959 O   0  0  0  0  0  0  0  0  0  0  0  0
   14.6315   -4.3706   -7.1206 O   0  0  0  0  0  0  0  0  0  0  0  0
  2  7  1  0
  2  1  1  6
  3  2  1  0
  4  3  1  0
  5  4  1  0
  5  9  1  0
  6  5  2  0
  7  8  2  0
 10 11  1  0
 10  7  1  0
 11 12  1  1
 12 13  1  0
 13 14  1  0
 15 14  1  0
 16 15  1  0
 17 11  1  0
 18 17  2  0
 19 17  1  0
 20 19  1  0
 20 21  1  6
 22 21  1  0
 23 20  1  0
 23 25  1  0
 24 23  2  0
M  END
$$$$
