EKC.pdb
     RDKit          3D

 25 24  0  0  1  0  0  0  0  0999 V2000
   26.0774  -21.8883  -14.4733 N   0  0  0  0  0  0  0  0  0  0  0  0
   25.4390  -20.6345  -14.0133 C   0  0  1  0  0  0  0  0  0  0  0  0
   25.6844  -19.6240  -15.0834 C   0  0  0  0  0  0  0  0  0  0  0  0
   27.1240  -19.2399  -15.1684 C   0  0  0  0  0  0  0  0  0  0  0  0
   27.3360  -18.2472  -16.2345 C   0  0  0  0  0  0  0  0  0  0  0  0
   26.8291  -17.1097  -16.2687 O   0  0  0  0  0  0  0  0  0  0  0  0
   24.0009  -20.9247  -13.8733 C   0  0  0  0  0  0  0  0  0  0  0  0
   23.3189  -21.3304  -14.8795 O   0  0  0  0  0  0  0  0  0  0  0  0
   28.1797  -18.6321  -17.2871 O   0  0  0  0  0  0  0  0  0  0  0  0
   23.3655  -20.7557  -12.6204 N   0  0  0  0  0  0  0  0  0  0  0  0
   21.9577  -21.0196  -12.4904 C   0  0  1  0  0  0  0  0  0  0  0  0
   21.6453  -21.5523  -11.1181 C   0  0  0  0  0  0  0  0  0  0  0  0
   20.2172  -22.0210  -10.9733 C   0  0  0  0  0  0  0  0  0  0  0  0
   20.0677  -22.4909   -9.5327 C   0  0  0  0  0  0  0  0  0  0  0  0
   18.6496  -22.8205   -9.1818 C   0  0  0  0  0  0  0  0  0  0  0  0
   18.6239  -23.1755   -7.7738 N   0  0  0  0  0  0  0  0  0  0  0  0
   21.1341  -19.8429  -12.8530 C   0  0  0  0  0  0  0  0  0  0  0  0
   21.3205  -18.6939  -12.4398 O   0  0  0  0  0  0  0  0  0  0  0  0
   20.0483  -20.0635  -13.7458 N   0  0  0  0  0  0  0  0  0  0  0  0
   19.2088  -18.9714  -14.1902 C   0  0  1  0  0  0  0  0  0  0  0  0
   19.8301  -18.2544  -15.3854 C   0  0  0  0  0  0  0  0  0  0  0  0
   18.5340  -17.3208  -16.2453 S   0  0  0  0  0  0  0  0  0  0  0  0
   17.8243  -19.3894  -14.4448 C   0  0  0  0  0  0  0  0  0  0  0  0
   17.4592  -20.5908  -14.4296 O   0  0  0  0  0  0  0  0  0  0  0  0
   16.8270  -18.4437  -14.7223 O   0  0  0  0  0  0  0  0  0  0  0  0
  2  7  1  0
  2  1  1  6
  3  2  1  0
  4  3  1  0
  5  4  1  0
  5  9  1  0
  6  5  2  0
  7  8  2  0
 10 11  1  0
 10  7  1  0
 11 12  1  1
 12 13  1  0
 13 14  1  0
 15 14  1  0
 16 15  1  0
 17 11  1  0
 18 17  2  0
 19 17  1  0
 20 19  1  0
 20 21  1  6
 22 21  1  0
 23 20  1  0
 23 25  1  0
 24 23  2  0
M  END
$$$$
