EKC.pdb
     RDKit          3D

 25 24  0  0  1  0  0  0  0  0999 V2000
   13.5534  -10.6864  -10.6308 N   0  0  0  0  0  0  0  0  0  0  0  0
   14.9899  -10.6505  -10.2755 C   0  0  1  0  0  0  0  0  0  0  0  0
   15.6481  -11.7137  -11.0896 C   0  0  0  0  0  0  0  0  0  0  0  0
   15.3001  -13.0821  -10.6064 C   0  0  0  0  0  0  0  0  0  0  0  0
   15.8294  -14.1074  -11.5204 C   0  0  0  0  0  0  0  0  0  0  0  0
   16.4413  -13.8780  -12.5811 O   0  0  0  0  0  0  0  0  0  0  0  0
   15.4796   -9.3119  -10.6500 C   0  0  0  0  0  0  0  0  0  0  0  0
   15.1419   -8.7858  -11.7686 O   0  0  0  0  0  0  0  0  0  0  0  0
   15.6178  -15.4436  -11.1495 O   0  0  0  0  0  0  0  0  0  0  0  0
   16.3286   -8.5995   -9.7703 N   0  0  0  0  0  0  0  0  0  0  0  0
   16.8825   -7.3360  -10.1769 C   0  0  1  0  0  0  0  0  0  0  0  0
   16.6961   -6.3058   -9.0958 C   0  0  0  0  0  0  0  0  0  0  0  0
   15.4640   -5.4551   -9.2916 C   0  0  0  0  0  0  0  0  0  0  0  0
   14.5636   -5.7288   -8.0945 C   0  0  0  0  0  0  0  0  0  0  0  0
   13.2325   -5.0526   -8.2123 C   0  0  0  0  0  0  0  0  0  0  0  0
   12.4322   -5.4725   -7.0755 N   0  0  0  0  0  0  0  0  0  0  0  0
   18.2914   -7.4606  -10.6173 C   0  0  0  0  0  0  0  0  0  0  0  0
   19.1070   -8.2681  -10.1606 O   0  0  0  0  0  0  0  0  0  0  0  0
   18.7284   -6.5790  -11.6450 N   0  0  0  0  0  0  0  0  0  0  0  0
   20.0378   -6.7180  -12.2461 C   0  0  1  0  0  0  0  0  0  0  0  0
   20.2503   -8.1339  -12.7742 C   0  0  0  0  0  0  0  0  0  0  0  0
   21.8803   -8.2241  -13.5651 S   0  0  0  0  0  0  0  0  0  0  0  0
   20.3047   -5.6940  -13.2641 C   0  0  0  0  0  0  0  0  0  0  0  0
   19.4396   -5.3076  -14.0883 O   0  0  0  0  0  0  0  0  0  0  0  0
   21.5658   -5.0892  -13.3625 O   0  0  0  0  0  0  0  0  0  0  0  0
  2  7  1  0
  2  1  1  6
  3  2  1  0
  4  3  1  0
  5  4  1  0
  5  9  1  0
  6  5  2  0
  7  8  2  0
 10 11  1  0
 10  7  1  0
 11 12  1  1
 12 13  1  0
 13 14  1  0
 15 14  1  0
 16 15  1  0
 17 11  1  0
 18 17  2  0
 19 17  1  0
 20 19  1  0
 20 21  1  6
 22 21  1  0
 23 20  1  0
 23 25  1  0
 24 23  2  0
M  END
$$$$
