EKC.pdb
     RDKit          3D

 25 24  0  0  1  0  0  0  0  0999 V2000
   24.5470  -34.1105   -2.8103 N   0  0  0  0  0  0  0  0  0  0  0  0
   25.8043  -33.3722   -2.5550 C   0  0  1  0  0  0  0  0  0  0  0  0
   25.9671  -32.4191   -3.6914 C   0  0  0  0  0  0  0  0  0  0  0  0
   26.3136  -33.1204   -4.9623 C   0  0  0  0  0  0  0  0  0  0  0  0
   25.1036  -33.6532   -5.6097 C   0  0  0  0  0  0  0  0  0  0  0  0
   24.0519  -33.0144   -5.8044 O   0  0  0  0  0  0  0  0  0  0  0  0
   25.6169  -32.6560   -1.2807 C   0  0  0  0  0  0  0  0  0  0  0  0
   26.5324  -31.8806   -0.8303 O   0  0  0  0  0  0  0  0  0  0  0  0
   25.1595  -34.9890   -6.0343 O   0  0  0  0  0  0  0  0  0  0  0  0
   24.4187  -32.8230   -0.5468 N   0  0  0  0  0  0  0  0  0  0  0  0
   24.2897  -32.2307    0.7574 C   0  0  1  0  0  0  0  0  0  0  0  0
   22.8427  -31.9682    1.0768 C   0  0  0  0  0  0  0  0  0  0  0  0
   22.6455  -31.2386    2.3840 C   0  0  0  0  0  0  0  0  0  0  0  0
   21.1426  -31.0563    2.5469 C   0  0  0  0  0  0  0  0  0  0  0  0
   20.7853  -30.3527    3.8198 C   0  0  0  0  0  0  0  0  0  0  0  0
   19.3415  -30.1974    3.8374 N   0  0  0  0  0  0  0  0  0  0  0  0
   24.9751  -33.0269    1.8017 C   0  0  0  0  0  0  0  0  0  0  0  0
   24.6674  -34.1769    2.1309 O   0  0  0  0  0  0  0  0  0  0  0  0
   26.0699  -32.4113    2.4704 N   0  0  0  0  0  0  0  0  0  0  0  0
   26.7841  -33.0954    3.5273 C   0  0  1  0  0  0  0  0  0  0  0  0
   28.2830  -33.1282    3.2431 C   0  0  0  0  0  0  0  0  0  0  0  0
   28.5397  -33.6162    1.5149 S   0  0  0  0  0  0  0  0  0  0  0  0
   26.4773  -32.5564    4.8583 C   0  0  0  0  0  0  0  0  0  0  0  0
   25.6956  -31.5908    5.0412 O   0  0  0  0  0  0  0  0  0  0  0  0
   27.0572  -33.1089    6.0091 O   0  0  0  0  0  0  0  0  0  0  0  0
  2  7  1  0
  2  1  1  6
  3  2  1  0
  4  3  1  0
  5  4  1  0
  5  9  1  0
  6  5  2  0
  7  8  2  0
 10 11  1  0
 10  7  1  0
 11 12  1  1
 12 13  1  0
 13 14  1  0
 15 14  1  0
 16 15  1  0
 17 11  1  0
 18 17  2  0
 19 17  1  0
 20 19  1  0
 20 21  1  6
 22 21  1  0
 23 20  1  0
 23 25  1  0
 24 23  2  0
M  END
$$$$
