EKC.pdb
     RDKit          3D

 25 24  0  0  1  0  0  0  0  0999 V2000
   13.2878  -10.8507  -11.1231 N   0  0  0  0  0  0  0  0  0  0  0  0
   14.7555  -10.8513  -10.9309 C   0  0  1  0  0  0  0  0  0  0  0  0
   15.3137  -11.7524  -11.9810 C   0  0  0  0  0  0  0  0  0  0  0  0
   14.9680  -13.1823  -11.7303 C   0  0  0  0  0  0  0  0  0  0  0  0
   15.5339  -14.0465  -12.7791 C   0  0  0  0  0  0  0  0  0  0  0  0
   16.7328  -14.3716  -12.8733 O   0  0  0  0  0  0  0  0  0  0  0  0
   15.2032   -9.4611  -11.1279 C   0  0  0  0  0  0  0  0  0  0  0  0
   14.6986   -8.7418  -12.0607 O   0  0  0  0  0  0  0  0  0  0  0  0
   14.6348  -14.5327  -13.7399 O   0  0  0  0  0  0  0  0  0  0  0  0
   16.1968   -8.9132  -10.2825 N   0  0  0  0  0  0  0  0  0  0  0  0
   16.6424   -7.5608  -10.4846 C   0  0  1  0  0  0  0  0  0  0  0  0
   16.3413   -6.7196   -9.2737 C   0  0  0  0  0  0  0  0  0  0  0  0
   14.8832   -6.3445   -9.1582 C   0  0  0  0  0  0  0  0  0  0  0  0
   14.7645   -5.4771   -7.9123 C   0  0  0  0  0  0  0  0  0  0  0  0
   13.3767   -4.9519   -7.7099 C   0  0  0  0  0  0  0  0  0  0  0  0
   13.3841   -4.1716   -6.4851 N   0  0  0  0  0  0  0  0  0  0  0  0
   18.0655   -7.4974  -10.8909 C   0  0  0  0  0  0  0  0  0  0  0  0
   19.0193   -7.8381  -10.1839 O   0  0  0  0  0  0  0  0  0  0  0  0
   18.3444   -7.0055  -12.1966 N   0  0  0  0  0  0  0  0  0  0  0  0
   19.6989   -6.9490  -12.7035 C   0  0  1  0  0  0  0  0  0  0  0  0
   19.8704   -7.8662  -13.9109 C   0  0  0  0  0  0  0  0  0  0  0  0
   19.2413   -9.5140  -13.4871 S   0  0  0  0  0  0  0  0  0  0  0  0
   20.1450   -5.5764  -12.9742 C   0  0  0  0  0  0  0  0  0  0  0  0
   19.3652   -4.5920  -12.9756 O   0  0  0  0  0  0  0  0  0  0  0  0
   21.4915   -5.2988  -13.2492 O   0  0  0  0  0  0  0  0  0  0  0  0
  2  7  1  0
  2  1  1  6
  3  2  1  0
  4  3  1  0
  5  4  1  0
  5  9  1  0
  6  5  2  0
  7  8  2  0
 10 11  1  0
 10  7  1  0
 11 12  1  1
 12 13  1  0
 13 14  1  0
 15 14  1  0
 16 15  1  0
 17 11  1  0
 18 17  2  0
 19 17  1  0
 20 19  1  0
 20 21  1  6
 22 21  1  0
 23 20  1  0
 23 25  1  0
 24 23  2  0
M  END
$$$$
