EKC.pdb
     RDKit          3D

 25 24  0  0  1  0  0  0  0  0999 V2000
   17.8583  -14.1132  -17.5023 N   0  0  0  0  0  0  0  0  0  0  0  0
   18.6225  -13.7345  -16.2925 C   0  0  1  0  0  0  0  0  0  0  0  0
   20.0039  -14.2631  -16.4887 C   0  0  0  0  0  0  0  0  0  0  0  0
   20.3026  -14.5229  -17.9276 C   0  0  0  0  0  0  0  0  0  0  0  0
   21.6638  -15.0597  -18.0882 C   0  0  0  0  0  0  0  0  0  0  0  0
   22.1966  -15.3547  -19.1750 O   0  0  0  0  0  0  0  0  0  0  0  0
   18.6174  -12.2617  -16.2390 C   0  0  0  0  0  0  0  0  0  0  0  0
   19.0203  -11.5736  -17.2422 O   0  0  0  0  0  0  0  0  0  0  0  0
   22.4041  -15.2468  -16.9114 O   0  0  0  0  0  0  0  0  0  0  0  0
   18.1649  -11.5994  -15.0734 N   0  0  0  0  0  0  0  0  0  0  0  0
   17.9649  -10.1753  -15.0915 C   0  0  1  0  0  0  0  0  0  0  0  0
   16.8216   -9.7917  -14.1911 C   0  0  0  0  0  0  0  0  0  0  0  0
   15.4711   -9.9371  -14.8506 C   0  0  0  0  0  0  0  0  0  0  0  0
   14.7144  -10.9838  -14.0441 C   0  0  0  0  0  0  0  0  0  0  0  0
   13.3236  -11.2046  -14.5537 C   0  0  0  0  0  0  0  0  0  0  0  0
   12.7651  -12.3234  -13.8153 N   0  0  0  0  0  0  0  0  0  0  0  0
   19.2107   -9.4333  -14.7887 C   0  0  0  0  0  0  0  0  0  0  0  0
   20.0198   -9.7385  -13.9067 O   0  0  0  0  0  0  0  0  0  0  0  0
   19.4874   -8.2833  -15.5798 N   0  0  0  0  0  0  0  0  0  0  0  0
   20.7122   -7.5315  -15.4077 C   0  0  1  0  0  0  0  0  0  0  0  0
   21.5657   -7.5784  -16.6717 C   0  0  0  0  0  0  0  0  0  0  0  0
   20.7784   -6.5561  -17.9468 S   0  0  0  0  0  0  0  0  0  0  0  0
   20.4731   -6.1591  -14.9431 C   0  0  0  0  0  0  0  0  0  0  0  0
   19.3318   -5.6362  -14.9147 O   0  0  0  0  0  0  0  0  0  0  0  0
   21.5329   -5.3546  -14.5012 O   0  0  0  0  0  0  0  0  0  0  0  0
  2  7  1  0
  2  1  1  6
  3  2  1  0
  4  3  1  0
  5  4  1  0
  5  9  1  0
  6  5  2  0
  7  8  2  0
 10 11  1  0
 10  7  1  0
 11 12  1  1
 12 13  1  0
 13 14  1  0
 15 14  1  0
 16 15  1  0
 17 11  1  0
 18 17  2  0
 19 17  1  0
 20 19  1  0
 20 21  1  6
 22 21  1  0
 23 20  1  0
 23 25  1  0
 24 23  2  0
M  END
$$$$
