EKC.pdb
     RDKit          3D

 25 24  0  0  1  0  0  0  0  0999 V2000
   18.0028  -24.8272   -6.6463 N   0  0  0  0  0  0  0  0  0  0  0  0
   16.5545  -25.1265   -6.5836 C   0  0  1  0  0  0  0  0  0  0  0  0
   16.4416  -26.5675   -6.2130 C   0  0  0  0  0  0  0  0  0  0  0  0
   16.5928  -27.4617   -7.3982 C   0  0  0  0  0  0  0  0  0  0  0  0
   15.3354  -28.1748   -7.6762 C   0  0  0  0  0  0  0  0  0  0  0  0
   15.2327  -29.4006   -7.8734 O   0  0  0  0  0  0  0  0  0  0  0  0
   15.9939  -24.2597   -5.5318 C   0  0  0  0  0  0  0  0  0  0  0  0
   16.7268  -23.8609   -4.5592 O   0  0  0  0  0  0  0  0  0  0  0  0
   14.1709  -27.3938   -7.7181 O   0  0  0  0  0  0  0  0  0  0  0  0
   14.6371  -23.8627   -5.5933 N   0  0  0  0  0  0  0  0  0  0  0  0
   14.1285  -22.9036   -4.6500 C   0  0  1  0  0  0  0  0  0  0  0  0
   12.9382  -22.1816   -5.2215 C   0  0  0  0  0  0  0  0  0  0  0  0
   12.4491  -21.0544   -4.3438 C   0  0  0  0  0  0  0  0  0  0  0  0
   11.2325  -20.4662   -5.0455 C   0  0  0  0  0  0  0  0  0  0  0  0
   10.6667  -19.2855   -4.3182 C   0  0  0  0  0  0  0  0  0  0  0  0
    9.5241  -18.8148   -5.0810 N   0  0  0  0  0  0  0  0  0  0  0  0
   13.8526  -23.5135   -3.3285 C   0  0  0  0  0  0  0  0  0  0  0  0
   13.3427  -24.6250   -3.1544 O   0  0  0  0  0  0  0  0  0  0  0  0
   14.2055  -22.7533   -2.1786 N   0  0  0  0  0  0  0  0  0  0  0  0
   14.0584  -23.2974   -0.8454 C   0  0  1  0  0  0  0  0  0  0  0  0
   15.3967  -23.3205   -0.1127 C   0  0  0  0  0  0  0  0  0  0  0  0
   15.9803  -21.6152    0.0922 S   0  0  0  0  0  0  0  0  0  0  0  0
   13.0073  -22.6239   -0.0722 C   0  0  0  0  0  0  0  0  0  0  0  0
   12.3802  -21.6229   -0.4985 O   0  0  0  0  0  0  0  0  0  0  0  0
   12.6501  -23.0795    1.2048 O   0  0  0  0  0  0  0  0  0  0  0  0
  2  7  1  0
  2  1  1  1
  3  2  1  0
  4  3  1  0
  5  4  1  0
  5  9  1  0
  6  5  2  0
  7  8  2  0
 10 11  1  0
 10  7  1  0
 11 12  1  6
 12 13  1  0
 13 14  1  0
 15 14  1  0
 16 15  1  0
 17 11  1  0
 18 17  2  0
 19 17  1  0
 20 19  1  0
 20 21  1  1
 22 21  1  0
 23 20  1  0
 23 25  1  0
 24 23  2  0
M  END
$$$$
