GCA.pdb
     RDKit          3D

 16 15  0  0  1  0  0  0  0  0999 V2000
   21.7641  -11.3001  -18.5453 N   0  0  0  0  0  0  0  0  0  0  0  0
   21.4305   -9.9605  -18.9941 C   0  0  0  0  0  0  0  0  0  0  0  0
   21.1823   -9.1288  -17.7823 C   0  0  0  0  0  0  0  0  0  0  0  0
   20.1495   -9.3015  -17.0545 O   0  0  0  0  0  0  0  0  0  0  0  0
   22.0658   -8.1002  -17.3587 N   0  0  0  0  0  0  0  0  0  0  0  0
   21.7951   -7.3057  -16.1846 C   0  0  1  0  0  0  0  0  0  0  0  0
   22.9557   -7.5000  -15.2357 C   0  0  0  0  0  0  0  0  0  0  0  0
   22.6771   -8.9805  -14.2330 S   0  0  0  0  0  0  0  0  0  0  0  0
   21.5588   -5.8822  -16.4986 C   0  0  0  0  0  0  0  0  0  0  0  0
   22.3585   -5.3116  -17.2806 O   0  0  0  0  0  0  0  0  0  0  0  0
   18.8623   -3.3975  -15.6980 C   0  0  0  0  0  0  0  0  0  0  0  0
   20.2280   -3.7456  -16.2753 C   0  0  2  0  0  0  0  0  0  0  0  0
   20.4870   -5.1291  -15.9701 N   0  0  0  0  0  0  0  0  0  0  0  0
   21.2766   -2.8369  -15.8108 C   0  0  0  0  0  0  0  0  0  0  0  0
   21.4380   -1.6102  -16.4265 O   0  0  0  0  0  0  0  0  0  0  0  0
   22.0435   -3.1276  -14.8671 O   0  0  0  0  0  0  0  0  0  0  0  0
  2  1  1  0
  2  3  1  0
  3  4  2  0
  5  3  1  0
  5  6  1  0
  6  7  1  1
  7  8  1  0
  9 13  1  0
  9  6  1  0
 10  9  2  0
 12 11  1  1
 12 14  1  0
 12 13  1  0
 14 15  1  0
 16 14  2  0
M  END
$$$$
