GCA.pdb
     RDKit          3D

 16 15  0  0  1  0  0  0  0  0999 V2000
   28.4090  -20.0983  -16.3290 N   0  0  0  0  0  0  0  0  0  0  0  0
   27.9802  -19.3377  -15.1694 C   0  0  0  0  0  0  0  0  0  0  0  0
   27.0850  -20.2145  -14.3622 C   0  0  0  0  0  0  0  0  0  0  0  0
   26.5875  -21.2851  -14.8446 O   0  0  0  0  0  0  0  0  0  0  0  0
   26.7279  -19.9239  -13.0183 N   0  0  0  0  0  0  0  0  0  0  0  0
   25.8316  -20.7742  -12.2722 C   0  0  1  0  0  0  0  0  0  0  0  0
   26.1310  -20.5622  -10.8058 C   0  0  0  0  0  0  0  0  0  0  0  0
   24.9004  -21.4325   -9.8042 S   0  0  0  0  0  0  0  0  0  0  0  0
   24.4112  -20.5329  -12.5960 C   0  0  0  0  0  0  0  0  0  0  0  0
   23.9831  -19.3547  -12.5229 O   0  0  0  0  0  0  0  0  0  0  0  0
   21.7372  -22.4866  -14.2825 C   0  0  0  0  0  0  0  0  0  0  0  0
   22.1450  -21.3270  -13.3834 C   0  0  2  0  0  0  0  0  0  0  0  0
   23.5102  -21.5499  -12.9821 N   0  0  0  0  0  0  0  0  0  0  0  0
   21.2262  -21.1446  -12.2593 C   0  0  0  0  0  0  0  0  0  0  0  0
   21.5790  -21.6117  -11.0074 O   0  0  0  0  0  0  0  0  0  0  0  0
   20.1199  -20.5759  -12.3855 O   0  0  0  0  0  0  0  0  0  0  0  0
  2  1  1  0
  2  3  1  0
  3  4  2  0
  5  3  1  0
  5  6  1  0
  6  7  1  1
  7  8  1  0
  9 13  1  0
  9  6  1  0
 10  9  2  0
 12 11  1  1
 12 14  1  0
 12 13  1  0
 14 15  1  0
 16 14  2  0
M  END
$$$$
