GCA.pdb
     RDKit          3D

 16 15  0  0  1  0  0  0  0  0999 V2000
   28.4809  -20.7380  -15.1789 N   0  0  0  0  0  0  0  0  0  0  0  0
   27.8941  -19.9078  -14.1428 C   0  0  0  0  0  0  0  0  0  0  0  0
   26.7268  -20.6458  -13.5822 C   0  0  0  0  0  0  0  0  0  0  0  0
   26.2222  -21.6515  -14.1826 O   0  0  0  0  0  0  0  0  0  0  0  0
   26.1029  -20.2865  -12.3576 N   0  0  0  0  0  0  0  0  0  0  0  0
   24.9330  -20.9784  -11.8723 C   0  0  1  0  0  0  0  0  0  0  0  0
   24.8509  -20.7285  -10.3837 C   0  0  0  0  0  0  0  0  0  0  0  0
   26.4101  -21.2099   -9.6015 S   0  0  0  0  0  0  0  0  0  0  0  0
   23.6983  -20.5799  -12.5776 C   0  0  0  0  0  0  0  0  0  0  0  0
   23.3678  -19.3689  -12.5463 O   0  0  0  0  0  0  0  0  0  0  0  0
   21.6642  -21.9161  -15.2997 C   0  0  0  0  0  0  0  0  0  0  0  0
   21.6835  -21.1096  -14.0079 C   0  0  2  0  0  0  0  0  0  0  0  0
   22.8712  -21.4817  -13.2831 N   0  0  0  0  0  0  0  0  0  0  0  0
   20.4514  -21.2679  -13.2345 C   0  0  0  0  0  0  0  0  0  0  0  0
   19.3349  -20.5263  -13.5713 O   0  0  0  0  0  0  0  0  0  0  0  0
   20.3652  -22.0568  -12.2684 O   0  0  0  0  0  0  0  0  0  0  0  0
  2  1  1  0
  2  3  1  0
  3  4  2  0
  5  3  1  0
  5  6  1  0
  6  7  1  1
  7  8  1  0
  9 13  1  0
  9  6  1  0
 10  9  2  0
 12 11  1  6
 12 14  1  0
 12 13  1  0
 14 15  1  0
 16 14  2  0
M  END
$$$$
