GCA.pdb
     RDKit          3D

 16 15  0  0  1  0  0  0  0  0999 V2000
   17.1145  -16.0057  -14.6104 N   0  0  0  0  0  0  0  0  0  0  0  0
   16.9959  -14.7944  -13.8193 C   0  0  0  0  0  0  0  0  0  0  0  0
   16.7730  -13.6615  -14.7621 C   0  0  0  0  0  0  0  0  0  0  0  0
   16.7535  -13.8382  -16.0249 O   0  0  0  0  0  0  0  0  0  0  0  0
   16.5696  -12.3246  -14.3269 N   0  0  0  0  0  0  0  0  0  0  0  0
   16.2942  -11.2584  -15.2598 C   0  0  1  0  0  0  0  0  0  0  0  0
   14.7978  -11.0444  -15.2654 C   0  0  0  0  0  0  0  0  0  0  0  0
   14.1414  -11.3099  -13.6000 S   0  0  0  0  0  0  0  0  0  0  0  0
   17.0373  -10.0204  -14.9501 C   0  0  0  0  0  0  0  0  0  0  0  0
   17.1537   -9.6903  -13.7442 O   0  0  0  0  0  0  0  0  0  0  0  0
   18.9320   -7.4862  -16.9779 C   0  0  0  0  0  0  0  0  0  0  0  0
   18.4111   -8.0179  -15.6492 C   0  0  2  0  0  0  0  0  0  0  0  0
   17.6225   -9.1897  -15.9312 N   0  0  0  0  0  0  0  0  0  0  0  0
   17.6922   -6.9979  -14.8850 C   0  0  0  0  0  0  0  0  0  0  0  0
   18.3942   -6.1540  -14.0454 O   0  0  0  0  0  0  0  0  0  0  0  0
   16.4524   -6.8558  -14.9607 O   0  0  0  0  0  0  0  0  0  0  0  0
  2  1  1  0
  2  3  1  0
  3  4  2  0
  5  3  1  0
  5  6  1  0
  6  7  1  1
  7  8  1  0
  9 13  1  0
  9  6  1  0
 10  9  2  0
 12 11  1  6
 12 14  1  0
 12 13  1  0
 14 15  1  0
 16 14  2  0
M  END
$$$$
