GCA.pdb
     RDKit          3D

 16 15  0  0  1  0  0  0  0  0999 V2000
   18.2036  -11.6641  -16.6404 N   0  0  0  0  0  0  0  0  0  0  0  0
   18.6562  -10.3353  -17.0102 C   0  0  0  0  0  0  0  0  0  0  0  0
   18.8056   -9.5454  -15.7550 C   0  0  0  0  0  0  0  0  0  0  0  0
   17.9940   -9.6809  -14.7807 O   0  0  0  0  0  0  0  0  0  0  0  0
   19.8473   -8.5998  -15.5582 N   0  0  0  0  0  0  0  0  0  0  0  0
   19.9372   -7.8125  -14.3520 C   0  0  1  0  0  0  0  0  0  0  0  0
   20.8294   -8.5655  -13.3918 C   0  0  0  0  0  0  0  0  0  0  0  0
   22.4452   -8.8441  -14.1577 S   0  0  0  0  0  0  0  0  0  0  0  0
   20.4138   -6.4370  -14.6002 C   0  0  0  0  0  0  0  0  0  0  0  0
   21.3384   -6.2764  -15.4344 O   0  0  0  0  0  0  0  0  0  0  0  0
   19.2801   -3.0146  -13.5831 C   0  0  0  0  0  0  0  0  0  0  0  0
   20.3147   -3.9429  -14.2055 C   0  0  2  0  0  0  0  0  0  0  0  0
   19.8894   -5.2958  -13.9539 N   0  0  0  0  0  0  0  0  0  0  0  0
   21.6713   -3.6584  -13.7365 C   0  0  0  0  0  0  0  0  0  0  0  0
   22.2848   -4.5287  -12.8556 O   0  0  0  0  0  0  0  0  0  0  0  0
   22.3076   -2.6470  -14.1045 O   0  0  0  0  0  0  0  0  0  0  0  0
  2  1  1  0
  2  3  1  0
  3  4  2  0
  5  3  1  0
  5  6  1  0
  6  7  1  1
  7  8  1  0
  9 13  1  0
  9  6  1  0
 10  9  2  0
 12 11  1  1
 12 14  1  0
 12 13  1  0
 14 15  1  0
 16 14  2  0
M  END
$$$$
