GCA.pdb
     RDKit          3D

 16 15  0  0  1  0  0  0  0  0999 V2000
   20.4692  -13.1207  -17.0052 N   0  0  0  0  0  0  0  0  0  0  0  0
   20.2475  -11.8145  -17.5983 C   0  0  0  0  0  0  0  0  0  0  0  0
   20.1884  -10.8209  -16.4888 C   0  0  0  0  0  0  0  0  0  0  0  0
   19.3694  -10.9504  -15.5199 O   0  0  0  0  0  0  0  0  0  0  0  0
   21.0278   -9.6762  -16.4330 N   0  0  0  0  0  0  0  0  0  0  0  0
   20.8447   -8.6510  -15.4338 C   0  0  1  0  0  0  0  0  0  0  0  0
   22.2202   -8.1904  -15.0082 C   0  0  0  0  0  0  0  0  0  0  0  0
   22.9832   -9.4510  -13.9578 S   0  0  0  0  0  0  0  0  0  0  0  0
   20.0001   -7.5355  -15.9061 C   0  0  0  0  0  0  0  0  0  0  0  0
   20.2725   -7.0218  -17.0191 O   0  0  0  0  0  0  0  0  0  0  0  0
   16.8737   -5.8535  -14.7011 C   0  0  0  0  0  0  0  0  0  0  0  0
   18.1114   -5.8871  -15.5879 C   0  0  2  0  0  0  0  0  0  0  0  0
   18.9068   -7.0158  -15.1784 N   0  0  0  0  0  0  0  0  0  0  0  0
   18.8417   -4.6192  -15.5724 C   0  0  0  0  0  0  0  0  0  0  0  0
   19.8987   -4.4517  -14.6981 O   0  0  0  0  0  0  0  0  0  0  0  0
   18.5454   -3.6677  -16.3275 O   0  0  0  0  0  0  0  0  0  0  0  0
  2  1  1  0
  2  3  1  0
  3  4  2  0
  5  3  1  0
  5  6  1  0
  6  7  1  6
  7  8  1  0
  9 13  1  0
  9  6  1  0
 10  9  2  0
 12 11  1  1
 12 14  1  0
 12 13  1  0
 14 15  1  0
 16 14  2  0
M  END
$$$$
