GCA.pdb
     RDKit          3D

 16 15  0  0  1  0  0  0  0  0999 V2000
   28.1255  -12.4503  -16.1860 N   0  0  0  0  0  0  0  0  0  0  0  0
   27.2585  -11.8054  -15.2167 C   0  0  0  0  0  0  0  0  0  0  0  0
   26.0025  -11.4218  -15.9217 C   0  0  0  0  0  0  0  0  0  0  0  0
   25.9604  -11.2981  -17.1903 O   0  0  0  0  0  0  0  0  0  0  0  0
   24.7815  -11.1705  -15.2404 N   0  0  0  0  0  0  0  0  0  0  0  0
   23.5876  -10.7740  -15.9477 C   0  0  1  0  0  0  0  0  0  0  0  0
   22.4843  -11.7180  -15.5272 C   0  0  0  0  0  0  0  0  0  0  0  0
   20.9275  -11.2127  -16.2992 S   0  0  0  0  0  0  0  0  0  0  0  0
   23.2319   -9.3586  -15.7223 C   0  0  0  0  0  0  0  0  0  0  0  0
   23.1924   -8.9435  -14.5378 O   0  0  0  0  0  0  0  0  0  0  0  0
   22.4845   -6.4183  -17.9387 C   0  0  0  0  0  0  0  0  0  0  0  0
   22.5806   -7.0666  -16.5639 C   0  0  2  0  0  0  0  0  0  0  0  0
   22.9346   -8.4487  -16.7609 N   0  0  0  0  0  0  0  0  0  0  0  0
   21.3626   -6.8805  -15.7746 C   0  0  0  0  0  0  0  0  0  0  0  0
   21.2259   -5.7532  -14.9871 O   0  0  0  0  0  0  0  0  0  0  0  0
   20.4273   -7.7102  -15.7829 O   0  0  0  0  0  0  0  0  0  0  0  0
  2  1  1  0
  2  3  1  0
  3  4  2  0
  5  3  1  0
  5  6  1  0
  6  7  1  1
  7  8  1  0
  9 13  1  0
  9  6  1  0
 10  9  2  0
 12 11  1  6
 12 14  1  0
 12 13  1  0
 14 15  1  0
 16 14  2  0
M  END
$$$$
