DAS.pdb
     RDKit          3D

 20 19  0  0  1  0  0  0  0  0999 V2000
   18.0224  -11.0778  -15.4364 N   0  0  0  0  0  0  0  0  0  0  0  0
   18.2445   -9.6667  -15.5530 C   0  0  1  0  0  0  0  0  0  0  0  0
   17.0654   -8.9859  -16.2043 C   0  0  0  0  0  0  0  0  0  0  0  0
   16.9466   -9.3974  -17.6216 C   0  0  0  0  0  0  0  0  0  0  0  0
   17.7824   -8.9808  -18.4456 O   0  0  0  0  0  0  0  0  0  0  0  0
   18.4859   -9.1011  -14.2004 C   0  0  0  0  0  0  0  0  0  0  0  0
   17.6117   -9.3462  -13.3199 O   0  0  0  0  0  0  0  0  0  0  0  0
   15.9076  -10.2473  -18.0464 O   0  0  0  0  0  0  0  0  0  0  0  0
   21.2873   -7.2691  -12.5517 C   0  0  0  0  0  0  0  0  0  0  0  0
   19.8768   -7.7779  -12.6198 C   0  0  2  0  0  0  0  0  0  0  0  0
   19.6260   -8.3359  -13.9220 N   0  0  0  0  0  0  0  0  0  0  0  0
   18.9029   -6.6937  -12.3231 C   0  0  0  0  0  0  0  0  0  0  0  0
   18.3551   -5.9891  -13.1901 O   0  0  0  0  0  0  0  0  0  0  0  0
   15.3849   -4.6637  -10.6212 O   0  0  0  0  0  0  0  0  0  0  0  0
   16.2110   -5.6859  -11.1081 C   0  0  0  0  0  0  0  0  0  0  0  0
   17.6051   -5.4411  -10.5585 C   0  0  2  0  0  0  0  0  0  0  0  0
   18.5609   -6.4273  -10.9571 N   0  0  0  0  0  0  0  0  0  0  0  0
   17.5570   -5.2343   -9.0955 C   0  0  0  0  0  0  0  0  0  0  0  0
   17.0927   -4.0778   -8.4923 O   0  0  0  0  0  0  0  0  0  0  0  0
   17.9610   -6.1615   -8.3540 O   0  0  0  0  0  0  0  0  0  0  0  0
  2  1  1  1
  2  3  1  0
  3  4  1  0
  4  8  1  0
  5  4  2  0
  6  2  1  0
  6  7  2  0
 10  9  1  6
 10 11  1  0
 11  6  1  0
 12 13  2  0
 12 10  1  0
 14 15  1  0
 16 17  1  0
 16 15  1  1
 17 12  1  0
 18 16  1  0
 19 18  1  0
 20 18  2  0
M  END
$$$$
