DAS.pdb
     RDKit          3D

 20 19  0  0  1  0  0  0  0  0999 V2000
   18.1509   -8.9197  -15.1212 N   0  0  0  0  0  0  0  0  0  0  0  0
   18.9924   -7.9901  -15.8153 C   0  0  1  0  0  0  0  0  0  0  0  0
   18.3281   -7.4983  -17.0781 C   0  0  0  0  0  0  0  0  0  0  0  0
   18.1969   -8.6001  -18.0584 C   0  0  0  0  0  0  0  0  0  0  0  0
   19.0339   -9.5221  -18.0493 O   0  0  0  0  0  0  0  0  0  0  0  0
   19.2997   -6.8492  -14.9145 C   0  0  0  0  0  0  0  0  0  0  0  0
   18.3190   -6.3193  -14.3171 O   0  0  0  0  0  0  0  0  0  0  0  0
   17.1452   -8.6179  -18.9943 O   0  0  0  0  0  0  0  0  0  0  0  0
   22.3644   -5.3523  -13.4647 C   0  0  0  0  0  0  0  0  0  0  0  0
   20.9272   -5.2724  -13.8902 C   0  0  2  0  0  0  0  0  0  0  0  0
   20.6116   -6.3891  -14.7409 N   0  0  0  0  0  0  0  0  0  0  0  0
   20.6481   -3.9907  -14.5911 C   0  0  0  0  0  0  0  0  0  0  0  0
   20.7535   -3.8283  -15.8203 O   0  0  0  0  0  0  0  0  0  0  0  0
   18.5634    0.3422  -14.3511 O   0  0  0  0  0  0  0  0  0  0  0  0
   18.8265   -0.8354  -13.6380 C   0  0  0  0  0  0  0  0  0  0  0  0
   19.9126   -1.5854  -14.3888 C   0  0  2  0  0  0  0  0  0  0  0  0
   20.2305   -2.8579  -13.8190 N   0  0  0  0  0  0  0  0  0  0  0  0
   21.0970   -0.7231  -14.5862 C   0  0  0  0  0  0  0  0  0  0  0  0
   21.3383    0.0086  -15.7366 O   0  0  0  0  0  0  0  0  0  0  0  0
   21.9353   -0.6485  -13.6565 O   0  0  0  0  0  0  0  0  0  0  0  0
  2  1  1  1
  2  3  1  0
  3  4  1  0
  4  8  1  0
  5  4  2  0
  6  2  1  0
  6  7  2  0
 10  9  1  6
 10 11  1  0
 11  6  1  0
 12 13  2  0
 12 10  1  0
 14 15  1  0
 16 17  1  0
 16 15  1  1
 17 12  1  0
 18 16  1  0
 19 18  1  0
 20 18  2  0
M  END
$$$$
