DAS.pdb
     RDKit          3D

 20 19  0  0  1  0  0  0  0  0999 V2000
   24.7070  -20.9126  -17.4698 N   0  0  0  0  0  0  0  0  0  0  0  0
   24.5210  -20.0628  -16.3308 C   0  0  1  0  0  0  0  0  0  0  0  0
   23.6063  -18.9085  -16.6612 C   0  0  0  0  0  0  0  0  0  0  0  0
   24.2753  -17.9644  -17.5848 C   0  0  0  0  0  0  0  0  0  0  0  0
   25.4625  -17.6513  -17.3763 O   0  0  0  0  0  0  0  0  0  0  0  0
   23.9580  -20.8657  -15.2145 C   0  0  0  0  0  0  0  0  0  0  0  0
   23.0405  -21.6838  -15.5120 O   0  0  0  0  0  0  0  0  0  0  0  0
   23.5905  -17.4195  -18.6878 O   0  0  0  0  0  0  0  0  0  0  0  0
   24.6900  -21.2368  -11.5701 C   0  0  0  0  0  0  0  0  0  0  0  0
   23.8499  -21.4396  -12.7973 C   0  0  2  0  0  0  0  0  0  0  0  0
   24.4245  -20.7182  -13.9017 N   0  0  0  0  0  0  0  0  0  0  0  0
   22.4482  -21.0008  -12.5636 C   0  0  0  0  0  0  0  0  0  0  0  0
   22.0463  -19.8331  -12.7159 O   0  0  0  0  0  0  0  0  0  0  0  0
   18.1988  -21.1548  -13.4967 O   0  0  0  0  0  0  0  0  0  0  0  0
   19.5853  -21.3409  -13.5821 C   0  0  0  0  0  0  0  0  0  0  0  0
   20.0701  -21.7655  -12.2071 C   0  0  2  0  0  0  0  0  0  0  0  0
   21.4835  -21.9698  -12.1343 N   0  0  0  0  0  0  0  0  0  0  0  0
   19.2884  -22.9197  -11.7150 C   0  0  0  0  0  0  0  0  0  0  0  0
   18.2032  -22.8122  -10.8620 O   0  0  0  0  0  0  0  0  0  0  0  0
   19.6273  -24.0668  -12.0920 O   0  0  0  0  0  0  0  0  0  0  0  0
  2  1  1  6
  2  3  1  0
  3  4  1  0
  4  8  1  0
  5  4  2  0
  6  2  1  0
  6  7  2  0
 10  9  1  1
 10 11  1  0
 11  6  1  0
 12 13  2  0
 12 10  1  0
 14 15  1  0
 16 17  1  0
 16 15  1  6
 17 12  1  0
 18 16  1  0
 19 18  1  0
 20 18  2  0
M  END
$$$$
