DAS.pdb
     RDKit          3D

 20 19  0  0  1  0  0  0  0  0999 V2000
   18.7071   -9.5295  -16.9084 N   0  0  0  0  0  0  0  0  0  0  0  0
   19.1345   -8.3284  -16.2537 C   0  0  1  0  0  0  0  0  0  0  0  0
   18.3969   -7.1270  -16.7929 C   0  0  0  0  0  0  0  0  0  0  0  0
   18.8254   -6.8344  -18.1795 C   0  0  0  0  0  0  0  0  0  0  0  0
   17.9680   -6.7872  -19.0815 O   0  0  0  0  0  0  0  0  0  0  0  0
   18.9027   -8.4647  -14.7925 C   0  0  0  0  0  0  0  0  0  0  0  0
   17.7681   -8.8956  -14.4369 O   0  0  0  0  0  0  0  0  0  0  0  0
   20.1807   -6.6110  -18.4889 O   0  0  0  0  0  0  0  0  0  0  0  0
   20.9574   -8.0719  -11.7067 C   0  0  0  0  0  0  0  0  0  0  0  0
   19.6515   -8.1383  -12.4437 C   0  0  2  0  0  0  0  0  0  0  0  0
   19.8951   -8.1305  -13.8617 N   0  0  0  0  0  0  0  0  0  0  0  0
   18.7651   -7.0064  -12.0629 C   0  0  0  0  0  0  0  0  0  0  0  0
   18.8472   -5.8615  -12.5432 O   0  0  0  0  0  0  0  0  0  0  0  0
   14.9879   -7.2415  -11.6445 O   0  0  0  0  0  0  0  0  0  0  0  0
   15.4234   -6.7033  -10.4258 C   0  0  0  0  0  0  0  0  0  0  0  0
   16.8453   -6.2116  -10.6311 C   0  0  2  0  0  0  0  0  0  0  0  0
   17.7451   -7.2280  -11.0808 N   0  0  0  0  0  0  0  0  0  0  0  0
   17.3262   -5.4981   -9.4289 C   0  0  0  0  0  0  0  0  0  0  0  0
   16.7654   -4.3272   -8.9480 O   0  0  0  0  0  0  0  0  0  0  0  0
   18.3011   -5.9813   -8.8054 O   0  0  0  0  0  0  0  0  0  0  0  0
  2  1  1  6
  2  3  1  0
  3  4  1  0
  4  8  1  0
  5  4  2  0
  6  2  1  0
  6  7  2  0
 10  9  1  1
 10 11  1  0
 11  6  1  0
 12 13  2  0
 12 10  1  0
 14 15  1  0
 16 17  1  0
 16 15  1  1
 17 12  1  0
 18 16  1  0
 19 18  1  0
 20 18  2  0
M  END
$$$$
