DAS.pdb
     RDKit          3D

 20 19  0  0  1  0  0  0  0  0999 V2000
   16.0913  -15.0197    6.0344 N   0  0  0  0  0  0  0  0  0  0  0  0
   16.8286  -16.2485    6.0095 C   0  0  1  0  0  0  0  0  0  0  0  0
   16.8139  -16.9151    7.3635 C   0  0  0  0  0  0  0  0  0  0  0  0
   17.6946  -16.1909    8.3080 C   0  0  0  0  0  0  0  0  0  0  0  0
   18.2770  -15.1593    7.9238 O   0  0  0  0  0  0  0  0  0  0  0  0
   16.2376  -17.1470    4.9843 C   0  0  0  0  0  0  0  0  0  0  0  0
   14.9760  -17.1523    4.8954 O   0  0  0  0  0  0  0  0  0  0  0  0
   17.8808  -16.6509    9.6256 O   0  0  0  0  0  0  0  0  0  0  0  0
   17.2099  -18.5311    1.8369 C   0  0  0  0  0  0  0  0  0  0  0  0
   16.4935  -18.7854    3.1311 C   0  0  2  0  0  0  0  0  0  0  0  0
   17.0433  -17.9452    4.1617 N   0  0  0  0  0  0  0  0  0  0  0  0
   16.5893  -20.2170    3.5223 C   0  0  0  0  0  0  0  0  0  0  0  0
   17.5386  -20.7055    4.1615 O   0  0  0  0  0  0  0  0  0  0  0  0
   14.4321  -24.5802    3.2924 O   0  0  0  0  0  0  0  0  0  0  0  0
   14.3449  -23.2526    2.8517 C   0  0  0  0  0  0  0  0  0  0  0  0
   15.5596  -22.5169    3.3892 C   0  0  2  0  0  0  0  0  0  0  0  0
   15.5309  -21.1077    3.1477 N   0  0  0  0  0  0  0  0  0  0  0  0
   16.8053  -23.1626    2.9235 C   0  0  0  0  0  0  0  0  0  0  0  0
   17.4038  -24.2375    3.5584 O   0  0  0  0  0  0  0  0  0  0  0  0
   17.3547  -22.7106    1.8907 O   0  0  0  0  0  0  0  0  0  0  0  0
  2  1  1  1
  2  3  1  0
  3  4  1  0
  4  8  1  0
  5  4  2  0
  6  2  1  0
  6  7  2  0
 10  9  1  6
 10 11  1  0
 11  6  1  0
 12 13  2  0
 12 10  1  0
 14 15  1  0
 16 17  1  0
 16 15  1  6
 17 12  1  0
 18 16  1  0
 19 18  1  0
 20 18  2  0
M  END
$$$$
