DAS.pdb
     RDKit          3D

 20 19  0  0  1  0  0  0  0  0999 V2000
   18.8128  -11.9388  -16.8085 N   0  0  0  0  0  0  0  0  0  0  0  0
   18.2716  -10.8817  -16.0061 C   0  0  1  0  0  0  0  0  0  0  0  0
   17.4815  -11.4346  -14.8451 C   0  0  0  0  0  0  0  0  0  0  0  0
   16.3500  -12.2561  -15.3318 C   0  0  0  0  0  0  0  0  0  0  0  0
   16.2617  -13.4433  -14.9662 O   0  0  0  0  0  0  0  0  0  0  0  0
   19.3844  -10.0285  -15.5148 C   0  0  0  0  0  0  0  0  0  0  0  0
   19.1849   -9.4055  -14.4324 O   0  0  0  0  0  0  0  0  0  0  0  0
   15.3798  -11.7156  -16.1972 O   0  0  0  0  0  0  0  0  0  0  0  0
   22.9206   -9.4306  -16.5401 C   0  0  0  0  0  0  0  0  0  0  0  0
   21.6800   -9.1044  -15.7607 C   0  0  2  0  0  0  0  0  0  0  0  0
   20.5903   -9.9240  -16.2203 N   0  0  0  0  0  0  0  0  0  0  0  0
   21.3342   -7.6633  -15.8856 C   0  0  0  0  0  0  0  0  0  0  0  0
   20.5706   -7.1997  -16.7517 O   0  0  0  0  0  0  0  0  0  0  0  0
   20.9644   -5.3198  -12.8289 O   0  0  0  0  0  0  0  0  0  0  0  0
   21.7880   -4.6062  -13.7103 C   0  0  0  0  0  0  0  0  0  0  0  0
   21.7366   -5.3159  -15.0518 C   0  0  2  0  0  0  0  0  0  0  0  0
   21.9077   -6.7326  -14.9588 N   0  0  0  0  0  0  0  0  0  0  0  0
   22.6631   -4.6789  -16.0115 C   0  0  0  0  0  0  0  0  0  0  0  0
   22.4354   -3.4502  -16.6077 O   0  0  0  0  0  0  0  0  0  0  0  0
   23.7201   -5.2867  -16.3049 O   0  0  0  0  0  0  0  0  0  0  0  0
  2  1  1  1
  2  3  1  0
  3  4  1  0
  4  8  1  0
  5  4  2  0
  6  2  1  0
  6  7  2  0
 10  9  1  6
 10 11  1  0
 11  6  1  0
 12 13  2  0
 12 10  1  0
 14 15  1  0
 16 17  1  0
 16 15  1  1
 17 12  1  0
 18 16  1  0
 19 18  1  0
 20 18  2  0
M  END
$$$$
