DAS.pdb
     RDKit          3D

 20 19  0  0  1  0  0  0  0  0999 V2000
   19.8776   -4.2799  -10.0148 N   0  0  0  0  0  0  0  0  0  0  0  0
   19.4612   -5.4739  -10.6896 C   0  0  1  0  0  0  0  0  0  0  0  0
   20.6500   -6.3229  -11.0689 C   0  0  0  0  0  0  0  0  0  0  0  0
   21.4657   -5.6424  -12.1002 C   0  0  0  0  0  0  0  0  0  0  0  0
   21.0794   -5.6551  -13.2841 O   0  0  0  0  0  0  0  0  0  0  0  0
   18.5433   -6.2356   -9.8036 C   0  0  0  0  0  0  0  0  0  0  0  0
   18.7594   -6.1542   -8.5601 O   0  0  0  0  0  0  0  0  0  0  0  0
   22.6644   -4.9860  -11.7615 O   0  0  0  0  0  0  0  0  0  0  0  0
   15.8261   -6.4907   -8.6738 C   0  0  0  0  0  0  0  0  0  0  0  0
   16.4697   -7.5722   -9.4917 C   0  0  2  0  0  0  0  0  0  0  0  0
   17.4942   -7.0030  -10.3263 N   0  0  0  0  0  0  0  0  0  0  0  0
   15.4621   -8.2862  -10.3205 C   0  0  0  0  0  0  0  0  0  0  0  0
   14.8723   -7.7818  -11.2931 O   0  0  0  0  0  0  0  0  0  0  0  0
   15.6174  -12.2803  -10.8106 O   0  0  0  0  0  0  0  0  0  0  0  0
   14.3050  -11.9164  -10.4797 C   0  0  0  0  0  0  0  0  0  0  0  0
   14.1772  -10.4218  -10.7153 C   0  0  2  0  0  0  0  0  0  0  0  0
   15.1350   -9.6427   -9.9938 N   0  0  0  0  0  0  0  0  0  0  0  0
   12.7835   -9.9795  -10.4974 C   0  0  0  0  0  0  0  0  0  0  0  0
   11.7137  -10.3780  -11.2808 O   0  0  0  0  0  0  0  0  0  0  0  0
   12.5542   -9.1956   -9.5457 O   0  0  0  0  0  0  0  0  0  0  0  0
  2  1  1  1
  2  3  1  0
  3  4  1  0
  4  8  1  0
  5  4  2  0
  6  2  1  0
  6  7  2  0
 10  9  1  6
 10 11  1  0
 11  6  1  0
 12 13  2  0
 12 10  1  0
 14 15  1  0
 16 17  1  0
 16 15  1  1
 17 12  1  0
 18 16  1  0
 19 18  1  0
 20 18  2  0
M  END
$$$$
