DAS.pdb
     RDKit          3D

 20 19  0  0  1  0  0  0  0  0999 V2000
   13.4369  -11.2679  -10.8351 N   0  0  0  0  0  0  0  0  0  0  0  0
   14.7685  -10.7454  -10.7461 C   0  0  1  0  0  0  0  0  0  0  0  0
   15.5963  -11.1701  -11.9345 C   0  0  0  0  0  0  0  0  0  0  0  0
   15.7606  -12.6415  -11.9531 C   0  0  0  0  0  0  0  0  0  0  0  0
   15.3613  -13.3081  -10.9799 O   0  0  0  0  0  0  0  0  0  0  0  0
   14.7026   -9.2633  -10.6649 C   0  0  0  0  0  0  0  0  0  0  0  0
   13.8764   -8.6903  -11.4321 O   0  0  0  0  0  0  0  0  0  0  0  0
   16.3588  -13.2915  -13.0494 O   0  0  0  0  0  0  0  0  0  0  0  0
   15.8694   -6.7091   -8.2692 C   0  0  0  0  0  0  0  0  0  0  0  0
   15.4279   -7.1142   -9.6454 C   0  0  2  0  0  0  0  0  0  0  0  0
   15.5177   -8.5437   -9.7812 N   0  0  0  0  0  0  0  0  0  0  0  0
   16.2467   -6.4411  -10.6887 C   0  0  0  0  0  0  0  0  0  0  0  0
   17.3899   -6.8024  -11.0216 O   0  0  0  0  0  0  0  0  0  0  0  0
   15.2520   -5.5535  -14.1683 O   0  0  0  0  0  0  0  0  0  0  0  0
   15.5859   -4.3068  -13.6219 C   0  0  0  0  0  0  0  0  0  0  0  0
   16.4058   -4.5666  -12.3705 C   0  0  2  0  0  0  0  0  0  0  0  0
   15.7023   -5.3010  -11.3651 N   0  0  0  0  0  0  0  0  0  0  0  0
   16.9965   -3.3085  -11.8668 C   0  0  0  0  0  0  0  0  0  0  0  0
   18.1423   -2.7295  -12.3854 O   0  0  0  0  0  0  0  0  0  0  0  0
   16.4266   -2.7289  -10.9118 O   0  0  0  0  0  0  0  0  0  0  0  0
  2  1  1  6
  2  3  1  0
  3  4  1  0
  4  8  1  0
  5  4  2  0
  6  2  1  0
  6  7  2  0
 10  9  1  1
 10 11  1  0
 11  6  1  0
 12 13  2  0
 12 10  1  0
 14 15  1  0
 16 17  1  0
 16 15  1  6
 17 12  1  0
 18 16  1  0
 19 18  1  0
 20 18  2  0
M  END
$$$$
