PAR.pdb
     RDKit          3D

 24 24  0  0  1  0  0  0  0  0999 V2000
   30.7301  -20.5934   -9.9309 N   0  0  0  0  0  0  0  0  0  0  0  0
   32.1812  -20.7714   -9.7661 C   0  0  0  0  0  0  0  0  0  0  0  0
   32.3923  -22.2427   -9.4974 C   0  0  0  0  0  0  0  0  0  0  0  0
   30.9694  -22.7680   -9.2499 C   0  0  0  0  0  0  0  0  0  0  0  0
   30.2038  -21.9112  -10.2195 C   0  0  1  0  0  0  0  0  0  0  0  0
   28.7503  -21.9520  -10.0813 C   0  0  0  0  0  0  0  0  0  0  0  0
   28.0426  -22.9601  -10.3502 O   0  0  0  0  0  0  0  0  0  0  0  0
   26.2073  -19.5768   -8.6210 C   0  0  0  0  0  0  0  0  0  0  0  0
   26.6183  -20.7384   -9.4993 C   0  0  2  0  0  0  0  0  0  0  0  0
   28.0572  -20.8115   -9.6222 N   0  0  0  0  0  0  0  0  0  0  0  0
   25.9540  -20.5660  -10.8062 C   0  0  0  0  0  0  0  0  0  0  0  0
   26.3288  -19.5885  -11.5204 O   0  0  0  0  0  0  0  0  0  0  0  0
   23.1457  -25.8822  -17.2802 N   0  0  0  0  0  0  0  0  0  0  0  0
   22.8770  -24.5424  -17.7022 C   0  0  0  0  0  0  0  0  0  0  0  0
   22.5082  -24.3678  -18.9228 N   0  0  0  0  0  0  0  0  0  0  0  0
   23.0060  -23.4355  -16.8233 N   0  0  0  0  0  0  0  0  0  0  0  0
   23.4194  -23.6397  -15.4542 C   0  0  0  0  0  0  0  0  0  0  0  0
   23.6496  -22.2929  -14.7611 C   0  0  0  0  0  0  0  0  0  0  0  0
   24.1630  -22.4899  -13.3668 C   0  0  0  0  0  0  0  0  0  0  0  0
   24.3730  -21.1956  -12.6775 C   0  0  2  0  0  0  0  0  0  0  0  0
   24.9383  -21.3910  -11.3356 N   0  0  0  0  0  0  0  0  0  0  0  0
   23.0812  -20.5022  -12.4762 C   0  0  0  0  0  0  0  0  0  0  0  0
   22.3736  -20.4394  -11.2890 O   0  0  0  0  0  0  0  0  0  0  0  0
   22.5201  -19.8898  -13.4592 O   0  0  0  0  0  0  0  0  0  0  0  0
  1  2  1  0
  3  2  1  0
  4  5  1  0
  4  3  1  0
  5  1  1  0
  5  6  1  1
  6  7  2  0
  9  8  1  1
  9 10  1  0
 10  6  1  0
 11  9  1  0
 12 11  2  0
 14 13  1  0
 14 15  2  0
 16 14  1  0
 17 16  1  0
 18 17  1  0
 19 18  1  0
 20 21  1  0
 20 19  1  1
 21 11  1  0
 22 20  1  0
 23 22  1  0
 24 22  2  0
M  END
$$$$
