PAR.pdb
     RDKit          3D

 24 24  0  0  1  0  0  0  0  0999 V2000
   21.5950  -16.7715  -15.6312 N   0  0  0  0  0  0  0  0  0  0  0  0
   20.1862  -16.3925  -15.4418 C   0  0  0  0  0  0  0  0  0  0  0  0
   19.3739  -17.4198  -16.1946 C   0  0  0  0  0  0  0  0  0  0  0  0
   20.4298  -18.1796  -17.0129 C   0  0  0  0  0  0  0  0  0  0  0  0
   21.5758  -18.1605  -16.0400 C   0  0  1  0  0  0  0  0  0  0  0  0
   22.8660  -18.5798  -16.5813 C   0  0  0  0  0  0  0  0  0  0  0  0
   23.2176  -19.7826  -16.7193 O   0  0  0  0  0  0  0  0  0  0  0  0
   25.7835  -16.6969  -18.0852 C   0  0  0  0  0  0  0  0  0  0  0  0
   25.1229  -17.9229  -17.4935 C   0  0  2  0  0  0  0  0  0  0  0  0
   23.8061  -17.6079  -16.9857 N   0  0  0  0  0  0  0  0  0  0  0  0
   26.0164  -18.4471  -16.4420 C   0  0  0  0  0  0  0  0  0  0  0  0
   26.2633  -17.6845  -15.4604 O   0  0  0  0  0  0  0  0  0  0  0  0
   23.8174  -21.0535   -9.8245 N   0  0  0  0  0  0  0  0  0  0  0  0
   25.0656  -20.3615   -9.7321 C   0  0  0  0  0  0  0  0  0  0  0  0
   25.3538  -19.8061   -8.6074 N   0  0  0  0  0  0  0  0  0  0  0  0
   25.9647  -20.2801  -10.8271 N   0  0  0  0  0  0  0  0  0  0  0  0
   26.0035  -21.3337  -11.8147 C   0  0  0  0  0  0  0  0  0  0  0  0
   27.0270  -21.0031  -12.9059 C   0  0  0  0  0  0  0  0  0  0  0  0
   26.3560  -20.4034  -14.1044 C   0  0  0  0  0  0  0  0  0  0  0  0
   27.2948  -20.2706  -15.2426 C   0  0  2  0  0  0  0  0  0  0  0  0
   26.6222  -19.7220  -16.4280 N   0  0  0  0  0  0  0  0  0  0  0  0
   27.8084  -21.5986  -15.6460 C   0  0  0  0  0  0  0  0  0  0  0  0
   28.8298  -22.2937  -15.0233 O   0  0  0  0  0  0  0  0  0  0  0  0
   27.2983  -22.2044  -16.6604 O   0  0  0  0  0  0  0  0  0  0  0  0
  1  2  1  0
  3  2  1  0
  4  5  1  0
  4  3  1  0
  5  1  1  0
  5  6  1  6
  6  7  2  0
  9  8  1  1
  9 10  1  0
 10  6  1  0
 11  9  1  0
 12 11  2  0
 14 13  1  0
 14 15  2  0
 16 14  1  0
 17 16  1  0
 18 17  1  0
 19 18  1  0
 20 21  1  0
 20 19  1  1
 21 11  1  0
 22 20  1  0
 23 22  1  0
 24 22  2  0
M  END
$$$$
