PAR.pdb
     RDKit          3D

 24 24  0  0  1  0  0  0  0  0999 V2000
   26.2396  -20.6101  -16.6676 N   0  0  0  0  0  0  0  0  0  0  0  0
   27.5857  -20.7971  -17.2308 C   0  0  0  0  0  0  0  0  0  0  0  0
   28.5477  -20.6090  -16.0816 C   0  0  0  0  0  0  0  0  0  0  0  0
   27.6607  -20.0392  -14.9634 C   0  0  0  0  0  0  0  0  0  0  0  0
   26.3849  -20.7861  -15.2376 C   0  0  1  0  0  0  0  0  0  0  0  0
   25.2095  -20.3077  -14.5145 C   0  0  0  0  0  0  0  0  0  0  0  0
   25.1195  -20.2702  -13.2576 O   0  0  0  0  0  0  0  0  0  0  0  0
   22.2772  -18.2330  -15.4956 C   0  0  0  0  0  0  0  0  0  0  0  0
   22.9067  -19.2853  -14.6091 C   0  0  2  0  0  0  0  0  0  0  0  0
   24.0827  -19.8514  -15.2315 N   0  0  0  0  0  0  0  0  0  0  0  0
   21.8775  -20.3054  -14.3280 C   0  0  0  0  0  0  0  0  0  0  0  0
   21.7936  -21.2791  -15.1347 O   0  0  0  0  0  0  0  0  0  0  0  0
   18.8265  -24.6918   -7.7496 N   0  0  0  0  0  0  0  0  0  0  0  0
   17.9338  -25.0142   -8.8195 C   0  0  0  0  0  0  0  0  0  0  0  0
   17.2216  -26.0791   -8.6970 N   0  0  0  0  0  0  0  0  0  0  0  0
   17.8235  -24.2031   -9.9789 N   0  0  0  0  0  0  0  0  0  0  0  0
   18.7466  -23.1127  -10.1928 C   0  0  0  0  0  0  0  0  0  0  0  0
   18.3517  -22.3181  -11.4419 C   0  0  0  0  0  0  0  0  0  0  0  0
   19.3251  -21.2079  -11.6992 C   0  0  0  0  0  0  0  0  0  0  0  0
   20.0046  -21.3733  -13.0052 C   0  0  2  0  0  0  0  0  0  0  0  0
   20.9765  -20.2971  -13.2413 N   0  0  0  0  0  0  0  0  0  0  0  0
   19.0256  -21.2855  -14.1114 C   0  0  0  0  0  0  0  0  0  0  0  0
   18.3993  -22.3563  -14.7239 O   0  0  0  0  0  0  0  0  0  0  0  0
   18.6933  -20.1365  -14.5863 O   0  0  0  0  0  0  0  0  0  0  0  0
  1  2  1  0
  3  2  1  0
  4  5  1  0
  4  3  1  0
  5  1  1  0
  5  6  1  1
  6  7  2  0
  9  8  1  6
  9 10  1  0
 10  6  1  0
 11  9  1  0
 12 11  2  0
 14 13  1  0
 14 15  2  0
 16 14  1  0
 17 16  1  0
 18 17  1  0
 19 18  1  0
 20 21  1  0
 20 19  1  1
 21 11  1  0
 22 20  1  0
 23 22  1  0
 24 22  2  0
M  END
$$$$
