PAR.pdb
     RDKit          3D

 24 24  0  0  1  0  0  0  0  0999 V2000
   23.0109   -9.2960  -16.3530 N   0  0  0  0  0  0  0  0  0  0  0  0
   23.6945  -10.3067  -17.1749 C   0  0  0  0  0  0  0  0  0  0  0  0
   24.1305  -11.3936  -16.2209 C   0  0  0  0  0  0  0  0  0  0  0  0
   23.8937  -10.7695  -14.8367 C   0  0  0  0  0  0  0  0  0  0  0  0
   22.6535   -9.9686  -15.1214 C   0  0  1  0  0  0  0  0  0  0  0  0
   22.2676   -9.0180  -14.0818 C   0  0  0  0  0  0  0  0  0  0  0  0
   21.9256   -9.3477  -12.9140 O   0  0  0  0  0  0  0  0  0  0  0  0
   22.2486   -5.2451  -13.8754 C   0  0  0  0  0  0  0  0  0  0  0  0
   21.8148   -6.6247  -13.4304 C   0  0  2  0  0  0  0  0  0  0  0  0
   22.2632   -7.6349  -14.3628 N   0  0  0  0  0  0  0  0  0  0  0  0
   20.3455   -6.6065  -13.2903 C   0  0  0  0  0  0  0  0  0  0  0  0
   19.6625   -6.7967  -14.3406 O   0  0  0  0  0  0  0  0  0  0  0  0
   14.1146   -6.0962   -6.6508 N   0  0  0  0  0  0  0  0  0  0  0  0
   13.6212   -6.8203   -7.7811 C   0  0  0  0  0  0  0  0  0  0  0  0
   12.5371   -7.4962   -7.6251 N   0  0  0  0  0  0  0  0  0  0  0  0
   14.2870   -6.8056   -9.0343 N   0  0  0  0  0  0  0  0  0  0  0  0
   15.7255   -6.6847   -9.0910 C   0  0  0  0  0  0  0  0  0  0  0  0
   16.2017   -6.6722  -10.5472 C   0  0  0  0  0  0  0  0  0  0  0  0
   17.6945   -6.5598  -10.6206 C   0  0  0  0  0  0  0  0  0  0  0  0
   18.1626   -6.4513  -12.0219 C   0  0  2  0  0  0  0  0  0  0  0  0
   19.6291   -6.3971  -12.0921 N   0  0  0  0  0  0  0  0  0  0  0  0
   17.6807   -5.1918  -12.6313 C   0  0  0  0  0  0  0  0  0  0  0  0
   16.5402   -5.0508  -13.4017 O   0  0  0  0  0  0  0  0  0  0  0  0
   18.3440   -4.1016  -12.4643 O   0  0  0  0  0  0  0  0  0  0  0  0
  1  2  1  0
  3  2  1  0
  4  5  1  0
  4  3  1  0
  5  1  1  0
  5  6  1  1
  6  7  2  0
  9  8  1  6
  9 10  1  0
 10  6  1  0
 11  9  1  0
 12 11  2  0
 14 13  1  0
 14 15  2  0
 16 14  1  0
 17 16  1  0
 18 17  1  0
 19 18  1  0
 20 21  1  0
 20 19  1  1
 21 11  1  0
 22 20  1  0
 23 22  1  0
 24 22  2  0
M  END
$$$$
