PAR.pdb
     RDKit          3D

 24 24  0  0  1  0  0  0  0  0999 V2000
   23.5524  -25.1331  -15.8301 N   0  0  0  0  0  0  0  0  0  0  0  0
   24.7948  -25.5857  -16.4751 C   0  0  0  0  0  0  0  0  0  0  0  0
   25.8883  -24.6855  -15.9501 C   0  0  0  0  0  0  0  0  0  0  0  0
   25.1162  -23.5712  -15.2261 C   0  0  0  0  0  0  0  0  0  0  0  0
   23.9676  -24.3682  -14.6728 C   0  0  1  0  0  0  0  0  0  0  0  0
   22.8654  -23.5828  -14.1235 C   0  0  0  0  0  0  0  0  0  0  0  0
   22.9601  -22.8492  -13.1025 O   0  0  0  0  0  0  0  0  0  0  0  0
   19.6913  -22.3313  -15.5488 C   0  0  0  0  0  0  0  0  0  0  0  0
   20.4796  -22.7981  -14.3445 C   0  0  2  0  0  0  0  0  0  0  0  0
   21.5989  -23.6212  -14.7450 N   0  0  0  0  0  0  0  0  0  0  0  0
   19.5480  -23.5170  -13.4533 C   0  0  0  0  0  0  0  0  0  0  0  0
   19.2069  -24.6880  -13.7974 O   0  0  0  0  0  0  0  0  0  0  0  0
   16.3554  -25.8064   -7.0009 N   0  0  0  0  0  0  0  0  0  0  0  0
   17.6662  -25.9890   -6.4587 C   0  0  0  0  0  0  0  0  0  0  0  0
   17.8633  -27.0242   -5.7200 N   0  0  0  0  0  0  0  0  0  0  0  0
   18.7214  -25.0752   -6.7148 N   0  0  0  0  0  0  0  0  0  0  0  0
   18.5193  -23.9677   -7.6202 C   0  0  0  0  0  0  0  0  0  0  0  0
   18.3885  -24.4745   -9.0602 C   0  0  0  0  0  0  0  0  0  0  0  0
   18.1173  -23.3414  -10.0031 C   0  0  0  0  0  0  0  0  0  0  0  0
   18.0838  -23.8025  -11.4106 C   0  0  2  0  0  0  0  0  0  0  0  0
   19.0012  -23.0204  -12.2504 N   0  0  0  0  0  0  0  0  0  0  0  0
   16.7358  -23.6026  -11.9875 C   0  0  0  0  0  0  0  0  0  0  0  0
   16.2821  -22.4489  -12.6017 O   0  0  0  0  0  0  0  0  0  0  0  0
   15.8682  -24.5518  -11.9384 O   0  0  0  0  0  0  0  0  0  0  0  0
  1  2  1  0
  3  2  1  0
  4  5  1  0
  4  3  1  0
  5  1  1  0
  5  6  1  6
  6  7  2  0
  9  8  1  6
  9 10  1  0
 10  6  1  0
 11  9  1  0
 12 11  2  0
 14 13  1  0
 14 15  2  0
 16 14  1  0
 17 16  1  0
 18 17  1  0
 19 18  1  0
 20 21  1  0
 20 19  1  1
 21 11  1  0
 22 20  1  0
 23 22  1  0
 24 22  2  0
M  END
$$$$
