PAR.pdb
     RDKit          3D

 24 24  0  0  1  0  0  0  0  0999 V2000
   18.6721  -16.8051  -16.9010 N   0  0  0  0  0  0  0  0  0  0  0  0
   17.2661  -16.3721  -16.9074 C   0  0  0  0  0  0  0  0  0  0  0  0
   16.4497  -17.6126  -17.1836 C   0  0  0  0  0  0  0  0  0  0  0  0
   17.5053  -18.6492  -17.5995 C   0  0  0  0  0  0  0  0  0  0  0  0
   18.6398  -18.2391  -16.7021 C   0  0  1  0  0  0  0  0  0  0  0  0
   19.9309  -18.8529  -17.0019 C   0  0  0  0  0  0  0  0  0  0  0  0
   20.2810  -19.9952  -16.5994 O   0  0  0  0  0  0  0  0  0  0  0  0
   22.4286  -18.4821  -19.6377 C   0  0  0  0  0  0  0  0  0  0  0  0
   22.1632  -18.6910  -18.1627 C   0  0  2  0  0  0  0  0  0  0  0  0
   20.8735  -18.1555  -17.7873 N   0  0  0  0  0  0  0  0  0  0  0  0
   23.2691  -18.0590  -17.4168 C   0  0  0  0  0  0  0  0  0  0  0  0
   23.1270  -16.8419  -17.0938 O   0  0  0  0  0  0  0  0  0  0  0  0
   27.9809  -21.2536  -11.1379 N   0  0  0  0  0  0  0  0  0  0  0  0
   26.6639  -20.7719  -11.4187 C   0  0  0  0  0  0  0  0  0  0  0  0
   25.7043  -21.2027  -10.6771 N   0  0  0  0  0  0  0  0  0  0  0  0
   26.4057  -19.8538  -12.4697 N   0  0  0  0  0  0  0  0  0  0  0  0
   27.5016  -19.2449  -13.1876 C   0  0  0  0  0  0  0  0  0  0  0  0
   26.9703  -18.2644  -14.2383 C   0  0  0  0  0  0  0  0  0  0  0  0
   25.8712  -18.8881  -15.0442 C   0  0  0  0  0  0  0  0  0  0  0  0
   25.4770  -18.0267  -16.1831 C   0  0  2  0  0  0  0  0  0  0  0  0
   24.4727  -18.6862  -17.0286 N   0  0  0  0  0  0  0  0  0  0  0  0
   26.6395  -17.7677  -17.0613 C   0  0  0  0  0  0  0  0  0  0  0  0
   27.4386  -16.6387  -17.0331 O   0  0  0  0  0  0  0  0  0  0  0  0
   26.9801  -18.6344  -17.9496 O   0  0  0  0  0  0  0  0  0  0  0  0
  1  2  1  0
  3  2  1  0
  4  5  1  0
  4  3  1  0
  5  1  1  0
  5  6  1  6
  6  7  2  0
  9  8  1  6
  9 10  1  0
 10  6  1  0
 11  9  1  0
 12 11  2  0
 14 13  1  0
 14 15  2  0
 16 14  1  0
 17 16  1  0
 18 17  1  0
 19 18  1  0
 20 21  1  0
 20 19  1  1
 21 11  1  0
 22 20  1  0
 23 22  1  0
 24 22  2  0
M  END
$$$$
