PAR.pdb
     RDKit          3D

 24 24  0  0  1  0  0  0  0  0999 V2000
   29.2878  -21.5107  -12.5391 N   0  0  0  0  0  0  0  0  0  0  0  0
   30.4267  -21.9228  -11.7041 C   0  0  0  0  0  0  0  0  0  0  0  0
   30.1268  -21.4178  -10.3124 C   0  0  0  0  0  0  0  0  0  0  0  0
   28.9236  -20.4852  -10.5228 C   0  0  0  0  0  0  0  0  0  0  0  0
   28.2078  -21.2273  -11.6171 C   0  0  1  0  0  0  0  0  0  0  0  0
   27.1237  -20.4953  -12.2670 C   0  0  0  0  0  0  0  0  0  0  0  0
   26.1240  -20.0256  -11.6593 O   0  0  0  0  0  0  0  0  0  0  0  0
   26.5600  -19.3210  -15.8221 C   0  0  0  0  0  0  0  0  0  0  0  0
   26.1269  -19.5853  -14.3966 C   0  0  2  0  0  0  0  0  0  0  0  0
   27.1599  -20.2804  -13.6614 N   0  0  0  0  0  0  0  0  0  0  0  0
   24.8662  -20.3515  -14.4484 C   0  0  0  0  0  0  0  0  0  0  0  0
   24.9579  -21.6154  -14.4496 O   0  0  0  0  0  0  0  0  0  0  0  0
   17.2453  -22.3738  -12.5379 N   0  0  0  0  0  0  0  0  0  0  0  0
   18.2828  -23.3031  -12.2130 C   0  0  0  0  0  0  0  0  0  0  0  0
   17.9930  -24.5561  -12.2613 N   0  0  0  0  0  0  0  0  0  0  0  0
   19.5875  -22.8789  -11.8496 N   0  0  0  0  0  0  0  0  0  0  0  0
   19.9116  -21.4714  -11.8201 C   0  0  0  0  0  0  0  0  0  0  0  0
   20.2084  -20.9637  -13.2349 C   0  0  0  0  0  0  0  0  0  0  0  0
   21.4979  -20.2006  -13.2695 C   0  0  0  0  0  0  0  0  0  0  0  0
   22.3526  -20.6297  -14.4008 C   0  0  2  0  0  0  0  0  0  0  0  0
   23.5653  -19.8057  -14.4962 N   0  0  0  0  0  0  0  0  0  0  0  0
   21.6385  -20.4502  -15.6845 C   0  0  0  0  0  0  0  0  0  0  0  0
   20.7660  -21.3578  -16.2581 O   0  0  0  0  0  0  0  0  0  0  0  0
   21.8096  -19.3751  -16.3707 O   0  0  0  0  0  0  0  0  0  0  0  0
  1  2  1  0
  3  2  1  0
  4  5  1  0
  4  3  1  0
  5  1  1  0
  5  6  1  6
  6  7  2  0
  9  8  1  6
  9 10  1  0
 10  6  1  0
 11  9  1  0
 12 11  2  0
 14 13  1  0
 14 15  2  0
 16 14  1  0
 17 16  1  0
 18 17  1  0
 19 18  1  0
 20 21  1  0
 20 19  1  1
 21 11  1  0
 22 20  1  0
 23 22  1  0
 24 22  2  0
M  END
$$$$
