PAR.pdb
     RDKit          3D

 24 24  0  0  1  0  0  0  0  0999 V2000
   22.2396   -9.0421  -16.2986 N   0  0  0  0  0  0  0  0  0  0  0  0
   22.4967   -9.4651  -17.6840 C   0  0  0  0  0  0  0  0  0  0  0  0
   21.1958  -10.0409  -18.1918 C   0  0  0  0  0  0  0  0  0  0  0  0
   20.3372  -10.1565  -16.9224 C   0  0  0  0  0  0  0  0  0  0  0  0
   20.8003   -8.9320  -16.1830 C   0  0  1  0  0  0  0  0  0  0  0  0
   20.3779   -8.8440  -14.7876 C   0  0  0  0  0  0  0  0  0  0  0  0
   19.1749   -8.7822  -14.4156 O   0  0  0  0  0  0  0  0  0  0  0  0
   22.2918   -8.6337  -11.5210 C   0  0  0  0  0  0  0  0  0  0  0  0
   21.0329   -8.6531  -12.3603 C   0  0  2  0  0  0  0  0  0  0  0  0
   21.3468   -8.8229  -13.7616 N   0  0  0  0  0  0  0  0  0  0  0  0
   20.3036   -7.3966  -12.0995 C   0  0  0  0  0  0  0  0  0  0  0  0
   20.6908   -6.3636  -12.7232 O   0  0  0  0  0  0  0  0  0  0  0  0
   13.0053   -4.2477  -14.6012 N   0  0  0  0  0  0  0  0  0  0  0  0
   13.4910   -3.2526  -13.6960 C   0  0  0  0  0  0  0  0  0  0  0  0
   12.8967   -2.1111  -13.6952 N   0  0  0  0  0  0  0  0  0  0  0  0
   14.5843   -3.4963  -12.8245 N   0  0  0  0  0  0  0  0  0  0  0  0
   15.2853   -4.7585  -12.8742 C   0  0  0  0  0  0  0  0  0  0  0  0
   16.4465   -4.7622  -11.8747 C   0  0  0  0  0  0  0  0  0  0  0  0
   17.2412   -6.0283  -11.9832 C   0  0  0  0  0  0  0  0  0  0  0  0
   18.4438   -5.9903  -11.1190 C   0  0  2  0  0  0  0  0  0  0  0  0
   19.2122   -7.2386  -11.2183 N   0  0  0  0  0  0  0  0  0  0  0  0
   18.0540   -5.8661   -9.6968 C   0  0  0  0  0  0  0  0  0  0  0  0
   18.3067   -6.7969   -8.7049 O   0  0  0  0  0  0  0  0  0  0  0  0
   17.4193   -4.8220   -9.2928 O   0  0  0  0  0  0  0  0  0  0  0  0
  1  2  1  0
  3  2  1  0
  4  5  1  0
  4  3  1  0
  5  1  1  0
  5  6  1  1
  6  7  2  0
  9  8  1  1
  9 10  1  0
 10  6  1  0
 11  9  1  0
 12 11  2  0
 14 13  1  0
 14 15  2  0
 16 14  1  0
 17 16  1  0
 18 17  1  0
 19 18  1  0
 20 21  1  0
 20 19  1  6
 21 11  1  0
 22 20  1  0
 23 22  1  0
 24 22  2  0
M  END
$$$$
