PAR.pdb
     RDKit          3D

 24 24  0  0  1  0  0  0  0  0999 V2000
   16.0148  -18.6465    3.9366 N   0  0  0  0  0  0  0  0  0  0  0  0
   15.4634  -19.8371    3.2713 C   0  0  0  0  0  0  0  0  0  0  0  0
   16.6527  -20.6728    2.8605 C   0  0  0  0  0  0  0  0  0  0  0  0
   17.8460  -19.7316    3.0887 C   0  0  0  0  0  0  0  0  0  0  0  0
   17.3686  -18.9984    4.3114 C   0  0  1  0  0  0  0  0  0  0  0  0
   18.1480  -17.8197    4.6809 C   0  0  0  0  0  0  0  0  0  0  0  0
   19.3757  -17.8451    4.9667 O   0  0  0  0  0  0  0  0  0  0  0  0
   17.3490  -14.1246    4.8455 C   0  0  0  0  0  0  0  0  0  0  0  0
   18.1954  -15.3423    5.1467 C   0  0  2  0  0  0  0  0  0  0  0  0
   17.5243  -16.5548    4.7341 N   0  0  0  0  0  0  0  0  0  0  0  0
   18.4923  -15.3323    6.5926 C   0  0  0  0  0  0  0  0  0  0  0  0
   17.6275  -15.8457    7.3636 O   0  0  0  0  0  0  0  0  0  0  0  0
   25.8293  -15.8291   11.3212 N   0  0  0  0  0  0  0  0  0  0  0  0
   24.8195  -16.8278   11.1533 C   0  0  0  0  0  0  0  0  0  0  0  0
   25.1646  -18.0553   11.3282 N   0  0  0  0  0  0  0  0  0  0  0  0
   23.4832  -16.4975   10.8077 N   0  0  0  0  0  0  0  0  0  0  0  0
   23.0716  -15.1144   10.7392 C   0  0  0  0  0  0  0  0  0  0  0  0
   21.5731  -15.0194   10.4344 C   0  0  0  0  0  0  0  0  0  0  0  0
   21.3319  -14.9404    8.9572 C   0  0  0  0  0  0  0  0  0  0  0  0
   19.8862  -14.8491    8.6472 C   0  0  2  0  0  0  0  0  0  0  0  0
   19.6530  -14.8035    7.1974 N   0  0  0  0  0  0  0  0  0  0  0  0
   19.3202  -13.5935    9.1886 C   0  0  0  0  0  0  0  0  0  0  0  0
   19.4111  -12.3453    8.5989 O   0  0  0  0  0  0  0  0  0  0  0  0
   18.6798  -13.6056   10.3048 O   0  0  0  0  0  0  0  0  0  0  0  0
  1  2  1  0
  3  2  1  0
  4  5  1  0
  4  3  1  0
  5  1  1  0
  5  6  1  6
  6  7  2  0
  9  8  1  1
  9 10  1  0
 10  6  1  0
 11  9  1  0
 12 11  2  0
 14 13  1  0
 14 15  2  0
 16 14  1  0
 17 16  1  0
 18 17  1  0
 19 18  1  0
 20 21  1  0
 20 19  1  6
 21 11  1  0
 22 20  1  0
 23 22  1  0
 24 22  2  0
M  END
$$$$
