MQS.pdb
     RDKit          3D

 24 23  0  0  1  0  0  0  0  0999 V2000
   37.3098  -23.8303  -17.7288 C   0  0  0  0  0  0  0  0  0  0  0  0
   36.8196  -24.8974  -19.0921 S   0  0  0  0  0  0  0  0  0  0  0  0
   35.8307  -26.2822  -18.4292 C   0  0  0  0  0  0  0  0  0  0  0  0
   34.4115  -26.0613  -18.8407 C   0  0  0  0  0  0  0  0  0  0  0  0
   33.5956  -25.2900  -17.8475 C   0  0  2  0  0  0  0  0  0  0  0  0
   33.9314  -25.6300  -16.5050 N   0  0  0  0  0  0  0  0  0  0  0  0
   32.1391  -25.2912  -18.1237 C   0  0  0  0  0  0  0  0  0  0  0  0
   31.6881  -25.0013  -19.2435 O   0  0  0  0  0  0  0  0  0  0  0  0
   25.8496  -28.2921  -17.2155 N   0  0  0  0  0  0  0  0  0  0  0  0
   27.1529  -28.1654  -16.5855 C   0  0  0  0  0  0  0  0  0  0  0  0
   27.7002  -29.2270  -16.2609 O   0  0  0  0  0  0  0  0  0  0  0  0
   27.7178  -26.8417  -16.3758 C   0  0  0  0  0  0  0  0  0  0  0  0
   29.1828  -26.7052  -16.3228 C   0  0  0  0  0  0  0  0  0  0  0  0
   29.8334  -25.7120  -17.2024 C   0  0  2  0  0  0  0  0  0  0  0  0
   31.2342  -25.6277  -17.0828 N   0  0  0  0  0  0  0  0  0  0  0  0
   29.1685  -24.3784  -17.0151 C   0  0  0  0  0  0  0  0  0  0  0  0
   29.1185  -23.9350  -15.8409 O   0  0  0  0  0  0  0  0  0  0  0  0
   28.2826  -21.9085  -20.1980 O   0  0  0  0  0  0  0  0  0  0  0  0
   28.4207  -21.3380  -18.9520 C   0  0  0  0  0  0  0  0  0  0  0  0
   27.9951  -22.3292  -17.8991 C   0  0  2  0  0  0  0  0  0  0  0  0
   28.6117  -23.6177  -18.0664 N   0  0  0  0  0  0  0  0  0  0  0  0
   26.5334  -22.3836  -17.8293 C   0  0  0  0  0  0  0  0  0  0  0  0
   25.8982  -23.5905  -18.0749 O   0  0  0  0  0  0  0  0  0  0  0  0
   25.8142  -21.3905  -17.5571 O   0  0  0  0  0  0  0  0  0  0  0  0
  1  2  1  0
  2  3  1  0
  3  4  1  0
  5  4  1  0
  5  7  1  0
  5  6  1  1
  7  8  2  0
  9 10  1  0
 10 12  1  0
 10 11  2  0
 12 13  1  0
 14 13  1  1
 15 14  1  0
 15  7  1  0
 16 17  2  0
 16 14  1  0
 18 19  1  0
 20 19  1  6
 20 22  1  0
 20 21  1  0
 21 16  1  0
 22 23  1  0
 24 22  2  0
M  END
$$$$
