MQS.pdb
     RDKit          3D

 24 23  0  0  1  0  0  0  0  0999 V2000
   18.0053  -15.3792  -12.7512 C   0  0  0  0  0  0  0  0  0  0  0  0
   18.8669  -16.4100  -13.9482 S   0  0  0  0  0  0  0  0  0  0  0  0
   18.4082  -15.8670  -15.6304 C   0  0  0  0  0  0  0  0  0  0  0  0
   18.8895  -14.4625  -15.7985 C   0  0  0  0  0  0  0  0  0  0  0  0
   18.4342  -13.8034  -17.0656 C   0  0  2  0  0  0  0  0  0  0  0  0
   18.7805  -14.5682  -18.2170 N   0  0  0  0  0  0  0  0  0  0  0  0
   18.7883  -12.3674  -17.1664 C   0  0  0  0  0  0  0  0  0  0  0  0
   19.8748  -11.9959  -17.6384 O   0  0  0  0  0  0  0  0  0  0  0  0
   17.4619   -7.8879  -19.4680 N   0  0  0  0  0  0  0  0  0  0  0  0
   17.2227   -7.0811  -18.2833 C   0  0  0  0  0  0  0  0  0  0  0  0
   17.3052   -5.8560  -18.4399 O   0  0  0  0  0  0  0  0  0  0  0  0
   16.9150   -7.7386  -17.0231 C   0  0  0  0  0  0  0  0  0  0  0  0
   16.8186   -9.2076  -17.0042 C   0  0  0  0  0  0  0  0  0  0  0  0
   18.0464   -9.9944  -16.7657 C   0  0  2  0  0  0  0  0  0  0  0  0
   17.8658  -11.3900  -16.7088 N   0  0  0  0  0  0  0  0  0  0  0  0
   18.7415   -9.4639  -15.5445 C   0  0  0  0  0  0  0  0  0  0  0  0
   18.2136   -9.7312  -14.4365 O   0  0  0  0  0  0  0  0  0  0  0  0
   22.7251   -8.9016  -15.1613 O   0  0  0  0  0  0  0  0  0  0  0  0
   21.8603   -8.9685  -14.0915 C   0  0  0  0  0  0  0  0  0  0  0  0
   20.6059   -8.1973  -14.4144 C   0  0  2  0  0  0  0  0  0  0  0  0
   19.9284   -8.6998  -15.5793 N   0  0  0  0  0  0  0  0  0  0  0  0
   20.9062   -6.7658  -14.4830 C   0  0  0  0  0  0  0  0  0  0  0  0
   21.4374   -6.1413  -13.3657 O   0  0  0  0  0  0  0  0  0  0  0  0
   20.7086   -6.0634  -15.5054 O   0  0  0  0  0  0  0  0  0  0  0  0
  1  2  1  0
  2  3  1  0
  3  4  1  0
  5  4  1  0
  5  7  1  0
  5  6  1  6
  7  8  2  0
  9 10  1  0
 10 12  1  0
 10 11  2  0
 12 13  1  0
 14 13  1  1
 15 14  1  0
 15  7  1  0
 16 17  2  0
 16 14  1  0
 18 19  1  0
 20 19  1  6
 20 22  1  0
 20 21  1  0
 21 16  1  0
 22 23  1  0
 24 22  2  0
M  END
$$$$
