MQS.pdb
     RDKit          3D

 24 23  0  0  1  0  0  0  0  0999 V2000
   37.0882   -6.9151   -5.4300 C   0  0  0  0  0  0  0  0  0  0  0  0
   37.0172   -5.8682   -6.8917 S   0  0  0  0  0  0  0  0  0  0  0  0
   37.8112   -6.7452   -8.2828 C   0  0  0  0  0  0  0  0  0  0  0  0
   37.7134   -5.8652   -9.4863 C   0  0  0  0  0  0  0  0  0  0  0  0
   38.3009   -6.4579  -10.7316 C   0  0  2  0  0  0  0  0  0  0  0  0
   39.6780   -6.7847  -10.5666 N   0  0  0  0  0  0  0  0  0  0  0  0
   38.0061   -5.6941  -11.9674 C   0  0  0  0  0  0  0  0  0  0  0  0
   38.8419   -4.9299  -12.4760 O   0  0  0  0  0  0  0  0  0  0  0  0
   33.1135   -7.0281  -15.9895 N   0  0  0  0  0  0  0  0  0  0  0  0
   33.6415   -5.7553  -16.4510 C   0  0  0  0  0  0  0  0  0  0  0  0
   33.1250   -5.2984  -17.4789 O   0  0  0  0  0  0  0  0  0  0  0  0
   34.7140   -5.1158  -15.7054 C   0  0  0  0  0  0  0  0  0  0  0  0
   35.2443   -5.7999  -14.5144 C   0  0  0  0  0  0  0  0  0  0  0  0
   36.2822   -5.1207  -13.7115 C   0  0  2  0  0  0  0  0  0  0  0  0
   36.7355   -5.8345  -12.5852 N   0  0  0  0  0  0  0  0  0  0  0  0
   35.8039   -3.7428  -13.3529 C   0  0  0  0  0  0  0  0  0  0  0  0
   35.0159   -3.6572  -12.3784 O   0  0  0  0  0  0  0  0  0  0  0  0
   36.6519    0.9674  -13.3444 O   0  0  0  0  0  0  0  0  0  0  0  0
   36.9402   -0.2366  -13.9479 C   0  0  0  0  0  0  0  0  0  0  0  0
   35.8628   -1.2353  -13.6099 C   0  0  2  0  0  0  0  0  0  0  0  0
   36.1866   -2.5694  -14.0387 N   0  0  0  0  0  0  0  0  0  0  0  0
   34.5698   -0.7582  -14.1047 C   0  0  0  0  0  0  0  0  0  0  0  0
   33.7921    0.0381  -13.2791 O   0  0  0  0  0  0  0  0  0  0  0  0
   34.1196   -1.0309  -15.2451 O   0  0  0  0  0  0  0  0  0  0  0  0
  1  2  1  0
  2  3  1  0
  3  4  1  0
  5  4  1  0
  5  7  1  0
  5  6  1  1
  7  8  2  0
  9 10  1  0
 10 12  1  0
 10 11  2  0
 12 13  1  0
 14 13  1  1
 15 14  1  0
 15  7  1  0
 16 17  2  0
 16 14  1  0
 18 19  1  0
 20 19  1  6
 20 22  1  0
 20 21  1  0
 21 16  1  0
 22 23  1  0
 24 22  2  0
M  END
$$$$
