MQS.pdb
     RDKit          3D

 24 23  0  0  1  0  0  0  0  0999 V2000
   28.4488  -19.2417   -5.4195 C   0  0  0  0  0  0  0  0  0  0  0  0
   27.3534  -19.8006   -6.7331 S   0  0  0  0  0  0  0  0  0  0  0  0
   27.7671  -18.9004   -8.2671 C   0  0  0  0  0  0  0  0  0  0  0  0
   26.7059  -19.2097   -9.2723 C   0  0  0  0  0  0  0  0  0  0  0  0
   26.6241  -20.6566   -9.6557 C   0  0  2  0  0  0  0  0  0  0  0  0
   27.8506  -21.1315  -10.2042 N   0  0  0  0  0  0  0  0  0  0  0  0
   25.4284  -21.0073  -10.4587 C   0  0  0  0  0  0  0  0  0  0  0  0
   25.5070  -21.2454  -11.6746 O   0  0  0  0  0  0  0  0  0  0  0  0
   19.7707  -22.6708   -7.7413 N   0  0  0  0  0  0  0  0  0  0  0  0
   19.4963  -22.5997   -9.1665 C   0  0  0  0  0  0  0  0  0  0  0  0
   18.3343  -22.8587   -9.5052 O   0  0  0  0  0  0  0  0  0  0  0  0
   20.5688  -22.2445  -10.0823 C   0  0  0  0  0  0  0  0  0  0  0  0
   21.8766  -21.8707   -9.5186 C   0  0  0  0  0  0  0  0  0  0  0  0
   22.9472  -21.4381  -10.4406 C   0  0  2  0  0  0  0  0  0  0  0  0
   24.1592  -21.0691   -9.8254 N   0  0  0  0  0  0  0  0  0  0  0  0
   22.4166  -20.3571  -11.3382 C   0  0  0  0  0  0  0  0  0  0  0  0
   22.1503  -19.2560  -10.7955 O   0  0  0  0  0  0  0  0  0  0  0  0
   23.7539  -19.1563  -14.7078 O   0  0  0  0  0  0  0  0  0  0  0  0
   22.4214  -19.4338  -14.9188 C   0  0  0  0  0  0  0  0  0  0  0  0
   21.7053  -19.4816  -13.5932 C   0  0  2  0  0  0  0  0  0  0  0  0
   22.2082  -20.5129  -12.7260 N   0  0  0  0  0  0  0  0  0  0  0  0
   20.2591  -19.5533  -13.8117 C   0  0  0  0  0  0  0  0  0  0  0  0
   19.6063  -18.4442  -14.3259 O   0  0  0  0  0  0  0  0  0  0  0  0
   19.5685  -20.5712  -13.5580 O   0  0  0  0  0  0  0  0  0  0  0  0
  1  2  1  0
  2  3  1  0
  3  4  1  0
  5  4  1  0
  5  7  1  0
  5  6  1  6
  7  8  2  0
  9 10  1  0
 10 12  1  0
 10 11  2  0
 12 13  1  0
 14 13  1  1
 15 14  1  0
 15  7  1  0
 16 17  2  0
 16 14  1  0
 18 19  1  0
 20 19  1  6
 20 22  1  0
 20 21  1  0
 21 16  1  0
 22 23  1  0
 24 22  2  0
M  END
$$$$
