MQS.pdb
     RDKit          3D

 24 23  0  0  1  0  0  0  0  0999 V2000
   30.3446  -19.1695  -11.7382 C   0  0  0  0  0  0  0  0  0  0  0  0
   28.9690  -19.6999  -12.7698 S   0  0  0  0  0  0  0  0  0  0  0  0
   28.8248  -18.5606  -14.1896 C   0  0  0  0  0  0  0  0  0  0  0  0
   27.5957  -18.9398  -14.9499 C   0  0  0  0  0  0  0  0  0  0  0  0
   27.4853  -20.4042  -15.2506 C   0  0  2  0  0  0  0  0  0  0  0  0
   28.4972  -20.8393  -16.1547 N   0  0  0  0  0  0  0  0  0  0  0  0
   26.1191  -20.8500  -15.6145 C   0  0  0  0  0  0  0  0  0  0  0  0
   25.7255  -20.8492  -16.7920 O   0  0  0  0  0  0  0  0  0  0  0  0
   23.3412  -25.6984  -12.8308 N   0  0  0  0  0  0  0  0  0  0  0  0
   22.2270  -25.0715  -13.5216 C   0  0  0  0  0  0  0  0  0  0  0  0
   21.1535  -25.6863  -13.4819 O   0  0  0  0  0  0  0  0  0  0  0  0
   22.4326  -23.8021  -14.2010 C   0  0  0  0  0  0  0  0  0  0  0  0
   23.7360  -23.1329  -14.0565 C   0  0  0  0  0  0  0  0  0  0  0  0
   23.9698  -21.8726  -14.7915 C   0  0  2  0  0  0  0  0  0  0  0  0
   25.2345  -21.2853  -14.5929 N   0  0  0  0  0  0  0  0  0  0  0  0
   22.8498  -20.9162  -14.4975 C   0  0  0  0  0  0  0  0  0  0  0  0
   22.9165  -20.2891  -13.4112 O   0  0  0  0  0  0  0  0  0  0  0  0
   20.8290  -18.9151  -17.2696 O   0  0  0  0  0  0  0  0  0  0  0  0
   19.9311  -19.3667  -16.3280 C   0  0  0  0  0  0  0  0  0  0  0  0
   20.6768  -19.7799  -15.0847 C   0  0  2  0  0  0  0  0  0  0  0  0
   21.7540  -20.6924  -15.3596 N   0  0  0  0  0  0  0  0  0  0  0  0
   19.7329  -20.2732  -14.0797 C   0  0  0  0  0  0  0  0  0  0  0  0
   18.8205  -19.3869  -13.5296 O   0  0  0  0  0  0  0  0  0  0  0  0
   19.7013  -21.4644  -13.6828 O   0  0  0  0  0  0  0  0  0  0  0  0
  1  2  1  0
  2  3  1  0
  3  4  1  0
  5  4  1  0
  5  7  1  0
  5  6  1  6
  7  8  2  0
  9 10  1  0
 10 12  1  0
 10 11  2  0
 12 13  1  0
 14 13  1  1
 15 14  1  0
 15  7  1  0
 16 17  2  0
 16 14  1  0
 18 19  1  0
 20 19  1  6
 20 22  1  0
 20 21  1  0
 21 16  1  0
 22 23  1  0
 24 22  2  0
M  END
$$$$
