MQS.pdb
     RDKit          3D

 24 23  0  0  1  0  0  0  0  0999 V2000
   17.8940   -9.8951  -21.1782 C   0  0  0  0  0  0  0  0  0  0  0  0
   18.9502  -11.2198  -21.7843 S   0  0  0  0  0  0  0  0  0  0  0  0
   19.2636  -12.3931  -20.4205 C   0  0  0  0  0  0  0  0  0  0  0  0
   19.5990  -11.5927  -19.2043 C   0  0  0  0  0  0  0  0  0  0  0  0
   20.8145  -12.0708  -18.4686 C   0  0  2  0  0  0  0  0  0  0  0  0
   20.7224  -13.4521  -18.1307 N   0  0  0  0  0  0  0  0  0  0  0  0
   21.2260  -11.2003  -17.3415 C   0  0  0  0  0  0  0  0  0  0  0  0
   20.5181  -11.0650  -16.3306 O   0  0  0  0  0  0  0  0  0  0  0  0
   27.3648  -10.0692  -16.1557 N   0  0  0  0  0  0  0  0  0  0  0  0
   26.5477  -11.2061  -15.7665 C   0  0  0  0  0  0  0  0  0  0  0  0
   27.1643  -12.1971  -15.3544 O   0  0  0  0  0  0  0  0  0  0  0  0
   25.1008  -11.1179  -15.8845 C   0  0  0  0  0  0  0  0  0  0  0  0
   24.5070   -9.8295  -16.2782 C   0  0  0  0  0  0  0  0  0  0  0  0
   23.0367   -9.7321  -16.3886 C   0  0  2  0  0  0  0  0  0  0  0  0
   22.4579  -10.4988  -17.4185 N   0  0  0  0  0  0  0  0  0  0  0  0
   22.6442   -8.2848  -16.4721 C   0  0  0  0  0  0  0  0  0  0  0  0
   22.8389   -7.7121  -17.5729 O   0  0  0  0  0  0  0  0  0  0  0  0
   19.8248   -4.7225  -15.7365 O   0  0  0  0  0  0  0  0  0  0  0  0
   20.1538   -6.0421  -15.5185 C   0  0  0  0  0  0  0  0  0  0  0  0
   21.6542   -6.1845  -15.4893 C   0  0  2  0  0  0  0  0  0  0  0  0
   22.0813   -7.5550  -15.4023 N   0  0  0  0  0  0  0  0  0  0  0  0
   22.2145   -5.3284  -14.4417 C   0  0  0  0  0  0  0  0  0  0  0  0
   22.2603   -3.9594  -14.6524 O   0  0  0  0  0  0  0  0  0  0  0  0
   22.6605   -5.7662  -13.3523 O   0  0  0  0  0  0  0  0  0  0  0  0
  1  2  1  0
  2  3  1  0
  3  4  1  0
  5  4  1  0
  5  7  1  0
  5  6  1  1
  7  8  2  0
  9 10  1  0
 10 12  1  0
 10 11  2  0
 12 13  1  0
 14 13  1  6
 15 14  1  0
 15  7  1  0
 16 17  2  0
 16 14  1  0
 18 19  1  0
 20 19  1  1
 20 22  1  0
 20 21  1  0
 21 16  1  0
 22 23  1  0
 24 22  2  0
M  END
$$$$
