MQS.pdb
     RDKit          3D

 24 23  0  0  1  0  0  0  0  0999 V2000
   28.9958  -16.3901  -18.8892 C   0  0  0  0  0  0  0  0  0  0  0  0
   28.1196  -17.5831  -17.8662 S   0  0  0  0  0  0  0  0  0  0  0  0
   29.2212  -18.1181  -16.5116 C   0  0  0  0  0  0  0  0  0  0  0  0
   28.5106  -19.1873  -15.7472 C   0  0  0  0  0  0  0  0  0  0  0  0
   27.0427  -18.9428  -15.5667 C   0  0  2  0  0  0  0  0  0  0  0  0
   26.7884  -17.7355  -14.8537 N   0  0  0  0  0  0  0  0  0  0  0  0
   26.2881  -20.1135  -15.0591 C   0  0  0  0  0  0  0  0  0  0  0  0
   26.3984  -21.2352  -15.5795 O   0  0  0  0  0  0  0  0  0  0  0  0
   25.4250  -21.5697   -9.1034 N   0  0  0  0  0  0  0  0  0  0  0  0
   25.6343  -20.2503   -9.6754 C   0  0  0  0  0  0  0  0  0  0  0  0
   26.0289  -19.3788   -8.8902 O   0  0  0  0  0  0  0  0  0  0  0  0
   25.3722  -20.0368  -11.0900 C   0  0  0  0  0  0  0  0  0  0  0  0
   24.9399  -21.1850  -11.9038 C   0  0  0  0  0  0  0  0  0  0  0  0
   24.6606  -20.9703  -13.3388 C   0  0  2  0  0  0  0  0  0  0  0  0
   25.4133  -19.9505  -13.9528 N   0  0  0  0  0  0  0  0  0  0  0  0
   23.1835  -20.7756  -13.5291 C   0  0  0  0  0  0  0  0  0  0  0  0
   22.7300  -19.6320  -13.2759 O   0  0  0  0  0  0  0  0  0  0  0  0
   20.6937  -23.9231  -14.4947 O   0  0  0  0  0  0  0  0  0  0  0  0
   20.2844  -22.7136  -15.0111 C   0  0  0  0  0  0  0  0  0  0  0  0
   20.8977  -21.5947  -14.2085 C   0  0  2  0  0  0  0  0  0  0  0  0
   22.3024  -21.7881  -13.9675 N   0  0  0  0  0  0  0  0  0  0  0  0
   20.1189  -21.3732  -12.9885 C   0  0  0  0  0  0  0  0  0  0  0  0
   18.7819  -21.0271  -13.1041 O   0  0  0  0  0  0  0  0  0  0  0  0
   20.5961  -21.4794  -11.8315 O   0  0  0  0  0  0  0  0  0  0  0  0
  1  2  1  0
  2  3  1  0
  3  4  1  0
  5  4  1  0
  5  7  1  0
  5  6  1  1
  7  8  2  0
  9 10  1  0
 10 12  1  0
 10 11  2  0
 12 13  1  0
 14 13  1  1
 15 14  1  0
 15  7  1  0
 16 17  2  0
 16 14  1  0
 18 19  1  0
 20 19  1  1
 20 22  1  0
 20 21  1  0
 21 16  1  0
 22 23  1  0
 24 22  2  0
M  END
$$$$
