MQS.pdb
     RDKit          3D

 24 23  0  0  1  0  0  0  0  0999 V2000
   27.4537  -17.9619   -7.1450 C   0  0  0  0  0  0  0  0  0  0  0  0
   27.9476  -19.6298   -6.6847 S   0  0  0  0  0  0  0  0  0  0  0  0
   26.8415  -20.8215   -7.5160 C   0  0  0  0  0  0  0  0  0  0  0  0
   26.9183  -20.5601   -8.9850 C   0  0  0  0  0  0  0  0  0  0  0  0
   25.5853  -20.4063   -9.6534 C   0  0  2  0  0  0  0  0  0  0  0  0
   24.6219  -21.3193   -9.1349 N   0  0  0  0  0  0  0  0  0  0  0  0
   25.6469  -20.3706  -11.1341 C   0  0  0  0  0  0  0  0  0  0  0  0
   26.3928  -19.5818  -11.7363 O   0  0  0  0  0  0  0  0  0  0  0  0
   26.2083  -24.7416  -15.3597 N   0  0  0  0  0  0  0  0  0  0  0  0
   25.6651  -23.6433  -16.1409 C   0  0  0  0  0  0  0  0  0  0  0  0
   25.6800  -23.7962  -17.3690 O   0  0  0  0  0  0  0  0  0  0  0  0
   25.1565  -22.4649  -15.4567 C   0  0  0  0  0  0  0  0  0  0  0  0
   25.1591  -22.4536  -13.9844 C   0  0  0  0  0  0  0  0  0  0  0  0
   24.6728  -21.2463  -13.2850 C   0  0  2  0  0  0  0  0  0  0  0  0
   24.8305  -21.2564  -11.8855 N   0  0  0  0  0  0  0  0  0  0  0  0
   23.2517  -20.9806  -13.6920 C   0  0  0  0  0  0  0  0  0  0  0  0
   22.3615  -21.6132  -13.0714 O   0  0  0  0  0  0  0  0  0  0  0  0
   22.2993  -18.5963  -16.9310 O   0  0  0  0  0  0  0  0  0  0  0  0
   21.4312  -18.4693  -15.8693 C   0  0  0  0  0  0  0  0  0  0  0  0
   21.5198  -19.6990  -15.0019 C   0  0  2  0  0  0  0  0  0  0  0  0
   22.8764  -20.0780  -14.7110 N   0  0  0  0  0  0  0  0  0  0  0  0
   20.7224  -20.7788  -15.5871 C   0  0  0  0  0  0  0  0  0  0  0  0
   19.3417  -20.6598  -15.5945 O   0  0  0  0  0  0  0  0  0  0  0  0
   21.2212  -21.8170  -16.0880 O   0  0  0  0  0  0  0  0  0  0  0  0
  1  2  1  0
  2  3  1  0
  3  4  1  0
  5  4  1  0
  5  7  1  0
  5  6  1  6
  7  8  2  0
  9 10  1  0
 10 12  1  0
 10 11  2  0
 12 13  1  0
 14 13  1  1
 15 14  1  0
 15  7  1  0
 16 17  2  0
 16 14  1  0
 18 19  1  0
 20 19  1  6
 20 22  1  0
 20 21  1  0
 21 16  1  0
 22 23  1  0
 24 22  2  0
M  END
$$$$
