MQS.pdb
     RDKit          3D

 24 23  0  0  1  0  0  0  0  0999 V2000
   18.9773  -16.3970  -17.1620 C   0  0  0  0  0  0  0  0  0  0  0  0
   19.2922  -14.9487  -16.1417 S   0  0  0  0  0  0  0  0  0  0  0  0
   18.8248  -13.4542  -17.0812 C   0  0  0  0  0  0  0  0  0  0  0  0
   19.1061  -12.2698  -16.2149 C   0  0  0  0  0  0  0  0  0  0  0  0
   18.9184  -10.9488  -16.8983 C   0  0  2  0  0  0  0  0  0  0  0  0
   19.9078  -10.7223  -17.8986 N   0  0  0  0  0  0  0  0  0  0  0  0
   18.7232   -9.8069  -15.9734 C   0  0  0  0  0  0  0  0  0  0  0  0
   17.9142   -9.8609  -15.0332 O   0  0  0  0  0  0  0  0  0  0  0  0
   23.3994   -5.7608  -14.5522 N   0  0  0  0  0  0  0  0  0  0  0  0
   22.2537   -5.2663  -13.8076 C   0  0  0  0  0  0  0  0  0  0  0  0
   22.4911   -4.3749  -12.9823 O   0  0  0  0  0  0  0  0  0  0  0  0
   20.9387   -5.8323  -14.0637 C   0  0  0  0  0  0  0  0  0  0  0  0
   20.8275   -6.9376  -15.0300 C   0  0  0  0  0  0  0  0  0  0  0  0
   19.4908   -7.5023  -15.3087 C   0  0  2  0  0  0  0  0  0  0  0  0
   19.4756   -8.6186  -16.1673 N   0  0  0  0  0  0  0  0  0  0  0  0
   18.5840   -6.4061  -15.7903 C   0  0  0  0  0  0  0  0  0  0  0  0
   18.7288   -6.0401  -16.9832 O   0  0  0  0  0  0  0  0  0  0  0  0
   14.9089   -5.6748  -14.2427 O   0  0  0  0  0  0  0  0  0  0  0  0
   15.2700   -5.2063  -15.4865 C   0  0  0  0  0  0  0  0  0  0  0  0
   16.7081   -4.7556  -15.4522 C   0  0  2  0  0  0  0  0  0  0  0  0
   17.6021   -5.7829  -14.9895 N   0  0  0  0  0  0  0  0  0  0  0  0
   16.8185   -3.5019  -14.7037 C   0  0  0  0  0  0  0  0  0  0  0  0
   16.0852   -2.4051  -15.1276 O   0  0  0  0  0  0  0  0  0  0  0  0
   17.5461   -3.3608  -13.6896 O   0  0  0  0  0  0  0  0  0  0  0  0
  1  2  1  0
  2  3  1  0
  3  4  1  0
  5  4  1  0
  5  7  1  0
  5  6  1  1
  7  8  2  0
  9 10  1  0
 10 12  1  0
 10 11  2  0
 12 13  1  0
 14 13  1  6
 15 14  1  0
 15  7  1  0
 16 17  2  0
 16 14  1  0
 18 19  1  0
 20 19  1  1
 20 22  1  0
 20 21  1  0
 21 16  1  0
 22 23  1  0
 24 22  2  0
M  END
$$$$
