VDQ.pdb
     RDKit          3D

 25 24  0  0  1  0  0  0  0  0999 V2000
   20.6013  -15.9816  -15.9299 C   0  0  0  0  0  0  0  0  0  0  0  0
   19.1367  -15.9624  -15.5484 C   0  0  2  0  0  0  0  0  0  0  0  0
   18.4096  -17.2203  -15.8526 C   0  0  0  0  0  0  0  0  0  0  0  0
   18.4450  -14.7493  -16.1761 C   0  0  2  0  0  0  0  0  0  0  0  0
   18.5383  -15.0031  -17.6267 N   0  0  0  0  0  0  0  0  0  0  0  0
   19.3002  -13.5652  -15.8901 C   0  0  0  0  0  0  0  0  0  0  0  0
   19.4158  -13.1835  -14.6932 O   0  0  0  0  0  0  0  0  0  0  0  0
   19.9985  -12.8372  -16.8638 N   0  0  0  0  0  0  0  0  0  0  0  0
   20.6339  -11.5744  -16.4983 C   0  0  1  0  0  0  0  0  0  0  0  0
   22.0177  -11.5095  -17.1075 C   0  0  0  0  0  0  0  0  0  0  0  0
   21.9535  -11.6662  -18.5636 C   0  0  0  0  0  0  0  0  0  0  0  0
   21.7691  -12.7229  -19.2090 O   0  0  0  0  0  0  0  0  0  0  0  0
   19.7908  -10.4412  -16.9686 C   0  0  0  0  0  0  0  0  0  0  0  0
   19.1201  -10.4691  -18.0473 O   0  0  0  0  0  0  0  0  0  0  0  0
   22.1112  -10.5262  -19.4071 O   0  0  0  0  0  0  0  0  0  0  0  0
   14.8068   -9.5205  -15.2419 N   0  0  0  0  0  0  0  0  0  0  0  0
   14.8892   -8.2342  -15.8652 C   0  0  0  0  0  0  0  0  0  0  0  0
   13.8114   -7.5975  -15.9590 O   0  0  0  0  0  0  0  0  0  0  0  0
   16.1773   -7.6901  -16.3691 C   0  0  0  0  0  0  0  0  0  0  0  0
   17.2529   -8.7120  -16.0844 C   0  0  0  0  0  0  0  0  0  0  0  0
   18.6156   -8.2417  -16.5339 C   0  0  2  0  0  0  0  0  0  0  0  0
   19.6468   -9.2059  -16.2546 N   0  0  0  0  0  0  0  0  0  0  0  0
   18.9573   -6.9107  -16.0170 C   0  0  0  0  0  0  0  0  0  0  0  0
   19.7435   -6.7349  -15.0467 O   0  0  0  0  0  0  0  0  0  0  0  0
   18.4221   -5.7618  -16.5816 O   0  0  0  0  0  0  0  0  0  0  0  0
  2  1  1  6
  2  3  1  0
  4  5  1  6
  4  6  1  0
  4  2  1  0
  6  8  1  0
  7  6  2  0
  8  9  1  0
  9 10  1  6
 10 11  1  0
 11 15  1  0
 11 12  2  0
 13 14  2  0
 13  9  1  0
 16 17  1  0
 17 19  1  0
 18 17  2  0
 19 20  1  0
 21 22  1  0
 21 20  1  1
 22 13  1  0
 23 21  1  0
 24 23  2  0
 25 23  1  0
M  END
$$$$
