VDQ.pdb
     RDKit          3D

 25 24  0  0  1  0  0  0  0  0999 V2000
   12.5429  -13.4059  -11.1792 C   0  0  0  0  0  0  0  0  0  0  0  0
   13.5519  -12.3698  -10.7329 C   0  0  2  0  0  0  0  0  0  0  0  0
   12.9562  -11.0731  -10.3244 C   0  0  0  0  0  0  0  0  0  0  0  0
   14.6232  -12.1799  -11.8101 C   0  0  2  0  0  0  0  0  0  0  0  0
   15.3420  -13.4686  -11.8220 N   0  0  0  0  0  0  0  0  0  0  0  0
   15.5778  -11.1590  -11.2984 C   0  0  0  0  0  0  0  0  0  0  0  0
   16.4353  -11.5141  -10.4439 O   0  0  0  0  0  0  0  0  0  0  0  0
   15.5972   -9.8171  -11.7044 N   0  0  0  0  0  0  0  0  0  0  0  0
   16.5710   -8.9025  -11.1152 C   0  0  1  0  0  0  0  0  0  0  0  0
   17.6940   -8.6567  -12.0994 C   0  0  0  0  0  0  0  0  0  0  0  0
   18.7096   -7.7721  -11.5204 C   0  0  0  0  0  0  0  0  0  0  0  0
   19.2630   -7.8764  -10.4024 O   0  0  0  0  0  0  0  0  0  0  0  0
   15.8949   -7.6278  -10.7489 C   0  0  0  0  0  0  0  0  0  0  0  0
   15.1434   -6.9811  -11.5435 O   0  0  0  0  0  0  0  0  0  0  0  0
   19.1688   -6.6409  -12.2588 O   0  0  0  0  0  0  0  0  0  0  0  0
   12.9432   -4.8556   -5.9692 N   0  0  0  0  0  0  0  0  0  0  0  0
   12.6029   -6.0396   -6.6987 C   0  0  0  0  0  0  0  0  0  0  0  0
   11.4988   -6.5644   -6.4132 O   0  0  0  0  0  0  0  0  0  0  0  0
   13.5070   -6.6089   -7.7320 C   0  0  0  0  0  0  0  0  0  0  0  0
   14.7621   -5.7686   -7.7606 C   0  0  0  0  0  0  0  0  0  0  0  0
   15.3989   -5.7463   -9.1296 C   0  0  2  0  0  0  0  0  0  0  0  0
   16.0191   -7.0008   -9.4652 N   0  0  0  0  0  0  0  0  0  0  0  0
   16.3182   -4.6161   -9.3113 C   0  0  0  0  0  0  0  0  0  0  0  0
   17.5487   -4.7659   -9.5437 O   0  0  0  0  0  0  0  0  0  0  0  0
   15.8692   -3.3055   -9.2348 O   0  0  0  0  0  0  0  0  0  0  0  0
  2  1  1  6
  2  3  1  0
  4  5  1  1
  4  6  1  0
  4  2  1  0
  6  8  1  0
  7  6  2  0
  8  9  1  0
  9 10  1  6
 10 11  1  0
 11 15  1  0
 11 12  2  0
 13 14  2  0
 13  9  1  0
 16 17  1  0
 17 19  1  0
 18 17  2  0
 19 20  1  0
 21 22  1  0
 21 20  1  1
 22 13  1  0
 23 21  1  0
 24 23  2  0
 25 23  1  0
M  END
$$$$
