VDQ.pdb
     RDKit          3D

 25 24  0  0  1  0  0  0  0  0999 V2000
   15.4681  -15.3212  -15.6875 C   0  0  0  0  0  0  0  0  0  0  0  0
   16.2111  -14.0413  -15.3700 C   0  0  2  0  0  0  0  0  0  0  0  0
   15.4942  -12.8039  -15.7680 C   0  0  0  0  0  0  0  0  0  0  0  0
   17.6205  -14.0889  -15.9662 C   0  0  2  0  0  0  0  0  0  0  0  0
   18.2736  -15.1928  -15.2366 N   0  0  0  0  0  0  0  0  0  0  0  0
   18.3086  -12.8346  -15.5556 C   0  0  0  0  0  0  0  0  0  0  0  0
   18.5976  -12.6798  -14.3374 O   0  0  0  0  0  0  0  0  0  0  0  0
   18.6674  -11.8026  -16.4342 N   0  0  0  0  0  0  0  0  0  0  0  0
   19.3653  -10.6290  -15.9168 C   0  0  1  0  0  0  0  0  0  0  0  0
   20.1843   -9.9992  -17.0225 C   0  0  0  0  0  0  0  0  0  0  0  0
   21.2496  -10.9052  -17.4623 C   0  0  0  0  0  0  0  0  0  0  0  0
   21.5835  -11.1747  -18.6382 O   0  0  0  0  0  0  0  0  0  0  0  0
   18.3726   -9.6625  -15.3721 C   0  0  0  0  0  0  0  0  0  0  0  0
   17.1202   -9.8759  -15.3641 O   0  0  0  0  0  0  0  0  0  0  0  0
   22.0387  -11.5947  -16.4940 O   0  0  0  0  0  0  0  0  0  0  0  0
   16.6230   -9.6242  -10.4662 N   0  0  0  0  0  0  0  0  0  0  0  0
   15.6056   -8.9688  -11.2312 C   0  0  0  0  0  0  0  0  0  0  0  0
   14.4352   -9.0643  -10.7874 O   0  0  0  0  0  0  0  0  0  0  0  0
   15.9223   -8.2208  -12.4760 C   0  0  0  0  0  0  0  0  0  0  0  0
   17.4032   -8.3659  -12.7374 C   0  0  0  0  0  0  0  0  0  0  0  0
   17.8363   -7.6197  -13.9766 C   0  0  2  0  0  0  0  0  0  0  0  0
   18.7256   -8.3958  -14.7999 N   0  0  0  0  0  0  0  0  0  0  0  0
   18.3870   -6.2918  -13.6780 C   0  0  0  0  0  0  0  0  0  0  0  0
   19.6184   -6.0299  -13.7513 O   0  0  0  0  0  0  0  0  0  0  0  0
   17.5640   -5.2427  -13.2944 O   0  0  0  0  0  0  0  0  0  0  0  0
  2  1  1  6
  2  3  1  0
  4  5  1  1
  4  6  1  0
  4  2  1  0
  6  8  1  0
  7  6  2  0
  8  9  1  0
  9 10  1  6
 10 11  1  0
 11 15  1  0
 11 12  2  0
 13 14  2  0
 13  9  1  0
 16 17  1  0
 17 19  1  0
 18 17  2  0
 19 20  1  0
 21 22  1  0
 21 20  1  1
 22 13  1  0
 23 21  1  0
 24 23  2  0
 25 23  1  0
M  END
$$$$
