VDQ.pdb
     RDKit          3D

 25 24  0  0  1  0  0  0  0  0999 V2000
   16.7027  -12.5924  -16.5255 C   0  0  0  0  0  0  0  0  0  0  0  0
   17.3254  -13.4533  -17.6035 C   0  0  2  0  0  0  0  0  0  0  0  0
   16.5254  -14.6492  -17.9684 C   0  0  0  0  0  0  0  0  0  0  0  0
   18.7559  -13.8338  -17.2126 C   0  0  2  0  0  0  0  0  0  0  0  0
   18.5740  -14.8122  -16.1230 N   0  0  0  0  0  0  0  0  0  0  0  0
   19.3770  -12.6247  -16.6064 C   0  0  0  0  0  0  0  0  0  0  0  0
   19.1878  -12.4041  -15.3787 O   0  0  0  0  0  0  0  0  0  0  0  0
   20.1700  -11.7045  -17.3066 N   0  0  0  0  0  0  0  0  0  0  0  0
   20.7130  -10.5445  -16.6055 C   0  0  1  0  0  0  0  0  0  0  0  0
   22.1208  -10.2738  -17.0904 C   0  0  0  0  0  0  0  0  0  0  0  0
   23.0276  -11.3520  -16.6853 C   0  0  0  0  0  0  0  0  0  0  0  0
   23.5257  -12.2418  -17.4113 O   0  0  0  0  0  0  0  0  0  0  0  0
   19.8328   -9.3671  -16.8401 C   0  0  0  0  0  0  0  0  0  0  0  0
   19.2763   -9.1210  -17.9555 O   0  0  0  0  0  0  0  0  0  0  0  0
   23.4325  -11.4631  -15.3216 O   0  0  0  0  0  0  0  0  0  0  0  0
   14.8638   -7.5653  -14.3701 N   0  0  0  0  0  0  0  0  0  0  0  0
   15.1916   -6.3258  -15.0074 C   0  0  0  0  0  0  0  0  0  0  0  0
   14.3042   -5.4385  -14.9758 O   0  0  0  0  0  0  0  0  0  0  0  0
   16.5064   -6.1082  -15.6657 C   0  0  0  0  0  0  0  0  0  0  0  0
   17.3185   -7.3716  -15.5031 C   0  0  0  0  0  0  0  0  0  0  0  0
   18.7075   -7.2312  -16.0786 C   0  0  2  0  0  0  0  0  0  0  0  0
   19.5208   -8.3931  -15.8348 N   0  0  0  0  0  0  0  0  0  0  0  0
   19.3775   -5.9960  -15.6535 C   0  0  0  0  0  0  0  0  0  0  0  0
   20.2948   -5.9784  -14.7883 O   0  0  0  0  0  0  0  0  0  0  0  0
   19.0273   -4.7667  -16.1933 O   0  0  0  0  0  0  0  0  0  0  0  0
  2  1  1  1
  2  3  1  0
  4  5  1  1
  4  6  1  0
  4  2  1  0
  6  8  1  0
  7  6  2  0
  8  9  1  0
  9 10  1  6
 10 11  1  0
 11 15  1  0
 11 12  2  0
 13 14  2  0
 13  9  1  0
 16 17  1  0
 17 19  1  0
 18 17  2  0
 19 20  1  0
 21 22  1  0
 21 20  1  1
 22 13  1  0
 23 21  1  0
 24 23  2  0
 25 23  1  0
M  END
$$$$
