VDQ.pdb
     RDKit          3D

 25 24  0  0  1  0  0  0  0  0999 V2000
   19.1108  -12.4346  -17.7964 C   0  0  0  0  0  0  0  0  0  0  0  0
   18.3916  -12.7443  -16.5010 C   0  0  2  0  0  0  0  0  0  0  0  0
   17.1405  -13.5254  -16.6685 C   0  0  0  0  0  0  0  0  0  0  0  0
   18.1459  -11.4544  -15.7138 C   0  0  2  0  0  0  0  0  0  0  0  0
   17.0744  -10.7792  -16.4709 N   0  0  0  0  0  0  0  0  0  0  0  0
   19.3684  -10.6177  -15.8582 C   0  0  0  0  0  0  0  0  0  0  0  0
   20.4394  -11.0236  -15.3294 O   0  0  0  0  0  0  0  0  0  0  0  0
   19.4187   -9.3996  -16.5507 N   0  0  0  0  0  0  0  0  0  0  0  0
   20.6221   -8.5767  -16.4700 C   0  0  1  0  0  0  0  0  0  0  0  0
   21.0969   -8.2366  -17.8661 C   0  0  0  0  0  0  0  0  0  0  0  0
   21.7242   -9.3998  -18.5006 C   0  0  0  0  0  0  0  0  0  0  0  0
   22.7005  -10.0621  -18.0818 O   0  0  0  0  0  0  0  0  0  0  0  0
   20.3269   -7.3422  -15.6921 C   0  0  0  0  0  0  0  0  0  0  0  0
   19.4282   -6.5064  -16.0209 O   0  0  0  0  0  0  0  0  0  0  0  0
   21.2174   -9.8903  -19.7409 O   0  0  0  0  0  0  0  0  0  0  0  0
   18.6982   -6.9109  -10.1189 N   0  0  0  0  0  0  0  0  0  0  0  0
   18.9214   -5.5152  -10.3471 C   0  0  0  0  0  0  0  0  0  0  0  0
   18.5152   -4.7382   -9.4487 O   0  0  0  0  0  0  0  0  0  0  0  0
   19.5948   -5.0214  -11.5767 C   0  0  0  0  0  0  0  0  0  0  0  0
   20.0013   -6.2244  -12.3951 C   0  0  0  0  0  0  0  0  0  0  0  0
   20.6685   -5.8299  -13.6910 C   0  0  2  0  0  0  0  0  0  0  0  0
   21.0219   -6.9707  -14.4940 N   0  0  0  0  0  0  0  0  0  0  0  0
   21.8090   -4.9270  -13.4921 C   0  0  0  0  0  0  0  0  0  0  0  0
   23.0074   -5.3065  -13.5930 O   0  0  0  0  0  0  0  0  0  0  0  0
   21.6194   -3.5888  -13.1782 O   0  0  0  0  0  0  0  0  0  0  0  0
  2  1  1  6
  2  3  1  0
  4  5  1  6
  4  6  1  0
  4  2  1  0
  6  8  1  0
  7  6  2  0
  8  9  1  0
  9 10  1  6
 10 11  1  0
 11 15  1  0
 11 12  2  0
 13 14  2  0
 13  9  1  0
 16 17  1  0
 17 19  1  0
 18 17  2  0
 19 20  1  0
 21 22  1  0
 21 20  1  1
 22 13  1  0
 23 21  1  0
 24 23  2  0
 25 23  1  0
M  END
$$$$
