VDQ.pdb
     RDKit          3D

 25 24  0  0  1  0  0  0  0  0999 V2000
   18.8869  -14.2780  -17.3536 C   0  0  0  0  0  0  0  0  0  0  0  0
   18.4524  -12.9507  -17.9369 C   0  0  2  0  0  0  0  0  0  0  0  0
   17.8517  -13.0457  -19.2910 C   0  0  0  0  0  0  0  0  0  0  0  0
   19.6166  -11.9567  -17.9087 C   0  0  2  0  0  0  0  0  0  0  0  0
   20.4122  -12.3804  -16.7405 N   0  0  0  0  0  0  0  0  0  0  0  0
   19.0422  -10.6240  -17.5782 C   0  0  0  0  0  0  0  0  0  0  0  0
   18.3044  -10.0599  -18.4321 O   0  0  0  0  0  0  0  0  0  0  0  0
   19.2595   -9.9436  -16.3717 N   0  0  0  0  0  0  0  0  0  0  0  0
   18.6894   -8.6124  -16.1850 C   0  0  1  0  0  0  0  0  0  0  0  0
   18.5771   -8.3132  -14.7058 C   0  0  0  0  0  0  0  0  0  0  0  0
   17.4454   -9.0324  -14.1133 C   0  0  0  0  0  0  0  0  0  0  0  0
   17.3793   -9.5408  -12.9713 O   0  0  0  0  0  0  0  0  0  0  0  0
   19.5468   -7.6058  -16.8688 C   0  0  0  0  0  0  0  0  0  0  0  0
   20.8149   -7.5983  -16.7903 O   0  0  0  0  0  0  0  0  0  0  0  0
   16.2472   -9.2128  -14.8666 O   0  0  0  0  0  0  0  0  0  0  0  0
   18.9375   -5.2333  -22.4618 N   0  0  0  0  0  0  0  0  0  0  0  0
   19.9894   -4.4050  -21.9546 C   0  0  0  0  0  0  0  0  0  0  0  0
   20.5100   -3.6110  -22.7758 O   0  0  0  0  0  0  0  0  0  0  0  0
   20.4343   -4.4847  -20.5386 C   0  0  0  0  0  0  0  0  0  0  0  0
   19.5660   -5.5037  -19.8387 C   0  0  0  0  0  0  0  0  0  0  0  0
   19.8667   -5.5863  -18.3612 C   0  0  2  0  0  0  0  0  0  0  0  0
   19.0329   -6.5453  -17.6859 N   0  0  0  0  0  0  0  0  0  0  0  0
   19.8378   -4.2755  -17.7005 C   0  0  0  0  0  0  0  0  0  0  0  0
   18.9207   -3.9298  -16.9068 O   0  0  0  0  0  0  0  0  0  0  0  0
   20.8361   -3.3377  -17.9214 O   0  0  0  0  0  0  0  0  0  0  0  0
  2  1  1  6
  2  3  1  0
  4  5  1  1
  4  6  1  0
  4  2  1  0
  6  8  1  0
  7  6  2  0
  8  9  1  0
  9 10  1  1
 10 11  1  0
 11 15  1  0
 11 12  2  0
 13 14  2  0
 13  9  1  0
 16 17  1  0
 17 19  1  0
 18 17  2  0
 19 20  1  0
 21 22  1  0
 21 20  1  6
 22 13  1  0
 23 21  1  0
 24 23  2  0
 25 23  1  0
M  END
$$$$
