CQM.pdb
     RDKit          3D

 24 23  0  0  1  0  0  0  0  0999 V2000
    9.1427  -17.7613   18.4288 N   0  0  0  0  0  0  0  0  0  0  0  0
   10.1417  -17.5368   19.4510 C   0  0  1  0  0  0  0  0  0  0  0  0
   11.1947  -16.5433   19.0172 C   0  0  0  0  0  0  0  0  0  0  0  0
   12.5740  -16.5843   20.1955 S   0  0  0  0  0  0  0  0  0  0  0  0
    9.4816  -17.1847   20.7061 C   0  0  0  0  0  0  0  0  0  0  0  0
    8.3142  -16.7109   20.7851 O   0  0  0  0  0  0  0  0  0  0  0  0
    5.7055  -18.6957   23.6902 N   0  0  0  0  0  0  0  0  0  0  0  0
    6.6213  -19.7883   23.7736 C   0  0  0  0  0  0  0  0  0  0  0  0
    6.1713  -20.9337   23.5310 O   0  0  0  0  0  0  0  0  0  0  0  0
    8.0235  -19.5162   24.1330 C   0  0  0  0  0  0  0  0  0  0  0  0
    8.8179  -19.0375   22.9482 C   0  0  0  0  0  0  0  0  0  0  0  0
    9.4862  -17.7042   23.1682 C   0  0  2  0  0  0  0  0  0  0  0  0
   10.1683  -17.3751   21.9302 N   0  0  0  0  0  0  0  0  0  0  0  0
   10.4438  -17.8332   24.2997 C   0  0  0  0  0  0  0  0  0  0  0  0
   10.7475  -18.9907   24.6745 O   0  0  0  0  0  0  0  0  0  0  0  0
   10.0668  -12.3523   28.1068 C   0  0  0  0  0  0  0  0  0  0  0  0
    8.7226  -13.5272   28.3072 S   0  0  0  0  0  0  0  0  0  0  0  0
    9.1556  -15.1982   27.8863 C   0  0  0  0  0  0  0  0  0  0  0  0
    9.6717  -15.4731   26.5387 C   0  0  0  0  0  0  0  0  0  0  0  0
   10.7878  -16.4438   26.3963 C   0  0  2  0  0  0  0  0  0  0  0  0
   11.0212  -16.7284   24.9647 N   0  0  0  0  0  0  0  0  0  0  0  0
   10.7039  -17.7011   27.1456 C   0  0  0  0  0  0  0  0  0  0  0  0
    9.9283  -18.6473   26.9216 O   0  0  0  0  0  0  0  0  0  0  0  0
   11.5698  -17.9247   28.2537 O   0  0  0  0  0  0  0  0  0  0  0  0
  2  1  1  6
  3  2  1  0
  3  4  1  0
  5  2  1  0
  5  6  2  0
  7  8  1  0
  8  9  2  0
  8 10  1  0
 10 11  1  0
 12 11  1  6
 12 13  1  0
 13  5  1  0
 14 12  1  0
 15 14  2  0
 16 17  1  0
 17 18  1  0
 18 19  1  0
 20 19  1  6
 20 22  1  0
 20 21  1  0
 21 14  1  0
 22 24  1  0
 23 22  2  0
M  END
$$$$
