CQM.pdb
     RDKit          3D

 24 23  0  0  1  0  0  0  0  0999 V2000
    3.9107  -20.1776   21.3128 N   0  0  0  0  0  0  0  0  0  0  0  0
    5.2821  -19.9470   21.7123 C   0  0  1  0  0  0  0  0  0  0  0  0
    6.0733  -19.2133   20.6541 C   0  0  0  0  0  0  0  0  0  0  0  0
    5.5067  -17.4915   20.5733 S   0  0  0  0  0  0  0  0  0  0  0  0
    5.3039  -19.2966   23.0204 C   0  0  0  0  0  0  0  0  0  0  0  0
    4.3264  -18.6721   23.5186 O   0  0  0  0  0  0  0  0  0  0  0  0
    8.7684  -21.3763   27.5897 N   0  0  0  0  0  0  0  0  0  0  0  0
    8.4061  -20.1228   28.1701 C   0  0  0  0  0  0  0  0  0  0  0  0
    8.7678  -19.9123   29.3525 O   0  0  0  0  0  0  0  0  0  0  0  0
    7.6403  -19.1587   27.3618 C   0  0  0  0  0  0  0  0  0  0  0  0
    7.3663  -19.6862   25.9796 C   0  0  0  0  0  0  0  0  0  0  0  0
    6.5810  -18.7337   25.1143 C   0  0  2  0  0  0  0  0  0  0  0  0
    6.4819  -19.3517   23.8049 N   0  0  0  0  0  0  0  0  0  0  0  0
    7.3096  -17.4379   25.0510 C   0  0  0  0  0  0  0  0  0  0  0  0
    8.4573  -17.4409   24.5458 O   0  0  0  0  0  0  0  0  0  0  0  0
    6.1896  -10.8996   25.0013 C   0  0  0  0  0  0  0  0  0  0  0  0
    6.7189  -11.2082   26.6901 S   0  0  0  0  0  0  0  0  0  0  0  0
    7.5284  -12.7733   26.9184 C   0  0  0  0  0  0  0  0  0  0  0  0
    6.8340  -13.9940   26.4875 C   0  0  0  0  0  0  0  0  0  0  0  0
    7.6005  -15.0046   25.7134 C   0  0  2  0  0  0  0  0  0  0  0  0
    6.7778  -16.2183   25.5264 N   0  0  0  0  0  0  0  0  0  0  0  0
    8.9321  -15.3772   26.2006 C   0  0  0  0  0  0  0  0  0  0  0  0
    9.1897  -16.1913   27.1050 O   0  0  0  0  0  0  0  0  0  0  0  0
   10.0899  -14.7830   25.6227 O   0  0  0  0  0  0  0  0  0  0  0  0
  2  1  1  6
  3  2  1  0
  3  4  1  0
  5  2  1  0
  5  6  2  0
  7  8  1  0
  8  9  2  0
  8 10  1  0
 10 11  1  0
 12 11  1  1
 12 13  1  0
 13  5  1  0
 14 12  1  0
 15 14  2  0
 16 17  1  0
 17 18  1  0
 18 19  1  0
 20 19  1  1
 20 22  1  0
 20 21  1  0
 21 14  1  0
 22 24  1  0
 23 22  2  0
M  END
$$$$
