CQM.pdb
     RDKit          3D

 24 23  0  0  1  0  0  0  0  0999 V2000
    8.1094  -14.7172   17.6840 N   0  0  0  0  0  0  0  0  0  0  0  0
    9.0607  -14.3913   18.7243 C   0  0  1  0  0  0  0  0  0  0  0  0
    9.0530  -12.9200   19.0698 C   0  0  0  0  0  0  0  0  0  0  0  0
    7.5795  -12.5484   20.0612 S   0  0  0  0  0  0  0  0  0  0  0  0
    8.8425  -15.2670   19.8734 C   0  0  0  0  0  0  0  0  0  0  0  0
    7.7325  -15.7938   20.1632 O   0  0  0  0  0  0  0  0  0  0  0  0
   13.1150  -19.1509   21.6175 N   0  0  0  0  0  0  0  0  0  0  0  0
   12.1618  -19.2464   20.5584 C   0  0  0  0  0  0  0  0  0  0  0  0
   12.3724  -20.1097   19.6731 O   0  0  0  0  0  0  0  0  0  0  0  0
   10.9997  -18.3414   20.5626 C   0  0  0  0  0  0  0  0  0  0  0  0
   11.0271  -17.4074   21.7418 C   0  0  0  0  0  0  0  0  0  0  0  0
    9.8179  -16.5114   21.8309 C   0  0  2  0  0  0  0  0  0  0  0  0
    9.9251  -15.5636   20.7371 N   0  0  0  0  0  0  0  0  0  0  0  0
    9.8317  -15.8239   23.1503 C   0  0  0  0  0  0  0  0  0  0  0  0
   10.7686  -15.0220   23.3778 O   0  0  0  0  0  0  0  0  0  0  0  0
    6.6640  -11.1064   26.1729 C   0  0  0  0  0  0  0  0  0  0  0  0
    6.4271  -12.5664   27.1927 S   0  0  0  0  0  0  0  0  0  0  0  0
    7.6890  -13.8006   26.9907 C   0  0  0  0  0  0  0  0  0  0  0  0
    7.8133  -14.4737   25.6909 C   0  0  0  0  0  0  0  0  0  0  0  0
    8.9407  -15.4213   25.4932 C   0  0  2  0  0  0  0  0  0  0  0  0
    8.8522  -16.0277   24.1480 N   0  0  0  0  0  0  0  0  0  0  0  0
    9.1408  -16.4695   26.4985 C   0  0  0  0  0  0  0  0  0  0  0  0
    9.2175  -16.3110   27.7298 O   0  0  0  0  0  0  0  0  0  0  0  0
    9.2681  -17.8277   26.0902 O   0  0  0  0  0  0  0  0  0  0  0  0
  2  1  1  6
  3  2  1  0
  3  4  1  0
  5  2  1  0
  5  6  2  0
  7  8  1  0
  8  9  2  0
  8 10  1  0
 10 11  1  0
 12 11  1  1
 12 13  1  0
 13  5  1  0
 14 12  1  0
 15 14  2  0
 16 17  1  0
 17 18  1  0
 18 19  1  0
 20 19  1  1
 20 22  1  0
 20 21  1  0
 21 14  1  0
 22 24  1  0
 23 22  2  0
M  END
$$$$
