CQM.pdb
     RDKit          3D

 24 23  0  0  1  0  0  0  0  0999 V2000
    6.2646  -19.8170   21.5914 N   0  0  0  0  0  0  0  0  0  0  0  0
    6.1518  -18.3817   21.7350 C   0  0  1  0  0  0  0  0  0  0  0  0
    5.3743  -17.9868   22.9693 C   0  0  0  0  0  0  0  0  0  0  0  0
    5.7165  -19.1773   24.2952 S   0  0  0  0  0  0  0  0  0  0  0  0
    7.4813  -17.7802   21.6591 C   0  0  0  0  0  0  0  0  0  0  0  0
    8.5522  -18.3892   21.9344 O   0  0  0  0  0  0  0  0  0  0  0  0
    8.4184  -12.2864   18.8308 N   0  0  0  0  0  0  0  0  0  0  0  0
    8.2314  -13.5449   18.1821 C   0  0  0  0  0  0  0  0  0  0  0  0
    7.8930  -13.5231   16.9746 O   0  0  0  0  0  0  0  0  0  0  0  0
    8.4438  -14.7818   18.9530 C   0  0  0  0  0  0  0  0  0  0  0  0
    8.6897  -14.4937   20.4092 C   0  0  0  0  0  0  0  0  0  0  0  0
    8.8844  -15.7328   21.2455 C   0  0  2  0  0  0  0  0  0  0  0  0
    7.6112  -16.4292   21.2542 N   0  0  0  0  0  0  0  0  0  0  0  0
    9.2897  -15.3220   22.6170 C   0  0  0  0  0  0  0  0  0  0  0  0
   10.4143  -14.7844   22.7538 O   0  0  0  0  0  0  0  0  0  0  0  0
    6.0546  -11.5299   26.3615 C   0  0  0  0  0  0  0  0  0  0  0  0
    7.0142  -12.3535   27.6375 S   0  0  0  0  0  0  0  0  0  0  0  0
    8.1152  -13.6035   27.0192 C   0  0  0  0  0  0  0  0  0  0  0  0
    7.9563  -14.0567   25.6309 C   0  0  0  0  0  0  0  0  0  0  0  0
    8.8961  -15.0850   25.1137 C   0  0  2  0  0  0  0  0  0  0  0  0
    8.4789  -15.5055   23.7594 N   0  0  0  0  0  0  0  0  0  0  0  0
    9.1471  -16.2661   25.9453 C   0  0  0  0  0  0  0  0  0  0  0  0
    8.8393  -17.4409   25.6769 O   0  0  0  0  0  0  0  0  0  0  0  0
    9.8056  -16.1224   27.1996 O   0  0  0  0  0  0  0  0  0  0  0  0
  2  1  1  1
  3  2  1  0
  3  4  1  0
  5  2  1  0
  5  6  2  0
  7  8  1  0
  8  9  2  0
  8 10  1  0
 10 11  1  0
 12 11  1  6
 12 13  1  0
 13  5  1  0
 14 12  1  0
 15 14  2  0
 16 17  1  0
 17 18  1  0
 18 19  1  0
 20 19  1  1
 20 22  1  0
 20 21  1  0
 21 14  1  0
 22 24  1  0
 23 22  2  0
M  END
$$$$
