CQM.pdb
     RDKit          3D

 24 23  0  0  1  0  0  0  0  0999 V2000
    9.2689  -18.7790   19.8614 N   0  0  0  0  0  0  0  0  0  0  0  0
    8.4177  -17.6169   19.7262 C   0  0  1  0  0  0  0  0  0  0  0  0
    7.4215  -17.7623   18.5990 C   0  0  0  0  0  0  0  0  0  0  0  0
    6.2374  -19.0726   19.0156 S   0  0  0  0  0  0  0  0  0  0  0  0
    7.8056  -17.3106   21.0170 C   0  0  0  0  0  0  0  0  0  0  0  0
    7.0900  -16.2947   21.2396 O   0  0  0  0  0  0  0  0  0  0  0  0
    7.6197  -21.6430   25.5148 N   0  0  0  0  0  0  0  0  0  0  0  0
    7.0418  -20.5427   26.2181 C   0  0  0  0  0  0  0  0  0  0  0  0
    6.6055  -20.7654   27.3728 O   0  0  0  0  0  0  0  0  0  0  0  0
    6.9911  -19.2253   25.5612 C   0  0  0  0  0  0  0  0  0  0  0  0
    7.4861  -19.2928   24.1420 C   0  0  0  0  0  0  0  0  0  0  0  0
    7.3983  -17.9785   23.4086 C   0  0  2  0  0  0  0  0  0  0  0  0
    8.0088  -18.1894   22.1090 N   0  0  0  0  0  0  0  0  0  0  0  0
    8.1296  -16.9467   24.1926 C   0  0  0  0  0  0  0  0  0  0  0  0
    9.3767  -16.8995   24.0697 O   0  0  0  0  0  0  0  0  0  0  0  0
    5.3920  -10.9308   26.3973 C   0  0  0  0  0  0  0  0  0  0  0  0
    7.1836  -11.0534   26.3479 S   0  0  0  0  0  0  0  0  0  0  0  0
    7.8093  -12.6600   26.7770 C   0  0  0  0  0  0  0  0  0  0  0  0
    7.2855  -13.8326   26.0638 C   0  0  0  0  0  0  0  0  0  0  0  0
    8.2236  -14.9401   25.7449 C   0  0  2  0  0  0  0  0  0  0  0  0
    7.4953  -16.0281   25.0586 N   0  0  0  0  0  0  0  0  0  0  0  0
    9.0292  -15.4936   26.8376 C   0  0  0  0  0  0  0  0  0  0  0  0
    8.8577  -16.5872   27.4048 O   0  0  0  0  0  0  0  0  0  0  0  0
   10.1342  -14.7545   27.3478 O   0  0  0  0  0  0  0  0  0  0  0  0
  2  1  1  1
  3  2  1  0
  3  4  1  0
  5  2  1  0
  5  6  2  0
  7  8  1  0
  8  9  2  0
  8 10  1  0
 10 11  1  0
 12 11  1  1
 12 13  1  0
 13  5  1  0
 14 12  1  0
 15 14  2  0
 16 17  1  0
 17 18  1  0
 18 19  1  0
 20 19  1  1
 20 22  1  0
 20 21  1  0
 21 14  1  0
 22 24  1  0
 23 22  2  0
M  END
$$$$
