CQM.pdb
     RDKit          3D

 24 23  0  0  1  0  0  0  0  0999 V2000
    7.9825  -15.2132   17.5879 N   0  0  0  0  0  0  0  0  0  0  0  0
    8.6149  -14.6076   18.7398 C   0  0  1  0  0  0  0  0  0  0  0  0
    8.0865  -13.2202   19.0225 C   0  0  0  0  0  0  0  0  0  0  0  0
    8.7139  -12.0754   17.7622 S   0  0  0  0  0  0  0  0  0  0  0  0
    8.5207  -15.5170   19.8795 C   0  0  0  0  0  0  0  0  0  0  0  0
    7.4704  -16.1349   20.2091 O   0  0  0  0  0  0  0  0  0  0  0  0
   12.1070  -19.7018   22.5008 N   0  0  0  0  0  0  0  0  0  0  0  0
   11.7680  -19.4883   21.1301 C   0  0  0  0  0  0  0  0  0  0  0  0
   11.9585  -20.4411   20.3369 O   0  0  0  0  0  0  0  0  0  0  0  0
   11.2200  -18.1818   20.7272 C   0  0  0  0  0  0  0  0  0  0  0  0
   10.9644  -17.2960   21.9163 C   0  0  0  0  0  0  0  0  0  0  0  0
    9.6353  -16.5862   21.8660 C   0  0  2  0  0  0  0  0  0  0  0  0
    9.6630  -15.7414   20.6863 N   0  0  0  0  0  0  0  0  0  0  0  0
    9.4785  -15.7820   23.1080 C   0  0  0  0  0  0  0  0  0  0  0  0
   10.2877  -14.8430   23.2981 O   0  0  0  0  0  0  0  0  0  0  0  0
    6.6737  -11.2289   27.9508 C   0  0  0  0  0  0  0  0  0  0  0  0
    7.1675  -12.1701   26.5025 S   0  0  0  0  0  0  0  0  0  0  0  0
    6.5044  -13.8177   26.4516 C   0  0  0  0  0  0  0  0  0  0  0  0
    6.8879  -14.6963   25.3386 C   0  0  0  0  0  0  0  0  0  0  0  0
    8.2939  -15.1724   25.2690 C   0  0  2  0  0  0  0  0  0  0  0  0
    8.4740  -16.0214   24.0724 N   0  0  0  0  0  0  0  0  0  0  0  0
    8.8489  -15.8480   26.4458 C   0  0  0  0  0  0  0  0  0  0  0  0
    8.9945  -15.3605   27.5807 O   0  0  0  0  0  0  0  0  0  0  0  0
    9.2846  -17.2000   26.3466 O   0  0  0  0  0  0  0  0  0  0  0  0
  2  1  1  6
  3  2  1  0
  3  4  1  0
  5  2  1  0
  5  6  2  0
  7  8  1  0
  8  9  2  0
  8 10  1  0
 10 11  1  0
 12 11  1  1
 12 13  1  0
 13  5  1  0
 14 12  1  0
 15 14  2  0
 16 17  1  0
 17 18  1  0
 18 19  1  0
 20 19  1  1
 20 22  1  0
 20 21  1  0
 21 14  1  0
 22 24  1  0
 23 22  2  0
M  END
$$$$
