CQM.pdb
     RDKit          3D

 24 23  0  0  1  0  0  0  0  0999 V2000
    8.2920  -14.7518   17.0275 N   0  0  0  0  0  0  0  0  0  0  0  0
    8.6426  -14.2450   18.3365 C   0  0  1  0  0  0  0  0  0  0  0  0
    8.2602  -12.7935   18.5123 C   0  0  0  0  0  0  0  0  0  0  0  0
    8.6764  -12.2676   20.1983 S   0  0  0  0  0  0  0  0  0  0  0  0
    8.0915  -15.1274   19.3625 C   0  0  0  0  0  0  0  0  0  0  0  0
    7.1330  -15.9263   19.1708 O   0  0  0  0  0  0  0  0  0  0  0  0
    9.4761  -19.8850   20.7274 N   0  0  0  0  0  0  0  0  0  0  0  0
   10.5026  -18.9189   20.9566 C   0  0  0  0  0  0  0  0  0  0  0  0
   11.6901  -19.3040   20.8356 O   0  0  0  0  0  0  0  0  0  0  0  0
   10.1182  -17.5432   21.3158 C   0  0  0  0  0  0  0  0  0  0  0  0
    8.6234  -17.3772   21.3589 C   0  0  0  0  0  0  0  0  0  0  0  0
    8.1808  -15.9839   21.7268 C   0  0  2  0  0  0  0  0  0  0  0  0
    8.6455  -15.1095   20.6658 N   0  0  0  0  0  0  0  0  0  0  0  0
    8.7886  -15.6220   23.0359 C   0  0  0  0  0  0  0  0  0  0  0  0
   10.0102  -15.3390   23.0508 O   0  0  0  0  0  0  0  0  0  0  0  0
    6.5447  -10.6237   27.0422 C   0  0  0  0  0  0  0  0  0  0  0  0
    5.8187  -11.9760   26.1086 S   0  0  0  0  0  0  0  0  0  0  0  0
    7.0117  -13.0443   25.3390 C   0  0  0  0  0  0  0  0  0  0  0  0
    7.5988  -14.1313   26.1338 C   0  0  0  0  0  0  0  0  0  0  0  0
    8.6171  -15.0026   25.4919 C   0  0  2  0  0  0  0  0  0  0  0  0
    8.0652  -15.5819   24.2489 N   0  0  0  0  0  0  0  0  0  0  0  0
    9.2269  -16.0595   26.3046 C   0  0  0  0  0  0  0  0  0  0  0  0
    9.0975  -17.2861   26.1441 O   0  0  0  0  0  0  0  0  0  0  0  0
   10.0628  -15.7142   27.4045 O   0  0  0  0  0  0  0  0  0  0  0  0
  2  1  1  6
  3  2  1  0
  3  4  1  0
  5  2  1  0
  5  6  2  0
  7  8  1  0
  8  9  2  0
  8 10  1  0
 10 11  1  0
 12 11  1  6
 12 13  1  0
 13  5  1  0
 14 12  1  0
 15 14  2  0
 16 17  1  0
 17 18  1  0
 18 19  1  0
 20 19  1  1
 20 22  1  0
 20 21  1  0
 21 14  1  0
 22 24  1  0
 23 22  2  0
M  END
$$$$
