CQM.pdb
     RDKit          3D

 24 23  0  0  1  0  0  0  0  0999 V2000
    7.9235  -13.1342   18.0527 N   0  0  0  0  0  0  0  0  0  0  0  0
    8.4710  -14.3055   18.7021 C   0  0  1  0  0  0  0  0  0  0  0  0
    9.9764  -14.3752   18.5878 C   0  0  0  0  0  0  0  0  0  0  0  0
   10.5304  -13.2207   17.3023 S   0  0  0  0  0  0  0  0  0  0  0  0
    7.9812  -14.3719   20.0770 C   0  0  0  0  0  0  0  0  0  0  0  0
    7.8638  -13.3711   20.8374 O   0  0  0  0  0  0  0  0  0  0  0  0
    4.5713  -19.1496   21.9185 N   0  0  0  0  0  0  0  0  0  0  0  0
    4.8408  -18.5368   20.6571 C   0  0  0  0  0  0  0  0  0  0  0  0
    4.2687  -19.0197   19.6507 O   0  0  0  0  0  0  0  0  0  0  0  0
    5.7606  -17.3875   20.6059 C   0  0  0  0  0  0  0  0  0  0  0  0
    6.2026  -16.9679   21.9815 C   0  0  0  0  0  0  0  0  0  0  0  0
    7.1231  -15.7740   21.9822 C   0  0  2  0  0  0  0  0  0  0  0  0
    7.6058  -15.6243   20.6218 N   0  0  0  0  0  0  0  0  0  0  0  0
    8.2396  -16.0349   22.9305 C   0  0  0  0  0  0  0  0  0  0  0  0
    9.4069  -16.0166   22.4726 O   0  0  0  0  0  0  0  0  0  0  0  0
    5.8047  -11.9794   27.1031 C   0  0  0  0  0  0  0  0  0  0  0  0
    7.5643  -11.7604   26.8147 S   0  0  0  0  0  0  0  0  0  0  0  0
    8.4505  -13.2807   26.5702 C   0  0  0  0  0  0  0  0  0  0  0  0
    7.9693  -14.2189   25.5473 C   0  0  0  0  0  0  0  0  0  0  0  0
    8.6974  -15.5021   25.3700 C   0  0  2  0  0  0  0  0  0  0  0  0
    8.0514  -16.2989   24.3057 N   0  0  0  0  0  0  0  0  0  0  0  0
    8.9135  -16.3382   26.5548 C   0  0  0  0  0  0  0  0  0  0  0  0
    8.0609  -17.0293   27.1400 O   0  0  0  0  0  0  0  0  0  0  0  0
   10.2075  -16.4101   27.1448 O   0  0  0  0  0  0  0  0  0  0  0  0
  2  1  1  1
  3  2  1  0
  3  4  1  0
  5  2  1  0
  5  6  2  0
  7  8  1  0
  8  9  2  0
  8 10  1  0
 10 11  1  0
 12 11  1  6
 12 13  1  0
 13  5  1  0
 14 12  1  0
 15 14  2  0
 16 17  1  0
 17 18  1  0
 18 19  1  0
 20 19  1  1
 20 22  1  0
 20 21  1  0
 21 14  1  0
 22 24  1  0
 23 22  2  0
M  END
$$$$
