CQM.pdb
     RDKit          3D

 24 23  0  0  1  0  0  0  0  0999 V2000
    7.4320  -14.7411   18.1557 N   0  0  0  0  0  0  0  0  0  0  0  0
    8.2030  -14.2115   19.2595 C   0  0  1  0  0  0  0  0  0  0  0  0
    7.9415  -12.7410   19.4900 C   0  0  0  0  0  0  0  0  0  0  0  0
    8.9846  -12.1571   20.8551 S   0  0  0  0  0  0  0  0  0  0  0  0
    7.9885  -15.0403   20.4435 C   0  0  0  0  0  0  0  0  0  0  0  0
    6.8516  -15.3435   20.9007 O   0  0  0  0  0  0  0  0  0  0  0  0
   11.3705  -19.8229   21.6622 N   0  0  0  0  0  0  0  0  0  0  0  0
   10.6387  -19.7905   22.8881 C   0  0  0  0  0  0  0  0  0  0  0  0
   10.7594  -20.7761   23.6545 O   0  0  0  0  0  0  0  0  0  0  0  0
    9.7956  -18.6194   23.1834 C   0  0  0  0  0  0  0  0  0  0  0  0
    9.8607  -17.5962   22.0822 C   0  0  0  0  0  0  0  0  0  0  0  0
    8.9759  -16.3985   22.3176 C   0  0  2  0  0  0  0  0  0  0  0  0
    9.1068  -15.5520   21.1461 N   0  0  0  0  0  0  0  0  0  0  0  0
    9.4376  -15.7007   23.5479 C   0  0  0  0  0  0  0  0  0  0  0  0
   10.6090  -15.2530   23.5569 O   0  0  0  0  0  0  0  0  0  0  0  0
    5.1174  -12.3754   26.4661 C   0  0  0  0  0  0  0  0  0  0  0  0
    6.7017  -11.5680   26.2104 S   0  0  0  0  0  0  0  0  0  0  0  0
    8.0058  -12.6737   25.7272 C   0  0  0  0  0  0  0  0  0  0  0  0
    8.1711  -13.9323   26.4665 C   0  0  0  0  0  0  0  0  0  0  0  0
    9.1422  -14.9310   25.9490 C   0  0  2  0  0  0  0  0  0  0  0  0
    8.6304  -15.5195   24.6932 N   0  0  0  0  0  0  0  0  0  0  0  0
    9.5792  -15.9972   26.8553 C   0  0  0  0  0  0  0  0  0  0  0  0
    9.2451  -17.1944   26.8074 O   0  0  0  0  0  0  0  0  0  0  0  0
   10.4767  -15.6987   27.9197 O   0  0  0  0  0  0  0  0  0  0  0  0
  2  1  1  6
  3  2  1  0
  3  4  1  0
  5  2  1  0
  5  6  2  0
  7  8  1  0
  8  9  2  0
  8 10  1  0
 10 11  1  0
 12 11  1  6
 12 13  1  0
 13  5  1  0
 14 12  1  0
 15 14  2  0
 16 17  1  0
 17 18  1  0
 18 19  1  0
 20 19  1  1
 20 22  1  0
 20 21  1  0
 21 14  1  0
 22 24  1  0
 23 22  2  0
M  END
$$$$
