CQM.pdb
     RDKit          3D

 24 23  0  0  1  0  0  0  0  0999 V2000
    7.7260  -14.9858   18.0937 N   0  0  0  0  0  0  0  0  0  0  0  0
    8.4483  -14.4229   19.2139 C   0  0  1  0  0  0  0  0  0  0  0  0
    7.9546  -13.0426   19.5811 C   0  0  0  0  0  0  0  0  0  0  0  0
    8.5889  -11.8429   18.3766 S   0  0  0  0  0  0  0  0  0  0  0  0
    8.4323  -15.3694   20.3270 C   0  0  0  0  0  0  0  0  0  0  0  0
    7.3849  -15.8956   20.7957 O   0  0  0  0  0  0  0  0  0  0  0  0
   13.4731  -18.5780   21.9489 N   0  0  0  0  0  0  0  0  0  0  0  0
   12.6483  -18.8766   23.0758 C   0  0  0  0  0  0  0  0  0  0  0  0
   13.0990  -19.6908   23.9169 O   0  0  0  0  0  0  0  0  0  0  0  0
   11.3338  -18.2220   23.1895 C   0  0  0  0  0  0  0  0  0  0  0  0
   11.0724  -17.2959   22.0329 C   0  0  0  0  0  0  0  0  0  0  0  0
    9.7159  -16.6398   22.0792 C   0  0  2  0  0  0  0  0  0  0  0  0
    9.6531  -15.7410   20.9414 N   0  0  0  0  0  0  0  0  0  0  0  0
    9.5886  -15.9009   23.3644 C   0  0  0  0  0  0  0  0  0  0  0  0
   10.3373  -14.9106   23.5416 O   0  0  0  0  0  0  0  0  0  0  0  0
    7.6764  -11.3406   26.7320 C   0  0  0  0  0  0  0  0  0  0  0  0
    6.4923  -12.5844   27.2594 S   0  0  0  0  0  0  0  0  0  0  0  0
    7.1142  -14.2474   27.1926 C   0  0  0  0  0  0  0  0  0  0  0  0
    7.3988  -14.8399   25.8788 C   0  0  0  0  0  0  0  0  0  0  0  0
    8.6624  -15.6034   25.7092 C   0  0  2  0  0  0  0  0  0  0  0  0
    8.6762  -16.2560   24.3830 N   0  0  0  0  0  0  0  0  0  0  0  0
    9.0209  -16.5764   26.7455 C   0  0  0  0  0  0  0  0  0  0  0  0
    8.8752  -17.8102   26.6863 O   0  0  0  0  0  0  0  0  0  0  0  0
    9.5982  -16.1292   27.9680 O   0  0  0  0  0  0  0  0  0  0  0  0
  2  1  1  6
  3  2  1  0
  3  4  1  0
  5  2  1  0
  5  6  2  0
  7  8  1  0
  8  9  2  0
  8 10  1  0
 10 11  1  0
 12 11  1  1
 12 13  1  0
 13  5  1  0
 14 12  1  0
 15 14  2  0
 16 17  1  0
 17 18  1  0
 18 19  1  0
 20 19  1  1
 20 22  1  0
 20 21  1  0
 21 14  1  0
 22 24  1  0
 23 22  2  0
M  END
$$$$
