CQM.pdb
     RDKit          3D

 24 23  0  0  1  0  0  0  0  0999 V2000
    7.7912  -13.7356   17.7077 N   0  0  0  0  0  0  0  0  0  0  0  0
    8.8545  -14.1108   18.6142 C   0  0  1  0  0  0  0  0  0  0  0  0
    9.6427  -12.9169   19.1013 C   0  0  0  0  0  0  0  0  0  0  0  0
    8.5973  -11.9210   20.2003 S   0  0  0  0  0  0  0  0  0  0  0  0
    8.3072  -14.9338   19.6903 C   0  0  0  0  0  0  0  0  0  0  0  0
    7.1013  -14.9047   20.0626 O   0  0  0  0  0  0  0  0  0  0  0  0
   10.7369  -20.3300   21.4023 N   0  0  0  0  0  0  0  0  0  0  0  0
    9.6553  -20.1733   20.4831 C   0  0  0  0  0  0  0  0  0  0  0  0
    9.3764  -21.1541   19.7528 O   0  0  0  0  0  0  0  0  0  0  0  0
    8.9351  -18.8891   20.4433 C   0  0  0  0  0  0  0  0  0  0  0  0
    9.4716  -17.9194   21.4609 C   0  0  0  0  0  0  0  0  0  0  0  0
    8.7115  -16.6186   21.5152 C   0  0  2  0  0  0  0  0  0  0  0  0
    9.1578  -15.8322   20.3801 N   0  0  0  0  0  0  0  0  0  0  0  0
    9.0209  -15.9404   22.8028 C   0  0  0  0  0  0  0  0  0  0  0  0
   10.2026  -15.5662   22.9930 O   0  0  0  0  0  0  0  0  0  0  0  0
    5.8014  -11.0874   26.0785 C   0  0  0  0  0  0  0  0  0  0  0  0
    7.2552  -11.7615   26.8907 S   0  0  0  0  0  0  0  0  0  0  0  0
    7.3512  -13.5350   26.8436 C   0  0  0  0  0  0  0  0  0  0  0  0
    7.2510  -14.2108   25.5432 C   0  0  0  0  0  0  0  0  0  0  0  0
    8.3923  -15.0507   25.0959 C   0  0  2  0  0  0  0  0  0  0  0  0
    8.0598  -15.6997   23.8101 N   0  0  0  0  0  0  0  0  0  0  0  0
    8.9204  -16.0467   26.0332 C   0  0  0  0  0  0  0  0  0  0  0  0
    8.6326  -17.2562   26.0699 O   0  0  0  0  0  0  0  0  0  0  0  0
    9.8616  -15.6550   27.0273 O   0  0  0  0  0  0  0  0  0  0  0  0
  2  1  1  6
  3  2  1  0
  3  4  1  0
  5  2  1  0
  5  6  2  0
  7  8  1  0
  8  9  2  0
  8 10  1  0
 10 11  1  0
 12 11  1  1
 12 13  1  0
 13  5  1  0
 14 12  1  0
 15 14  2  0
 16 17  1  0
 17 18  1  0
 18 19  1  0
 20 19  1  1
 20 22  1  0
 20 21  1  0
 21 14  1  0
 22 24  1  0
 23 22  2  0
M  END
$$$$
