FWI.pdb
     RDKit          3D

 34 36  0  0  1  0  0  0  0  0999 V2000
   10.1720  -17.5273   19.1988 N   0  0  0  0  0  0  0  0  0  0  0  0
   11.0984  -16.6691   19.8940 C   0  0  1  0  0  0  0  0  0  0  0  0
   11.5591  -15.6216   18.8738 C   0  0  0  0  0  0  0  0  0  0  0  0
   12.9310  -15.2046   19.1880 C   0  0  0  0  0  0  0  0  0  0  0  0
   13.1719  -13.8914   19.5297 C   0  0  0  0  0  0  0  0  0  0  0  0
   14.4878  -13.5250   19.8232 C   0  0  0  0  0  0  0  0  0  0  0  0
   15.4869  -14.4844   19.7600 C   0  0  0  0  0  0  0  0  0  0  0  0
   15.2479  -15.7964   19.4189 C   0  0  0  0  0  0  0  0  0  0  0  0
   13.9303  -16.1530   19.1274 C   0  0  0  0  0  0  0  0  0  0  0  0
   10.3659  -15.9266   20.9432 C   0  0  0  0  0  0  0  0  0  0  0  0
   10.1971  -14.6963   20.8082 O   0  0  0  0  0  0  0  0  0  0  0  0
    9.8722  -16.6149   22.0735 N   0  0  0  0  0  0  0  0  0  0  0  0
    9.1783  -15.9296   23.1941 C   0  0  1  0  0  0  0  0  0  0  0  0
    7.7289  -16.2794   23.1624 C   0  0  0  0  0  0  0  0  0  0  0  0
    6.9537  -15.5962   24.2003 C   0  0  0  0  0  0  0  0  0  0  0  0
    6.1677  -16.2051   25.1550 C   0  0  0  0  0  0  0  0  0  0  0  0
    5.6173  -15.2212   25.8753 N   0  0  0  0  0  0  0  0  0  0  0  0
    6.0257  -13.9997   25.4124 C   0  0  0  0  0  0  0  0  0  0  0  0
    5.7353  -12.7156   25.8183 C   0  0  0  0  0  0  0  0  0  0  0  0
    6.2870  -11.6454   25.1690 C   0  0  0  0  0  0  0  0  0  0  0  0
    7.1362  -11.8574   24.1049 C   0  0  0  0  0  0  0  0  0  0  0  0
    7.4292  -13.1444   23.6959 C   0  0  0  0  0  0  0  0  0  0  0  0
    6.8731  -14.2161   24.3509 C   0  0  0  0  0  0  0  0  0  0  0  0
    9.8279  -16.3279   24.4387 C   0  0  0  0  0  0  0  0  0  0  0  0
   10.5344  -17.4009   24.4166 O   0  0  0  0  0  0  0  0  0  0  0  0
    9.8661  -13.0064   28.8156 C   0  0  0  0  0  0  0  0  0  0  0  0
   10.3234  -13.9122   27.6763 C   0  0  0  0  0  0  0  0  0  0  0  0
   10.2729  -15.3490   28.0504 C   0  0  2  0  0  0  0  0  0  0  0  0
   11.2005  -15.7049   29.1863 C   0  0  0  0  0  0  0  0  0  0  0  0
   10.5572  -16.1949   26.8168 C   0  0  2  0  0  0  0  0  0  0  0  0
    9.7857  -15.6671   25.6912 N   0  0  0  0  0  0  0  0  0  0  0  0
   10.3366  -17.6216   26.9940 C   0  0  0  0  0  0  0  0  0  0  0  0
   11.3301  -18.5050   27.4617 O   0  0  0  0  0  0  0  0  0  0  0  0
    9.2352  -18.2233   26.7478 O   0  0  0  0  0  0  0  0  0  0  0  0
  2  1  1  6
  3  2  1  0
  4  3  1  0
  4  5  2  0
  6  5  1  0
  7  6  2  0
  8  9  2  0
  8  7  1  0
  9  4  1  0
 10  2  1  0
 11 10  2  0
 12 10  1  0
 13 12  1  0
 13 14  1  1
 15 23  1  0
 15 14  1  0
 16 15  2  0
 17 16  1  0
 17 18  1  0
 18 23  2  0
 19 18  1  0
 19 20  2  0
 20 21  1  0
 21 22  2  0
 23 22  1  0
 24 25  2  0
 24 13  1  0
 26 27  1  0
 27 28  1  0
 28 30  1  0
 28 29  1  1
 30 31  1  6
 31 24  1  0
 32 30  1  0
 33 32  1  0
 34 32  2  0
M  END
$$$$
