FWI.pdb
     RDKit          3D

 34 36  0  0  1  0  0  0  0  0999 V2000
    9.5653  -16.9850   19.7312 N   0  0  0  0  0  0  0  0  0  0  0  0
   10.6817  -16.2529   20.2750 C   0  0  1  0  0  0  0  0  0  0  0  0
   10.8172  -14.9852   19.4236 C   0  0  0  0  0  0  0  0  0  0  0  0
    9.5318  -14.2770   19.3943 C   0  0  0  0  0  0  0  0  0  0  0  0
    9.3914  -13.1738   18.5803 C   0  0  0  0  0  0  0  0  0  0  0  0
    8.1562  -12.5211   18.5742 C   0  0  0  0  0  0  0  0  0  0  0  0
    7.1331  -13.0025   19.3769 C   0  0  0  0  0  0  0  0  0  0  0  0
    7.2717  -14.1042   20.1904 C   0  0  0  0  0  0  0  0  0  0  0  0
    8.5092  -14.7497   20.1898 C   0  0  0  0  0  0  0  0  0  0  0  0
   10.3346  -15.7968   21.6388 C   0  0  0  0  0  0  0  0  0  0  0  0
   11.1467  -15.0817   22.2630 O   0  0  0  0  0  0  0  0  0  0  0  0
    9.0993  -16.1740   22.2106 N   0  0  0  0  0  0  0  0  0  0  0  0
    8.6283  -15.6593   23.5221 C   0  0  1  0  0  0  0  0  0  0  0  0
    7.2437  -16.1522   23.7752 C   0  0  0  0  0  0  0  0  0  0  0  0
    6.5116  -15.3282   24.7395 C   0  0  0  0  0  0  0  0  0  0  0  0
    5.4199  -15.7280   25.4802 C   0  0  0  0  0  0  0  0  0  0  0  0
    5.0441  -14.6665   26.2027 N   0  0  0  0  0  0  0  0  0  0  0  0
    5.8608  -13.5981   25.9486 C   0  0  0  0  0  0  0  0  0  0  0  0
    5.8737  -12.3104   26.4383 C   0  0  0  0  0  0  0  0  0  0  0  0
    6.8176  -11.4183   26.0087 C   0  0  0  0  0  0  0  0  0  0  0  0
    7.7574  -11.8138   25.0820 C   0  0  0  0  0  0  0  0  0  0  0  0
    7.7466  -13.1048   24.5893 C   0  0  0  0  0  0  0  0  0  0  0  0
    6.7972  -13.9973   25.0237 C   0  0  0  0  0  0  0  0  0  0  0  0
    9.5766  -16.0909   24.5438 C   0  0  0  0  0  0  0  0  0  0  0  0
   10.5876  -16.7816   24.1542 O   0  0  0  0  0  0  0  0  0  0  0  0
   11.9598  -14.2345   29.9114 C   0  0  0  0  0  0  0  0  0  0  0  0
   11.9546  -15.1505   28.6914 C   0  0  0  0  0  0  0  0  0  0  0  0
   10.7235  -14.9877   27.8759 C   0  0  2  0  0  0  0  0  0  0  0  0
    9.4531  -15.0772   28.6853 C   0  0  0  0  0  0  0  0  0  0  0  0
   10.7350  -16.0098   26.7475 C   0  0  2  0  0  0  0  0  0  0  0  0
    9.5298  -15.8352   25.9365 N   0  0  0  0  0  0  0  0  0  0  0  0
   10.8938  -17.3897   27.1789 C   0  0  0  0  0  0  0  0  0  0  0  0
    9.8258  -18.3072   27.2433 O   0  0  0  0  0  0  0  0  0  0  0  0
   12.0016  -17.9150   27.5432 O   0  0  0  0  0  0  0  0  0  0  0  0
  2  1  1  6
  3  2  1  0
  4  3  1  0
  4  5  2  0
  6  5  1  0
  7  6  2  0
  8  9  2  0
  8  7  1  0
  9  4  1  0
 10  2  1  0
 11 10  2  0
 12 10  1  0
 13 12  1  0
 13 14  1  1
 15 23  1  0
 15 14  1  0
 16 15  2  0
 17 16  1  0
 17 18  1  0
 18 23  2  0
 19 18  1  0
 19 20  2  0
 20 21  1  0
 21 22  2  0
 23 22  1  0
 24 25  2  0
 24 13  1  0
 26 27  1  0
 27 28  1  0
 28 30  1  0
 28 29  1  1
 30 31  1  1
 31 24  1  0
 32 30  1  0
 33 32  1  0
 34 32  2  0
M  END
$$$$
