FWI.pdb
     RDKit          3D

 34 36  0  0  1  0  0  0  0  0999 V2000
    6.3154  -18.6802   20.0181 N   0  0  0  0  0  0  0  0  0  0  0  0
    7.0081  -17.5007   20.4727 C   0  0  1  0  0  0  0  0  0  0  0  0
    6.2918  -16.3086   19.8274 C   0  0  0  0  0  0  0  0  0  0  0  0
    7.0064  -15.0707   20.1612 C   0  0  0  0  0  0  0  0  0  0  0  0
    8.1969  -14.7905   19.5260 C   0  0  0  0  0  0  0  0  0  0  0  0
    8.8534  -13.6048   19.8650 C   0  0  0  0  0  0  0  0  0  0  0  0
    8.2890  -12.7672   20.8150 C   0  0  0  0  0  0  0  0  0  0  0  0
    7.1000  -13.0456   21.4503 C   0  0  0  0  0  0  0  0  0  0  0  0
    6.4514  -14.2322   21.1051 C   0  0  0  0  0  0  0  0  0  0  0  0
    6.8061  -17.3610   21.9315 C   0  0  0  0  0  0  0  0  0  0  0  0
    5.6429  -17.3814   22.3863 O   0  0  0  0  0  0  0  0  0  0  0  0
    7.9234  -17.2077   22.7820 N   0  0  0  0  0  0  0  0  0  0  0  0
    7.8057  -17.1348   24.2611 C   0  0  1  0  0  0  0  0  0  0  0  0
    8.6532  -18.1975   24.8748 C   0  0  0  0  0  0  0  0  0  0  0  0
    8.4292  -18.3461   26.3144 C   0  0  0  0  0  0  0  0  0  0  0  0
    7.2761  -18.8113   26.9095 C   0  0  0  0  0  0  0  0  0  0  0  0
    7.4829  -18.7549   28.2301 N   0  0  0  0  0  0  0  0  0  0  0  0
    8.7330  -18.2678   28.5009 C   0  0  0  0  0  0  0  0  0  0  0  0
    9.3926  -18.0290   29.6865 C   0  0  0  0  0  0  0  0  0  0  0  0
   10.6648  -17.5261   29.6792 C   0  0  0  0  0  0  0  0  0  0  0  0
   11.2851  -17.2587   28.4782 C   0  0  0  0  0  0  0  0  0  0  0  0
   10.6256  -17.4974   27.2876 C   0  0  0  0  0  0  0  0  0  0  0  0
    9.3484  -18.0027   27.2998 C   0  0  0  0  0  0  0  0  0  0  0  0
    8.1937  -15.7917   24.6795 C   0  0  0  0  0  0  0  0  0  0  0  0
    9.2614  -15.2993   24.1614 O   0  0  0  0  0  0  0  0  0  0  0  0
    4.9351  -11.7679   26.3660 C   0  0  0  0  0  0  0  0  0  0  0  0
    6.0929  -12.5451   25.7469 C   0  0  0  0  0  0  0  0  0  0  0  0
    7.1693  -12.8230   26.7323 C   0  0  2  0  0  0  0  0  0  0  0  0
    7.8115  -11.5745   27.2855 C   0  0  0  0  0  0  0  0  0  0  0  0
    8.2024  -13.7421   26.0951 C   0  0  2  0  0  0  0  0  0  0  0  0
    7.5278  -14.9405   25.5955 N   0  0  0  0  0  0  0  0  0  0  0  0
    9.3269  -14.0802   26.9535 C   0  0  0  0  0  0  0  0  0  0  0  0
   10.5769  -13.4334   26.8802 O   0  0  0  0  0  0  0  0  0  0  0  0
    9.3071  -14.9879   27.8542 O   0  0  0  0  0  0  0  0  0  0  0  0
  2  1  1  6
  3  2  1  0
  4  3  1  0
  4  5  2  0
  6  5  1  0
  7  6  2  0
  8  9  2  0
  8  7  1  0
  9  4  1  0
 10  2  1  0
 11 10  2  0
 12 10  1  0
 13 12  1  0
 13 14  1  1
 15 23  1  0
 15 14  1  0
 16 15  2  0
 17 16  1  0
 17 18  1  0
 18 23  2  0
 19 18  1  0
 19 20  2  0
 20 21  1  0
 21 22  2  0
 23 22  1  0
 24 25  2  0
 24 13  1  0
 26 27  1  0
 27 28  1  0
 28 30  1  0
 28 29  1  6
 30 31  1  1
 31 24  1  0
 32 30  1  0
 33 32  1  0
 34 32  2  0
M  END
$$$$
