FWI.pdb
     RDKit          3D

 34 36  0  0  1  0  0  0  0  0999 V2000
   12.6115  -17.7580   19.6200 N   0  0  0  0  0  0  0  0  0  0  0  0
   11.6056  -18.2067   20.5499 C   0  0  1  0  0  0  0  0  0  0  0  0
   12.2476  -19.3380   21.3614 C   0  0  0  0  0  0  0  0  0  0  0  0
   12.3034  -20.5551   20.5428 C   0  0  0  0  0  0  0  0  0  0  0  0
   11.1587  -21.3037   20.3739 C   0  0  0  0  0  0  0  0  0  0  0  0
   11.2436  -22.4566   19.5895 C   0  0  0  0  0  0  0  0  0  0  0  0
   12.4604  -22.7982   19.0189 C   0  0  0  0  0  0  0  0  0  0  0  0
   13.6045  -22.0516   19.1867 C   0  0  0  0  0  0  0  0  0  0  0  0
   13.5100  -20.9016   19.9719 C   0  0  0  0  0  0  0  0  0  0  0  0
   11.3255  -17.1185   21.5120 C   0  0  0  0  0  0  0  0  0  0  0  0
   12.2303  -16.3003   21.7808 O   0  0  0  0  0  0  0  0  0  0  0  0
   10.0485  -17.0217   22.1080 N   0  0  0  0  0  0  0  0  0  0  0  0
    9.6622  -15.9044   23.0076 C   0  0  1  0  0  0  0  0  0  0  0  0
    8.2443  -15.5265   22.7414 C   0  0  0  0  0  0  0  0  0  0  0  0
    7.8507  -14.2819   23.4054 C   0  0  0  0  0  0  0  0  0  0  0  0
    8.0725  -13.0070   22.9305 C   0  0  0  0  0  0  0  0  0  0  0  0
    7.5876  -12.1697   23.8545 N   0  0  0  0  0  0  0  0  0  0  0  0
    7.0615  -12.8678   24.9076 C   0  0  0  0  0  0  0  0  0  0  0  0
    6.4597  -12.4578   26.0771 C   0  0  0  0  0  0  0  0  0  0  0  0
    6.0139  -13.3800   26.9838 C   0  0  0  0  0  0  0  0  0  0  0  0
    6.1696  -14.7238   26.7219 C   0  0  0  0  0  0  0  0  0  0  0  0
    6.7728  -15.1377   25.5496 C   0  0  0  0  0  0  0  0  0  0  0  0
    7.2187  -14.2081   24.6420 C   0  0  0  0  0  0  0  0  0  0  0  0
    9.8824  -16.3360   24.3841 C   0  0  0  0  0  0  0  0  0  0  0  0
    9.9317  -17.6010   24.6036 O   0  0  0  0  0  0  0  0  0  0  0  0
   10.3666  -12.7419   28.5658 C   0  0  0  0  0  0  0  0  0  0  0  0
   10.7162  -13.8039   27.5278 C   0  0  0  0  0  0  0  0  0  0  0  0
   10.2386  -15.1531   27.9263 C   0  0  2  0  0  0  0  0  0  0  0  0
   10.8401  -15.6430   29.2206 C   0  0  0  0  0  0  0  0  0  0  0  0
   10.5005  -16.1301   26.7884 C   0  0  2  0  0  0  0  0  0  0  0  0
   10.0601  -15.5242   25.5315 N   0  0  0  0  0  0  0  0  0  0  0  0
    9.9223  -17.4514   26.9764 C   0  0  0  0  0  0  0  0  0  0  0  0
    8.6737  -17.8314   26.4445 O   0  0  0  0  0  0  0  0  0  0  0  0
   10.4727  -18.3991   27.6356 O   0  0  0  0  0  0  0  0  0  0  0  0
  2  1  1  6
  3  2  1  0
  4  3  1  0
  4  5  2  0
  6  5  1  0
  7  6  2  0
  8  9  2  0
  8  7  1  0
  9  4  1  0
 10  2  1  0
 11 10  2  0
 12 10  1  0
 13 12  1  0
 13 14  1  1
 15 23  1  0
 15 14  1  0
 16 15  2  0
 17 16  1  0
 17 18  1  0
 18 23  2  0
 19 18  1  0
 19 20  2  0
 20 21  1  0
 21 22  2  0
 23 22  1  0
 24 25  2  0
 24 13  1  0
 26 27  1  0
 27 28  1  0
 28 30  1  0
 28 29  1  1
 30 31  1  6
 31 24  1  0
 32 30  1  0
 33 32  1  0
 34 32  2  0
M  END
$$$$
