FWI.pdb
     RDKit          3D

 34 36  0  0  1  0  0  0  0  0999 V2000
    8.2103  -18.2565   20.0916 N   0  0  0  0  0  0  0  0  0  0  0  0
    8.4781  -16.8438   20.1955 C   0  0  1  0  0  0  0  0  0  0  0  0
    7.6793  -16.1734   19.0718 C   0  0  0  0  0  0  0  0  0  0  0  0
    7.8248  -14.7162   19.1717 C   0  0  0  0  0  0  0  0  0  0  0  0
    6.9458  -14.0062   19.9608 C   0  0  0  0  0  0  0  0  0  0  0  0
    7.1099  -12.6209   20.0357 C   0  0  0  0  0  0  0  0  0  0  0  0
    8.1373  -12.0221   19.3225 C   0  0  0  0  0  0  0  0  0  0  0  0
    9.0160  -12.7298   18.5340 C   0  0  0  0  0  0  0  0  0  0  0  0
    8.8443  -14.1132   18.4654 C   0  0  0  0  0  0  0  0  0  0  0  0
    7.9050  -16.3414   21.4633 C   0  0  0  0  0  0  0  0  0  0  0  0
    7.1143  -15.3749   21.4292 O   0  0  0  0  0  0  0  0  0  0  0  0
    8.2578  -16.9574   22.6845 N   0  0  0  0  0  0  0  0  0  0  0  0
    8.2608  -16.2323   23.9811 C   0  0  1  0  0  0  0  0  0  0  0  0
    6.9995  -16.5355   24.7169 C   0  0  0  0  0  0  0  0  0  0  0  0
    6.4905  -15.3898   25.4739 C   0  0  0  0  0  0  0  0  0  0  0  0
    5.3316  -14.6935   25.2049 C   0  0  0  0  0  0  0  0  0  0  0  0
    5.2613  -13.7119   26.1112 N   0  0  0  0  0  0  0  0  0  0  0  0
    6.3393  -13.7566   26.9533 C   0  0  0  0  0  0  0  0  0  0  0  0
    6.7061  -12.9711   28.0240 C   0  0  0  0  0  0  0  0  0  0  0  0
    7.8597  -13.2350   28.7102 C   0  0  0  0  0  0  0  0  0  0  0  0
    8.6551  -14.2922   28.3252 C   0  0  0  0  0  0  0  0  0  0  0  0
    8.2894  -15.0817   27.2517 C   0  0  0  0  0  0  0  0  0  0  0  0
    7.1301  -14.8130   26.5657 C   0  0  0  0  0  0  0  0  0  0  0  0
    9.4547  -16.6314   24.7191 C   0  0  0  0  0  0  0  0  0  0  0  0
   10.0032  -17.7464   24.3924 O   0  0  0  0  0  0  0  0  0  0  0  0
   11.7599  -13.2383   28.2861 C   0  0  0  0  0  0  0  0  0  0  0  0
   11.6961  -14.2269   27.1259 C   0  0  0  0  0  0  0  0  0  0  0  0
   11.6773  -15.6368   27.5938 C   0  0  2  0  0  0  0  0  0  0  0  0
   12.9893  -16.0881   28.1872 C   0  0  0  0  0  0  0  0  0  0  0  0
   11.2503  -16.5376   26.4430 C   0  0  2  0  0  0  0  0  0  0  0  0
   10.1047  -15.9307   25.7649 N   0  0  0  0  0  0  0  0  0  0  0  0
   10.9803  -17.9166   26.8185 C   0  0  0  0  0  0  0  0  0  0  0  0
    9.6788  -18.4406   26.9519 O   0  0  0  0  0  0  0  0  0  0  0  0
   11.8790  -18.7922   27.0666 O   0  0  0  0  0  0  0  0  0  0  0  0
  2  1  1  1
  3  2  1  0
  4  3  1  0
  4  5  2  0
  6  5  1  0
  7  6  2  0
  8  9  2  0
  8  7  1  0
  9  4  1  0
 10  2  1  0
 11 10  2  0
 12 10  1  0
 13 12  1  0
 13 14  1  1
 15 23  1  0
 15 14  1  0
 16 15  2  0
 17 16  1  0
 17 18  1  0
 18 23  2  0
 19 18  1  0
 19 20  2  0
 20 21  1  0
 21 22  2  0
 23 22  1  0
 24 25  2  0
 24 13  1  0
 26 27  1  0
 27 28  1  0
 28 30  1  0
 28 29  1  6
 30 31  1  1
 31 24  1  0
 32 30  1  0
 33 32  1  0
 34 32  2  0
M  END
$$$$
