FWI.pdb
     RDKit          3D

 34 36  0  0  1  0  0  0  0  0999 V2000
    9.1410  -16.3862   19.5441 N   0  0  0  0  0  0  0  0  0  0  0  0
   10.1097  -15.3947   19.9395 C   0  0  1  0  0  0  0  0  0  0  0  0
    9.8087  -14.1453   19.1035 C   0  0  0  0  0  0  0  0  0  0  0  0
    9.5961  -14.5339   17.7041 C   0  0  0  0  0  0  0  0  0  0  0  0
   10.6373  -15.0962   16.9978 C   0  0  0  0  0  0  0  0  0  0  0  0
   10.4042  -15.4555   15.6680 C   0  0  0  0  0  0  0  0  0  0  0  0
    9.1506  -15.2352   15.1179 C   0  0  0  0  0  0  0  0  0  0  0  0
    8.1096  -14.6737   15.8220 C   0  0  0  0  0  0  0  0  0  0  0  0
    8.3519  -14.3181   17.1497 C   0  0  0  0  0  0  0  0  0  0  0  0
    9.8588  -15.0173   21.3477 C   0  0  0  0  0  0  0  0  0  0  0  0
   10.0958  -13.8461   21.7120 O   0  0  0  0  0  0  0  0  0  0  0  0
    9.3587  -15.9797   22.2526 N   0  0  0  0  0  0  0  0  0  0  0  0
    8.8140  -15.6232   23.5879 C   0  0  1  0  0  0  0  0  0  0  0  0
    7.4847  -16.2752   23.7667 C   0  0  0  0  0  0  0  0  0  0  0  0
    6.5613  -15.4769   24.5760 C   0  0  0  0  0  0  0  0  0  0  0  0
    5.2953  -15.8557   24.9682 C   0  0  0  0  0  0  0  0  0  0  0  0
    4.7900  -14.8273   25.6589 N   0  0  0  0  0  0  0  0  0  0  0  0
    5.6925  -13.8004   25.7219 C   0  0  0  0  0  0  0  0  0  0  0  0
    5.6336  -12.5559   26.3099 C   0  0  0  0  0  0  0  0  0  0  0  0
    6.6971  -11.7001   26.2217 C   0  0  0  0  0  0  0  0  0  0  0  0
    7.8301  -12.0887   25.5407 C   0  0  0  0  0  0  0  0  0  0  0  0
    7.8917  -13.3365   24.9501 C   0  0  0  0  0  0  0  0  0  0  0  0
    6.8215  -14.1926   25.0414 C   0  0  0  0  0  0  0  0  0  0  0  0
    9.7849  -16.0350   24.5965 C   0  0  0  0  0  0  0  0  0  0  0  0
   10.7101  -16.8460   24.2262 O   0  0  0  0  0  0  0  0  0  0  0  0
   10.2390  -13.4217   29.4017 C   0  0  0  0  0  0  0  0  0  0  0  0
   10.5810  -14.0798   28.0685 C   0  0  0  0  0  0  0  0  0  0  0  0
   10.7688  -15.5474   28.2018 C   0  0  2  0  0  0  0  0  0  0  0  0
   11.9290  -15.9242   29.0902 C   0  0  0  0  0  0  0  0  0  0  0  0
   10.9110  -16.1592   26.8149 C   0  0  2  0  0  0  0  0  0  0  0  0
    9.8449  -15.6423   25.9564 N   0  0  0  0  0  0  0  0  0  0  0  0
   10.9573  -17.6127   26.7935 C   0  0  0  0  0  0  0  0  0  0  0  0
    9.8071  -18.4238   26.8674 O   0  0  0  0  0  0  0  0  0  0  0  0
   12.0293  -18.3051   26.7080 O   0  0  0  0  0  0  0  0  0  0  0  0
  2  1  1  6
  3  2  1  0
  4  3  1  0
  4  5  2  0
  6  5  1  0
  7  6  2  0
  8  9  2  0
  8  7  1  0
  9  4  1  0
 10  2  1  0
 11 10  2  0
 12 10  1  0
 13 12  1  0
 13 14  1  1
 15 23  1  0
 15 14  1  0
 16 15  2  0
 17 16  1  0
 17 18  1  0
 18 23  2  0
 19 18  1  0
 19 20  2  0
 20 21  1  0
 21 22  2  0
 23 22  1  0
 24 25  2  0
 24 13  1  0
 26 27  1  0
 27 28  1  0
 28 30  1  0
 28 29  1  1
 30 31  1  6
 31 24  1  0
 32 30  1  0
 33 32  1  0
 34 32  2  0
M  END
$$$$
