FWI.pdb
     RDKit          3D

 34 36  0  0  1  0  0  0  0  0999 V2000
   11.2823  -18.1529   19.2166 N   0  0  0  0  0  0  0  0  0  0  0  0
   11.6166  -18.3622   20.6031 C   0  0  1  0  0  0  0  0  0  0  0  0
   13.1443  -18.2696   20.6933 C   0  0  0  0  0  0  0  0  0  0  0  0
   13.6167  -19.0805   21.8220 C   0  0  0  0  0  0  0  0  0  0  0  0
   14.4131  -18.4952   22.7824 C   0  0  0  0  0  0  0  0  0  0  0  0
   14.8469  -19.2927   23.8442 C   0  0  0  0  0  0  0  0  0  0  0  0
   14.4642  -20.6247   23.8898 C   0  0  0  0  0  0  0  0  0  0  0  0
   13.6688  -21.2108   22.9314 C   0  0  0  0  0  0  0  0  0  0  0  0
   13.2403  -20.4062   21.8745 C   0  0  0  0  0  0  0  0  0  0  0  0
   11.0888  -17.2313   21.3974 C   0  0  0  0  0  0  0  0  0  0  0  0
   11.3601  -16.0644   21.0437 O   0  0  0  0  0  0  0  0  0  0  0  0
   10.2917  -17.4861   22.5353 N   0  0  0  0  0  0  0  0  0  0  0  0
    9.6896  -16.4038   23.3556 C   0  0  1  0  0  0  0  0  0  0  0  0
    8.2268  -16.3299   23.0748 C   0  0  0  0  0  0  0  0  0  0  0  0
    7.6888  -14.9737   23.2016 C   0  0  0  0  0  0  0  0  0  0  0  0
    7.6823  -14.0109   22.2152 C   0  0  0  0  0  0  0  0  0  0  0  0
    7.1329  -12.9180   22.7572 N   0  0  0  0  0  0  0  0  0  0  0  0
    6.7867  -13.1497   24.0609 C   0  0  0  0  0  0  0  0  0  0  0  0
    6.2029  -12.3471   25.0164 C   0  0  0  0  0  0  0  0  0  0  0  0
    5.9611  -12.8335   26.2719 C   0  0  0  0  0  0  0  0  0  0  0  0
    6.3047  -14.1324   26.5776 C   0  0  0  0  0  0  0  0  0  0  0  0
    6.8904  -14.9394   25.6209 C   0  0  0  0  0  0  0  0  0  0  0  0
    7.1310  -14.4469   24.3615 C   0  0  0  0  0  0  0  0  0  0  0  0
    9.9817  -16.6840   24.7577 C   0  0  0  0  0  0  0  0  0  0  0  0
    9.9579  -17.9136   25.1295 O   0  0  0  0  0  0  0  0  0  0  0  0
   10.4482  -12.6400   28.4665 C   0  0  0  0  0  0  0  0  0  0  0  0
   10.7879  -13.8360   27.5823 C   0  0  0  0  0  0  0  0  0  0  0  0
   10.2311  -15.1041   28.1199 C   0  0  2  0  0  0  0  0  0  0  0  0
   10.7212  -15.4317   29.5090 C   0  0  0  0  0  0  0  0  0  0  0  0
   10.5335  -16.2335   27.1446 C   0  0  2  0  0  0  0  0  0  0  0  0
   10.3020  -15.7575   25.7806 N   0  0  0  0  0  0  0  0  0  0  0  0
    9.8172  -17.4717   27.4076 C   0  0  0  0  0  0  0  0  0  0  0  0
   10.3900  -18.5671   28.0847 O   0  0  0  0  0  0  0  0  0  0  0  0
    8.6085  -17.7010   27.0582 O   0  0  0  0  0  0  0  0  0  0  0  0
  2  1  1  6
  3  2  1  0
  4  3  1  0
  4  5  2  0
  6  5  1  0
  7  6  2  0
  8  9  2  0
  8  7  1  0
  9  4  1  0
 10  2  1  0
 11 10  2  0
 12 10  1  0
 13 12  1  0
 13 14  1  1
 15 23  1  0
 15 14  1  0
 16 15  2  0
 17 16  1  0
 17 18  1  0
 18 23  2  0
 19 18  1  0
 19 20  2  0
 20 21  1  0
 21 22  2  0
 23 22  1  0
 24 25  2  0
 24 13  1  0
 26 27  1  0
 27 28  1  0
 28 30  1  0
 28 29  1  1
 30 31  1  6
 31 24  1  0
 32 30  1  0
 33 32  1  0
 34 32  2  0
M  END
$$$$
