FWI.pdb
     RDKit          3D

 34 36  0  0  1  0  0  0  0  0999 V2000
   11.7766  -16.6700   19.4280 N   0  0  0  0  0  0  0  0  0  0  0  0
   11.5836  -17.4886   20.5987 C   0  0  1  0  0  0  0  0  0  0  0  0
   12.9810  -17.9364   21.0426 C   0  0  0  0  0  0  0  0  0  0  0  0
   13.4602  -18.9978   20.1491 C   0  0  0  0  0  0  0  0  0  0  0  0
   12.9378  -20.2670   20.2735 C   0  0  0  0  0  0  0  0  0  0  0  0
   13.4139  -21.2557   19.4089 C   0  0  0  0  0  0  0  0  0  0  0  0
   14.3810  -20.9258   18.4716 C   0  0  0  0  0  0  0  0  0  0  0  0
   14.9039  -19.6586   18.3461 C   0  0  0  0  0  0  0  0  0  0  0  0
   14.4221  -18.6776   19.2141 C   0  0  0  0  0  0  0  0  0  0  0  0
   11.0569  -16.6420   21.6915 C   0  0  0  0  0  0  0  0  0  0  0  0
   11.6078  -15.5460   21.9275 O   0  0  0  0  0  0  0  0  0  0  0  0
    9.9471  -17.0824   22.4463 N   0  0  0  0  0  0  0  0  0  0  0  0
    9.2898  -16.2403   23.4786 C   0  0  1  0  0  0  0  0  0  0  0  0
    7.8276  -16.5332   23.4940 C   0  0  0  0  0  0  0  0  0  0  0  0
    7.0864  -15.6907   24.4352 C   0  0  0  0  0  0  0  0  0  0  0  0
    6.4012  -16.1306   25.5474 C   0  0  0  0  0  0  0  0  0  0  0  0
    5.8458  -15.0472   26.1022 N   0  0  0  0  0  0  0  0  0  0  0  0
    6.1533  -13.9258   25.3803 C   0  0  0  0  0  0  0  0  0  0  0  0
    5.8190  -12.6000   25.5493 C   0  0  0  0  0  0  0  0  0  0  0  0
    6.2653  -11.6577   24.6637 C   0  0  0  0  0  0  0  0  0  0  0  0
    7.0522  -12.0409   23.5996 C   0  0  0  0  0  0  0  0  0  0  0  0
    7.3889  -13.3701   23.4279 C   0  0  0  0  0  0  0  0  0  0  0  0
    6.9388  -14.3128   24.3197 C   0  0  0  0  0  0  0  0  0  0  0  0
    9.9334  -16.5117   24.7598 C   0  0  0  0  0  0  0  0  0  0  0  0
   10.5860  -17.6131   24.8691 O   0  0  0  0  0  0  0  0  0  0  0  0
    9.6853  -12.9917   29.0634 C   0  0  0  0  0  0  0  0  0  0  0  0
   10.2672  -13.8448   27.9404 C   0  0  0  0  0  0  0  0  0  0  0  0
   10.2879  -15.2887   28.2891 C   0  0  2  0  0  0  0  0  0  0  0  0
   11.1309  -15.5997   29.5015 C   0  0  0  0  0  0  0  0  0  0  0  0
   10.7453  -16.0873   27.0762 C   0  0  2  0  0  0  0  0  0  0  0  0
    9.9382  -15.6980   25.9196 N   0  0  0  0  0  0  0  0  0  0  0  0
   10.7494  -17.5296   27.2643 C   0  0  0  0  0  0  0  0  0  0  0  0
    9.5983  -18.3305   27.1236 O   0  0  0  0  0  0  0  0  0  0  0  0
   11.7805  -18.2197   27.5745 O   0  0  0  0  0  0  0  0  0  0  0  0
  2  1  1  6
  3  2  1  0
  4  3  1  0
  4  5  2  0
  6  5  1  0
  7  6  2  0
  8  9  2  0
  8  7  1  0
  9  4  1  0
 10  2  1  0
 11 10  2  0
 12 10  1  0
 13 12  1  0
 13 14  1  1
 15 23  1  0
 15 14  1  0
 16 15  2  0
 17 16  1  0
 17 18  1  0
 18 23  2  0
 19 18  1  0
 19 20  2  0
 20 21  1  0
 21 22  2  0
 23 22  1  0
 24 25  2  0
 24 13  1  0
 26 27  1  0
 27 28  1  0
 28 30  1  0
 28 29  1  1
 30 31  1  6
 31 24  1  0
 32 30  1  0
 33 32  1  0
 34 32  2  0
M  END
$$$$
