FWI.pdb
     RDKit          3D

 34 36  0  0  1  0  0  0  0  0999 V2000
    5.3782  -19.8072   25.7531 N   0  0  0  0  0  0  0  0  0  0  0  0
    5.8074  -19.3728   24.4474 C   0  0  1  0  0  0  0  0  0  0  0  0
    4.5382  -18.9492   23.6990 C   0  0  0  0  0  0  0  0  0  0  0  0
    4.8932  -18.5167   22.3420 C   0  0  0  0  0  0  0  0  0  0  0  0
    5.1714  -19.4686   21.3850 C   0  0  0  0  0  0  0  0  0  0  0  0
    5.5060  -19.0259   20.1030 C   0  0  0  0  0  0  0  0  0  0  0  0
    5.5446  -17.6637   19.8466 C   0  0  0  0  0  0  0  0  0  0  0  0
    5.2670  -16.7116   20.8012 C   0  0  0  0  0  0  0  0  0  0  0  0
    4.9337  -17.1635   22.0791 C   0  0  0  0  0  0  0  0  0  0  0  0
    6.6245  -18.1486   24.5964 C   0  0  0  0  0  0  0  0  0  0  0  0
    6.1401  -17.1669   25.1981 O   0  0  0  0  0  0  0  0  0  0  0  0
    7.9306  -18.1085   24.0600 N   0  0  0  0  0  0  0  0  0  0  0  0
    8.7699  -16.8828   24.0745 C   0  0  1  0  0  0  0  0  0  0  0  0
   10.0326  -17.1603   24.8179 C   0  0  0  0  0  0  0  0  0  0  0  0
    9.9386  -16.8381   26.2435 C   0  0  0  0  0  0  0  0  0  0  0  0
    9.9022  -17.7489   27.2775 C   0  0  0  0  0  0  0  0  0  0  0  0
    9.7817  -17.0373   28.4040 N   0  0  0  0  0  0  0  0  0  0  0  0
    9.7394  -15.6981   28.1249 C   0  0  0  0  0  0  0  0  0  0  0  0
    9.6229  -14.5905   28.9357 C   0  0  0  0  0  0  0  0  0  0  0  0
    9.6035  -13.3357   28.3911 C   0  0  0  0  0  0  0  0  0  0  0  0
    9.7010  -13.1839   27.0251 C   0  0  0  0  0  0  0  0  0  0  0  0
    9.8180  -14.2933   26.2096 C   0  0  0  0  0  0  0  0  0  0  0  0
    9.8374  -15.5513   26.7608 C   0  0  0  0  0  0  0  0  0  0  0  0
    9.0058  -16.4805   22.6917 C   0  0  0  0  0  0  0  0  0  0  0  0
    9.1460  -17.4162   21.8223 O   0  0  0  0  0  0  0  0  0  0  0  0
    6.8455  -12.0927   20.5496 C   0  0  0  0  0  0  0  0  0  0  0  0
    7.4133  -13.4875   20.7942 C   0  0  0  0  0  0  0  0  0  0  0  0
    8.8185  -13.6083   20.3273 C   0  0  2  0  0  0  0  0  0  0  0  0
    8.9769  -13.3890   18.8427 C   0  0  0  0  0  0  0  0  0  0  0  0
    9.3685  -14.9639   20.7492 C   0  0  2  0  0  0  0  0  0  0  0  0
    9.0943  -15.1654   22.1722 N   0  0  0  0  0  0  0  0  0  0  0  0
   10.7746  -15.1721   20.4409 C   0  0  0  0  0  0  0  0  0  0  0  0
   11.2328  -15.6161   19.1842 O   0  0  0  0  0  0  0  0  0  0  0  0
   11.7355  -14.9799   21.2627 O   0  0  0  0  0  0  0  0  0  0  0  0
  2  1  1  1
  3  2  1  0
  4  3  1  0
  4  5  2  0
  6  5  1  0
  7  6  2  0
  8  9  2  0
  8  7  1  0
  9  4  1  0
 10  2  1  0
 11 10  2  0
 12 10  1  0
 13 12  1  0
 13 14  1  6
 15 23  1  0
 15 14  1  0
 16 15  2  0
 17 16  1  0
 17 18  1  0
 18 23  2  0
 19 18  1  0
 19 20  2  0
 20 21  1  0
 21 22  2  0
 23 22  1  0
 24 25  2  0
 24 13  1  0
 26 27  1  0
 27 28  1  0
 28 30  1  0
 28 29  1  6
 30 31  1  1
 31 24  1  0
 32 30  1  0
 33 32  1  0
 34 32  2  0
M  END
$$$$
