FWI.pdb
     RDKit          3D

 34 36  0  0  1  0  0  0  0  0999 V2000
   12.1798  -16.4255   19.4554 N   0  0  0  0  0  0  0  0  0  0  0  0
   11.6493  -17.2745   20.4926 C   0  0  1  0  0  0  0  0  0  0  0  0
   12.8527  -17.9919   21.1152 C   0  0  0  0  0  0  0  0  0  0  0  0
   13.3400  -19.0214   20.1892 C   0  0  0  0  0  0  0  0  0  0  0  0
   14.5828  -18.8720   19.6127 C   0  0  0  0  0  0  0  0  0  0  0  0
   15.0187  -19.8684   18.7358 C   0  0  0  0  0  0  0  0  0  0  0  0
   14.1946  -20.9545   18.4830 C   0  0  0  0  0  0  0  0  0  0  0  0
   12.9531  -21.1052   19.0580 C   0  0  0  0  0  0  0  0  0  0  0  0
   12.5262  -20.1049   19.9327 C   0  0  0  0  0  0  0  0  0  0  0  0
   11.0800  -16.4242   21.5608 C   0  0  0  0  0  0  0  0  0  0  0  0
   11.6405  -15.3426   21.8370 O   0  0  0  0  0  0  0  0  0  0  0  0
    9.9196  -16.8450   22.2476 N   0  0  0  0  0  0  0  0  0  0  0  0
    9.2715  -16.0310   23.3078 C   0  0  1  0  0  0  0  0  0  0  0  0
    7.8018  -16.2840   23.2926 C   0  0  0  0  0  0  0  0  0  0  0  0
    7.0950  -15.6098   24.3838 C   0  0  0  0  0  0  0  0  0  0  0  0
    6.3418  -16.2247   25.3610 C   0  0  0  0  0  0  0  0  0  0  0  0
    5.8512  -15.2470   26.1313 N   0  0  0  0  0  0  0  0  0  0  0  0
    6.2661  -14.0238   25.6786 C   0  0  0  0  0  0  0  0  0  0  0  0
    6.0270  -12.7441   26.1295 C   0  0  0  0  0  0  0  0  0  0  0  0
    6.5723  -11.6707   25.4801 C   0  0  0  0  0  0  0  0  0  0  0  0
    7.3633  -11.8751   24.3706 C   0  0  0  0  0  0  0  0  0  0  0  0
    7.6047  -13.1576   23.9164 C   0  0  0  0  0  0  0  0  0  0  0  0
    7.0553  -14.2325   24.5717 C   0  0  0  0  0  0  0  0  0  0  0  0
    9.8903  -16.3757   24.5837 C   0  0  0  0  0  0  0  0  0  0  0  0
   10.2901  -17.5872   24.7356 O   0  0  0  0  0  0  0  0  0  0  0  0
   10.8615  -12.5916   28.4814 C   0  0  0  0  0  0  0  0  0  0  0  0
   11.0971  -13.7382   27.5030 C   0  0  0  0  0  0  0  0  0  0  0  0
   10.5911  -15.0328   28.0273 C   0  0  2  0  0  0  0  0  0  0  0  0
   11.2977  -15.4885   29.2804 C   0  0  0  0  0  0  0  0  0  0  0  0
   10.6783  -16.0832   26.9286 C   0  0  2  0  0  0  0  0  0  0  0  0
   10.1188  -15.5282   25.6958 N   0  0  0  0  0  0  0  0  0  0  0  0
   10.0729  -17.3630   27.2617 C   0  0  0  0  0  0  0  0  0  0  0  0
    8.6869  -17.6060   27.1837 O   0  0  0  0  0  0  0  0  0  0  0  0
   10.7202  -18.3927   27.6572 O   0  0  0  0  0  0  0  0  0  0  0  0
  2  1  1  6
  3  2  1  0
  4  3  1  0
  4  5  2  0
  6  5  1  0
  7  6  2  0
  8  9  2  0
  8  7  1  0
  9  4  1  0
 10  2  1  0
 11 10  2  0
 12 10  1  0
 13 12  1  0
 13 14  1  1
 15 23  1  0
 15 14  1  0
 16 15  2  0
 17 16  1  0
 17 18  1  0
 18 23  2  0
 19 18  1  0
 19 20  2  0
 20 21  1  0
 21 22  2  0
 23 22  1  0
 24 25  2  0
 24 13  1  0
 26 27  1  0
 27 28  1  0
 28 30  1  0
 28 29  1  1
 30 31  1  6
 31 24  1  0
 32 30  1  0
 33 32  1  0
 34 32  2  0
M  END
$$$$
