FWI.pdb
     RDKit          3D

 34 36  0  0  1  0  0  0  0  0999 V2000
   10.1407  -18.5635   20.8225 N   0  0  0  0  0  0  0  0  0  0  0  0
   11.1307  -17.5307   20.9991 C   0  0  1  0  0  0  0  0  0  0  0  0
   11.2528  -16.8195   19.6464 C   0  0  0  0  0  0  0  0  0  0  0  0
   11.7973  -17.7519   18.6520 C   0  0  0  0  0  0  0  0  0  0  0  0
   11.0205  -18.1103   17.5715 C   0  0  0  0  0  0  0  0  0  0  0  0
   11.5664  -18.9994   16.6424 C   0  0  0  0  0  0  0  0  0  0  0  0
   12.8517  -19.4803   16.8410 C   0  0  0  0  0  0  0  0  0  0  0  0
   13.6288  -19.1233   17.9197 C   0  0  0  0  0  0  0  0  0  0  0  0
   13.0750  -18.2347   18.8425 C   0  0  0  0  0  0  0  0  0  0  0  0
   10.6059  -16.5236   21.9470 C   0  0  0  0  0  0  0  0  0  0  0  0
   11.2853  -15.5022   22.1827 O   0  0  0  0  0  0  0  0  0  0  0  0
    9.3537  -16.7304   22.5669 N   0  0  0  0  0  0  0  0  0  0  0  0
    8.8259  -15.8406   23.6330 C   0  0  1  0  0  0  0  0  0  0  0  0
    7.4944  -16.3432   24.0786 C   0  0  0  0  0  0  0  0  0  0  0  0
    6.7499  -15.3624   24.8715 C   0  0  0  0  0  0  0  0  0  0  0  0
    5.6429  -15.6247   25.6498 C   0  0  0  0  0  0  0  0  0  0  0  0
    5.2603  -14.4529   26.1700 N   0  0  0  0  0  0  0  0  0  0  0  0
    6.0875  -13.4469   25.7495 C   0  0  0  0  0  0  0  0  0  0  0  0
    6.0990  -12.0938   26.0083 C   0  0  0  0  0  0  0  0  0  0  0  0
    7.0555  -11.2923   25.4479 C   0  0  0  0  0  0  0  0  0  0  0  0
    8.0095  -11.8451   24.6216 C   0  0  0  0  0  0  0  0  0  0  0  0
    8.0002  -13.2020   24.3604 C   0  0  0  0  0  0  0  0  0  0  0  0
    7.0380  -14.0030   24.9255 C   0  0  0  0  0  0  0  0  0  0  0  0
    9.8051  -15.8013   24.7143 C   0  0  0  0  0  0  0  0  0  0  0  0
   10.5143  -14.7359   24.8278 O   0  0  0  0  0  0  0  0  0  0  0  0
   10.4402  -12.7852   27.4085 C   0  0  0  0  0  0  0  0  0  0  0  0
   10.6846  -14.0894   26.6556 C   0  0  0  0  0  0  0  0  0  0  0  0
   10.4972  -15.2797   27.5247 C   0  0  2  0  0  0  0  0  0  0  0  0
   11.1597  -15.1461   28.8739 C   0  0  0  0  0  0  0  0  0  0  0  0
   10.9879  -16.5175   26.7863 C   0  0  2  0  0  0  0  0  0  0  0  0
   10.0748  -16.8030   25.6793 N   0  0  0  0  0  0  0  0  0  0  0  0
   11.1904  -17.6866   27.6275 C   0  0  0  0  0  0  0  0  0  0  0  0
   12.4551  -18.0860   28.1044 O   0  0  0  0  0  0  0  0  0  0  0  0
   10.2590  -18.4701   28.0202 O   0  0  0  0  0  0  0  0  0  0  0  0
  2  1  1  6
  3  2  1  0
  4  3  1  0
  4  5  2  0
  6  5  1  0
  7  6  2  0
  8  9  2  0
  8  7  1  0
  9  4  1  0
 10  2  1  0
 11 10  2  0
 12 10  1  0
 13 12  1  0
 13 14  1  1
 15 23  1  0
 15 14  1  0
 16 15  2  0
 17 16  1  0
 17 18  1  0
 18 23  2  0
 19 18  1  0
 19 20  2  0
 20 21  1  0
 21 22  2  0
 23 22  1  0
 24 25  2  0
 24 13  1  0
 26 27  1  0
 27 28  1  0
 28 30  1  0
 28 29  1  1
 30 31  1  6
 31 24  1  0
 32 30  1  0
 33 32  1  0
 34 32  2  0
M  END
$$$$
