FWI.pdb
     RDKit          3D

 34 36  0  0  1  0  0  0  0  0999 V2000
    9.3341  -17.8377   19.8787 N   0  0  0  0  0  0  0  0  0  0  0  0
    9.0289  -16.5645   20.4819 C   0  0  1  0  0  0  0  0  0  0  0  0
    7.5998  -16.2177   20.0488 C   0  0  0  0  0  0  0  0  0  0  0  0
    7.2248  -14.9117   20.6041 C   0  0  0  0  0  0  0  0  0  0  0  0
    7.7512  -13.7678   20.0440 C   0  0  0  0  0  0  0  0  0  0  0  0
    7.3754  -12.5400   20.5945 C   0  0  0  0  0  0  0  0  0  0  0  0
    6.4990  -12.5204   21.6688 C   0  0  0  0  0  0  0  0  0  0  0  0
    5.9724  -13.6620   22.2293 C   0  0  0  0  0  0  0  0  0  0  0  0
    6.3534  -14.8839   21.6727 C   0  0  0  0  0  0  0  0  0  0  0  0
    8.9841  -16.7310   21.9512 C   0  0  0  0  0  0  0  0  0  0  0  0
    8.7335  -17.8591   22.4253 O   0  0  0  0  0  0  0  0  0  0  0  0
    9.2237  -15.6198   22.7897 N   0  0  0  0  0  0  0  0  0  0  0  0
    9.7484  -15.7532   24.1731 C   0  0  1  0  0  0  0  0  0  0  0  0
    8.6688  -16.2740   25.0605 C   0  0  0  0  0  0  0  0  0  0  0  0
    7.5959  -15.3027   25.2848 C   0  0  0  0  0  0  0  0  0  0  0  0
    6.2443  -15.5529   25.1815 C   0  0  0  0  0  0  0  0  0  0  0  0
    5.6250  -14.3939   25.4331 N   0  0  0  0  0  0  0  0  0  0  0  0
    6.5374  -13.4078   25.6946 C   0  0  0  0  0  0  0  0  0  0  0  0
    6.3898  -12.0729   26.0015 C   0  0  0  0  0  0  0  0  0  0  0  0
    7.4898  -11.2895   26.2199 C   0  0  0  0  0  0  0  0  0  0  0  0
    8.7488  -11.8422   26.1312 C   0  0  0  0  0  0  0  0  0  0  0  0
    8.8995  -13.1809   25.8235 C   0  0  0  0  0  0  0  0  0  0  0  0
    7.7922  -13.9639   25.6053 C   0  0  0  0  0  0  0  0  0  0  0  0
   10.9156  -16.6281   24.1311 C   0  0  0  0  0  0  0  0  0  0  0  0
   10.7009  -17.8923   24.0507 O   0  0  0  0  0  0  0  0  0  0  0  0
   15.5310  -15.2310   21.8561 C   0  0  0  0  0  0  0  0  0  0  0  0
   14.3159  -15.9916   22.3780 C   0  0  0  0  0  0  0  0  0  0  0  0
   14.6107  -16.7167   23.6407 C   0  0  2  0  0  0  0  0  0  0  0  0
   15.6637  -17.7863   23.4850 C   0  0  0  0  0  0  0  0  0  0  0  0
   13.3159  -17.2906   24.1993 C   0  0  2  0  0  0  0  0  0  0  0  0
   12.2822  -16.2558   24.1604 N   0  0  0  0  0  0  0  0  0  0  0  0
   13.4336  -17.8793   25.5241 C   0  0  0  0  0  0  0  0  0  0  0  0
   13.8911  -19.1934   25.7480 O   0  0  0  0  0  0  0  0  0  0  0  0
   13.1385  -17.2803   26.6149 O   0  0  0  0  0  0  0  0  0  0  0  0
  2  1  1  6
  3  2  1  0
  4  3  1  0
  4  5  2  0
  6  5  1  0
  7  6  2  0
  8  9  2  0
  8  7  1  0
  9  4  1  0
 10  2  1  0
 11 10  2  0
 12 10  1  0
 13 12  1  0
 13 14  1  1
 15 23  1  0
 15 14  1  0
 16 15  2  0
 17 16  1  0
 17 18  1  0
 18 23  2  0
 19 18  1  0
 19 20  2  0
 20 21  1  0
 21 22  2  0
 23 22  1  0
 24 25  2  0
 24 13  1  0
 26 27  1  0
 27 28  1  0
 28 30  1  0
 28 29  1  6
 30 31  1  1
 31 24  1  0
 32 30  1  0
 33 32  1  0
 34 32  2  0
M  END
$$$$
