FWI.pdb
     RDKit          3D

 34 36  0  0  1  0  0  0  0  0999 V2000
   12.1481  -17.9734   19.2429 N   0  0  0  0  0  0  0  0  0  0  0  0
   11.8996  -18.3915   20.5999 C   0  0  1  0  0  0  0  0  0  0  0  0
   13.2556  -18.8246   21.1691 C   0  0  0  0  0  0  0  0  0  0  0  0
   13.3014  -20.2889   21.2605 C   0  0  0  0  0  0  0  0  0  0  0  0
   12.2398  -21.0252   20.7808 C   0  0  0  0  0  0  0  0  0  0  0  0
   12.3127  -22.4166   20.8819 C   0  0  0  0  0  0  0  0  0  0  0  0
   13.4357  -22.9951   21.4537 C   0  0  0  0  0  0  0  0  0  0  0  0
   14.4969  -22.2612   21.9333 C   0  0  0  0  0  0  0  0  0  0  0  0
   14.4150  -20.8718   21.8279 C   0  0  0  0  0  0  0  0  0  0  0  0
   11.4780  -17.2155   21.3921 C   0  0  0  0  0  0  0  0  0  0  0  0
   12.0828  -16.1334   21.2380 O   0  0  0  0  0  0  0  0  0  0  0  0
   10.4059  -17.3329   22.3042 N   0  0  0  0  0  0  0  0  0  0  0  0
    9.8830  -16.1822   23.0850 C   0  0  1  0  0  0  0  0  0  0  0  0
    8.4326  -16.0043   22.7869 C   0  0  0  0  0  0  0  0  0  0  0  0
    7.9307  -14.6807   23.1625 C   0  0  0  0  0  0  0  0  0  0  0  0
    8.1495  -13.5074   22.4730 C   0  0  0  0  0  0  0  0  0  0  0  0
    7.5468  -12.5395   23.1729 N   0  0  0  0  0  0  0  0  0  0  0  0
    6.9481  -13.0554   24.2903 C   0  0  0  0  0  0  0  0  0  0  0  0
    6.2214  -12.4669   25.3020 C   0  0  0  0  0  0  0  0  0  0  0  0
    5.7250  -13.2257   26.3263 C   0  0  0  0  0  0  0  0  0  0  0  0
    5.9553  -14.5841   26.3420 C   0  0  0  0  0  0  0  0  0  0  0  0
    6.6838  -15.1768   25.3283 C   0  0  0  0  0  0  0  0  0  0  0  0
    7.1801  -14.4110   24.3017 C   0  0  0  0  0  0  0  0  0  0  0  0
   10.1413  -16.4404   24.4978 C   0  0  0  0  0  0  0  0  0  0  0  0
   10.2378  -17.6682   24.8638 O   0  0  0  0  0  0  0  0  0  0  0  0
    9.9619  -12.4679   28.3322 C   0  0  0  0  0  0  0  0  0  0  0  0
   10.5118  -13.5603   27.4201 C   0  0  0  0  0  0  0  0  0  0  0  0
   10.1453  -14.9200   27.8932 C   0  0  2  0  0  0  0  0  0  0  0  0
   10.6447  -15.2247   29.2842 C   0  0  0  0  0  0  0  0  0  0  0  0
   10.6443  -15.9483   26.8874 C   0  0  2  0  0  0  0  0  0  0  0  0
   10.3104  -15.4930   25.5376 N   0  0  0  0  0  0  0  0  0  0  0  0
   10.1786  -17.3058   27.1241 C   0  0  0  0  0  0  0  0  0  0  0  0
    9.0456  -17.8556   26.4915 O   0  0  0  0  0  0  0  0  0  0  0  0
   10.7355  -18.1372   27.9206 O   0  0  0  0  0  0  0  0  0  0  0  0
  2  1  1  6
  3  2  1  0
  4  3  1  0
  4  5  2  0
  6  5  1  0
  7  6  2  0
  8  9  2  0
  8  7  1  0
  9  4  1  0
 10  2  1  0
 11 10  2  0
 12 10  1  0
 13 12  1  0
 13 14  1  1
 15 23  1  0
 15 14  1  0
 16 15  2  0
 17 16  1  0
 17 18  1  0
 18 23  2  0
 19 18  1  0
 19 20  2  0
 20 21  1  0
 21 22  2  0
 23 22  1  0
 24 25  2  0
 24 13  1  0
 26 27  1  0
 27 28  1  0
 28 30  1  0
 28 29  1  1
 30 31  1  6
 31 24  1  0
 32 30  1  0
 33 32  1  0
 34 32  2  0
M  END
$$$$
