WKW.pdb
     RDKit          3D

 38 41  0  0  1  0  0  0  0  0999 V2000
    8.2239  -16.8463   20.6987 N   0  0  0  0  0  0  0  0  0  0  0  0
    7.6223  -15.9213   21.6423 C   0  0  1  0  0  0  0  0  0  0  0  0
    6.4381  -15.2950   20.9204 C   0  0  0  0  0  0  0  0  0  0  0  0
    6.9585  -14.5931   19.7209 C   0  0  0  0  0  0  0  0  0  0  0  0
    6.6440  -14.7987   18.3960 C   0  0  0  0  0  0  0  0  0  0  0  0
    7.3482  -13.9352   17.6160 N   0  0  0  0  0  0  0  0  0  0  0  0
    8.1159  -13.1705   18.4027 C   0  0  0  0  0  0  0  0  0  0  0  0
    8.9992  -12.1625   18.1079 C   0  0  0  0  0  0  0  0  0  0  0  0
    9.6769  -11.5288   19.1543 C   0  0  0  0  0  0  0  0  0  0  0  0
    9.4750  -11.8937   20.4605 C   0  0  0  0  0  0  0  0  0  0  0  0
    8.5791  -12.9103   20.7204 C   0  0  0  0  0  0  0  0  0  0  0  0
    7.8938  -13.5571   19.7047 C   0  0  0  0  0  0  0  0  0  0  0  0
    7.2325  -16.6584   22.8498 C   0  0  0  0  0  0  0  0  0  0  0  0
    6.3794  -16.1767   23.6253 O   0  0  0  0  0  0  0  0  0  0  0  0
    7.8100  -17.9074   23.1451 N   0  0  0  0  0  0  0  0  0  0  0  0
    7.7686  -18.4393   24.5429 C   0  0  1  0  0  0  0  0  0  0  0  0
    7.5584  -19.9416   24.4191 C   0  0  0  0  0  0  0  0  0  0  0  0
    6.3674  -20.2818   23.5903 C   0  0  0  0  0  0  0  0  0  0  0  0
    5.5006  -21.3640   24.1641 C   0  0  0  0  0  0  0  0  0  0  0  0
    4.3120  -21.5620   23.2243 C   0  0  0  0  0  0  0  0  0  0  0  0
    3.4869  -22.6319   23.7128 N   0  0  0  0  0  0  0  0  0  0  0  0
    9.0391  -18.0617   25.1668 C   0  0  0  0  0  0  0  0  0  0  0  0
   10.1489  -18.4071   24.6025 O   0  0  0  0  0  0  0  0  0  0  0  0
    9.1833  -17.3337   26.3567 N   0  0  0  0  0  0  0  0  0  0  0  0
   10.5092  -17.0336   26.9293 C   0  0  1  0  0  0  0  0  0  0  0  0
   10.8921  -15.6250   26.6513 C   0  0  0  0  0  0  0  0  0  0  0  0
    9.8264  -14.6884   27.0234 C   0  0  0  0  0  0  0  0  0  0  0  0
    9.5179  -14.2957   28.3348 C   0  0  0  0  0  0  0  0  0  0  0  0
    8.4629  -13.4862   28.3169 N   0  0  0  0  0  0  0  0  0  0  0  0
    8.0487  -13.3152   27.0537 C   0  0  0  0  0  0  0  0  0  0  0  0
    7.0300  -12.5710   26.4994 C   0  0  0  0  0  0  0  0  0  0  0  0
    6.8145  -12.5359   25.1406 C   0  0  0  0  0  0  0  0  0  0  0  0
    7.6572  -13.2767   24.3325 C   0  0  0  0  0  0  0  0  0  0  0  0
    8.6791  -14.0280   24.8584 C   0  0  0  0  0  0  0  0  0  0  0  0
    8.8939  -14.0623   26.2340 C   0  0  0  0  0  0  0  0  0  0  0  0
   10.4744  -17.3262   28.3498 C   0  0  0  0  0  0  0  0  0  0  0  0
    9.4219  -17.6161   28.9629 O   0  0  0  0  0  0  0  0  0  0  0  0
   11.6364  -17.2933   29.0957 O   0  0  0  0  0  0  0  0  0  0  0  0
  2  1  1  6
  3  2  1  0
  4  3  1  0
  4  5  2  0
  6  5  1  0
  7  6  1  0
  8  7  2  0
  9  8  1  0
 10  9  2  0
 10 11  1  0
 11 12  2  0
 12  7  1  0
 12  4  1  0
 13  2  1  0
 13 15  1  0
 14 13  2  0
 16 15  1  0
 16 17  1  6
 18 17  1  0
 19 20  1  0
 19 18  1  0
 21 20  1  0
 22 23  2  0
 22 16  1  0
 24 22  1  0
 25 24  1  0
 25 36  1  0
 25 26  1  1
 27 26  1  0
 28 27  2  0
 29 28  1  0
 30 29  1  0
 30 35  2  0
 31 32  2  0
 31 30  1  0
 32 33  1  0
 33 34  2  0
 35 34  1  0
 35 27  1  0
 36 38  1  0
 37 36  2  0
M  END
$$$$
