WKW.pdb
     RDKit          3D

 38 41  0  0  1  0  0  0  0  0999 V2000
    7.7804  -17.3706   20.8965 N   0  0  0  0  0  0  0  0  0  0  0  0
    8.4299  -16.4392   21.8011 C   0  0  1  0  0  0  0  0  0  0  0  0
    7.3342  -15.5138   22.3099 C   0  0  0  0  0  0  0  0  0  0  0  0
    6.8717  -14.6882   21.1668 C   0  0  0  0  0  0  0  0  0  0  0  0
    5.6274  -14.6488   20.5779 C   0  0  0  0  0  0  0  0  0  0  0  0
    5.6290  -13.7494   19.5576 N   0  0  0  0  0  0  0  0  0  0  0  0
    6.8471  -13.2009   19.4673 C   0  0  0  0  0  0  0  0  0  0  0  0
    7.3568  -12.2545   18.6142 C   0  0  0  0  0  0  0  0  0  0  0  0
    8.6931  -11.8665   18.7541 C   0  0  0  0  0  0  0  0  0  0  0  0
    9.4971  -12.4105   19.7224 C   0  0  0  0  0  0  0  0  0  0  0  0
    8.9514  -13.3586   20.5634 C   0  0  0  0  0  0  0  0  0  0  0  0
    7.6313  -13.7636   20.4483 C   0  0  0  0  0  0  0  0  0  0  0  0
    9.0851  -17.1955   22.8744 C   0  0  0  0  0  0  0  0  0  0  0  0
    8.3996  -17.8885   23.6561 O   0  0  0  0  0  0  0  0  0  0  0  0
   10.4827  -17.1501   23.0334 N   0  0  0  0  0  0  0  0  0  0  0  0
   11.1419  -17.9694   24.0978 C   0  0  1  0  0  0  0  0  0  0  0  0
   12.5855  -18.1583   23.6546 C   0  0  0  0  0  0  0  0  0  0  0  0
   12.7173  -19.1646   22.5632 C   0  0  0  0  0  0  0  0  0  0  0  0
   14.1287  -19.4210   22.1224 C   0  0  0  0  0  0  0  0  0  0  0  0
   14.0934  -20.4898   21.0309 C   0  0  0  0  0  0  0  0  0  0  0  0
   15.4334  -20.7871   20.6067 N   0  0  0  0  0  0  0  0  0  0  0  0
   10.9922  -17.2208   25.3480 C   0  0  0  0  0  0  0  0  0  0  0  0
   11.4486  -16.0143   25.4221 O   0  0  0  0  0  0  0  0  0  0  0  0
   10.3791  -17.6930   26.5175 N   0  0  0  0  0  0  0  0  0  0  0  0
   10.4692  -16.9590   27.7939 C   0  0  1  0  0  0  0  0  0  0  0  0
    9.1183  -16.7649   28.3818 C   0  0  0  0  0  0  0  0  0  0  0  0
    8.2630  -15.9427   27.5195 C   0  0  0  0  0  0  0  0  0  0  0  0
    7.3221  -16.4400   26.6049 C   0  0  0  0  0  0  0  0  0  0  0  0
    6.7658  -15.4262   25.9482 N   0  0  0  0  0  0  0  0  0  0  0  0
    7.2882  -14.2699   26.3800 C   0  0  0  0  0  0  0  0  0  0  0  0
    7.0459  -12.9551   26.0459 C   0  0  0  0  0  0  0  0  0  0  0  0
    7.7073  -11.9171   26.6616 C   0  0  0  0  0  0  0  0  0  0  0  0
    8.6350  -12.2296   27.6383 C   0  0  0  0  0  0  0  0  0  0  0  0
    8.8969  -13.5309   27.9896 C   0  0  0  0  0  0  0  0  0  0  0  0
    8.2267  -14.5791   27.3638 C   0  0  0  0  0  0  0  0  0  0  0  0
   11.3582  -17.6852   28.6811 C   0  0  0  0  0  0  0  0  0  0  0  0
   11.6234  -17.3059   29.8444 O   0  0  0  0  0  0  0  0  0  0  0  0
   11.9600  -18.8545   28.2588 O   0  0  0  0  0  0  0  0  0  0  0  0
  2  1  1  6
  3  2  1  0
  4  3  1  0
  4  5  2  0
  6  5  1  0
  7  6  1  0
  8  7  2  0
  9  8  1  0
 10  9  2  0
 10 11  1  0
 11 12  2  0
 12  7  1  0
 12  4  1  0
 13  2  1  0
 13 15  1  0
 14 13  2  0
 16 15  1  0
 16 17  1  6
 18 17  1  0
 19 20  1  0
 19 18  1  0
 21 20  1  0
 22 23  2  0
 22 16  1  0
 24 22  1  0
 25 24  1  0
 25 36  1  0
 25 26  1  1
 27 26  1  0
 28 27  2  0
 29 28  1  0
 30 29  1  0
 30 35  2  0
 31 32  2  0
 31 30  1  0
 32 33  1  0
 33 34  2  0
 35 34  1  0
 35 27  1  0
 36 38  1  0
 37 36  2  0
M  END
$$$$
