WKW.pdb
     RDKit          3D

 38 41  0  0  1  0  0  0  0  0999 V2000
    5.9932  -18.4812   24.4040 N   0  0  0  0  0  0  0  0  0  0  0  0
    6.4822  -17.1188   24.2921 C   0  0  1  0  0  0  0  0  0  0  0  0
    7.1975  -16.8198   25.6016 C   0  0  0  0  0  0  0  0  0  0  0  0
    6.5723  -15.6111   26.1935 C   0  0  0  0  0  0  0  0  0  0  0  0
    5.5959  -15.5301   27.1613 C   0  0  0  0  0  0  0  0  0  0  0  0
    5.3092  -14.2256   27.4182 N   0  0  0  0  0  0  0  0  0  0  0  0
    6.0768  -13.4531   26.6392 C   0  0  0  0  0  0  0  0  0  0  0  0
    6.1674  -12.0892   26.5187 C   0  0  0  0  0  0  0  0  0  0  0  0
    7.0753  -11.5494   25.6021 C   0  0  0  0  0  0  0  0  0  0  0  0
    7.8716  -12.3533   24.8277 C   0  0  0  0  0  0  0  0  0  0  0  0
    7.7549  -13.7202   24.9757 C   0  0  0  0  0  0  0  0  0  0  0  0
    6.8639  -14.2839   25.8747 C   0  0  0  0  0  0  0  0  0  0  0  0
    7.3639  -17.0232   23.1230 C   0  0  0  0  0  0  0  0  0  0  0  0
    8.2427  -17.8908   22.9330 O   0  0  0  0  0  0  0  0  0  0  0  0
    7.2296  -15.9617   22.2087 N   0  0  0  0  0  0  0  0  0  0  0  0
    8.2394  -15.7797   21.1198 C   0  0  1  0  0  0  0  0  0  0  0  0
    7.7052  -14.6688   20.2272 C   0  0  0  0  0  0  0  0  0  0  0  0
    8.5290  -14.4813   18.9995 C   0  0  0  0  0  0  0  0  0  0  0  0
    7.9427  -13.5300   17.9979 C   0  0  0  0  0  0  0  0  0  0  0  0
    8.8382  -13.5401   16.7597 C   0  0  0  0  0  0  0  0  0  0  0  0
    8.7236  -14.8085   16.0948 N   0  0  0  0  0  0  0  0  0  0  0  0
    9.5070  -15.4598   21.7807 C   0  0  0  0  0  0  0  0  0  0  0  0
    9.6847  -14.2778   22.2711 O   0  0  0  0  0  0  0  0  0  0  0  0
   10.5890  -16.3365   21.9461 N   0  0  0  0  0  0  0  0  0  0  0  0
   11.8120  -15.9354   22.6668 C   0  0  1  0  0  0  0  0  0  0  0  0
   11.4819  -15.0120   23.7833 C   0  0  0  0  0  0  0  0  0  0  0  0
   11.2090  -15.7390   25.0275 C   0  0  0  0  0  0  0  0  0  0  0  0
   11.3322  -17.1268   25.1957 C   0  0  0  0  0  0  0  0  0  0  0  0
   10.9513  -17.4582   26.4259 N   0  0  0  0  0  0  0  0  0  0  0  0
   10.5790  -16.3571   27.0934 C   0  0  0  0  0  0  0  0  0  0  0  0
   10.1307  -16.1543   28.3806 C   0  0  0  0  0  0  0  0  0  0  0  0
    9.8289  -14.8975   28.8534 C   0  0  0  0  0  0  0  0  0  0  0  0
    9.9886  -13.8269   27.9929 C   0  0  0  0  0  0  0  0  0  0  0  0
   10.4322  -14.0008   26.7052 C   0  0  0  0  0  0  0  0  0  0  0  0
   10.7356  -15.2740   26.2294 C   0  0  0  0  0  0  0  0  0  0  0  0
   12.4912  -17.1333   23.1236 C   0  0  0  0  0  0  0  0  0  0  0  0
   11.9547  -18.2645   23.1271 O   0  0  0  0  0  0  0  0  0  0  0  0
   13.7914  -17.0632   23.5842 O   0  0  0  0  0  0  0  0  0  0  0  0
  2  1  1  1
  3  2  1  0
  4  3  1  0
  4  5  2  0
  6  5  1  0
  7  6  1  0
  8  7  2  0
  9  8  1  0
 10  9  2  0
 10 11  1  0
 11 12  2  0
 12  7  1  0
 12  4  1  0
 13  2  1  0
 13 15  1  0
 14 13  2  0
 16 15  1  0
 16 17  1  6
 18 17  1  0
 19 20  1  0
 19 18  1  0
 21 20  1  0
 22 23  2  0
 22 16  1  0
 24 22  1  0
 25 24  1  0
 25 36  1  0
 25 26  1  1
 27 26  1  0
 28 27  2  0
 29 28  1  0
 30 29  1  0
 30 35  2  0
 31 32  2  0
 31 30  1  0
 32 33  1  0
 33 34  2  0
 35 34  1  0
 35 27  1  0
 36 38  1  0
 37 36  2  0
M  END
$$$$
