WKW.pdb
     RDKit          3D

 38 41  0  0  1  0  0  0  0  0999 V2000
    6.2787  -18.6447   23.8296 N   0  0  0  0  0  0  0  0  0  0  0  0
    6.8393  -17.3059   23.7986 C   0  0  1  0  0  0  0  0  0  0  0  0
    7.4501  -17.0738   25.1730 C   0  0  0  0  0  0  0  0  0  0  0  0
    6.7233  -15.9461   25.8070 C   0  0  0  0  0  0  0  0  0  0  0  0
    5.6321  -15.9851   26.6462 C   0  0  0  0  0  0  0  0  0  0  0  0
    5.2800  -14.7207   27.0031 N   0  0  0  0  0  0  0  0  0  0  0  0
    6.1174  -13.8570   26.4152 C   0  0  0  0  0  0  0  0  0  0  0  0
    6.1850  -12.4870   26.4542 C   0  0  0  0  0  0  0  0  0  0  0  0
    7.1850  -11.8375   25.7235 C   0  0  0  0  0  0  0  0  0  0  0  0
    8.0932  -12.5406   24.9746 C   0  0  0  0  0  0  0  0  0  0  0  0
    7.9963  -13.9169   24.9590 C   0  0  0  0  0  0  0  0  0  0  0  0
    7.0160  -14.5880   25.6721 C   0  0  0  0  0  0  0  0  0  0  0  0
    7.8239  -17.2263   22.7133 C   0  0  0  0  0  0  0  0  0  0  0  0
    8.4127  -18.2593   22.3295 O   0  0  0  0  0  0  0  0  0  0  0  0
    8.1128  -15.9948   22.0964 N   0  0  0  0  0  0  0  0  0  0  0  0
    9.1245  -15.9282   20.9962 C   0  0  1  0  0  0  0  0  0  0  0  0
    8.9228  -14.5820   20.3154 C   0  0  0  0  0  0  0  0  0  0  0  0
    8.7059  -14.7153   18.8470 C   0  0  0  0  0  0  0  0  0  0  0  0
    7.7239  -15.7816   18.4589 C   0  0  0  0  0  0  0  0  0  0  0  0
    7.6777  -15.8451   16.9328 C   0  0  0  0  0  0  0  0  0  0  0  0
    8.5054  -16.9251   16.4720 N   0  0  0  0  0  0  0  0  0  0  0  0
   10.4356  -16.0885   21.6297 C   0  0  0  0  0  0  0  0  0  0  0  0
   11.5042  -15.8631   20.9394 O   0  0  0  0  0  0  0  0  0  0  0  0
   10.6617  -16.4728   22.9593 N   0  0  0  0  0  0  0  0  0  0  0  0
   12.0205  -16.5394   23.5295 C   0  0  1  0  0  0  0  0  0  0  0  0
   12.2320  -15.4399   24.5065 C   0  0  0  0  0  0  0  0  0  0  0  0
   11.7023  -15.7803   25.8312 C   0  0  0  0  0  0  0  0  0  0  0  0
   11.9276  -16.9908   26.5044 C   0  0  0  0  0  0  0  0  0  0  0  0
   11.2548  -16.9901   27.6515 N   0  0  0  0  0  0  0  0  0  0  0  0
   10.5886  -15.8344   27.7814 C   0  0  0  0  0  0  0  0  0  0  0  0
    9.7756  -15.3337   28.7751 C   0  0  0  0  0  0  0  0  0  0  0  0
    9.2141  -14.0801   28.6892 C   0  0  0  0  0  0  0  0  0  0  0  0
    9.4891  -13.3236   27.5649 C   0  0  0  0  0  0  0  0  0  0  0  0
   10.2945  -13.7986   26.5594 C   0  0  0  0  0  0  0  0  0  0  0  0
   10.8603  -15.0679   26.6487 C   0  0  0  0  0  0  0  0  0  0  0  0
   12.2068  -17.8496   24.1241 C   0  0  0  0  0  0  0  0  0  0  0  0
   11.2727  -18.6683   24.2817 O   0  0  0  0  0  0  0  0  0  0  0  0
   13.4587  -18.2492   24.5493 O   0  0  0  0  0  0  0  0  0  0  0  0
  2  1  1  1
  3  2  1  0
  4  3  1  0
  4  5  2  0
  6  5  1  0
  7  6  1  0
  8  7  2  0
  9  8  1  0
 10  9  2  0
 10 11  1  0
 11 12  2  0
 12  7  1  0
 12  4  1  0
 13  2  1  0
 13 15  1  0
 14 13  2  0
 16 15  1  0
 16 17  1  1
 18 17  1  0
 19 20  1  0
 19 18  1  0
 21 20  1  0
 22 23  2  0
 22 16  1  0
 24 22  1  0
 25 24  1  0
 25 36  1  0
 25 26  1  1
 27 26  1  0
 28 27  2  0
 29 28  1  0
 30 29  1  0
 30 35  2  0
 31 32  2  0
 31 30  1  0
 32 33  1  0
 33 34  2  0
 35 34  1  0
 35 27  1  0
 36 38  1  0
 37 36  2  0
M  END
$$$$
