WKW.pdb
     RDKit          3D

 38 41  0  0  1  0  0  0  0  0999 V2000
    6.5127  -19.8389   23.3836 N   0  0  0  0  0  0  0  0  0  0  0  0
    7.1093  -18.5822   22.9686 C   0  0  1  0  0  0  0  0  0  0  0  0
    6.2731  -17.4864   23.6135 C   0  0  0  0  0  0  0  0  0  0  0  0
    6.5347  -16.2247   22.8776 C   0  0  0  0  0  0  0  0  0  0  0  0
    6.4710  -15.9863   21.5227 C   0  0  0  0  0  0  0  0  0  0  0  0
    6.7846  -14.6875   21.2682 N   0  0  0  0  0  0  0  0  0  0  0  0
    7.0518  -14.0727   22.4273 C   0  0  0  0  0  0  0  0  0  0  0  0
    7.4146  -12.7793   22.7076 C   0  0  0  0  0  0  0  0  0  0  0  0
    7.6360  -12.4115   24.0386 C   0  0  0  0  0  0  0  0  0  0  0  0
    7.4970  -13.3140   25.0614 C   0  0  0  0  0  0  0  0  0  0  0  0
    7.1302  -14.6056   24.7434 C   0  0  0  0  0  0  0  0  0  0  0  0
    6.9050  -14.9994   23.4342 C   0  0  0  0  0  0  0  0  0  0  0  0
    8.5133  -18.5572   23.3950 C   0  0  0  0  0  0  0  0  0  0  0  0
    8.9785  -19.5055   24.0624 O   0  0  0  0  0  0  0  0  0  0  0  0
    9.3456  -17.4734   23.0583 N   0  0  0  0  0  0  0  0  0  0  0  0
   10.8327  -17.6215   23.1297 C   0  0  1  0  0  0  0  0  0  0  0  0
   11.3934  -16.8467   21.9458 C   0  0  0  0  0  0  0  0  0  0  0  0
   12.0093  -17.7393   20.9236 C   0  0  0  0  0  0  0  0  0  0  0  0
   12.6967  -17.0170   19.8021 C   0  0  0  0  0  0  0  0  0  0  0  0
   11.8290  -17.1557   18.5519 C   0  0  0  0  0  0  0  0  0  0  0  0
   12.4566  -16.4742   17.4539 N   0  0  0  0  0  0  0  0  0  0  0  0
   11.2383  -17.0962   24.4356 C   0  0  0  0  0  0  0  0  0  0  0  0
   12.2519  -16.2985   24.5101 O   0  0  0  0  0  0  0  0  0  0  0  0
   10.6163  -17.3765   25.6608 N   0  0  0  0  0  0  0  0  0  0  0  0
   11.2313  -17.0037   26.9487 C   0  0  1  0  0  0  0  0  0  0  0  0
   10.1851  -16.6841   27.9545 C   0  0  0  0  0  0  0  0  0  0  0  0
    9.0533  -15.9704   27.3538 C   0  0  0  0  0  0  0  0  0  0  0  0
    7.9292  -16.5799   26.7759 C   0  0  0  0  0  0  0  0  0  0  0  0
    7.1271  -15.6441   26.2764 N   0  0  0  0  0  0  0  0  0  0  0  0
    7.6594  -14.4332   26.4930 C   0  0  0  0  0  0  0  0  0  0  0  0
    7.2269  -13.1585   26.1982 C   0  0  0  0  0  0  0  0  0  0  0  0
    7.9545  -12.0458   26.5537 C   0  0  0  0  0  0  0  0  0  0  0  0
    9.1483  -12.2403   27.2239 C   0  0  0  0  0  0  0  0  0  0  0  0
    9.6035  -13.4993   27.5289 C   0  0  0  0  0  0  0  0  0  0  0  0
    8.8653  -14.6234   27.1668 C   0  0  0  0  0  0  0  0  0  0  0  0
   12.0961  -18.0871   27.3769 C   0  0  0  0  0  0  0  0  0  0  0  0
   12.7790  -18.0435   28.4254 O   0  0  0  0  0  0  0  0  0  0  0  0
   12.1979  -19.2372   26.6189 O   0  0  0  0  0  0  0  0  0  0  0  0
  2  1  1  1
  3  2  1  0
  4  3  1  0
  4  5  2  0
  6  5  1  0
  7  6  1  0
  8  7  2  0
  9  8  1  0
 10  9  2  0
 10 11  1  0
 11 12  2  0
 12  7  1  0
 12  4  1  0
 13  2  1  0
 13 15  1  0
 14 13  2  0
 16 15  1  0
 16 17  1  6
 18 17  1  0
 19 20  1  0
 19 18  1  0
 21 20  1  0
 22 23  2  0
 22 16  1  0
 24 22  1  0
 25 24  1  0
 25 36  1  0
 25 26  1  1
 27 26  1  0
 28 27  2  0
 29 28  1  0
 30 29  1  0
 30 35  2  0
 31 32  2  0
 31 30  1  0
 32 33  1  0
 33 34  2  0
 35 34  1  0
 35 27  1  0
 36 38  1  0
 37 36  2  0
M  END
$$$$
