FWK.pdb
     RDKit          3D

 35 37  0  0  1  0  0  0  0  0999 V2000
   28.1413  -21.0713   -8.0820 N   0  0  0  0  0  0  0  0  0  0  0  0
   26.7952  -20.5844   -7.9861 C   0  0  1  0  0  0  0  0  0  0  0  0
   26.6984  -19.3877   -7.0591 C   0  0  0  0  0  0  0  0  0  0  0  0
   27.6278  -19.5780   -5.9231 C   0  0  0  0  0  0  0  0  0  0  0  0
   28.6937  -18.7546   -5.6902 C   0  0  0  0  0  0  0  0  0  0  0  0
   29.5388  -18.9572   -4.6272 C   0  0  0  0  0  0  0  0  0  0  0  0
   29.3028  -20.0194   -3.7752 C   0  0  0  0  0  0  0  0  0  0  0  0
   28.2200  -20.8706   -3.9966 C   0  0  0  0  0  0  0  0  0  0  0  0
   27.3927  -20.6335   -5.0772 C   0  0  0  0  0  0  0  0  0  0  0  0
   26.2842  -20.1430   -9.3227 C   0  0  0  0  0  0  0  0  0  0  0  0
   25.2387  -19.4509   -9.4082 O   0  0  0  0  0  0  0  0  0  0  0  0
   27.0123  -20.5283  -10.4786 N   0  0  0  0  0  0  0  0  0  0  0  0
   26.6299  -20.0496  -11.7952 C   0  0  1  0  0  0  0  0  0  0  0  0
   27.8509  -20.1160  -12.6898 C   0  0  0  0  0  0  0  0  0  0  0  0
   27.5876  -19.3270  -13.9045 C   0  0  0  0  0  0  0  0  0  0  0  0
   27.1954  -18.0189  -13.9712 C   0  0  0  0  0  0  0  0  0  0  0  0
   27.0684  -17.7017  -15.2671 N   0  0  0  0  0  0  0  0  0  0  0  0
   27.3647  -18.7599  -16.0539 C   0  0  0  0  0  0  0  0  0  0  0  0
   27.3850  -18.9410  -17.4214 C   0  0  0  0  0  0  0  0  0  0  0  0
   27.7347  -20.1583  -17.9874 C   0  0  0  0  0  0  0  0  0  0  0  0
   28.0595  -21.1734  -17.1114 C   0  0  0  0  0  0  0  0  0  0  0  0
   28.0445  -21.0102  -15.7500 C   0  0  0  0  0  0  0  0  0  0  0  0
   27.6938  -19.7899  -15.1910 C   0  0  0  0  0  0  0  0  0  0  0  0
   25.5754  -20.9388  -12.3776 C   0  0  0  0  0  0  0  0  0  0  0  0
   25.7376  -22.1688  -12.5022 O   0  0  0  0  0  0  0  0  0  0  0  0
   24.3679  -20.3557  -12.7936 N   0  0  0  0  0  0  0  0  0  0  0  0
   23.2266  -21.1181  -13.3160 C   0  0  1  0  0  0  0  0  0  0  0  0
   21.9944  -20.3885  -12.8611 C   0  0  0  0  0  0  0  0  0  0  0  0
   20.7192  -20.9889  -13.3372 C   0  0  0  0  0  0  0  0  0  0  0  0
   19.9101  -21.6300  -12.2359 C   0  0  0  0  0  0  0  0  0  0  0  0
   18.6402  -22.2295  -12.8263 C   0  0  0  0  0  0  0  0  0  0  0  0
   17.7866  -22.7726  -11.7862 N   0  0  0  0  0  0  0  0  0  0  0  0
   23.3713  -21.1702  -14.7718 C   0  0  0  0  0  0  0  0  0  0  0  0
   23.5151  -20.0381  -15.5588 O   0  0  0  0  0  0  0  0  0  0  0  0
   23.3667  -22.2865  -15.3483 O   0  0  0  0  0  0  0  0  0  0  0  0
  2  1  1  6
  2  3  1  0
  3  4  1  0
  4  5  2  0
  5  6  1  0
  7  6  2  0
  8  7  1  0
  9  8  2  0
  9  4  1  0
 10  2  1  0
 11 10  2  0
 12 10  1  0
 13 12  1  0
 13 14  1  6
 14 15  1  0
 15 23  1  0
 15 16  2  0
 16 17  1  0
 18 19  2  0
 18 17  1  0
 20 19  1  0
 21 20  2  0
 22 21  1  0
 22 23  2  0
 23 18  1  0
 24 26  1  0
 24 13  1  0
 25 24  2  0
 27 33  1  0
 27 26  1  0
 27 28  1  6
 28 29  1  0
 29 30  1  0
 31 30  1  0
 32 31  1  0
 33 34  1  0
 35 33  2  0
M  END
$$$$
