FWK.pdb
     RDKit          3D

 35 37  0  0  1  0  0  0  0  0999 V2000
   26.7008  -22.5339  -15.6032 N   0  0  0  0  0  0  0  0  0  0  0  0
   26.1893  -21.3453  -14.9836 C   0  0  1  0  0  0  0  0  0  0  0  0
   24.9709  -20.8140  -15.7145 C   0  0  0  0  0  0  0  0  0  0  0  0
   25.3885  -20.2852  -17.0322 C   0  0  0  0  0  0  0  0  0  0  0  0
   25.2400  -20.9881  -18.1950 C   0  0  0  0  0  0  0  0  0  0  0  0
   25.6374  -20.4703  -19.4029 C   0  0  0  0  0  0  0  0  0  0  0  0
   26.2002  -19.2087  -19.4398 C   0  0  0  0  0  0  0  0  0  0  0  0
   26.3600  -18.4759  -18.2634 C   0  0  0  0  0  0  0  0  0  0  0  0
   25.9475  -19.0317  -17.0679 C   0  0  0  0  0  0  0  0  0  0  0  0
   25.7690  -21.6108  -13.5711 C   0  0  0  0  0  0  0  0  0  0  0  0
   25.2279  -22.7021  -13.2618 O   0  0  0  0  0  0  0  0  0  0  0  0
   25.9996  -20.5993  -12.6024 N   0  0  0  0  0  0  0  0  0  0  0  0
   25.7057  -20.8293  -11.1990 C   0  0  1  0  0  0  0  0  0  0  0  0
   26.5680  -19.8902  -10.3805 C   0  0  0  0  0  0  0  0  0  0  0  0
   26.2449  -20.0758   -8.9563 C   0  0  0  0  0  0  0  0  0  0  0  0
   25.0465  -20.4636   -8.4246 C   0  0  0  0  0  0  0  0  0  0  0  0
   25.1900  -20.5027   -7.0927 N   0  0  0  0  0  0  0  0  0  0  0  0
   26.4448  -20.1527   -6.7325 C   0  0  0  0  0  0  0  0  0  0  0  0
   27.0778  -20.0401   -5.5119 C   0  0  0  0  0  0  0  0  0  0  0  0
   28.4065  -19.6525   -5.4163 C   0  0  0  0  0  0  0  0  0  0  0  0
   29.0568  -19.3869   -6.6036 C   0  0  0  0  0  0  0  0  0  0  0  0
   28.4425  -19.4939   -7.8248 C   0  0  0  0  0  0  0  0  0  0  0  0
   27.1135  -19.8822   -7.9128 C   0  0  0  0  0  0  0  0  0  0  0  0
   24.2702  -20.5104  -10.9169 C   0  0  0  0  0  0  0  0  0  0  0  0
   23.7088  -19.5011  -11.3871 O   0  0  0  0  0  0  0  0  0  0  0  0
   23.5429  -21.3851  -10.0942 N   0  0  0  0  0  0  0  0  0  0  0  0
   22.0919  -21.5891  -10.1948 C   0  0  1  0  0  0  0  0  0  0  0  0
   21.7133  -22.4685   -9.0369 C   0  0  0  0  0  0  0  0  0  0  0  0
   20.2643  -22.7989   -8.9701 C   0  0  0  0  0  0  0  0  0  0  0  0
   19.9019  -23.6724   -7.7935 C   0  0  0  0  0  0  0  0  0  0  0  0
   18.3910  -23.8625   -7.7527 C   0  0  0  0  0  0  0  0  0  0  0  0
   17.9920  -24.6263   -6.5852 N   0  0  0  0  0  0  0  0  0  0  0  0
   21.4655  -20.2666  -10.1541 C   0  0  0  0  0  0  0  0  0  0  0  0
   21.5569  -19.4195   -9.0606 O   0  0  0  0  0  0  0  0  0  0  0  0
   20.8114  -19.8678  -11.1498 O   0  0  0  0  0  0  0  0  0  0  0  0
  2  1  1  6
  2  3  1  0
  3  4  1  0
  4  5  2  0
  5  6  1  0
  7  6  2  0
  8  7  1  0
  9  8  2  0
  9  4  1  0
 10  2  1  0
 11 10  2  0
 12 10  1  0
 13 12  1  0
 13 14  1  1
 14 15  1  0
 15 23  1  0
 15 16  2  0
 16 17  1  0
 18 19  2  0
 18 17  1  0
 20 19  1  0
 21 20  2  0
 22 21  1  0
 22 23  2  0
 23 18  1  0
 24 26  1  0
 24 13  1  0
 25 24  2  0
 27 33  1  0
 27 26  1  0
 27 28  1  1
 28 29  1  0
 29 30  1  0
 31 30  1  0
 32 31  1  0
 33 34  1  0
 35 33  2  0
M  END
$$$$
