FWK.pdb
     RDKit          3D

 35 37  0  0  1  0  0  0  0  0999 V2000
   26.7357  -15.9727  -14.8429 N   0  0  0  0  0  0  0  0  0  0  0  0
   26.0464  -17.2123  -14.6273 C   0  0  1  0  0  0  0  0  0  0  0  0
   25.0075  -17.4685  -15.7024 C   0  0  0  0  0  0  0  0  0  0  0  0
   23.9418  -16.4466  -15.6000 C   0  0  0  0  0  0  0  0  0  0  0  0
   23.7729  -15.4549  -16.5254 C   0  0  0  0  0  0  0  0  0  0  0  0
   22.7742  -14.5207  -16.4027 C   0  0  0  0  0  0  0  0  0  0  0  0
   21.9219  -14.5881  -15.3171 C   0  0  0  0  0  0  0  0  0  0  0  0
   22.0784  -15.5930  -14.3621 C   0  0  0  0  0  0  0  0  0  0  0  0
   23.0954  -16.5143  -14.5211 C   0  0  0  0  0  0  0  0  0  0  0  0
   26.9960  -18.3698  -14.6539 C   0  0  0  0  0  0  0  0  0  0  0  0
   28.0631  -18.3035  -15.3146 O   0  0  0  0  0  0  0  0  0  0  0  0
   26.6548  -19.5332  -13.9157 N   0  0  0  0  0  0  0  0  0  0  0  0
   27.4169  -20.7605  -14.0630 C   0  0  1  0  0  0  0  0  0  0  0  0
   27.8656  -21.2007  -12.6845 C   0  0  0  0  0  0  0  0  0  0  0  0
   26.8392  -20.8038  -11.7066 C   0  0  0  0  0  0  0  0  0  0  0  0
   25.5231  -20.5296  -11.9553 C   0  0  0  0  0  0  0  0  0  0  0  0
   24.9505  -20.2081  -10.7871 N   0  0  0  0  0  0  0  0  0  0  0  0
   25.8487  -20.2623   -9.7787 C   0  0  0  0  0  0  0  0  0  0  0  0
   25.7582  -20.0262   -8.4225 C   0  0  0  0  0  0  0  0  0  0  0  0
   26.8587  -20.1565   -7.5878 C   0  0  0  0  0  0  0  0  0  0  0  0
   28.0432  -20.5336   -8.1861 C   0  0  0  0  0  0  0  0  0  0  0  0
   28.1503  -20.7721   -9.5322 C   0  0  0  0  0  0  0  0  0  0  0  0
   27.0455  -20.6398  -10.3608 C   0  0  0  0  0  0  0  0  0  0  0  0
   26.5490  -21.8370  -14.6375 C   0  0  0  0  0  0  0  0  0  0  0  0
   25.3114  -21.7150  -14.7288 O   0  0  0  0  0  0  0  0  0  0  0  0
   27.1615  -23.0184  -15.0849 N   0  0  0  0  0  0  0  0  0  0  0  0
   26.4327  -24.1427  -15.6863 C   0  0  1  0  0  0  0  0  0  0  0  0
   27.4671  -25.1814  -16.0159 C   0  0  0  0  0  0  0  0  0  0  0  0
   26.9207  -26.3995  -16.6726 C   0  0  0  0  0  0  0  0  0  0  0  0
   27.9606  -27.4655  -16.9193 C   0  0  0  0  0  0  0  0  0  0  0  0
   27.3587  -28.5673  -17.7822 C   0  0  0  0  0  0  0  0  0  0  0  0
   28.3783  -29.5010  -18.2230 N   0  0  0  0  0  0  0  0  0  0  0  0
   25.4446  -24.5923  -14.7042 C   0  0  0  0  0  0  0  0  0  0  0  0
   24.2413  -25.1830  -15.0577 O   0  0  0  0  0  0  0  0  0  0  0  0
   25.6852  -24.4421  -13.4804 O   0  0  0  0  0  0  0  0  0  0  0  0
  2  1  1  6
  2  3  1  0
  3  4  1  0
  4  5  2  0
  5  6  1  0
  7  6  2  0
  8  7  1  0
  9  8  2  0
  9  4  1  0
 10  2  1  0
 11 10  2  0
 12 10  1  0
 13 12  1  0
 13 14  1  1
 14 15  1  0
 15 23  1  0
 15 16  2  0
 16 17  1  0
 18 19  2  0
 18 17  1  0
 20 19  1  0
 21 20  2  0
 22 21  1  0
 22 23  2  0
 23 18  1  0
 24 26  1  0
 24 13  1  0
 25 24  2  0
 27 33  1  0
 27 26  1  0
 27 28  1  1
 28 29  1  0
 29 30  1  0
 31 30  1  0
 32 31  1  0
 33 34  1  0
 35 33  2  0
M  END
$$$$
