FWK.pdb
     RDKit          3D

 35 37  0  0  1  0  0  0  0  0999 V2000
   25.2029  -21.2583  -14.1865 N   0  0  0  0  0  0  0  0  0  0  0  0
   24.5123  -20.3830  -13.2835 C   0  0  1  0  0  0  0  0  0  0  0  0
   23.0537  -20.2216  -13.6674 C   0  0  0  0  0  0  0  0  0  0  0  0
   22.9699  -19.5346  -14.9756 C   0  0  0  0  0  0  0  0  0  0  0  0
   22.7953  -20.2030  -16.1551 C   0  0  0  0  0  0  0  0  0  0  0  0
   22.7214  -19.5372  -17.3536 C   0  0  0  0  0  0  0  0  0  0  0  0
   22.8263  -18.1593  -17.3635 C   0  0  0  0  0  0  0  0  0  0  0  0
   23.0047  -17.4596  -16.1698 C   0  0  0  0  0  0  0  0  0  0  0  0
   23.0742  -18.1657  -14.9845 C   0  0  0  0  0  0  0  0  0  0  0  0
   24.5385  -20.9194  -11.8857 C   0  0  0  0  0  0  0  0  0  0  0  0
   24.0516  -22.0488  -11.6274 O   0  0  0  0  0  0  0  0  0  0  0  0
   25.1257  -20.1181  -10.8718 N   0  0  0  0  0  0  0  0  0  0  0  0
   25.1176  -20.5464   -9.4842 C   0  0  1  0  0  0  0  0  0  0  0  0
   26.0499  -19.6379   -8.7090 C   0  0  0  0  0  0  0  0  0  0  0  0
   26.2394  -20.1981   -7.3609 C   0  0  0  0  0  0  0  0  0  0  0  0
   25.5149  -21.1968   -6.7717 C   0  0  0  0  0  0  0  0  0  0  0  0
   26.0198  -21.3919   -5.5457 N   0  0  0  0  0  0  0  0  0  0  0  0
   27.0531  -20.5530   -5.3107 C   0  0  0  0  0  0  0  0  0  0  0  0
   27.8858  -20.3643   -4.2271 C   0  0  0  0  0  0  0  0  0  0  0  0
   28.8945  -19.4119   -4.2439 C   0  0  0  0  0  0  0  0  0  0  0  0
   29.0183  -18.6673   -5.3986 C   0  0  0  0  0  0  0  0  0  0  0  0
   28.1993  -18.8421   -6.4843 C   0  0  0  0  0  0  0  0  0  0  0  0
   27.1926  -19.7965   -6.4604 C   0  0  0  0  0  0  0  0  0  0  0  0
   23.7418  -20.4023   -8.9113 C   0  0  0  0  0  0  0  0  0  0  0  0
   23.1084  -19.3295   -8.9652 O   0  0  0  0  0  0  0  0  0  0  0  0
   23.1565  -21.5199   -8.2953 N   0  0  0  0  0  0  0  0  0  0  0  0
   21.7662  -21.5616   -7.8237 C   0  0  1  0  0  0  0  0  0  0  0  0
   21.0060  -22.3679   -8.8383 C   0  0  0  0  0  0  0  0  0  0  0  0
   19.5729  -22.5798   -8.4994 C   0  0  0  0  0  0  0  0  0  0  0  0
   18.8171  -23.3581   -9.5490 C   0  0  0  0  0  0  0  0  0  0  0  0
   17.3765  -23.5521   -9.0934 C   0  0  0  0  0  0  0  0  0  0  0  0
   16.6297  -24.3498  -10.0482 N   0  0  0  0  0  0  0  0  0  0  0  0
   21.7801  -22.1638   -6.4895 C   0  0  0  0  0  0  0  0  0  0  0  0
   20.7570  -21.9897   -5.5703 O   0  0  0  0  0  0  0  0  0  0  0  0
   22.7585  -22.8740   -6.1481 O   0  0  0  0  0  0  0  0  0  0  0  0
  2  1  1  6
  2  3  1  0
  3  4  1  0
  4  5  2  0
  5  6  1  0
  7  6  2  0
  8  7  1  0
  9  8  2  0
  9  4  1  0
 10  2  1  0
 11 10  2  0
 12 10  1  0
 13 12  1  0
 13 14  1  1
 14 15  1  0
 15 23  1  0
 15 16  2  0
 16 17  1  0
 18 19  2  0
 18 17  1  0
 20 19  1  0
 21 20  2  0
 22 21  1  0
 22 23  2  0
 23 18  1  0
 24 26  1  0
 24 13  1  0
 25 24  2  0
 27 33  1  0
 27 26  1  0
 27 28  1  6
 28 29  1  0
 29 30  1  0
 31 30  1  0
 32 31  1  0
 33 34  1  0
 35 33  2  0
M  END
$$$$
