FWK.pdb
     RDKit          3D

 35 37  0  0  1  0  0  0  0  0999 V2000
   32.2519   -7.8376  -17.2694 N   0  0  0  0  0  0  0  0  0  0  0  0
   31.2981   -7.9363  -18.3366 C   0  0  1  0  0  0  0  0  0  0  0  0
   31.6093   -9.1001  -19.2584 C   0  0  0  0  0  0  0  0  0  0  0  0
   32.8295   -8.7894  -20.0363 C   0  0  0  0  0  0  0  0  0  0  0  0
   34.0340   -9.3903  -19.7992 C   0  0  0  0  0  0  0  0  0  0  0  0
   35.1489   -9.0807  -20.5384 C   0  0  0  0  0  0  0  0  0  0  0  0
   35.0467   -8.1392  -21.5447 C   0  0  0  0  0  0  0  0  0  0  0  0
   33.8258   -7.5151  -21.8018 C   0  0  0  0  0  0  0  0  0  0  0  0
   32.7270   -7.8538  -21.0360 C   0  0  0  0  0  0  0  0  0  0  0  0
   29.9154   -8.1578  -17.8062 C   0  0  0  0  0  0  0  0  0  0  0  0
   29.7207   -8.9388  -16.8410 O   0  0  0  0  0  0  0  0  0  0  0  0
   28.8421   -7.4636  -18.4234 N   0  0  0  0  0  0  0  0  0  0  0  0
   27.4776   -7.6324  -17.9562 C   0  0  1  0  0  0  0  0  0  0  0  0
   26.6497   -6.4896  -18.5076 C   0  0  0  0  0  0  0  0  0  0  0  0
   25.2888   -6.5848  -17.9544 C   0  0  0  0  0  0  0  0  0  0  0  0
   24.9401   -6.8385  -16.6570 C   0  0  0  0  0  0  0  0  0  0  0  0
   23.6015   -6.8397  -16.5920 N   0  0  0  0  0  0  0  0  0  0  0  0
   23.0597   -6.5949  -17.8057 C   0  0  0  0  0  0  0  0  0  0  0  0
   21.7588   -6.4947  -18.2539 C   0  0  0  0  0  0  0  0  0  0  0  0
   21.4677   -6.2286  -19.5840 C   0  0  0  0  0  0  0  0  0  0  0  0
   22.5459   -6.0706  -20.4300 C   0  0  0  0  0  0  0  0  0  0  0  0
   23.8447   -6.1670  -20.0009 C   0  0  0  0  0  0  0  0  0  0  0  0
   24.1283   -6.4333  -18.6692 C   0  0  0  0  0  0  0  0  0  0  0  0
   26.9110   -8.9152  -18.4812 C   0  0  0  0  0  0  0  0  0  0  0  0
   27.0601   -9.2717  -19.6668 O   0  0  0  0  0  0  0  0  0  0  0  0
   26.1898   -9.7351  -17.5988 N   0  0  0  0  0  0  0  0  0  0  0  0
   25.6488  -11.0518  -17.9603 C   0  0  1  0  0  0  0  0  0  0  0  0
   25.9419  -11.9565  -16.7970 C   0  0  0  0  0  0  0  0  0  0  0  0
   25.4281  -13.3434  -16.9582 C   0  0  0  0  0  0  0  0  0  0  0  0
   25.5798  -14.1874  -15.7160 C   0  0  0  0  0  0  0  0  0  0  0  0
   25.1595  -15.6188  -16.0241 C   0  0  0  0  0  0  0  0  0  0  0  0
   25.1732  -16.4366  -14.8256 N   0  0  0  0  0  0  0  0  0  0  0  0
   24.2186  -10.8757  -18.2183 C   0  0  0  0  0  0  0  0  0  0  0  0
   23.5397  -11.5599  -19.2146 O   0  0  0  0  0  0  0  0  0  0  0  0
   23.5633  -10.0700  -17.5113 O   0  0  0  0  0  0  0  0  0  0  0  0
  2  1  1  1
  2  3  1  0
  3  4  1  0
  4  5  2  0
  5  6  1  0
  7  6  2  0
  8  7  1  0
  9  8  2  0
  9  4  1  0
 10  2  1  0
 11 10  2  0
 12 10  1  0
 13 12  1  0
 13 14  1  6
 14 15  1  0
 15 23  1  0
 15 16  2  0
 16 17  1  0
 18 19  2  0
 18 17  1  0
 20 19  1  0
 21 20  2  0
 22 21  1  0
 22 23  2  0
 23 18  1  0
 24 26  1  0
 24 13  1  0
 25 24  2  0
 27 33  1  0
 27 26  1  0
 27 28  1  1
 28 29  1  0
 29 30  1  0
 31 30  1  0
 32 31  1  0
 33 34  1  0
 35 33  2  0
M  END
$$$$
