FWK.pdb
     RDKit          3D

 35 37  0  0  1  0  0  0  0  0999 V2000
   28.5229  -21.1531  -14.7856 N   0  0  0  0  0  0  0  0  0  0  0  0
   27.8809  -20.0807  -14.0812 C   0  0  1  0  0  0  0  0  0  0  0  0
   26.9543  -19.2924  -14.9873 C   0  0  0  0  0  0  0  0  0  0  0  0
   27.7649  -18.4461  -15.8913 C   0  0  0  0  0  0  0  0  0  0  0  0
   28.3888  -17.3027  -15.4767 C   0  0  0  0  0  0  0  0  0  0  0  0
   29.1343  -16.5382  -16.3397 C   0  0  0  0  0  0  0  0  0  0  0  0
   29.2544  -16.9372  -17.6573 C   0  0  0  0  0  0  0  0  0  0  0  0
   28.6249  -18.1012  -18.0991 C   0  0  0  0  0  0  0  0  0  0  0  0
   27.8836  -18.8433  -17.2001 C   0  0  0  0  0  0  0  0  0  0  0  0
   27.0474  -20.6000  -12.9507 C   0  0  0  0  0  0  0  0  0  0  0  0
   26.4330  -21.6907  -13.0608 O   0  0  0  0  0  0  0  0  0  0  0  0
   26.9747  -19.8273  -11.7622 N   0  0  0  0  0  0  0  0  0  0  0  0
   26.1798  -20.2714  -10.6310 C   0  0  1  0  0  0  0  0  0  0  0  0
   26.4997  -19.3735   -9.4533 C   0  0  0  0  0  0  0  0  0  0  0  0
   26.1525  -20.0844   -8.2118 C   0  0  0  0  0  0  0  0  0  0  0  0
   25.0774  -20.9023   -8.0011 C   0  0  0  0  0  0  0  0  0  0  0  0
   25.1428  -21.3361   -6.7347 N   0  0  0  0  0  0  0  0  0  0  0  0
   26.2268  -20.8289   -6.1067 C   0  0  0  0  0  0  0  0  0  0  0  0
   26.7267  -20.9690   -4.8286 C   0  0  0  0  0  0  0  0  0  0  0  0
   27.8876  -20.3235   -4.4282 C   0  0  0  0  0  0  0  0  0  0  0  0
   28.5117  -19.5371   -5.3745 C   0  0  0  0  0  0  0  0  0  0  0  0
   28.0284  -19.3871   -6.6489 C   0  0  0  0  0  0  0  0  0  0  0  0
   26.8668  -20.0358   -7.0422 C   0  0  0  0  0  0  0  0  0  0  0  0
   24.7219  -20.1313  -10.9425 C   0  0  0  0  0  0  0  0  0  0  0  0
   24.1882  -19.0218  -11.1408 O   0  0  0  0  0  0  0  0  0  0  0  0
   23.9406  -21.2957  -11.0108 N   0  0  0  0  0  0  0  0  0  0  0  0
   22.5252  -21.3114  -11.4021 C   0  0  1  0  0  0  0  0  0  0  0  0
   22.1474  -22.7589  -11.5420 C   0  0  0  0  0  0  0  0  0  0  0  0
   20.7091  -22.9872  -11.8465 C   0  0  0  0  0  0  0  0  0  0  0  0
   20.3183  -24.4452  -11.8377 C   0  0  0  0  0  0  0  0  0  0  0  0
   18.8085  -24.5639  -12.0016 C   0  0  0  0  0  0  0  0  0  0  0  0
   18.3822  -25.9489  -11.9261 N   0  0  0  0  0  0  0  0  0  0  0  0
   21.7793  -20.6108  -10.3553 C   0  0  0  0  0  0  0  0  0  0  0  0
   21.8734  -20.9379   -9.0114 O   0  0  0  0  0  0  0  0  0  0  0  0
   21.0144  -19.6670  -10.6753 O   0  0  0  0  0  0  0  0  0  0  0  0
  2  1  1  6
  2  3  1  0
  3  4  1  0
  4  5  2  0
  5  6  1  0
  7  6  2  0
  8  7  1  0
  9  8  2  0
  9  4  1  0
 10  2  1  0
 11 10  2  0
 12 10  1  0
 13 12  1  0
 13 14  1  1
 14 15  1  0
 15 23  1  0
 15 16  2  0
 16 17  1  0
 18 19  2  0
 18 17  1  0
 20 19  1  0
 21 20  2  0
 22 21  1  0
 22 23  2  0
 23 18  1  0
 24 26  1  0
 24 13  1  0
 25 24  2  0
 27 33  1  0
 27 26  1  0
 27 28  1  1
 28 29  1  0
 29 30  1  0
 31 30  1  0
 32 31  1  0
 33 34  1  0
 35 33  2  0
M  END
$$$$
