FWK.pdb
     RDKit          3D

 35 37  0  0  1  0  0  0  0  0999 V2000
   26.2630  -22.2119  -15.1636 N   0  0  0  0  0  0  0  0  0  0  0  0
   25.4520  -21.2554  -14.4667 C   0  0  1  0  0  0  0  0  0  0  0  0
   24.0941  -21.0907  -15.1225 C   0  0  0  0  0  0  0  0  0  0  0  0
   24.2600  -20.3768  -16.4082 C   0  0  0  0  0  0  0  0  0  0  0  0
   24.3445  -21.0223  -17.6102 C   0  0  0  0  0  0  0  0  0  0  0  0
   24.4984  -20.3318  -18.7869 C   0  0  0  0  0  0  0  0  0  0  0  0
   24.5691  -18.9521  -18.7510 C   0  0  0  0  0  0  0  0  0  0  0  0
   24.4848  -18.2755  -17.5339 C   0  0  0  0  0  0  0  0  0  0  0  0
   24.3302  -19.0061  -16.3718 C   0  0  0  0  0  0  0  0  0  0  0  0
   25.2046  -21.6847  -13.0537 C   0  0  0  0  0  0  0  0  0  0  0  0
   24.9509  -22.8866  -12.7881 O   0  0  0  0  0  0  0  0  0  0  0  0
   25.2654  -20.6993  -12.0339 N   0  0  0  0  0  0  0  0  0  0  0  0
   24.9730  -21.0366  -10.6520 C   0  0  1  0  0  0  0  0  0  0  0  0
   25.5990  -19.9762   -9.7692 C   0  0  0  0  0  0  0  0  0  0  0  0
   26.9752  -20.3862   -9.4451 C   0  0  0  0  0  0  0  0  0  0  0  0
   27.8158  -21.1405  -10.2156 C   0  0  0  0  0  0  0  0  0  0  0  0
   28.9664  -21.2771   -9.5421 N   0  0  0  0  0  0  0  0  0  0  0  0
   28.9084  -20.6363   -8.3535 C   0  0  0  0  0  0  0  0  0  0  0  0
   29.8106  -20.4818   -7.3214 C   0  0  0  0  0  0  0  0  0  0  0  0
   29.4931  -19.7566   -6.1820 C   0  0  0  0  0  0  0  0  0  0  0  0
   28.2310  -19.2012   -6.1383 C   0  0  0  0  0  0  0  0  0  0  0  0
   27.3225  -19.3452   -7.1552 C   0  0  0  0  0  0  0  0  0  0  0  0
   27.6470  -20.0717   -8.2916 C   0  0  0  0  0  0  0  0  0  0  0  0
   23.4935  -21.0213  -10.4227 C   0  0  0  0  0  0  0  0  0  0  0  0
   22.7072  -20.4375  -11.1947 O   0  0  0  0  0  0  0  0  0  0  0  0
   22.9871  -21.6904   -9.2972 N   0  0  0  0  0  0  0  0  0  0  0  0
   21.5548  -21.8534   -9.0160 C   0  0  1  0  0  0  0  0  0  0  0  0
   21.4678  -22.6078   -7.7195 C   0  0  0  0  0  0  0  0  0  0  0  0
   20.0780  -22.8552   -7.2498 C   0  0  0  0  0  0  0  0  0  0  0  0
   19.6859  -24.3127   -7.2780 C   0  0  0  0  0  0  0  0  0  0  0  0
   18.2437  -24.4563   -6.8089 C   0  0  0  0  0  0  0  0  0  0  0  0
   17.7859  -25.8270   -6.9402 N   0  0  0  0  0  0  0  0  0  0  0  0
   20.9712  -20.5124   -8.9526 C   0  0  0  0  0  0  0  0  0  0  0  0
   19.6831  -20.2270   -9.3780 O   0  0  0  0  0  0  0  0  0  0  0  0
   21.6586  -19.5663   -8.4933 O   0  0  0  0  0  0  0  0  0  0  0  0
  2  1  1  6
  2  3  1  0
  3  4  1  0
  4  5  2  0
  5  6  1  0
  7  6  2  0
  8  7  1  0
  9  8  2  0
  9  4  1  0
 10  2  1  0
 11 10  2  0
 12 10  1  0
 13 12  1  0
 13 14  1  1
 14 15  1  0
 15 23  1  0
 15 16  2  0
 16 17  1  0
 18 19  2  0
 18 17  1  0
 20 19  1  0
 21 20  2  0
 22 21  1  0
 22 23  2  0
 23 18  1  0
 24 26  1  0
 24 13  1  0
 25 24  2  0
 27 33  1  0
 27 26  1  0
 27 28  1  1
 28 29  1  0
 29 30  1  0
 31 30  1  0
 32 31  1  0
 33 34  1  0
 35 33  2  0
M  END
$$$$
