FWK.pdb
     RDKit          3D

 35 37  0  0  1  0  0  0  0  0999 V2000
   25.3372  -21.0374  -13.9585 N   0  0  0  0  0  0  0  0  0  0  0  0
   24.5615  -20.2871  -13.0132 C   0  0  1  0  0  0  0  0  0  0  0  0
   23.0850  -20.3078  -13.3600 C   0  0  0  0  0  0  0  0  0  0  0  0
   22.8713  -19.5531  -14.6151 C   0  0  0  0  0  0  0  0  0  0  0  0
   23.1061  -18.2109  -14.7234 C   0  0  0  0  0  0  0  0  0  0  0  0
   22.8982  -17.5383  -15.9022 C   0  0  0  0  0  0  0  0  0  0  0  0
   22.4409  -18.2382  -17.0025 C   0  0  0  0  0  0  0  0  0  0  0  0
   22.1956  -19.6085  -16.9115 C   0  0  0  0  0  0  0  0  0  0  0  0
   22.4170  -20.2492  -15.7079 C   0  0  0  0  0  0  0  0  0  0  0  0
   24.6935  -20.8556  -11.6342 C   0  0  0  0  0  0  0  0  0  0  0  0
   24.4157  -22.0611  -11.4127 O   0  0  0  0  0  0  0  0  0  0  0  0
   25.1383  -19.9967  -10.5953 N   0  0  0  0  0  0  0  0  0  0  0  0
   25.2559  -20.4762   -9.2297 C   0  0  1  0  0  0  0  0  0  0  0  0
   26.1970  -19.5492   -8.4878 C   0  0  0  0  0  0  0  0  0  0  0  0
   26.5093  -20.1452   -7.1784 C   0  0  0  0  0  0  0  0  0  0  0  0
   25.9578  -21.2694   -6.6296 C   0  0  0  0  0  0  0  0  0  0  0  0
   26.5246  -21.4517   -5.4290 N   0  0  0  0  0  0  0  0  0  0  0  0
   27.4311  -20.4828   -5.1716 C   0  0  0  0  0  0  0  0  0  0  0  0
   28.2614  -20.2301   -4.0992 C   0  0  0  0  0  0  0  0  0  0  0  0
   29.1189  -19.1396   -4.0861 C   0  0  0  0  0  0  0  0  0  0  0  0
   29.0956  -18.3254   -5.1996 C   0  0  0  0  0  0  0  0  0  0  0  0
   28.2767  -18.5622   -6.2736 C   0  0  0  0  0  0  0  0  0  0  0  0
   27.4218  -19.6548   -6.2797 C   0  0  0  0  0  0  0  0  0  0  0  0
   23.9214  -20.4267   -8.5524 C   0  0  0  0  0  0  0  0  0  0  0  0
   23.2106  -19.4022   -8.5584 O   0  0  0  0  0  0  0  0  0  0  0  0
   23.4667  -21.5791   -7.8919 N   0  0  0  0  0  0  0  0  0  0  0  0
   22.1582  -21.6839   -7.2332 C   0  0  1  0  0  0  0  0  0  0  0  0
   21.4559  -22.8422   -7.8834 C   0  0  0  0  0  0  0  0  0  0  0  0
   19.9712  -22.7497   -7.8541 C   0  0  0  0  0  0  0  0  0  0  0  0
   19.2833  -23.9617   -8.4340 C   0  0  0  0  0  0  0  0  0  0  0  0
   17.7742  -23.7617   -8.3749 C   0  0  0  0  0  0  0  0  0  0  0  0
   17.3073  -23.7127   -7.0019 N   0  0  0  0  0  0  0  0  0  0  0  0
   22.4079  -21.8790   -5.8040 C   0  0  0  0  0  0  0  0  0  0  0  0
   21.6828  -21.2335   -4.8143 O   0  0  0  0  0  0  0  0  0  0  0  0
   23.3188  -22.6653   -5.4431 O   0  0  0  0  0  0  0  0  0  0  0  0
  2  1  1  6
  2  3  1  0
  3  4  1  0
  4  5  2  0
  5  6  1  0
  7  6  2  0
  8  7  1  0
  9  8  2  0
  9  4  1  0
 10  2  1  0
 11 10  2  0
 12 10  1  0
 13 12  1  0
 13 14  1  1
 14 15  1  0
 15 23  1  0
 15 16  2  0
 16 17  1  0
 18 19  2  0
 18 17  1  0
 20 19  1  0
 21 20  2  0
 22 21  1  0
 22 23  2  0
 23 18  1  0
 24 26  1  0
 24 13  1  0
 25 24  2  0
 27 33  1  0
 27 26  1  0
 27 28  1  6
 28 29  1  0
 29 30  1  0
 31 30  1  0
 32 31  1  0
 33 34  1  0
 35 33  2  0
M  END
$$$$
