FWK.pdb
     RDKit          3D

 35 37  0  0  1  0  0  0  0  0999 V2000
   26.9209  -18.9773  -18.2908 N   0  0  0  0  0  0  0  0  0  0  0  0
   25.7720  -18.8479  -17.4413 C   0  0  1  0  0  0  0  0  0  0  0  0
   24.4990  -19.2596  -18.1561 C   0  0  0  0  0  0  0  0  0  0  0  0
   24.2920  -18.3756  -19.3250 C   0  0  0  0  0  0  0  0  0  0  0  0
   24.2058  -17.0154  -19.2210 C   0  0  0  0  0  0  0  0  0  0  0  0
   24.0133  -16.2216  -20.3247 C   0  0  0  0  0  0  0  0  0  0  0  0
   23.9045  -16.8154  -21.5677 C   0  0  0  0  0  0  0  0  0  0  0  0
   23.9899  -18.2022  -21.6939 C   0  0  0  0  0  0  0  0  0  0  0  0
   24.1840  -18.9664  -20.5597 C   0  0  0  0  0  0  0  0  0  0  0  0
   25.8943  -19.7211  -16.2310 C   0  0  0  0  0  0  0  0  0  0  0  0
   25.3793  -20.8674  -16.2177 O   0  0  0  0  0  0  0  0  0  0  0  0
   26.6041  -19.2165  -15.1100 N   0  0  0  0  0  0  0  0  0  0  0  0
   26.6471  -19.9547  -13.8602 C   0  0  1  0  0  0  0  0  0  0  0  0
   27.6664  -19.2888  -12.9586 C   0  0  0  0  0  0  0  0  0  0  0  0
   27.9272  -20.1723  -11.8103 C   0  0  0  0  0  0  0  0  0  0  0  0
   28.5885  -21.3689  -11.8218 C   0  0  0  0  0  0  0  0  0  0  0  0
   28.5965  -21.8373  -10.5662 N   0  0  0  0  0  0  0  0  0  0  0  0
   27.9613  -20.9864   -9.7300 C   0  0  0  0  0  0  0  0  0  0  0  0
   27.7060  -21.0123   -8.3745 C   0  0  0  0  0  0  0  0  0  0  0  0
   27.0159  -19.9859   -7.7460 C   0  0  0  0  0  0  0  0  0  0  0  0
   26.6009  -18.9426   -8.5476 C   0  0  0  0  0  0  0  0  0  0  0  0
   26.8464  -18.9013   -9.8960 C   0  0  0  0  0  0  0  0  0  0  0  0
   27.5371  -19.9313  -10.5178 C   0  0  0  0  0  0  0  0  0  0  0  0
   25.3134  -19.8933  -13.1825 C   0  0  0  0  0  0  0  0  0  0  0  0
   24.7318  -18.8137  -12.9562 O   0  0  0  0  0  0  0  0  0  0  0  0
   24.7078  -21.0988  -12.7936 N   0  0  0  0  0  0  0  0  0  0  0  0
   23.4090  -21.1815  -12.1130 C   0  0  1  0  0  0  0  0  0  0  0  0
   22.8276  -22.5160  -12.4853 C   0  0  0  0  0  0  0  0  0  0  0  0
   21.4907  -22.7862  -11.8909 C   0  0  0  0  0  0  0  0  0  0  0  0
   20.9403  -24.1462  -12.2459 C   0  0  0  0  0  0  0  0  0  0  0  0
   19.5823  -24.3302  -11.5806 C   0  0  0  0  0  0  0  0  0  0  0  0
   19.0096  -25.6218  -11.9110 N   0  0  0  0  0  0  0  0  0  0  0  0
   23.6622  -21.0335  -10.6788 C   0  0  0  0  0  0  0  0  0  0  0  0
   22.8608  -20.2702   -9.8439 O   0  0  0  0  0  0  0  0  0  0  0  0
   24.6483  -21.6200  -10.1671 O   0  0  0  0  0  0  0  0  0  0  0  0
  2  1  1  6
  2  3  1  0
  3  4  1  0
  4  5  2  0
  5  6  1  0
  7  6  2  0
  8  7  1  0
  9  8  2  0
  9  4  1  0
 10  2  1  0
 11 10  2  0
 12 10  1  0
 13 12  1  0
 13 14  1  1
 14 15  1  0
 15 23  1  0
 15 16  2  0
 16 17  1  0
 18 19  2  0
 18 17  1  0
 20 19  1  0
 21 20  2  0
 22 21  1  0
 22 23  2  0
 23 18  1  0
 24 26  1  0
 24 13  1  0
 25 24  2  0
 27 33  1  0
 27 26  1  0
 27 28  1  1
 28 29  1  0
 29 30  1  0
 31 30  1  0
 32 31  1  0
 33 34  1  0
 35 33  2  0
M  END
$$$$
