FWK.pdb
     RDKit          3D

 35 37  0  0  1  0  0  0  0  0999 V2000
   28.8033  -21.3242  -15.3389 N   0  0  0  0  0  0  0  0  0  0  0  0
   27.8603  -20.3847  -14.8036 C   0  0  1  0  0  0  0  0  0  0  0  0
   26.9974  -19.7766  -15.8928 C   0  0  0  0  0  0  0  0  0  0  0  0
   27.7979  -18.7890  -16.6506 C   0  0  0  0  0  0  0  0  0  0  0  0
   28.1085  -18.9429  -17.9728 C   0  0  0  0  0  0  0  0  0  0  0  0
   28.8535  -18.0086  -18.6489 C   0  0  0  0  0  0  0  0  0  0  0  0
   29.2978  -16.8878  -17.9735 C   0  0  0  0  0  0  0  0  0  0  0  0
   28.9909  -16.7131  -16.6239 C   0  0  0  0  0  0  0  0  0  0  0  0
   28.2389  -17.6757  -15.9788 C   0  0  0  0  0  0  0  0  0  0  0  0
   26.9332  -21.0452  -13.8306 C   0  0  0  0  0  0  0  0  0  0  0  0
   26.4765  -22.1925  -14.0641 O   0  0  0  0  0  0  0  0  0  0  0  0
   26.5905  -20.3397  -12.6476 N   0  0  0  0  0  0  0  0  0  0  0  0
   25.6785  -20.9139  -11.6742 C   0  0  1  0  0  0  0  0  0  0  0  0
   25.8728  -20.1814  -10.3623 C   0  0  0  0  0  0  0  0  0  0  0  0
   27.1744  -20.5700   -9.7948 C   0  0  0  0  0  0  0  0  0  0  0  0
   28.1545  -21.3046  -10.4023 C   0  0  0  0  0  0  0  0  0  0  0  0
   29.1658  -21.4259   -9.5313 N   0  0  0  0  0  0  0  0  0  0  0  0
   28.8812  -20.7944   -8.3708 C   0  0  0  0  0  0  0  0  0  0  0  0
   29.5779  -20.6313   -7.1913 C   0  0  0  0  0  0  0  0  0  0  0  0
   29.0456  -19.9194   -6.1262 C   0  0  0  0  0  0  0  0  0  0  0  0
   27.7867  -19.3860   -6.3106 C   0  0  0  0  0  0  0  0  0  0  0  0
   27.0809  -19.5387   -7.4762 C   0  0  0  0  0  0  0  0  0  0  0  0
   27.6196  -20.2519   -8.5373 C   0  0  0  0  0  0  0  0  0  0  0  0
   24.2625  -20.7114  -12.1168 C   0  0  0  0  0  0  0  0  0  0  0  0
   23.7793  -19.5767  -12.3007 O   0  0  0  0  0  0  0  0  0  0  0  0
   23.4623  -21.8454  -12.3286 N   0  0  0  0  0  0  0  0  0  0  0  0
   22.1387  -21.8077  -12.9637 C   0  0  1  0  0  0  0  0  0  0  0  0
   21.7904  -23.2333  -13.2865 C   0  0  0  0  0  0  0  0  0  0  0  0
   22.6027  -23.8264  -14.3828 C   0  0  0  0  0  0  0  0  0  0  0  0
   22.1877  -25.2321  -14.7437 C   0  0  0  0  0  0  0  0  0  0  0  0
   23.1582  -25.7960  -15.7736 C   0  0  0  0  0  0  0  0  0  0  0  0
   22.8433  -27.1775  -16.0864 N   0  0  0  0  0  0  0  0  0  0  0  0
   21.2196  -21.1825  -12.0111 C   0  0  0  0  0  0  0  0  0  0  0  0
   20.0317  -20.5777  -12.3916 O   0  0  0  0  0  0  0  0  0  0  0  0
   21.5082  -21.1870  -10.7884 O   0  0  0  0  0  0  0  0  0  0  0  0
  2  1  1  6
  2  3  1  0
  3  4  1  0
  4  5  2  0
  5  6  1  0
  7  6  2  0
  8  7  1  0
  9  8  2  0
  9  4  1  0
 10  2  1  0
 11 10  2  0
 12 10  1  0
 13 12  1  0
 13 14  1  1
 14 15  1  0
 15 23  1  0
 15 16  2  0
 16 17  1  0
 18 19  2  0
 18 17  1  0
 20 19  1  0
 21 20  2  0
 22 21  1  0
 22 23  2  0
 23 18  1  0
 24 26  1  0
 24 13  1  0
 25 24  2  0
 27 33  1  0
 27 26  1  0
 27 28  1  1
 28 29  1  0
 29 30  1  0
 31 30  1  0
 32 31  1  0
 33 34  1  0
 35 33  2  0
M  END
$$$$
