FWK.pdb
     RDKit          3D

 35 37  0  0  1  0  0  0  0  0999 V2000
   27.3242  -21.6739  -13.2558 N   0  0  0  0  0  0  0  0  0  0  0  0
   26.4925  -21.3646  -12.1284 C   0  0  1  0  0  0  0  0  0  0  0  0
   27.0998  -20.2722  -11.2688 C   0  0  0  0  0  0  0  0  0  0  0  0
   28.3841  -20.7518  -10.7112 C   0  0  0  0  0  0  0  0  0  0  0  0
   29.5340  -20.8188  -11.4471 C   0  0  0  0  0  0  0  0  0  0  0  0
   30.7108  -21.2686  -10.9012 C   0  0  0  0  0  0  0  0  0  0  0  0
   30.7290  -21.6618   -9.5766 C   0  0  0  0  0  0  0  0  0  0  0  0
   29.5654  -21.6007   -8.8094 C   0  0  0  0  0  0  0  0  0  0  0  0
   28.4013  -21.1423   -9.3951 C   0  0  0  0  0  0  0  0  0  0  0  0
   25.1470  -20.8761  -12.5680 C   0  0  0  0  0  0  0  0  0  0  0  0
   24.8968  -19.6451  -12.6048 O   0  0  0  0  0  0  0  0  0  0  0  0
   24.1728  -21.8398  -12.9382 N   0  0  0  0  0  0  0  0  0  0  0  0
   22.8266  -21.4370  -13.3048 C   0  0  1  0  0  0  0  0  0  0  0  0
   22.7259  -21.4634  -14.8163 C   0  0  0  0  0  0  0  0  0  0  0  0
   23.2948  -20.2140  -15.3477 C   0  0  0  0  0  0  0  0  0  0  0  0
   24.6188  -19.8999  -15.4806 C   0  0  0  0  0  0  0  0  0  0  0  0
   24.6904  -18.6674  -16.0022 N   0  0  0  0  0  0  0  0  0  0  0  0
   23.4554  -18.1619  -16.2162 C   0  0  0  0  0  0  0  0  0  0  0  0
   23.0037  -16.9615  -16.7245 C   0  0  0  0  0  0  0  0  0  0  0  0
   21.6489  -16.6864  -16.8413 C   0  0  0  0  0  0  0  0  0  0  0  0
   20.7822  -17.6749  -16.4229 C   0  0  0  0  0  0  0  0  0  0  0  0
   21.2145  -18.8732  -15.9155 C   0  0  0  0  0  0  0  0  0  0  0  0
   22.5709  -19.1414  -15.8017 C   0  0  0  0  0  0  0  0  0  0  0  0
   21.8320  -22.4110  -12.7534 C   0  0  0  0  0  0  0  0  0  0  0  0
   21.9920  -23.6447  -12.8391 O   0  0  0  0  0  0  0  0  0  0  0  0
   20.6850  -21.9055  -12.1210 N   0  0  0  0  0  0  0  0  0  0  0  0
   19.6727  -22.7445  -11.4666 C   0  0  1  0  0  0  0  0  0  0  0  0
   19.1838  -21.9602  -10.2819 C   0  0  0  0  0  0  0  0  0  0  0  0
   18.1149  -22.6385   -9.5004 C   0  0  0  0  0  0  0  0  0  0  0  0
   18.6461  -23.6208   -8.4847 C   0  0  0  0  0  0  0  0  0  0  0  0
   17.4794  -24.2574   -7.7403 C   0  0  0  0  0  0  0  0  0  0  0  0
   17.9430  -25.2732   -6.8137 N   0  0  0  0  0  0  0  0  0  0  0  0
   18.6305  -23.0172  -12.4579 C   0  0  0  0  0  0  0  0  0  0  0  0
   18.0927  -22.0382  -13.2789 O   0  0  0  0  0  0  0  0  0  0  0  0
   18.1939  -24.1887  -12.5811 O   0  0  0  0  0  0  0  0  0  0  0  0
  2  1  1  6
  2  3  1  0
  3  4  1  0
  4  5  2  0
  5  6  1  0
  7  6  2  0
  8  7  1  0
  9  8  2  0
  9  4  1  0
 10  2  1  0
 11 10  2  0
 12 10  1  0
 13 12  1  0
 13 14  1  6
 14 15  1  0
 15 23  1  0
 15 16  2  0
 16 17  1  0
 18 19  2  0
 18 17  1  0
 20 19  1  0
 21 20  2  0
 22 21  1  0
 22 23  2  0
 23 18  1  0
 24 26  1  0
 24 13  1  0
 25 24  2  0
 27 33  1  0
 27 26  1  0
 27 28  1  1
 28 29  1  0
 29 30  1  0
 31 30  1  0
 32 31  1  0
 33 34  1  0
 35 33  2  0
M  END
$$$$
