GKH.pdb
     RDKit          3D

 24 24  0  0  1  0  0  0  0  0999 V2000
   21.5057  -14.3997  -19.7713 N   0  0  0  0  0  0  0  0  0  0  0  0
   21.0787  -13.0492  -19.9948 C   0  0  0  0  0  0  0  0  0  0  0  0
   21.7316  -12.0843  -19.0830 C   0  0  0  0  0  0  0  0  0  0  0  0
   22.2049  -12.4316  -17.9479 O   0  0  0  0  0  0  0  0  0  0  0  0
   21.8275  -10.7373  -19.4950 N   0  0  0  0  0  0  0  0  0  0  0  0
   22.3986   -9.6765  -18.6270 C   0  0  1  0  0  0  0  0  0  0  0  0
   22.8568   -8.6349  -19.5879 C   0  0  0  0  0  0  0  0  0  0  0  0
   23.5086   -7.4274  -19.0362 C   0  0  0  0  0  0  0  0  0  0  0  0
   24.9994   -7.6373  -18.7774 C   0  0  0  0  0  0  0  0  0  0  0  0
   25.5464   -6.3312  -18.2862 C   0  0  0  0  0  0  0  0  0  0  0  0
   26.9497   -6.3744  -17.9722 N   0  0  0  0  0  0  0  0  0  0  0  0
   21.2823   -9.1850  -17.8096 C   0  0  0  0  0  0  0  0  0  0  0  0
   20.1703   -8.9618  -18.3870 O   0  0  0  0  0  0  0  0  0  0  0  0
   21.2946   -8.9279  -16.4177 N   0  0  0  0  0  0  0  0  0  0  0  0
   20.0735   -8.4097  -15.7461 C   0  0  1  0  0  0  0  0  0  0  0  0
   19.6747   -9.3278  -14.6472 C   0  0  0  0  0  0  0  0  0  0  0  0
   18.8319  -10.4450  -15.1215 C   0  0  0  0  0  0  0  0  0  0  0  0
   18.4354  -10.8394  -16.3763 C   0  0  0  0  0  0  0  0  0  0  0  0
   17.7139  -11.9979  -16.3231 N   0  0  0  0  0  0  0  0  0  0  0  0
   17.6663  -12.3212  -15.0293 C   0  0  0  0  0  0  0  0  0  0  0  0
   18.3203  -11.4207  -14.2888 N   0  0  0  0  0  0  0  0  0  0  0  0
   20.4318   -7.0437  -15.2184 C   0  0  0  0  0  0  0  0  0  0  0  0
   19.4149   -6.0896  -14.9730 O   0  0  0  0  0  0  0  0  0  0  0  0
   21.5752   -6.6365  -14.9604 O   0  0  0  0  0  0  0  0  0  0  0  0
  1  2  1  0
  3  2  1  0
  3  4  2  0
  5  3  1  0
  6 12  1  0
  6  5  1  0
  6  7  1  6
  8  7  1  0
  9  8  1  0
 10  9  1  0
 11 10  1  0
 12 14  1  0
 13 12  2  0
 14 15  1  0
 15 16  1  1
 17 16  1  0
 17 18  2  0
 19 18  1  0
 20 19  1  0
 21 20  2  0
 21 17  1  0
 22 15  1  0
 23 22  1  0
 24 22  2  0
M  END
$$$$
