GKH.pdb
     RDKit          3D

 24 24  0  0  1  0  0  0  0  0999 V2000
   26.4374  -16.6053  -18.4391 N   0  0  0  0  0  0  0  0  0  0  0  0
   26.5265  -17.2311  -17.1519 C   0  0  0  0  0  0  0  0  0  0  0  0
   25.4853  -18.2612  -16.9433 C   0  0  0  0  0  0  0  0  0  0  0  0
   24.5267  -18.4391  -17.7694 O   0  0  0  0  0  0  0  0  0  0  0  0
   25.5671  -19.0674  -15.7871 N   0  0  0  0  0  0  0  0  0  0  0  0
   24.5670  -20.1203  -15.4766 C   0  0  1  0  0  0  0  0  0  0  0  0
   25.2794  -21.0238  -14.5309 C   0  0  0  0  0  0  0  0  0  0  0  0
   24.6133  -22.2890  -14.1527 C   0  0  0  0  0  0  0  0  0  0  0  0
   24.8494  -23.3994  -15.1747 C   0  0  0  0  0  0  0  0  0  0  0  0
   23.9870  -24.5567  -14.7705 C   0  0  0  0  0  0  0  0  0  0  0  0
   24.0688  -25.6786  -15.6673 N   0  0  0  0  0  0  0  0  0  0  0  0
   23.4549  -19.4309  -14.8104 C   0  0  0  0  0  0  0  0  0  0  0  0
   23.7055  -18.7803  -13.7457 O   0  0  0  0  0  0  0  0  0  0  0  0
   22.1020  -19.3988  -15.2254 N   0  0  0  0  0  0  0  0  0  0  0  0
   21.0853  -18.7014  -14.3942 C   0  0  1  0  0  0  0  0  0  0  0  0
   20.5501  -17.5274  -15.1325 C   0  0  0  0  0  0  0  0  0  0  0  0
   19.4939  -16.8195  -14.3798 C   0  0  0  0  0  0  0  0  0  0  0  0
   19.5380  -15.8244  -13.4337 C   0  0  0  0  0  0  0  0  0  0  0  0
   18.2805  -15.4271  -13.0781 N   0  0  0  0  0  0  0  0  0  0  0  0
   17.4561  -16.1794  -13.8095 C   0  0  0  0  0  0  0  0  0  0  0  0
   18.1438  -17.0162  -14.5932 N   0  0  0  0  0  0  0  0  0  0  0  0
   20.0044  -19.7144  -14.1146 C   0  0  0  0  0  0  0  0  0  0  0  0
   19.2151  -19.6040  -12.9444 O   0  0  0  0  0  0  0  0  0  0  0  0
   19.7103  -20.6857  -14.8288 O   0  0  0  0  0  0  0  0  0  0  0  0
  1  2  1  0
  3  2  1  0
  3  4  2  0
  5  3  1  0
  6 12  1  0
  6  5  1  0
  6  7  1  1
  8  7  1  0
  9  8  1  0
 10  9  1  0
 11 10  1  0
 12 14  1  0
 13 12  2  0
 14 15  1  0
 15 16  1  6
 17 16  1  0
 17 18  2  0
 19 18  1  0
 20 19  1  0
 21 20  2  0
 21 17  1  0
 22 15  1  0
 23 22  1  0
 24 22  2  0
M  END
$$$$
