GKH.pdb
     RDKit          3D

 24 24  0  0  1  0  0  0  0  0999 V2000
   21.6720  -29.2386  -10.3700 N   0  0  0  0  0  0  0  0  0  0  0  0
   20.4925  -28.6615  -10.9462 C   0  0  0  0  0  0  0  0  0  0  0  0
   20.1097  -27.3836  -10.3066 C   0  0  0  0  0  0  0  0  0  0  0  0
   20.6157  -26.9970   -9.1987 O   0  0  0  0  0  0  0  0  0  0  0  0
   19.1512  -26.5744  -10.9546 N   0  0  0  0  0  0  0  0  0  0  0  0
   18.8472  -25.1895  -10.5132 C   0  0  1  0  0  0  0  0  0  0  0  0
   18.7356  -24.4239  -11.7858 C   0  0  0  0  0  0  0  0  0  0  0  0
   18.4574  -22.9741  -11.6957 C   0  0  0  0  0  0  0  0  0  0  0  0
   18.3148  -22.3222  -13.0697 C   0  0  0  0  0  0  0  0  0  0  0  0
   17.9515  -20.8867  -12.8374 C   0  0  0  0  0  0  0  0  0  0  0  0
   17.7337  -20.1428  -14.0493 N   0  0  0  0  0  0  0  0  0  0  0  0
   17.5511  -25.2642   -9.8276 C   0  0  0  0  0  0  0  0  0  0  0  0
   16.6817  -26.0775  -10.2775 O   0  0  0  0  0  0  0  0  0  0  0  0
   17.1444  -24.5231   -8.6922 N   0  0  0  0  0  0  0  0  0  0  0  0
   15.8252  -24.7926   -8.0613 C   0  0  1  0  0  0  0  0  0  0  0  0
   15.8685  -24.4185   -6.6233 C   0  0  0  0  0  0  0  0  0  0  0  0
   16.7668  -25.2909   -5.8389 C   0  0  0  0  0  0  0  0  0  0  0  0
   16.7589  -26.6410   -5.5848 C   0  0  0  0  0  0  0  0  0  0  0  0
   17.8567  -27.0122   -4.8620 N   0  0  0  0  0  0  0  0  0  0  0  0
   18.5466  -25.8862   -4.6705 C   0  0  0  0  0  0  0  0  0  0  0  0
   17.9277  -24.8459   -5.2378 N   0  0  0  0  0  0  0  0  0  0  0  0
   14.8205  -23.9597   -8.8160 C   0  0  0  0  0  0  0  0  0  0  0  0
   13.4499  -24.0116   -8.4644 O   0  0  0  0  0  0  0  0  0  0  0  0
   15.0680  -23.1932   -9.7599 O   0  0  0  0  0  0  0  0  0  0  0  0
  1  2  1  0
  3  2  1  0
  3  4  2  0
  5  3  1  0
  6 12  1  0
  6  5  1  0
  6  7  1  6
  8  7  1  0
  9  8  1  0
 10  9  1  0
 11 10  1  0
 12 14  1  0
 13 12  2  0
 14 15  1  0
 15 16  1  1
 17 16  1  0
 17 18  2  0
 19 18  1  0
 20 19  1  0
 21 20  2  0
 21 17  1  0
 22 15  1  0
 23 22  1  0
 24 22  2  0
M  END
$$$$
