GKH.pdb
     RDKit          3D

 24 24  0  0  1  0  0  0  0  0999 V2000
   29.4439  -19.3734  -17.3584 N   0  0  0  0  0  0  0  0  0  0  0  0
   28.6079  -18.8546  -16.3152 C   0  0  0  0  0  0  0  0  0  0  0  0
   28.0124  -19.9182  -15.4769 C   0  0  0  0  0  0  0  0  0  0  0  0
   27.2468  -20.8196  -15.9609 O   0  0  0  0  0  0  0  0  0  0  0  0
   28.3095  -19.9242  -14.0966 N   0  0  0  0  0  0  0  0  0  0  0  0
   27.8643  -21.0124  -13.1896 C   0  0  1  0  0  0  0  0  0  0  0  0
   28.7845  -20.9063  -12.0234 C   0  0  0  0  0  0  0  0  0  0  0  0
   30.0706  -21.6333  -12.0921 C   0  0  0  0  0  0  0  0  0  0  0  0
   30.9059  -21.4597  -10.8250 C   0  0  0  0  0  0  0  0  0  0  0  0
   32.1775  -22.2261  -11.0307 C   0  0  0  0  0  0  0  0  0  0  0  0
   33.0957  -22.1278   -9.9276 N   0  0  0  0  0  0  0  0  0  0  0  0
   26.4874  -20.6754  -12.8070 C   0  0  0  0  0  0  0  0  0  0  0  0
   26.2382  -19.4757  -12.4630 O   0  0  0  0  0  0  0  0  0  0  0  0
   25.3733  -21.5482  -12.7796 N   0  0  0  0  0  0  0  0  0  0  0  0
   24.0240  -21.0218  -12.4432 C   0  0  1  0  0  0  0  0  0  0  0  0
   22.9792  -21.9144  -13.0101 C   0  0  0  0  0  0  0  0  0  0  0  0
   21.6110  -21.4277  -12.7376 C   0  0  0  0  0  0  0  0  0  0  0  0
   21.1342  -20.2712  -12.1697 C   0  0  0  0  0  0  0  0  0  0  0  0
   19.7693  -20.2321  -12.2044 N   0  0  0  0  0  0  0  0  0  0  0  0
   19.4018  -21.3692  -12.7982 C   0  0  0  0  0  0  0  0  0  0  0  0
   20.4705  -22.1016  -13.1278 N   0  0  0  0  0  0  0  0  0  0  0  0
   23.9529  -20.9791  -10.9379 C   0  0  0  0  0  0  0  0  0  0  0  0
   23.0986  -20.0511  -10.2948 O   0  0  0  0  0  0  0  0  0  0  0  0
   24.5900  -21.7011  -10.1552 O   0  0  0  0  0  0  0  0  0  0  0  0
  1  2  1  0
  3  2  1  0
  3  4  2  0
  5  3  1  0
  6 12  1  0
  6  5  1  0
  6  7  1  1
  8  7  1  0
  9  8  1  0
 10  9  1  0
 11 10  1  0
 12 14  1  0
 13 12  2  0
 14 15  1  0
 15 16  1  1
 17 16  1  0
 17 18  2  0
 19 18  1  0
 20 19  1  0
 21 20  2  0
 21 17  1  0
 22 15  1  0
 23 22  1  0
 24 22  2  0
M  END
$$$$
