GKH.pdb
     RDKit          3D

 24 24  0  0  1  0  0  0  0  0999 V2000
   29.1964  -18.9234  -18.6982 N   0  0  0  0  0  0  0  0  0  0  0  0
   28.1486  -18.3759  -17.8868 C   0  0  0  0  0  0  0  0  0  0  0  0
   27.5193  -19.3853  -17.0071 C   0  0  0  0  0  0  0  0  0  0  0  0
   27.2411  -20.5647  -17.4126 O   0  0  0  0  0  0  0  0  0  0  0  0
   27.2219  -19.0179  -15.6767 N   0  0  0  0  0  0  0  0  0  0  0  0
   26.5136  -19.9248  -14.7382 C   0  0  1  0  0  0  0  0  0  0  0  0
   27.2331  -19.7383  -13.4476 C   0  0  0  0  0  0  0  0  0  0  0  0
   26.9113  -20.6633  -12.3393 C   0  0  0  0  0  0  0  0  0  0  0  0
   25.8949  -20.0721  -11.3641 C   0  0  0  0  0  0  0  0  0  0  0  0
   25.8200  -21.0034  -10.1922 C   0  0  0  0  0  0  0  0  0  0  0  0
   25.0088  -20.5083   -9.1122 N   0  0  0  0  0  0  0  0  0  0  0  0
   25.1385  -19.4173  -14.6532 C   0  0  0  0  0  0  0  0  0  0  0  0
   24.9691  -18.1995  -14.3246 O   0  0  0  0  0  0  0  0  0  0  0  0
   23.9472  -20.1391  -14.9052 N   0  0  0  0  0  0  0  0  0  0  0  0
   22.6258  -19.4918  -14.6914 C   0  0  1  0  0  0  0  0  0  0  0  0
   21.8992  -19.3907  -15.9842 C   0  0  0  0  0  0  0  0  0  0  0  0
   22.5655  -18.4796  -16.9377 C   0  0  0  0  0  0  0  0  0  0  0  0
   23.4673  -18.6963  -17.9512 C   0  0  0  0  0  0  0  0  0  0  0  0
   23.7413  -17.5386  -18.6221 N   0  0  0  0  0  0  0  0  0  0  0  0
   23.0037  -16.6030  -18.0211 C   0  0  0  0  0  0  0  0  0  0  0  0
   22.2937  -17.1281  -17.0174 N   0  0  0  0  0  0  0  0  0  0  0  0
   21.8843  -20.3642  -13.7107 C   0  0  0  0  0  0  0  0  0  0  0  0
   20.6093  -19.9719  -13.2362 O   0  0  0  0  0  0  0  0  0  0  0  0
   22.2826  -21.4437  -13.2460 O   0  0  0  0  0  0  0  0  0  0  0  0
  1  2  1  0
  3  2  1  0
  3  4  2  0
  5  3  1  0
  6 12  1  0
  6  5  1  0
  6  7  1  1
  8  7  1  0
  9  8  1  0
 10  9  1  0
 11 10  1  0
 12 14  1  0
 13 12  2  0
 14 15  1  0
 15 16  1  6
 17 16  1  0
 17 18  2  0
 19 18  1  0
 20 19  1  0
 21 20  2  0
 21 17  1  0
 22 15  1  0
 23 22  1  0
 24 22  2  0
M  END
$$$$
