CYW.pdb
     RDKit          3D

 33 35  0  0  1  0  0  0  0  0999 V2000
    5.9131  -20.7691   23.6821 N   0  0  0  0  0  0  0  0  0  0  0  0
    6.1327  -19.4561   24.3180 C   0  0  1  0  0  0  0  0  0  0  0  0
    6.9526  -19.7796   25.5634 C   0  0  0  0  0  0  0  0  0  0  0  0
    7.2311  -18.2753   26.5097 S   0  0  0  0  0  0  0  0  0  0  0  0
    6.8481  -18.6126   23.3609 C   0  0  0  0  0  0  0  0  0  0  0  0
    7.6194  -19.1526   22.4998 O   0  0  0  0  0  0  0  0  0  0  0  0
    9.0362  -12.1214   17.8366 O   0  0  0  0  0  0  0  0  0  0  0  0
    8.5026  -12.8652   18.9020 C   0  0  0  0  0  0  0  0  0  0  0  0
    7.8027  -14.0324   18.6647 C   0  0  0  0  0  0  0  0  0  0  0  0
    7.2935  -14.7364   19.7327 C   0  0  0  0  0  0  0  0  0  0  0  0
    7.4568  -14.3191   21.0294 C   0  0  0  0  0  0  0  0  0  0  0  0
    6.9035  -15.0934   22.1311 C   0  0  0  0  0  0  0  0  0  0  0  0
    7.5439  -16.4517   22.3104 C   0  0  2  0  0  0  0  0  0  0  0  0
    6.7662  -17.2055   23.2926 N   0  0  0  0  0  0  0  0  0  0  0  0
    8.9697  -16.3994   22.6729 C   0  0  0  0  0  0  0  0  0  0  0  0
    9.8107  -17.2396   22.2102 O   0  0  0  0  0  0  0  0  0  0  0  0
    8.1500  -13.1626   21.2709 C   0  0  0  0  0  0  0  0  0  0  0  0
    8.6540  -12.4661   20.2082 C   0  0  0  0  0  0  0  0  0  0  0  0
    9.4951  -15.4172   23.5520 N   0  0  0  0  0  0  0  0  0  0  0  0
   10.3559  -15.7659   24.7060 C   0  0  1  0  0  0  0  0  0  0  0  0
    9.3736  -15.9842   25.8318 C   0  0  0  0  0  0  0  0  0  0  0  0
    9.0681  -14.8342   26.6641 C   0  0  0  0  0  0  0  0  0  0  0  0
    9.8015  -14.3660   27.7262 C   0  0  0  0  0  0  0  0  0  0  0  0
    9.1972  -13.2956   28.2749 N   0  0  0  0  0  0  0  0  0  0  0  0
    8.0650  -13.0684   27.5636 C   0  0  0  0  0  0  0  0  0  0  0  0
    7.0951  -12.0997   27.6914 C   0  0  0  0  0  0  0  0  0  0  0  0
    6.0129  -12.0369   26.8381 C   0  0  0  0  0  0  0  0  0  0  0  0
    5.9139  -12.9834   25.8286 C   0  0  0  0  0  0  0  0  0  0  0  0
    6.8856  -13.9426   25.7127 C   0  0  0  0  0  0  0  0  0  0  0  0
    7.9666  -14.0063   26.5651 C   0  0  0  0  0  0  0  0  0  0  0  0
   11.2767  -16.8437   24.4230 C   0  0  0  0  0  0  0  0  0  0  0  0
   12.6421  -16.6726   24.5682 O   0  0  0  0  0  0  0  0  0  0  0  0
   10.8700  -17.9659   24.0333 O   0  0  0  0  0  0  0  0  0  0  0  0
  2  3  1  0
  2  1  1  6
  3  4  1  0
  5  2  1  0
  6  5  2  0
  8  7  1  0
  8  9  2  0
 10  9  1  0
 11 10  2  0
 12 11  1  0
 13 12  1  1
 13 14  1  0
 14  5  1  0
 15 13  1  0
 15 19  1  0
 16 15  2  0
 17 18  2  0
 17 11  1  0
 18  8  1  0
 20 21  1  1
 20 19  1  0
 20 31  1  0
 22 21  1  0
 22 23  2  0
 24 23  1  0
 25 30  2  0
 25 24  1  0
 26 25  1  0
 27 28  1  0
 27 26  2  0
 28 29  2  0
 29 30  1  0
 30 22  1  0
 31 32  1  0
 33 31  2  0
M  END
$$$$
