CYW.pdb
     RDKit          3D

 33 35  0  0  1  0  0  0  0  0999 V2000
    8.6230  -15.6782   17.9925 N   0  0  0  0  0  0  0  0  0  0  0  0
    8.5785  -14.9836   19.2933 C   0  0  1  0  0  0  0  0  0  0  0  0
    7.1704  -15.2585   19.8126 C   0  0  0  0  0  0  0  0  0  0  0  0
    7.0563  -14.7624   21.5379 S   0  0  0  0  0  0  0  0  0  0  0  0
    9.6257  -15.5558   20.1389 C   0  0  0  0  0  0  0  0  0  0  0  0
    9.9043  -16.7972   20.0423 O   0  0  0  0  0  0  0  0  0  0  0  0
   14.7679  -15.3063   16.5366 O   0  0  0  0  0  0  0  0  0  0  0  0
   14.2560  -15.2058   17.8407 C   0  0  0  0  0  0  0  0  0  0  0  0
   14.4194  -16.2392   18.7428 C   0  0  0  0  0  0  0  0  0  0  0  0
   13.9048  -16.1068   20.0128 C   0  0  0  0  0  0  0  0  0  0  0  0
   13.2326  -14.9810   20.4166 C   0  0  0  0  0  0  0  0  0  0  0  0
   12.7046  -14.8799   21.7695 C   0  0  0  0  0  0  0  0  0  0  0  0
   11.3501  -15.5278   21.9508 C   0  0  2  0  0  0  0  0  0  0  0  0
   10.3887  -14.8429   21.0881 N   0  0  0  0  0  0  0  0  0  0  0  0
   10.8887  -15.5720   23.3481 C   0  0  0  0  0  0  0  0  0  0  0  0
   11.2889  -14.7248   24.2137 O   0  0  0  0  0  0  0  0  0  0  0  0
   13.0675  -13.9529   19.5266 C   0  0  0  0  0  0  0  0  0  0  0  0
   13.5797  -14.0879   18.2665 C   0  0  0  0  0  0  0  0  0  0  0  0
    9.9751  -16.5517   23.8163 N   0  0  0  0  0  0  0  0  0  0  0  0
    9.6615  -16.7195   25.2542 C   0  0  1  0  0  0  0  0  0  0  0  0
    8.1720  -16.9670   25.2689 C   0  0  0  0  0  0  0  0  0  0  0  0
    7.3226  -15.8226   25.5476 C   0  0  0  0  0  0  0  0  0  0  0  0
    5.9514  -15.7797   25.4923 C   0  0  0  0  0  0  0  0  0  0  0  0
    5.5110  -14.5427   25.7887 N   0  0  0  0  0  0  0  0  0  0  0  0
    6.6037  -13.7791   26.0381 C   0  0  0  0  0  0  0  0  0  0  0  0
    6.7198  -12.4550   26.3968 C   0  0  0  0  0  0  0  0  0  0  0  0
    7.9474  -11.8673   26.6219 C   0  0  0  0  0  0  0  0  0  0  0  0
    9.0869  -12.6457   26.4787 C   0  0  0  0  0  0  0  0  0  0  0  0
    8.9577  -13.9621   26.1206 C   0  0  0  0  0  0  0  0  0  0  0  0
    7.7317  -14.5496   25.8950 C   0  0  0  0  0  0  0  0  0  0  0  0
   10.4947  -17.7043   25.9065 C   0  0  0  0  0  0  0  0  0  0  0  0
   10.5988  -17.7506   27.2855 O   0  0  0  0  0  0  0  0  0  0  0  0
   11.1528  -18.5451   25.2456 O   0  0  0  0  0  0  0  0  0  0  0  0
  2  3  1  0
  2  1  1  6
  3  4  1  0
  5  2  1  0
  6  5  2  0
  8  7  1  0
  8  9  2  0
 10  9  1  0
 11 10  2  0
 12 11  1  0
 13 12  1  1
 13 14  1  0
 14  5  1  0
 15 13  1  0
 15 19  1  0
 16 15  2  0
 17 18  2  0
 17 11  1  0
 18  8  1  0
 20 21  1  6
 20 19  1  0
 20 31  1  0
 22 21  1  0
 22 23  2  0
 24 23  1  0
 25 30  2  0
 25 24  1  0
 26 25  1  0
 27 28  1  0
 27 26  2  0
 28 29  2  0
 29 30  1  0
 30 22  1  0
 31 32  1  0
 33 31  2  0
M  END
$$$$
