CYW.pdb
     RDKit          3D

 33 35  0  0  1  0  0  0  0  0999 V2000
   10.3136  -18.7310   19.1895 N   0  0  0  0  0  0  0  0  0  0  0  0
    9.6243  -18.6627   20.4921 C   0  0  1  0  0  0  0  0  0  0  0  0
   10.2154  -19.8239   21.2858 C   0  0  0  0  0  0  0  0  0  0  0  0
    9.1881  -21.2852   21.0726 S   0  0  0  0  0  0  0  0  0  0  0  0
    9.9150  -17.3559   21.0810 C   0  0  0  0  0  0  0  0  0  0  0  0
   10.9823  -16.7399   20.7501 O   0  0  0  0  0  0  0  0  0  0  0  0
    6.9455  -13.0678   17.2537 O   0  0  0  0  0  0  0  0  0  0  0  0
    7.3098  -13.4039   18.5679 C   0  0  0  0  0  0  0  0  0  0  0  0
    8.3548  -12.7549   19.1967 C   0  0  0  0  0  0  0  0  0  0  0  0
    8.6847  -13.1097   20.4853 C   0  0  0  0  0  0  0  0  0  0  0  0
    8.0105  -14.0886   21.1705 C   0  0  0  0  0  0  0  0  0  0  0  0
    8.3901  -14.4333   22.5330 C   0  0  0  0  0  0  0  0  0  0  0  0
    9.5300  -15.4233   22.6219 C   0  0  2  0  0  0  0  0  0  0  0  0
    9.0999  -16.6821   22.0153 N   0  0  0  0  0  0  0  0  0  0  0  0
   10.0426  -15.6267   23.9867 C   0  0  0  0  0  0  0  0  0  0  0  0
   11.1197  -15.0734   24.3882 O   0  0  0  0  0  0  0  0  0  0  0  0
    6.9734  -14.7356   20.5523 C   0  0  0  0  0  0  0  0  0  0  0  0
    6.6487  -14.3808   19.2729 C   0  0  0  0  0  0  0  0  0  0  0  0
    9.3751  -16.4438   24.9356 N   0  0  0  0  0  0  0  0  0  0  0  0
    9.9904  -16.8201   26.2294 C   0  0  1  0  0  0  0  0  0  0  0  0
    8.9326  -16.4626   27.2459 C   0  0  0  0  0  0  0  0  0  0  0  0
    7.8518  -15.6066   26.7901 C   0  0  0  0  0  0  0  0  0  0  0  0
    6.7181  -15.9950   26.1199 C   0  0  0  0  0  0  0  0  0  0  0  0
    5.9539  -14.9238   25.8361 N   0  0  0  0  0  0  0  0  0  0  0  0
    6.5961  -13.8343   26.3258 C   0  0  0  0  0  0  0  0  0  0  0  0
    6.2512  -12.5015   26.3191 C   0  0  0  0  0  0  0  0  0  0  0  0
    7.0539  -11.5395   26.8965 C   0  0  0  0  0  0  0  0  0  0  0  0
    8.2381  -11.9427   27.4965 C   0  0  0  0  0  0  0  0  0  0  0  0
    8.5701  -13.2722   27.4957 C   0  0  0  0  0  0  0  0  0  0  0  0
    7.7690  -14.2336   26.9185 C   0  0  0  0  0  0  0  0  0  0  0  0
   10.4850  -18.1782   26.2500 C   0  0  0  0  0  0  0  0  0  0  0  0
   10.3244  -19.0130   25.1583 O   0  0  0  0  0  0  0  0  0  0  0  0
   11.0711  -18.6454   27.2574 O   0  0  0  0  0  0  0  0  0  0  0  0
  2  3  1  0
  2  1  1  6
  3  4  1  0
  5  2  1  0
  6  5  2  0
  8  7  1  0
  8  9  2  0
 10  9  1  0
 11 10  2  0
 12 11  1  0
 13 12  1  1
 13 14  1  0
 14  5  1  0
 15 13  1  0
 15 19  1  0
 16 15  2  0
 17 18  2  0
 17 11  1  0
 18  8  1  0
 20 21  1  1
 20 19  1  0
 20 31  1  0
 22 21  1  0
 22 23  2  0
 24 23  1  0
 25 30  2  0
 25 24  1  0
 26 25  1  0
 27 28  1  0
 27 26  2  0
 28 29  2  0
 29 30  1  0
 30 22  1  0
 31 32  1  0
 33 31  2  0
M  END
$$$$
