CYW.pdb
     RDKit          3D

 33 35  0  0  1  0  0  0  0  0999 V2000
    9.2127  -18.9066   19.2882 N   0  0  0  0  0  0  0  0  0  0  0  0
    8.8066  -18.7047   20.6921 C   0  0  1  0  0  0  0  0  0  0  0  0
    9.4754  -19.8538   21.4406 C   0  0  0  0  0  0  0  0  0  0  0  0
    9.2055  -19.6601   23.2086 S   0  0  0  0  0  0  0  0  0  0  0  0
    9.2883  -17.3883   21.1094 C   0  0  0  0  0  0  0  0  0  0  0  0
   10.3858  -16.9409   20.6369 O   0  0  0  0  0  0  0  0  0  0  0  0
    7.1888  -13.0408   16.8465 O   0  0  0  0  0  0  0  0  0  0  0  0
    7.4684  -13.3149   18.1954 C   0  0  0  0  0  0  0  0  0  0  0  0
    8.6072  -12.8120   18.7946 C   0  0  0  0  0  0  0  0  0  0  0  0
    8.8499  -13.1004   20.1187 C   0  0  0  0  0  0  0  0  0  0  0  0
    7.9983  -13.8723   20.8679 C   0  0  0  0  0  0  0  0  0  0  0  0
    8.2907  -14.1530   22.2661 C   0  0  0  0  0  0  0  0  0  0  0  0
    9.2638  -15.2919   22.4740 C   0  0  2  0  0  0  0  0  0  0  0  0
    8.6335  -16.5300   22.0182 N   0  0  0  0  0  0  0  0  0  0  0  0
    9.7594  -15.4127   23.8549 C   0  0  0  0  0  0  0  0  0  0  0  0
   10.4929  -14.5138   24.3853 O   0  0  0  0  0  0  0  0  0  0  0  0
    6.8675  -14.3735   20.2793 C   0  0  0  0  0  0  0  0  0  0  0  0
    6.6298  -14.0853   18.9645 C   0  0  0  0  0  0  0  0  0  0  0  0
    9.4534  -16.5276   24.6777 N   0  0  0  0  0  0  0  0  0  0  0  0
    9.9240  -16.6315   26.0783 C   0  0  1  0  0  0  0  0  0  0  0  0
    8.6469  -16.6596   26.8835 C   0  0  0  0  0  0  0  0  0  0  0  0
    7.5904  -15.7561   26.4639 C   0  0  0  0  0  0  0  0  0  0  0  0
    6.3943  -16.0981   25.8830 C   0  0  0  0  0  0  0  0  0  0  0  0
    5.6771  -14.9931   25.6062 N   0  0  0  0  0  0  0  0  0  0  0  0
    6.4129  -13.9281   26.0106 C   0  0  0  0  0  0  0  0  0  0  0  0
    6.1470  -12.5777   25.9731 C   0  0  0  0  0  0  0  0  0  0  0  0
    7.0410  -11.6466   26.4598 C   0  0  0  0  0  0  0  0  0  0  0  0
    8.2365  -12.0997   26.9987 C   0  0  0  0  0  0  0  0  0  0  0  0
    8.4892  -13.4461   27.0294 C   0  0  0  0  0  0  0  0  0  0  0  0
    7.5969  -14.3768   26.5429 C   0  0  0  0  0  0  0  0  0  0  0  0
   10.8528  -17.7194   26.2867 C   0  0  0  0  0  0  0  0  0  0  0  0
   11.2158  -18.5571   25.2470 O   0  0  0  0  0  0  0  0  0  0  0  0
   11.3560  -17.9424   27.4153 O   0  0  0  0  0  0  0  0  0  0  0  0
  2  3  1  0
  2  1  1  6
  3  4  1  0
  5  2  1  0
  6  5  2  0
  8  7  1  0
  8  9  2  0
 10  9  1  0
 11 10  2  0
 12 11  1  0
 13 12  1  1
 13 14  1  0
 14  5  1  0
 15 13  1  0
 15 19  1  0
 16 15  2  0
 17 18  2  0
 17 11  1  0
 18  8  1  0
 20 21  1  1
 20 19  1  0
 20 31  1  0
 22 21  1  0
 22 23  2  0
 24 23  1  0
 25 30  2  0
 25 24  1  0
 26 25  1  0
 27 28  1  0
 27 26  2  0
 28 29  2  0
 29 30  1  0
 30 22  1  0
 31 32  1  0
 33 31  2  0
M  END
$$$$
