CYW.pdb
     RDKit          3D

 33 35  0  0  1  0  0  0  0  0999 V2000
   12.5127  -16.2252   18.8090 N   0  0  0  0  0  0  0  0  0  0  0  0
   11.6256  -17.2801   19.3353 C   0  0  1  0  0  0  0  0  0  0  0  0
   12.5748  -18.4220   19.6860 C   0  0  0  0  0  0  0  0  0  0  0  0
   11.6366  -19.7999   20.3624 S   0  0  0  0  0  0  0  0  0  0  0  0
   10.9273  -16.7342   20.4988 C   0  0  0  0  0  0  0  0  0  0  0  0
   11.5549  -15.9764   21.3110 O   0  0  0  0  0  0  0  0  0  0  0  0
    7.2577  -12.5337   17.2524 O   0  0  0  0  0  0  0  0  0  0  0  0
    7.3399  -13.3798   18.3705 C   0  0  0  0  0  0  0  0  0  0  0  0
    7.5621  -12.8608   19.6313 C   0  0  0  0  0  0  0  0  0  0  0  0
    7.6369  -13.7193   20.7050 C   0  0  0  0  0  0  0  0  0  0  0  0
    7.4982  -15.0773   20.5674 C   0  0  0  0  0  0  0  0  0  0  0  0
    7.5826  -15.9510   21.7288 C   0  0  0  0  0  0  0  0  0  0  0  0
    8.9851  -16.4211   22.0438 C   0  0  2  0  0  0  0  0  0  0  0  0
    9.5750  -16.9717   20.8246 N   0  0  0  0  0  0  0  0  0  0  0  0
    9.0606  -17.3763   23.1614 C   0  0  0  0  0  0  0  0  0  0  0  0
    9.9772  -18.2611   23.2268 O   0  0  0  0  0  0  0  0  0  0  0  0
    7.2775  -15.5978   19.3197 C   0  0  0  0  0  0  0  0  0  0  0  0
    7.2040  -14.7425   18.2561 C   0  0  0  0  0  0  0  0  0  0  0  0
    8.1264  -17.3721   24.2295 N   0  0  0  0  0  0  0  0  0  0  0  0
    8.5468  -17.3779   25.6499 C   0  0  1  0  0  0  0  0  0  0  0  0
    9.4375  -16.1639   25.7640 C   0  0  0  0  0  0  0  0  0  0  0  0
    8.9651  -15.0850   26.6133 C   0  0  0  0  0  0  0  0  0  0  0  0
    9.0384  -15.0201   27.9828 C   0  0  0  0  0  0  0  0  0  0  0  0
    8.4744  -13.8814   28.4269 N   0  0  0  0  0  0  0  0  0  0  0  0
    8.0331  -13.2036   27.3382 C   0  0  0  0  0  0  0  0  0  0  0  0
    7.3987  -11.9870   27.2254 C   0  0  0  0  0  0  0  0  0  0  0  0
    7.0431  -11.4630   25.9998 C   0  0  0  0  0  0  0  0  0  0  0  0
    7.3401  -12.1946   24.8590 C   0  0  0  0  0  0  0  0  0  0  0  0
    7.9711  -13.4044   24.9851 C   0  0  0  0  0  0  0  0  0  0  0  0
    8.3261  -13.9287   26.2091 C   0  0  0  0  0  0  0  0  0  0  0  0
    7.4362  -17.4634   26.5711 C   0  0  0  0  0  0  0  0  0  0  0  0
    7.5990  -17.9950   27.8381 O   0  0  0  0  0  0  0  0  0  0  0  0
    6.2895  -17.0634   26.2518 O   0  0  0  0  0  0  0  0  0  0  0  0
  2  3  1  0
  2  1  1  1
  3  4  1  0
  5  2  1  0
  6  5  2  0
  8  7  1  0
  8  9  2  0
 10  9  1  0
 11 10  2  0
 12 11  1  0
 13 12  1  6
 13 14  1  0
 14  5  1  0
 15 13  1  0
 15 19  1  0
 16 15  2  0
 17 18  2  0
 17 11  1  0
 18  8  1  0
 20 21  1  1
 20 19  1  0
 20 31  1  0
 22 21  1  0
 22 23  2  0
 24 23  1  0
 25 30  2  0
 25 24  1  0
 26 25  1  0
 27 28  1  0
 27 26  2  0
 28 29  2  0
 29 30  1  0
 30 22  1  0
 31 32  1  0
 33 31  2  0
M  END
$$$$
