CYW.pdb
     RDKit          3D

 33 35  0  0  1  0  0  0  0  0999 V2000
    7.0018  -21.4704   23.5579 N   0  0  0  0  0  0  0  0  0  0  0  0
    6.7296  -20.1503   24.1576 C   0  0  1  0  0  0  0  0  0  0  0  0
    7.4160  -20.2126   25.5188 C   0  0  0  0  0  0  0  0  0  0  0  0
    6.2551  -19.7224   26.8026 S   0  0  0  0  0  0  0  0  0  0  0  0
    7.2978  -19.1341   23.2724 C   0  0  0  0  0  0  0  0  0  0  0  0
    8.3747  -19.3851   22.6357 O   0  0  0  0  0  0  0  0  0  0  0  0
    8.6913  -12.0490   18.2023 O   0  0  0  0  0  0  0  0  0  0  0  0
    8.1487  -12.9755   19.1079 C   0  0  0  0  0  0  0  0  0  0  0  0
    7.9707  -12.6400   20.4362 C   0  0  0  0  0  0  0  0  0  0  0  0
    7.4359  -13.5727   21.2962 C   0  0  0  0  0  0  0  0  0  0  0  0
    7.0718  -14.8283   20.8801 C   0  0  0  0  0  0  0  0  0  0  0  0
    6.5084  -15.7853   21.8213 C   0  0  0  0  0  0  0  0  0  0  0  0
    7.4846  -16.8466   22.2775 C   0  0  2  0  0  0  0  0  0  0  0  0
    6.7514  -17.8533   23.0433 N   0  0  0  0  0  0  0  0  0  0  0  0
    8.6325  -16.3202   23.0341 C   0  0  0  0  0  0  0  0  0  0  0  0
    9.4620  -15.5035   22.5124 O   0  0  0  0  0  0  0  0  0  0  0  0
    7.2458  -15.1666   19.5642 C   0  0  0  0  0  0  0  0  0  0  0  0
    7.7771  -14.2382   18.7132 C   0  0  0  0  0  0  0  0  0  0  0  0
    8.8858  -16.6840   24.3821 N   0  0  0  0  0  0  0  0  0  0  0  0
    9.9832  -16.0801   25.1729 C   0  0  1  0  0  0  0  0  0  0  0  0
    9.3472  -15.8036   26.5142 C   0  0  0  0  0  0  0  0  0  0  0  0
    8.0516  -15.1479   26.4998 C   0  0  0  0  0  0  0  0  0  0  0  0
    6.8230  -15.7504   26.3884 C   0  0  0  0  0  0  0  0  0  0  0  0
    5.8472  -14.8231   26.3849 N   0  0  0  0  0  0  0  0  0  0  0  0
    6.4472  -13.6120   26.4952 C   0  0  0  0  0  0  0  0  0  0  0  0
    5.9187  -12.3419   26.5523 C   0  0  0  0  0  0  0  0  0  0  0  0
    6.7193  -11.2261   26.6829 C   0  0  0  0  0  0  0  0  0  0  0  0
    8.0930  -11.4057   26.7575 C   0  0  0  0  0  0  0  0  0  0  0  0
    8.6063  -12.6748   26.6988 C   0  0  0  0  0  0  0  0  0  0  0  0
    7.8072  -13.7899   26.5677 C   0  0  0  0  0  0  0  0  0  0  0  0
   11.1892  -16.8771   25.1725 C   0  0  0  0  0  0  0  0  0  0  0  0
   12.3551  -16.4076   25.7510 O   0  0  0  0  0  0  0  0  0  0  0  0
   11.2200  -18.0163   24.6453 O   0  0  0  0  0  0  0  0  0  0  0  0
  2  3  1  0
  2  1  1  6
  3  4  1  0
  5  2  1  0
  6  5  2  0
  8  7  1  0
  8  9  2  0
 10  9  1  0
 11 10  2  0
 12 11  1  0
 13 12  1  1
 13 14  1  0
 14  5  1  0
 15 13  1  0
 15 19  1  0
 16 15  2  0
 17 18  2  0
 17 11  1  0
 18  8  1  0
 20 21  1  1
 20 19  1  0
 20 31  1  0
 22 21  1  0
 22 23  2  0
 24 23  1  0
 25 30  2  0
 25 24  1  0
 26 25  1  0
 27 28  1  0
 27 26  2  0
 28 29  2  0
 29 30  1  0
 30 22  1  0
 31 32  1  0
 33 31  2  0
M  END
$$$$
