CYW.pdb
     RDKit          3D

 33 35  0  0  1  0  0  0  0  0999 V2000
    8.8344  -19.0643   19.1190 N   0  0  0  0  0  0  0  0  0  0  0  0
    8.3079  -18.6926   20.4460 C   0  0  1  0  0  0  0  0  0  0  0  0
    8.4984  -19.9516   21.2867 C   0  0  0  0  0  0  0  0  0  0  0  0
    8.0062  -19.6227   22.9854 S   0  0  0  0  0  0  0  0  0  0  0  0
    9.0871  -17.5536   20.9305 C   0  0  0  0  0  0  0  0  0  0  0  0
   10.3131  -17.4418   20.5955 O   0  0  0  0  0  0  0  0  0  0  0  0
    7.4286  -13.0864   16.5979 O   0  0  0  0  0  0  0  0  0  0  0  0
    7.7483  -13.3470   17.9407 C   0  0  0  0  0  0  0  0  0  0  0  0
    6.8229  -13.9309   18.7840 C   0  0  0  0  0  0  0  0  0  0  0  0
    7.1700  -14.1722   20.0942 C   0  0  0  0  0  0  0  0  0  0  0  0
    8.4068  -13.8524   20.5947 C   0  0  0  0  0  0  0  0  0  0  0  0
    8.7349  -14.1253   21.9865 C   0  0  0  0  0  0  0  0  0  0  0  0
    9.4648  -15.4323   22.2013 C   0  0  2  0  0  0  0  0  0  0  0  0
    8.5979  -16.5255   21.7642 N   0  0  0  0  0  0  0  0  0  0  0  0
    9.9389  -15.6350   23.5801 C   0  0  0  0  0  0  0  0  0  0  0  0
   10.8276  -14.8826   24.1012 O   0  0  0  0  0  0  0  0  0  0  0  0
    9.3285  -13.2733   19.7632 C   0  0  0  0  0  0  0  0  0  0  0  0
    8.9804  -13.0351   18.4630 C   0  0  0  0  0  0  0  0  0  0  0  0
    9.4398  -16.6713   24.4111 N   0  0  0  0  0  0  0  0  0  0  0  0
    9.9123  -16.8693   25.8009 C   0  0  1  0  0  0  0  0  0  0  0  0
    9.6108  -15.5508   26.4724 C   0  0  0  0  0  0  0  0  0  0  0  0
    8.2198  -15.1350   26.4997 C   0  0  0  0  0  0  0  0  0  0  0  0
    7.1177  -15.9258   26.2873 C   0  0  0  0  0  0  0  0  0  0  0  0
    5.9933  -15.1898   26.3651 N   0  0  0  0  0  0  0  0  0  0  0  0
    6.3690  -13.9140   26.6301 C   0  0  0  0  0  0  0  0  0  0  0  0
    5.6238  -12.7718   26.8193 C   0  0  0  0  0  0  0  0  0  0  0  0
    6.2136  -11.5565   27.0987 C   0  0  0  0  0  0  0  0  0  0  0  0
    7.5970  -11.5004   27.1881 C   0  0  0  0  0  0  0  0  0  0  0  0
    8.3271  -12.6441   26.9969 C   0  0  0  0  0  0  0  0  0  0  0  0
    7.7386  -13.8584   26.7172 C   0  0  0  0  0  0  0  0  0  0  0  0
    9.3720  -18.0579   26.4212 C   0  0  0  0  0  0  0  0  0  0  0  0
    8.4299  -18.8363   25.7722 O   0  0  0  0  0  0  0  0  0  0  0  0
    9.7350  -18.4201   27.5674 O   0  0  0  0  0  0  0  0  0  0  0  0
  2  3  1  0
  2  1  1  6
  3  4  1  0
  5  2  1  0
  6  5  2  0
  8  7  1  0
  8  9  2  0
 10  9  1  0
 11 10  2  0
 12 11  1  0
 13 12  1  1
 13 14  1  0
 14  5  1  0
 15 13  1  0
 15 19  1  0
 16 15  2  0
 17 18  2  0
 17 11  1  0
 18  8  1  0
 20 21  1  1
 20 19  1  0
 20 31  1  0
 22 21  1  0
 22 23  2  0
 24 23  1  0
 25 30  2  0
 25 24  1  0
 26 25  1  0
 27 28  1  0
 27 26  2  0
 28 29  2  0
 29 30  1  0
 30 22  1  0
 31 32  1  0
 33 31  2  0
M  END
$$$$
