CYW.pdb
     RDKit          3D

 33 35  0  0  1  0  0  0  0  0999 V2000
   13.3273  -14.1376   18.4869 N   0  0  0  0  0  0  0  0  0  0  0  0
   13.1531  -15.3259   19.3438 C   0  0  1  0  0  0  0  0  0  0  0  0
   14.5527  -15.6008   19.8857 C   0  0  0  0  0  0  0  0  0  0  0  0
   15.3911  -16.7822   18.8191 S   0  0  0  0  0  0  0  0  0  0  0  0
   12.1885  -14.9833   20.3885 C   0  0  0  0  0  0  0  0  0  0  0  0
   12.3105  -13.8819   21.0210 O   0  0  0  0  0  0  0  0  0  0  0  0
    7.3785  -13.1996   16.5474 O   0  0  0  0  0  0  0  0  0  0  0  0
    7.7276  -13.8061   17.7653 C   0  0  0  0  0  0  0  0  0  0  0  0
    8.0535  -15.1476   17.8156 C   0  0  0  0  0  0  0  0  0  0  0  0
    8.3910  -15.7095   19.0264 C   0  0  0  0  0  0  0  0  0  0  0  0
    8.4153  -14.9822   20.1895 C   0  0  0  0  0  0  0  0  0  0  0  0
    8.7789  -15.6140   21.4496 C   0  0  0  0  0  0  0  0  0  0  0  0
   10.2103  -15.3668   21.8707 C   0  0  2  0  0  0  0  0  0  0  0  0
   11.0929  -15.7813   20.7813 N   0  0  0  0  0  0  0  0  0  0  0  0
   10.5808  -16.0093   23.1424 C   0  0  0  0  0  0  0  0  0  0  0  0
   11.7556  -15.9062   23.6287 O   0  0  0  0  0  0  0  0  0  0  0  0
    8.0932  -13.6516   20.1457 C   0  0  0  0  0  0  0  0  0  0  0  0
    7.7585  -13.0971   18.9420 C   0  0  0  0  0  0  0  0  0  0  0  0
    9.6608  -16.7768   23.9027 N   0  0  0  0  0  0  0  0  0  0  0  0
    9.7363  -16.8695   25.3792 C   0  0  1  0  0  0  0  0  0  0  0  0
    9.6471  -15.4320   25.8328 C   0  0  0  0  0  0  0  0  0  0  0  0
    8.3172  -14.8548   25.9157 C   0  0  0  0  0  0  0  0  0  0  0  0
    7.1286  -15.4743   25.6181 C   0  0  0  0  0  0  0  0  0  0  0  0
    6.1021  -14.6202   25.7872 N   0  0  0  0  0  0  0  0  0  0  0  0
    6.6287  -13.4397   26.1974 C   0  0  0  0  0  0  0  0  0  0  0  0
    6.0271  -12.2447   26.5226 C   0  0  0  0  0  0  0  0  0  0  0  0
    6.7586  -11.1517   26.9390 C   0  0  0  0  0  0  0  0  0  0  0  0
    8.1376  -11.2765   27.0272 C   0  0  0  0  0  0  0  0  0  0  0  0
    8.7240  -12.4710   26.6999 C   0  0  0  0  0  0  0  0  0  0  0  0
    7.9939  -13.5630   26.2834 C   0  0  0  0  0  0  0  0  0  0  0  0
    8.7767  -17.7934   25.9405 C   0  0  0  0  0  0  0  0  0  0  0  0
    8.9313  -18.2922   27.2219 O   0  0  0  0  0  0  0  0  0  0  0  0
    7.7766  -18.1762   25.2848 O   0  0  0  0  0  0  0  0  0  0  0  0
  2  3  1  0
  2  1  1  6
  3  4  1  0
  5  2  1  0
  6  5  2  0
  8  7  1  0
  8  9  2  0
 10  9  1  0
 11 10  2  0
 12 11  1  0
 13 12  1  6
 13 14  1  0
 14  5  1  0
 15 13  1  0
 15 19  1  0
 16 15  2  0
 17 18  2  0
 17 11  1  0
 18  8  1  0
 20 21  1  1
 20 19  1  0
 20 31  1  0
 22 21  1  0
 22 23  2  0
 24 23  1  0
 25 30  2  0
 25 24  1  0
 26 25  1  0
 27 28  1  0
 27 26  2  0
 28 29  2  0
 29 30  1  0
 30 22  1  0
 31 32  1  0
 33 31  2  0
M  END
$$$$
