CYW.pdb
     RDKit          3D

 33 35  0  0  1  0  0  0  0  0999 V2000
    9.1075  -18.6630   19.4054 N   0  0  0  0  0  0  0  0  0  0  0  0
    8.4310  -18.4711   20.7024 C   0  0  1  0  0  0  0  0  0  0  0  0
    8.8199  -19.7060   21.5098 C   0  0  0  0  0  0  0  0  0  0  0  0
    8.2299  -19.5316   23.2003 S   0  0  0  0  0  0  0  0  0  0  0  0
    8.9279  -17.2240   21.2828 C   0  0  0  0  0  0  0  0  0  0  0  0
   10.1447  -16.8859   21.1007 O   0  0  0  0  0  0  0  0  0  0  0  0
    7.7469  -12.9788   16.6347 O   0  0  0  0  0  0  0  0  0  0  0  0
    7.7784  -13.2174   18.0185 C   0  0  0  0  0  0  0  0  0  0  0  0
    6.7560  -13.9107   18.6369 C   0  0  0  0  0  0  0  0  0  0  0  0
    6.8194  -14.1266   19.9951 C   0  0  0  0  0  0  0  0  0  0  0  0
    7.8657  -13.6762   20.7599 C   0  0  0  0  0  0  0  0  0  0  0  0
    7.8956  -13.9266   22.1937 C   0  0  0  0  0  0  0  0  0  0  0  0
    8.7602  -15.1008   22.5948 C   0  0  2  0  0  0  0  0  0  0  0  0
    8.1648  -16.3218   22.0543 N   0  0  0  0  0  0  0  0  0  0  0  0
    8.9923  -15.2070   24.0446 C   0  0  0  0  0  0  0  0  0  0  0  0
    8.3853  -14.4556   24.8779 O   0  0  0  0  0  0  0  0  0  0  0  0
    8.8825  -12.9883   20.1523 C   0  0  0  0  0  0  0  0  0  0  0  0
    8.8161  -12.7756   18.8037 C   0  0  0  0  0  0  0  0  0  0  0  0
    9.8980  -16.1461   24.6028 N   0  0  0  0  0  0  0  0  0  0  0  0
   10.1732  -16.2137   26.0567 C   0  0  1  0  0  0  0  0  0  0  0  0
    8.8307  -16.5516   26.6595 C   0  0  0  0  0  0  0  0  0  0  0  0
    7.7368  -15.6419   26.3689 C   0  0  0  0  0  0  0  0  0  0  0  0
    6.5951  -15.9236   25.6602 C   0  0  0  0  0  0  0  0  0  0  0  0
    5.8191  -14.8274   25.5704 N   0  0  0  0  0  0  0  0  0  0  0  0
    6.4617  -13.8288   26.2255 C   0  0  0  0  0  0  0  0  0  0  0  0
    6.1077  -12.5168   26.4463 C   0  0  0  0  0  0  0  0  0  0  0  0
    6.9131  -11.6571   27.1643 C   0  0  0  0  0  0  0  0  0  0  0  0
    8.1095  -12.1435   27.6709 C   0  0  0  0  0  0  0  0  0  0  0  0
    8.4505  -13.4511   27.4434 C   0  0  0  0  0  0  0  0  0  0  0  0
    7.6467  -14.3103   26.7258 C   0  0  0  0  0  0  0  0  0  0  0  0
   11.2768  -17.0871   26.3863 C   0  0  0  0  0  0  0  0  0  0  0  0
   11.9272  -17.8163   25.4066 O   0  0  0  0  0  0  0  0  0  0  0  0
   11.6779  -17.2162   27.5692 O   0  0  0  0  0  0  0  0  0  0  0  0
  2  3  1  0
  2  1  1  6
  3  4  1  0
  5  2  1  0
  6  5  2  0
  8  7  1  0
  8  9  2  0
 10  9  1  0
 11 10  2  0
 12 11  1  0
 13 12  1  1
 13 14  1  0
 14  5  1  0
 15 13  1  0
 15 19  1  0
 16 15  2  0
 17 18  2  0
 17 11  1  0
 18  8  1  0
 20 21  1  1
 20 19  1  0
 20 31  1  0
 22 21  1  0
 22 23  2  0
 24 23  1  0
 25 30  2  0
 25 24  1  0
 26 25  1  0
 27 28  1  0
 27 26  2  0
 28 29  2  0
 29 30  1  0
 30 22  1  0
 31 32  1  0
 33 31  2  0
M  END
$$$$
