DGH.pdb
     RDKit          3D

 23 23  0  0  1  0  0  0  0  0999 V2000
    8.4749  -18.4959   20.9393 N   0  0  0  0  0  0  0  0  0  0  0  0
    9.4689  -17.6322   20.3697 C   0  0  1  0  0  0  0  0  0  0  0  0
    9.4886  -17.6689   18.8595 C   0  0  0  0  0  0  0  0  0  0  0  0
   10.4827  -18.6590   18.4096 C   0  0  0  0  0  0  0  0  0  0  0  0
   10.8510  -19.5672   19.1785 O   0  0  0  0  0  0  0  0  0  0  0  0
    9.3206  -16.2457   20.8830 C   0  0  0  0  0  0  0  0  0  0  0  0
   10.2642  -15.4055   20.8347 O   0  0  0  0  0  0  0  0  0  0  0  0
   11.0088  -18.5863   17.1406 O   0  0  0  0  0  0  0  0  0  0  0  0
    8.0783  -15.8289   21.4535 N   0  0  0  0  0  0  0  0  0  0  0  0
    7.8456  -14.4912   21.9210 C   0  0  0  0  0  0  0  0  0  0  0  0
    8.3288  -14.2058   23.2733 C   0  0  0  0  0  0  0  0  0  0  0  0
    8.0646  -13.0678   23.8002 O   0  0  0  0  0  0  0  0  0  0  0  0
    9.0761  -15.1545   23.9964 N   0  0  0  0  0  0  0  0  0  0  0  0
    9.0787  -15.0536   25.4874 C   0  0  1  0  0  0  0  0  0  0  0  0
    7.6389  -15.0410   25.8645 C   0  0  0  0  0  0  0  0  0  0  0  0
    7.2190  -13.7501   26.4160 C   0  0  0  0  0  0  0  0  0  0  0  0
    7.9635  -12.6259   26.5957 C   0  0  0  0  0  0  0  0  0  0  0  0
    7.1210  -11.6571   27.0643 N   0  0  0  0  0  0  0  0  0  0  0  0
    5.9074  -12.2085   27.1537 C   0  0  0  0  0  0  0  0  0  0  0  0
    5.9286  -13.4861   26.7657 N   0  0  0  0  0  0  0  0  0  0  0  0
    9.7558  -16.3208   25.9120 C   0  0  0  0  0  0  0  0  0  0  0  0
    9.9661  -17.2500   25.0629 O   0  0  0  0  0  0  0  0  0  0  0  0
   10.1601  -16.5291   27.1805 O   0  0  0  0  0  0  0  0  0  0  0  0
  2  1  1  6
  2  6  1  0
  2  3  1  0
  3  4  1  0
  4  8  1  0
  4  5  2  0
  6  9  1  0
  7  6  2  0
  9 10  1  0
 10 11  1  0
 11 13  1  0
 11 12  2  0
 13 14  1  0
 14 21  1  0
 14 15  1  1
 16 17  2  0
 16 15  1  0
 18 17  1  0
 19 20  2  0
 19 18  1  0
 20 16  1  0
 21 22  2  0
 21 23  1  0
M  END
$$$$
