DGH.pdb
     RDKit          3D

 23 23  0  0  1  0  0  0  0  0999 V2000
    9.9765  -16.8746   19.0482 N   0  0  0  0  0  0  0  0  0  0  0  0
    8.7445  -17.6072   18.9853 C   0  0  1  0  0  0  0  0  0  0  0  0
    8.9394  -19.0619   18.6274 C   0  0  0  0  0  0  0  0  0  0  0  0
   10.3762  -19.3284   18.4382 C   0  0  0  0  0  0  0  0  0  0  0  0
   10.9675  -20.1252   19.1913 O   0  0  0  0  0  0  0  0  0  0  0  0
    7.9721  -17.4508   20.2449 C   0  0  0  0  0  0  0  0  0  0  0  0
    6.7145  -17.5751   20.2832 O   0  0  0  0  0  0  0  0  0  0  0  0
   11.0715  -18.7001   17.4311 O   0  0  0  0  0  0  0  0  0  0  0  0
    8.6551  -17.1502   21.4638 N   0  0  0  0  0  0  0  0  0  0  0  0
    8.0091  -17.1780   22.7460 C   0  0  0  0  0  0  0  0  0  0  0  0
    8.7708  -16.5833   23.8459 C   0  0  0  0  0  0  0  0  0  0  0  0
    9.9255  -16.0833   23.6030 O   0  0  0  0  0  0  0  0  0  0  0  0
    8.2586  -16.5555   25.1568 N   0  0  0  0  0  0  0  0  0  0  0  0
    9.0812  -15.8949   26.2151 C   0  0  1  0  0  0  0  0  0  0  0  0
    8.0862  -15.2511   27.1156 C   0  0  0  0  0  0  0  0  0  0  0  0
    7.5285  -14.0235   26.5421 C   0  0  0  0  0  0  0  0  0  0  0  0
    7.9503  -13.3351   25.4473 C   0  0  0  0  0  0  0  0  0  0  0  0
    7.0722  -12.3050   25.2580 N   0  0  0  0  0  0  0  0  0  0  0  0
    6.1549  -12.3944   26.2252 C   0  0  0  0  0  0  0  0  0  0  0  0
    6.4010  -13.4325   27.0284 N   0  0  0  0  0  0  0  0  0  0  0  0
    9.7703  -17.0481   26.8783 C   0  0  0  0  0  0  0  0  0  0  0  0
    9.5043  -18.2441   26.5217 O   0  0  0  0  0  0  0  0  0  0  0  0
   10.6779  -16.8748   27.8593 O   0  0  0  0  0  0  0  0  0  0  0  0
  2  1  1  1
  2  6  1  0
  2  3  1  0
  3  4  1  0
  4  8  1  0
  4  5  2  0
  6  9  1  0
  7  6  2  0
  9 10  1  0
 10 11  1  0
 11 13  1  0
 11 12  2  0
 13 14  1  0
 14 21  1  0
 14 15  1  1
 16 17  2  0
 16 15  1  0
 18 17  1  0
 19 20  2  0
 19 18  1  0
 20 16  1  0
 21 22  2  0
 21 23  1  0
M  END
$$$$
