DGH.pdb
     RDKit          3D

 23 23  0  0  1  0  0  0  0  0999 V2000
    6.8916  -18.9853   21.0599 N   0  0  0  0  0  0  0  0  0  0  0  0
    6.8433  -18.2392   19.8354 C   0  0  1  0  0  0  0  0  0  0  0  0
    5.4466  -18.1155   19.2731 C   0  0  0  0  0  0  0  0  0  0  0  0
    4.8169  -19.4472   19.2363 C   0  0  0  0  0  0  0  0  0  0  0  0
    5.4041  -20.4001   18.6897 O   0  0  0  0  0  0  0  0  0  0  0  0
    7.4879  -16.9106   20.0007 C   0  0  0  0  0  0  0  0  0  0  0  0
    7.5627  -16.0763   19.0537 O   0  0  0  0  0  0  0  0  0  0  0  0
    3.5797  -19.6454   19.8042 O   0  0  0  0  0  0  0  0  0  0  0  0
    8.0472  -16.5452   21.2640 N   0  0  0  0  0  0  0  0  0  0  0  0
    8.6153  -15.2514   21.5195 C   0  0  0  0  0  0  0  0  0  0  0  0
    9.1891  -15.0700   22.8542 C   0  0  0  0  0  0  0  0  0  0  0  0
    9.7826  -13.9683   23.1309 O   0  0  0  0  0  0  0  0  0  0  0  0
    9.1018  -16.0812   23.8295 N   0  0  0  0  0  0  0  0  0  0  0  0
    9.3789  -15.7087   25.2499 C   0  0  1  0  0  0  0  0  0  0  0  0
    8.0343  -15.6094   25.8804 C   0  0  0  0  0  0  0  0  0  0  0  0
    7.5564  -14.2265   25.9580 C   0  0  0  0  0  0  0  0  0  0  0  0
    8.1921  -13.0898   25.5652 C   0  0  0  0  0  0  0  0  0  0  0  0
    7.3219  -12.0546   25.7623 N   0  0  0  0  0  0  0  0  0  0  0  0
    6.1991  -12.5809   26.2595 C   0  0  0  0  0  0  0  0  0  0  0  0
    6.3054  -13.9055   26.3925 N   0  0  0  0  0  0  0  0  0  0  0  0
   10.1513  -16.8848   25.7645 C   0  0  0  0  0  0  0  0  0  0  0  0
   10.3160  -17.9144   25.0288 O   0  0  0  0  0  0  0  0  0  0  0  0
   10.6903  -16.9055   26.9995 O   0  0  0  0  0  0  0  0  0  0  0  0
  2  1  1  1
  2  6  1  0
  2  3  1  0
  3  4  1  0
  4  8  1  0
  4  5  2  0
  6  9  1  0
  7  6  2  0
  9 10  1  0
 10 11  1  0
 11 13  1  0
 11 12  2  0
 13 14  1  0
 14 21  1  0
 14 15  1  1
 16 17  2  0
 16 15  1  0
 18 17  1  0
 19 20  2  0
 19 18  1  0
 20 16  1  0
 21 22  2  0
 21 23  1  0
M  END
$$$$
