DGH.pdb
     RDKit          3D

 23 23  0  0  1  0  0  0  0  0999 V2000
    7.9346  -19.2444   19.4044 N   0  0  0  0  0  0  0  0  0  0  0  0
    9.1960  -19.7480   18.9422 C   0  0  1  0  0  0  0  0  0  0  0  0
    9.2148  -20.0217   17.4566 C   0  0  0  0  0  0  0  0  0  0  0  0
    8.7839  -21.4094   17.2118 C   0  0  0  0  0  0  0  0  0  0  0  0
    8.3723  -22.1106   18.1555 O   0  0  0  0  0  0  0  0  0  0  0  0
   10.3053  -18.8466   19.3481 C   0  0  0  0  0  0  0  0  0  0  0  0
   11.4088  -19.2889   19.7784 O   0  0  0  0  0  0  0  0  0  0  0  0
    8.8334  -21.9373   15.9424 O   0  0  0  0  0  0  0  0  0  0  0  0
   10.1389  -17.4302   19.2562 N   0  0  0  0  0  0  0  0  0  0  0  0
   11.1601  -16.4989   19.6460 C   0  0  0  0  0  0  0  0  0  0  0  0
   10.9062  -15.7739   20.8924 C   0  0  0  0  0  0  0  0  0  0  0  0
   11.6875  -14.8132   21.2226 O   0  0  0  0  0  0  0  0  0  0  0  0
    9.8267  -16.1160   21.7284 N   0  0  0  0  0  0  0  0  0  0  0  0
    9.5506  -15.2404   22.9076 C   0  0  1  0  0  0  0  0  0  0  0  0
    8.1070  -14.8976   22.7898 C   0  0  0  0  0  0  0  0  0  0  0  0
    7.8064  -14.1703   21.5538 C   0  0  0  0  0  0  0  0  0  0  0  0
    8.1245  -12.8882   21.2295 C   0  0  0  0  0  0  0  0  0  0  0  0
    7.7052  -12.6831   19.9449 N   0  0  0  0  0  0  0  0  0  0  0  0
    7.1543  -13.8272   19.5294 C   0  0  0  0  0  0  0  0  0  0  0  0
    7.1986  -14.7586   20.4854 N   0  0  0  0  0  0  0  0  0  0  0  0
    9.8162  -16.1453   24.0717 C   0  0  0  0  0  0  0  0  0  0  0  0
   10.0599  -17.3829   23.8782 O   0  0  0  0  0  0  0  0  0  0  0  0
    9.8067  -15.7009   25.3438 O   0  0  0  0  0  0  0  0  0  0  0  0
  2  1  1  6
  2  6  1  0
  2  3  1  0
  3  4  1  0
  4  8  1  0
  4  5  2  0
  6  9  1  0
  7  6  2  0
  9 10  1  0
 10 11  1  0
 11 13  1  0
 11 12  2  0
 13 14  1  0
 14 21  1  0
 14 15  1  6
 16 17  2  0
 16 15  1  0
 18 17  1  0
 19 20  2  0
 19 18  1  0
 20 16  1  0
 21 22  2  0
 21 23  1  0
M  END
$$$$
