DGH.pdb
     RDKit          3D

 23 23  0  0  1  0  0  0  0  0999 V2000
    9.2484  -18.3530   20.0131 N   0  0  0  0  0  0  0  0  0  0  0  0
    8.3861  -17.4524   19.3033 C   0  0  1  0  0  0  0  0  0  0  0  0
    7.0899  -18.0948   18.8679 C   0  0  0  0  0  0  0  0  0  0  0  0
    7.1174  -19.5276   19.2110 C   0  0  0  0  0  0  0  0  0  0  0  0
    8.1525  -20.0369   19.6809 O   0  0  0  0  0  0  0  0  0  0  0  0
    8.1478  -16.2166   20.0932 C   0  0  0  0  0  0  0  0  0  0  0  0
    7.4831  -15.2432   19.6359 O   0  0  0  0  0  0  0  0  0  0  0  0
    6.0026  -20.3093   19.0146 O   0  0  0  0  0  0  0  0  0  0  0  0
    8.6790  -16.1056   21.4152 N   0  0  0  0  0  0  0  0  0  0  0  0
    8.5038  -14.9359   22.2295 C   0  0  0  0  0  0  0  0  0  0  0  0
    9.1538  -14.9804   23.5407 C   0  0  0  0  0  0  0  0  0  0  0  0
   10.3727  -14.5984   23.6432 O   0  0  0  0  0  0  0  0  0  0  0  0
    8.4656  -15.4360   24.6810 N   0  0  0  0  0  0  0  0  0  0  0  0
    9.1856  -15.4075   25.9902 C   0  0  1  0  0  0  0  0  0  0  0  0
    8.1156  -15.1900   27.0016 C   0  0  0  0  0  0  0  0  0  0  0  0
    7.4972  -13.8670   26.8824 C   0  0  0  0  0  0  0  0  0  0  0  0
    7.9804  -12.6676   27.3045 C   0  0  0  0  0  0  0  0  0  0  0  0
    7.0902  -11.7119   26.9018 N   0  0  0  0  0  0  0  0  0  0  0  0
    6.1074  -12.3451   26.2552 C   0  0  0  0  0  0  0  0  0  0  0  0
    6.3222  -13.6628   26.2230 N   0  0  0  0  0  0  0  0  0  0  0  0
    9.7720  -16.7829   26.0849 C   0  0  0  0  0  0  0  0  0  0  0  0
    9.5904  -17.6229   25.1414 O   0  0  0  0  0  0  0  0  0  0  0  0
   10.4975  -17.1829   27.1477 O   0  0  0  0  0  0  0  0  0  0  0  0
  2  1  1  1
  2  6  1  0
  2  3  1  0
  3  4  1  0
  4  8  1  0
  4  5  2  0
  6  9  1  0
  7  6  2  0
  9 10  1  0
 10 11  1  0
 11 13  1  0
 11 12  2  0
 13 14  1  0
 14 21  1  0
 14 15  1  1
 16 17  2  0
 16 15  1  0
 18 17  1  0
 19 20  2  0
 19 18  1  0
 20 16  1  0
 21 22  2  0
 21 23  1  0
M  END
$$$$
