DGH.pdb
     RDKit          3D

 23 23  0  0  1  0  0  0  0  0999 V2000
    8.1940  -21.5935   22.0734 N   0  0  0  0  0  0  0  0  0  0  0  0
    7.1811  -21.2838   21.1056 C   0  0  1  0  0  0  0  0  0  0  0  0
    6.2827  -22.4578   20.7939 C   0  0  0  0  0  0  0  0  0  0  0  0
    7.0944  -23.5616   20.2519 C   0  0  0  0  0  0  0  0  0  0  0  0
    7.8159  -23.3739   19.2540 O   0  0  0  0  0  0  0  0  0  0  0  0
    6.4000  -20.0904   21.5219 C   0  0  0  0  0  0  0  0  0  0  0  0
    5.4559  -19.6257   20.8209 O   0  0  0  0  0  0  0  0  0  0  0  0
    7.0602  -24.8031   20.8434 O   0  0  0  0  0  0  0  0  0  0  0  0
    6.7106  -19.4324   22.7519 N   0  0  0  0  0  0  0  0  0  0  0  0
    5.9609  -18.3121   23.2469 C   0  0  0  0  0  0  0  0  0  0  0  0
    6.3375  -17.8454   24.5827 C   0  0  0  0  0  0  0  0  0  0  0  0
    5.6698  -16.8920   25.1189 O   0  0  0  0  0  0  0  0  0  0  0  0
    7.4157  -18.4222   25.2799 N   0  0  0  0  0  0  0  0  0  0  0  0
    7.8249  -17.7987   26.5748 C   0  0  1  0  0  0  0  0  0  0  0  0
    7.0455  -18.5344   27.6076 C   0  0  0  0  0  0  0  0  0  0  0  0
    7.3299  -19.9718   27.6008 C   0  0  0  0  0  0  0  0  0  0  0  0
    8.1999  -20.6569   26.8109 C   0  0  0  0  0  0  0  0  0  0  0  0
    8.1773  -21.9594   27.2244 N   0  0  0  0  0  0  0  0  0  0  0  0
    7.3103  -22.0294   28.2384 C   0  0  0  0  0  0  0  0  0  0  0  0
    6.7733  -20.8344   28.4969 N   0  0  0  0  0  0  0  0  0  0  0  0
    9.2884  -18.1093   26.6535 C   0  0  0  0  0  0  0  0  0  0  0  0
    9.8695  -18.7052   25.6861 O   0  0  0  0  0  0  0  0  0  0  0  0
   10.0356  -17.7820   27.7262 O   0  0  0  0  0  0  0  0  0  0  0  0
  2  1  1  1
  2  6  1  0
  2  3  1  0
  3  4  1  0
  4  8  1  0
  4  5  2  0
  6  9  1  0
  7  6  2  0
  9 10  1  0
 10 11  1  0
 11 13  1  0
 11 12  2  0
 13 14  1  0
 14 21  1  0
 14 15  1  1
 16 17  2  0
 16 15  1  0
 18 17  1  0
 19 20  2  0
 19 18  1  0
 20 16  1  0
 21 22  2  0
 21 23  1  0
M  END
$$$$
