DGH.pdb
     RDKit          3D

 23 23  0  0  1  0  0  0  0  0999 V2000
    9.9370  -14.1676   19.0168 N   0  0  0  0  0  0  0  0  0  0  0  0
    8.6634  -13.5938   19.3438 C   0  0  1  0  0  0  0  0  0  0  0  0
    7.8578  -13.2090   18.1250 C   0  0  0  0  0  0  0  0  0  0  0  0
    8.2381  -14.0766   16.9964 C   0  0  0  0  0  0  0  0  0  0  0  0
    9.0521  -15.0036   17.1686 O   0  0  0  0  0  0  0  0  0  0  0  0
    7.8967  -14.4900   20.2477 C   0  0  0  0  0  0  0  0  0  0  0  0
    6.8588  -14.1032   20.8573 O   0  0  0  0  0  0  0  0  0  0  0  0
    7.6976  -13.8682   15.7486 O   0  0  0  0  0  0  0  0  0  0  0  0
    8.3307  -15.8369   20.4473 N   0  0  0  0  0  0  0  0  0  0  0  0
    7.7395  -16.7093   21.4227 C   0  0  0  0  0  0  0  0  0  0  0  0
    8.3785  -16.7031   22.7401 C   0  0  0  0  0  0  0  0  0  0  0  0
    8.7427  -17.8167   23.2592 O   0  0  0  0  0  0  0  0  0  0  0  0
    8.5942  -15.5013   23.4406 N   0  0  0  0  0  0  0  0  0  0  0  0
    9.4625  -15.5466   24.6560 C   0  0  1  0  0  0  0  0  0  0  0  0
    9.4661  -14.1483   25.1661 C   0  0  0  0  0  0  0  0  0  0  0  0
    8.1147  -13.6504   25.4358 C   0  0  0  0  0  0  0  0  0  0  0  0
    7.3117  -12.9067   24.6281 C   0  0  0  0  0  0  0  0  0  0  0  0
    6.1191  -12.7543   25.2780 N   0  0  0  0  0  0  0  0  0  0  0  0
    6.2267  -13.4000   26.4427 C   0  0  0  0  0  0  0  0  0  0  0  0
    7.4319  -13.9601   26.5737 N   0  0  0  0  0  0  0  0  0  0  0  0
    8.7189  -16.4722   25.5698 C   0  0  0  0  0  0  0  0  0  0  0  0
    9.2974  -16.9582   26.5982 O   0  0  0  0  0  0  0  0  0  0  0  0
    7.4373  -16.8245   25.3478 O   0  0  0  0  0  0  0  0  0  0  0  0
  2  1  1  6
  2  6  1  0
  2  3  1  0
  3  4  1  0
  4  8  1  0
  4  5  2  0
  6  9  1  0
  7  6  2  0
  9 10  1  0
 10 11  1  0
 11 13  1  0
 11 12  2  0
 13 14  1  0
 14 21  1  0
 14 15  1  1
 16 17  2  0
 16 15  1  0
 18 17  1  0
 19 20  2  0
 19 18  1  0
 20 16  1  0
 21 22  2  0
 21 23  1  0
M  END
$$$$
