DGH.pdb
     RDKit          3D

 23 23  0  0  1  0  0  0  0  0999 V2000
   11.5706  -16.4037   20.8184 N   0  0  0  0  0  0  0  0  0  0  0  0
   10.2580  -16.9829   20.8239 C   0  0  1  0  0  0  0  0  0  0  0  0
   10.2628  -18.4611   20.5122 C   0  0  0  0  0  0  0  0  0  0  0  0
   11.4388  -18.7801   19.6837 C   0  0  0  0  0  0  0  0  0  0  0  0
   12.4039  -19.3918   20.1796 O   0  0  0  0  0  0  0  0  0  0  0  0
    9.5585  -16.6940   22.1026 C   0  0  0  0  0  0  0  0  0  0  0  0
    8.5479  -15.9366   22.1609 O   0  0  0  0  0  0  0  0  0  0  0  0
   11.4776  -18.4050   18.3607 O   0  0  0  0  0  0  0  0  0  0  0  0
   10.0282  -17.2825   23.3173 N   0  0  0  0  0  0  0  0  0  0  0  0
    9.3486  -17.1257   24.5725 C   0  0  0  0  0  0  0  0  0  0  0  0
    9.8295  -16.0285   25.4143 C   0  0  0  0  0  0  0  0  0  0  0  0
   10.8291  -15.3323   25.0163 O   0  0  0  0  0  0  0  0  0  0  0  0
    9.2166  -15.7314   26.6461 N   0  0  0  0  0  0  0  0  0  0  0  0
    9.7253  -14.5550   27.4146 C   0  0  1  0  0  0  0  0  0  0  0  0
    8.5129  -13.9690   28.0487 C   0  0  0  0  0  0  0  0  0  0  0  0
    7.6827  -13.2349   27.0902 C   0  0  0  0  0  0  0  0  0  0  0  0
    8.0162  -12.7951   25.8469 C   0  0  0  0  0  0  0  0  0  0  0  0
    6.8935  -12.2357   25.3044 N   0  0  0  0  0  0  0  0  0  0  0  0
    5.9237  -12.3501   26.2162 C   0  0  0  0  0  0  0  0  0  0  0  0
    6.3688  -12.9558   27.3199 N   0  0  0  0  0  0  0  0  0  0  0  0
   10.6378  -15.1791   28.4257 C   0  0  0  0  0  0  0  0  0  0  0  0
   11.2323  -14.4502   29.2880 O   0  0  0  0  0  0  0  0  0  0  0  0
   10.8660  -16.5067   28.4646 O   0  0  0  0  0  0  0  0  0  0  0  0
  2  1  1  1
  2  6  1  0
  2  3  1  0
  3  4  1  0
  4  8  1  0
  4  5  2  0
  6  9  1  0
  7  6  2  0
  9 10  1  0
 10 11  1  0
 11 13  1  0
 11 12  2  0
 13 14  1  0
 14 21  1  0
 14 15  1  1
 16 17  2  0
 16 15  1  0
 18 17  1  0
 19 20  2  0
 19 18  1  0
 20 16  1  0
 21 22  2  0
 21 23  1  0
M  END
$$$$
