VID.pdb
     RDKit          3D

 24 23  0  0  1  0  0  0  0  0999 V2000
   17.3635  -13.4158  -19.5537 C   0  0  0  0  0  0  0  0  0  0  0  0
   18.0648  -12.7596  -18.4053 C   0  0  2  0  0  0  0  0  0  0  0  0
   18.8014  -11.5508  -18.9418 C   0  0  0  0  0  0  0  0  0  0  0  0
   19.0972  -13.6862  -17.7552 C   0  0  2  0  0  0  0  0  0  0  0  0
   18.5612  -14.8750  -17.2558 N   0  0  0  0  0  0  0  0  0  0  0  0
   19.8021  -12.9527  -16.6492 C   0  0  0  0  0  0  0  0  0  0  0  0
   19.2100  -12.7639  -15.5616 O   0  0  0  0  0  0  0  0  0  0  0  0
   24.4489  -14.3138  -14.9587 C   0  0  0  0  0  0  0  0  0  0  0  0
   23.0554  -13.7301  -15.0450 C   0  0  0  0  0  0  0  0  0  0  0  0
   23.0466  -12.2981  -15.4782 C   0  0  2  0  0  0  0  0  0  0  0  0
   23.9634  -11.4386  -14.6355 C   0  0  0  0  0  0  0  0  0  0  0  0
   21.7108  -11.6767  -15.7105 C   0  0  2  0  0  0  0  0  0  0  0  0
   21.1076  -12.4653  -16.7833 N   0  0  0  0  0  0  0  0  0  0  0  0
   21.7038  -10.2444  -16.0407 C   0  0  0  0  0  0  0  0  0  0  0  0
   21.9486   -9.8334  -17.2331 O   0  0  0  0  0  0  0  0  0  0  0  0
   21.4308   -9.2330  -15.0983 N   0  0  0  0  0  0  0  0  0  0  0  0
   21.3510   -7.8249  -15.5338 C   0  0  1  0  0  0  0  0  0  0  0  0
   20.2370   -7.6499  -16.5340 C   0  0  0  0  0  0  0  0  0  0  0  0
   20.0395   -6.2615  -16.9821 C   0  0  0  0  0  0  0  0  0  0  0  0
   20.9097   -5.7387  -17.7188 O   0  0  0  0  0  0  0  0  0  0  0  0
   21.0253   -6.9515  -14.3825 C   0  0  0  0  0  0  0  0  0  0  0  0
   21.1672   -5.5876  -14.4647 O   0  0  0  0  0  0  0  0  0  0  0  0
   18.9404   -5.5148  -16.6260 O   0  0  0  0  0  0  0  0  0  0  0  0
   20.6165   -7.4652  -13.3247 O   0  0  0  0  0  0  0  0  0  0  0  0
  2  1  1  6
  2  4  1  0
  3  2  1  0
  4  6  1  0
  4  5  1  1
  6 13  1  0
  6  7  2  0
  8  9  1  0
  9 10  1  0
 10 12  1  0
 10 11  1  1
 12 14  1  0
 12 13  1  6
 14 15  2  0
 16 14  1  0
 16 17  1  0
 17 21  1  0
 17 18  1  6
 19 18  1  0
 19 20  2  0
 21 22  1  0
 23 19  1  0
 24 21  2  0
M  END
$$$$
