VID.pdb
     RDKit          3D

 24 23  0  0  1  0  0  0  0  0999 V2000
   26.3305  -18.8814  -16.9882 C   0  0  0  0  0  0  0  0  0  0  0  0
   27.2924  -18.4153  -15.9401 C   0  0  2  0  0  0  0  0  0  0  0  0
   28.2981  -17.5018  -16.6075 C   0  0  0  0  0  0  0  0  0  0  0  0
   28.0638  -19.5782  -15.3080 C   0  0  2  0  0  0  0  0  0  0  0  0
   28.7471  -20.3758  -16.2283 N   0  0  0  0  0  0  0  0  0  0  0  0
   27.1178  -20.4326  -14.5121 C   0  0  0  0  0  0  0  0  0  0  0  0
   26.6479  -21.4734  -15.0269 O   0  0  0  0  0  0  0  0  0  0  0  0
   25.5150  -21.1768   -8.6401 C   0  0  0  0  0  0  0  0  0  0  0  0
   25.1700  -21.4670  -10.0846 C   0  0  0  0  0  0  0  0  0  0  0  0
   26.0280  -20.7162  -11.0534 C   0  0  2  0  0  0  0  0  0  0  0  0
   26.1557  -19.2526  -10.6913 C   0  0  0  0  0  0  0  0  0  0  0  0
   25.7550  -20.9395  -12.5026 C   0  0  2  0  0  0  0  0  0  0  0  0
   26.7344  -20.1119  -13.2044 N   0  0  0  0  0  0  0  0  0  0  0  0
   24.3903  -20.6473  -12.9640 C   0  0  0  0  0  0  0  0  0  0  0  0
   24.0274  -19.4504  -13.2582 O   0  0  0  0  0  0  0  0  0  0  0  0
   23.3968  -21.6343  -13.1198 N   0  0  0  0  0  0  0  0  0  0  0  0
   22.0834  -21.2718  -13.6876 C   0  0  1  0  0  0  0  0  0  0  0  0
   21.6327  -22.3203  -14.6724 C   0  0  0  0  0  0  0  0  0  0  0  0
   20.3541  -22.0165  -15.3360 C   0  0  0  0  0  0  0  0  0  0  0  0
   19.7597  -20.9533  -15.0363 O   0  0  0  0  0  0  0  0  0  0  0  0
   21.0587  -21.2290  -12.6187 C   0  0  0  0  0  0  0  0  0  0  0  0
   21.2139  -21.9480  -11.4584 O   0  0  0  0  0  0  0  0  0  0  0  0
   19.7852  -22.8505  -16.2703 O   0  0  0  0  0  0  0  0  0  0  0  0
   20.0416  -20.5290  -12.7776 O   0  0  0  0  0  0  0  0  0  0  0  0
  2  1  1  6
  2  4  1  0
  3  2  1  0
  4  6  1  0
  4  5  1  6
  6 13  1  0
  6  7  2  0
  8  9  1  0
  9 10  1  0
 10 12  1  0
 10 11  1  1
 12 14  1  0
 12 13  1  6
 14 15  2  0
 16 14  1  0
 16 17  1  0
 17 21  1  0
 17 18  1  6
 19 18  1  0
 19 20  2  0
 21 22  1  0
 23 19  1  0
 24 21  2  0
M  END
$$$$
