VID.pdb
     RDKit          3D

 24 23  0  0  1  0  0  0  0  0999 V2000
   21.7639  -19.8685  -16.2043 C   0  0  0  0  0  0  0  0  0  0  0  0
   22.6037  -18.8101  -15.5595 C   0  0  2  0  0  0  0  0  0  0  0  0
   22.9833  -17.8058  -16.6266 C   0  0  0  0  0  0  0  0  0  0  0  0
   23.8983  -19.3805  -14.9719 C   0  0  2  0  0  0  0  0  0  0  0  0
   24.7365  -19.9796  -15.9146 N   0  0  0  0  0  0  0  0  0  0  0  0
   23.5642  -20.3758  -13.8967 C   0  0  0  0  0  0  0  0  0  0  0  0
   23.4673  -21.5895  -14.1909 O   0  0  0  0  0  0  0  0  0  0  0  0
   26.0333  -20.2961   -9.2537 C   0  0  0  0  0  0  0  0  0  0  0  0
   25.2970  -20.7307  -10.5022 C   0  0  0  0  0  0  0  0  0  0  0  0
   23.8094  -20.6547  -10.3607 C   0  0  2  0  0  0  0  0  0  0  0  0
   23.3186  -21.3286   -9.0980 C   0  0  0  0  0  0  0  0  0  0  0  0
   23.0031  -21.0078  -11.5647 C   0  0  2  0  0  0  0  0  0  0  0  0
   23.3541  -20.0007  -12.5644 N   0  0  0  0  0  0  0  0  0  0  0  0
   21.5469  -21.0810  -11.3786 C   0  0  0  0  0  0  0  0  0  0  0  0
   20.8460  -20.0234  -11.1768 O   0  0  0  0  0  0  0  0  0  0  0  0
   20.8212  -22.2886  -11.4096 N   0  0  0  0  0  0  0  0  0  0  0  0
   19.3518  -22.2667  -11.2716 C   0  0  1  0  0  0  0  0  0  0  0  0
   18.7171  -23.1673  -12.3004 C   0  0  0  0  0  0  0  0  0  0  0  0
   17.2718  -23.3752  -12.1125 C   0  0  0  0  0  0  0  0  0  0  0  0
   16.6031  -22.4733  -11.5531 O   0  0  0  0  0  0  0  0  0  0  0  0
   18.9550  -22.7954   -9.9460 C   0  0  0  0  0  0  0  0  0  0  0  0
   19.8838  -23.3400   -9.0928 O   0  0  0  0  0  0  0  0  0  0  0  0
   16.6254  -24.5173  -12.5250 O   0  0  0  0  0  0  0  0  0  0  0  0
   17.7595  -22.7438   -9.6026 O   0  0  0  0  0  0  0  0  0  0  0  0
  2  1  1  6
  2  4  1  0
  3  2  1  0
  4  6  1  0
  4  5  1  6
  6 13  1  0
  6  7  2  0
  8  9  1  0
  9 10  1  0
 10 12  1  0
 10 11  1  1
 12 14  1  0
 12 13  1  6
 14 15  2  0
 16 14  1  0
 16 17  1  0
 17 21  1  0
 17 18  1  6
 19 18  1  0
 19 20  2  0
 21 22  1  0
 23 19  1  0
 24 21  2  0
M  END
$$$$
