VID.pdb
     RDKit          3D

 24 23  0  0  1  0  0  0  0  0999 V2000
   16.5408  -11.2273  -15.1595 C   0  0  0  0  0  0  0  0  0  0  0  0
   16.8447  -11.8465  -13.8308 C   0  0  2  0  0  0  0  0  0  0  0  0
   17.4903  -13.1922  -14.0836 C   0  0  0  0  0  0  0  0  0  0  0  0
   15.5780  -12.0834  -13.0024 C   0  0  2  0  0  0  0  0  0  0  0  0
   14.6732  -12.9723  -13.5864 N   0  0  0  0  0  0  0  0  0  0  0  0
   14.8938  -10.7700  -12.7472 C   0  0  0  0  0  0  0  0  0  0  0  0
   14.0030  -10.3774  -13.5354 O   0  0  0  0  0  0  0  0  0  0  0  0
   12.0436   -9.7502   -8.6907 C   0  0  0  0  0  0  0  0  0  0  0  0
   12.6989   -9.7384  -10.0547 C   0  0  0  0  0  0  0  0  0  0  0  0
   13.8541   -8.7916  -10.1408 C   0  0  2  0  0  0  0  0  0  0  0  0
   13.5431   -7.4495   -9.5151 C   0  0  0  0  0  0  0  0  0  0  0  0
   14.5297   -8.6779  -11.4655 C   0  0  2  0  0  0  0  0  0  0  0  0
   15.2127   -9.9565  -11.6534 N   0  0  0  0  0  0  0  0  0  0  0  0
   15.4614   -7.5530  -11.6306 C   0  0  0  0  0  0  0  0  0  0  0  0
   16.5146   -7.4466  -10.9024 O   0  0  0  0  0  0  0  0  0  0  0  0
   15.2790   -6.5284  -12.5807 N   0  0  0  0  0  0  0  0  0  0  0  0
   16.2521   -5.4217  -12.6639 C   0  0  1  0  0  0  0  0  0  0  0  0
   17.0115   -5.4906  -13.9642 C   0  0  0  0  0  0  0  0  0  0  0  0
   17.9174   -4.3535  -14.1962 C   0  0  0  0  0  0  0  0  0  0  0  0
   18.9881   -4.2961  -13.5452 O   0  0  0  0  0  0  0  0  0  0  0  0
   15.5467   -4.1192  -12.6560 C   0  0  0  0  0  0  0  0  0  0  0  0
   16.1929   -2.9650  -12.2854 O   0  0  0  0  0  0  0  0  0  0  0  0
   17.6377   -3.3522  -15.0971 O   0  0  0  0  0  0  0  0  0  0  0  0
   14.3486   -4.0732  -12.9913 O   0  0  0  0  0  0  0  0  0  0  0  0
  2  1  1  6
  2  4  1  0
  3  2  1  0
  4  6  1  0
  4  5  1  6
  6 13  1  0
  6  7  2  0
  8  9  1  0
  9 10  1  0
 10 12  1  0
 10 11  1  6
 12 14  1  0
 12 13  1  1
 14 15  2  0
 16 14  1  0
 16 17  1  0
 17 21  1  0
 17 18  1  6
 19 18  1  0
 19 20  2  0
 21 22  1  0
 23 19  1  0
 24 21  2  0
M  END
$$$$
