VID.pdb
     RDKit          3D

 24 23  0  0  1  0  0  0  0  0999 V2000
   29.2616  -20.7161  -13.3617 C   0  0  0  0  0  0  0  0  0  0  0  0
   28.3083  -20.6732  -14.5153 C   0  0  2  0  0  0  0  0  0  0  0  0
   28.9318  -19.8212  -15.6001 C   0  0  0  0  0  0  0  0  0  0  0  0
   26.9686  -20.0367  -14.1322 C   0  0  2  0  0  0  0  0  0  0  0  0
   27.0623  -18.6959  -13.7537 N   0  0  0  0  0  0  0  0  0  0  0  0
   26.3388  -20.8268  -13.0198 C   0  0  0  0  0  0  0  0  0  0  0  0
   26.1726  -22.0605  -13.1595 O   0  0  0  0  0  0  0  0  0  0  0  0
   26.9530  -20.1929   -7.7830 C   0  0  0  0  0  0  0  0  0  0  0  0
   26.6562  -20.7478   -9.1592 C   0  0  0  0  0  0  0  0  0  0  0  0
   25.2445  -20.5102   -9.5940 C   0  0  2  0  0  0  0  0  0  0  0  0
   24.2400  -21.0190   -8.5833 C   0  0  0  0  0  0  0  0  0  0  0  0
   24.9040  -20.8835  -10.9973 C   0  0  2  0  0  0  0  0  0  0  0  0
   25.9248  -20.2367  -11.8197 N   0  0  0  0  0  0  0  0  0  0  0  0
   23.5537  -20.5311  -11.4589 C   0  0  0  0  0  0  0  0  0  0  0  0
   23.2404  -19.3174  -11.7406 O   0  0  0  0  0  0  0  0  0  0  0  0
   22.5214  -21.4753  -11.6284 N   0  0  0  0  0  0  0  0  0  0  0  0
   21.2183  -21.0493  -12.1753 C   0  0  1  0  0  0  0  0  0  0  0  0
   21.0840  -21.4923  -13.6098 C   0  0  0  0  0  0  0  0  0  0  0  0
   19.7561  -21.2470  -14.1964 C   0  0  0  0  0  0  0  0  0  0  0  0
   19.1525  -22.2042  -14.7375 O   0  0  0  0  0  0  0  0  0  0  0  0
   20.1145  -21.6963  -11.4288 C   0  0  0  0  0  0  0  0  0  0  0  0
   18.8071  -21.3297  -11.6371 O   0  0  0  0  0  0  0  0  0  0  0  0
   19.1510  -20.0118  -14.1753 O   0  0  0  0  0  0  0  0  0  0  0  0
   20.3795  -22.5866  -10.5999 O   0  0  0  0  0  0  0  0  0  0  0  0
  2  1  1  1
  2  4  1  0
  3  2  1  0
  4  6  1  0
  4  5  1  1
  6 13  1  0
  6  7  2  0
  8  9  1  0
  9 10  1  0
 10 12  1  0
 10 11  1  1
 12 14  1  0
 12 13  1  6
 14 15  2  0
 16 14  1  0
 16 17  1  0
 17 21  1  0
 17 18  1  6
 19 18  1  0
 19 20  2  0
 21 22  1  0
 23 19  1  0
 24 21  2  0
M  END
$$$$
