VID.pdb
     RDKit          3D

 24 23  0  0  1  0  0  0  0  0999 V2000
   19.8589  -18.7540  -16.5389 C   0  0  0  0  0  0  0  0  0  0  0  0
   21.0836  -19.2961  -17.2078 C   0  0  2  0  0  0  0  0  0  0  0  0
   20.7425  -20.6631  -17.7615 C   0  0  0  0  0  0  0  0  0  0  0  0
   22.2483  -19.4658  -16.2272 C   0  0  2  0  0  0  0  0  0  0  0  0
   21.9741  -20.3232  -15.1597 N   0  0  0  0  0  0  0  0  0  0  0  0
   22.6550  -18.1204  -15.6954 C   0  0  0  0  0  0  0  0  0  0  0  0
   22.1237  -17.6874  -14.6469 O   0  0  0  0  0  0  0  0  0  0  0  0
   27.7047  -16.7838  -15.6823 C   0  0  0  0  0  0  0  0  0  0  0  0
   26.2328  -16.9345  -15.3650 C   0  0  0  0  0  0  0  0  0  0  0  0
   25.3931  -15.8434  -15.9507 C   0  0  2  0  0  0  0  0  0  0  0  0
   25.8951  -14.4674  -15.5711 C   0  0  0  0  0  0  0  0  0  0  0  0
   23.9153  -15.9871  -15.8108 C   0  0  2  0  0  0  0  0  0  0  0  0
   23.6136  -17.3204  -16.3286 N   0  0  0  0  0  0  0  0  0  0  0  0
   23.0927  -14.9652  -16.4739 C   0  0  0  0  0  0  0  0  0  0  0  0
   23.2310  -14.7057  -17.7246 O   0  0  0  0  0  0  0  0  0  0  0  0
   22.1081  -14.2097  -15.8066 N   0  0  0  0  0  0  0  0  0  0  0  0
   21.2890  -13.2404  -16.5605 C   0  0  1  0  0  0  0  0  0  0  0  0
   19.8703  -13.2480  -16.0514 C   0  0  0  0  0  0  0  0  0  0  0  0
   19.0023  -12.2294  -16.6651 C   0  0  0  0  0  0  0  0  0  0  0  0
   19.1675  -11.9508  -17.8770 O   0  0  0  0  0  0  0  0  0  0  0  0
   21.8038  -11.8668  -16.3545 C   0  0  0  0  0  0  0  0  0  0  0  0
   21.7056  -10.9172  -17.3423 O   0  0  0  0  0  0  0  0  0  0  0  0
   18.0185  -11.5712  -15.9642 O   0  0  0  0  0  0  0  0  0  0  0  0
   22.3335  -11.5714  -15.2673 O   0  0  0  0  0  0  0  0  0  0  0  0
  2  1  1  1
  2  4  1  0
  3  2  1  0
  4  6  1  0
  4  5  1  1
  6 13  1  0
  6  7  2  0
  8  9  1  0
  9 10  1  0
 10 12  1  0
 10 11  1  1
 12 14  1  0
 12 13  1  6
 14 15  2  0
 16 14  1  0
 16 17  1  0
 17 21  1  0
 17 18  1  1
 19 18  1  0
 19 20  2  0
 21 22  1  0
 23 19  1  0
 24 21  2  0
M  END
$$$$
