VID.pdb
     RDKit          3D

 24 23  0  0  1  0  0  0  0  0999 V2000
   18.1927  -10.0762  -18.8808 C   0  0  0  0  0  0  0  0  0  0  0  0
   19.2262  -11.0016  -19.4437 C   0  0  2  0  0  0  0  0  0  0  0  0
   18.6383  -11.6595  -20.6737 C   0  0  0  0  0  0  0  0  0  0  0  0
   19.6060  -12.1098  -18.4565 C   0  0  2  0  0  0  0  0  0  0  0  0
   18.5433  -12.9409  -18.0963 N   0  0  0  0  0  0  0  0  0  0  0  0
   20.2018  -11.4967  -17.2206 C   0  0  0  0  0  0  0  0  0  0  0  0
   19.4596  -11.2308  -16.2472 O   0  0  0  0  0  0  0  0  0  0  0  0
   24.5389  -13.5735  -15.2572 C   0  0  0  0  0  0  0  0  0  0  0  0
   23.2102  -12.8724  -15.4383 C   0  0  0  0  0  0  0  0  0  0  0  0
   23.3470  -11.3909  -15.5961 C   0  0  2  0  0  0  0  0  0  0  0  0
   24.1881  -10.7729  -14.5006 C   0  0  0  0  0  0  0  0  0  0  0  0
   22.0957  -10.6285  -15.8746 C   0  0  2  0  0  0  0  0  0  0  0  0
   21.5667  -11.2064  -17.1086 N   0  0  0  0  0  0  0  0  0  0  0  0
   22.2305   -9.1694  -15.9910 C   0  0  0  0  0  0  0  0  0  0  0  0
   22.6232   -8.6208  -17.0844 O   0  0  0  0  0  0  0  0  0  0  0  0
   21.9431   -8.2780  -14.9382 N   0  0  0  0  0  0  0  0  0  0  0  0
   22.0306   -6.8219  -15.1636 C   0  0  1  0  0  0  0  0  0  0  0  0
   20.9948   -6.3856  -16.1680 C   0  0  0  0  0  0  0  0  0  0  0  0
   20.9628   -4.9339  -16.4116 C   0  0  0  0  0  0  0  0  0  0  0  0
   20.0599   -4.2536  -15.8682 O   0  0  0  0  0  0  0  0  0  0  0  0
   21.7355   -6.0918  -13.9090 C   0  0  0  0  0  0  0  0  0  0  0  0
   22.1200   -4.7835  -13.7425 O   0  0  0  0  0  0  0  0  0  0  0  0
   21.8820   -4.2940  -17.2103 O   0  0  0  0  0  0  0  0  0  0  0  0
   21.1289   -6.6764  -12.9923 O   0  0  0  0  0  0  0  0  0  0  0  0
  2  1  1  1
  2  4  1  0
  3  2  1  0
  4  6  1  0
  4  5  1  1
  6 13  1  0
  6  7  2  0
  8  9  1  0
  9 10  1  0
 10 12  1  0
 10 11  1  1
 12 14  1  0
 12 13  1  6
 14 15  2  0
 16 14  1  0
 16 17  1  0
 17 21  1  0
 17 18  1  6
 19 18  1  0
 19 20  2  0
 21 22  1  0
 23 19  1  0
 24 21  2  0
M  END
$$$$
