VID.pdb
     RDKit          3D

 24 23  0  0  1  0  0  0  0  0999 V2000
   19.4395  -13.1828  -18.3332 C   0  0  0  0  0  0  0  0  0  0  0  0
   20.6851  -13.4534  -19.1183 C   0  0  2  0  0  0  0  0  0  0  0  0
   20.3335  -14.4243  -20.2252 C   0  0  0  0  0  0  0  0  0  0  0  0
   21.7783  -14.0980  -18.2602 C   0  0  2  0  0  0  0  0  0  0  0  0
   21.4212  -15.3335  -17.7161 N   0  0  0  0  0  0  0  0  0  0  0  0
   22.1653  -13.1580  -17.1534 C   0  0  0  0  0  0  0  0  0  0  0  0
   21.6269  -13.2775  -16.0287 O   0  0  0  0  0  0  0  0  0  0  0  0
   26.9043  -10.4236  -14.8518 C   0  0  0  0  0  0  0  0  0  0  0  0
   25.3966  -10.3524  -14.9608 C   0  0  0  0  0  0  0  0  0  0  0  0
   24.8450  -11.2366  -16.0343 C   0  0  2  0  0  0  0  0  0  0  0  0
   25.6385  -11.1416  -17.3191 C   0  0  0  0  0  0  0  0  0  0  0  0
   23.3703  -11.1866  -16.2513 C   0  0  2  0  0  0  0  0  0  0  0  0
   23.1131  -12.1424  -17.3269 N   0  0  0  0  0  0  0  0  0  0  0  0
   22.7999   -9.8695  -16.5685 C   0  0  0  0  0  0  0  0  0  0  0  0
   23.1830   -9.2076  -17.6009 O   0  0  0  0  0  0  0  0  0  0  0  0
   21.8085   -9.2452  -15.7855 N   0  0  0  0  0  0  0  0  0  0  0  0
   21.3331   -7.8941  -16.1421 C   0  0  1  0  0  0  0  0  0  0  0  0
   19.8766   -7.9377  -16.5276 C   0  0  0  0  0  0  0  0  0  0  0  0
   19.2913   -6.6208  -16.8290 C   0  0  0  0  0  0  0  0  0  0  0  0
   19.7722   -5.9522  -17.7751 O   0  0  0  0  0  0  0  0  0  0  0  0
   21.4328   -6.9917  -14.9716 C   0  0  0  0  0  0  0  0  0  0  0  0
   21.2998   -5.6316  -15.1114 O   0  0  0  0  0  0  0  0  0  0  0  0
   18.2394   -6.0943  -16.1159 O   0  0  0  0  0  0  0  0  0  0  0  0
   21.6406   -7.4771  -13.8442 O   0  0  0  0  0  0  0  0  0  0  0  0
  2  1  1  1
  2  4  1  0
  3  2  1  0
  4  6  1  0
  4  5  1  1
  6 13  1  0
  6  7  2  0
  8  9  1  0
  9 10  1  0
 10 12  1  0
 10 11  1  6
 12 14  1  0
 12 13  1  6
 14 15  2  0
 16 14  1  0
 16 17  1  0
 17 21  1  0
 17 18  1  1
 19 18  1  0
 19 20  2  0
 21 22  1  0
 23 19  1  0
 24 21  2  0
M  END
$$$$
