VID.pdb
     RDKit          3D

 24 23  0  0  1  0  0  0  0  0999 V2000
   18.6196  -11.7754  -19.9524 C   0  0  0  0  0  0  0  0  0  0  0  0
   19.9840  -12.3213  -20.2376 C   0  0  2  0  0  0  0  0  0  0  0  0
   19.9309  -13.0247  -21.5770 C   0  0  0  0  0  0  0  0  0  0  0  0
   20.4255  -13.3462  -19.1880 C   0  0  2  0  0  0  0  0  0  0  0  0
   19.5915  -14.4623  -19.0954 N   0  0  0  0  0  0  0  0  0  0  0  0
   20.5178  -12.6789  -17.8446 C   0  0  0  0  0  0  0  0  0  0  0  0
   19.5505  -12.7551  -17.0525 O   0  0  0  0  0  0  0  0  0  0  0  0
   24.5417  -13.6171  -14.8304 C   0  0  0  0  0  0  0  0  0  0  0  0
   23.1702  -13.2546  -15.3571 C   0  0  0  0  0  0  0  0  0  0  0  0
   22.9728  -11.7793  -15.5089 C   0  0  2  0  0  0  0  0  0  0  0  0
   23.3271  -11.0208  -14.2485 C   0  0  0  0  0  0  0  0  0  0  0  0
   21.6859  -11.3349  -16.1179 C   0  0  2  0  0  0  0  0  0  0  0  0
   21.6518  -11.9673  -17.4353 N   0  0  0  0  0  0  0  0  0  0  0  0
   21.4789   -9.8835  -16.2241 C   0  0  0  0  0  0  0  0  0  0  0  0
   22.3025   -9.1375  -16.8690 O   0  0  0  0  0  0  0  0  0  0  0  0
   20.3845   -9.2121  -15.6434 N   0  0  0  0  0  0  0  0  0  0  0  0
   20.2524   -7.7502  -15.7993 C   0  0  1  0  0  0  0  0  0  0  0  0
   18.8172   -7.3320  -15.6065 C   0  0  0  0  0  0  0  0  0  0  0  0
   18.5980   -5.8773  -15.6673 C   0  0  0  0  0  0  0  0  0  0  0  0
   19.5332   -5.1455  -16.0715 O   0  0  0  0  0  0  0  0  0  0  0  0
   21.0391   -7.0518  -14.7565 C   0  0  0  0  0  0  0  0  0  0  0  0
   21.6025   -7.7429  -13.7114 O   0  0  0  0  0  0  0  0  0  0  0  0
   17.4105   -5.2887  -15.2991 O   0  0  0  0  0  0  0  0  0  0  0  0
   21.1902   -5.8184  -14.8313 O   0  0  0  0  0  0  0  0  0  0  0  0
  2  1  1  1
  2  4  1  0
  3  2  1  0
  4  6  1  0
  4  5  1  1
  6 13  1  0
  6  7  2  0
  8  9  1  0
  9 10  1  0
 10 12  1  0
 10 11  1  1
 12 14  1  0
 12 13  1  6
 14 15  2  0
 16 14  1  0
 16 17  1  0
 17 21  1  0
 17 18  1  1
 19 18  1  0
 19 20  2  0
 21 22  1  0
 23 19  1  0
 24 21  2  0
M  END
$$$$
