VID.pdb
     RDKit          3D

 24 23  0  0  1  0  0  0  0  0999 V2000
   15.5366   -9.2937  -15.5134 C   0  0  0  0  0  0  0  0  0  0  0  0
   16.2493  -10.0240  -16.6088 C   0  0  2  0  0  0  0  0  0  0  0  0
   15.2030  -10.6633  -17.4966 C   0  0  0  0  0  0  0  0  0  0  0  0
   17.1486  -11.1398  -16.0672 C   0  0  2  0  0  0  0  0  0  0  0  0
   16.4687  -12.1134  -15.3325 N   0  0  0  0  0  0  0  0  0  0  0  0
   18.2337  -10.5403  -15.2179 C   0  0  0  0  0  0  0  0  0  0  0  0
   18.0627  -10.4417  -13.9809 O   0  0  0  0  0  0  0  0  0  0  0  0
   23.9301  -11.1632  -14.2990 C   0  0  0  0  0  0  0  0  0  0  0  0
   22.8261  -10.1382  -14.1565 C   0  0  0  0  0  0  0  0  0  0  0  0
   21.6353  -10.4378  -15.0113 C   0  0  2  0  0  0  0  0  0  0  0  0
   22.0168  -10.7133  -16.4494 C   0  0  0  0  0  0  0  0  0  0  0  0
   20.4684   -9.5181  -14.8806 C   0  0  2  0  0  0  0  0  0  0  0  0
   19.4421  -10.0816  -15.7558 N   0  0  0  0  0  0  0  0  0  0  0  0
   20.7118   -8.1033  -15.1962 C   0  0  0  0  0  0  0  0  0  0  0  0
   20.4090   -7.6142  -16.3450 O   0  0  0  0  0  0  0  0  0  0  0  0
   21.2799   -7.1922  -14.2836 N   0  0  0  0  0  0  0  0  0  0  0  0
   21.4081   -5.7682  -14.6502 C   0  0  1  0  0  0  0  0  0  0  0  0
   20.0476   -5.1231  -14.7228 C   0  0  0  0  0  0  0  0  0  0  0  0
   20.0790   -3.6725  -14.9730 C   0  0  0  0  0  0  0  0  0  0  0  0
   20.8832   -3.2277  -15.8266 O   0  0  0  0  0  0  0  0  0  0  0  0
   22.1660   -5.0381  -13.6077 C   0  0  0  0  0  0  0  0  0  0  0  0
   22.5643   -3.7376  -13.8004 O   0  0  0  0  0  0  0  0  0  0  0  0
   19.2629   -2.7861  -14.3092 O   0  0  0  0  0  0  0  0  0  0  0  0
   22.4449   -5.6156  -12.5406 O   0  0  0  0  0  0  0  0  0  0  0  0
  2  1  1  1
  2  4  1  0
  3  2  1  0
  4  6  1  0
  4  5  1  1
  6 13  1  0
  6  7  2  0
  8  9  1  0
  9 10  1  0
 10 12  1  0
 10 11  1  6
 12 14  1  0
 12 13  1  6
 14 15  2  0
 16 14  1  0
 16 17  1  0
 17 21  1  0
 17 18  1  1
 19 18  1  0
 19 20  2  0
 21 22  1  0
 23 19  1  0
 24 21  2  0
M  END
$$$$
