VID.pdb
     RDKit          3D

 24 23  0  0  1  0  0  0  0  0999 V2000
   28.1753  -19.4699  -17.3839 C   0  0  0  0  0  0  0  0  0  0  0  0
   27.1092  -19.9181  -16.4332 C   0  0  2  0  0  0  0  0  0  0  0  0
   26.3937  -18.6849  -15.9246 C   0  0  0  0  0  0  0  0  0  0  0  0
   27.6899  -20.6551  -15.2223 C   0  0  2  0  0  0  0  0  0  0  0  0
   28.4799  -21.7584  -15.5518 N   0  0  0  0  0  0  0  0  0  0  0  0
   26.5715  -21.0935  -14.3194 C   0  0  0  0  0  0  0  0  0  0  0  0
   25.8449  -22.0544  -14.6626 O   0  0  0  0  0  0  0  0  0  0  0  0
   27.4659  -20.9889   -9.1188 C   0  0  0  0  0  0  0  0  0  0  0  0
   26.9577  -21.4072  -10.4814 C   0  0  0  0  0  0  0  0  0  0  0  0
   25.6719  -20.7404  -10.8565 C   0  0  2  0  0  0  0  0  0  0  0  0
   24.5863  -20.9689   -9.8276 C   0  0  0  0  0  0  0  0  0  0  0  0
   25.2008  -20.9345  -12.2582 C   0  0  2  0  0  0  0  0  0  0  0  0
   26.3032  -20.4669  -13.0966 N   0  0  0  0  0  0  0  0  0  0  0  0
   23.9418  -20.2695  -12.6234 C   0  0  0  0  0  0  0  0  0  0  0  0
   23.9276  -19.0613  -13.0602 O   0  0  0  0  0  0  0  0  0  0  0  0
   22.6809  -20.8914  -12.5287 N   0  0  0  0  0  0  0  0  0  0  0  0
   21.5385  -20.3572  -13.2958 C   0  0  1  0  0  0  0  0  0  0  0  0
   21.7835  -20.5139  -14.7748 C   0  0  0  0  0  0  0  0  0  0  0  0
   20.6945  -20.0054  -15.6251 C   0  0  0  0  0  0  0  0  0  0  0  0
   19.8193  -20.8100  -16.0252 O   0  0  0  0  0  0  0  0  0  0  0  0
   20.3111  -21.1272  -12.9876 C   0  0  0  0  0  0  0  0  0  0  0  0
   19.0703  -20.5420  -13.0592 O   0  0  0  0  0  0  0  0  0  0  0  0
   20.5978  -18.6849  -15.9984 O   0  0  0  0  0  0  0  0  0  0  0  0
   20.4092  -22.3238  -12.6587 O   0  0  0  0  0  0  0  0  0  0  0  0
  2  1  1  6
  2  4  1  0
  3  2  1  0
  4  6  1  0
  4  5  1  6
  6 13  1  0
  6  7  2  0
  8  9  1  0
  9 10  1  0
 10 12  1  0
 10 11  1  1
 12 14  1  0
 12 13  1  6
 14 15  2  0
 16 14  1  0
 16 17  1  0
 17 21  1  0
 17 18  1  6
 19 18  1  0
 19 20  2  0
 21 22  1  0
 23 19  1  0
 24 21  2  0
M  END
$$$$
