WNC.pdb
     RDKit          3D

 29 30  0  0  1  0  0  0  0  0999 V2000
    6.1784  -16.9228   25.3064 N   0  0  0  0  0  0  0  0  0  0  0  0
    7.4793  -16.4232   24.9519 C   0  0  1  0  0  0  0  0  0  0  0  0
    7.7780  -15.0849   25.5234 C   0  0  0  0  0  0  0  0  0  0  0  0
    6.9970  -13.9719   24.9613 C   0  0  0  0  0  0  0  0  0  0  0  0
    5.9549  -13.2675   25.5539 C   0  0  0  0  0  0  0  0  0  0  0  0
    5.5373  -12.3117   24.7104 N   0  0  0  0  0  0  0  0  0  0  0  0
    6.2599  -12.3502   23.5747 C   0  0  0  0  0  0  0  0  0  0  0  0
    6.1956  -11.5872   22.4348 C   0  0  0  0  0  0  0  0  0  0  0  0
    7.0833  -11.8905   21.4273 C   0  0  0  0  0  0  0  0  0  0  0  0
    8.0013  -12.9048   21.5326 C   0  0  0  0  0  0  0  0  0  0  0  0
    8.0489  -13.6537   22.6781 C   0  0  0  0  0  0  0  0  0  0  0  0
    7.1780  -13.3867   23.7188 C   0  0  0  0  0  0  0  0  0  0  0  0
    8.4887  -17.4516   25.2551 C   0  0  0  0  0  0  0  0  0  0  0  0
    8.2769  -18.2063   26.2493 O   0  0  0  0  0  0  0  0  0  0  0  0
   13.7639  -19.9241   23.1027 N   0  0  0  0  0  0  0  0  0  0  0  0
   12.7556  -19.6543   24.1072 C   0  0  0  0  0  0  0  0  0  0  0  0
   12.8680  -20.2908   25.1660 O   0  0  0  0  0  0  0  0  0  0  0  0
   11.6902  -18.6954   23.8682 C   0  0  0  0  0  0  0  0  0  0  0  0
   10.7513  -18.5036   25.0072 C   0  0  2  0  0  0  0  0  0  0  0  0
    9.6457  -17.6247   24.5067 N   0  0  0  0  0  0  0  0  0  0  0  0
   11.3590  -17.7621   26.1498 C   0  0  0  0  0  0  0  0  0  0  0  0
   12.1302  -16.7507   25.8763 O   0  0  0  0  0  0  0  0  0  0  0  0
   11.2087  -18.0015   27.5177 N   0  0  0  0  0  0  0  0  0  0  0  0
   11.9782  -17.2325   28.5245 C   0  0  1  0  0  0  0  0  0  0  0  0
   11.0632  -16.2545   29.2306 C   0  0  0  0  0  0  0  0  0  0  0  0
   10.1866  -15.1695   28.1025 S   0  0  0  0  0  0  0  0  0  0  0  0
   12.4246  -18.2194   29.5387 C   0  0  0  0  0  0  0  0  0  0  0  0
   13.2346  -17.9022   30.6240 O   0  0  0  0  0  0  0  0  0  0  0  0
   12.0447  -19.4104   29.4026 O   0  0  0  0  0  0  0  0  0  0  0  0
  2  1  1  1
  2 13  1  0
  3  4  1  0
  3  2  1  0
  4 12  1  0
  4  5  2  0
  5  6  1  0
  7  8  2  0
  7  6  1  0
  9  8  1  0
 10  9  2  0
 11 10  1  0
 11 12  2  0
 12  7  1  0
 13 20  1  0
 13 14  2  0
 16 15  1  0
 16 17  2  0
 18 16  1  0
 19 18  1  6
 20 19  1  0
 21 19  1  0
 21 22  2  0
 23 21  1  0
 24 23  1  0
 24 25  1  1
 25 26  1  0
 27 24  1  0
 28 27  1  0
 29 27  2  0
M  END
$$$$
