WNC.pdb
     RDKit          3D

 29 30  0  0  1  0  0  0  0  0999 V2000
    7.9866  -17.5855   23.6835 N   0  0  0  0  0  0  0  0  0  0  0  0
    8.4537  -16.4316   22.9640 C   0  0  1  0  0  0  0  0  0  0  0  0
    7.4712  -15.3180   22.9240 C   0  0  0  0  0  0  0  0  0  0  0  0
    6.9803  -14.8646   24.2348 C   0  0  0  0  0  0  0  0  0  0  0  0
    6.3515  -15.6136   25.2233 C   0  0  0  0  0  0  0  0  0  0  0  0
    6.0924  -14.8215   26.2744 N   0  0  0  0  0  0  0  0  0  0  0  0
    6.5231  -13.5699   26.0266 C   0  0  0  0  0  0  0  0  0  0  0  0
    6.4725  -12.4280   26.7877 C   0  0  0  0  0  0  0  0  0  0  0  0
    6.9997  -11.2829   26.2347 C   0  0  0  0  0  0  0  0  0  0  0  0
    7.5568  -11.2571   24.9811 C   0  0  0  0  0  0  0  0  0  0  0  0
    7.5975  -12.4070   24.2386 C   0  0  0  0  0  0  0  0  0  0  0  0
    7.0812  -13.5832   24.7513 C   0  0  0  0  0  0  0  0  0  0  0  0
    9.7815  -16.0511   23.4746 C   0  0  0  0  0  0  0  0  0  0  0  0
   10.3077  -14.9965   23.0123 O   0  0  0  0  0  0  0  0  0  0  0  0
   12.2017  -19.5334   26.1942 N   0  0  0  0  0  0  0  0  0  0  0  0
   11.4021  -18.3344   26.3405 C   0  0  0  0  0  0  0  0  0  0  0  0
   10.1916  -18.5168   26.5403 O   0  0  0  0  0  0  0  0  0  0  0  0
   12.0011  -17.0131   26.2551 C   0  0  0  0  0  0  0  0  0  0  0  0
   11.7836  -16.3079   24.9624 C   0  0  2  0  0  0  0  0  0  0  0  0
   10.4697  -16.7906   24.4278 N   0  0  0  0  0  0  0  0  0  0  0  0
   12.7897  -16.6674   23.9216 C   0  0  0  0  0  0  0  0  0  0  0  0
   12.7058  -17.8458   23.3770 O   0  0  0  0  0  0  0  0  0  0  0  0
   13.8405  -15.8918   23.4262 N   0  0  0  0  0  0  0  0  0  0  0  0
   14.7152  -16.3844   22.3356 C   0  0  1  0  0  0  0  0  0  0  0  0
   14.7211  -15.3890   21.1948 C   0  0  0  0  0  0  0  0  0  0  0  0
   13.0824  -15.0466   20.5502 S   0  0  0  0  0  0  0  0  0  0  0  0
   16.0894  -16.4120   22.8950 C   0  0  0  0  0  0  0  0  0  0  0  0
   17.2112  -16.8074   22.1740 O   0  0  0  0  0  0  0  0  0  0  0  0
   16.2410  -16.0560   24.0914 O   0  0  0  0  0  0  0  0  0  0  0  0
  2  1  1  1
  2 13  1  0
  3  4  1  0
  3  2  1  0
  4 12  1  0
  4  5  2  0
  5  6  1  0
  7  8  2  0
  7  6  1  0
  9  8  1  0
 10  9  2  0
 11 10  1  0
 11 12  2  0
 12  7  1  0
 13 20  1  0
 13 14  2  0
 16 15  1  0
 16 17  2  0
 18 16  1  0
 19 18  1  1
 20 19  1  0
 21 19  1  0
 21 22  2  0
 23 21  1  0
 24 23  1  0
 24 25  1  6
 25 26  1  0
 27 24  1  0
 28 27  1  0
 29 27  2  0
M  END
$$$$
