WNC.pdb
     RDKit          3D

 29 30  0  0  1  0  0  0  0  0999 V2000
    6.5284  -17.6736   23.9430 N   0  0  0  0  0  0  0  0  0  0  0  0
    7.5373  -16.7066   23.6044 C   0  0  1  0  0  0  0  0  0  0  0  0
    8.0747  -15.9722   24.7786 C   0  0  0  0  0  0  0  0  0  0  0  0
    7.1463  -15.0154   25.4012 C   0  0  0  0  0  0  0  0  0  0  0  0
    5.9756  -15.2850   26.1013 C   0  0  0  0  0  0  0  0  0  0  0  0
    5.4443  -14.1293   26.5271 N   0  0  0  0  0  0  0  0  0  0  0  0
    6.2147  -13.0957   26.1376 C   0  0  0  0  0  0  0  0  0  0  0  0
    6.0770  -11.7426   26.3270 C   0  0  0  0  0  0  0  0  0  0  0  0
    7.0481  -10.9322   25.7836 C   0  0  0  0  0  0  0  0  0  0  0  0
    8.1160  -11.4294   25.0799 C   0  0  0  0  0  0  0  0  0  0  0  0
    8.2346  -12.7821   24.9027 C   0  0  0  0  0  0  0  0  0  0  0  0
    7.2845  -13.6374   25.4305 C   0  0  0  0  0  0  0  0  0  0  0  0
    8.5647  -17.3546   22.7719 C   0  0  0  0  0  0  0  0  0  0  0  0
    8.7435  -18.5987   22.9234 O   0  0  0  0  0  0  0  0  0  0  0  0
   11.9703  -17.8518   18.2591 N   0  0  0  0  0  0  0  0  0  0  0  0
   12.1216  -16.9288   19.3653 C   0  0  0  0  0  0  0  0  0  0  0  0
   13.2857  -16.5890   19.6262 O   0  0  0  0  0  0  0  0  0  0  0  0
   10.9695  -16.4449   20.1073 C   0  0  0  0  0  0  0  0  0  0  0  0
   10.5661  -17.2925   21.2625 C   0  0  2  0  0  0  0  0  0  0  0  0
    9.3337  -16.6674   21.8417 N   0  0  0  0  0  0  0  0  0  0  0  0
   11.5668  -17.2913   22.3686 C   0  0  0  0  0  0  0  0  0  0  0  0
   11.9106  -16.1436   22.8756 O   0  0  0  0  0  0  0  0  0  0  0  0
   12.2045  -18.3828   22.9627 N   0  0  0  0  0  0  0  0  0  0  0  0
   13.2502  -18.1962   23.9967 C   0  0  1  0  0  0  0  0  0  0  0  0
   12.6290  -18.2835   25.3747 C   0  0  0  0  0  0  0  0  0  0  0  0
   11.3322  -19.5180   25.4859 S   0  0  0  0  0  0  0  0  0  0  0  0
   14.1700  -19.3525   23.8608 C   0  0  0  0  0  0  0  0  0  0  0  0
   15.3330  -19.5090   24.6076 O   0  0  0  0  0  0  0  0  0  0  0  0
   13.8747  -20.2390   23.0193 O   0  0  0  0  0  0  0  0  0  0  0  0
  2  1  1  1
  2 13  1  0
  3  4  1  0
  3  2  1  0
  4 12  1  0
  4  5  2  0
  5  6  1  0
  7  8  2  0
  7  6  1  0
  9  8  1  0
 10  9  2  0
 11 10  1  0
 11 12  2  0
 12  7  1  0
 13 20  1  0
 13 14  2  0
 16 15  1  0
 16 17  2  0
 18 16  1  0
 19 18  1  6
 20 19  1  0
 21 19  1  0
 21 22  2  0
 23 21  1  0
 24 23  1  0
 24 25  1  1
 25 26  1  0
 27 24  1  0
 28 27  1  0
 29 27  2  0
M  END
$$$$
