WNC.pdb
     RDKit          3D

 29 30  0  0  1  0  0  0  0  0999 V2000
    6.8187  -17.6168   24.1328 N   0  0  0  0  0  0  0  0  0  0  0  0
    7.7840  -16.5512   24.1381 C   0  0  1  0  0  0  0  0  0  0  0  0
    7.9189  -15.8778   25.4554 C   0  0  0  0  0  0  0  0  0  0  0  0
    6.8720  -14.8926   25.7687 C   0  0  0  0  0  0  0  0  0  0  0  0
    5.5738  -15.1280   26.2075 C   0  0  0  0  0  0  0  0  0  0  0  0
    4.9577  -13.9525   26.4023 N   0  0  0  0  0  0  0  0  0  0  0  0
    5.7943  -12.9386   26.1095 C   0  0  0  0  0  0  0  0  0  0  0  0
    5.6149  -11.5777   26.1467 C   0  0  0  0  0  0  0  0  0  0  0  0
    6.6822  -10.7947   25.7688 C   0  0  0  0  0  0  0  0  0  0  0  0
    7.8825  -11.3258   25.3690 C   0  0  0  0  0  0  0  0  0  0  0  0
    8.0407  -12.6857   25.3392 C   0  0  0  0  0  0  0  0  0  0  0  0
    6.9974  -13.5143   25.7106 C   0  0  0  0  0  0  0  0  0  0  0  0
    9.0520  -17.0478   23.5778 C   0  0  0  0  0  0  0  0  0  0  0  0
    9.2396  -18.2998   23.5707 O   0  0  0  0  0  0  0  0  0  0  0  0
   13.7806  -16.9030   20.3643 N   0  0  0  0  0  0  0  0  0  0  0  0
   13.4436  -16.1139   21.5315 C   0  0  0  0  0  0  0  0  0  0  0  0
   14.4039  -15.7323   22.2177 O   0  0  0  0  0  0  0  0  0  0  0  0
   12.0624  -15.8016   21.8579 C   0  0  0  0  0  0  0  0  0  0  0  0
   11.4262  -16.7218   22.8399 C   0  0  2  0  0  0  0  0  0  0  0  0
   10.0353  -16.2119   23.0648 N   0  0  0  0  0  0  0  0  0  0  0  0
   12.0796  -16.6918   24.1804 C   0  0  0  0  0  0  0  0  0  0  0  0
   13.3081  -17.1108   24.2669 O   0  0  0  0  0  0  0  0  0  0  0  0
   11.5461  -16.2574   25.3960 N   0  0  0  0  0  0  0  0  0  0  0  0
   12.3387  -16.3064   26.6477 C   0  0  1  0  0  0  0  0  0  0  0  0
   12.0015  -15.1116   27.5143 C   0  0  0  0  0  0  0  0  0  0  0  0
   10.2435  -14.7598   27.5760 S   0  0  0  0  0  0  0  0  0  0  0  0
   11.8784  -17.5148   27.3757 C   0  0  0  0  0  0  0  0  0  0  0  0
   12.4652  -17.9840   28.5463 O   0  0  0  0  0  0  0  0  0  0  0  0
   10.9004  -18.1465   26.9008 O   0  0  0  0  0  0  0  0  0  0  0  0
  2  1  1  1
  2 13  1  0
  3  4  1  0
  3  2  1  0
  4 12  1  0
  4  5  2  0
  5  6  1  0
  7  8  2  0
  7  6  1  0
  9  8  1  0
 10  9  2  0
 11 10  1  0
 11 12  2  0
 12  7  1  0
 13 20  1  0
 13 14  2  0
 16 15  1  0
 16 17  2  0
 18 16  1  0
 19 18  1  6
 20 19  1  0
 21 19  1  0
 21 22  2  0
 23 21  1  0
 24 23  1  0
 24 25  1  1
 25 26  1  0
 27 24  1  0
 28 27  1  0
 29 27  2  0
M  END
$$$$
