WNC.pdb
     RDKit          3D

 29 30  0  0  1  0  0  0  0  0999 V2000
    7.1905  -17.6426   24.1623 N   0  0  0  0  0  0  0  0  0  0  0  0
    8.1932  -16.6206   24.0298 C   0  0  1  0  0  0  0  0  0  0  0  0
    8.3402  -15.7716   25.2400 C   0  0  0  0  0  0  0  0  0  0  0  0
    7.1345  -15.0278   25.6371 C   0  0  0  0  0  0  0  0  0  0  0  0
    5.9084  -15.5361   26.0516 C   0  0  0  0  0  0  0  0  0  0  0  0
    5.0893  -14.5160   26.3480 N   0  0  0  0  0  0  0  0  0  0  0  0
    5.7204  -13.3436   26.1467 C   0  0  0  0  0  0  0  0  0  0  0  0
    5.2939  -12.0476   26.3030 C   0  0  0  0  0  0  0  0  0  0  0  0
    6.1931  -11.0512   25.9969 C   0  0  0  0  0  0  0  0  0  0  0  0
    7.4646  -11.3146   25.5537 C   0  0  0  0  0  0  0  0  0  0  0  0
    7.8701  -12.6141   25.4049 C   0  0  0  0  0  0  0  0  0  0  0  0
    7.0029  -13.6502   25.7005 C   0  0  0  0  0  0  0  0  0  0  0  0
    9.4477  -17.2349   23.5636 C   0  0  0  0  0  0  0  0  0  0  0  0
    9.5212  -18.4987   23.5738 O   0  0  0  0  0  0  0  0  0  0  0  0
   11.8422  -15.0912   19.9804 N   0  0  0  0  0  0  0  0  0  0  0  0
   12.1741  -16.3170   20.6774 C   0  0  0  0  0  0  0  0  0  0  0  0
   12.0096  -17.3635   20.0321 O   0  0  0  0  0  0  0  0  0  0  0  0
   12.6669  -16.2978   22.0444 C   0  0  0  0  0  0  0  0  0  0  0  0
   11.8895  -17.1296   23.0033 C   0  0  2  0  0  0  0  0  0  0  0  0
   10.5368  -16.4960   23.1199 N   0  0  0  0  0  0  0  0  0  0  0  0
   12.4534  -17.1142   24.3841 C   0  0  0  0  0  0  0  0  0  0  0  0
   13.6830  -17.5082   24.5426 O   0  0  0  0  0  0  0  0  0  0  0  0
   11.8320  -16.7179   25.5706 N   0  0  0  0  0  0  0  0  0  0  0  0
   12.5358  -16.7945   26.8729 C   0  0  1  0  0  0  0  0  0  0  0  0
   12.1576  -15.6051   27.7300 C   0  0  0  0  0  0  0  0  0  0  0  0
   10.4136  -15.1954   27.6365 S   0  0  0  0  0  0  0  0  0  0  0  0
   12.0086  -18.0042   27.5517 C   0  0  0  0  0  0  0  0  0  0  0  0
   10.9931  -18.8017   27.0347 O   0  0  0  0  0  0  0  0  0  0  0  0
   12.5140  -18.3206   28.6588 O   0  0  0  0  0  0  0  0  0  0  0  0
  2  1  1  1
  2 13  1  0
  3  4  1  0
  3  2  1  0
  4 12  1  0
  4  5  2  0
  5  6  1  0
  7  8  2  0
  7  6  1  0
  9  8  1  0
 10  9  2  0
 11 10  1  0
 11 12  2  0
 12  7  1  0
 13 20  1  0
 13 14  2  0
 16 15  1  0
 16 17  2  0
 18 16  1  0
 19 18  1  6
 20 19  1  0
 21 19  1  0
 21 22  2  0
 23 21  1  0
 24 23  1  0
 24 25  1  1
 25 26  1  0
 27 24  1  0
 28 27  1  0
 29 27  2  0
M  END
$$$$
