WNC.pdb
     RDKit          3D

 29 30  0  0  1  0  0  0  0  0999 V2000
    7.3854  -17.2756   23.5381 N   0  0  0  0  0  0  0  0  0  0  0  0
    8.3858  -16.3028   23.8850 C   0  0  1  0  0  0  0  0  0  0  0  0
    8.2546  -15.7831   25.2705 C   0  0  0  0  0  0  0  0  0  0  0  0
    7.0474  -14.9831   25.5308 C   0  0  0  0  0  0  0  0  0  0  0  0
    5.7906  -15.4273   25.9261 C   0  0  0  0  0  0  0  0  0  0  0  0
    4.9809  -14.3690   26.0806 N   0  0  0  0  0  0  0  0  0  0  0  0
    5.6482  -13.2328   25.8026 C   0  0  0  0  0  0  0  0  0  0  0  0
    5.2440  -11.9204   25.8124 C   0  0  0  0  0  0  0  0  0  0  0  0
    6.1802  -10.9742   25.4611 C   0  0  0  0  0  0  0  0  0  0  0  0
    7.4663  -11.3017   25.1129 C   0  0  0  0  0  0  0  0  0  0  0  0
    7.8490  -12.6165   25.1098 C   0  0  0  0  0  0  0  0  0  0  0  0
    6.9444  -13.6037   25.4560 C   0  0  0  0  0  0  0  0  0  0  0  0
    9.7165  -16.8457   23.5641 C   0  0  0  0  0  0  0  0  0  0  0  0
    9.8590  -18.1034   23.5912 O   0  0  0  0  0  0  0  0  0  0  0  0
   14.7218  -17.3033   21.5430 N   0  0  0  0  0  0  0  0  0  0  0  0
   14.4047  -16.0686   22.2311 C   0  0  0  0  0  0  0  0  0  0  0  0
   15.3779  -15.4054   22.6207 O   0  0  0  0  0  0  0  0  0  0  0  0
   13.0278  -15.6534   22.4399 C   0  0  0  0  0  0  0  0  0  0  0  0
   12.1861  -16.6256   23.1896 C   0  0  2  0  0  0  0  0  0  0  0  0
   10.8048  -16.0469   23.2380 N   0  0  0  0  0  0  0  0  0  0  0  0
   12.5990  -16.7824   24.6143 C   0  0  0  0  0  0  0  0  0  0  0  0
   13.7987  -17.2247   24.8539 O   0  0  0  0  0  0  0  0  0  0  0  0
   11.8599  -16.5071   25.7670 N   0  0  0  0  0  0  0  0  0  0  0  0
   12.4462  -16.6759   27.1180 C   0  0  1  0  0  0  0  0  0  0  0  0
   11.6881  -15.8255   28.1151 C   0  0  0  0  0  0  0  0  0  0  0  0
   11.1798  -14.2403   27.4465 S   0  0  0  0  0  0  0  0  0  0  0  0
   12.2132  -18.0933   27.4902 C   0  0  0  0  0  0  0  0  0  0  0  0
   12.7022  -18.6791   28.6531 O   0  0  0  0  0  0  0  0  0  0  0  0
   11.5331  -18.8004   26.7036 O   0  0  0  0  0  0  0  0  0  0  0  0
  2  1  1  1
  2 13  1  0
  3  4  1  0
  3  2  1  0
  4 12  1  0
  4  5  2  0
  5  6  1  0
  7  8  2  0
  7  6  1  0
  9  8  1  0
 10  9  2  0
 11 10  1  0
 11 12  2  0
 12  7  1  0
 13 20  1  0
 13 14  2  0
 16 15  1  0
 16 17  2  0
 18 16  1  0
 19 18  1  6
 20 19  1  0
 21 19  1  0
 21 22  2  0
 23 21  1  0
 24 23  1  0
 24 25  1  1
 25 26  1  0
 27 24  1  0
 28 27  1  0
 29 27  2  0
M  END
$$$$
