QWE.pdb
     RDKit          3D

 33 34  0  0  1  0  0  0  0  0999 V2000
    9.8261  -17.2872   17.5749 N   0  0  0  0  0  0  0  0  0  0  0  0
    8.3974  -17.1280   17.4098 C   0  0  0  0  0  0  0  0  0  0  0  0
    7.9079  -17.5090   16.3192 O   0  0  0  0  0  0  0  0  0  0  0  0
    7.5720  -16.5506   18.4722 C   0  0  0  0  0  0  0  0  0  0  0  0
    8.3323  -16.2553   19.7069 C   0  0  0  0  0  0  0  0  0  0  0  0
    7.4772  -16.3592   20.9400 C   0  0  2  0  0  0  0  0  0  0  0  0
    6.3013  -15.5213   20.7996 N   0  0  0  0  0  0  0  0  0  0  0  0
    8.3225  -15.8748   22.0944 C   0  0  0  0  0  0  0  0  0  0  0  0
    9.1021  -14.9027   21.9434 O   0  0  0  0  0  0  0  0  0  0  0  0
    8.2738  -16.4851   23.3774 N   0  0  0  0  0  0  0  0  0  0  0  0
    9.2110  -16.1239   24.4363 C   0  0  1  0  0  0  0  0  0  0  0  0
    8.5042  -16.0864   25.7794 C   0  0  0  0  0  0  0  0  0  0  0  0
    7.4528  -15.0500   25.7399 C   0  0  0  0  0  0  0  0  0  0  0  0
    6.0936  -15.2908   25.5349 C   0  0  0  0  0  0  0  0  0  0  0  0
    5.4322  -14.1304   25.5603 N   0  0  0  0  0  0  0  0  0  0  0  0
    6.2996  -13.1090   25.7760 C   0  0  0  0  0  0  0  0  0  0  0  0
    6.1576  -11.7428   25.8910 C   0  0  0  0  0  0  0  0  0  0  0  0
    7.2654  -10.9590   26.1157 C   0  0  0  0  0  0  0  0  0  0  0  0
    8.5253  -11.5107   26.2297 C   0  0  0  0  0  0  0  0  0  0  0  0
    8.6627  -12.8744   26.1142 C   0  0  0  0  0  0  0  0  0  0  0  0
    7.5566  -13.6841   25.8873 C   0  0  0  0  0  0  0  0  0  0  0  0
   10.3319  -17.0672   24.4179 C   0  0  0  0  0  0  0  0  0  0  0  0
   10.0811  -18.2744   24.6837 O   0  0  0  0  0  0  0  0  0  0  0  0
   11.6743  -16.7306   24.1253 N   0  0  0  0  0  0  0  0  0  0  0  0
   12.6869  -17.7338   24.1554 C   0  0  1  0  0  0  0  0  0  0  0  0
   13.9174  -17.3566   23.3594 C   0  0  0  0  0  0  0  0  0  0  0  0
   14.8737  -16.4858   24.1078 C   0  0  0  0  0  0  0  0  0  0  0  0
   15.8235  -15.9046   23.1444 C   0  0  0  0  0  0  0  0  0  0  0  0
   16.8264  -15.2951   23.5560 O   0  0  0  0  0  0  0  0  0  0  0  0
   13.0648  -18.1291   25.5436 C   0  0  0  0  0  0  0  0  0  0  0  0
   12.6022  -17.3312   26.5846 O   0  0  0  0  0  0  0  0  0  0  0  0
   15.6053  -16.0338   21.7934 O   0  0  0  0  0  0  0  0  0  0  0  0
   13.7661  -19.1268   25.8119 O   0  0  0  0  0  0  0  0  0  0  0  0
  1  2  1  0
  2  3  2  0
  4  5  1  0
  4  2  1  0
  5  6  1  0
  6  7  1  6
  8  9  2  0
  8  6  1  0
 10  8  1  0
 11 10  1  0
 11 12  1  1
 12 13  1  0
 13 14  2  0
 13 21  1  0
 14 15  1  0
 15 16  1  0
 16 17  2  0
 18 17  1  0
 19 18  2  0
 20 21  2  0
 20 19  1  0
 21 16  1  0
 22 11  1  0
 23 22  2  0
 24 22  1  0
 25 24  1  0
 25 26  1  1
 26 27  1  0
 28 32  1  0
 28 27  1  0
 29 28  2  0
 30 31  1  0
 30 25  1  0
 33 30  2  0
M  END
$$$$
