QWE.pdb
     RDKit          3D

 33 34  0  0  1  0  0  0  0  0999 V2000
    8.4001  -12.5451   19.2791 N   0  0  0  0  0  0  0  0  0  0  0  0
    8.3714  -13.7378   18.4602 C   0  0  0  0  0  0  0  0  0  0  0  0
    8.0811  -13.5857   17.2491 O   0  0  0  0  0  0  0  0  0  0  0  0
    8.6705  -15.0537   19.0280 C   0  0  0  0  0  0  0  0  0  0  0  0
    8.9843  -15.0082   20.4733 C   0  0  0  0  0  0  0  0  0  0  0  0
    9.2452  -16.3760   21.0422 C   0  0  2  0  0  0  0  0  0  0  0  0
    8.1077  -17.2413   20.7931 N   0  0  0  0  0  0  0  0  0  0  0  0
    9.4419  -16.1957   22.5289 C   0  0  0  0  0  0  0  0  0  0  0  0
   10.3363  -15.4278   22.9602 O   0  0  0  0  0  0  0  0  0  0  0  0
    8.6393  -16.8732   23.4869 N   0  0  0  0  0  0  0  0  0  0  0  0
    8.8607  -16.7198   24.9213 C   0  0  1  0  0  0  0  0  0  0  0  0
    7.5356  -16.5932   25.6515 C   0  0  0  0  0  0  0  0  0  0  0  0
    6.9420  -15.2762   25.3442 C   0  0  0  0  0  0  0  0  0  0  0  0
    5.9042  -15.0536   24.4383 C   0  0  0  0  0  0  0  0  0  0  0  0
    5.6173  -13.7492   24.4093 N   0  0  0  0  0  0  0  0  0  0  0  0
    6.4279  -13.0789   25.2671 C   0  0  0  0  0  0  0  0  0  0  0  0
    6.5570  -11.7530   25.6212 C   0  0  0  0  0  0  0  0  0  0  0  0
    7.5031  -11.3844   26.5490 C   0  0  0  0  0  0  0  0  0  0  0  0
    8.3328  -12.3163   27.1389 C   0  0  0  0  0  0  0  0  0  0  0  0
    8.2008  -13.6383   26.7828 C   0  0  0  0  0  0  0  0  0  0  0  0
    7.2515  -14.0317   25.8477 C   0  0  0  0  0  0  0  0  0  0  0  0
    9.6598  -17.8506   25.4001 C   0  0  0  0  0  0  0  0  0  0  0  0
    9.8010  -18.8339   24.6229 O   0  0  0  0  0  0  0  0  0  0  0  0
   10.2859  -17.9268   26.6662 N   0  0  0  0  0  0  0  0  0  0  0  0
   11.3564  -18.8434   26.8816 C   0  0  1  0  0  0  0  0  0  0  0  0
   12.5434  -18.5898   25.9779 C   0  0  0  0  0  0  0  0  0  0  0  0
   13.7223  -19.4582   26.2762 C   0  0  0  0  0  0  0  0  0  0  0  0
   14.7952  -19.1275   25.3236 C   0  0  0  0  0  0  0  0  0  0  0  0
   15.0279  -19.8867   24.3665 O   0  0  0  0  0  0  0  0  0  0  0  0
   11.7896  -18.8979   28.3084 C   0  0  0  0  0  0  0  0  0  0  0  0
   12.6943  -19.8923   28.6649 O   0  0  0  0  0  0  0  0  0  0  0  0
   15.5392  -17.9835   25.4888 O   0  0  0  0  0  0  0  0  0  0  0  0
   11.3852  -18.1057   29.1847 O   0  0  0  0  0  0  0  0  0  0  0  0
  1  2  1  0
  2  3  2  0
  4  5  1  0
  4  2  1  0
  5  6  1  0
  6  7  1  1
  8  9  2  0
  8  6  1  0
 10  8  1  0
 11 10  1  0
 11 12  1  1
 12 13  1  0
 13 14  2  0
 13 21  1  0
 14 15  1  0
 15 16  1  0
 16 17  2  0
 18 17  1  0
 19 18  2  0
 20 21  2  0
 20 19  1  0
 21 16  1  0
 22 11  1  0
 23 22  2  0
 24 22  1  0
 25 24  1  0
 25 26  1  6
 26 27  1  0
 28 32  1  0
 28 27  1  0
 29 28  2  0
 30 31  1  0
 30 25  1  0
 33 30  2  0
M  END
$$$$
