QWE.pdb
     RDKit          3D

 33 34  0  0  1  0  0  0  0  0999 V2000
    8.5561  -20.2945   18.9466 N   0  0  0  0  0  0  0  0  0  0  0  0
    9.4538  -19.1759   19.1386 C   0  0  0  0  0  0  0  0  0  0  0  0
   10.6820  -19.4134   19.0443 O   0  0  0  0  0  0  0  0  0  0  0  0
    8.9417  -17.8348   19.4266 C   0  0  0  0  0  0  0  0  0  0  0  0
    8.0234  -17.7972   20.5863 C   0  0  0  0  0  0  0  0  0  0  0  0
    7.5193  -16.4083   20.8679 C   0  0  2  0  0  0  0  0  0  0  0  0
    7.5498  -15.6145   19.6540 N   0  0  0  0  0  0  0  0  0  0  0  0
    8.4482  -15.8120   21.8991 C   0  0  0  0  0  0  0  0  0  0  0  0
    9.3294  -14.9870   21.5549 O   0  0  0  0  0  0  0  0  0  0  0  0
    8.3676  -16.1510   23.2773 N   0  0  0  0  0  0  0  0  0  0  0  0
    9.1812  -15.4761   24.2836 C   0  0  1  0  0  0  0  0  0  0  0  0
    8.6172  -15.7201   25.6719 C   0  0  0  0  0  0  0  0  0  0  0  0
    7.4393  -14.8517   25.8710 C   0  0  0  0  0  0  0  0  0  0  0  0
    6.1154  -15.2904   25.9171 C   0  0  0  0  0  0  0  0  0  0  0  0
    5.3107  -14.2419   26.1112 N   0  0  0  0  0  0  0  0  0  0  0  0
    6.0466  -13.1047   26.1983 C   0  0  0  0  0  0  0  0  0  0  0  0
    5.7336  -11.7761   26.3903 C   0  0  0  0  0  0  0  0  0  0  0  0
    6.7388  -10.8382   26.4318 C   0  0  0  0  0  0  0  0  0  0  0  0
    8.0634  -11.1971   26.2849 C   0  0  0  0  0  0  0  0  0  0  0  0
    8.3715  -12.5239   26.0935 C   0  0  0  0  0  0  0  0  0  0  0  0
    7.3712  -13.4871   26.0485 C   0  0  0  0  0  0  0  0  0  0  0  0
   10.5679  -15.9305   24.1531 C   0  0  0  0  0  0  0  0  0  0  0  0
   11.4498  -15.3012   24.7990 O   0  0  0  0  0  0  0  0  0  0  0  0
   10.9962  -17.0201   23.3592 N   0  0  0  0  0  0  0  0  0  0  0  0
   11.9135  -17.9746   23.8884 C   0  0  1  0  0  0  0  0  0  0  0  0
   11.2563  -19.2884   24.2521 C   0  0  0  0  0  0  0  0  0  0  0  0
   12.2117  -20.3170   24.7638 C   0  0  0  0  0  0  0  0  0  0  0  0
   12.2833  -20.1956   26.2295 C   0  0  0  0  0  0  0  0  0  0  0  0
   13.3849  -20.2646   26.8025 O   0  0  0  0  0  0  0  0  0  0  0  0
   13.0834  -18.2075   22.9922 C   0  0  0  0  0  0  0  0  0  0  0  0
   12.8564  -18.9087   21.8127 O   0  0  0  0  0  0  0  0  0  0  0  0
   11.1376  -20.0064   26.9652 O   0  0  0  0  0  0  0  0  0  0  0  0
   14.2392  -17.8091   23.2461 O   0  0  0  0  0  0  0  0  0  0  0  0
  1  2  1  0
  2  3  2  0
  4  5  1  0
  4  2  1  0
  5  6  1  0
  6  7  1  6
  8  9  2  0
  8  6  1  0
 10  8  1  0
 11 10  1  0
 11 12  1  1
 12 13  1  0
 13 14  2  0
 13 21  1  0
 14 15  1  0
 15 16  1  0
 16 17  2  0
 18 17  1  0
 19 18  2  0
 20 21  2  0
 20 19  1  0
 21 16  1  0
 22 11  1  0
 23 22  2  0
 24 22  1  0
 25 24  1  0
 25 26  1  6
 26 27  1  0
 28 32  1  0
 28 27  1  0
 29 28  2  0
 30 31  1  0
 30 25  1  0
 33 30  2  0
M  END
$$$$
