QWE.pdb
     RDKit          3D

 33 34  0  0  1  0  0  0  0  0999 V2000
    8.3031  -12.3211   18.2492 N   0  0  0  0  0  0  0  0  0  0  0  0
    7.8138  -13.6432   17.9228 C   0  0  0  0  0  0  0  0  0  0  0  0
    7.7873  -13.9525   16.7072 O   0  0  0  0  0  0  0  0  0  0  0  0
    7.3753  -14.5682   18.9695 C   0  0  0  0  0  0  0  0  0  0  0  0
    8.1663  -14.4577   20.2151 C   0  0  0  0  0  0  0  0  0  0  0  0
    8.6551  -15.7954   20.6992 C   0  0  2  0  0  0  0  0  0  0  0  0
    7.5526  -16.7370   20.7496 N   0  0  0  0  0  0  0  0  0  0  0  0
    9.2119  -15.5763   22.0861 C   0  0  0  0  0  0  0  0  0  0  0  0
   10.1092  -14.7202   22.2796 O   0  0  0  0  0  0  0  0  0  0  0  0
    8.7539  -16.3143   23.2115 N   0  0  0  0  0  0  0  0  0  0  0  0
    9.3658  -16.1664   24.5283 C   0  0  1  0  0  0  0  0  0  0  0  0
    8.3288  -16.3631   25.6196 C   0  0  0  0  0  0  0  0  0  0  0  0
    7.3053  -15.3044   25.5058 C   0  0  0  0  0  0  0  0  0  0  0  0
    6.0446  -15.4635   24.9292 C   0  0  0  0  0  0  0  0  0  0  0  0
    5.3805  -14.3063   24.9966 N   0  0  0  0  0  0  0  0  0  0  0  0
    6.1508  -13.3662   25.6009 C   0  0  0  0  0  0  0  0  0  0  0  0
    5.9640  -12.0383   25.9198 C   0  0  0  0  0  0  0  0  0  0  0  0
    6.9683  -11.3409   26.5499 C   0  0  0  0  0  0  0  0  0  0  0  0
    8.1677  -11.9424   26.8733 C   0  0  0  0  0  0  0  0  0  0  0  0
    8.3500  -13.2676   26.5533 C   0  0  0  0  0  0  0  0  0  0  0  0
    7.3484  -13.9901   25.9168 C   0  0  0  0  0  0  0  0  0  0  0  0
   10.4830  -17.1077   24.6391 C   0  0  0  0  0  0  0  0  0  0  0  0
   10.3611  -18.2255   24.0674 O   0  0  0  0  0  0  0  0  0  0  0  0
   11.6884  -16.8618   25.3371 N   0  0  0  0  0  0  0  0  0  0  0  0
   12.6276  -17.9156   25.5373 C   0  0  1  0  0  0  0  0  0  0  0  0
   14.0507  -17.5073   25.2241 C   0  0  0  0  0  0  0  0  0  0  0  0
   14.4648  -17.8007   23.8186 C   0  0  0  0  0  0  0  0  0  0  0  0
   15.4052  -16.7545   23.3839 C   0  0  0  0  0  0  0  0  0  0  0  0
   15.7098  -16.6576   22.1820 O   0  0  0  0  0  0  0  0  0  0  0  0
   12.5443  -18.5096   26.9035 C   0  0  0  0  0  0  0  0  0  0  0  0
   13.3977  -19.5687   27.1940 O   0  0  0  0  0  0  0  0  0  0  0  0
   15.9468  -15.8858   24.3013 O   0  0  0  0  0  0  0  0  0  0  0  0
   11.7570  -18.1077   27.7855 O   0  0  0  0  0  0  0  0  0  0  0  0
  1  2  1  0
  2  3  2  0
  4  5  1  0
  4  2  1  0
  5  6  1  0
  6  7  1  1
  8  9  2  0
  8  6  1  0
 10  8  1  0
 11 10  1  0
 11 12  1  1
 12 13  1  0
 13 14  2  0
 13 21  1  0
 14 15  1  0
 15 16  1  0
 16 17  2  0
 18 17  1  0
 19 18  2  0
 20 21  2  0
 20 19  1  0
 21 16  1  0
 22 11  1  0
 23 22  2  0
 24 22  1  0
 25 24  1  0
 25 26  1  1
 26 27  1  0
 28 32  1  0
 28 27  1  0
 29 28  2  0
 30 31  1  0
 30 25  1  0
 33 30  2  0
M  END
$$$$
