QWE.pdb
     RDKit          3D

 33 34  0  0  1  0  0  0  0  0999 V2000
    8.5127  -12.4770   18.4365 N   0  0  0  0  0  0  0  0  0  0  0  0
    7.8443  -13.6534   17.9235 C   0  0  0  0  0  0  0  0  0  0  0  0
    7.4227  -13.5952   16.7433 O   0  0  0  0  0  0  0  0  0  0  0  0
    7.6756  -14.8497   18.7505 C   0  0  0  0  0  0  0  0  0  0  0  0
    8.2177  -14.6947   20.1186 C   0  0  0  0  0  0  0  0  0  0  0  0
    8.3792  -16.0158   20.8196 C   0  0  2  0  0  0  0  0  0  0  0  0
    7.0773  -16.5982   21.0851 N   0  0  0  0  0  0  0  0  0  0  0  0
    9.0931  -15.7309   22.1199 C   0  0  0  0  0  0  0  0  0  0  0  0
   10.1187  -15.0073   22.1332 O   0  0  0  0  0  0  0  0  0  0  0  0
    8.6446  -16.2582   23.3616 N   0  0  0  0  0  0  0  0  0  0  0  0
    9.4153  -16.0931   24.5899 C   0  0  1  0  0  0  0  0  0  0  0  0
    8.5019  -16.1554   25.8011 C   0  0  0  0  0  0  0  0  0  0  0  0
    7.4275  -15.1543   25.6441 C   0  0  0  0  0  0  0  0  0  0  0  0
    6.1381  -15.4240   25.1837 C   0  0  0  0  0  0  0  0  0  0  0  0
    5.4300  -14.2913   25.1686 N   0  0  0  0  0  0  0  0  0  0  0  0
    6.1982  -13.2606   25.6043 C   0  0  0  0  0  0  0  0  0  0  0  0
    5.9758  -11.9122   25.7840 C   0  0  0  0  0  0  0  0  0  0  0  0
    6.9896  -11.1111   26.2555 C   0  0  0  0  0  0  0  0  0  0  0  0
    8.2338  -11.6278   26.5554 C   0  0  0  0  0  0  0  0  0  0  0  0
    8.4516  -12.9738   26.3747 C   0  0  0  0  0  0  0  0  0  0  0  0
    7.4411  -13.8005   25.8996 C   0  0  0  0  0  0  0  0  0  0  0  0
   10.4684  -17.1110   24.6279 C   0  0  0  0  0  0  0  0  0  0  0  0
   10.1258  -18.2928   24.9051 O   0  0  0  0  0  0  0  0  0  0  0  0
   11.8402  -16.8727   24.3782 N   0  0  0  0  0  0  0  0  0  0  0  0
   12.7771  -17.9452   24.4458 C   0  0  1  0  0  0  0  0  0  0  0  0
   13.9667  -17.7503   23.5311 C   0  0  0  0  0  0  0  0  0  0  0  0
   14.9711  -16.7736   24.0511 C   0  0  0  0  0  0  0  0  0  0  0  0
   15.6455  -16.1457   22.9026 C   0  0  0  0  0  0  0  0  0  0  0  0
   15.2962  -16.4376   21.7453 O   0  0  0  0  0  0  0  0  0  0  0  0
   13.2312  -18.2262   25.8391 C   0  0  0  0  0  0  0  0  0  0  0  0
   14.0321  -19.3459   26.0376 O   0  0  0  0  0  0  0  0  0  0  0  0
   16.6584  -15.2389   23.1057 O   0  0  0  0  0  0  0  0  0  0  0  0
   12.9314  -17.5153   26.8208 O   0  0  0  0  0  0  0  0  0  0  0  0
  1  2  1  0
  2  3  2  0
  4  5  1  0
  4  2  1  0
  5  6  1  0
  6  7  1  1
  8  9  2  0
  8  6  1  0
 10  8  1  0
 11 10  1  0
 11 12  1  1
 12 13  1  0
 13 14  2  0
 13 21  1  0
 14 15  1  0
 15 16  1  0
 16 17  2  0
 18 17  1  0
 19 18  2  0
 20 21  2  0
 20 19  1  0
 21 16  1  0
 22 11  1  0
 23 22  2  0
 24 22  1  0
 25 24  1  0
 25 26  1  6
 26 27  1  0
 28 32  1  0
 28 27  1  0
 29 28  2  0
 30 31  1  0
 30 25  1  0
 33 30  2  0
M  END
$$$$
