QWE.pdb
     RDKit          3D

 33 34  0  0  1  0  0  0  0  0999 V2000
    9.8079  -13.0995   15.8006 N   0  0  0  0  0  0  0  0  0  0  0  0
    8.5550  -13.8029   15.6293 C   0  0  0  0  0  0  0  0  0  0  0  0
    8.1912  -14.0317   14.4506 O   0  0  0  0  0  0  0  0  0  0  0  0
    7.7593  -14.2246   16.7836 C   0  0  0  0  0  0  0  0  0  0  0  0
    8.4305  -13.9736   18.0783 C   0  0  0  0  0  0  0  0  0  0  0  0
    8.8086  -15.2493   18.7798 C   0  0  2  0  0  0  0  0  0  0  0  0
    7.8150  -16.2729   18.5163 N   0  0  0  0  0  0  0  0  0  0  0  0
    8.8482  -14.9352   20.2568 C   0  0  0  0  0  0  0  0  0  0  0  0
    9.6880  -14.1185   20.7076 O   0  0  0  0  0  0  0  0  0  0  0  0
    7.9542  -15.5377   21.1836 N   0  0  0  0  0  0  0  0  0  0  0  0
    8.0664  -15.3073   22.6204 C   0  0  1  0  0  0  0  0  0  0  0  0
    6.7005  -15.3886   23.2783 C   0  0  0  0  0  0  0  0  0  0  0  0
    6.8368  -15.0542   24.7104 C   0  0  0  0  0  0  0  0  0  0  0  0
    6.9590  -15.9829   25.7448 C   0  0  0  0  0  0  0  0  0  0  0  0
    7.0629  -15.3348   26.9083 N   0  0  0  0  0  0  0  0  0  0  0  0
    7.0151  -13.9949   26.6966 C   0  0  0  0  0  0  0  0  0  0  0  0
    7.0764  -12.8939   27.5235 C   0  0  0  0  0  0  0  0  0  0  0  0
    6.9973  -11.6311   26.9840 C   0  0  0  0  0  0  0  0  0  0  0  0
    6.8570  -11.4376   25.6247 C   0  0  0  0  0  0  0  0  0  0  0  0
    6.7962  -12.5389   24.8030 C   0  0  0  0  0  0  0  0  0  0  0  0
    6.8742  -13.8231   25.3276 C   0  0  0  0  0  0  0  0  0  0  0  0
    9.0178  -16.2701   23.1809 C   0  0  0  0  0  0  0  0  0  0  0  0
    8.9239  -17.4694   22.8016 O   0  0  0  0  0  0  0  0  0  0  0  0
   10.0342  -15.9607   24.1148 N   0  0  0  0  0  0  0  0  0  0  0  0
   11.0798  -16.8954   24.3710 C   0  0  1  0  0  0  0  0  0  0  0  0
   12.4346  -16.4111   23.9020 C   0  0  0  0  0  0  0  0  0  0  0  0
   13.5582  -17.3282   24.2613 C   0  0  0  0  0  0  0  0  0  0  0  0
   14.7476  -16.9292   23.4904 C   0  0  0  0  0  0  0  0  0  0  0  0
   15.1964  -15.7746   23.5998 O   0  0  0  0  0  0  0  0  0  0  0  0
   11.1419  -17.3120   25.8025 C   0  0  0  0  0  0  0  0  0  0  0  0
   10.4991  -16.5025   26.7330 O   0  0  0  0  0  0  0  0  0  0  0  0
   15.3624  -17.8280   22.6515 O   0  0  0  0  0  0  0  0  0  0  0  0
   11.7343  -18.3370   26.1993 O   0  0  0  0  0  0  0  0  0  0  0  0
  1  2  1  0
  2  3  2  0
  4  5  1  0
  4  2  1  0
  5  6  1  0
  6  7  1  1
  8  9  2  0
  8  6  1  0
 10  8  1  0
 11 10  1  0
 11 12  1  1
 12 13  1  0
 13 14  2  0
 13 21  1  0
 14 15  1  0
 15 16  1  0
 16 17  2  0
 18 17  1  0
 19 18  2  0
 20 21  2  0
 20 19  1  0
 21 16  1  0
 22 11  1  0
 23 22  2  0
 24 22  1  0
 25 24  1  0
 25 26  1  1
 26 27  1  0
 28 32  1  0
 28 27  1  0
 29 28  2  0
 30 31  1  0
 30 25  1  0
 33 30  2  0
M  END
$$$$
