QWE.pdb
     RDKit          3D

 33 34  0  0  1  0  0  0  0  0999 V2000
    8.7480  -12.7399   17.9840 N   0  0  0  0  0  0  0  0  0  0  0  0
    7.6883  -13.6958   17.7447 C   0  0  0  0  0  0  0  0  0  0  0  0
    7.1540  -13.6758   16.6097 O   0  0  0  0  0  0  0  0  0  0  0  0
    7.2694  -14.6380   18.7840 C   0  0  0  0  0  0  0  0  0  0  0  0
    8.0556  -14.5181   20.0319 C   0  0  0  0  0  0  0  0  0  0  0  0
    8.4550  -15.8593   20.5836 C   0  0  2  0  0  0  0  0  0  0  0  0
    7.2741  -16.6647   20.8311 N   0  0  0  0  0  0  0  0  0  0  0  0
    9.1813  -15.5941   21.8812 C   0  0  0  0  0  0  0  0  0  0  0  0
   10.1966  -14.8563   21.8985 O   0  0  0  0  0  0  0  0  0  0  0  0
    8.7563  -16.1564   23.1158 N   0  0  0  0  0  0  0  0  0  0  0  0
    9.4999  -15.9438   24.3535 C   0  0  1  0  0  0  0  0  0  0  0  0
    8.6109  -16.2022   25.5568 C   0  0  0  0  0  0  0  0  0  0  0  0
    7.5078  -15.2202   25.5585 C   0  0  0  0  0  0  0  0  0  0  0  0
    6.1707  -15.5124   25.2864 C   0  0  0  0  0  0  0  0  0  0  0  0
    5.4482  -14.3924   25.3766 N   0  0  0  0  0  0  0  0  0  0  0  0
    6.2527  -13.3486   25.7013 C   0  0  0  0  0  0  0  0  0  0  0  0
    6.0348  -12.0045   25.9154 C   0  0  0  0  0  0  0  0  0  0  0  0
    7.0916  -11.1859   26.2396 C   0  0  0  0  0  0  0  0  0  0  0  0
    8.3746  -11.6807   26.3568 C   0  0  0  0  0  0  0  0  0  0  0  0
    8.5878  -13.0225   26.1423 C   0  0  0  0  0  0  0  0  0  0  0  0
    7.5343  -13.8666   25.8139 C   0  0  0  0  0  0  0  0  0  0  0  0
   10.6911  -16.7967   24.3420 C   0  0  0  0  0  0  0  0  0  0  0  0
   10.5571  -17.9779   23.9206 O   0  0  0  0  0  0  0  0  0  0  0  0
   11.9807  -16.3996   24.7666 N   0  0  0  0  0  0  0  0  0  0  0  0
   13.0758  -17.3078   24.6752 C   0  0  1  0  0  0  0  0  0  0  0  0
   14.3199  -16.6774   24.0880 C   0  0  0  0  0  0  0  0  0  0  0  0
   15.5181  -17.5698   24.1196 C   0  0  0  0  0  0  0  0  0  0  0  0
   16.6605  -16.8331   23.5536 C   0  0  0  0  0  0  0  0  0  0  0  0
   17.2159  -15.9445   24.2232 O   0  0  0  0  0  0  0  0  0  0  0  0
   13.3893  -17.9649   25.9776 C   0  0  0  0  0  0  0  0  0  0  0  0
   14.2801  -19.0328   25.9575 O   0  0  0  0  0  0  0  0  0  0  0  0
   17.1141  -17.1244   22.2891 O   0  0  0  0  0  0  0  0  0  0  0  0
   12.8978  -17.6077   27.0684 O   0  0  0  0  0  0  0  0  0  0  0  0
  1  2  1  0
  2  3  2  0
  4  5  1  0
  4  2  1  0
  5  6  1  0
  6  7  1  1
  8  9  2  0
  8  6  1  0
 10  8  1  0
 11 10  1  0
 11 12  1  1
 12 13  1  0
 13 14  2  0
 13 21  1  0
 14 15  1  0
 15 16  1  0
 16 17  2  0
 18 17  1  0
 19 18  2  0
 20 21  2  0
 20 19  1  0
 21 16  1  0
 22 11  1  0
 23 22  2  0
 24 22  1  0
 25 24  1  0
 25 26  1  1
 26 27  1  0
 28 32  1  0
 28 27  1  0
 29 28  2  0
 30 31  1  0
 30 25  1  0
 33 30  2  0
M  END
$$$$
