DQL.pdb
     RDKit          3D

 26 25  0  0  1  0  0  0  0  0999 V2000
   16.7042  -13.3050  -17.9134 N   0  0  0  0  0  0  0  0  0  0  0  0
   16.3979  -12.5349  -16.7224 C   0  0  1  0  0  0  0  0  0  0  0  0
   16.9090  -13.3264  -15.5178 C   0  0  0  0  0  0  0  0  0  0  0  0
   16.1307  -14.5811  -15.3534 C   0  0  0  0  0  0  0  0  0  0  0  0
   16.7375  -15.6683  -15.2017 O   0  0  0  0  0  0  0  0  0  0  0  0
   17.1485  -11.2577  -16.8171 C   0  0  0  0  0  0  0  0  0  0  0  0
   18.0998  -11.1913  -17.6234 O   0  0  0  0  0  0  0  0  0  0  0  0
   14.7507  -14.5553  -15.3668 O   0  0  0  0  0  0  0  0  0  0  0  0
   14.1037   -5.3493  -16.7304 N   0  0  0  0  0  0  0  0  0  0  0  0
   14.3006   -6.6294  -16.1125 C   0  0  0  0  0  0  0  0  0  0  0  0
   13.5882   -6.8636  -15.1171 O   0  0  0  0  0  0  0  0  0  0  0  0
   15.3064   -7.5500  -16.6878 C   0  0  0  0  0  0  0  0  0  0  0  0
   16.5077   -7.7051  -15.7874 C   0  0  0  0  0  0  0  0  0  0  0  0
   17.4148   -8.8351  -16.1830 C   0  0  2  0  0  0  0  0  0  0  0  0
   16.8351  -10.1293  -16.0428 N   0  0  0  0  0  0  0  0  0  0  0  0
   18.5827   -8.7753  -15.2370 C   0  0  0  0  0  0  0  0  0  0  0  0
   18.7221   -9.7438  -14.4624 O   0  0  0  0  0  0  0  0  0  0  0  0
   22.6949  -10.0283  -13.1703 C   0  0  0  0  0  0  0  0  0  0  0  0
   22.8226   -9.2887  -14.5339 C   0  0  1  0  0  0  0  0  0  0  0  0
   23.6076  -10.2520  -15.4124 C   0  0  0  0  0  0  0  0  0  0  0  0
   21.4676   -9.0208  -15.0688 C   0  0  0  0  0  0  0  0  0  0  0  0
   20.7632   -7.8610  -14.4959 C   0  0  2  0  0  0  0  0  0  0  0  0
   19.4684   -7.6995  -15.2187 N   0  0  0  0  0  0  0  0  0  0  0  0
   21.3585   -6.5369  -14.5095 C   0  0  0  0  0  0  0  0  0  0  0  0
   22.1209   -6.0790  -13.4584 O   0  0  0  0  0  0  0  0  0  0  0  0
   21.1789   -5.7544  -15.5021 O   0  0  0  0  0  0  0  0  0  0  0  0
  2  1  1  6
  2  3  1  0
  3  4  1  0
  4  8  1  0
  5  4  2  0
  6  2  1  0
  7  6  2  0
 10  9  1  0
 10 12  1  0
 11 10  2  0
 13 12  1  0
 14 13  1  1
 14 15  1  0
 15  6  1  0
 16 14  1  0
 17 16  2  0
 19 18  1  1
 19 21  1  0
 19 20  1  0
 22 21  1  6
 22 23  1  0
 23 16  1  0
 24 22  1  0
 24 25  1  0
 26 24  2  0
M  END
$$$$
