DQL.pdb
     RDKit          3D

 26 25  0  0  1  0  0  0  0  0999 V2000
   16.0869  -12.1883  -14.8311 N   0  0  0  0  0  0  0  0  0  0  0  0
   16.1006  -11.1373  -15.8316 C   0  0  1  0  0  0  0  0  0  0  0  0
   14.6469  -10.8078  -16.1736 C   0  0  0  0  0  0  0  0  0  0  0  0
   14.0045  -11.9540  -16.8667 C   0  0  0  0  0  0  0  0  0  0  0  0
   12.9535  -12.4501  -16.3948 O   0  0  0  0  0  0  0  0  0  0  0  0
   16.7349   -9.9465  -15.2124 C   0  0  0  0  0  0  0  0  0  0  0  0
   16.2610   -9.5167  -14.1399 O   0  0  0  0  0  0  0  0  0  0  0  0
   14.5562  -12.4722  -18.0210 O   0  0  0  0  0  0  0  0  0  0  0  0
   22.7011   -8.5367  -15.5135 N   0  0  0  0  0  0  0  0  0  0  0  0
   22.0992   -9.0058  -14.2984 C   0  0  0  0  0  0  0  0  0  0  0  0
   22.8862   -9.4654  -13.4484 O   0  0  0  0  0  0  0  0  0  0  0  0
   20.6298   -8.9107  -14.1494 C   0  0  0  0  0  0  0  0  0  0  0  0
   19.9912   -8.1945  -15.3143 C   0  0  0  0  0  0  0  0  0  0  0  0
   18.4918   -8.1425  -15.2404 C   0  0  2  0  0  0  0  0  0  0  0  0
   17.8379   -9.2882  -15.7792 N   0  0  0  0  0  0  0  0  0  0  0  0
   18.0790   -6.9675  -16.0840 C   0  0  0  0  0  0  0  0  0  0  0  0
   17.4812   -7.2285  -17.1479 O   0  0  0  0  0  0  0  0  0  0  0  0
   15.4626   -3.9654  -18.7145 C   0  0  0  0  0  0  0  0  0  0  0  0
   15.5088   -3.6536  -17.1903 C   0  0  1  0  0  0  0  0  0  0  0  0
   14.0479   -3.6438  -16.7638 C   0  0  0  0  0  0  0  0  0  0  0  0
   16.2854   -4.7109  -16.5027 C   0  0  0  0  0  0  0  0  0  0  0  0
   17.7495   -4.5497  -16.5142 C   0  0  2  0  0  0  0  0  0  0  0  0
   18.3454   -5.6529  -15.7061 N   0  0  0  0  0  0  0  0  0  0  0  0
   18.3779   -3.3430  -16.0073 C   0  0  0  0  0  0  0  0  0  0  0  0
   18.4586   -2.1986  -16.7685 O   0  0  0  0  0  0  0  0  0  0  0  0
   18.8842   -3.3177  -14.8357 O   0  0  0  0  0  0  0  0  0  0  0  0
  2  1  1  1
  2  3  1  0
  3  4  1  0
  4  8  1  0
  5  4  2  0
  6  2  1  0
  7  6  2  0
 10  9  1  0
 10 12  1  0
 11 10  2  0
 13 12  1  0
 14 13  1  6
 14 15  1  0
 15  6  1  0
 16 14  1  0
 17 16  2  0
 19 18  1  6
 19 21  1  0
 19 20  1  0
 22 21  1  1
 22 23  1  0
 23 16  1  0
 24 22  1  0
 24 25  1  0
 26 24  2  0
M  END
$$$$
