DQL.pdb
     RDKit          3D

 26 25  0  0  1  0  0  0  0  0999 V2000
   16.5668  -13.0922  -14.1225 N   0  0  0  0  0  0  0  0  0  0  0  0
   15.6468  -11.9714  -14.1758 C   0  0  1  0  0  0  0  0  0  0  0  0
   14.3738  -12.3847  -13.4359 C   0  0  0  0  0  0  0  0  0  0  0  0
   13.5995  -13.3629  -14.2422 C   0  0  0  0  0  0  0  0  0  0  0  0
   13.1656  -13.0270  -15.3701 O   0  0  0  0  0  0  0  0  0  0  0  0
   16.2835  -10.8426  -13.4519 C   0  0  0  0  0  0  0  0  0  0  0  0
   16.8648  -11.0864  -12.3739 O   0  0  0  0  0  0  0  0  0  0  0  0
   13.3569  -14.6326  -13.7580 O   0  0  0  0  0  0  0  0  0  0  0  0
   18.2773   -5.5161  -16.1768 N   0  0  0  0  0  0  0  0  0  0  0  0
   18.5681   -5.2470  -14.7976 C   0  0  0  0  0  0  0  0  0  0  0  0
   19.1059   -4.1473  -14.5639 O   0  0  0  0  0  0  0  0  0  0  0  0
   18.2168   -6.2668  -13.7843 C   0  0  0  0  0  0  0  0  0  0  0  0
   17.4314   -7.4080  -14.3831 C   0  0  0  0  0  0  0  0  0  0  0  0
   16.9799   -8.4237  -13.3727 C   0  0  2  0  0  0  0  0  0  0  0  0
   16.2591   -9.5213  -13.9262 N   0  0  0  0  0  0  0  0  0  0  0  0
   16.0338   -7.6986  -12.4552 C   0  0  0  0  0  0  0  0  0  0  0  0
   14.8972   -7.4530  -12.9084 O   0  0  0  0  0  0  0  0  0  0  0  0
   13.1771   -7.2209   -8.0170 C   0  0  0  0  0  0  0  0  0  0  0  0
   14.6185   -6.6436   -7.9079 C   0  0  1  0  0  0  0  0  0  0  0  0
   15.0690   -7.0191   -6.5036 C   0  0  0  0  0  0  0  0  0  0  0  0
   15.4682   -7.2610   -8.9522 C   0  0  0  0  0  0  0  0  0  0  0  0
   15.3662   -6.6751  -10.2997 C   0  0  2  0  0  0  0  0  0  0  0  0
   16.3978   -7.3168  -11.1654 N   0  0  0  0  0  0  0  0  0  0  0  0
   15.5408   -5.2501  -10.5160 C   0  0  0  0  0  0  0  0  0  0  0  0
   16.7718   -4.7130  -10.8189 O   0  0  0  0  0  0  0  0  0  0  0  0
   14.5487   -4.4525  -10.4197 O   0  0  0  0  0  0  0  0  0  0  0  0
  2  1  1  1
  2  3  1  0
  3  4  1  0
  4  8  1  0
  5  4  2  0
  6  2  1  0
  7  6  2  0
 10  9  1  0
 10 12  1  0
 11 10  2  0
 13 12  1  0
 14 13  1  6
 14 15  1  0
 15  6  1  0
 16 14  1  0
 17 16  2  0
 19 18  1  6
 19 21  1  0
 19 20  1  0
 22 21  1  1
 22 23  1  0
 23 16  1  0
 24 22  1  0
 24 25  1  0
 26 24  2  0
M  END
$$$$
