DQL.pdb
     RDKit          3D

 26 25  0  0  1  0  0  0  0  0999 V2000
   28.1008  -20.0499  -15.2195 N   0  0  0  0  0  0  0  0  0  0  0  0
   27.0629  -20.4520  -16.1504 C   0  0  1  0  0  0  0  0  0  0  0  0
   27.6748  -21.4742  -17.1092 C   0  0  0  0  0  0  0  0  0  0  0  0
   28.7549  -20.8484  -17.9145 C   0  0  0  0  0  0  0  0  0  0  0  0
   28.5742  -19.7111  -18.4114 O   0  0  0  0  0  0  0  0  0  0  0  0
   25.9916  -21.1091  -15.3603 C   0  0  0  0  0  0  0  0  0  0  0  0
   25.1126  -21.7479  -15.9757 O   0  0  0  0  0  0  0  0  0  0  0  0
   29.9495  -21.5097  -18.1169 O   0  0  0  0  0  0  0  0  0  0  0  0
   25.0969  -20.3688   -8.6379 N   0  0  0  0  0  0  0  0  0  0  0  0
   26.0883  -20.7088   -9.6179 C   0  0  0  0  0  0  0  0  0  0  0  0
   27.1615  -21.1548   -9.1679 O   0  0  0  0  0  0  0  0  0  0  0  0
   25.7708  -20.5106  -11.0497 C   0  0  0  0  0  0  0  0  0  0  0  0
   25.2932  -21.7852  -11.7020 C   0  0  0  0  0  0  0  0  0  0  0  0
   24.9083  -21.6160  -13.1441 C   0  0  2  0  0  0  0  0  0  0  0  0
   25.9265  -21.0422  -13.9594 N   0  0  0  0  0  0  0  0  0  0  0  0
   23.7509  -20.6553  -13.1508 C   0  0  0  0  0  0  0  0  0  0  0  0
   24.0303  -19.4477  -13.2963 O   0  0  0  0  0  0  0  0  0  0  0  0
   21.4060  -19.4484  -17.4201 C   0  0  0  0  0  0  0  0  0  0  0  0
   21.9835  -19.3184  -15.9805 C   0  0  1  0  0  0  0  0  0  0  0  0
   21.2614  -18.1148  -15.3926 C   0  0  0  0  0  0  0  0  0  0  0  0
   21.6990  -20.5633  -15.2300 C   0  0  0  0  0  0  0  0  0  0  0  0
   21.3742  -20.3987  -13.8028 C   0  0  2  0  0  0  0  0  0  0  0  0
   22.4323  -21.0813  -13.0030 N   0  0  0  0  0  0  0  0  0  0  0  0
   20.1239  -20.8918  -13.2536 C   0  0  0  0  0  0  0  0  0  0  0  0
   19.9412  -22.2250  -12.9623 O   0  0  0  0  0  0  0  0  0  0  0  0
   19.1513  -20.0942  -13.0352 O   0  0  0  0  0  0  0  0  0  0  0  0
  2  1  1  1
  2  3  1  0
  3  4  1  0
  4  8  1  0
  5  4  2  0
  6  2  1  0
  7  6  2  0
 10  9  1  0
 10 12  1  0
 11 10  2  0
 13 12  1  0
 14 13  1  1
 14 15  1  0
 15  6  1  0
 16 14  1  0
 17 16  2  0
 19 18  1  6
 19 21  1  0
 19 20  1  0
 22 21  1  6
 22 23  1  0
 23 16  1  0
 24 22  1  0
 24 25  1  0
 26 24  2  0
M  END
$$$$
