DQL.pdb
     RDKit          3D

 26 25  0  0  1  0  0  0  0  0999 V2000
   15.5766  -12.8705  -14.4722 N   0  0  0  0  0  0  0  0  0  0  0  0
   15.2629  -11.6092  -15.1172 C   0  0  1  0  0  0  0  0  0  0  0  0
   14.0355  -11.0258  -14.4159 C   0  0  0  0  0  0  0  0  0  0  0  0
   12.8063  -11.7458  -14.8369 C   0  0  0  0  0  0  0  0  0  0  0  0
   11.8651  -11.8898  -14.0204 O   0  0  0  0  0  0  0  0  0  0  0  0
   16.4197  -10.7039  -14.9029 C   0  0  0  0  0  0  0  0  0  0  0  0
   16.8497  -10.5620  -13.7391 O   0  0  0  0  0  0  0  0  0  0  0  0
   12.6963  -12.2540  -16.1156 O   0  0  0  0  0  0  0  0  0  0  0  0
   21.4221  -10.1686  -18.3479 N   0  0  0  0  0  0  0  0  0  0  0  0
   21.2576  -10.9756  -17.1729 C   0  0  0  0  0  0  0  0  0  0  0  0
   22.0973  -11.8837  -17.0197 O   0  0  0  0  0  0  0  0  0  0  0  0
   20.1348  -10.6771  -16.2562 C   0  0  0  0  0  0  0  0  0  0  0  0
   19.3220   -9.4960  -16.7277 C   0  0  0  0  0  0  0  0  0  0  0  0
   18.1782   -9.1503  -15.8175 C   0  0  2  0  0  0  0  0  0  0  0  0
   17.0458  -10.0055  -15.9477 N   0  0  0  0  0  0  0  0  0  0  0  0
   17.7327   -7.7718  -16.2222 C   0  0  0  0  0  0  0  0  0  0  0  0
   16.8117   -7.7083  -17.0620 O   0  0  0  0  0  0  0  0  0  0  0  0
   14.5477   -3.5934  -15.3903 C   0  0  0  0  0  0  0  0  0  0  0  0
   16.0478   -3.6007  -15.8054 C   0  0  1  0  0  0  0  0  0  0  0  0
   16.6638   -2.4584  -15.0105 C   0  0  0  0  0  0  0  0  0  0  0  0
   16.6417   -4.9112  -15.4538 C   0  0  0  0  0  0  0  0  0  0  0  0
   17.8492   -5.2968  -16.2038 C   0  0  2  0  0  0  0  0  0  0  0  0
   18.3116   -6.6199  -15.6931 N   0  0  0  0  0  0  0  0  0  0  0  0
   19.0387   -4.4642  -16.1950 C   0  0  0  0  0  0  0  0  0  0  0  0
   19.1336   -3.3353  -16.9774 O   0  0  0  0  0  0  0  0  0  0  0  0
   20.0384   -4.7681  -15.4615 O   0  0  0  0  0  0  0  0  0  0  0  0
  2  1  1  1
  2  3  1  0
  3  4  1  0
  4  8  1  0
  5  4  2  0
  6  2  1  0
  7  6  2  0
 10  9  1  0
 10 12  1  0
 11 10  2  0
 13 12  1  0
 14 13  1  6
 14 15  1  0
 15  6  1  0
 16 14  1  0
 17 16  2  0
 19 18  1  1
 19 21  1  0
 19 20  1  0
 22 21  1  1
 22 23  1  0
 23 16  1  0
 24 22  1  0
 24 25  1  0
 26 24  2  0
M  END
$$$$
