DLG.pdb
     RDKit          3D

 21 20  0  0  1  0  0  0  0  0999 V2000
   19.4005  -11.2446  -17.6709 N   0  0  0  0  0  0  0  0  0  0  0  0
   18.7154  -11.0086  -16.4394 C   0  0  1  0  0  0  0  0  0  0  0  0
   18.4725  -12.2771  -15.6428 C   0  0  0  0  0  0  0  0  0  0  0  0
   17.5669  -13.1590  -16.4022 C   0  0  0  0  0  0  0  0  0  0  0  0
   16.9696  -12.7233  -17.4055 O   0  0  0  0  0  0  0  0  0  0  0  0
   19.4711  -10.0075  -15.6431 C   0  0  0  0  0  0  0  0  0  0  0  0
   19.0753   -9.6610  -14.4756 O   0  0  0  0  0  0  0  0  0  0  0  0
   17.3746  -14.4628  -16.0123 O   0  0  0  0  0  0  0  0  0  0  0  0
   23.0875  -10.1873  -13.2837 C   0  0  0  0  0  0  0  0  0  0  0  0
   23.2553  -10.1532  -14.7767 C   0  0  2  0  0  0  0  0  0  0  0  0
   24.7552  -10.3306  -15.0798 C   0  0  0  0  0  0  0  0  0  0  0  0
   22.8035   -8.8803  -15.3498 C   0  0  0  0  0  0  0  0  0  0  0  0
   21.4097   -8.4181  -15.2442 C   0  0  2  0  0  0  0  0  0  0  0  0
   20.6529   -9.3852  -16.1144 N   0  0  0  0  0  0  0  0  0  0  0  0
   21.0325   -7.0669  -15.5628 C   0  0  0  0  0  0  0  0  0  0  0  0
   21.6090   -6.1120  -14.9567 O   0  0  0  0  0  0  0  0  0  0  0  0
   20.0617   -6.6722  -16.5171 N   0  0  0  0  0  0  0  0  0  0  0  0
   19.8046   -5.2704  -16.7982 C   0  0  0  0  0  0  0  0  0  0  0  0
   18.7645   -4.7518  -15.8869 C   0  0  0  0  0  0  0  0  0  0  0  0
   18.2230   -5.5407  -14.8885 O   0  0  0  0  0  0  0  0  0  0  0  0
   18.3485   -3.5717  -16.0035 O   0  0  0  0  0  0  0  0  0  0  0  0
  2  1  1  6
  2  3  1  0
  3  4  1  0
  4  8  1  0
  4  5  2  0
  6  2  1  0
  7  6  2  0
 10  9  1  1
 10 12  1  0
 11 10  1  0
 13 12  1  6
 13 14  1  0
 14  6  1  0
 15 16  2  0
 15 13  1  0
 17 15  1  0
 18 17  1  0
 19 18  1  0
 20 19  1  0
 21 19  2  0
M  END
$$$$
