DLG.pdb
     RDKit          3D

 21 20  0  0  1  0  0  0  0  0999 V2000
   18.3773  -11.2844  -17.7548 N   0  0  0  0  0  0  0  0  0  0  0  0
   19.4190  -10.3941  -18.1597 C   0  0  1  0  0  0  0  0  0  0  0  0
   18.9400   -9.3146  -19.1126 C   0  0  0  0  0  0  0  0  0  0  0  0
   18.4949   -9.9426  -20.3703 C   0  0  0  0  0  0  0  0  0  0  0  0
   18.8803  -11.0909  -20.6637 O   0  0  0  0  0  0  0  0  0  0  0  0
   20.0561   -9.8055  -16.9535 C   0  0  0  0  0  0  0  0  0  0  0  0
   19.4629   -9.8281  -15.8188 O   0  0  0  0  0  0  0  0  0  0  0  0
   17.6549   -9.2706  -21.2258 O   0  0  0  0  0  0  0  0  0  0  0  0
   25.1046  -10.6163  -14.8262 C   0  0  0  0  0  0  0  0  0  0  0  0
   23.7476  -10.0259  -14.5646 C   0  0  2  0  0  0  0  0  0  0  0  0
   22.7644  -11.1940  -14.3598 C   0  0  0  0  0  0  0  0  0  0  0  0
   23.2812   -9.2057  -15.6882 C   0  0  0  0  0  0  0  0  0  0  0  0
   21.9333   -8.6151  -15.7277 C   0  0  2  0  0  0  0  0  0  0  0  0
   21.3335   -9.1943  -16.9807 N   0  0  0  0  0  0  0  0  0  0  0  0
   21.7275   -7.1917  -15.6934 C   0  0  0  0  0  0  0  0  0  0  0  0
   22.1800   -6.5321  -14.7076 O   0  0  0  0  0  0  0  0  0  0  0  0
   21.0605   -6.4188  -16.6766 N   0  0  0  0  0  0  0  0  0  0  0  0
   21.0242   -4.9686  -16.6014 C   0  0  0  0  0  0  0  0  0  0  0  0
   20.2848   -4.4183  -17.7554 C   0  0  0  0  0  0  0  0  0  0  0  0
   20.1184   -3.0555  -17.9209 O   0  0  0  0  0  0  0  0  0  0  0  0
   19.7883   -5.1868  -18.6169 O   0  0  0  0  0  0  0  0  0  0  0  0
  2  1  1  1
  2  3  1  0
  3  4  1  0
  4  8  1  0
  4  5  2  0
  6  2  1  0
  7  6  2  0
 10  9  1  6
 10 12  1  0
 11 10  1  0
 13 12  1  6
 13 14  1  0
 14  6  1  0
 15 16  2  0
 15 13  1  0
 17 15  1  0
 18 17  1  0
 19 18  1  0
 20 19  1  0
 21 19  2  0
M  END
$$$$
