DLG.pdb
     RDKit          3D

 21 20  0  0  1  0  0  0  0  0999 V2000
   27.1184  -21.8103  -16.9013 N   0  0  0  0  0  0  0  0  0  0  0  0
   26.5308  -20.8738  -15.9961 C   0  0  1  0  0  0  0  0  0  0  0  0
   25.1144  -20.4868  -16.3792 C   0  0  0  0  0  0  0  0  0  0  0  0
   25.1374  -19.7964  -17.6821 C   0  0  0  0  0  0  0  0  0  0  0  0
   24.5473  -20.2934  -18.6609 O   0  0  0  0  0  0  0  0  0  0  0  0
   26.5856  -21.4251  -14.6176 C   0  0  0  0  0  0  0  0  0  0  0  0
   26.4889  -22.6848  -14.4085 O   0  0  0  0  0  0  0  0  0  0  0  0
   25.8062  -18.6046  -17.8277 O   0  0  0  0  0  0  0  0  0  0  0  0
   29.8270  -22.3499  -11.7035 C   0  0  0  0  0  0  0  0  0  0  0  0
   29.4636  -20.9333  -12.0495 C   0  0  2  0  0  0  0  0  0  0  0  0
   30.4875  -20.0099  -11.3623 C   0  0  0  0  0  0  0  0  0  0  0  0
   28.1188  -20.5823  -11.5794 C   0  0  0  0  0  0  0  0  0  0  0  0
   26.9052  -21.2272  -12.1072 C   0  0  2  0  0  0  0  0  0  0  0  0
   26.7449  -20.6099  -13.4704 N   0  0  0  0  0  0  0  0  0  0  0  0
   25.6551  -21.1879  -11.3966 C   0  0  0  0  0  0  0  0  0  0  0  0
   25.6416  -21.4969  -10.1653 O   0  0  0  0  0  0  0  0  0  0  0  0
   24.3969  -20.8212  -11.9365 N   0  0  0  0  0  0  0  0  0  0  0  0
   23.2243  -20.6782  -11.0911 C   0  0  0  0  0  0  0  0  0  0  0  0
   22.0681  -20.2357  -11.8964 C   0  0  0  0  0  0  0  0  0  0  0  0
   20.7849  -20.2460  -11.3809 O   0  0  0  0  0  0  0  0  0  0  0  0
   22.2314  -19.8374  -13.0771 O   0  0  0  0  0  0  0  0  0  0  0  0
  2  1  1  6
  2  3  1  0
  3  4  1  0
  4  8  1  0
  4  5  2  0
  6  2  1  0
  7  6  2  0
 10  9  1  1
 10 12  1  0
 11 10  1  0
 13 12  1  1
 13 14  1  0
 14  6  1  0
 15 16  2  0
 15 13  1  0
 17 15  1  0
 18 17  1  0
 19 18  1  0
 20 19  1  0
 21 19  2  0
M  END
$$$$
