NMV.pdb
     RDKit          3D

 24 23  0  0  1  0  0  0  0  0999 V2000
    7.7446  -17.7593   18.3266 N   0  0  0  0  0  0  0  0  0  0  0  0
    8.2903  -16.4607   18.3045 C   0  0  0  0  0  0  0  0  0  0  0  0
    8.4417  -15.9064   17.1822 O   0  0  0  0  0  0  0  0  0  0  0  0
    8.6996  -15.6986   19.5059 C   0  0  0  0  0  0  0  0  0  0  0  0
    8.4781  -16.4803   20.7708 C   0  0  2  0  0  0  0  0  0  0  0  0
    7.0942  -16.8078   20.9923 N   0  0  0  0  0  0  0  0  0  0  0  0
    8.9681  -15.6499   21.8964 C   0  0  0  0  0  0  0  0  0  0  0  0
   10.1945  -15.3756   21.9945 O   0  0  0  0  0  0  0  0  0  0  0  0
    5.4841  -12.4763   26.9501 C   0  0  0  0  0  0  0  0  0  0  0  0
    6.7447  -11.4117   26.1889 S   0  0  0  0  0  0  0  0  0  0  0  0
    8.1143  -12.5308   25.6563 C   0  0  0  0  0  0  0  0  0  0  0  0
    7.6704  -13.3263   24.4711 C   0  0  0  0  0  0  0  0  0  0  0  0
    8.6718  -14.3529   24.0389 C   0  0  2  0  0  0  0  0  0  0  0  0
    8.1246  -15.1282   22.8998 N   0  0  0  0  0  0  0  0  0  0  0  0
    8.9846  -15.2842   25.1446 C   0  0  0  0  0  0  0  0  0  0  0  0
    9.3717  -14.8697   26.2352 O   0  0  0  0  0  0  0  0  0  0  0  0
    8.3781  -19.6431   24.7896 C   0  0  0  0  0  0  0  0  0  0  0  0
    8.1512  -18.7850   25.9859 C   0  0  2  0  0  0  0  0  0  0  0  0
    6.7141  -18.3175   26.0953 C   0  0  0  0  0  0  0  0  0  0  0  0
    9.1233  -17.6135   26.0733 C   0  0  2  0  0  0  0  0  0  0  0  0
    8.8484  -16.7074   24.9864 N   0  0  0  0  0  0  0  0  0  0  0  0
   10.5276  -18.0929   26.0667 C   0  0  0  0  0  0  0  0  0  0  0  0
   10.9630  -18.7892   27.0150 O   0  0  0  0  0  0  0  0  0  0  0  0
   11.4122  -17.8066   25.0418 O   0  0  0  0  0  0  0  0  0  0  0  0
  2  1  1  0
  2  3  2  0
  4  2  1  0
  5  7  1  0
  5  4  1  0
  5  6  1  1
  7  8  2  0
  9 10  1  0
 10 11  1  0
 11 12  1  0
 13 12  1  1
 14 13  1  0
 14  7  1  0
 15 16  2  0
 15 13  1  0
 18 17  1  6
 19 18  1  0
 20 18  1  0
 20 21  1  6
 21 15  1  0
 22 20  1  0
 23 22  2  0
 24 22  1  0
M  END
$$$$
