NMV.pdb
     RDKit          3D

 24 23  0  0  1  0  0  0  0  0999 V2000
   11.4737  -17.1155   17.9823 N   0  0  0  0  0  0  0  0  0  0  0  0
   10.8450  -17.4368   19.2015 C   0  0  0  0  0  0  0  0  0  0  0  0
   10.3888  -18.6043   19.3371 O   0  0  0  0  0  0  0  0  0  0  0  0
   10.6812  -16.5008   20.3368 C   0  0  0  0  0  0  0  0  0  0  0  0
    9.4101  -16.7562   21.0979 C   0  0  2  0  0  0  0  0  0  0  0  0
    8.2286  -16.4547   20.3332 N   0  0  0  0  0  0  0  0  0  0  0  0
    9.4386  -15.9006   22.3077 C   0  0  0  0  0  0  0  0  0  0  0  0
   10.1066  -14.8316   22.3122 O   0  0  0  0  0  0  0  0  0  0  0  0
    7.1470  -11.4236   26.1852 C   0  0  0  0  0  0  0  0  0  0  0  0
    5.9823  -12.5611   25.3780 S   0  0  0  0  0  0  0  0  0  0  0  0
    6.9946  -13.6392   24.2713 C   0  0  0  0  0  0  0  0  0  0  0  0
    7.4155  -14.8616   25.0216 C   0  0  0  0  0  0  0  0  0  0  0  0
    8.7992  -15.3200   24.6772 C   0  0  2  0  0  0  0  0  0  0  0  0
    8.7442  -16.2134   23.4953 N   0  0  0  0  0  0  0  0  0  0  0  0
    9.4078  -16.0574   25.8057 C   0  0  0  0  0  0  0  0  0  0  0  0
    8.8908  -17.0804   26.2500 O   0  0  0  0  0  0  0  0  0  0  0  0
   10.3215  -13.4359   28.1154 C   0  0  0  0  0  0  0  0  0  0  0  0
   10.1774  -14.8163   28.6562 C   0  0  2  0  0  0  0  0  0  0  0  0
   10.5765  -14.9082   30.1150 C   0  0  0  0  0  0  0  0  0  0  0  0
   10.8998  -15.8647   27.8169 C   0  0  2  0  0  0  0  0  0  0  0  0
   10.6252  -15.6067   26.4254 N   0  0  0  0  0  0  0  0  0  0  0  0
   10.5002  -17.2338   28.2264 C   0  0  0  0  0  0  0  0  0  0  0  0
    9.4223  -17.7276   27.8165 O   0  0  0  0  0  0  0  0  0  0  0  0
   11.2732  -18.0217   29.0610 O   0  0  0  0  0  0  0  0  0  0  0  0
  2  1  1  0
  2  3  2  0
  4  2  1  0
  5  7  1  0
  5  4  1  0
  5  6  1  6
  7  8  2  0
  9 10  1  0
 10 11  1  0
 11 12  1  0
 13 12  1  1
 14 13  1  0
 14  7  1  0
 15 16  2  0
 15 13  1  0
 18 17  1  6
 19 18  1  0
 20 18  1  0
 20 21  1  6
 21 15  1  0
 22 20  1  0
 23 22  2  0
 24 22  1  0
M  END
$$$$
