NMV.pdb
     RDKit          3D

 24 23  0  0  1  0  0  0  0  0999 V2000
   10.5111  -18.3375   18.6563 N   0  0  0  0  0  0  0  0  0  0  0  0
   10.4459  -16.9304   18.6826 C   0  0  0  0  0  0  0  0  0  0  0  0
   10.6799  -16.3117   17.6092 O   0  0  0  0  0  0  0  0  0  0  0  0
   10.1219  -16.1246   19.8815 C   0  0  0  0  0  0  0  0  0  0  0  0
    9.9284  -16.9825   21.1008 C   0  0  2  0  0  0  0  0  0  0  0  0
    8.7769  -17.8406   21.0054 N   0  0  0  0  0  0  0  0  0  0  0  0
    9.7638  -16.0740   22.2602 C   0  0  0  0  0  0  0  0  0  0  0  0
   10.6681  -15.2446   22.5487 O   0  0  0  0  0  0  0  0  0  0  0  0
    6.1638  -11.4183   25.6061 C   0  0  0  0  0  0  0  0  0  0  0  0
    5.4941  -13.1008   25.7573 S   0  0  0  0  0  0  0  0  0  0  0  0
    6.9501  -14.2230   25.9390 C   0  0  0  0  0  0  0  0  0  0  0  0
    7.1185  -15.0213   24.6865 C   0  0  0  0  0  0  0  0  0  0  0  0
    8.5519  -15.2229   24.3015 C   0  0  2  0  0  0  0  0  0  0  0  0
    8.6234  -16.0756   23.0909 N   0  0  0  0  0  0  0  0  0  0  0  0
    9.3050  -15.8781   25.3929 C   0  0  0  0  0  0  0  0  0  0  0  0
    9.5381  -17.0849   25.3697 O   0  0  0  0  0  0  0  0  0  0  0  0
   10.6135  -13.4649   28.5889 C   0  0  0  0  0  0  0  0  0  0  0  0
   10.3847  -14.9143   28.8455 C   0  0  2  0  0  0  0  0  0  0  0  0
   11.2535  -15.4449   29.9677 C   0  0  0  0  0  0  0  0  0  0  0  0
   10.5158  -15.7706   27.5906 C   0  0  2  0  0  0  0  0  0  0  0  0
    9.7925  -15.1302   26.5208 N   0  0  0  0  0  0  0  0  0  0  0  0
   10.0405  -17.1532   27.8446 C   0  0  0  0  0  0  0  0  0  0  0  0
    8.8121  -17.4076   27.8570 O   0  0  0  0  0  0  0  0  0  0  0  0
   10.9020  -18.2111   28.0758 O   0  0  0  0  0  0  0  0  0  0  0  0
  2  1  1  0
  2  3  2  0
  4  2  1  0
  5  7  1  0
  5  4  1  0
  5  6  1  6
  7  8  2  0
  9 10  1  0
 10 11  1  0
 11 12  1  0
 13 12  1  1
 14 13  1  0
 14  7  1  0
 15 16  2  0
 15 13  1  0
 18 17  1  6
 19 18  1  0
 20 18  1  0
 20 21  1  6
 21 15  1  0
 22 20  1  0
 23 22  2  0
 24 22  1  0
M  END
$$$$
