NMV.pdb
     RDKit          3D

 24 23  0  0  1  0  0  0  0  0999 V2000
   11.0366  -18.8986   19.1893 N   0  0  0  0  0  0  0  0  0  0  0  0
   11.9924  -18.3052   20.0373 C   0  0  0  0  0  0  0  0  0  0  0  0
   13.1517  -18.8006   20.0526 O   0  0  0  0  0  0  0  0  0  0  0  0
   11.7334  -17.1401   20.9132 C   0  0  0  0  0  0  0  0  0  0  0  0
   10.2861  -16.7338   20.8960 C   0  0  2  0  0  0  0  0  0  0  0  0
    9.9428  -15.9311   19.7517 N   0  0  0  0  0  0  0  0  0  0  0  0
   10.0296  -15.9557   22.1311 C   0  0  0  0  0  0  0  0  0  0  0  0
   10.5029  -14.7943   22.2581 O   0  0  0  0  0  0  0  0  0  0  0  0
    5.8636  -12.9706   26.3103 C   0  0  0  0  0  0  0  0  0  0  0  0
    6.9526  -13.0365   24.8572 S   0  0  0  0  0  0  0  0  0  0  0  0
    6.6220  -14.6576   24.0357 C   0  0  0  0  0  0  0  0  0  0  0  0
    7.4623  -15.7161   24.6744 C   0  0  0  0  0  0  0  0  0  0  0  0
    8.9215  -15.5799   24.3651 C   0  0  2  0  0  0  0  0  0  0  0  0
    9.2651  -16.4449   23.2111 N   0  0  0  0  0  0  0  0  0  0  0  0
    9.7471  -15.9804   25.5252 C   0  0  0  0  0  0  0  0  0  0  0  0
   10.4309  -17.0016   25.4971 O   0  0  0  0  0  0  0  0  0  0  0  0
   10.7030  -13.2260   28.5622 C   0  0  0  0  0  0  0  0  0  0  0  0
   10.3205  -14.5978   28.9990 C   0  0  2  0  0  0  0  0  0  0  0  0
   11.0303  -15.0164   30.2705 C   0  0  0  0  0  0  0  0  0  0  0  0
   10.4882  -15.6425   27.9009 C   0  0  2  0  0  0  0  0  0  0  0  0
    9.7813  -15.1923   26.7280 N   0  0  0  0  0  0  0  0  0  0  0  0
   10.0225  -16.9729   28.3643 C   0  0  0  0  0  0  0  0  0  0  0  0
   10.8134  -17.7520   28.9486 O   0  0  0  0  0  0  0  0  0  0  0  0
    8.7246  -17.4174   28.1829 O   0  0  0  0  0  0  0  0  0  0  0  0
  2  1  1  0
  2  3  2  0
  4  2  1  0
  5  7  1  0
  5  4  1  0
  5  6  1  6
  7  8  2  0
  9 10  1  0
 10 11  1  0
 11 12  1  0
 13 12  1  1
 14 13  1  0
 14  7  1  0
 15 16  2  0
 15 13  1  0
 18 17  1  6
 19 18  1  0
 20 18  1  0
 20 21  1  6
 21 15  1  0
 22 20  1  0
 23 22  2  0
 24 22  1  0
M  END
$$$$
