NMV.pdb
     RDKit          3D

 24 23  0  0  1  0  0  0  0  0999 V2000
    7.5272  -12.4765   17.6504 N   0  0  0  0  0  0  0  0  0  0  0  0
    8.1603  -13.6293   18.1554 C   0  0  0  0  0  0  0  0  0  0  0  0
    8.2244  -14.6404   17.4049 O   0  0  0  0  0  0  0  0  0  0  0  0
    8.7568  -13.7393   19.5059 C   0  0  0  0  0  0  0  0  0  0  0  0
    8.2510  -14.9449   20.2481 C   0  0  2  0  0  0  0  0  0  0  0  0
    6.8230  -15.0999   20.1584 N   0  0  0  0  0  0  0  0  0  0  0  0
    8.6348  -14.7827   21.6704 C   0  0  0  0  0  0  0  0  0  0  0  0
    9.8514  -14.7436   21.9980 O   0  0  0  0  0  0  0  0  0  0  0  0
    7.4175  -10.7846   26.9375 C   0  0  0  0  0  0  0  0  0  0  0  0
    6.3662  -12.2626   27.0494 S   0  0  0  0  0  0  0  0  0  0  0  0
    7.3575  -13.6568   26.3524 C   0  0  0  0  0  0  0  0  0  0  0  0
    7.0392  -13.8122   24.9002 C   0  0  0  0  0  0  0  0  0  0  0  0
    8.1323  -14.4790   24.1231 C   0  0  2  0  0  0  0  0  0  0  0  0
    7.6972  -14.6652   22.7181 N   0  0  0  0  0  0  0  0  0  0  0  0
    8.4610  -15.8004   24.7007 C   0  0  0  0  0  0  0  0  0  0  0  0
    7.6096  -16.6818   24.7980 O   0  0  0  0  0  0  0  0  0  0  0  0
   11.5083  -17.8296   23.6297 C   0  0  0  0  0  0  0  0  0  0  0  0
   11.4758  -17.8202   25.1189 C   0  0  2  0  0  0  0  0  0  0  0  0
   11.9452  -19.1323   25.7137 C   0  0  0  0  0  0  0  0  0  0  0  0
   10.1205  -17.4088   25.6838 C   0  0  2  0  0  0  0  0  0  0  0  0
    9.7864  -16.1041   25.1699 N   0  0  0  0  0  0  0  0  0  0  0  0
   10.1358  -17.4438   27.1672 C   0  0  0  0  0  0  0  0  0  0  0  0
   10.4009  -16.4071   27.8219 O   0  0  0  0  0  0  0  0  0  0  0  0
    9.8659  -18.5911   27.8923 O   0  0  0  0  0  0  0  0  0  0  0  0
  2  1  1  0
  2  3  2  0
  4  2  1  0
  5  7  1  0
  5  4  1  0
  5  6  1  1
  7  8  2  0
  9 10  1  0
 10 11  1  0
 11 12  1  0
 13 12  1  1
 14 13  1  0
 14  7  1  0
 15 16  2  0
 15 13  1  0
 18 17  1  6
 19 18  1  0
 20 18  1  0
 20 21  1  1
 21 15  1  0
 22 20  1  0
 23 22  2  0
 24 22  1  0
M  END
$$$$
