NMV.pdb
     RDKit          3D

 24 23  0  0  1  0  0  0  0  0999 V2000
    9.9629  -18.2277   18.4050 N   0  0  0  0  0  0  0  0  0  0  0  0
   10.4165  -16.8997   18.5296 C   0  0  0  0  0  0  0  0  0  0  0  0
   10.9117  -16.3502   17.5085 O   0  0  0  0  0  0  0  0  0  0  0  0
   10.3536  -16.1016   19.7749 C   0  0  0  0  0  0  0  0  0  0  0  0
    9.8509  -16.9112   20.9376 C   0  0  2  0  0  0  0  0  0  0  0  0
    8.5376  -17.4562   20.7150 N   0  0  0  0  0  0  0  0  0  0  0  0
    9.8127  -16.0154   22.1177 C   0  0  0  0  0  0  0  0  0  0  0  0
   10.8296  -15.3412   22.4346 O   0  0  0  0  0  0  0  0  0  0  0  0
    5.6407  -11.4168   25.9761 C   0  0  0  0  0  0  0  0  0  0  0  0
    5.5237  -13.2285   26.0524 S   0  0  0  0  0  0  0  0  0  0  0  0
    7.2409  -13.8683   25.8199 C   0  0  0  0  0  0  0  0  0  0  0  0
    7.3118  -14.6419   24.5429 C   0  0  0  0  0  0  0  0  0  0  0  0
    8.7100  -15.0082   24.1498 C   0  0  2  0  0  0  0  0  0  0  0  0
    8.6753  -15.8618   22.9382 N   0  0  0  0  0  0  0  0  0  0  0  0
    9.3877  -15.7480   25.2365 C   0  0  0  0  0  0  0  0  0  0  0  0
    9.4968  -16.9720   25.2011 O   0  0  0  0  0  0  0  0  0  0  0  0
   11.6707  -15.4397   29.6842 C   0  0  0  0  0  0  0  0  0  0  0  0
   10.9990  -14.7938   28.5221 C   0  0  2  0  0  0  0  0  0  0  0  0
    9.8234  -13.9345   28.9408 C   0  0  0  0  0  0  0  0  0  0  0  0
   10.6006  -15.7866   27.4354 C   0  0  2  0  0  0  0  0  0  0  0  0
    9.9439  -15.0654   26.3739 N   0  0  0  0  0  0  0  0  0  0  0  0
    9.7498  -16.8661   27.9945 C   0  0  0  0  0  0  0  0  0  0  0  0
    8.4997  -16.7649   27.9670 O   0  0  0  0  0  0  0  0  0  0  0  0
   10.2733  -18.0143   28.5624 O   0  0  0  0  0  0  0  0  0  0  0  0
  2  1  1  0
  2  3  2  0
  4  2  1  0
  5  7  1  0
  5  4  1  0
  5  6  1  6
  7  8  2  0
  9 10  1  0
 10 11  1  0
 11 12  1  0
 13 12  1  1
 14 13  1  0
 14  7  1  0
 15 16  2  0
 15 13  1  0
 18 17  1  1
 19 18  1  0
 20 18  1  0
 20 21  1  6
 21 15  1  0
 22 20  1  0
 23 22  2  0
 24 22  1  0
M  END
$$$$
