NMV.pdb
     RDKit          3D

 24 23  0  0  1  0  0  0  0  0999 V2000
   10.2195  -18.2906   19.2471 N   0  0  0  0  0  0  0  0  0  0  0  0
   10.9881  -17.1672   19.6104 C   0  0  0  0  0  0  0  0  0  0  0  0
   11.8842  -16.7852   18.8101 O   0  0  0  0  0  0  0  0  0  0  0  0
   10.8191  -16.4016   20.8663 C   0  0  0  0  0  0  0  0  0  0  0  0
    9.9009  -17.0986   21.8312 C   0  0  2  0  0  0  0  0  0  0  0  0
    8.6224  -17.4216   21.2546 N   0  0  0  0  0  0  0  0  0  0  0  0
    9.6991  -16.1907   22.9852 C   0  0  0  0  0  0  0  0  0  0  0  0
   10.6920  -15.6869   23.5762 O   0  0  0  0  0  0  0  0  0  0  0  0
    7.3750  -10.9430   26.8688 C   0  0  0  0  0  0  0  0  0  0  0  0
    6.4186  -11.8386   25.6098 S   0  0  0  0  0  0  0  0  0  0  0  0
    6.6300  -13.6358   25.9806 C   0  0  0  0  0  0  0  0  0  0  0  0
    6.9270  -14.3707   24.7133 C   0  0  0  0  0  0  0  0  0  0  0  0
    8.2787  -15.0159   24.7063 C   0  0  2  0  0  0  0  0  0  0  0  0
    8.4264  -15.8409   23.4835 N   0  0  0  0  0  0  0  0  0  0  0  0
    8.4568  -15.8822   25.8918 C   0  0  0  0  0  0  0  0  0  0  0  0
    8.5352  -15.4055   27.0222 O   0  0  0  0  0  0  0  0  0  0  0  0
    8.7910  -20.3157   25.6373 C   0  0  0  0  0  0  0  0  0  0  0  0
    8.0147  -19.5039   26.6156 C   0  0  2  0  0  0  0  0  0  0  0  0
    6.5676  -19.3311   26.2011 C   0  0  0  0  0  0  0  0  0  0  0  0
    8.6662  -18.1608   26.9270 C   0  0  2  0  0  0  0  0  0  0  0  0
    8.5449  -17.3126   25.7678 N   0  0  0  0  0  0  0  0  0  0  0  0
   10.0777  -18.3448   27.3463 C   0  0  0  0  0  0  0  0  0  0  0  0
   10.3473  -18.9427   28.4157 O   0  0  0  0  0  0  0  0  0  0  0  0
   11.1472  -17.8797   26.6015 O   0  0  0  0  0  0  0  0  0  0  0  0
  2  1  1  0
  2  3  2  0
  4  2  1  0
  5  7  1  0
  5  4  1  0
  5  6  1  6
  7  8  2  0
  9 10  1  0
 10 11  1  0
 11 12  1  0
 13 12  1  1
 14 13  1  0
 14  7  1  0
 15 16  2  0
 15 13  1  0
 18 17  1  6
 19 18  1  0
 20 18  1  0
 20 21  1  6
 21 15  1  0
 22 20  1  0
 23 22  2  0
 24 22  1  0
M  END
$$$$
