NMV.pdb
     RDKit          3D

 24 23  0  0  1  0  0  0  0  0999 V2000
   10.7145  -18.3214   18.7806 N   0  0  0  0  0  0  0  0  0  0  0  0
   11.0693  -16.9634   18.9017 C   0  0  0  0  0  0  0  0  0  0  0  0
   11.6816  -16.4283   17.9381 O   0  0  0  0  0  0  0  0  0  0  0  0
   10.7748  -16.1179   20.0807 C   0  0  0  0  0  0  0  0  0  0  0  0
   10.2285  -16.9219   21.2276 C   0  0  2  0  0  0  0  0  0  0  0  0
    8.9445  -17.5057   20.9414 N   0  0  0  0  0  0  0  0  0  0  0  0
   10.1004  -16.0085   22.3877 C   0  0  0  0  0  0  0  0  0  0  0  0
   11.0868  -15.3195   22.7636 O   0  0  0  0  0  0  0  0  0  0  0  0
    5.6967  -11.3972   25.5491 C   0  0  0  0  0  0  0  0  0  0  0  0
    5.5707  -13.1589   25.9764 S   0  0  0  0  0  0  0  0  0  0  0  0
    7.2870  -13.8364   25.8905 C   0  0  0  0  0  0  0  0  0  0  0  0
    7.4391  -14.6408   24.6399 C   0  0  0  0  0  0  0  0  0  0  0  0
    8.8598  -15.0117   24.3441 C   0  0  2  0  0  0  0  0  0  0  0  0
    8.9073  -15.8534   23.1245 N   0  0  0  0  0  0  0  0  0  0  0  0
    9.4541  -15.7662   25.4689 C   0  0  0  0  0  0  0  0  0  0  0  0
    9.5309  -16.9928   25.4423 O   0  0  0  0  0  0  0  0  0  0  0  0
   10.9439  -13.5585   28.7322 C   0  0  0  0  0  0  0  0  0  0  0  0
   10.4926  -14.9562   28.9805 C   0  0  2  0  0  0  0  0  0  0  0  0
   11.2301  -15.6033   30.1350 C   0  0  0  0  0  0  0  0  0  0  0  0
   10.5418  -15.8301   27.7318 C   0  0  2  0  0  0  0  0  0  0  0  0
    9.9638  -15.0950   26.6347 N   0  0  0  0  0  0  0  0  0  0  0  0
    9.8554  -17.1244   27.9675 C   0  0  0  0  0  0  0  0  0  0  0  0
    8.6043  -17.1967   27.9104 O   0  0  0  0  0  0  0  0  0  0  0  0
   10.5382  -18.2929   28.2559 O   0  0  0  0  0  0  0  0  0  0  0  0
  2  1  1  0
  2  3  2  0
  4  2  1  0
  5  7  1  0
  5  4  1  0
  5  6  1  6
  7  8  2  0
  9 10  1  0
 10 11  1  0
 11 12  1  0
 13 12  1  1
 14 13  1  0
 14  7  1  0
 15 16  2  0
 15 13  1  0
 18 17  1  6
 19 18  1  0
 20 18  1  0
 20 21  1  6
 21 15  1  0
 22 20  1  0
 23 22  2  0
 24 22  1  0
M  END
$$$$
