NMV.pdb
     RDKit          3D

 24 23  0  0  1  0  0  0  0  0999 V2000
   10.1254  -18.0855   18.6642 N   0  0  0  0  0  0  0  0  0  0  0  0
   10.3743  -16.7074   18.8177 C   0  0  0  0  0  0  0  0  0  0  0  0
   10.7796  -16.0680   17.8095 O   0  0  0  0  0  0  0  0  0  0  0  0
   10.1941  -15.9545   20.0797 C   0  0  0  0  0  0  0  0  0  0  0  0
    9.7756  -16.8486   21.2136 C   0  0  2  0  0  0  0  0  0  0  0  0
    8.4647  -17.4129   21.0279 N   0  0  0  0  0  0  0  0  0  0  0  0
    9.7827  -16.0299   22.4491 C   0  0  0  0  0  0  0  0  0  0  0  0
   10.7836  -15.3175   22.7314 O   0  0  0  0  0  0  0  0  0  0  0  0
    6.1652  -11.4763   26.2688 C   0  0  0  0  0  0  0  0  0  0  0  0
    5.5056  -13.0484   25.6399 S   0  0  0  0  0  0  0  0  0  0  0  0
    6.7926  -13.7325   24.5051 C   0  0  0  0  0  0  0  0  0  0  0  0
    7.4157  -14.9374   25.1331 C   0  0  0  0  0  0  0  0  0  0  0  0
    8.7954  -15.2228   24.6248 C   0  0  2  0  0  0  0  0  0  0  0  0
    8.7073  -15.9936   23.3615 N   0  0  0  0  0  0  0  0  0  0  0  0
    9.5698  -16.0078   25.6106 C   0  0  0  0  0  0  0  0  0  0  0  0
    9.8968  -17.1707   25.3824 O   0  0  0  0  0  0  0  0  0  0  0  0
    9.9203  -15.3297   29.9289 C   0  0  0  0  0  0  0  0  0  0  0  0
   11.0843  -15.2849   29.0005 C   0  0  2  0  0  0  0  0  0  0  0  0
   11.4857  -13.8670   28.6480 C   0  0  0  0  0  0  0  0  0  0  0  0
   10.8822  -16.1313   27.7484 C   0  0  2  0  0  0  0  0  0  0  0  0
    9.9690  -15.4420   26.8715 N   0  0  0  0  0  0  0  0  0  0  0  0
   10.4056  -17.4911   28.1032 C   0  0  0  0  0  0  0  0  0  0  0  0
    9.2157  -17.8219   27.8833 O   0  0  0  0  0  0  0  0  0  0  0  0
   11.2248  -18.4449   28.6811 O   0  0  0  0  0  0  0  0  0  0  0  0
  2  1  1  0
  2  3  2  0
  4  2  1  0
  5  7  1  0
  5  4  1  0
  5  6  1  6
  7  8  2  0
  9 10  1  0
 10 11  1  0
 11 12  1  0
 13 12  1  1
 14 13  1  0
 14  7  1  0
 15 16  2  0
 15 13  1  0
 18 17  1  6
 19 18  1  0
 20 18  1  0
 20 21  1  6
 21 15  1  0
 22 20  1  0
 23 22  2  0
 24 22  1  0
M  END
$$$$
