NMV.pdb
     RDKit          3D

 24 23  0  0  1  0  0  0  0  0999 V2000
    8.1710  -17.5867   17.5718 N   0  0  0  0  0  0  0  0  0  0  0  0
    8.7561  -16.3188   17.7582 C   0  0  0  0  0  0  0  0  0  0  0  0
    9.1510  -15.6980   16.7344 O   0  0  0  0  0  0  0  0  0  0  0  0
    8.9410  -15.6616   19.0719 C   0  0  0  0  0  0  0  0  0  0  0  0
    8.4749  -16.5307   20.2066 C   0  0  2  0  0  0  0  0  0  0  0  0
    7.0547  -16.7631   20.1878 N   0  0  0  0  0  0  0  0  0  0  0  0
    8.8392  -15.8445   21.4688 C   0  0  0  0  0  0  0  0  0  0  0  0
   10.0470  -15.5927   21.7274 O   0  0  0  0  0  0  0  0  0  0  0  0
    7.0073  -11.1789   27.3911 C   0  0  0  0  0  0  0  0  0  0  0  0
    6.2553  -12.2771   26.1540 S   0  0  0  0  0  0  0  0  0  0  0  0
    7.5725  -13.4712   25.6530 C   0  0  0  0  0  0  0  0  0  0  0  0
    7.2252  -14.0620   24.3246 C   0  0  0  0  0  0  0  0  0  0  0  0
    8.3141  -14.9184   23.7550 C   0  0  2  0  0  0  0  0  0  0  0  0
    7.8920  -15.4405   22.4332 N   0  0  0  0  0  0  0  0  0  0  0  0
    8.6098  -16.0601   24.6476 C   0  0  0  0  0  0  0  0  0  0  0  0
    7.7446  -16.8855   24.9329 O   0  0  0  0  0  0  0  0  0  0  0  0
   12.7006  -17.0734   25.6242 C   0  0  0  0  0  0  0  0  0  0  0  0
   11.5464  -18.0035   25.4772 C   0  0  2  0  0  0  0  0  0  0  0  0
   11.3970  -18.5168   24.0594 C   0  0  0  0  0  0  0  0  0  0  0  0
   10.2376  -17.4173   25.9953 C   0  0  2  0  0  0  0  0  0  0  0  0
    9.9183  -16.2480   25.2150 N   0  0  0  0  0  0  0  0  0  0  0  0
   10.3318  -17.1191   27.4458 C   0  0  0  0  0  0  0  0  0  0  0  0
   10.5066  -18.0464   28.2724 O   0  0  0  0  0  0  0  0  0  0  0  0
   10.2347  -15.8359   27.9548 O   0  0  0  0  0  0  0  0  0  0  0  0
  2  1  1  0
  2  3  2  0
  4  2  1  0
  5  7  1  0
  5  4  1  0
  5  6  1  6
  7  8  2  0
  9 10  1  0
 10 11  1  0
 11 12  1  0
 13 12  1  1
 14 13  1  0
 14  7  1  0
 15 16  2  0
 15 13  1  0
 18 17  1  6
 19 18  1  0
 20 18  1  0
 20 21  1  6
 21 15  1  0
 22 20  1  0
 23 22  2  0
 24 22  1  0
M  END
$$$$
