NMV.pdb
     RDKit          3D

 24 23  0  0  1  0  0  0  0  0999 V2000
    9.3973  -17.7778   17.5753 N   0  0  0  0  0  0  0  0  0  0  0  0
   10.3916  -17.4981   18.5333 C   0  0  0  0  0  0  0  0  0  0  0  0
   11.5123  -18.0594   18.3974 O   0  0  0  0  0  0  0  0  0  0  0  0
   10.2152  -16.5911   19.6900 C   0  0  0  0  0  0  0  0  0  0  0  0
   10.1155  -17.3453   20.9866 C   0  0  2  0  0  0  0  0  0  0  0  0
    8.9132  -18.1302   21.0875 N   0  0  0  0  0  0  0  0  0  0  0  0
   10.1390  -16.3477   22.0824 C   0  0  0  0  0  0  0  0  0  0  0  0
   11.1011  -15.5395   22.1830 O   0  0  0  0  0  0  0  0  0  0  0  0
    5.9940  -11.9830   27.0888 C   0  0  0  0  0  0  0  0  0  0  0  0
    5.9709  -13.4491   26.0156 S   0  0  0  0  0  0  0  0  0  0  0  0
    7.7358  -13.8416   25.6372 C   0  0  0  0  0  0  0  0  0  0  0  0
    7.7921  -14.9398   24.6248 C   0  0  0  0  0  0  0  0  0  0  0  0
    9.1746  -15.2001   24.1105 C   0  0  2  0  0  0  0  0  0  0  0  0
    9.1216  -16.2386   23.0538 N   0  0  0  0  0  0  0  0  0  0  0  0
   10.0629  -15.6683   25.1966 C   0  0  0  0  0  0  0  0  0  0  0  0
   11.1252  -16.2356   24.9497 O   0  0  0  0  0  0  0  0  0  0  0  0
    9.4177  -14.4859   29.3723 C   0  0  0  0  0  0  0  0  0  0  0  0
   10.6965  -14.6984   28.6386 C   0  0  2  0  0  0  0  0  0  0  0  0
   11.2042  -13.4287   27.9861 C   0  0  0  0  0  0  0  0  0  0  0  0
   10.6267  -15.8465   27.6375 C   0  0  2  0  0  0  0  0  0  0  0  0
    9.7186  -15.4783   26.5803 N   0  0  0  0  0  0  0  0  0  0  0  0
   10.2283  -17.1079   28.3097 C   0  0  0  0  0  0  0  0  0  0  0  0
   10.9803  -17.6339   29.1651 O   0  0  0  0  0  0  0  0  0  0  0  0
    9.0371  -17.7577   28.0382 O   0  0  0  0  0  0  0  0  0  0  0  0
  2  1  1  0
  2  3  2  0
  4  2  1  0
  5  7  1  0
  5  4  1  0
  5  6  1  6
  7  8  2  0
  9 10  1  0
 10 11  1  0
 11 12  1  0
 13 12  1  1
 14 13  1  0
 14  7  1  0
 15 16  2  0
 15 13  1  0
 18 17  1  6
 19 18  1  0
 20 18  1  0
 20 21  1  6
 21 15  1  0
 22 20  1  0
 23 22  2  0
 24 22  1  0
M  END
$$$$
