FRS.pdb
     RDKit          3D

 29 29  0  0  1  0  0  0  0  0999 V2000
   21.8413  -19.2616  -11.9459 N   0  0  0  0  0  0  0  0  0  0  0  0
   23.1374  -19.8589  -12.0045 C   0  0  1  0  0  0  0  0  0  0  0  0
   23.0820  -21.1510  -11.1778 C   0  0  0  0  0  0  0  0  0  0  0  0
   23.4590  -20.9248   -9.7768 C   0  0  0  0  0  0  0  0  0  0  0  0
   24.7755  -20.7212   -9.4429 C   0  0  0  0  0  0  0  0  0  0  0  0
   25.1396  -20.5062   -8.1148 C   0  0  0  0  0  0  0  0  0  0  0  0
   24.1818  -20.4931   -7.1028 C   0  0  0  0  0  0  0  0  0  0  0  0
   22.8514  -20.6995   -7.4460 C   0  0  0  0  0  0  0  0  0  0  0  0
   22.5161  -20.9116   -8.7777 C   0  0  0  0  0  0  0  0  0  0  0  0
   23.5207  -20.2798  -13.3777 C   0  0  0  0  0  0  0  0  0  0  0  0
   22.8073  -19.7888  -14.3174 O   0  0  0  0  0  0  0  0  0  0  0  0
   30.4223  -24.5484  -17.2017 N   0  0  0  0  0  0  0  0  0  0  0  0
   29.6590  -23.9722  -18.2493 C   0  0  0  0  0  0  0  0  0  0  0  0
   30.0460  -24.0498  -19.4846 N   0  0  0  0  0  0  0  0  0  0  0  0
   28.4311  -23.2789  -17.9899 N   0  0  0  0  0  0  0  0  0  0  0  0
   27.9445  -23.1285  -16.6352 C   0  0  0  0  0  0  0  0  0  0  0  0
   26.6187  -22.3831  -16.6048 C   0  0  0  0  0  0  0  0  0  0  0  0
   26.2387  -22.1556  -15.1786 C   0  0  0  0  0  0  0  0  0  0  0  0
   24.9054  -21.4282  -15.0542 C   0  0  2  0  0  0  0  0  0  0  0  0
   24.5799  -21.1507  -13.6854 N   0  0  0  0  0  0  0  0  0  0  0  0
   23.8352  -22.1757  -15.7715 C   0  0  0  0  0  0  0  0  0  0  0  0
   23.4374  -23.2492  -15.2933 O   0  0  0  0  0  0  0  0  0  0  0  0
   29.5227  -23.5014  -20.1984 O   0  0  0  0  0  0  0  0  0  0  0  0
   20.4963  -20.5712  -17.4891 C   0  0  0  0  0  0  0  0  0  0  0  0
   20.7880  -21.8785  -17.1525 C   0  0  1  0  0  0  0  0  0  0  0  0
   22.1307  -22.3487  -17.6210 N   0  0  0  0  0  0  0  0  0  0  0  0
   23.2446  -21.7231  -16.9774 C   0  0  0  0  0  0  0  0  0  0  0  0
   22.1895  -22.2904  -19.0892 O   0  0  0  0  0  0  0  0  0  0  0  0
   21.3743  -22.8878  -19.8429 O   0  0  0  0  0  0  0  0  0  0  0  0
  2  1  1  6
  3  2  1  0
  3  4  1  0
  4  9  2  0
  5  4  1  0
  5  6  2  0
  6  7  1  0
  7  8  2  0
  9  8  1  0
 10 20  1  0
 10  2  1  0
 11 10  2  0
 13 12  1  0
 14 13  2  0
 15 13  1  0
 16 15  1  0
 17 16  1  0
 18 17  1  0
 19 18  1  1
 19 20  1  0
 21 19  1  0
 21 26  1  0
 22 21  2  0
 24 23  1  0
 25 24  1  1
 25 26  1  0
 25 27  1  0
 27 28  2  0
 27 29  1  0
M  END
$$$$
