FRS.pdb
     RDKit          3D

 29 29  0  0  1  0  0  0  0  0999 V2000
   27.0464  -18.7373  -17.6199 N   0  0  0  0  0  0  0  0  0  0  0  0
   26.9734  -18.1546  -16.3179 C   0  0  1  0  0  0  0  0  0  0  0  0
   25.6215  -17.4351  -16.2154 C   0  0  0  0  0  0  0  0  0  0  0  0
   25.6718  -16.0842  -16.7889 C   0  0  0  0  0  0  0  0  0  0  0  0
   25.0596  -15.8238  -17.9904 C   0  0  0  0  0  0  0  0  0  0  0  0
   25.1041  -14.5437  -18.5400 C   0  0  0  0  0  0  0  0  0  0  0  0
   25.7664  -13.5063  -17.8865 C   0  0  0  0  0  0  0  0  0  0  0  0
   26.3839  -13.7752  -16.6712 C   0  0  0  0  0  0  0  0  0  0  0  0
   26.3243  -15.0604  -16.1461 C   0  0  0  0  0  0  0  0  0  0  0  0
   26.9705  -19.1664  -15.2288 C   0  0  0  0  0  0  0  0  0  0  0  0
   26.7474  -20.3681  -15.6017 O   0  0  0  0  0  0  0  0  0  0  0  0
   30.5738  -23.9437   -9.5839 N   0  0  0  0  0  0  0  0  0  0  0  0
   31.4750  -22.9599  -10.0654 C   0  0  0  0  0  0  0  0  0  0  0  0
   32.7379  -23.2172  -10.2087 N   0  0  0  0  0  0  0  0  0  0  0  0
   31.0319  -21.6409  -10.4116 N   0  0  0  0  0  0  0  0  0  0  0  0
   29.6198  -21.3498  -10.5372 C   0  0  0  0  0  0  0  0  0  0  0  0
   29.2670  -20.9307  -11.9564 C   0  0  0  0  0  0  0  0  0  0  0  0
   28.2960  -19.7983  -11.8857 C   0  0  0  0  0  0  0  0  0  0  0  0
   27.1736  -19.9468  -12.9057 C   0  0  2  0  0  0  0  0  0  0  0  0
   27.1909  -18.8851  -13.8696 N   0  0  0  0  0  0  0  0  0  0  0  0
   25.8606  -20.0930  -12.2179 C   0  0  0  0  0  0  0  0  0  0  0  0
   25.3013  -19.0748  -11.7822 O   0  0  0  0  0  0  0  0  0  0  0  0
   33.3639  -22.4458  -10.5203 O   0  0  0  0  0  0  0  0  0  0  0  0
   22.8519  -21.2067   -9.1970 C   0  0  0  0  0  0  0  0  0  0  0  0
   24.0123  -20.9754   -9.9094 C   0  0  2  0  0  0  0  0  0  0  0  0
   23.9974  -21.5240  -11.3030 N   0  0  0  0  0  0  0  0  0  0  0  0
   25.2133  -21.3400  -12.0340 C   0  0  0  0  0  0  0  0  0  0  0  0
   22.8042  -21.0382  -12.0121 O   0  0  0  0  0  0  0  0  0  0  0  0
   22.8526  -20.3799  -13.0862 O   0  0  0  0  0  0  0  0  0  0  0  0
  2  1  1  6
  3  2  1  0
  3  4  1  0
  4  9  2  0
  5  4  1  0
  5  6  2  0
  6  7  1  0
  7  8  2  0
  9  8  1  0
 10 20  1  0
 10  2  1  0
 11 10  2  0
 13 12  1  0
 14 13  2  0
 15 13  1  0
 16 15  1  0
 17 16  1  0
 18 17  1  0
 19 18  1  1
 19 20  1  0
 21 19  1  0
 21 26  1  0
 22 21  2  0
 24 23  1  0
 25 24  1  1
 25 26  1  0
 25 27  1  0
 27 28  2  0
 27 29  1  0
M  END
$$$$
