FRS.pdb
     RDKit          3D

 29 29  0  0  1  0  0  0  0  0999 V2000
   39.4491   -5.4900   -7.2103 N   0  0  0  0  0  0  0  0  0  0  0  0
   39.3855   -6.8825   -6.8986 C   0  0  1  0  0  0  0  0  0  0  0  0
   38.0407   -7.4060   -7.4211 C   0  0  0  0  0  0  0  0  0  0  0  0
   36.9592   -7.2151   -6.4464 C   0  0  0  0  0  0  0  0  0  0  0  0
   36.1540   -6.1049   -6.5208 C   0  0  0  0  0  0  0  0  0  0  0  0
   35.1260   -5.9180   -5.5984 C   0  0  0  0  0  0  0  0  0  0  0  0
   34.8937   -6.8477   -4.5868 C   0  0  0  0  0  0  0  0  0  0  0  0
   35.7110   -7.9691   -4.5161 C   0  0  0  0  0  0  0  0  0  0  0  0
   36.7287   -8.1306   -5.4484 C   0  0  0  0  0  0  0  0  0  0  0  0
   40.4246   -7.6819   -7.5994 C   0  0  0  0  0  0  0  0  0  0  0  0
   40.8256   -7.1986   -8.7122 O   0  0  0  0  0  0  0  0  0  0  0  0
   47.3497  -12.4425   -4.9666 N   0  0  0  0  0  0  0  0  0  0  0  0
   47.3936  -12.4545   -6.3843 C   0  0  0  0  0  0  0  0  0  0  0  0
   48.3755  -13.0121   -7.0221 N   0  0  0  0  0  0  0  0  0  0  0  0
   46.3592  -11.8510   -7.1726 N   0  0  0  0  0  0  0  0  0  0  0  0
   45.1673  -11.3252   -6.5420 C   0  0  0  0  0  0  0  0  0  0  0  0
   44.1792  -10.8066   -7.5759 C   0  0  0  0  0  0  0  0  0  0  0  0
   43.0418  -10.1587   -6.8572 C   0  0  0  0  0  0  0  0  0  0  0  0
   42.0569   -9.5077   -7.8207 C   0  0  2  0  0  0  0  0  0  0  0  0
   40.9666   -8.8885   -7.1245 N   0  0  0  0  0  0  0  0  0  0  0  0
   41.6134  -10.4862   -8.8525 C   0  0  0  0  0  0  0  0  0  0  0  0
   40.7786  -11.3474   -8.5350 O   0  0  0  0  0  0  0  0  0  0  0  0
   48.3990  -12.9259   -8.0594 O   0  0  0  0  0  0  0  0  0  0  0  0
   40.6366  -11.5614  -13.4020 C   0  0  0  0  0  0  0  0  0  0  0  0
   41.0799  -10.6943  -12.4227 C   0  0  2  0  0  0  0  0  0  0  0  0
   41.6464  -11.3715  -11.2129 N   0  0  0  0  0  0  0  0  0  0  0  0
   42.0973  -10.4853  -10.1843 C   0  0  0  0  0  0  0  0  0  0  0  0
   42.6566  -12.3569  -11.6263 O   0  0  0  0  0  0  0  0  0  0  0  0
   43.8938  -12.1160  -11.6536 O   0  0  0  0  0  0  0  0  0  0  0  0
  2  1  1  6
  3  2  1  0
  3  4  1  0
  4  9  2  0
  5  4  1  0
  5  6  2  0
  6  7  1  0
  7  8  2  0
  9  8  1  0
 10 20  1  0
 10  2  1  0
 11 10  2  0
 13 12  1  0
 14 13  2  0
 15 13  1  0
 16 15  1  0
 17 16  1  0
 18 17  1  0
 19 18  1  1
 19 20  1  0
 21 19  1  0
 21 26  1  0
 22 21  2  0
 24 23  1  0
 25 24  1  1
 25 26  1  0
 25 27  1  0
 27 28  2  0
 27 29  1  0
M  END
$$$$
