FRS.pdb
     RDKit          3D

 29 29  0  0  1  0  0  0  0  0999 V2000
   24.1462  -12.4158  -15.9659 N   0  0  0  0  0  0  0  0  0  0  0  0
   24.5905  -11.0735  -15.7638 C   0  0  1  0  0  0  0  0  0  0  0  0
   25.6928  -10.7977  -16.7957 C   0  0  0  0  0  0  0  0  0  0  0  0
   26.8396  -11.6998  -16.6309 C   0  0  0  0  0  0  0  0  0  0  0  0
   27.0698  -12.6947  -17.5493 C   0  0  0  0  0  0  0  0  0  0  0  0
   28.1566  -13.5542  -17.3982 C   0  0  0  0  0  0  0  0  0  0  0  0
   29.0281  -13.4239  -16.3187 C   0  0  0  0  0  0  0  0  0  0  0  0
   28.7907  -12.4157  -15.3926 C   0  0  0  0  0  0  0  0  0  0  0  0
   27.6998  -11.5729  -15.5673 C   0  0  0  0  0  0  0  0  0  0  0  0
   23.5316  -10.0653  -16.0318 C   0  0  0  0  0  0  0  0  0  0  0  0
   22.5840  -10.4593  -16.7933 O   0  0  0  0  0  0  0  0  0  0  0  0
   19.8435  -11.2553  -16.1102 N   0  0  0  0  0  0  0  0  0  0  0  0
   18.6421  -10.8616  -16.7533 C   0  0  0  0  0  0  0  0  0  0  0  0
   18.0597  -11.6309  -17.6197 N   0  0  0  0  0  0  0  0  0  0  0  0
   18.0214   -9.5990  -16.4769 N   0  0  0  0  0  0  0  0  0  0  0  0
   18.6570   -8.6461  -15.5923 C   0  0  0  0  0  0  0  0  0  0  0  0
   19.9437   -8.1050  -16.1972 C   0  0  0  0  0  0  0  0  0  0  0  0
   21.0859   -8.5331  -15.3356 C   0  0  0  0  0  0  0  0  0  0  0  0
   22.3993   -7.8975  -15.7750 C   0  0  2  0  0  0  0  0  0  0  0  0
   23.5165   -8.7584  -15.5151 N   0  0  0  0  0  0  0  0  0  0  0  0
   22.5500   -6.5436  -15.1728 C   0  0  0  0  0  0  0  0  0  0  0  0
   22.8170   -6.4569  -13.9643 O   0  0  0  0  0  0  0  0  0  0  0  0
   17.1291  -11.3415  -17.9860 O   0  0  0  0  0  0  0  0  0  0  0  0
   22.5923   -1.6550  -15.8227 C   0  0  0  0  0  0  0  0  0  0  0  0
   22.4285   -2.9167  -16.3600 C   0  0  2  0  0  0  0  0  0  0  0  0
   22.5680   -4.0300  -15.3679 N   0  0  0  0  0  0  0  0  0  0  0  0
   22.4037   -5.3431  -15.9113 C   0  0  0  0  0  0  0  0  0  0  0  0
   21.7114   -3.7631  -14.2027 O   0  0  0  0  0  0  0  0  0  0  0  0
   20.4654   -3.9550  -14.1961 O   0  0  0  0  0  0  0  0  0  0  0  0
  2  1  1  6
  3  2  1  0
  3  4  1  0
  4  9  2  0
  5  4  1  0
  5  6  2  0
  6  7  1  0
  7  8  2  0
  9  8  1  0
 10 20  1  0
 10  2  1  0
 11 10  2  0
 13 12  1  0
 14 13  2  0
 15 13  1  0
 16 15  1  0
 17 16  1  0
 18 17  1  0
 19 18  1  1
 19 20  1  0
 21 19  1  0
 21 26  1  0
 22 21  2  0
 24 23  1  0
 25 24  1  6
 25 26  1  0
 25 27  1  0
 27 28  2  0
 27 29  1  0
M  END
$$$$
