FRS.pdb
     RDKit          3D

 29 29  0  0  1  0  0  0  0  0999 V2000
   28.6136  -21.9019  -15.5133 N   0  0  0  0  0  0  0  0  0  0  0  0
   28.5484  -21.7829  -14.0914 C   0  0  1  0  0  0  0  0  0  0  0  0
   29.4519  -20.6089  -13.6900 C   0  0  0  0  0  0  0  0  0  0  0  0
   30.2735  -20.9234  -12.5143 C   0  0  0  0  0  0  0  0  0  0  0  0
   31.2553  -21.8803  -12.5972 C   0  0  0  0  0  0  0  0  0  0  0  0
   32.0383  -22.1832  -11.4847 C   0  0  0  0  0  0  0  0  0  0  0  0
   31.8437  -21.5262  -10.2714 C   0  0  0  0  0  0  0  0  0  0  0  0
   30.8493  -20.5590  -10.1930 C   0  0  0  0  0  0  0  0  0  0  0  0
   30.0831  -20.2766  -11.3174 C   0  0  0  0  0  0  0  0  0  0  0  0
   27.1909  -21.4278  -13.6006 C   0  0  0  0  0  0  0  0  0  0  0  0
   26.2964  -21.3139  -14.5061 O   0  0  0  0  0  0  0  0  0  0  0  0
   21.5196  -19.3810   -9.3644 N   0  0  0  0  0  0  0  0  0  0  0  0
   21.3880  -20.5567   -8.5818 C   0  0  0  0  0  0  0  0  0  0  0  0
   20.2454  -21.1570   -8.4567 N   0  0  0  0  0  0  0  0  0  0  0  0
   22.5081  -21.1305   -7.8948 N   0  0  0  0  0  0  0  0  0  0  0  0
   23.8520  -20.9466   -8.3993 C   0  0  0  0  0  0  0  0  0  0  0  0
   23.9040  -21.1266   -9.9090 C   0  0  0  0  0  0  0  0  0  0  0  0
   25.3289  -21.0321  -10.3460 C   0  0  0  0  0  0  0  0  0  0  0  0
   25.4753  -21.2139  -11.8519 C   0  0  2  0  0  0  0  0  0  0  0  0
   26.8523  -21.2198  -12.2526 N   0  0  0  0  0  0  0  0  0  0  0  0
   24.6570  -20.2050  -12.5805 C   0  0  0  0  0  0  0  0  0  0  0  0
   25.1227  -19.0663  -12.7418 O   0  0  0  0  0  0  0  0  0  0  0  0
   20.2156  -22.0493   -7.9210 O   0  0  0  0  0  0  0  0  0  0  0  0
   23.3946  -21.0737  -16.3246 C   0  0  0  0  0  0  0  0  0  0  0  0
   23.7071  -20.0103  -15.5007 C   0  0  1  0  0  0  0  0  0  0  0  0
   22.8317  -19.8919  -14.2912 N   0  0  0  0  0  0  0  0  0  0  0  0
   23.3680  -20.4784  -13.1017 C   0  0  0  0  0  0  0  0  0  0  0  0
   21.4747  -20.3556  -14.6167 O   0  0  0  0  0  0  0  0  0  0  0  0
   20.8650  -21.2412  -13.9585 O   0  0  0  0  0  0  0  0  0  0  0  0
  2  1  1  6
  3  2  1  0
  3  4  1  0
  4  9  2  0
  5  4  1  0
  5  6  2  0
  6  7  1  0
  7  8  2  0
  9  8  1  0
 10 20  1  0
 10  2  1  0
 11 10  2  0
 13 12  1  0
 14 13  2  0
 15 13  1  0
 16 15  1  0
 17 16  1  0
 18 17  1  0
 19 18  1  1
 19 20  1  0
 21 19  1  0
 21 26  1  0
 22 21  2  0
 24 23  1  0
 25 24  1  1
 25 26  1  0
 25 27  1  0
 27 28  2  0
 27 29  1  0
M  END
$$$$
