FRS.pdb
     RDKit          3D

 29 29  0  0  1  0  0  0  0  0999 V2000
   29.4650  -12.5759  -19.3925 N   0  0  0  0  0  0  0  0  0  0  0  0
   29.4008  -11.6078  -18.3442 C   0  0  1  0  0  0  0  0  0  0  0  0
   30.3213  -10.4451  -18.7400 C   0  0  0  0  0  0  0  0  0  0  0  0
   31.7259  -10.7178  -18.4099 C   0  0  0  0  0  0  0  0  0  0  0  0
   32.7083   -9.8449  -18.8088 C   0  0  0  0  0  0  0  0  0  0  0  0
   34.0433  -10.0984  -18.4986 C   0  0  0  0  0  0  0  0  0  0  0  0
   34.4084  -11.2358  -17.7813 C   0  0  0  0  0  0  0  0  0  0  0  0
   33.4106  -12.1155  -17.3800 C   0  0  0  0  0  0  0  0  0  0  0  0
   32.0877  -11.8387  -17.7028 C   0  0  0  0  0  0  0  0  0  0  0  0
   28.0484  -11.0108  -18.1878 C   0  0  0  0  0  0  0  0  0  0  0  0
   27.3155  -11.0399  -19.2342 O   0  0  0  0  0  0  0  0  0  0  0  0
   21.9293  -10.4558  -11.8686 N   0  0  0  0  0  0  0  0  0  0  0  0
   21.3901   -9.7643  -12.9836 C   0  0  0  0  0  0  0  0  0  0  0  0
   20.1610   -9.3510  -12.9884 N   0  0  0  0  0  0  0  0  0  0  0  0
   22.1766   -9.4945  -14.1517 N   0  0  0  0  0  0  0  0  0  0  0  0
   23.5422   -9.9649  -14.2426 C   0  0  0  0  0  0  0  0  0  0  0  0
   24.1418   -9.6579  -15.6065 C   0  0  0  0  0  0  0  0  0  0  0  0
   25.5456  -10.1671  -15.6296 C   0  0  0  0  0  0  0  0  0  0  0  0
   26.2257   -9.9000  -16.9669 C   0  0  2  0  0  0  0  0  0  0  0  0
   27.5534  -10.4409  -17.0024 N   0  0  0  0  0  0  0  0  0  0  0  0
   26.1750   -8.4484  -17.2965 C   0  0  0  0  0  0  0  0  0  0  0  0
   26.9176   -7.6718  -16.6760 O   0  0  0  0  0  0  0  0  0  0  0  0
   19.8315   -8.8000  -13.8082 O   0  0  0  0  0  0  0  0  0  0  0  0
   23.3792   -6.7257  -20.1463 C   0  0  0  0  0  0  0  0  0  0  0  0
   24.6551   -6.2272  -19.9698 C   0  0  1  0  0  0  0  0  0  0  0  0
   25.2475   -6.5168  -18.6250 N   0  0  0  0  0  0  0  0  0  0  0  0
   25.3189   -7.9048  -18.2862 C   0  0  0  0  0  0  0  0  0  0  0  0
   24.5805   -5.6946  -17.6044 O   0  0  0  0  0  0  0  0  0  0  0  0
   23.9746   -6.1763  -16.6093 O   0  0  0  0  0  0  0  0  0  0  0  0
  2  1  1  6
  3  2  1  0
  3  4  1  0
  4  9  2  0
  5  4  1  0
  5  6  2  0
  6  7  1  0
  7  8  2  0
  9  8  1  0
 10 20  1  0
 10  2  1  0
 11 10  2  0
 13 12  1  0
 14 13  2  0
 15 13  1  0
 16 15  1  0
 17 16  1  0
 18 17  1  0
 19 18  1  1
 19 20  1  0
 21 19  1  0
 21 26  1  0
 22 21  2  0
 24 23  1  0
 25 24  1  6
 25 26  1  0
 25 27  1  0
 27 28  2  0
 27 29  1  0
M  END
$$$$
