FRS.pdb
     RDKit          3D

 29 29  0  0  1  0  0  0  0  0999 V2000
   16.3145  -14.1480    6.5148 N   0  0  0  0  0  0  0  0  0  0  0  0
   17.1340  -14.9362    5.6504 C   0  0  1  0  0  0  0  0  0  0  0  0
   18.5306  -15.0049    6.2834 C   0  0  0  0  0  0  0  0  0  0  0  0
   19.2919  -13.7670    6.0733 C   0  0  0  0  0  0  0  0  0  0  0  0
   20.2266  -13.3690    6.9976 C   0  0  0  0  0  0  0  0  0  0  0  0
   20.9522  -12.1948    6.8038 C   0  0  0  0  0  0  0  0  0  0  0  0
   20.7467  -11.4039    5.6752 C   0  0  0  0  0  0  0  0  0  0  0  0
   19.8001  -11.8111    4.7433 C   0  0  0  0  0  0  0  0  0  0  0  0
   19.0906  -12.9859    4.9613 C   0  0  0  0  0  0  0  0  0  0  0  0
   16.6751  -16.3460    5.5422 C   0  0  0  0  0  0  0  0  0  0  0  0
   16.1728  -16.8391    6.6087 O   0  0  0  0  0  0  0  0  0  0  0  0
   15.4149  -22.4493   -0.9013 N   0  0  0  0  0  0  0  0  0  0  0  0
   15.1633  -23.1025    0.3324 C   0  0  0  0  0  0  0  0  0  0  0  0
   14.8404  -24.3577    0.3752 N   0  0  0  0  0  0  0  0  0  0  0  0
   15.2522  -22.4061    1.5825 N   0  0  0  0  0  0  0  0  0  0  0  0
   15.6214  -21.0072    1.6194 C   0  0  0  0  0  0  0  0  0  0  0  0
   15.7157  -20.4990    3.0502 C   0  0  0  0  0  0  0  0  0  0  0  0
   16.2042  -19.0882    3.0179 C   0  0  0  0  0  0  0  0  0  0  0  0
   16.3730  -18.5125    4.4187 C   0  0  2  0  0  0  0  0  0  0  0  0
   16.7597  -17.1320    4.3802 N   0  0  0  0  0  0  0  0  0  0  0  0
   17.2992  -19.3586    5.2217 C   0  0  0  0  0  0  0  0  0  0  0  0
   18.4946  -19.4082    4.8931 O   0  0  0  0  0  0  0  0  0  0  0  0
   14.6569  -24.7860    1.3063 O   0  0  0  0  0  0  0  0  0  0  0  0
   16.0484  -21.3961    8.7889 C   0  0  0  0  0  0  0  0  0  0  0  0
   17.3720  -21.0683    8.5697 C   0  0  1  0  0  0  0  0  0  0  0  0
   17.7450  -20.9523    7.1237 N   0  0  0  0  0  0  0  0  0  0  0  0
   16.8848  -20.1139    6.3468 C   0  0  0  0  0  0  0  0  0  0  0  0
   17.9323  -22.2946    6.5530 O   0  0  0  0  0  0  0  0  0  0  0  0
   18.7093  -23.1575    7.0439 O   0  0  0  0  0  0  0  0  0  0  0  0
  2  1  1  1
  3  2  1  0
  3  4  1  0
  4  9  2  0
  5  4  1  0
  5  6  2  0
  6  7  1  0
  7  8  2  0
  9  8  1  0
 10 20  1  0
 10  2  1  0
 11 10  2  0
 13 12  1  0
 14 13  2  0
 15 13  1  0
 16 15  1  0
 17 16  1  0
 18 17  1  0
 19 18  1  6
 19 20  1  0
 21 19  1  0
 21 26  1  0
 22 21  2  0
 24 23  1  0
 25 24  1  1
 25 26  1  0
 25 27  1  0
 27 28  2  0
 27 29  1  0
M  END
$$$$
