DMQ.pdb
     RDKit          3D

 26 25  0  0  1  0  0  0  0  0999 V2000
   27.8308  -19.9038  -13.8252 N   0  0  0  0  0  0  0  0  0  0  0  0
   26.8794  -20.9708  -13.9790 C   0  0  1  0  0  0  0  0  0  0  0  0
   27.5706  -22.1544  -14.5843 C   0  0  0  0  0  0  0  0  0  0  0  0
   27.9977  -21.8774  -15.9780 C   0  0  0  0  0  0  0  0  0  0  0  0
   27.8501  -20.7310  -16.4526 O   0  0  0  0  0  0  0  0  0  0  0  0
   26.2695  -21.3064  -12.6485 C   0  0  0  0  0  0  0  0  0  0  0  0
   25.3641  -22.1698  -12.5947 O   0  0  0  0  0  0  0  0  0  0  0  0
   28.5586  -22.8573  -16.7741 O   0  0  0  0  0  0  0  0  0  0  0  0
   26.7516  -19.9175   -4.7557 C   0  0  0  0  0  0  0  0  0  0  0  0
   27.4265  -19.6720   -6.4114 S   0  0  0  0  0  0  0  0  0  0  0  0
   26.2624  -20.2848   -7.6871 C   0  0  0  0  0  0  0  0  0  0  0  0
   26.9179  -20.1475   -9.0210 C   0  0  0  0  0  0  0  0  0  0  0  0
   26.0679  -20.6160  -10.1908 C   0  0  2  0  0  0  0  0  0  0  0  0
   26.6866  -20.6769  -11.4548 N   0  0  0  0  0  0  0  0  0  0  0  0
   24.7277  -20.1005  -10.0794 C   0  0  0  0  0  0  0  0  0  0  0  0
   24.4843  -18.9574  -10.5506 O   0  0  0  0  0  0  0  0  0  0  0  0
   21.9500  -21.9168  -14.0655 N   0  0  0  0  0  0  0  0  0  0  0  0
   20.7484  -21.5479  -13.4191 C   0  0  0  0  0  0  0  0  0  0  0  0
   19.6717  -21.5830  -14.0496 O   0  0  0  0  0  0  0  0  0  0  0  0
   20.7893  -21.1266  -12.0049 C   0  0  0  0  0  0  0  0  0  0  0  0
   22.1909  -21.1387  -11.4534 C   0  0  0  0  0  0  0  0  0  0  0  0
   22.2737  -20.7118  -10.0268 C   0  0  2  0  0  0  0  0  0  0  0  0
   23.6089  -20.7662   -9.4732 N   0  0  0  0  0  0  0  0  0  0  0  0
   21.2829  -21.3924   -9.1537 C   0  0  0  0  0  0  0  0  0  0  0  0
   19.9297  -21.0756   -9.1622 O   0  0  0  0  0  0  0  0  0  0  0  0
   21.6299  -22.3002   -8.3550 O   0  0  0  0  0  0  0  0  0  0  0  0
  2  3  1  0
  2  1  1  1
  3  4  1  0
  4  5  2  0
  4  8  1  0
  6  7  2  0
  6  2  1  0
  9 10  1  0
 11 10  1  0
 12 11  1  0
 13 12  1  1
 13 14  1  0
 14  6  1  0
 15 13  1  0
 15 23  1  0
 16 15  2  0
 17 18  1  0
 18 19  2  0
 20 21  1  0
 20 18  1  0
 22 21  1  6
 22 23  1  0
 24 22  1  0
 25 24  1  0
 26 24  2  0
M  END
$$$$
