DMQ.pdb
     RDKit          3D

 26 25  0  0  1  0  0  0  0  0999 V2000
    8.1235   -1.1588  -30.7015 N   0  0  0  0  0  0  0  0  0  0  0  0
    8.7560    0.0648  -31.1135 C   0  0  1  0  0  0  0  0  0  0  0  0
    8.7204    0.1505  -32.6089 C   0  0  0  0  0  0  0  0  0  0  0  0
    9.5482    1.2770  -33.1063 C   0  0  0  0  0  0  0  0  0  0  0  0
   10.7940    1.2007  -33.0473 O   0  0  0  0  0  0  0  0  0  0  0  0
    8.0660    1.2360  -30.4752 C   0  0  0  0  0  0  0  0  0  0  0  0
    7.7378    1.1653  -29.2688 O   0  0  0  0  0  0  0  0  0  0  0  0
    8.9784    2.4179  -33.6376 O   0  0  0  0  0  0  0  0  0  0  0  0
   12.5756    2.1117  -30.6448 C   0  0  0  0  0  0  0  0  0  0  0  0
   10.8954    2.4250  -30.0653 S   0  0  0  0  0  0  0  0  0  0  0  0
   10.2507    3.9957  -30.7546 C   0  0  0  0  0  0  0  0  0  0  0  0
    8.9614    4.3103  -30.0715 C   0  0  0  0  0  0  0  0  0  0  0  0
    7.7289    3.7575  -30.7685 C   0  0  2  0  0  0  0  0  0  0  0  0
    7.7758    2.4159  -31.1954 N   0  0  0  0  0  0  0  0  0  0  0  0
    7.1428    4.7560  -31.6251 C   0  0  0  0  0  0  0  0  0  0  0  0
    7.2139    4.5919  -32.8724 O   0  0  0  0  0  0  0  0  0  0  0  0
    2.2522    4.7671  -33.4980 N   0  0  0  0  0  0  0  0  0  0  0  0
    3.3437    3.8702  -33.5397 C   0  0  0  0  0  0  0  0  0  0  0  0
    3.3360    2.9251  -34.3551 O   0  0  0  0  0  0  0  0  0  0  0  0
    4.4769    4.0686  -32.6148 C   0  0  0  0  0  0  0  0  0  0  0  0
    4.1797    5.1185  -31.5764 C   0  0  0  0  0  0  0  0  0  0  0  0
    5.1205    6.2753  -31.6123 C   0  0  2  0  0  0  0  0  0  0  0  0
    6.4683    5.9504  -31.1998 N   0  0  0  0  0  0  0  0  0  0  0  0
    4.5992    7.4757  -30.9090 C   0  0  0  0  0  0  0  0  0  0  0  0
    3.8936    7.4004  -29.7141 O   0  0  0  0  0  0  0  0  0  0  0  0
    4.7761    8.6323  -31.3710 O   0  0  0  0  0  0  0  0  0  0  0  0
  2  3  1  0
  2  1  1  6
  3  4  1  0
  4  5  2  0
  4  8  1  0
  6  7  2  0
  6  2  1  0
  9 10  1  0
 11 10  1  0
 12 11  1  0
 13 12  1  6
 13 14  1  0
 14  6  1  0
 15 13  1  0
 15 23  1  0
 16 15  2  0
 17 18  1  0
 18 19  2  0
 20 21  1  0
 20 18  1  0
 22 21  1  1
 22 23  1  0
 24 22  1  0
 25 24  1  0
 26 24  2  0
M  END
$$$$
