DMQ.pdb
     RDKit          3D

 26 25  0  0  1  0  0  0  0  0999 V2000
   19.8948  -28.3439  -12.3066 N   0  0  0  0  0  0  0  0  0  0  0  0
   19.8727  -28.7331  -10.9228 C   0  0  1  0  0  0  0  0  0  0  0  0
   21.1997  -29.3298  -10.5648 C   0  0  0  0  0  0  0  0  0  0  0  0
   21.2837  -30.7517  -10.9804 C   0  0  0  0  0  0  0  0  0  0  0  0
   22.3547  -31.3771  -10.8281 O   0  0  0  0  0  0  0  0  0  0  0  0
   19.5500  -27.5448  -10.0634 C   0  0  0  0  0  0  0  0  0  0  0  0
   19.4065  -27.7068   -8.8300 O   0  0  0  0  0  0  0  0  0  0  0  0
   20.2042  -31.4111  -11.5358 O   0  0  0  0  0  0  0  0  0  0  0  0
   20.2554  -19.8988  -10.3892 C   0  0  0  0  0  0  0  0  0  0  0  0
   19.1688  -21.0898  -11.2004 S   0  0  0  0  0  0  0  0  0  0  0  0
   18.8221  -22.5119  -10.0979 C   0  0  0  0  0  0  0  0  0  0  0  0
   19.2584  -23.7584  -10.7935 C   0  0  0  0  0  0  0  0  0  0  0  0
   19.0800  -25.0289   -9.9785 C   0  0  2  0  0  0  0  0  0  0  0  0
   19.4032  -26.2485  -10.6049 N   0  0  0  0  0  0  0  0  0  0  0  0
   17.8986  -24.9416   -9.1593 C   0  0  0  0  0  0  0  0  0  0  0  0
   16.7770  -24.8791   -9.7302 O   0  0  0  0  0  0  0  0  0  0  0  0
   16.8621  -26.5338   -3.1426 N   0  0  0  0  0  0  0  0  0  0  0  0
   17.9072  -26.8437   -4.0423 C   0  0  0  0  0  0  0  0  0  0  0  0
   18.8240  -27.6112   -3.6835 O   0  0  0  0  0  0  0  0  0  0  0  0
   17.8950  -26.2520   -5.3945 C   0  0  0  0  0  0  0  0  0  0  0  0
   16.6445  -25.4516   -5.6483 C   0  0  0  0  0  0  0  0  0  0  0  0
   16.6286  -24.7764   -6.9780 C   0  0  2  0  0  0  0  0  0  0  0  0
   17.8599  -24.9174   -7.7240 N   0  0  0  0  0  0  0  0  0  0  0  0
   16.1795  -23.3618   -6.9109 C   0  0  0  0  0  0  0  0  0  0  0  0
   14.9057  -22.9960   -6.4925 O   0  0  0  0  0  0  0  0  0  0  0  0
   16.9442  -22.4169   -7.2348 O   0  0  0  0  0  0  0  0  0  0  0  0
  2  3  1  0
  2  1  1  6
  3  4  1  0
  4  5  2  0
  4  8  1  0
  6  7  2  0
  6  2  1  0
  9 10  1  0
 11 10  1  0
 12 11  1  0
 13 12  1  6
 13 14  1  0
 14  6  1  0
 15 13  1  0
 15 23  1  0
 16 15  2  0
 17 18  1  0
 18 19  2  0
 20 21  1  0
 20 18  1  0
 22 21  1  1
 22 23  1  0
 24 22  1  0
 25 24  1  0
 26 24  2  0
M  END
$$$$
