DMQ.pdb
     RDKit          3D

 26 25  0  0  1  0  0  0  0  0999 V2000
   14.1680  -12.1662  -12.5376 N   0  0  0  0  0  0  0  0  0  0  0  0
   15.3598  -11.7487  -11.8503 C   0  0  1  0  0  0  0  0  0  0  0  0
   16.5547  -12.2667  -12.5913 C   0  0  0  0  0  0  0  0  0  0  0  0
   16.5922  -13.7500  -12.5884 C   0  0  0  0  0  0  0  0  0  0  0  0
   16.2655  -14.3737  -11.5561 O   0  0  0  0  0  0  0  0  0  0  0  0
   15.3853  -10.2516  -11.7362 C   0  0  0  0  0  0  0  0  0  0  0  0
   14.8581   -9.5634  -12.6398 O   0  0  0  0  0  0  0  0  0  0  0  0
   16.9808  -14.4690  -13.7022 O   0  0  0  0  0  0  0  0  0  0  0  0
   14.5595   -4.1699   -6.8924 C   0  0  0  0  0  0  0  0  0  0  0  0
   14.5241   -5.9356   -7.2640 S   0  0  0  0  0  0  0  0  0  0  0  0
   15.4468   -6.2957   -8.8057 C   0  0  0  0  0  0  0  0  0  0  0  0
   15.4573   -7.7744   -9.0083 C   0  0  0  0  0  0  0  0  0  0  0  0
   16.0650   -8.2244  -10.3269 C   0  0  2  0  0  0  0  0  0  0  0  0
   15.9867   -9.5958  -10.6392 N   0  0  0  0  0  0  0  0  0  0  0  0
   17.2825   -7.5029  -10.5940 C   0  0  0  0  0  0  0  0  0  0  0  0
   18.2419   -7.6269   -9.7865 O   0  0  0  0  0  0  0  0  0  0  0  0
   20.5585   -9.3117  -14.6823 N   0  0  0  0  0  0  0  0  0  0  0  0
   21.3865   -8.2147  -14.3523 C   0  0  0  0  0  0  0  0  0  0  0  0
   22.5601   -8.1771  -14.7758 O   0  0  0  0  0  0  0  0  0  0  0  0
   20.8459   -7.1299  -13.5098 C   0  0  0  0  0  0  0  0  0  0  0  0
   19.4487   -7.4294  -13.0331 C   0  0  0  0  0  0  0  0  0  0  0  0
   18.8587   -6.3441  -12.1975 C   0  0  2  0  0  0  0  0  0  0  0  0
   17.5277   -6.6341  -11.7109 N   0  0  0  0  0  0  0  0  0  0  0  0
   18.9361   -5.0053  -12.8369 C   0  0  0  0  0  0  0  0  0  0  0  0
   17.8083   -4.2795  -13.2017 O   0  0  0  0  0  0  0  0  0  0  0  0
   20.0432   -4.4600  -13.0806 O   0  0  0  0  0  0  0  0  0  0  0  0
  2  3  1  0
  2  1  1  6
  3  4  1  0
  4  5  2  0
  4  8  1  0
  6  7  2  0
  6  2  1  0
  9 10  1  0
 11 10  1  0
 12 11  1  0
 13 12  1  1
 13 14  1  0
 14  6  1  0
 15 13  1  0
 15 23  1  0
 16 15  2  0
 17 18  1  0
 18 19  2  0
 20 21  1  0
 20 18  1  0
 22 21  1  6
 22 23  1  0
 24 22  1  0
 25 24  1  0
 26 24  2  0
M  END
$$$$
