DMQ.pdb
     RDKit          3D

 26 25  0  0  1  0  0  0  0  0999 V2000
   16.9013  -11.1159  -16.2989 N   0  0  0  0  0  0  0  0  0  0  0  0
   16.7498   -9.7057  -16.0635 C   0  0  1  0  0  0  0  0  0  0  0  0
   15.3063   -9.3384  -16.2255 C   0  0  0  0  0  0  0  0  0  0  0  0
   14.8581   -9.5114  -17.6293 C   0  0  0  0  0  0  0  0  0  0  0  0
   15.7034   -9.7168  -18.5264 O   0  0  0  0  0  0  0  0  0  0  0  0
   17.2589   -9.3593  -14.6938 C   0  0  0  0  0  0  0  0  0  0  0  0
   17.0421  -10.1490  -13.7464 O   0  0  0  0  0  0  0  0  0  0  0  0
   13.5227   -9.4517  -17.9781 O   0  0  0  0  0  0  0  0  0  0  0  0
   22.5514   -7.6396   -9.8432 C   0  0  0  0  0  0  0  0  0  0  0  0
   21.9388   -7.9548  -11.5112 S   0  0  0  0  0  0  0  0  0  0  0  0
   20.5018   -6.8830  -11.8910 C   0  0  0  0  0  0  0  0  0  0  0  0
   19.9722   -7.2708  -13.2316 C   0  0  0  0  0  0  0  0  0  0  0  0
   18.5022   -7.6574  -13.2394 C   0  0  2  0  0  0  0  0  0  0  0  0
   17.9755   -8.1685  -14.4418 N   0  0  0  0  0  0  0  0  0  0  0  0
   17.7293   -6.7194  -12.4667 C   0  0  0  0  0  0  0  0  0  0  0  0
   17.4143   -5.6212  -12.9981 O   0  0  0  0  0  0  0  0  0  0  0  0
   14.3903   -7.3905   -7.0756 N   0  0  0  0  0  0  0  0  0  0  0  0
   13.9492   -7.8122   -8.3505 C   0  0  0  0  0  0  0  0  0  0  0  0
   12.9786   -8.5917   -8.4417 O   0  0  0  0  0  0  0  0  0  0  0  0
   14.6472   -7.3211   -9.5548 C   0  0  0  0  0  0  0  0  0  0  0  0
   15.7936   -6.4074   -9.2087 C   0  0  0  0  0  0  0  0  0  0  0  0
   16.5260   -5.8920  -10.4013 C   0  0  2  0  0  0  0  0  0  0  0  0
   17.2666   -6.9055  -11.1200 N   0  0  0  0  0  0  0  0  0  0  0  0
   17.3614   -4.6997  -10.1051 C   0  0  0  0  0  0  0  0  0  0  0  0
   16.8468   -3.5453   -9.5272 O   0  0  0  0  0  0  0  0  0  0  0  0
   18.5914   -4.6814  -10.3682 O   0  0  0  0  0  0  0  0  0  0  0  0
  2  3  1  0
  2  1  1  1
  3  4  1  0
  4  5  2  0
  4  8  1  0
  6  7  2  0
  6  2  1  0
  9 10  1  0
 11 10  1  0
 12 11  1  0
 13 12  1  6
 13 14  1  0
 14  6  1  0
 15 13  1  0
 15 23  1  0
 16 15  2  0
 17 18  1  0
 18 19  2  0
 20 21  1  0
 20 18  1  0
 22 21  1  1
 22 23  1  0
 24 22  1  0
 25 24  1  0
 26 24  2  0
M  END
$$$$
