DMQ.pdb
     RDKit          3D

 26 25  0  0  1  0  0  0  0  0999 V2000
   19.8448  -11.0766  -20.5264 N   0  0  0  0  0  0  0  0  0  0  0  0
   20.9428  -10.1487  -20.5482 C   0  0  1  0  0  0  0  0  0  0  0  0
   20.4944   -8.8811  -21.2095 C   0  0  0  0  0  0  0  0  0  0  0  0
   20.3837   -9.0474  -22.6797 C   0  0  0  0  0  0  0  0  0  0  0  0
   20.7366  -10.1236  -23.2075 O   0  0  0  0  0  0  0  0  0  0  0  0
   21.4298   -9.9012  -19.1495 C   0  0  0  0  0  0  0  0  0  0  0  0
   20.6171   -9.9773  -18.1998 O   0  0  0  0  0  0  0  0  0  0  0  0
   19.8978   -8.0396  -23.4902 O   0  0  0  0  0  0  0  0  0  0  0  0
   27.6476  -10.8090  -14.3586 C   0  0  0  0  0  0  0  0  0  0  0  0
   26.8282  -11.0279  -15.9516 S   0  0  0  0  0  0  0  0  0  0  0  0
   25.3529   -9.9484  -16.0793 C   0  0  0  0  0  0  0  0  0  0  0  0
   24.7128  -10.1887  -17.4061 C   0  0  0  0  0  0  0  0  0  0  0  0
   23.4372   -9.3963  -17.6419 C   0  0  2  0  0  0  0  0  0  0  0  0
   22.7782   -9.5849  -18.8725 N   0  0  0  0  0  0  0  0  0  0  0  0
   23.5596   -8.0687  -17.0970 C   0  0  0  0  0  0  0  0  0  0  0  0
   24.1427   -7.1897  -17.7862 O   0  0  0  0  0  0  0  0  0  0  0  0
   19.7170   -2.6092  -17.1575 N   0  0  0  0  0  0  0  0  0  0  0  0
   20.6182   -3.6631  -17.4311 C   0  0  0  0  0  0  0  0  0  0  0  0
   20.7349   -4.0888  -18.5987 O   0  0  0  0  0  0  0  0  0  0  0  0
   21.4078   -4.2428  -16.3269 C   0  0  0  0  0  0  0  0  0  0  0  0
   21.7973   -5.6716  -16.6020 C   0  0  0  0  0  0  0  0  0  0  0  0
   22.6905   -6.2568  -15.5608 C   0  0  2  0  0  0  0  0  0  0  0  0
   23.0759   -7.6269  -15.8191 N   0  0  0  0  0  0  0  0  0  0  0  0
   22.1755   -6.0765  -14.1790 C   0  0  0  0  0  0  0  0  0  0  0  0
   21.9232   -7.1435  -13.3250 O   0  0  0  0  0  0  0  0  0  0  0  0
   21.9410   -4.9319  -13.7127 O   0  0  0  0  0  0  0  0  0  0  0  0
  2  3  1  0
  2  1  1  1
  3  4  1  0
  4  5  2  0
  4  8  1  0
  6  7  2  0
  6  2  1  0
  9 10  1  0
 11 10  1  0
 12 11  1  0
 13 12  1  6
 13 14  1  0
 14  6  1  0
 15 13  1  0
 15 23  1  0
 16 15  2  0
 17 18  1  0
 18 19  2  0
 20 21  1  0
 20 18  1  0
 22 21  1  6
 22 23  1  0
 24 22  1  0
 25 24  1  0
 26 24  2  0
M  END
$$$$
