DMQ.pdb
     RDKit          3D

 26 25  0  0  1  0  0  0  0  0999 V2000
   18.8881  -14.0595  -16.1440 N   0  0  0  0  0  0  0  0  0  0  0  0
   18.9211  -12.8408  -16.9059 C   0  0  1  0  0  0  0  0  0  0  0  0
   17.5465  -12.2451  -16.9295 C   0  0  0  0  0  0  0  0  0  0  0  0
   16.5579  -13.1879  -17.5087 C   0  0  0  0  0  0  0  0  0  0  0  0
   16.8443  -13.8221  -18.5466 O   0  0  0  0  0  0  0  0  0  0  0  0
   19.9245  -11.8945  -16.3119 C   0  0  0  0  0  0  0  0  0  0  0  0
   19.6326  -11.2791  -15.2611 O   0  0  0  0  0  0  0  0  0  0  0  0
   15.3194  -13.3878  -16.9303 O   0  0  0  0  0  0  0  0  0  0  0  0
   27.7227  -10.4452  -15.8005 C   0  0  0  0  0  0  0  0  0  0  0  0
   26.3639  -11.3311  -16.5915 S   0  0  0  0  0  0  0  0  0  0  0  0
   24.7617  -10.5134  -16.2417 C   0  0  0  0  0  0  0  0  0  0  0  0
   23.6691  -11.3848  -16.7660 C   0  0  0  0  0  0  0  0  0  0  0  0
   22.2660  -10.8724  -16.4848 C   0  0  2  0  0  0  0  0  0  0  0  0
   21.1887  -11.6776  -16.9033 N   0  0  0  0  0  0  0  0  0  0  0  0
   22.2024   -9.4458  -16.6727 C   0  0  0  0  0  0  0  0  0  0  0  0
   22.2146   -8.9954  -17.8494 O   0  0  0  0  0  0  0  0  0  0  0  0
   18.7416   -6.6878  -18.8453 N   0  0  0  0  0  0  0  0  0  0  0  0
   18.9803   -5.5431  -18.0514 C   0  0  0  0  0  0  0  0  0  0  0  0
   18.4346   -4.4605  -18.3485 O   0  0  0  0  0  0  0  0  0  0  0  0
   19.8738   -5.6496  -16.8812 C   0  0  0  0  0  0  0  0  0  0  0  0
   20.4091   -7.0465  -16.7061 C   0  0  0  0  0  0  0  0  0  0  0  0
   21.6455   -7.1111  -15.8745 C   0  0  2  0  0  0  0  0  0  0  0  0
   22.1246   -8.4549  -15.6362 N   0  0  0  0  0  0  0  0  0  0  0  0
   21.5469   -6.3261  -14.6170 C   0  0  0  0  0  0  0  0  0  0  0  0
   21.7625   -6.8844  -13.3627 O   0  0  0  0  0  0  0  0  0  0  0  0
   21.2593   -5.1015  -14.6315 O   0  0  0  0  0  0  0  0  0  0  0  0
  2  3  1  0
  2  1  1  1
  3  4  1  0
  4  5  2  0
  4  8  1  0
  6  7  2  0
  6  2  1  0
  9 10  1  0
 11 10  1  0
 12 11  1  0
 13 12  1  6
 13 14  1  0
 14  6  1  0
 15 13  1  0
 15 23  1  0
 16 15  2  0
 17 18  1  0
 18 19  2  0
 20 21  1  0
 20 18  1  0
 22 21  1  1
 22 23  1  0
 24 22  1  0
 25 24  1  0
 26 24  2  0
M  END
$$$$
