DMQ.pdb
     RDKit          3D

 26 25  0  0  1  0  0  0  0  0999 V2000
   27.5298  -21.4353  -16.4538 N   0  0  0  0  0  0  0  0  0  0  0  0
   27.5065  -20.5845  -15.2952 C   0  0  1  0  0  0  0  0  0  0  0  0
   26.9705  -19.2419  -15.6891 C   0  0  0  0  0  0  0  0  0  0  0  0
   28.0662  -18.2965  -16.0166 C   0  0  0  0  0  0  0  0  0  0  0  0
   29.1790  -18.7404  -16.3715 O   0  0  0  0  0  0  0  0  0  0  0  0
   26.6771  -21.2164  -14.2145 C   0  0  0  0  0  0  0  0  0  0  0  0
   25.9774  -22.2173  -14.4913 O   0  0  0  0  0  0  0  0  0  0  0  0
   27.8921  -16.9282  -15.9404 O   0  0  0  0  0  0  0  0  0  0  0  0
   27.5252  -19.8344   -7.9371 C   0  0  0  0  0  0  0  0  0  0  0  0
   25.7927  -20.3166   -7.7856 S   0  0  0  0  0  0  0  0  0  0  0  0
   25.1103  -20.8146   -9.4118 C   0  0  0  0  0  0  0  0  0  0  0  0
   26.1308  -20.5123  -10.4581 C   0  0  0  0  0  0  0  0  0  0  0  0
   25.7006  -20.8568  -11.8747 C   0  0  2  0  0  0  0  0  0  0  0  0
   26.6625  -20.7152  -12.8940 N   0  0  0  0  0  0  0  0  0  0  0  0
   24.3466  -20.4259  -12.1100 C   0  0  0  0  0  0  0  0  0  0  0  0
   24.1382  -19.2050  -12.3418 O   0  0  0  0  0  0  0  0  0  0  0  0
   20.5384  -22.4526  -16.2049 N   0  0  0  0  0  0  0  0  0  0  0  0
   19.6793  -21.5191  -15.5819 C   0  0  0  0  0  0  0  0  0  0  0  0
   18.5941  -21.2216  -16.1223 O   0  0  0  0  0  0  0  0  0  0  0  0
   20.0828  -20.9110  -14.2987 C   0  0  0  0  0  0  0  0  0  0  0  0
   21.4304  -21.4039  -13.8405 C   0  0  0  0  0  0  0  0  0  0  0  0
   21.8843  -20.7923  -12.5583 C   0  0  2  0  0  0  0  0  0  0  0  0
   23.1773  -21.2596  -12.1090 N   0  0  0  0  0  0  0  0  0  0  0  0
   20.8633  -20.8647  -11.4814 C   0  0  0  0  0  0  0  0  0  0  0  0
   19.8385  -19.9348  -11.3526 O   0  0  0  0  0  0  0  0  0  0  0  0
   20.8810  -21.7855  -10.6245 O   0  0  0  0  0  0  0  0  0  0  0  0
  2  3  1  0
  2  1  1  6
  3  4  1  0
  4  5  2  0
  4  8  1  0
  6  7  2  0
  6  2  1  0
  9 10  1  0
 11 10  1  0
 12 11  1  0
 13 12  1  1
 13 14  1  0
 14  6  1  0
 15 13  1  0
 15 23  1  0
 16 15  2  0
 17 18  1  0
 18 19  2  0
 20 21  1  0
 20 18  1  0
 22 21  1  6
 22 23  1  0
 24 22  1  0
 25 24  1  0
 26 24  2  0
M  END
$$$$
