DMQ.pdb
     RDKit          3D

 26 25  0  0  1  0  0  0  0  0999 V2000
   18.9285   -6.9569  -18.1978 N   0  0  0  0  0  0  0  0  0  0  0  0
   19.1359   -5.9660  -17.1769 C   0  0  1  0  0  0  0  0  0  0  0  0
   18.2151   -4.8107  -17.4270 C   0  0  0  0  0  0  0  0  0  0  0  0
   18.6113   -4.0559  -18.6414 C   0  0  0  0  0  0  0  0  0  0  0  0
   19.7128   -3.4666  -18.6701 O   0  0  0  0  0  0  0  0  0  0  0  0
   18.9075   -6.5730  -15.8225 C   0  0  0  0  0  0  0  0  0  0  0  0
   17.9752   -7.3956  -15.6738 O   0  0  0  0  0  0  0  0  0  0  0  0
   17.7920   -3.9839  -19.7514 O   0  0  0  0  0  0  0  0  0  0  0  0
   23.6455  -10.4294  -13.6133 C   0  0  0  0  0  0  0  0  0  0  0  0
   22.8507   -9.1226  -12.6554 S   0  0  0  0  0  0  0  0  0  0  0  0
   21.4086   -8.4394  -13.5562 C   0  0  0  0  0  0  0  0  0  0  0  0
   20.8494   -7.3115  -12.7542 C   0  0  0  0  0  0  0  0  0  0  0  0
   19.6237   -6.6523  -13.3652 C   0  0  2  0  0  0  0  0  0  0  0  0
   19.7134   -6.2435  -14.7102 N   0  0  0  0  0  0  0  0  0  0  0  0
   18.9788   -5.7959  -12.4034 C   0  0  0  0  0  0  0  0  0  0  0  0
   19.1382   -4.5503  -12.5084 O   0  0  0  0  0  0  0  0  0  0  0  0
   13.7455   -4.0867  -12.4015 N   0  0  0  0  0  0  0  0  0  0  0  0
   14.0208   -3.5242  -11.1344 C   0  0  0  0  0  0  0  0  0  0  0  0
   13.2105   -2.7230  -10.6248 O   0  0  0  0  0  0  0  0  0  0  0  0
   15.2661   -3.8963  -10.4344 C   0  0  0  0  0  0  0  0  0  0  0  0
   16.0682   -4.9078  -11.2105 C   0  0  0  0  0  0  0  0  0  0  0  0
   17.3415   -5.2999  -10.5402 C   0  0  2  0  0  0  0  0  0  0  0  0
   18.1518   -6.2194  -11.3084 N   0  0  0  0  0  0  0  0  0  0  0  0
   17.1481   -5.7653   -9.1426 C   0  0  0  0  0  0  0  0  0  0  0  0
   16.6224   -4.9528   -8.1451 O   0  0  0  0  0  0  0  0  0  0  0  0
   17.4563   -6.9340   -8.7941 O   0  0  0  0  0  0  0  0  0  0  0  0
  2  3  1  0
  2  1  1  6
  3  4  1  0
  4  5  2  0
  4  8  1  0
  6  7  2  0
  6  2  1  0
  9 10  1  0
 11 10  1  0
 12 11  1  0
 13 12  1  1
 13 14  1  0
 14  6  1  0
 15 13  1  0
 15 23  1  0
 16 15  2  0
 17 18  1  0
 18 19  2  0
 20 21  1  0
 20 18  1  0
 22 21  1  6
 22 23  1  0
 24 22  1  0
 25 24  1  0
 26 24  2  0
M  END
$$$$
