WEM.pdb
     RDKit          3D

 32 33  0  0  1  0  0  0  0  0999 V2000
    6.3181  -16.3405   25.8095 N   0  0  0  0  0  0  0  0  0  0  0  0
    6.5844  -16.5783   24.3996 C   0  0  1  0  0  0  0  0  0  0  0  0
    6.4985  -15.2198   23.6972 C   0  0  0  0  0  0  0  0  0  0  0  0
    7.1831  -14.2183   24.5265 C   0  0  0  0  0  0  0  0  0  0  0  0
    8.5470  -14.0963   24.6809 C   0  0  0  0  0  0  0  0  0  0  0  0
    8.7809  -13.0733   25.5107 N   0  0  0  0  0  0  0  0  0  0  0  0
    7.5884  -12.5468   25.8839 C   0  0  0  0  0  0  0  0  0  0  0  0
    7.2812  -11.5060   26.7098 C   0  0  0  0  0  0  0  0  0  0  0  0
    5.9607  -11.1579   26.9387 C   0  0  0  0  0  0  0  0  0  0  0  0
    4.9358  -11.8703   26.3247 C   0  0  0  0  0  0  0  0  0  0  0  0
    5.2557  -12.9217   25.4908 C   0  0  0  0  0  0  0  0  0  0  0  0
    6.5635  -13.2489   25.2785 C   0  0  0  0  0  0  0  0  0  0  0  0
    7.9738  -17.0504   24.1595 C   0  0  0  0  0  0  0  0  0  0  0  0
    8.6620  -17.4726   25.1464 O   0  0  0  0  0  0  0  0  0  0  0  0
    8.5470  -17.0479   22.8942 N   0  0  0  0  0  0  0  0  0  0  0  0
    9.9131  -17.7139   22.6456 C   0  0  1  0  0  0  0  0  0  0  0  0
   10.1720  -17.5861   21.2247 C   0  0  0  0  0  0  0  0  0  0  0  0
   11.2959  -18.2126   20.5512 C   0  0  0  0  0  0  0  0  0  0  0  0
   11.1942  -18.8286   19.2483 C   0  0  0  0  0  0  0  0  0  0  0  0
   10.3316  -19.6740   18.9774 O   0  0  0  0  0  0  0  0  0  0  0  0
   10.7009  -17.1840   23.7004 C   0  0  0  0  0  0  0  0  0  0  0  0
   11.1750  -15.9820   23.5947 O   0  0  0  0  0  0  0  0  0  0  0  0
   12.0768  -18.5028   18.1968 O   0  0  0  0  0  0  0  0  0  0  0  0
   10.8945  -14.3179   29.3298 C   0  0  0  0  0  0  0  0  0  0  0  0
   10.0892  -15.8007   28.7936 S   0  0  0  0  0  0  0  0  0  0  0  0
   10.4543  -16.3936   27.1648 C   0  0  0  0  0  0  0  0  0  0  0  0
   11.7907  -17.0058   27.0005 C   0  0  0  0  0  0  0  0  0  0  0  0
   12.2414  -17.3812   25.6385 C   0  0  2  0  0  0  0  0  0  0  0  0
   11.0365  -17.8093   24.8959 N   0  0  0  0  0  0  0  0  0  0  0  0
   13.3022  -18.4184   25.5946 C   0  0  0  0  0  0  0  0  0  0  0  0
   13.0996  -19.6574   25.0327 O   0  0  0  0  0  0  0  0  0  0  0  0
   14.4307  -18.1872   26.0727 O   0  0  0  0  0  0  0  0  0  0  0  0
  2  1  1  1
  2 13  1  0
  3  4  1  0
  3  2  1  0
  4 12  1  0
  4  5  2  0
  5  6  1  0
  7  8  2  0
  7  6  1  0
  9  8  1  0
 10  9  2  0
 11 10  1  0
 11 12  2  0
 12  7  1  0
 13 14  2  0
 15 13  1  0
 15 16  1  0
 16 17  1  6
 18 17  1  0
 19 18  1  0
 20 19  2  0
 21 16  1  0
 21 22  2  0
 23 19  1  0
 25 24  1  0
 25 26  1  0
 26 27  1  0
 28 27  1  1
 28 29  1  0
 29 21  1  0
 30 28  1  0
 31 30  1  0
 32 30  2  0
M  END
$$$$
