WEM.pdb
     RDKit          3D

 32 33  0  0  1  0  0  0  0  0999 V2000
    6.3941  -17.7153   24.4279 N   0  0  0  0  0  0  0  0  0  0  0  0
    7.3792  -16.7995   23.8745 C   0  0  1  0  0  0  0  0  0  0  0  0
    7.9181  -15.9690   25.0433 C   0  0  0  0  0  0  0  0  0  0  0  0
    6.9413  -14.9185   25.3624 C   0  0  0  0  0  0  0  0  0  0  0  0
    5.7191  -15.1121   25.9690 C   0  0  0  0  0  0  0  0  0  0  0  0
    5.1212  -13.9212   26.0872 N   0  0  0  0  0  0  0  0  0  0  0  0
    5.9440  -12.9781   25.5655 C   0  0  0  0  0  0  0  0  0  0  0  0
    5.8030  -11.6274   25.4412 C   0  0  0  0  0  0  0  0  0  0  0  0
    6.8031  -10.8682   24.8575 C   0  0  0  0  0  0  0  0  0  0  0  0
    7.9622  -11.4811   24.3931 C   0  0  0  0  0  0  0  0  0  0  0  0
    8.0964  -12.8481   24.5230 C   0  0  0  0  0  0  0  0  0  0  0  0
    7.0989  -13.5783   25.1011 C   0  0  0  0  0  0  0  0  0  0  0  0
    8.5648  -17.5100   23.3262 C   0  0  0  0  0  0  0  0  0  0  0  0
    8.9117  -18.6228   23.8429 O   0  0  0  0  0  0  0  0  0  0  0  0
    9.3070  -17.0016   22.2677 N   0  0  0  0  0  0  0  0  0  0  0  0
   10.7429  -17.4915   22.0038 C   0  0  1  0  0  0  0  0  0  0  0  0
   11.0318  -17.1685   20.6201 C   0  0  0  0  0  0  0  0  0  0  0  0
   12.3052  -17.4429   19.9778 C   0  0  0  0  0  0  0  0  0  0  0  0
   12.5654  -17.1623   18.5847 C   0  0  0  0  0  0  0  0  0  0  0  0
   13.6586  -16.7427   18.1833 O   0  0  0  0  0  0  0  0  0  0  0  0
   11.4365  -17.0152   23.1466 C   0  0  0  0  0  0  0  0  0  0  0  0
   11.3401  -15.7635   23.4700 O   0  0  0  0  0  0  0  0  0  0  0  0
   11.5840  -17.3502   17.5886 O   0  0  0  0  0  0  0  0  0  0  0  0
   11.5915  -13.9585   29.3797 C   0  0  0  0  0  0  0  0  0  0  0  0
   10.9947  -14.8486   27.9706 S   0  0  0  0  0  0  0  0  0  0  0  0
   11.8933  -16.2890   27.4647 C   0  0  0  0  0  0  0  0  0  0  0  0
   11.6379  -16.7381   26.0788 C   0  0  0  0  0  0  0  0  0  0  0  0
   12.7916  -17.1128   25.2257 C   0  0  2  0  0  0  0  0  0  0  0  0
   12.2337  -17.7524   24.0148 N   0  0  0  0  0  0  0  0  0  0  0  0
   13.7990  -17.9824   25.8829 C   0  0  0  0  0  0  0  0  0  0  0  0
   14.7150  -17.4968   26.7869 O   0  0  0  0  0  0  0  0  0  0  0  0
   13.8395  -19.2030   25.6305 O   0  0  0  0  0  0  0  0  0  0  0  0
  2  1  1  1
  2 13  1  0
  3  4  1  0
  3  2  1  0
  4 12  1  0
  4  5  2  0
  5  6  1  0
  7  8  2  0
  7  6  1  0
  9  8  1  0
 10  9  2  0
 11 10  1  0
 11 12  2  0
 12  7  1  0
 13 14  2  0
 15 13  1  0
 15 16  1  0
 16 17  1  6
 18 17  1  0
 19 18  1  0
 20 19  2  0
 21 16  1  0
 21 22  2  0
 23 19  1  0
 25 24  1  0
 25 26  1  0
 26 27  1  0
 28 27  1  1
 28 29  1  0
 29 21  1  0
 30 28  1  0
 31 30  1  0
 32 30  2  0
M  END
$$$$
