WEM.pdb
     RDKit          3D

 32 33  0  0  1  0  0  0  0  0999 V2000
    6.1232  -17.6492   24.9360 N   0  0  0  0  0  0  0  0  0  0  0  0
    7.2295  -16.9110   24.3476 C   0  0  1  0  0  0  0  0  0  0  0  0
    7.4840  -15.6999   25.2502 C   0  0  0  0  0  0  0  0  0  0  0  0
    6.8019  -14.5330   24.6735 C   0  0  0  0  0  0  0  0  0  0  0  0
    5.6889  -13.9106   25.1961 C   0  0  0  0  0  0  0  0  0  0  0  0
    5.3653  -12.8934   24.3898 N   0  0  0  0  0  0  0  0  0  0  0  0
    6.2541  -12.8620   23.3663 C   0  0  0  0  0  0  0  0  0  0  0  0
    6.3609  -12.0314   22.2900 C   0  0  0  0  0  0  0  0  0  0  0  0
    7.3742  -12.2104   21.3633 C   0  0  0  0  0  0  0  0  0  0  0  0
    8.2929  -13.2421   21.5259 C   0  0  0  0  0  0  0  0  0  0  0  0
    8.1774  -14.0775   22.6177 C   0  0  0  0  0  0  0  0  0  0  0  0
    7.1713  -13.8843   23.5194 C   0  0  0  0  0  0  0  0  0  0  0  0
    8.4996  -17.6840   24.3709 C   0  0  0  0  0  0  0  0  0  0  0  0
    8.6246  -18.6418   25.2031 O   0  0  0  0  0  0  0  0  0  0  0  0
    9.5549  -17.3977   23.5141 N   0  0  0  0  0  0  0  0  0  0  0  0
   10.8614  -18.2110   23.5724 C   0  0  1  0  0  0  0  0  0  0  0  0
   11.4504  -18.1239   22.2503 C   0  0  0  0  0  0  0  0  0  0  0  0
   12.7509  -18.6738   21.9102 C   0  0  0  0  0  0  0  0  0  0  0  0
   13.3408  -18.5557   20.5967 C   0  0  0  0  0  0  0  0  0  0  0  0
   12.9319  -19.2015   19.6230 O   0  0  0  0  0  0  0  0  0  0  0  0
   11.4397  -17.7616   24.7879 C   0  0  0  0  0  0  0  0  0  0  0  0
   11.4193  -16.4962   25.0693 O   0  0  0  0  0  0  0  0  0  0  0  0
   14.4263  -17.6916   20.3400 O   0  0  0  0  0  0  0  0  0  0  0  0
   11.4788  -13.2577   29.1490 C   0  0  0  0  0  0  0  0  0  0  0  0
   11.3333  -14.6047   28.0093 S   0  0  0  0  0  0  0  0  0  0  0  0
   11.4369  -16.2491   28.6598 C   0  0  0  0  0  0  0  0  0  0  0  0
   11.2719  -17.3326   27.6665 C   0  0  0  0  0  0  0  0  0  0  0  0
   12.4820  -17.9144   27.0371 C   0  0  2  0  0  0  0  0  0  0  0  0
   12.0428  -18.5385   25.7704 N   0  0  0  0  0  0  0  0  0  0  0  0
   13.2270  -18.8773   27.8861 C   0  0  0  0  0  0  0  0  0  0  0  0
   13.8873  -18.4943   29.0303 O   0  0  0  0  0  0  0  0  0  0  0  0
   13.2713  -20.0855   27.5800 O   0  0  0  0  0  0  0  0  0  0  0  0
  2  1  1  1
  2 13  1  0
  3  4  1  0
  3  2  1  0
  4 12  1  0
  4  5  2  0
  5  6  1  0
  7  8  2  0
  7  6  1  0
  9  8  1  0
 10  9  2  0
 11 10  1  0
 11 12  2  0
 12  7  1  0
 13 14  2  0
 15 13  1  0
 15 16  1  0
 16 17  1  6
 18 17  1  0
 19 18  1  0
 20 19  2  0
 21 16  1  0
 21 22  2  0
 23 19  1  0
 25 24  1  0
 25 26  1  0
 26 27  1  0
 28 27  1  1
 28 29  1  0
 29 21  1  0
 30 28  1  0
 31 30  1  0
 32 30  2  0
M  END
$$$$
