WEM.pdb
     RDKit          3D

 32 33  0  0  1  0  0  0  0  0999 V2000
    6.2774  -17.7014   25.1298 N   0  0  0  0  0  0  0  0  0  0  0  0
    7.3485  -16.8569   24.6249 C   0  0  1  0  0  0  0  0  0  0  0  0
    7.7155  -15.8859   25.7513 C   0  0  0  0  0  0  0  0  0  0  0  0
    6.8806  -14.6832   25.6251 C   0  0  0  0  0  0  0  0  0  0  0  0
    5.7568  -14.4006   26.3709 C   0  0  0  0  0  0  0  0  0  0  0  0
    5.2741  -13.2213   25.9637 N   0  0  0  0  0  0  0  0  0  0  0  0
    6.0730  -12.7536   24.9729 C   0  0  0  0  0  0  0  0  0  0  0  0
    6.0143  -11.6107   24.2312 C   0  0  0  0  0  0  0  0  0  0  0  0
    6.9647  -11.3572   23.2565 C   0  0  0  0  0  0  0  0  0  0  0  0
    7.9889  -12.2702   23.0277 C   0  0  0  0  0  0  0  0  0  0  0  0
    8.0405  -13.4236   23.7828 C   0  0  0  0  0  0  0  0  0  0  0  0
    7.0940  -13.6548   24.7385 C   0  0  0  0  0  0  0  0  0  0  0  0
    8.5931  -17.6245   24.3555 C   0  0  0  0  0  0  0  0  0  0  0  0
    8.8464  -18.6572   25.0590 O   0  0  0  0  0  0  0  0  0  0  0  0
    9.4893  -17.2542   23.3608 N   0  0  0  0  0  0  0  0  0  0  0  0
   10.8929  -17.8838   23.2890 C   0  0  1  0  0  0  0  0  0  0  0  0
   11.3992  -17.5914   21.9622 C   0  0  0  0  0  0  0  0  0  0  0  0
   12.7236  -17.0533   21.7060 C   0  0  0  0  0  0  0  0  0  0  0  0
   13.7662  -17.8005   21.0412 C   0  0  0  0  0  0  0  0  0  0  0  0
   14.8481  -18.0602   21.5836 O   0  0  0  0  0  0  0  0  0  0  0  0
   11.4663  -17.4779   24.5221 C   0  0  0  0  0  0  0  0  0  0  0  0
   11.8533  -16.2491   24.6668 O   0  0  0  0  0  0  0  0  0  0  0  0
   13.6154  -18.2840   19.7243 O   0  0  0  0  0  0  0  0  0  0  0  0
   10.6404  -12.7866   27.9303 C   0  0  0  0  0  0  0  0  0  0  0  0
   11.0515  -14.4411   28.4078 S   0  0  0  0  0  0  0  0  0  0  0  0
   11.7144  -15.5164   27.1658 C   0  0  0  0  0  0  0  0  0  0  0  0
   11.9372  -16.9144   27.5945 C   0  0  0  0  0  0  0  0  0  0  0  0
   12.6474  -17.8379   26.6770 C   0  0  2  0  0  0  0  0  0  0  0  0
   11.6653  -18.2589   25.6549 N   0  0  0  0  0  0  0  0  0  0  0  0
   13.2810  -19.0080   27.3346 C   0  0  0  0  0  0  0  0  0  0  0  0
   14.3884  -18.8903   28.1419 O   0  0  0  0  0  0  0  0  0  0  0  0
   12.8133  -20.1527   27.1722 O   0  0  0  0  0  0  0  0  0  0  0  0
  2  1  1  1
  2 13  1  0
  3  4  1  0
  3  2  1  0
  4 12  1  0
  4  5  2  0
  5  6  1  0
  7  8  2  0
  7  6  1  0
  9  8  1  0
 10  9  2  0
 11 10  1  0
 11 12  2  0
 12  7  1  0
 13 14  2  0
 15 13  1  0
 15 16  1  0
 16 17  1  6
 18 17  1  0
 19 18  1  0
 20 19  2  0
 21 16  1  0
 21 22  2  0
 23 19  1  0
 25 24  1  0
 25 26  1  0
 26 27  1  0
 28 27  1  1
 28 29  1  0
 29 21  1  0
 30 28  1  0
 31 30  1  0
 32 30  2  0
M  END
$$$$
