WEM.pdb
     RDKit          3D

 32 33  0  0  1  0  0  0  0  0999 V2000
    6.3237  -17.6432   25.2780 N   0  0  0  0  0  0  0  0  0  0  0  0
    7.3923  -16.9534   24.5727 C   0  0  1  0  0  0  0  0  0  0  0  0
    7.9789  -15.9294   25.5493 C   0  0  0  0  0  0  0  0  0  0  0  0
    7.0679  -14.7790   25.6268 C   0  0  0  0  0  0  0  0  0  0  0  0
    5.9472  -14.6910   26.4240 C   0  0  0  0  0  0  0  0  0  0  0  0
    5.3822  -13.4964   26.2152 N   0  0  0  0  0  0  0  0  0  0  0  0
    6.1260  -12.8279   25.2996 C   0  0  0  0  0  0  0  0  0  0  0  0
    5.9782  -11.5892   24.7487 C   0  0  0  0  0  0  0  0  0  0  0  0
    6.8868  -11.1244   23.8129 C   0  0  0  0  0  0  0  0  0  0  0  0
    7.9600  -11.9213   23.4280 C   0  0  0  0  0  0  0  0  0  0  0  0
    8.1018  -13.1730   23.9904 C   0  0  0  0  0  0  0  0  0  0  0  0
    7.1952  -13.6126   24.9110 C   0  0  0  0  0  0  0  0  0  0  0  0
    8.5229  -17.8587   24.2366 C   0  0  0  0  0  0  0  0  0  0  0  0
    8.6697  -18.9368   24.9015 O   0  0  0  0  0  0  0  0  0  0  0  0
    9.4247  -17.5694   23.2204 N   0  0  0  0  0  0  0  0  0  0  0  0
   10.7664  -18.3183   23.1192 C   0  0  1  0  0  0  0  0  0  0  0  0
   11.0435  -18.4607   21.7030 C   0  0  0  0  0  0  0  0  0  0  0  0
   12.1465  -17.7998   21.0278 C   0  0  0  0  0  0  0  0  0  0  0  0
   12.0697  -17.3249   19.6655 C   0  0  0  0  0  0  0  0  0  0  0  0
   12.1456  -18.0841   18.6908 O   0  0  0  0  0  0  0  0  0  0  0  0
   11.5639  -17.6341   24.0730 C   0  0  0  0  0  0  0  0  0  0  0  0
   11.5302  -16.3387   24.1144 O   0  0  0  0  0  0  0  0  0  0  0  0
   11.9022  -15.9578   19.3591 O   0  0  0  0  0  0  0  0  0  0  0  0
   11.3257  -14.1672   29.1974 C   0  0  0  0  0  0  0  0  0  0  0  0
   10.7155  -15.0367   27.7810 S   0  0  0  0  0  0  0  0  0  0  0  0
   10.4922  -16.7883   27.9227 C   0  0  0  0  0  0  0  0  0  0  0  0
   10.8757  -17.5723   26.7285 C   0  0  0  0  0  0  0  0  0  0  0  0
   12.3160  -17.7693   26.4361 C   0  0  2  0  0  0  0  0  0  0  0  0
   12.4075  -18.1974   25.0237 N   0  0  0  0  0  0  0  0  0  0  0  0
   13.0125  -18.7211   27.3373 C   0  0  0  0  0  0  0  0  0  0  0  0
   12.8464  -20.0832   27.2419 O   0  0  0  0  0  0  0  0  0  0  0  0
   13.7865  -18.3020   28.2208 O   0  0  0  0  0  0  0  0  0  0  0  0
  2  1  1  1
  2 13  1  0
  3  4  1  0
  3  2  1  0
  4 12  1  0
  4  5  2  0
  5  6  1  0
  7  8  2  0
  7  6  1  0
  9  8  1  0
 10  9  2  0
 11 10  1  0
 11 12  2  0
 12  7  1  0
 13 14  2  0
 15 13  1  0
 15 16  1  0
 16 17  1  6
 18 17  1  0
 19 18  1  0
 20 19  2  0
 21 16  1  0
 21 22  2  0
 23 19  1  0
 25 24  1  0
 25 26  1  0
 26 27  1  0
 28 27  1  1
 28 29  1  0
 29 21  1  0
 30 28  1  0
 31 30  1  0
 32 30  2  0
M  END
$$$$
