WEM.pdb
     RDKit          3D

 32 33  0  0  1  0  0  0  0  0999 V2000
    6.5476  -17.8446   24.9106 N   0  0  0  0  0  0  0  0  0  0  0  0
    7.3724  -16.8298   24.2740 C   0  0  1  0  0  0  0  0  0  0  0  0
    7.9262  -15.9428   25.3933 C   0  0  0  0  0  0  0  0  0  0  0  0
    6.9377  -14.8990   25.6978 C   0  0  0  0  0  0  0  0  0  0  0  0
    5.7581  -15.0826   26.3862 C   0  0  0  0  0  0  0  0  0  0  0  0
    5.1321  -13.9025   26.4591 N   0  0  0  0  0  0  0  0  0  0  0  0
    5.8953  -12.9761   25.8283 C   0  0  0  0  0  0  0  0  0  0  0  0
    5.7067  -11.6413   25.6222 C   0  0  0  0  0  0  0  0  0  0  0  0
    6.6489  -10.8979   24.9317 C   0  0  0  0  0  0  0  0  0  0  0  0
    7.7979  -11.5105   24.4426 C   0  0  0  0  0  0  0  0  0  0  0  0
    7.9805  -12.8613   24.6556 C   0  0  0  0  0  0  0  0  0  0  0  0
    7.0398  -13.5762   25.3386 C   0  0  0  0  0  0  0  0  0  0  0  0
    8.5707  -17.4100   23.6120 C   0  0  0  0  0  0  0  0  0  0  0  0
    9.0788  -18.4805   24.0827 O   0  0  0  0  0  0  0  0  0  0  0  0
    9.1546  -16.8247   22.4957 N   0  0  0  0  0  0  0  0  0  0  0  0
   10.5918  -17.1858   22.0764 C   0  0  1  0  0  0  0  0  0  0  0  0
   10.7316  -16.7521   20.6999 C   0  0  0  0  0  0  0  0  0  0  0  0
   11.9733  -16.8361   19.9512 C   0  0  0  0  0  0  0  0  0  0  0  0
   12.0935  -17.5390   18.6947 C   0  0  0  0  0  0  0  0  0  0  0  0
   11.8449  -18.7463   18.5811 O   0  0  0  0  0  0  0  0  0  0  0  0
   11.3503  -16.7337   23.1873 C   0  0  0  0  0  0  0  0  0  0  0  0
   11.0981  -15.5673   23.6940 O   0  0  0  0  0  0  0  0  0  0  0  0
   12.5040  -16.8894   17.5113 O   0  0  0  0  0  0  0  0  0  0  0  0
   10.3701  -13.8995   27.8433 C   0  0  0  0  0  0  0  0  0  0  0  0
   11.1321  -15.4070   28.3735 S   0  0  0  0  0  0  0  0  0  0  0  0
   12.4221  -16.0783   27.3619 C   0  0  0  0  0  0  0  0  0  0  0  0
   12.0059  -16.5039   26.0079 C   0  0  0  0  0  0  0  0  0  0  0  0
   13.0518  -16.7877   24.9957 C   0  0  2  0  0  0  0  0  0  0  0  0
   12.3686  -17.4151   23.8441 N   0  0  0  0  0  0  0  0  0  0  0  0
   14.1790  -17.6240   25.4787 C   0  0  0  0  0  0  0  0  0  0  0  0
   15.0926  -17.1690   26.4008 O   0  0  0  0  0  0  0  0  0  0  0  0
   14.3280  -18.7875   25.0552 O   0  0  0  0  0  0  0  0  0  0  0  0
  2  1  1  1
  2 13  1  0
  3  4  1  0
  3  2  1  0
  4 12  1  0
  4  5  2  0
  5  6  1  0
  7  8  2  0
  7  6  1  0
  9  8  1  0
 10  9  2  0
 11 10  1  0
 11 12  2  0
 12  7  1  0
 13 14  2  0
 15 13  1  0
 15 16  1  0
 16 17  1  6
 18 17  1  0
 19 18  1  0
 20 19  2  0
 21 16  1  0
 21 22  2  0
 23 19  1  0
 25 24  1  0
 25 26  1  0
 26 27  1  0
 28 27  1  1
 28 29  1  0
 29 21  1  0
 30 28  1  0
 31 30  1  0
 32 30  2  0
M  END
$$$$
