WEM.pdb
     RDKit          3D

 32 33  0  0  1  0  0  0  0  0999 V2000
    6.4307  -17.4716   24.8176 N   0  0  0  0  0  0  0  0  0  0  0  0
    7.6066  -16.7690   24.3288 C   0  0  1  0  0  0  0  0  0  0  0  0
    7.7857  -15.5338   25.2168 C   0  0  0  0  0  0  0  0  0  0  0  0
    6.9405  -14.4521   24.6926 C   0  0  0  0  0  0  0  0  0  0  0  0
    5.8687  -13.8798   25.3430 C   0  0  0  0  0  0  0  0  0  0  0  0
    5.3560  -12.9352   24.5463 N   0  0  0  0  0  0  0  0  0  0  0  0
    6.0848  -12.9007   23.4034 C   0  0  0  0  0  0  0  0  0  0  0  0
    5.9727  -12.1276   22.2855 C   0  0  0  0  0  0  0  0  0  0  0  0
    6.8543  -12.2884   21.2299 C   0  0  0  0  0  0  0  0  0  0  0  0
    7.8635  -13.2427   21.3040 C   0  0  0  0  0  0  0  0  0  0  0  0
    7.9695  -14.0204   22.4386 C   0  0  0  0  0  0  0  0  0  0  0  0
    7.0904  -13.8464   23.4679 C   0  0  0  0  0  0  0  0  0  0  0  0
    8.8526  -17.5597   24.5106 C   0  0  0  0  0  0  0  0  0  0  0  0
    8.9012  -18.4310   25.4403 O   0  0  0  0  0  0  0  0  0  0  0  0
    9.9662  -17.3815   23.6996 N   0  0  0  0  0  0  0  0  0  0  0  0
   11.2527  -18.1943   23.9359 C   0  0  1  0  0  0  0  0  0  0  0  0
   11.9541  -18.2179   22.6671 C   0  0  0  0  0  0  0  0  0  0  0  0
   12.3819  -17.0230   21.9609 C   0  0  0  0  0  0  0  0  0  0  0  0
   13.6431  -16.9254   21.2629 C   0  0  0  0  0  0  0  0  0  0  0  0
   13.7489  -17.1349   20.0475 O   0  0  0  0  0  0  0  0  0  0  0  0
   11.7301  -17.6507   25.1568 C   0  0  0  0  0  0  0  0  0  0  0  0
   12.6703  -16.7586   25.1284 O   0  0  0  0  0  0  0  0  0  0  0  0
   14.8400  -16.5829   21.9268 O   0  0  0  0  0  0  0  0  0  0  0  0
   11.3188  -12.7791   27.2698 C   0  0  0  0  0  0  0  0  0  0  0  0
   10.7113  -13.7280   28.6355 S   0  0  0  0  0  0  0  0  0  0  0  0
   10.7724  -15.4935   28.5041 C   0  0  0  0  0  0  0  0  0  0  0  0
   11.8906  -16.0283   27.6970 C   0  0  0  0  0  0  0  0  0  0  0  0
   12.0710  -17.4977   27.6122 C   0  0  2  0  0  0  0  0  0  0  0  0
   11.2920  -17.9538   26.4409 N   0  0  0  0  0  0  0  0  0  0  0  0
   11.6952  -18.2457   28.8379 C   0  0  0  0  0  0  0  0  0  0  0  0
   10.6880  -19.1824   28.8506 O   0  0  0  0  0  0  0  0  0  0  0  0
   12.2985  -18.0431   29.9105 O   0  0  0  0  0  0  0  0  0  0  0  0
  2  1  1  1
  2 13  1  0
  3  4  1  0
  3  2  1  0
  4 12  1  0
  4  5  2  0
  5  6  1  0
  7  8  2  0
  7  6  1  0
  9  8  1  0
 10  9  2  0
 11 10  1  0
 11 12  2  0
 12  7  1  0
 13 14  2  0
 15 13  1  0
 15 16  1  0
 16 17  1  6
 18 17  1  0
 19 18  1  0
 20 19  2  0
 21 16  1  0
 21 22  2  0
 23 19  1  0
 25 24  1  0
 25 26  1  0
 26 27  1  0
 28 27  1  1
 28 29  1  0
 29 21  1  0
 30 28  1  0
 31 30  1  0
 32 30  2  0
M  END
$$$$
