WEM.pdb
     RDKit          3D

 32 33  0  0  1  0  0  0  0  0999 V2000
    6.2094  -17.3131   25.3334 N   0  0  0  0  0  0  0  0  0  0  0  0
    7.2691  -16.7483   24.5128 C   0  0  1  0  0  0  0  0  0  0  0  0
    7.3836  -15.2690   24.8935 C   0  0  0  0  0  0  0  0  0  0  0  0
    6.8466  -14.4578   23.7922 C   0  0  0  0  0  0  0  0  0  0  0  0
    5.6253  -13.8195   23.7828 C   0  0  0  0  0  0  0  0  0  0  0  0
    5.4962  -13.1878   22.6106 N   0  0  0  0  0  0  0  0  0  0  0  0
    6.6145  -13.4161   21.8786 C   0  0  0  0  0  0  0  0  0  0  0  0
    6.9738  -13.0046   20.6290 C   0  0  0  0  0  0  0  0  0  0  0  0
    8.1921  -13.3813   20.0895 C   0  0  0  0  0  0  0  0  0  0  0  0
    9.0602  -14.1844   20.8219 C   0  0  0  0  0  0  0  0  0  0  0  0
    8.6886  -14.5959   22.0852 C   0  0  0  0  0  0  0  0  0  0  0  0
    7.4832  -14.2138   22.5987 C   0  0  0  0  0  0  0  0  0  0  0  0
    8.5995  -17.3326   24.8284 C   0  0  0  0  0  0  0  0  0  0  0  0
    8.7342  -18.0236   25.8914 O   0  0  0  0  0  0  0  0  0  0  0  0
    9.7012  -17.1517   24.0019 N   0  0  0  0  0  0  0  0  0  0  0  0
   11.0401  -17.8484   24.3079 C   0  0  1  0  0  0  0  0  0  0  0  0
   11.7664  -17.8957   23.0538 C   0  0  0  0  0  0  0  0  0  0  0  0
   12.2155  -16.7144   22.3381 C   0  0  0  0  0  0  0  0  0  0  0  0
   12.9517  -16.7738   21.0965 C   0  0  0  0  0  0  0  0  0  0  0  0
   13.8017  -15.9293   20.7857 O   0  0  0  0  0  0  0  0  0  0  0  0
   11.4509  -17.1969   25.4998 C   0  0  0  0  0  0  0  0  0  0  0  0
   12.7109  -16.9573   25.6888 O   0  0  0  0  0  0  0  0  0  0  0  0
   12.7469  -17.8045   20.1549 O   0  0  0  0  0  0  0  0  0  0  0  0
    9.4719  -11.3365   26.6350 C   0  0  0  0  0  0  0  0  0  0  0  0
    9.2968  -12.8767   27.4904 S   0  0  0  0  0  0  0  0  0  0  0  0
   10.7326  -13.9033   27.6410 C   0  0  0  0  0  0  0  0  0  0  0  0
   10.5161  -15.1946   28.3289 C   0  0  0  0  0  0  0  0  0  0  0  0
   11.2389  -16.3937   27.8404 C   0  0  2  0  0  0  0  0  0  0  0  0
   10.6398  -16.7480   26.5358 N   0  0  0  0  0  0  0  0  0  0  0  0
   11.2334  -17.5497   28.7714 C   0  0  0  0  0  0  0  0  0  0  0  0
   11.8444  -17.5077   30.0030 O   0  0  0  0  0  0  0  0  0  0  0  0
   10.6587  -18.6108   28.4563 O   0  0  0  0  0  0  0  0  0  0  0  0
  2  1  1  1
  2 13  1  0
  3  4  1  0
  3  2  1  0
  4 12  1  0
  4  5  2  0
  5  6  1  0
  7  8  2  0
  7  6  1  0
  9  8  1  0
 10  9  2  0
 11 10  1  0
 11 12  2  0
 12  7  1  0
 13 14  2  0
 15 13  1  0
 15 16  1  0
 16 17  1  6
 18 17  1  0
 19 18  1  0
 20 19  2  0
 21 16  1  0
 21 22  2  0
 23 19  1  0
 25 24  1  0
 25 26  1  0
 26 27  1  0
 28 27  1  1
 28 29  1  0
 29 21  1  0
 30 28  1  0
 31 30  1  0
 32 30  2  0
M  END
$$$$
