WEM.pdb
     RDKit          3D

 32 33  0  0  1  0  0  0  0  0999 V2000
    6.1167  -18.4885   24.0590 N   0  0  0  0  0  0  0  0  0  0  0  0
    6.9751  -17.3209   23.9358 C   0  0  1  0  0  0  0  0  0  0  0  0
    7.4443  -16.9647   25.3498 C   0  0  0  0  0  0  0  0  0  0  0  0
    6.8233  -15.6924   25.7439 C   0  0  0  0  0  0  0  0  0  0  0  0
    5.6775  -15.5543   26.4969 C   0  0  0  0  0  0  0  0  0  0  0  0
    5.4311  -14.2474   26.6419 N   0  0  0  0  0  0  0  0  0  0  0  0
    6.4012  -13.5569   25.9932 C   0  0  0  0  0  0  0  0  0  0  0  0
    6.6041  -12.2173   25.8378 C   0  0  0  0  0  0  0  0  0  0  0  0
    7.6881  -11.7511   25.1133 C   0  0  0  0  0  0  0  0  0  0  0  0
    8.5801  -12.6500   24.5378 C   0  0  0  0  0  0  0  0  0  0  0  0
    8.3671  -14.0034   24.7000 C   0  0  0  0  0  0  0  0  0  0  0  0
    7.2925  -14.4423   25.4177 C   0  0  0  0  0  0  0  0  0  0  0  0
    8.2203  -17.6134   23.1777 C   0  0  0  0  0  0  0  0  0  0  0  0
    8.7394  -18.7746   23.2667 O   0  0  0  0  0  0  0  0  0  0  0  0
    8.8367  -16.6630   22.3737 N   0  0  0  0  0  0  0  0  0  0  0  0
   10.1824  -16.9629   21.6876 C   0  0  1  0  0  0  0  0  0  0  0  0
   10.1038  -16.3685   20.3674 C   0  0  0  0  0  0  0  0  0  0  0  0
   11.1870  -16.4076   19.4007 C   0  0  0  0  0  0  0  0  0  0  0  0
   11.5845  -17.6105   18.7062 C   0  0  0  0  0  0  0  0  0  0  0  0
   12.5757  -18.2737   19.0379 O   0  0  0  0  0  0  0  0  0  0  0  0
   11.1163  -16.6408   22.7065 C   0  0  0  0  0  0  0  0  0  0  0  0
   12.3547  -16.4291   22.3868 O   0  0  0  0  0  0  0  0  0  0  0  0
   10.8634  -18.1076   17.6000 O   0  0  0  0  0  0  0  0  0  0  0  0
   10.8504  -13.3117   28.7568 C   0  0  0  0  0  0  0  0  0  0  0  0
    9.6774  -14.0116   27.6305 S   0  0  0  0  0  0  0  0  0  0  0  0
   10.2907  -14.6639   26.1019 C   0  0  0  0  0  0  0  0  0  0  0  0
   11.3708  -15.6660   26.2312 C   0  0  0  0  0  0  0  0  0  0  0  0
   11.9770  -16.2253   24.9988 C   0  0  2  0  0  0  0  0  0  0  0  0
   10.8633  -16.5028   24.0665 N   0  0  0  0  0  0  0  0  0  0  0  0
   12.8218  -17.4278   25.2076 C   0  0  0  0  0  0  0  0  0  0  0  0
   14.0254  -17.3773   25.8714 O   0  0  0  0  0  0  0  0  0  0  0  0
   12.4524  -18.5400   24.7811 O   0  0  0  0  0  0  0  0  0  0  0  0
  2  1  1  1
  2 13  1  0
  3  4  1  0
  3  2  1  0
  4 12  1  0
  4  5  2  0
  5  6  1  0
  7  8  2  0
  7  6  1  0
  9  8  1  0
 10  9  2  0
 11 10  1  0
 11 12  2  0
 12  7  1  0
 13 14  2  0
 15 13  1  0
 15 16  1  0
 16 17  1  6
 18 17  1  0
 19 18  1  0
 20 19  2  0
 21 16  1  0
 21 22  2  0
 23 19  1  0
 25 24  1  0
 25 26  1  0
 26 27  1  0
 28 27  1  1
 28 29  1  0
 29 21  1  0
 30 28  1  0
 31 30  1  0
 32 30  2  0
M  END
$$$$
