YDR.pdb
     RDKit          3D

 32 32  0  0  1  0  0  0  0  0999 V2000
   10.5330   -9.6338   -8.6558 O   0  0  0  0  0  0  0  0  0  0  0  0
   11.6387   -8.8693   -8.3044 C   0  0  0  0  0  0  0  0  0  0  0  0
   12.8846   -9.1588   -8.8271 C   0  0  0  0  0  0  0  0  0  0  0  0
   13.9706   -8.3724   -8.4539 C   0  0  0  0  0  0  0  0  0  0  0  0
   13.8425   -7.3130   -7.5784 C   0  0  0  0  0  0  0  0  0  0  0  0
   15.0103   -6.5135   -7.2145 C   0  0  0  0  0  0  0  0  0  0  0  0
   15.0454   -5.1915   -7.9424 C   0  0  2  0  0  0  0  0  0  0  0  0
   13.8348   -4.4560   -7.6421 N   0  0  0  0  0  0  0  0  0  0  0  0
   15.1592   -5.3698   -9.3859 C   0  0  0  0  0  0  0  0  0  0  0  0
   14.1367   -5.2848  -10.1103 O   0  0  0  0  0  0  0  0  0  0  0  0
   12.5987   -7.0239   -7.0565 C   0  0  0  0  0  0  0  0  0  0  0  0
   11.5010   -7.8048   -7.4227 C   0  0  0  0  0  0  0  0  0  0  0  0
   16.3879   -5.6441  -10.0684 N   0  0  0  0  0  0  0  0  0  0  0  0
   16.4808   -5.8332  -11.4974 C   0  0  1  0  0  0  0  0  0  0  0  0
   17.0424   -4.5687  -12.0978 C   0  0  0  0  0  0  0  0  0  0  0  0
   16.0461   -3.5663  -12.4645 C   0  0  0  0  0  0  0  0  0  0  0  0
   15.0440   -3.7793  -13.1775 O   0  0  0  0  0  0  0  0  0  0  0  0
   17.3870   -6.9503  -11.8585 C   0  0  0  0  0  0  0  0  0  0  0  0
   18.3358   -7.2255  -11.0815 O   0  0  0  0  0  0  0  0  0  0  0  0
   16.1967   -2.2554  -11.9967 O   0  0  0  0  0  0  0  0  0  0  0  0
   15.6312  -14.6067  -16.1509 N   0  0  0  0  0  0  0  0  0  0  0  0
   17.0171  -14.6501  -15.8337 C   0  0  0  0  0  0  0  0  0  0  0  0
   17.6422  -15.7316  -16.0839 N   0  0  0  0  0  0  0  0  0  0  0  0
   17.7025  -13.5514  -15.2623 N   0  0  0  0  0  0  0  0  0  0  0  0
   16.9974  -12.3926  -14.8019 C   0  0  0  0  0  0  0  0  0  0  0  0
   17.8282  -11.2846  -14.2822 C   0  0  0  0  0  0  0  0  0  0  0  0
   17.1870  -10.0331  -13.8409 C   0  0  0  0  0  0  0  0  0  0  0  0
   18.0185   -8.9465  -13.2904 C   0  0  2  0  0  0  0  0  0  0  0  0
   17.2411   -7.7238  -13.0318 N   0  0  0  0  0  0  0  0  0  0  0  0
   19.1475   -8.5868  -14.1446 C   0  0  0  0  0  0  0  0  0  0  0  0
   19.1453   -7.5872  -14.9436 O   0  0  0  0  0  0  0  0  0  0  0  0
   20.3169   -9.3299  -14.1313 O   0  0  0  0  0  0  0  0  0  0  0  0
  2  1  1  0
  3  2  2  0
  4  3  1  0
  5 11  1  0
  5  4  2  0
  6  5  1  0
  7  6  1  0
  7  8  1  6
  9 10  2  0
  9  7  1  0
 11 12  2  0
 12  2  1  0
 13  9  1  0
 14 13  1  0
 14 15  1  6
 16 15  1  0
 16 20  1  0
 17 16  2  0
 18 14  1  0
 19 18  2  0
 22 21  1  0
 22 23  2  0
 24 22  1  0
 25 24  1  0
 25 26  1  0
 27 26  1  0
 28 27  1  6
 28 29  1  0
 29 18  1  0
 30 28  1  0
 30 32  1  0
 31 30  2  0
M  END
$$$$
