YDR.pdb
     RDKit          3D

 32 32  0  0  1  0  0  0  0  0999 V2000
   31.3240  -21.9458   -9.2381 O   0  0  0  0  0  0  0  0  0  0  0  0
   30.3258  -21.5035  -10.0974 C   0  0  0  0  0  0  0  0  0  0  0  0
   29.0078  -21.8569   -9.8801 C   0  0  0  0  0  0  0  0  0  0  0  0
   28.0332  -21.3962  -10.7605 C   0  0  0  0  0  0  0  0  0  0  0  0
   28.3414  -20.5978  -11.8434 C   0  0  0  0  0  0  0  0  0  0  0  0
   27.2855  -20.1364  -12.7420 C   0  0  0  0  0  0  0  0  0  0  0  0
   26.7419  -21.2512  -13.6025 C   0  0  2  0  0  0  0  0  0  0  0  0
   27.7606  -21.6557  -14.5488 N   0  0  0  0  0  0  0  0  0  0  0  0
   25.5427  -20.8426  -14.3260 C   0  0  0  0  0  0  0  0  0  0  0  0
   25.6357  -20.0513  -15.2970 O   0  0  0  0  0  0  0  0  0  0  0  0
   29.6573  -20.2450  -12.0605 C   0  0  0  0  0  0  0  0  0  0  0  0
   30.6446  -20.7003  -11.1850 C   0  0  0  0  0  0  0  0  0  0  0  0
   24.2194  -21.2871  -14.0064 N   0  0  0  0  0  0  0  0  0  0  0  0
   23.0502  -20.9258  -14.7737 C   0  0  1  0  0  0  0  0  0  0  0  0
   22.4350  -22.1948  -15.3084 C   0  0  0  0  0  0  0  0  0  0  0  0
   23.1547  -22.8057  -16.4223 C   0  0  0  0  0  0  0  0  0  0  0  0
   23.6873  -23.9343  -16.3986 O   0  0  0  0  0  0  0  0  0  0  0  0
   22.0282  -20.2366  -13.9492 C   0  0  0  0  0  0  0  0  0  0  0  0
   21.8712  -20.6071  -12.7585 O   0  0  0  0  0  0  0  0  0  0  0  0
   23.2749  -22.0976  -17.6240 O   0  0  0  0  0  0  0  0  0  0  0  0
   19.6816  -12.7522  -17.1231 N   0  0  0  0  0  0  0  0  0  0  0  0
   20.5161  -13.0822  -16.0195 C   0  0  0  0  0  0  0  0  0  0  0  0
   21.1870  -12.1381  -15.4890 N   0  0  0  0  0  0  0  0  0  0  0  0
   20.6179  -14.3981  -15.5081 N   0  0  0  0  0  0  0  0  0  0  0  0
   19.8733  -15.4789  -16.0822 C   0  0  0  0  0  0  0  0  0  0  0  0
   20.1593  -16.8277  -15.5465 C   0  0  0  0  0  0  0  0  0  0  0  0
   19.9773  -17.0988  -14.1094 C   0  0  0  0  0  0  0  0  0  0  0  0
   20.2714  -18.4442  -13.5816 C   0  0  2  0  0  0  0  0  0  0  0  0
   21.2191  -19.1833  -14.4311 N   0  0  0  0  0  0  0  0  0  0  0  0
   19.0826  -19.2752  -13.4093 C   0  0  0  0  0  0  0  0  0  0  0  0
   19.0687  -20.3683  -12.7442 O   0  0  0  0  0  0  0  0  0  0  0  0
   17.8697  -18.9102  -13.9712 O   0  0  0  0  0  0  0  0  0  0  0  0
  2  1  1  0
  3  2  2  0
  4  3  1  0
  5 11  1  0
  5  4  2  0
  6  5  1  0
  7  6  1  0
  7  8  1  6
  9 10  2  0
  9  7  1  0
 11 12  2  0
 12  2  1  0
 13  9  1  0
 14 13  1  0
 14 15  1  1
 16 15  1  0
 16 20  1  0
 17 16  2  0
 18 14  1  0
 19 18  2  0
 22 21  1  0
 22 23  2  0
 24 22  1  0
 25 24  1  0
 25 26  1  0
 27 26  1  0
 28 27  1  6
 28 29  1  0
 29 18  1  0
 30 28  1  0
 30 32  1  0
 31 30  2  0
M  END
$$$$
