YDR.pdb
     RDKit          3D

 32 32  0  0  1  0  0  0  0  0999 V2000
   28.8977  -29.5021  -18.7566 O   0  0  0  0  0  0  0  0  0  0  0  0
   28.0803  -28.5912  -18.0989 C   0  0  0  0  0  0  0  0  0  0  0  0
   27.0520  -27.9600  -18.7722 C   0  0  0  0  0  0  0  0  0  0  0  0
   26.2523  -27.0533  -18.0827 C   0  0  0  0  0  0  0  0  0  0  0  0
   26.4539  -26.7646  -16.7481 C   0  0  0  0  0  0  0  0  0  0  0  0
   25.5894  -25.8058  -16.0636 C   0  0  0  0  0  0  0  0  0  0  0  0
   25.7712  -24.4009  -16.5851 C   0  0  2  0  0  0  0  0  0  0  0  0
   27.0816  -23.9208  -16.1990 N   0  0  0  0  0  0  0  0  0  0  0  0
   24.7511  -23.4944  -16.0691 C   0  0  0  0  0  0  0  0  0  0  0  0
   24.8499  -23.0386  -14.9028 O   0  0  0  0  0  0  0  0  0  0  0  0
   27.4806  -27.3946  -16.0757 C   0  0  0  0  0  0  0  0  0  0  0  0
   28.2901  -28.3064  -16.7556 C   0  0  0  0  0  0  0  0  0  0  0  0
   23.6042  -23.0668  -16.8123 N   0  0  0  0  0  0  0  0  0  0  0  0
   22.6436  -22.1095  -16.3150 C   0  0  1  0  0  0  0  0  0  0  0  0
   22.2217  -21.2332  -17.4678 C   0  0  0  0  0  0  0  0  0  0  0  0
   23.2344  -20.2851  -17.9231 C   0  0  0  0  0  0  0  0  0  0  0  0
   23.9983  -19.6390  -17.1767 O   0  0  0  0  0  0  0  0  0  0  0  0
   21.4286  -22.7633  -15.7714 C   0  0  0  0  0  0  0  0  0  0  0  0
   20.9699  -23.7670  -16.3728 O   0  0  0  0  0  0  0  0  0  0  0  0
   23.3865  -20.0602  -19.2965 O   0  0  0  0  0  0  0  0  0  0  0  0
   18.3793  -24.6221   -8.7916 N   0  0  0  0  0  0  0  0  0  0  0  0
   17.8305  -25.6473   -9.6106 C   0  0  0  0  0  0  0  0  0  0  0  0
   17.4847  -26.7321   -9.0391 N   0  0  0  0  0  0  0  0  0  0  0  0
   17.6623  -25.4977  -11.0081 N   0  0  0  0  0  0  0  0  0  0  0  0
   18.5942  -24.7444  -11.7930 C   0  0  0  0  0  0  0  0  0  0  0  0
   18.4022  -23.2778  -11.8077 C   0  0  0  0  0  0  0  0  0  0  0  0
   19.1807  -22.4466  -12.7431 C   0  0  0  0  0  0  0  0  0  0  0  0
   19.5839  -23.0047  -14.0473 C   0  0  2  0  0  0  0  0  0  0  0  0
   20.7570  -22.3176  -14.6110 N   0  0  0  0  0  0  0  0  0  0  0  0
   18.5213  -22.9712  -15.0490 C   0  0  0  0  0  0  0  0  0  0  0  0
   18.3325  -21.9944  -15.8538 O   0  0  0  0  0  0  0  0  0  0  0  0
   17.6373  -24.0293  -15.1866 O   0  0  0  0  0  0  0  0  0  0  0  0
  2  1  1  0
  3  2  2  0
  4  3  1  0
  5 11  1  0
  5  4  2  0
  6  5  1  0
  7  6  1  0
  7  8  1  1
  9 10  2  0
  9  7  1  0
 11 12  2  0
 12  2  1  0
 13  9  1  0
 14 13  1  0
 14 15  1  6
 16 15  1  0
 16 20  1  0
 17 16  2  0
 18 14  1  0
 19 18  2  0
 22 21  1  0
 22 23  2  0
 24 22  1  0
 25 24  1  0
 25 26  1  0
 27 26  1  0
 28 27  1  1
 28 29  1  0
 29 18  1  0
 30 28  1  0
 30 32  1  0
 31 30  2  0
M  END
$$$$
