YDR.pdb
     RDKit          3D

 32 32  0  0  1  0  0  0  0  0999 V2000
   17.8214  -11.2353  -22.4666 O   0  0  0  0  0  0  0  0  0  0  0  0
   17.9735  -10.7131  -21.1881 C   0  0  0  0  0  0  0  0  0  0  0  0
   18.5240   -9.4590  -21.0050 C   0  0  0  0  0  0  0  0  0  0  0  0
   18.6616   -8.9664  -19.7106 C   0  0  0  0  0  0  0  0  0  0  0  0
   18.2658   -9.6908  -18.6043 C   0  0  0  0  0  0  0  0  0  0  0  0
   18.4287   -9.1340  -17.2631 C   0  0  0  0  0  0  0  0  0  0  0  0
   19.8592   -9.2051  -16.7863 C   0  0  2  0  0  0  0  0  0  0  0  0
   20.2081  -10.5900  -16.5472 N   0  0  0  0  0  0  0  0  0  0  0  0
   20.0624   -8.4356  -15.5636 C   0  0  0  0  0  0  0  0  0  0  0  0
   19.8798   -8.9769  -14.4450 O   0  0  0  0  0  0  0  0  0  0  0  0
   17.7163  -10.9429  -18.7869 C   0  0  0  0  0  0  0  0  0  0  0  0
   17.5725  -11.4487  -20.0801 C   0  0  0  0  0  0  0  0  0  0  0  0
   20.4680   -7.0625  -15.5349 N   0  0  0  0  0  0  0  0  0  0  0  0
   20.6650   -6.3149  -14.3148 C   0  0  1  0  0  0  0  0  0  0  0  0
   21.6670   -5.2232  -14.5955 C   0  0  0  0  0  0  0  0  0  0  0  0
   21.9745   -4.3624  -13.4570 C   0  0  0  0  0  0  0  0  0  0  0  0
   21.4358   -4.4402  -12.3337 O   0  0  0  0  0  0  0  0  0  0  0  0
   19.4145   -5.6743  -13.8404 C   0  0  0  0  0  0  0  0  0  0  0  0
   18.6974   -5.0701  -14.6773 O   0  0  0  0  0  0  0  0  0  0  0  0
   22.9436   -3.3626  -13.6028 O   0  0  0  0  0  0  0  0  0  0  0  0
   13.7761   -7.9551   -7.2396 N   0  0  0  0  0  0  0  0  0  0  0  0
   13.1628   -6.8972   -7.9662 C   0  0  0  0  0  0  0  0  0  0  0  0
   11.9349   -6.6565   -7.7270 N   0  0  0  0  0  0  0  0  0  0  0  0
   13.8631   -6.1245   -8.9233 N   0  0  0  0  0  0  0  0  0  0  0  0
   15.1978   -6.4617   -9.3191 C   0  0  0  0  0  0  0  0  0  0  0  0
   15.7781   -5.6569  -10.4162 C   0  0  0  0  0  0  0  0  0  0  0  0
   17.1118   -5.9936  -10.9453 C   0  0  0  0  0  0  0  0  0  0  0  0
   17.6716   -5.2044  -12.0583 C   0  0  2  0  0  0  0  0  0  0  0  0
   18.9844   -5.7064  -12.4949 N   0  0  0  0  0  0  0  0  0  0  0  0
   17.8154   -3.7837  -11.7506 C   0  0  0  0  0  0  0  0  0  0  0  0
   16.8276   -2.9825  -11.6096 O   0  0  0  0  0  0  0  0  0  0  0  0
   19.0672   -3.2126  -11.5869 O   0  0  0  0  0  0  0  0  0  0  0  0
  2  1  1  0
  3  2  2  0
  4  3  1  0
  5 11  1  0
  5  4  2  0
  6  5  1  0
  7  6  1  0
  7  8  1  1
  9 10  2  0
  9  7  1  0
 11 12  2  0
 12  2  1  0
 13  9  1  0
 14 13  1  0
 14 15  1  6
 16 15  1  0
 16 20  1  0
 17 16  2  0
 18 14  1  0
 19 18  2  0
 22 21  1  0
 22 23  2  0
 24 22  1  0
 25 24  1  0
 25 26  1  0
 27 26  1  0
 28 27  1  1
 28 29  1  0
 29 18  1  0
 30 28  1  0
 30 32  1  0
 31 30  2  0
M  END
$$$$
