YDR.pdb
     RDKit          3D

 32 32  0  0  1  0  0  0  0  0999 V2000
   25.5538  -21.0835   -6.9605 O   0  0  0  0  0  0  0  0  0  0  0  0
   25.5904  -20.9854   -8.3460 C   0  0  0  0  0  0  0  0  0  0  0  0
   26.5537  -20.2145   -8.9680 C   0  0  0  0  0  0  0  0  0  0  0  0
   26.5615  -20.1386  -10.3577 C   0  0  0  0  0  0  0  0  0  0  0  0
   25.6376  -20.8087  -11.1340 C   0  0  0  0  0  0  0  0  0  0  0  0
   25.6834  -20.7007  -12.5905 C   0  0  0  0  0  0  0  0  0  0  0  0
   24.7846  -19.6044  -13.1094 C   0  0  2  0  0  0  0  0  0  0  0  0
   23.4136  -20.0698  -13.0889 N   0  0  0  0  0  0  0  0  0  0  0  0
   25.1418  -19.2070  -14.4669 C   0  0  0  0  0  0  0  0  0  0  0  0
   24.5103  -19.6792  -15.4447 O   0  0  0  0  0  0  0  0  0  0  0  0
   24.6757  -21.5783  -10.5131 C   0  0  0  0  0  0  0  0  0  0  0  0
   24.6568  -21.6631   -9.1198 C   0  0  0  0  0  0  0  0  0  0  0  0
   26.1929  -18.2885  -14.7864 N   0  0  0  0  0  0  0  0  0  0  0  0
   26.5159  -17.8845  -16.1350 C   0  0  1  0  0  0  0  0  0  0  0  0
   27.2013  -16.5427  -16.0664 C   0  0  0  0  0  0  0  0  0  0  0  0
   27.5613  -15.9687  -17.3598 C   0  0  0  0  0  0  0  0  0  0  0  0
   28.1615  -14.8863  -17.5214 O   0  0  0  0  0  0  0  0  0  0  0  0
   27.4402  -18.8346  -16.7999 C   0  0  0  0  0  0  0  0  0  0  0  0
   28.5760  -19.0172  -16.2937 O   0  0  0  0  0  0  0  0  0  0  0  0
   27.2219  -16.6605  -18.5287 O   0  0  0  0  0  0  0  0  0  0  0  0
   25.2366  -24.8913  -14.7592 N   0  0  0  0  0  0  0  0  0  0  0  0
   24.1948  -24.9971  -15.7219 C   0  0  0  0  0  0  0  0  0  0  0  0
   23.3318  -25.9187  -15.5529 N   0  0  0  0  0  0  0  0  0  0  0  0
   24.0942  -24.1273  -16.8341 N   0  0  0  0  0  0  0  0  0  0  0  0
   24.8111  -22.8878  -16.8764 C   0  0  0  0  0  0  0  0  0  0  0  0
   26.2622  -22.9801  -17.1480 C   0  0  0  0  0  0  0  0  0  0  0  0
   27.1141  -21.7879  -16.9902 C   0  0  0  0  0  0  0  0  0  0  0  0
   27.4417  -20.9683  -18.1716 C   0  0  2  0  0  0  0  0  0  0  0  0
   27.1124  -19.5473  -17.9750 N   0  0  0  0  0  0  0  0  0  0  0  0
   26.7788  -21.4164  -19.3937 C   0  0  0  0  0  0  0  0  0  0  0  0
   25.5894  -21.0784  -19.7231 O   0  0  0  0  0  0  0  0  0  0  0  0
   27.4244  -22.2537  -20.2893 O   0  0  0  0  0  0  0  0  0  0  0  0
  2  1  1  0
  3  2  2  0
  4  3  1  0
  5 11  1  0
  5  4  2  0
  6  5  1  0
  7  6  1  0
  7  8  1  6
  9 10  2  0
  9  7  1  0
 11 12  2  0
 12  2  1  0
 13  9  1  0
 14 13  1  0
 14 15  1  1
 16 15  1  0
 16 20  1  0
 17 16  2  0
 18 14  1  0
 19 18  2  0
 22 21  1  0
 22 23  2  0
 24 22  1  0
 25 24  1  0
 25 26  1  0
 27 26  1  0
 28 27  1  1
 28 29  1  0
 29 18  1  0
 30 28  1  0
 30 32  1  0
 31 30  2  0
M  END
$$$$
