YDR.pdb
     RDKit          3D

 32 32  0  0  1  0  0  0  0  0999 V2000
   18.7971  -12.5459  -16.7645 O   0  0  0  0  0  0  0  0  0  0  0  0
   19.5413  -13.6738  -16.4413 C   0  0  0  0  0  0  0  0  0  0  0  0
   20.8658  -13.7715  -16.8224 C   0  0  0  0  0  0  0  0  0  0  0  0
   21.5819  -14.9153  -16.4819 C   0  0  0  0  0  0  0  0  0  0  0  0
   21.0111  -15.9549  -15.7758 C   0  0  0  0  0  0  0  0  0  0  0  0
   21.8009  -17.1374  -15.4393 C   0  0  0  0  0  0  0  0  0  0  0  0
   22.0492  -18.0176  -16.6403 C   0  0  2  0  0  0  0  0  0  0  0  0
   20.8237  -18.7110  -16.9779 N   0  0  0  0  0  0  0  0  0  0  0  0
   23.1049  -18.9928  -16.3891 C   0  0  0  0  0  0  0  0  0  0  0  0
   22.8381  -20.0654  -15.7924 O   0  0  0  0  0  0  0  0  0  0  0  0
   19.6887  -15.8576  -15.3953 C   0  0  0  0  0  0  0  0  0  0  0  0
   18.9590  -14.7156  -15.7304 C   0  0  0  0  0  0  0  0  0  0  0  0
   24.4708  -18.8193  -16.7824 N   0  0  0  0  0  0  0  0  0  0  0  0
   25.5279  -19.7330  -16.4162 C   0  0  1  0  0  0  0  0  0  0  0  0
   26.7463  -19.3858  -17.2346 C   0  0  0  0  0  0  0  0  0  0  0  0
   27.8931  -20.2674  -17.0356 C   0  0  0  0  0  0  0  0  0  0  0  0
   27.9278  -21.2299  -16.2416 O   0  0  0  0  0  0  0  0  0  0  0  0
   25.8950  -19.6224  -14.9836 C   0  0  0  0  0  0  0  0  0  0  0  0
   26.1023  -18.4784  -14.5062 O   0  0  0  0  0  0  0  0  0  0  0  0
   29.0595  -20.0433  -17.7768 O   0  0  0  0  0  0  0  0  0  0  0  0
   19.2582  -20.5661  -10.3579 N   0  0  0  0  0  0  0  0  0  0  0  0
   20.2531  -20.1538   -9.4287 C   0  0  0  0  0  0  0  0  0  0  0  0
   19.8548  -19.6683   -8.3204 N   0  0  0  0  0  0  0  0  0  0  0  0
   21.6385  -20.2664   -9.6960 N   0  0  0  0  0  0  0  0  0  0  0  0
   22.1431  -20.2269  -11.0361 C   0  0  0  0  0  0  0  0  0  0  0  0
   23.6046  -20.3951  -11.1902 C   0  0  0  0  0  0  0  0  0  0  0  0
   24.2124  -20.3268  -12.5311 C   0  0  0  0  0  0  0  0  0  0  0  0
   25.6256  -20.7098  -12.7079 C   0  0  2  0  0  0  0  0  0  0  0  0
   26.0247  -20.7363  -14.1242 N   0  0  0  0  0  0  0  0  0  0  0  0
   25.9545  -22.0084  -12.1257 C   0  0  0  0  0  0  0  0  0  0  0  0
   25.7896  -23.1228  -12.7327 O   0  0  0  0  0  0  0  0  0  0  0  0
   26.4818  -22.1042  -10.8479 O   0  0  0  0  0  0  0  0  0  0  0  0
  2  1  1  0
  3  2  2  0
  4  3  1  0
  5 11  1  0
  5  4  2  0
  6  5  1  0
  7  6  1  0
  7  8  1  1
  9 10  2  0
  9  7  1  0
 11 12  2  0
 12  2  1  0
 13  9  1  0
 14 13  1  0
 14 15  1  6
 16 15  1  0
 16 20  1  0
 17 16  2  0
 18 14  1  0
 19 18  2  0
 22 21  1  0
 22 23  2  0
 24 22  1  0
 25 24  1  0
 25 26  1  0
 27 26  1  0
 28 27  1  6
 28 29  1  0
 29 18  1  0
 30 28  1  0
 30 32  1  0
 31 30  2  0
M  END
$$$$
