YDR.pdb
     RDKit          3D

 32 32  0  0  1  0  0  0  0  0999 V2000
   29.8855  -15.6548  -18.9956 O   0  0  0  0  0  0  0  0  0  0  0  0
   29.0965  -16.4969  -18.2218 C   0  0  0  0  0  0  0  0  0  0  0  0
   28.8541  -16.2042  -16.8934 C   0  0  0  0  0  0  0  0  0  0  0  0
   28.0592  -17.0694  -16.1473 C   0  0  0  0  0  0  0  0  0  0  0  0
   27.5055  -18.2103  -16.6923 C   0  0  0  0  0  0  0  0  0  0  0  0
   26.6764  -19.0905  -15.8718 C   0  0  0  0  0  0  0  0  0  0  0  0
   27.4964  -20.1197  -15.1321 C   0  0  2  0  0  0  0  0  0  0  0  0
   27.9744  -21.1084  -16.0760 N   0  0  0  0  0  0  0  0  0  0  0  0
   26.7225  -20.7811  -14.0872 C   0  0  0  0  0  0  0  0  0  0  0  0
   25.9922  -21.7620  -14.3739 O   0  0  0  0  0  0  0  0  0  0  0  0
   27.7475  -18.5028  -18.0186 C   0  0  0  0  0  0  0  0  0  0  0  0
   28.5431  -17.6432  -18.7781 C   0  0  0  0  0  0  0  0  0  0  0  0
   26.7282  -20.3875  -12.7103 N   0  0  0  0  0  0  0  0  0  0  0  0
   25.7405  -20.8260  -11.7518 C   0  0  1  0  0  0  0  0  0  0  0  0
   26.1825  -20.3650  -10.3854 C   0  0  0  0  0  0  0  0  0  0  0  0
   25.3190  -20.7844   -9.2853 C   0  0  0  0  0  0  0  0  0  0  0  0
   25.5226  -20.5352   -8.0793 O   0  0  0  0  0  0  0  0  0  0  0  0
   24.4025  -20.2444  -12.0179 C   0  0  0  0  0  0  0  0  0  0  0  0
   24.3379  -19.0653  -12.4481 O   0  0  0  0  0  0  0  0  0  0  0  0
   24.1654  -21.5245   -9.5708 O   0  0  0  0  0  0  0  0  0  0  0  0
   20.6236  -18.7716  -18.5595 N   0  0  0  0  0  0  0  0  0  0  0  0
   19.4342  -19.1968  -17.9056 C   0  0  0  0  0  0  0  0  0  0  0  0
   18.3240  -18.8259  -18.4086 N   0  0  0  0  0  0  0  0  0  0  0  0
   19.4510  -20.0009  -16.7409 N   0  0  0  0  0  0  0  0  0  0  0  0
   20.6810  -20.3453  -16.0924 C   0  0  0  0  0  0  0  0  0  0  0  0
   20.6949  -20.2398  -14.6171 C   0  0  0  0  0  0  0  0  0  0  0  0
   21.9224  -20.5687  -13.8707 C   0  0  0  0  0  0  0  0  0  0  0  0
   21.9099  -20.5231  -12.3967 C   0  0  2  0  0  0  0  0  0  0  0  0
   23.1933  -20.9459  -11.8133 N   0  0  0  0  0  0  0  0  0  0  0  0
   20.8558  -21.3376  -11.7974 C   0  0  0  0  0  0  0  0  0  0  0  0
   19.7362  -20.8677  -11.3936 O   0  0  0  0  0  0  0  0  0  0  0  0
   21.0167  -22.7040  -11.6333 O   0  0  0  0  0  0  0  0  0  0  0  0
  2  1  1  0
  3  2  2  0
  4  3  1  0
  5 11  1  0
  5  4  2  0
  6  5  1  0
  7  6  1  0
  7  8  1  6
  9 10  2  0
  9  7  1  0
 11 12  2  0
 12  2  1  0
 13  9  1  0
 14 13  1  0
 14 15  1  1
 16 15  1  0
 16 20  1  0
 17 16  2  0
 18 14  1  0
 19 18  2  0
 22 21  1  0
 22 23  2  0
 24 22  1  0
 25 24  1  0
 25 26  1  0
 27 26  1  0
 28 27  1  6
 28 29  1  0
 29 18  1  0
 30 28  1  0
 30 32  1  0
 31 30  2  0
M  END
$$$$
