QWS.pdb
     RDKit          3D

 30 31  0  0  1  0  0  0  0  0999 V2000
   12.3614  -18.3654   19.5306 N   0  0  0  0  0  0  0  0  0  0  0  0
   11.3222  -17.8562   18.7181 C   0  0  0  0  0  0  0  0  0  0  0  0
   11.4339  -17.8092   17.4461 O   0  0  0  0  0  0  0  0  0  0  0  0
   10.0849  -17.3723   19.3863 C   0  0  0  0  0  0  0  0  0  0  0  0
   10.2236  -17.5838   20.8649 C   0  0  0  0  0  0  0  0  0  0  0  0
    8.9517  -17.1875   21.5943 C   0  0  2  0  0  0  0  0  0  0  0  0
    8.4495  -15.9863   20.9546 N   0  0  0  0  0  0  0  0  0  0  0  0
    9.3384  -16.9304   23.0161 C   0  0  0  0  0  0  0  0  0  0  0  0
   10.1952  -16.0066   23.1763 O   0  0  0  0  0  0  0  0  0  0  0  0
    8.8231  -17.6277   24.1151 N   0  0  0  0  0  0  0  0  0  0  0  0
    9.2716  -17.3504   25.4970 C   0  0  1  0  0  0  0  0  0  0  0  0
    8.1210  -16.9451   26.3396 C   0  0  0  0  0  0  0  0  0  0  0  0
    7.3512  -15.7682   25.9260 C   0  0  0  0  0  0  0  0  0  0  0  0
    6.1626  -15.8243   25.1901 C   0  0  0  0  0  0  0  0  0  0  0  0
    5.7289  -14.5646   24.9529 N   0  0  0  0  0  0  0  0  0  0  0  0
    6.5745  -13.6861   25.4980 C   0  0  0  0  0  0  0  0  0  0  0  0
    6.5773  -12.3158   25.5496 C   0  0  0  0  0  0  0  0  0  0  0  0
    7.5971  -11.6292   26.2154 C   0  0  0  0  0  0  0  0  0  0  0  0
    8.6039  -12.3512   26.8218 C   0  0  0  0  0  0  0  0  0  0  0  0
    8.5803  -13.7277   26.7561 C   0  0  0  0  0  0  0  0  0  0  0  0
    7.5759  -14.4189   26.0991 C   0  0  0  0  0  0  0  0  0  0  0  0
   10.1197  -18.4140   25.9762 C   0  0  0  0  0  0  0  0  0  0  0  0
    9.8613  -19.6136   25.7388 O   0  0  0  0  0  0  0  0  0  0  0  0
   13.9465  -18.1002   26.7550 O   0  0  0  0  0  0  0  0  0  0  0  0
   13.3374  -19.3448   26.8564 C   0  0  0  0  0  0  0  0  0  0  0  0
   11.9336  -19.1932   27.4572 C   0  0  2  0  0  0  0  0  0  0  0  0
   11.2779  -18.1210   26.7359 N   0  0  0  0  0  0  0  0  0  0  0  0
   12.0024  -18.9123   28.9063 C   0  0  0  0  0  0  0  0  0  0  0  0
   11.5203  -17.8781   29.4242 O   0  0  0  0  0  0  0  0  0  0  0  0
   12.6225  -19.8220   29.7342 O   0  0  0  0  0  0  0  0  0  0  0  0
  2  4  1  0
  2  1  1  0
  3  2  2  0
  5  4  1  0
  6  5  1  0
  6  7  1  6
  8  9  2  0
  8  6  1  0
 10  8  1  0
 11 10  1  0
 11 12  1  1
 13 12  1  0
 13 21  1  0
 14 13  2  0
 15 14  1  0
 15 16  1  0
 16 17  1  0
 16 21  2  0
 17 18  2  0
 18 19  1  0
 20 19  2  0
 21 20  1  0
 22 23  2  0
 22 11  1  0
 24 25  1  0
 26 25  1  6
 26 27  1  0
 27 22  1  0
 28 26  1  0
 29 28  2  0
 30 28  1  0
M  END
$$$$
