QWS.pdb
     RDKit          3D

 30 31  0  0  1  0  0  0  0  0999 V2000
   12.8795  -20.5663   20.9575 N   0  0  0  0  0  0  0  0  0  0  0  0
   12.9746  -19.9979   19.6662 C   0  0  0  0  0  0  0  0  0  0  0  0
   13.4200  -20.6691   18.6744 O   0  0  0  0  0  0  0  0  0  0  0  0
   12.5396  -18.5868   19.4893 C   0  0  0  0  0  0  0  0  0  0  0  0
   12.1206  -18.0427   20.8228 C   0  0  0  0  0  0  0  0  0  0  0  0
   10.8050  -17.2914   20.7165 C   0  0  2  0  0  0  0  0  0  0  0  0
   10.9803  -16.2643   19.7073 N   0  0  0  0  0  0  0  0  0  0  0  0
   10.5437  -16.6967   22.0638 C   0  0  0  0  0  0  0  0  0  0  0  0
   11.4088  -15.8504   22.4493 O   0  0  0  0  0  0  0  0  0  0  0  0
    9.4462  -17.0175   22.8715 N   0  0  0  0  0  0  0  0  0  0  0  0
    9.3225  -16.5160   24.2574 C   0  0  1  0  0  0  0  0  0  0  0  0
    7.8969  -16.2944   24.5988 C   0  0  0  0  0  0  0  0  0  0  0  0
    7.4737  -14.9268   24.9142 C   0  0  0  0  0  0  0  0  0  0  0  0
    6.5522  -14.1943   24.1580 C   0  0  0  0  0  0  0  0  0  0  0  0
    6.4092  -12.9646   24.7045 N   0  0  0  0  0  0  0  0  0  0  0  0
    7.1911  -12.8558   25.7818 C   0  0  0  0  0  0  0  0  0  0  0  0
    7.3955  -11.8368   26.6764 C   0  0  0  0  0  0  0  0  0  0  0  0
    8.2772  -11.9960   27.7497 C   0  0  0  0  0  0  0  0  0  0  0  0
    8.9409  -13.1960   27.8973 C   0  0  0  0  0  0  0  0  0  0  0  0
    8.7200  -14.2055   26.9854 C   0  0  0  0  0  0  0  0  0  0  0  0
    7.8497  -14.0595   25.9180 C   0  0  0  0  0  0  0  0  0  0  0  0
   10.1172  -17.3156   25.1571 C   0  0  0  0  0  0  0  0  0  0  0  0
   10.1849  -18.5583   25.0411 O   0  0  0  0  0  0  0  0  0  0  0  0
   12.2215  -15.5830   28.3474 O   0  0  0  0  0  0  0  0  0  0  0  0
   12.7365  -16.6892   27.6831 C   0  0  0  0  0  0  0  0  0  0  0  0
   11.5914  -17.5435   27.1231 C   0  0  2  0  0  0  0  0  0  0  0  0
   10.8475  -16.7048   26.2050 N   0  0  0  0  0  0  0  0  0  0  0  0
   10.7315  -18.0585   28.2088 C   0  0  0  0  0  0  0  0  0  0  0  0
    9.5267  -17.7379   28.3351 O   0  0  0  0  0  0  0  0  0  0  0  0
   11.2688  -18.9312   29.1293 O   0  0  0  0  0  0  0  0  0  0  0  0
  2  4  1  0
  2  1  1  0
  3  2  2  0
  5  4  1  0
  6  5  1  0
  6  7  1  6
  8  9  2  0
  8  6  1  0
 10  8  1  0
 11 10  1  0
 11 12  1  1
 13 12  1  0
 13 21  1  0
 14 13  2  0
 15 14  1  0
 15 16  1  0
 16 17  1  0
 16 21  2  0
 17 18  2  0
 18 19  1  0
 20 19  2  0
 21 20  1  0
 22 23  2  0
 22 11  1  0
 24 25  1  0
 26 25  1  1
 26 27  1  0
 27 22  1  0
 28 26  1  0
 29 28  2  0
 30 28  1  0
M  END
$$$$
