QWS.pdb
     RDKit          3D

 30 31  0  0  1  0  0  0  0  0999 V2000
   12.7018  -20.7652   18.9725 N   0  0  0  0  0  0  0  0  0  0  0  0
   11.5132  -20.9359   18.2258 C   0  0  0  0  0  0  0  0  0  0  0  0
   11.4495  -21.7651   17.2558 O   0  0  0  0  0  0  0  0  0  0  0  0
   10.3283  -20.1191   18.6006 C   0  0  0  0  0  0  0  0  0  0  0  0
   10.6642  -19.3188   19.8240 C   0  0  0  0  0  0  0  0  0  0  0  0
    9.4102  -18.7517   20.4663 C   0  0  2  0  0  0  0  0  0  0  0  0
    8.6325  -18.1322   19.4101 N   0  0  0  0  0  0  0  0  0  0  0  0
    9.8656  -17.7448   21.4741 C   0  0  0  0  0  0  0  0  0  0  0  0
   10.7303  -16.9179   21.0477 O   0  0  0  0  0  0  0  0  0  0  0  0
    9.4034  -17.6808   22.7940 N   0  0  0  0  0  0  0  0  0  0  0  0
    9.9412  -16.7023   23.7639 C   0  0  1  0  0  0  0  0  0  0  0  0
    8.8568  -16.1968   24.6396 C   0  0  0  0  0  0  0  0  0  0  0  0
    9.1754  -15.1016   25.5602 C   0  0  0  0  0  0  0  0  0  0  0  0
    9.0323  -13.7451   25.2488 C   0  0  0  0  0  0  0  0  0  0  0  0
    9.4401  -13.0032   26.3045 N   0  0  0  0  0  0  0  0  0  0  0  0
    9.8425  -13.8068   27.2923 C   0  0  0  0  0  0  0  0  0  0  0  0
   10.3232  -13.5542   28.5516 C   0  0  0  0  0  0  0  0  0  0  0  0
   10.6616  -14.6046   29.4099 C   0  0  0  0  0  0  0  0  0  0  0  0
   10.5049  -15.9030   28.9716 C   0  0  0  0  0  0  0  0  0  0  0  0
   10.0207  -16.1324   27.7018 C   0  0  0  0  0  0  0  0  0  0  0  0
    9.6827  -15.1003   26.8424 C   0  0  0  0  0  0  0  0  0  0  0  0
   11.1337  -17.2160   24.3918 C   0  0  0  0  0  0  0  0  0  0  0  0
   11.1379  -18.3156   24.9861 O   0  0  0  0  0  0  0  0  0  0  0  0
   14.6794  -14.9937   24.5253 O   0  0  0  0  0  0  0  0  0  0  0  0
   14.7347  -16.3540   24.2483 C   0  0  0  0  0  0  0  0  0  0  0  0
   13.5442  -17.0698   24.9003 C   0  0  2  0  0  0  0  0  0  0  0  0
   12.3414  -16.4783   24.3497 N   0  0  0  0  0  0  0  0  0  0  0  0
   13.5885  -16.9438   26.3719 C   0  0  0  0  0  0  0  0  0  0  0  0
   13.5659  -17.9320   27.1421 O   0  0  0  0  0  0  0  0  0  0  0  0
   13.6578  -15.6876   26.9329 O   0  0  0  0  0  0  0  0  0  0  0  0
  2  4  1  0
  2  1  1  0
  3  2  2  0
  5  4  1  0
  6  5  1  0
  6  7  1  6
  8  9  2  0
  8  6  1  0
 10  8  1  0
 11 10  1  0
 11 12  1  1
 13 12  1  0
 13 21  1  0
 14 13  2  0
 15 14  1  0
 15 16  1  0
 16 17  1  0
 16 21  2  0
 17 18  2  0
 18 19  1  0
 20 19  2  0
 21 20  1  0
 22 23  2  0
 22 11  1  0
 24 25  1  0
 26 25  1  6
 26 27  1  0
 27 22  1  0
 28 26  1  0
 29 28  2  0
 30 28  1  0
M  END
$$$$
