QWS.pdb
     RDKit          3D

 30 31  0  0  1  0  0  0  0  0999 V2000
    9.6071  -13.5854   18.2164 N   0  0  0  0  0  0  0  0  0  0  0  0
    8.1992  -13.5951   18.0858 C   0  0  0  0  0  0  0  0  0  0  0  0
    7.6365  -13.5549   16.9393 O   0  0  0  0  0  0  0  0  0  0  0  0
    7.3818  -13.6537   19.3269 C   0  0  0  0  0  0  0  0  0  0  0  0
    8.3012  -13.8248   20.4997 C   0  0  0  0  0  0  0  0  0  0  0  0
    8.5403  -15.2952   20.7954 C   0  0  2  0  0  0  0  0  0  0  0  0
    7.2398  -15.9348   20.8587 N   0  0  0  0  0  0  0  0  0  0  0  0
    9.2453  -15.3558   22.1131 C   0  0  0  0  0  0  0  0  0  0  0  0
   10.3053  -14.6595   22.1825 O   0  0  0  0  0  0  0  0  0  0  0  0
    8.8087  -16.1068   23.2109 N   0  0  0  0  0  0  0  0  0  0  0  0
    9.6052  -16.2117   24.4527 C   0  0  1  0  0  0  0  0  0  0  0  0
    8.7191  -16.1438   25.6394 C   0  0  0  0  0  0  0  0  0  0  0  0
    7.6035  -15.1935   25.6066 C   0  0  0  0  0  0  0  0  0  0  0  0
    6.2913  -15.5322   25.2587 C   0  0  0  0  0  0  0  0  0  0  0  0
    5.5210  -14.4205   25.3016 N   0  0  0  0  0  0  0  0  0  0  0  0
    6.2638  -13.3704   25.6612 C   0  0  0  0  0  0  0  0  0  0  0  0
    5.9600  -12.0478   25.8593 C   0  0  0  0  0  0  0  0  0  0  0  0
    6.9464  -11.1418   26.2602 C   0  0  0  0  0  0  0  0  0  0  0  0
    8.2336  -11.5975   26.4545 C   0  0  0  0  0  0  0  0  0  0  0  0
    8.5153  -12.9308   26.2487 C   0  0  0  0  0  0  0  0  0  0  0  0
    7.5470  -13.8376   25.8511 C   0  0  0  0  0  0  0  0  0  0  0  0
   10.5356  -17.3103   24.3651 C   0  0  0  0  0  0  0  0  0  0  0  0
   10.1864  -18.4299   23.9328 O   0  0  0  0  0  0  0  0  0  0  0  0
   14.6467  -16.8876   24.7809 O   0  0  0  0  0  0  0  0  0  0  0  0
   14.0481  -17.9910   24.1856 C   0  0  0  0  0  0  0  0  0  0  0  0
   12.7264  -18.3156   24.8944 C   0  0  2  0  0  0  0  0  0  0  0  0
   11.8816  -17.1447   24.7717 N   0  0  0  0  0  0  0  0  0  0  0  0
   12.9557  -18.6757   26.3091 C   0  0  0  0  0  0  0  0  0  0  0  0
   12.4598  -18.0351   27.2651 O   0  0  0  0  0  0  0  0  0  0  0  0
   13.7491  -19.7633   26.6012 O   0  0  0  0  0  0  0  0  0  0  0  0
  2  4  1  0
  2  1  1  0
  3  2  2  0
  5  4  1  0
  6  5  1  0
  6  7  1  1
  8  9  2  0
  8  6  1  0
 10  8  1  0
 11 10  1  0
 11 12  1  1
 13 12  1  0
 13 21  1  0
 14 13  2  0
 15 14  1  0
 15 16  1  0
 16 17  1  0
 16 21  2  0
 17 18  2  0
 18 19  1  0
 20 19  2  0
 21 20  1  0
 22 23  2  0
 22 11  1  0
 24 25  1  0
 26 25  1  1
 26 27  1  0
 27 22  1  0
 28 26  1  0
 29 28  2  0
 30 28  1  0
M  END
$$$$
