QWS.pdb
     RDKit          3D

 30 31  0  0  1  0  0  0  0  0999 V2000
    9.6127  -13.4427   18.7357 N   0  0  0  0  0  0  0  0  0  0  0  0
    8.2368  -13.6589   18.4916 C   0  0  0  0  0  0  0  0  0  0  0  0
    7.7731  -13.7204   17.3026 O   0  0  0  0  0  0  0  0  0  0  0  0
    7.3344  -13.8143   19.6635 C   0  0  0  0  0  0  0  0  0  0  0  0
    8.1693  -13.8695   20.9085 C   0  0  0  0  0  0  0  0  0  0  0  0
    8.7176  -15.2674   21.1360 C   0  0  2  0  0  0  0  0  0  0  0  0
    7.5916  -16.1806   21.0879 N   0  0  0  0  0  0  0  0  0  0  0  0
    9.3589  -15.2589   22.4873 C   0  0  0  0  0  0  0  0  0  0  0  0
   10.2001  -14.3253   22.6718 O   0  0  0  0  0  0  0  0  0  0  0  0
    9.0849  -16.1863   23.4995 N   0  0  0  0  0  0  0  0  0  0  0  0
    9.7964  -16.1615   24.7958 C   0  0  1  0  0  0  0  0  0  0  0  0
    8.8257  -16.1943   25.9160 C   0  0  0  0  0  0  0  0  0  0  0  0
    7.6924  -15.2660   25.8666 C   0  0  0  0  0  0  0  0  0  0  0  0
    6.3874  -15.6350   25.5227 C   0  0  0  0  0  0  0  0  0  0  0  0
    5.5961  -14.5376   25.5467 N   0  0  0  0  0  0  0  0  0  0  0  0
    6.3184  -13.4679   25.8901 C   0  0  0  0  0  0  0  0  0  0  0  0
    5.9894  -12.1483   26.0663 C   0  0  0  0  0  0  0  0  0  0  0  0
    6.9579  -11.2174   26.4536 C   0  0  0  0  0  0  0  0  0  0  0  0
    8.2532  -11.6454   26.6568 C   0  0  0  0  0  0  0  0  0  0  0  0
    8.5603  -12.9763   26.4730 C   0  0  0  0  0  0  0  0  0  0  0  0
    7.6100  -13.9076   26.0890 C   0  0  0  0  0  0  0  0  0  0  0  0
   10.8694  -17.1253   24.8021 C   0  0  0  0  0  0  0  0  0  0  0  0
   11.4701  -17.4282   25.8555 O   0  0  0  0  0  0  0  0  0  0  0  0
   12.3391  -18.6994   21.2437 O   0  0  0  0  0  0  0  0  0  0  0  0
   12.2972  -19.5326   22.3547 C   0  0  0  0  0  0  0  0  0  0  0  0
   12.3756  -18.6968   23.6391 C   0  0  2  0  0  0  0  0  0  0  0  0
   11.2724  -17.7580   23.6013 N   0  0  0  0  0  0  0  0  0  0  0  0
   13.6766  -18.0041   23.7448 C   0  0  0  0  0  0  0  0  0  0  0  0
   13.7903  -16.7567   23.7079 O   0  0  0  0  0  0  0  0  0  0  0  0
   14.8227  -18.7543   23.8907 O   0  0  0  0  0  0  0  0  0  0  0  0
  2  4  1  0
  2  1  1  0
  3  2  2  0
  5  4  1  0
  6  5  1  0
  6  7  1  1
  8  9  2  0
  8  6  1  0
 10  8  1  0
 11 10  1  0
 11 12  1  1
 13 12  1  0
 13 21  1  0
 14 13  2  0
 15 14  1  0
 15 16  1  0
 16 17  1  0
 16 21  2  0
 17 18  2  0
 18 19  1  0
 20 19  2  0
 21 20  1  0
 22 23  2  0
 22 11  1  0
 24 25  1  0
 26 25  1  6
 26 27  1  0
 27 22  1  0
 28 26  1  0
 29 28  2  0
 30 28  1  0
M  END
$$$$
