QWS.pdb
     RDKit          3D

 30 31  0  0  1  0  0  0  0  0999 V2000
   11.0673  -20.9755   19.6078 N   0  0  0  0  0  0  0  0  0  0  0  0
   10.3635  -20.8027   18.3937 C   0  0  0  0  0  0  0  0  0  0  0  0
   10.2909  -21.7388   17.5271 O   0  0  0  0  0  0  0  0  0  0  0  0
    9.7038  -19.4927   18.1477 C   0  0  0  0  0  0  0  0  0  0  0  0
    9.8707  -18.6347   19.3668 C   0  0  0  0  0  0  0  0  0  0  0  0
    9.0893  -17.3393   19.2332 C   0  0  2  0  0  0  0  0  0  0  0  0
    9.7180  -16.5685   18.1774 N   0  0  0  0  0  0  0  0  0  0  0  0
    9.1891  -16.6433   20.5534 C   0  0  0  0  0  0  0  0  0  0  0  0
   10.3365  -16.1680   20.8195 O   0  0  0  0  0  0  0  0  0  0  0  0
    8.1287  -16.5029   21.4565 N   0  0  0  0  0  0  0  0  0  0  0  0
    8.3171  -15.9056   22.7964 C   0  0  1  0  0  0  0  0  0  0  0  0
    7.0300  -15.3789   23.3102 C   0  0  0  0  0  0  0  0  0  0  0  0
    6.9759  -14.9529   24.7118 C   0  0  0  0  0  0  0  0  0  0  0  0
    6.7163  -15.8113   25.7856 C   0  0  0  0  0  0  0  0  0  0  0  0
    6.7092  -15.0948   26.9335 N   0  0  0  0  0  0  0  0  0  0  0  0
    6.9520  -13.8093   26.6645 C   0  0  0  0  0  0  0  0  0  0  0  0
    7.0616  -12.7020   27.4661 C   0  0  0  0  0  0  0  0  0  0  0  0
    7.3453  -11.4485   26.9159 C   0  0  0  0  0  0  0  0  0  0  0  0
    7.5143  -11.3400   25.5513 C   0  0  0  0  0  0  0  0  0  0  0  0
    7.3989  -12.4666   24.7658 C   0  0  0  0  0  0  0  0  0  0  0  0
    7.1176  -13.7134   25.2991 C   0  0  0  0  0  0  0  0  0  0  0  0
    9.0710  -16.7953   23.6450 C   0  0  0  0  0  0  0  0  0  0  0  0
    8.7436  -17.9926   23.7918 O   0  0  0  0  0  0  0  0  0  0  0  0
   12.8019  -15.7580   24.8337 O   0  0  0  0  0  0  0  0  0  0  0  0
   12.4404  -17.0985   24.7839 C   0  0  0  0  0  0  0  0  0  0  0  0
   10.9618  -17.2564   25.1625 C   0  0  2  0  0  0  0  0  0  0  0  0
   10.2126  -16.3281   24.3399 N   0  0  0  0  0  0  0  0  0  0  0  0
   10.7509  -17.0004   26.6025 C   0  0  0  0  0  0  0  0  0  0  0  0
   10.0082  -16.0868   27.0314 O   0  0  0  0  0  0  0  0  0  0  0  0
   11.3955  -17.7964   27.5237 O   0  0  0  0  0  0  0  0  0  0  0  0
  2  4  1  0
  2  1  1  0
  3  2  2  0
  5  4  1  0
  6  5  1  0
  6  7  1  6
  8  9  2  0
  8  6  1  0
 10  8  1  0
 11 10  1  0
 11 12  1  1
 13 12  1  0
 13 21  1  0
 14 13  2  0
 15 14  1  0
 15 16  1  0
 16 17  1  0
 16 21  2  0
 17 18  2  0
 18 19  1  0
 20 19  2  0
 21 20  1  0
 22 23  2  0
 22 11  1  0
 24 25  1  0
 26 25  1  1
 26 27  1  0
 27 22  1  0
 28 26  1  0
 29 28  2  0
 30 28  1  0
M  END
$$$$
