QWS.pdb
     RDKit          3D

 30 31  0  0  1  0  0  0  0  0999 V2000
    8.7950  -12.4306   18.4600 N   0  0  0  0  0  0  0  0  0  0  0  0
    7.8328  -13.3402   17.9638 C   0  0  0  0  0  0  0  0  0  0  0  0
    7.3946  -13.2584   16.7663 O   0  0  0  0  0  0  0  0  0  0  0  0
    7.3390  -14.4041   18.8781 C   0  0  0  0  0  0  0  0  0  0  0  0
    8.0794  -14.3014   20.1786 C   0  0  0  0  0  0  0  0  0  0  0  0
    8.5750  -15.6631   20.6332 C   0  0  2  0  0  0  0  0  0  0  0  0
    7.4077  -16.5074   20.8029 N   0  0  0  0  0  0  0  0  0  0  0  0
    9.2874  -15.4461   21.9303 C   0  0  0  0  0  0  0  0  0  0  0  0
   10.2480  -14.6168   21.8780 O   0  0  0  0  0  0  0  0  0  0  0  0
    8.9570  -16.0844   23.1315 N   0  0  0  0  0  0  0  0  0  0  0  0
    9.8259  -16.0015   24.3255 C   0  0  1  0  0  0  0  0  0  0  0  0
    9.0080  -16.0488   25.5612 C   0  0  0  0  0  0  0  0  0  0  0  0
    7.8104  -15.2057   25.6215 C   0  0  0  0  0  0  0  0  0  0  0  0
    6.5126  -15.6630   25.3690 C   0  0  0  0  0  0  0  0  0  0  0  0
    5.6487  -14.6274   25.4807 N   0  0  0  0  0  0  0  0  0  0  0  0
    6.3167  -13.5144   25.7948 C   0  0  0  0  0  0  0  0  0  0  0  0
    5.9084  -12.2263   26.0287 C   0  0  0  0  0  0  0  0  0  0  0  0
    6.8346  -11.2343   26.3643 C   0  0  0  0  0  0  0  0  0  0  0  0
    8.1692  -11.5697   26.4574 C   0  0  0  0  0  0  0  0  0  0  0  0
    8.5560  -12.8705   26.2173 C   0  0  0  0  0  0  0  0  0  0  0  0
    7.6481  -13.8617   25.8836 C   0  0  0  0  0  0  0  0  0  0  0  0
   10.9317  -16.9203   24.2107 C   0  0  0  0  0  0  0  0  0  0  0  0
   10.7585  -18.1144   23.8845 O   0  0  0  0  0  0  0  0  0  0  0  0
   14.8764  -15.6818   24.8782 O   0  0  0  0  0  0  0  0  0  0  0  0
   14.5946  -16.7139   23.9919 C   0  0  0  0  0  0  0  0  0  0  0  0
   13.3295  -17.4579   24.4397 C   0  0  2  0  0  0  0  0  0  0  0  0
   12.2547  -16.4864   24.4679 N   0  0  0  0  0  0  0  0  0  0  0  0
   13.5246  -18.0925   25.7598 C   0  0  0  0  0  0  0  0  0  0  0  0
   12.8259  -17.8119   26.7615 O   0  0  0  0  0  0  0  0  0  0  0  0
   14.5168  -19.0367   25.9069 O   0  0  0  0  0  0  0  0  0  0  0  0
  2  4  1  0
  2  1  1  0
  3  2  2  0
  5  4  1  0
  6  5  1  0
  6  7  1  1
  8  9  2  0
  8  6  1  0
 10  8  1  0
 11 10  1  0
 11 12  1  1
 13 12  1  0
 13 21  1  0
 14 13  2  0
 15 14  1  0
 15 16  1  0
 16 17  1  0
 16 21  2  0
 17 18  2  0
 18 19  1  0
 20 19  2  0
 21 20  1  0
 22 23  2  0
 22 11  1  0
 24 25  1  0
 26 25  1  1
 26 27  1  0
 27 22  1  0
 28 26  1  0
 29 28  2  0
 30 28  1  0
M  END
$$$$
