QWS.pdb
     RDKit          3D

 30 31  0  0  1  0  0  0  0  0999 V2000
    8.8088  -12.3548   19.3519 N   0  0  0  0  0  0  0  0  0  0  0  0
    8.1758  -13.3282   18.5449 C   0  0  0  0  0  0  0  0  0  0  0  0
    7.6944  -13.0323   17.3989 O   0  0  0  0  0  0  0  0  0  0  0  0
    8.0832  -14.7174   19.0675 C   0  0  0  0  0  0  0  0  0  0  0  0
    8.6238  -14.7412   20.4665 C   0  0  0  0  0  0  0  0  0  0  0  0
    8.8333  -16.1669   20.9462 C   0  0  2  0  0  0  0  0  0  0  0  0
    7.5454  -16.8315   20.8848 N   0  0  0  0  0  0  0  0  0  0  0  0
    9.3354  -16.0740   22.3521 C   0  0  0  0  0  0  0  0  0  0  0  0
   10.3858  -15.3748   22.4974 O   0  0  0  0  0  0  0  0  0  0  0  0
    8.7287  -16.6920   23.4519 N   0  0  0  0  0  0  0  0  0  0  0  0
    9.3353  -16.6582   24.8004 C   0  0  1  0  0  0  0  0  0  0  0  0
    8.2885  -16.4536   25.8302 C   0  0  0  0  0  0  0  0  0  0  0  0
    7.3556  -15.3382   25.6453 C   0  0  0  0  0  0  0  0  0  0  0  0
    6.0660  -15.4699   25.1190 C   0  0  0  0  0  0  0  0  0  0  0  0
    5.4863  -14.2487   25.0569 N   0  0  0  0  0  0  0  0  0  0  0  0
    6.3325  -13.3236   25.5173 C   0  0  0  0  0  0  0  0  0  0  0  0
    6.2216  -11.9657   25.6736 C   0  0  0  0  0  0  0  0  0  0  0  0
    7.2770  -11.2208   26.2083 C   0  0  0  0  0  0  0  0  0  0  0  0
    8.4353  -11.8723   26.5778 C   0  0  0  0  0  0  0  0  0  0  0  0
    8.5238  -13.2374   26.4107 C   0  0  0  0  0  0  0  0  0  0  0  0
    7.4856  -13.9859   25.8818 C   0  0  0  0  0  0  0  0  0  0  0  0
   10.2469  -17.7625   24.9725 C   0  0  0  0  0  0  0  0  0  0  0  0
   10.0108  -18.8878   24.4823 O   0  0  0  0  0  0  0  0  0  0  0  0
   14.1815  -17.5412   25.8178 O   0  0  0  0  0  0  0  0  0  0  0  0
   13.5447  -18.7379   25.5134 C   0  0  0  0  0  0  0  0  0  0  0  0
   12.1563  -18.7729   26.1658 C   0  0  2  0  0  0  0  0  0  0  0  0
   11.4443  -17.5962   25.7094 N   0  0  0  0  0  0  0  0  0  0  0  0
   12.2615  -18.8083   27.6393 C   0  0  0  0  0  0  0  0  0  0  0  0
   12.8730  -19.7102   28.2581 O   0  0  0  0  0  0  0  0  0  0  0  0
   11.6637  -17.8093   28.3757 O   0  0  0  0  0  0  0  0  0  0  0  0
  2  4  1  0
  2  1  1  0
  3  2  2  0
  5  4  1  0
  6  5  1  0
  6  7  1  1
  8  9  2  0
  8  6  1  0
 10  8  1  0
 11 10  1  0
 11 12  1  1
 13 12  1  0
 13 21  1  0
 14 13  2  0
 15 14  1  0
 15 16  1  0
 16 17  1  0
 16 21  2  0
 17 18  2  0
 18 19  1  0
 20 19  2  0
 21 20  1  0
 22 23  2  0
 22 11  1  0
 24 25  1  0
 26 25  1  6
 26 27  1  0
 27 22  1  0
 28 26  1  0
 29 28  2  0
 30 28  1  0
M  END
$$$$
