QWS.pdb
     RDKit          3D

 30 31  0  0  1  0  0  0  0  0999 V2000
    9.7577  -14.6135   17.6929 N   0  0  0  0  0  0  0  0  0  0  0  0
    8.3682  -14.6745   17.4382 C   0  0  0  0  0  0  0  0  0  0  0  0
    7.9155  -14.8836   16.2618 O   0  0  0  0  0  0  0  0  0  0  0  0
    7.4381  -14.4875   18.5835 C   0  0  0  0  0  0  0  0  0  0  0  0
    8.2433  -14.3939   19.8456 C   0  0  0  0  0  0  0  0  0  0  0  0
    8.0963  -15.6536   20.6812 C   0  0  2  0  0  0  0  0  0  0  0  0
    6.6798  -15.8333   20.9368 N   0  0  0  0  0  0  0  0  0  0  0  0
    8.8558  -15.4160   21.9476 C   0  0  0  0  0  0  0  0  0  0  0  0
    9.5881  -14.3782   21.9428 O   0  0  0  0  0  0  0  0  0  0  0  0
    8.7955  -16.2446   23.0743 N   0  0  0  0  0  0  0  0  0  0  0  0
    9.7488  -16.1083   24.1968 C   0  0  1  0  0  0  0  0  0  0  0  0
    9.0280  -16.1500   25.4917 C   0  0  0  0  0  0  0  0  0  0  0  0
    7.8330  -15.3135   25.6367 C   0  0  0  0  0  0  0  0  0  0  0  0
    6.5233  -15.7771   25.4722 C   0  0  0  0  0  0  0  0  0  0  0  0
    5.6638  -14.7465   25.6462 N   0  0  0  0  0  0  0  0  0  0  0  0
    6.3460  -13.6308   25.9175 C   0  0  0  0  0  0  0  0  0  0  0  0
    5.9479  -12.3456   26.1830 C   0  0  0  0  0  0  0  0  0  0  0  0
    6.8899  -11.3496   26.4576 C   0  0  0  0  0  0  0  0  0  0  0  0
    8.2295  -11.6781   26.4579 C   0  0  0  0  0  0  0  0  0  0  0  0
    8.6056  -12.9761   26.1877 C   0  0  0  0  0  0  0  0  0  0  0  0
    7.6821  -13.9712   25.9137 C   0  0  0  0  0  0  0  0  0  0  0  0
   10.8706  -16.9970   24.0181 C   0  0  0  0  0  0  0  0  0  0  0  0
   10.7097  -18.2148   23.7872 O   0  0  0  0  0  0  0  0  0  0  0  0
   14.7586  -15.5718   23.5960 O   0  0  0  0  0  0  0  0  0  0  0  0
   14.3320  -16.7732   23.0438 C   0  0  0  0  0  0  0  0  0  0  0  0
   13.2987  -17.4352   23.9650 C   0  0  2  0  0  0  0  0  0  0  0  0
   12.1957  -16.5054   24.1012 N   0  0  0  0  0  0  0  0  0  0  0  0
   13.8925  -17.7714   25.2757 C   0  0  0  0  0  0  0  0  0  0  0  0
   14.9062  -18.4975   25.3993 O   0  0  0  0  0  0  0  0  0  0  0  0
   13.3130  -17.2689   26.4200 O   0  0  0  0  0  0  0  0  0  0  0  0
  2  4  1  0
  2  1  1  0
  3  2  2  0
  5  4  1  0
  6  5  1  0
  6  7  1  1
  8  9  2  0
  8  6  1  0
 10  8  1  0
 11 10  1  0
 11 12  1  1
 13 12  1  0
 13 21  1  0
 14 13  2  0
 15 14  1  0
 15 16  1  0
 16 17  1  0
 16 21  2  0
 17 18  2  0
 18 19  1  0
 20 19  2  0
 21 20  1  0
 22 23  2  0
 22 11  1  0
 24 25  1  0
 26 25  1  6
 26 27  1  0
 27 22  1  0
 28 26  1  0
 29 28  2  0
 30 28  1  0
M  END
$$$$
