QWS.pdb
     RDKit          3D

 30 31  0  0  1  0  0  0  0  0999 V2000
   13.7442  -16.1285   16.8102 N   0  0  0  0  0  0  0  0  0  0  0  0
   12.9142  -17.2695   16.9030 C   0  0  0  0  0  0  0  0  0  0  0  0
   13.3995  -18.4509   16.8637 O   0  0  0  0  0  0  0  0  0  0  0  0
   11.4492  -17.0589   17.0487 C   0  0  0  0  0  0  0  0  0  0  0  0
   11.1815  -16.4654   18.4000 C   0  0  0  0  0  0  0  0  0  0  0  0
   10.3518  -17.4073   19.2549 C   0  0  2  0  0  0  0  0  0  0  0  0
    9.0883  -17.6042   18.5700 N   0  0  0  0  0  0  0  0  0  0  0  0
   10.1600  -16.7286   20.5738 C   0  0  0  0  0  0  0  0  0  0  0  0
   11.2349  -16.4484   21.1899 O   0  0  0  0  0  0  0  0  0  0  0  0
    8.9141  -16.4080   21.1256 N   0  0  0  0  0  0  0  0  0  0  0  0
    8.7783  -15.9046   22.5096 C   0  0  1  0  0  0  0  0  0  0  0  0
    7.4316  -15.3191   22.7142 C   0  0  0  0  0  0  0  0  0  0  0  0
    7.0791  -14.8691   24.0640 C   0  0  0  0  0  0  0  0  0  0  0  0
    6.4739  -15.6796   25.0306 C   0  0  0  0  0  0  0  0  0  0  0  0
    6.2598  -14.9494   26.1495 N   0  0  0  0  0  0  0  0  0  0  0  0
    6.6955  -13.7006   25.9637 C   0  0  0  0  0  0  0  0  0  0  0  0
    6.7203  -12.5993   26.7804 C   0  0  0  0  0  0  0  0  0  0  0  0
    7.2614  -11.3907   26.3318 C   0  0  0  0  0  0  0  0  0  0  0  0
    7.7719  -11.3208   25.0523 C   0  0  0  0  0  0  0  0  0  0  0  0
    7.7355  -12.4405   24.2496 C   0  0  0  0  0  0  0  0  0  0  0  0
    7.2016  -13.6428   24.6824 C   0  0  0  0  0  0  0  0  0  0  0  0
    9.2367  -16.8931   23.4544 C   0  0  0  0  0  0  0  0  0  0  0  0
    8.8521  -18.0810   23.3963 O   0  0  0  0  0  0  0  0  0  0  0  0
   12.7432  -16.6291   25.3822 O   0  0  0  0  0  0  0  0  0  0  0  0
   12.0245  -17.8109   25.2520 C   0  0  0  0  0  0  0  0  0  0  0  0
   10.5282  -17.5389   25.4559 C   0  0  2  0  0  0  0  0  0  0  0  0
   10.1435  -16.5373   24.4819 N   0  0  0  0  0  0  0  0  0  0  0  0
   10.2522  -17.0902   26.8365 C   0  0  0  0  0  0  0  0  0  0  0  0
    9.7677  -15.9661   27.1044 O   0  0  0  0  0  0  0  0  0  0  0  0
   10.5367  -17.9385   27.8838 O   0  0  0  0  0  0  0  0  0  0  0  0
  2  4  1  0
  2  1  1  0
  3  2  2  0
  5  4  1  0
  6  5  1  0
  6  7  1  6
  8  9  2  0
  8  6  1  0
 10  8  1  0
 11 10  1  0
 11 12  1  1
 13 12  1  0
 13 21  1  0
 14 13  2  0
 15 14  1  0
 15 16  1  0
 16 17  1  0
 16 21  2  0
 17 18  2  0
 18 19  1  0
 20 19  2  0
 21 20  1  0
 22 23  2  0
 22 11  1  0
 24 25  1  0
 26 25  1  1
 26 27  1  0
 27 22  1  0
 28 26  1  0
 29 28  2  0
 30 28  1  0
M  END
$$$$
