NWP.pdb
     RDKit          3D

 30 32  0  0  1  0  0  0  0  0999 V2000
   11.7378  -17.7478   19.2240 N   0  0  0  0  0  0  0  0  0  0  0  0
   11.1454  -16.4617   19.2655 C   0  0  0  0  0  0  0  0  0  0  0  0
   11.1376  -15.8204   18.1776 O   0  0  0  0  0  0  0  0  0  0  0  0
   10.5639  -15.8782   20.4905 C   0  0  0  0  0  0  0  0  0  0  0  0
   10.6265  -16.8343   21.6275 C   0  0  2  0  0  0  0  0  0  0  0  0
    9.7917  -17.9884   21.4111 N   0  0  0  0  0  0  0  0  0  0  0  0
   10.4034  -16.1839   22.9515 C   0  0  0  0  0  0  0  0  0  0  0  0
   11.0680  -15.1346   23.2451 O   0  0  0  0  0  0  0  0  0  0  0  0
    9.5035  -16.6348   23.9316 N   0  0  0  0  0  0  0  0  0  0  0  0
    9.3859  -15.9400   25.2629 C   0  0  1  0  0  0  0  0  0  0  0  0
    7.9760  -16.2602   25.6615 C   0  0  0  0  0  0  0  0  0  0  0  0
    6.9256  -15.3245   25.3664 C   0  0  0  0  0  0  0  0  0  0  0  0
    5.6748  -15.6394   24.8390 C   0  0  0  0  0  0  0  0  0  0  0  0
    4.9534  -14.4929   24.6826 N   0  0  0  0  0  0  0  0  0  0  0  0
    5.6953  -13.4459   25.0914 C   0  0  0  0  0  0  0  0  0  0  0  0
    5.4265  -12.0938   25.1345 C   0  0  0  0  0  0  0  0  0  0  0  0
    6.3836  -11.2218   25.6066 C   0  0  0  0  0  0  0  0  0  0  0  0
    7.6070  -11.6884   26.0361 C   0  0  0  0  0  0  0  0  0  0  0  0
    7.8354  -13.0414   25.9770 C   0  0  0  0  0  0  0  0  0  0  0  0
    6.9215  -13.9567   25.5172 C   0  0  0  0  0  0  0  0  0  0  0  0
   10.4307  -16.4233   26.1471 C   0  0  0  0  0  0  0  0  0  0  0  0
   11.3255  -17.1855   25.6615 O   0  0  0  0  0  0  0  0  0  0  0  0
   10.5137  -16.0947   27.5045 N   0  0  0  0  0  0  0  0  0  0  0  0
    9.6126  -15.3431   28.3600 C   0  0  0  0  0  0  0  0  0  0  0  0
   10.5068  -14.5203   29.2715 C   0  0  0  0  0  0  0  0  0  0  0  0
   11.8166  -15.2478   29.2729 C   0  0  0  0  0  0  0  0  0  0  0  0
   11.6315  -16.4705   28.3968 C   0  0  1  0  0  0  0  0  0  0  0  0
   11.3105  -17.6260   29.2406 C   0  0  0  0  0  0  0  0  0  0  0  0
   12.2890  -18.1072   30.0976 O   0  0  0  0  0  0  0  0  0  0  0  0
   10.2030  -18.2193   29.2457 O   0  0  0  0  0  0  0  0  0  0  0  0
  2  3  2  0
  2  1  1  0
  4  2  1  0
  5  4  1  0
  5  6  1  6
  7  5  1  0
  7  8  2  0
  9  7  1  0
 10  9  1  0
 10 11  1  1
 11 12  1  0
 12 13  2  0
 12 20  1  0
 13 14  1  0
 14 15  1  0
 15 16  2  0
 16 17  1  0
 18 17  2  0
 19 18  1  0
 20 19  2  0
 20 15  1  0
 21 10  1  0
 22 21  2  0
 23 24  1  0
 23 21  1  0
 25 24  1  0
 26 27  1  0
 26 25  1  0
 27 23  1  0
 28 29  1  0
 27 28  1  1
 30 28  2  0
M  END
$$$$
