NWP.pdb
     RDKit          3D

 30 32  0  0  1  0  0  0  0  0999 V2000
   12.6450  -16.7283   17.6660 N   0  0  0  0  0  0  0  0  0  0  0  0
   13.1521  -16.5546   18.9772 C   0  0  0  0  0  0  0  0  0  0  0  0
   14.2935  -17.0473   19.1993 O   0  0  0  0  0  0  0  0  0  0  0  0
   12.4154  -15.8454   20.0419 C   0  0  0  0  0  0  0  0  0  0  0  0
   11.9255  -16.7889   21.0815 C   0  0  2  0  0  0  0  0  0  0  0  0
   11.0185  -17.7684   20.5396 N   0  0  0  0  0  0  0  0  0  0  0  0
   11.3951  -16.0997   22.2937 C   0  0  0  0  0  0  0  0  0  0  0  0
   12.1050  -15.1988   22.8534 O   0  0  0  0  0  0  0  0  0  0  0  0
   10.1507  -16.3602   22.8915 N   0  0  0  0  0  0  0  0  0  0  0  0
    9.6946  -15.5996   24.1090 C   0  0  1  0  0  0  0  0  0  0  0  0
    8.2189  -15.4793   23.8703 C   0  0  0  0  0  0  0  0  0  0  0  0
    7.3736  -14.9513   24.9061 C   0  0  0  0  0  0  0  0  0  0  0  0
    6.6106  -15.7005   25.7996 C   0  0  0  0  0  0  0  0  0  0  0  0
    5.9300  -14.8552   26.6251 N   0  0  0  0  0  0  0  0  0  0  0  0
    6.2270  -13.5835   26.2962 C   0  0  0  0  0  0  0  0  0  0  0  0
    5.8044  -12.3792   26.8192 C   0  0  0  0  0  0  0  0  0  0  0  0
    6.2724  -11.1994   26.2823 C   0  0  0  0  0  0  0  0  0  0  0  0
    7.1589  -11.2118   25.2274 C   0  0  0  0  0  0  0  0  0  0  0  0
    7.5552  -12.4312   24.7353 C   0  0  0  0  0  0  0  0  0  0  0  0
    7.1234  -13.6372   25.2288 C   0  0  0  0  0  0  0  0  0  0  0  0
   10.0973  -16.3226   25.3016 C   0  0  0  0  0  0  0  0  0  0  0  0
   10.5336  -17.5096   25.1674 O   0  0  0  0  0  0  0  0  0  0  0  0
   10.0379  -15.7866   26.5926 N   0  0  0  0  0  0  0  0  0  0  0  0
    9.3541  -14.6133   27.1069 C   0  0  0  0  0  0  0  0  0  0  0  0
   10.3039  -13.9995   28.1211 C   0  0  0  0  0  0  0  0  0  0  0  0
   11.1995  -15.1283   28.5315 C   0  0  0  0  0  0  0  0  0  0  0  0
   10.7256  -16.3521   27.7734 C   0  0  1  0  0  0  0  0  0  0  0  0
    9.8232  -17.1308   28.6276 C   0  0  0  0  0  0  0  0  0  0  0  0
   10.3474  -17.7344   29.7608 O   0  0  0  0  0  0  0  0  0  0  0  0
    8.5970  -17.2937   28.4074 O   0  0  0  0  0  0  0  0  0  0  0  0
  2  3  2  0
  2  1  1  0
  4  2  1  0
  5  4  1  0
  5  6  1  6
  7  5  1  0
  7  8  2  0
  9  7  1  0
 10  9  1  0
 10 11  1  6
 11 12  1  0
 12 13  2  0
 12 20  1  0
 13 14  1  0
 14 15  1  0
 15 16  2  0
 16 17  1  0
 18 17  2  0
 19 18  1  0
 20 19  2  0
 20 15  1  0
 21 10  1  0
 22 21  2  0
 23 24  1  0
 23 21  1  0
 25 24  1  0
 26 27  1  0
 26 25  1  0
 27 23  1  0
 28 29  1  0
 27 28  1  1
 30 28  2  0
M  END
$$$$
