NWP.pdb
     RDKit          3D

 30 32  0  0  1  0  0  0  0  0999 V2000
   11.6273  -18.4243   19.0911 N   0  0  0  0  0  0  0  0  0  0  0  0
   12.3983  -18.4795   20.2782 C   0  0  0  0  0  0  0  0  0  0  0  0
   13.3750  -19.2800   20.2674 O   0  0  0  0  0  0  0  0  0  0  0  0
   12.1036  -17.6636   21.4726 C   0  0  0  0  0  0  0  0  0  0  0  0
   10.8318  -16.9100   21.3127 C   0  0  2  0  0  0  0  0  0  0  0  0
   10.8434  -16.0706   20.1418 N   0  0  0  0  0  0  0  0  0  0  0  0
   10.4193  -16.1891   22.5520 C   0  0  0  0  0  0  0  0  0  0  0  0
   10.8697  -15.0138   22.7630 O   0  0  0  0  0  0  0  0  0  0  0  0
    9.5563  -16.7014   23.5352 N   0  0  0  0  0  0  0  0  0  0  0  0
    9.3162  -15.9625   24.8256 C   0  0  1  0  0  0  0  0  0  0  0  0
    7.9318  -16.4087   25.1909 C   0  0  0  0  0  0  0  0  0  0  0  0
    6.9164  -15.4261   25.4547 C   0  0  0  0  0  0  0  0  0  0  0  0
    5.5613  -15.6840   25.6522 C   0  0  0  0  0  0  0  0  0  0  0  0
    4.9074  -14.5057   25.8610 N   0  0  0  0  0  0  0  0  0  0  0  0
    5.7939  -13.4935   25.8056 C   0  0  0  0  0  0  0  0  0  0  0  0
    5.6384  -12.1305   25.9481 C   0  0  0  0  0  0  0  0  0  0  0  0
    6.7351  -11.3028   25.8405 C   0  0  0  0  0  0  0  0  0  0  0  0
    7.9859  -11.8246   25.5919 C   0  0  0  0  0  0  0  0  0  0  0  0
    8.0987  -13.1867   25.4564 C   0  0  0  0  0  0  0  0  0  0  0  0
    7.0436  -14.0595   25.5533 C   0  0  0  0  0  0  0  0  0  0  0  0
   10.3693  -16.2939   25.7681 C   0  0  0  0  0  0  0  0  0  0  0  0
   11.2905  -17.0841   25.3880 O   0  0  0  0  0  0  0  0  0  0  0  0
   10.4328  -15.7897   27.0715 N   0  0  0  0  0  0  0  0  0  0  0  0
    9.6415  -14.7713   27.7391 C   0  0  0  0  0  0  0  0  0  0  0  0
   10.6201  -13.9972   28.6055 C   0  0  0  0  0  0  0  0  0  0  0  0
   11.7658  -14.9395   28.8158 C   0  0  0  0  0  0  0  0  0  0  0  0
   11.4044  -16.2245   28.0981 C   0  0  1  0  0  0  0  0  0  0  0  0
   10.8209  -17.1670   29.0581 C   0  0  0  0  0  0  0  0  0  0  0  0
   11.6603  -17.7658   29.9855 O   0  0  0  0  0  0  0  0  0  0  0  0
    9.6039  -17.4759   29.1040 O   0  0  0  0  0  0  0  0  0  0  0  0
  2  3  2  0
  2  1  1  0
  4  2  1  0
  5  4  1  0
  5  6  1  6
  7  5  1  0
  7  8  2  0
  9  7  1  0
 10  9  1  0
 10 11  1  1
 11 12  1  0
 12 13  2  0
 12 20  1  0
 13 14  1  0
 14 15  1  0
 15 16  2  0
 16 17  1  0
 18 17  2  0
 19 18  1  0
 20 19  2  0
 20 15  1  0
 21 10  1  0
 22 21  2  0
 23 24  1  0
 23 21  1  0
 25 24  1  0
 26 27  1  0
 26 25  1  0
 27 23  1  0
 28 29  1  0
 27 28  1  1
 30 28  2  0
M  END
$$$$
