NWP.pdb
     RDKit          3D

 30 32  0  0  1  0  0  0  0  0999 V2000
   14.5762  -15.6018   19.0066 N   0  0  0  0  0  0  0  0  0  0  0  0
   13.3624  -16.3309   19.0476 C   0  0  0  0  0  0  0  0  0  0  0  0
   13.3626  -17.4410   18.4455 O   0  0  0  0  0  0  0  0  0  0  0  0
   12.1529  -15.8495   19.7437 C   0  0  0  0  0  0  0  0  0  0  0  0
   11.7573  -16.7713   20.8413 C   0  0  2  0  0  0  0  0  0  0  0  0
   10.8605  -17.8027   20.3855 N   0  0  0  0  0  0  0  0  0  0  0  0
   11.2677  -16.0578   22.0566 C   0  0  0  0  0  0  0  0  0  0  0  0
   11.9903  -15.1378   22.5669 O   0  0  0  0  0  0  0  0  0  0  0  0
   10.0498  -16.3143   22.7082 N   0  0  0  0  0  0  0  0  0  0  0  0
    9.6405  -15.5383   23.9327 C   0  0  1  0  0  0  0  0  0  0  0  0
    8.1646  -15.3742   23.7224 C   0  0  0  0  0  0  0  0  0  0  0  0
    7.3398  -14.9198   24.8083 C   0  0  0  0  0  0  0  0  0  0  0  0
    6.6125  -15.7310   25.6772 C   0  0  0  0  0  0  0  0  0  0  0  0
    5.9417  -14.9452   26.5671 N   0  0  0  0  0  0  0  0  0  0  0  0
    6.2106  -13.6522   26.3037 C   0  0  0  0  0  0  0  0  0  0  0  0
    5.7842  -12.4867   26.9055 C   0  0  0  0  0  0  0  0  0  0  0  0
    6.2198  -11.2707   26.4248 C   0  0  0  0  0  0  0  0  0  0  0  0
    7.0776  -11.2086   25.3482 C   0  0  0  0  0  0  0  0  0  0  0  0
    7.4788  -12.3915   24.7771 C   0  0  0  0  0  0  0  0  0  0  0  0
    7.0786  -13.6305   25.2120 C   0  0  0  0  0  0  0  0  0  0  0  0
   10.0445  -16.2711   25.1188 C   0  0  0  0  0  0  0  0  0  0  0  0
   10.3751  -17.4923   24.9885 O   0  0  0  0  0  0  0  0  0  0  0  0
   10.0962  -15.7096   26.3992 N   0  0  0  0  0  0  0  0  0  0  0  0
    9.6040  -14.4400   26.9037 C   0  0  0  0  0  0  0  0  0  0  0  0
   10.6583  -13.9540   27.8835 C   0  0  0  0  0  0  0  0  0  0  0  0
   11.3896  -15.1943   28.2976 C   0  0  0  0  0  0  0  0  0  0  0  0
   10.7234  -16.3487   27.5761 C   0  0  1  0  0  0  0  0  0  0  0  0
    9.7388  -16.9718   28.4664 C   0  0  0  0  0  0  0  0  0  0  0  0
   10.1990  -17.6473   29.5867 O   0  0  0  0  0  0  0  0  0  0  0  0
    8.4954  -16.9390   28.2883 O   0  0  0  0  0  0  0  0  0  0  0  0
  2  3  2  0
  2  1  1  0
  4  2  1  0
  5  4  1  0
  5  6  1  6
  7  5  1  0
  7  8  2  0
  9  7  1  0
 10  9  1  0
 10 11  1  1
 11 12  1  0
 12 13  2  0
 12 20  1  0
 13 14  1  0
 14 15  1  0
 15 16  2  0
 16 17  1  0
 18 17  2  0
 19 18  1  0
 20 19  2  0
 20 15  1  0
 21 10  1  0
 22 21  2  0
 23 24  1  0
 23 21  1  0
 25 24  1  0
 26 27  1  0
 26 25  1  0
 27 23  1  0
 28 29  1  0
 27 28  1  1
 30 28  2  0
M  END
$$$$
