NWP.pdb
     RDKit          3D

 30 32  0  0  1  0  0  0  0  0999 V2000
   12.9155  -16.1939   18.9850 N   0  0  0  0  0  0  0  0  0  0  0  0
   11.5187  -16.2547   19.2127 C   0  0  0  0  0  0  0  0  0  0  0  0
   10.8338  -16.8090   18.3079 O   0  0  0  0  0  0  0  0  0  0  0  0
   10.8722  -15.7122   20.4238 C   0  0  0  0  0  0  0  0  0  0  0  0
   10.9048  -16.6936   21.5403 C   0  0  2  0  0  0  0  0  0  0  0  0
   10.1349  -17.8751   21.2452 N   0  0  0  0  0  0  0  0  0  0  0  0
   10.5726  -16.0871   22.8622 C   0  0  0  0  0  0  0  0  0  0  0  0
   11.1574  -15.0081   23.2122 O   0  0  0  0  0  0  0  0  0  0  0  0
    9.6489  -16.6110   23.7821 N   0  0  0  0  0  0  0  0  0  0  0  0
    9.4227  -15.9572   25.1201 C   0  0  1  0  0  0  0  0  0  0  0  0
    8.0261  -16.3922   25.4508 C   0  0  0  0  0  0  0  0  0  0  0  0
    6.9537  -15.4367   25.3952 C   0  0  0  0  0  0  0  0  0  0  0  0
    5.6013  -15.7341   25.2390 C   0  0  0  0  0  0  0  0  0  0  0  0
    4.8873  -14.5725   25.2175 N   0  0  0  0  0  0  0  0  0  0  0  0
    5.7322  -13.5329   25.3549 C   0  0  0  0  0  0  0  0  0  0  0  0
    5.5117  -12.1719   25.3932 C   0  0  0  0  0  0  0  0  0  0  0  0
    6.5774  -11.3112   25.5437 C   0  0  0  0  0  0  0  0  0  0  0  0
    7.8616  -11.7978   25.6564 C   0  0  0  0  0  0  0  0  0  0  0  0
    8.0390  -13.1591   25.6136 C   0  0  0  0  0  0  0  0  0  0  0  0
    7.0173  -14.0639   25.4657 C   0  0  0  0  0  0  0  0  0  0  0  0
   10.4635  -16.3798   26.0395 C   0  0  0  0  0  0  0  0  0  0  0  0
   11.3671  -17.1635   25.6069 O   0  0  0  0  0  0  0  0  0  0  0  0
   10.5336  -15.9705   27.3755 N   0  0  0  0  0  0  0  0  0  0  0  0
    9.7180  -15.0353   28.1298 C   0  0  0  0  0  0  0  0  0  0  0  0
   10.6837  -14.2896   29.0347 C   0  0  0  0  0  0  0  0  0  0  0  0
   11.8678  -15.1996   29.1553 C   0  0  0  0  0  0  0  0  0  0  0  0
   11.5408  -16.4415   28.3506 C   0  0  1  0  0  0  0  0  0  0  0  0
   11.0119  -17.4738   29.2478 C   0  0  0  0  0  0  0  0  0  0  0  0
   11.8770  -18.0587   30.1603 O   0  0  0  0  0  0  0  0  0  0  0  0
    9.8204  -17.8724   29.2519 O   0  0  0  0  0  0  0  0  0  0  0  0
  2  3  2  0
  2  1  1  0
  4  2  1  0
  5  4  1  0
  5  6  1  6
  7  5  1  0
  7  8  2  0
  9  7  1  0
 10  9  1  0
 10 11  1  1
 11 12  1  0
 12 13  2  0
 12 20  1  0
 13 14  1  0
 14 15  1  0
 15 16  2  0
 16 17  1  0
 18 17  2  0
 19 18  1  0
 20 19  2  0
 20 15  1  0
 21 10  1  0
 22 21  2  0
 23 24  1  0
 23 21  1  0
 25 24  1  0
 26 27  1  0
 26 25  1  0
 27 23  1  0
 28 29  1  0
 27 28  1  1
 30 28  2  0
M  END
$$$$
