FSN.pdb
     RDKit          3D

 26 26  0  0  1  0  0  0  0  0999 V2000
   28.1890  -19.8797  -15.7992 N   0  0  0  0  0  0  0  0  0  0  0  0
   27.3495  -19.4143  -14.7381 C   0  0  1  0  0  0  0  0  0  0  0  0
   26.2851  -18.5107  -15.3142 C   0  0  0  0  0  0  0  0  0  0  0  0
   26.9150  -17.2292  -15.7163 C   0  0  0  0  0  0  0  0  0  0  0  0
   27.2718  -16.9534  -17.0316 C   0  0  0  0  0  0  0  0  0  0  0  0
   27.8547  -15.7586  -17.3820 C   0  0  0  0  0  0  0  0  0  0  0  0
   28.1089  -14.7800  -16.4287 C   0  0  0  0  0  0  0  0  0  0  0  0
   27.7625  -15.0411  -15.1359 C   0  0  0  0  0  0  0  0  0  0  0  0
   27.1769  -16.2415  -14.7837 C   0  0  0  0  0  0  0  0  0  0  0  0
   26.7508  -20.5232  -13.9375 C   0  0  0  0  0  0  0  0  0  0  0  0
   26.2954  -21.5131  -14.5231 O   0  0  0  0  0  0  0  0  0  0  0  0
   25.8061  -19.5542   -9.8480 O   0  0  0  0  0  0  0  0  0  0  0  0
   25.8676  -20.8832  -10.2279 C   0  0  0  0  0  0  0  0  0  0  0  0
   25.6715  -21.0881  -11.7125 C   0  0  2  0  0  0  0  0  0  0  0  0
   26.6825  -20.4867  -12.5162 N   0  0  0  0  0  0  0  0  0  0  0  0
   24.2944  -20.6436  -12.0494 C   0  0  0  0  0  0  0  0  0  0  0  0
   24.1379  -19.5059  -12.5547 O   0  0  0  0  0  0  0  0  0  0  0  0
   19.6675  -20.9069  -13.8770 N   0  0  0  0  0  0  0  0  0  0  0  0
   20.5787  -21.7966  -14.5537 C   0  0  0  0  0  0  0  0  0  0  0  0
   20.2503  -22.2598  -15.6568 O   0  0  0  0  0  0  0  0  0  0  0  0
   21.8416  -22.0632  -13.8309 C   0  0  0  0  0  0  0  0  0  0  0  0
   21.8894  -21.2503  -12.5570 C   0  0  2  0  0  0  0  0  0  0  0  0
   23.1325  -21.4261  -11.8367 N   0  0  0  0  0  0  0  0  0  0  0  0
   20.7110  -21.5382  -11.7284 C   0  0  0  0  0  0  0  0  0  0  0  0
   20.8225  -22.0183  -10.4409 O   0  0  0  0  0  0  0  0  0  0  0  0
   19.5697  -21.3449  -12.1970 O   0  0  0  0  0  0  0  0  0  0  0  0
  2  1  1  6
  3  2  1  0
  4  5  2  0
  4  3  1  0
  6  5  1  0
  7  6  2  0
  8  7  1  0
  8  9  2  0
  9  4  1  0
 10  2  1  0
 11 10  2  0
 13 12  1  0
 14 15  1  0
 14 13  1  1
 15 10  1  0
 16 14  1  0
 17 16  2  0
 19 21  1  0
 19 18  1  0
 20 19  2  0
 22 21  1  6
 22 24  1  0
 22 23  1  0
 23 16  1  0
 24 25  1  0
 26 24  2  0
M  END
$$$$
