FSN.pdb
     RDKit          3D

 26 26  0  0  1  0  0  0  0  0999 V2000
   28.6536  -21.2267   -9.1387 N   0  0  0  0  0  0  0  0  0  0  0  0
   27.2650  -20.8856   -9.1906 C   0  0  1  0  0  0  0  0  0  0  0  0
   27.0384  -19.6256   -8.3892 C   0  0  0  0  0  0  0  0  0  0  0  0
   27.4042  -19.8881   -6.9757 C   0  0  0  0  0  0  0  0  0  0  0  0
   28.5081  -19.2995   -6.3688 C   0  0  0  0  0  0  0  0  0  0  0  0
   28.8288  -19.5572   -5.0570 C   0  0  0  0  0  0  0  0  0  0  0  0
   28.0566  -20.4195   -4.2881 C   0  0  0  0  0  0  0  0  0  0  0  0
   26.9718  -21.0017   -4.8743 C   0  0  0  0  0  0  0  0  0  0  0  0
   26.6495  -20.7429   -6.1923 C   0  0  0  0  0  0  0  0  0  0  0  0
   26.7492  -20.7470  -10.5848 C   0  0  0  0  0  0  0  0  0  0  0  0
   27.3183  -19.9741  -11.3652 O   0  0  0  0  0  0  0  0  0  0  0  0
   23.8410  -23.4790  -12.2464 O   0  0  0  0  0  0  0  0  0  0  0  0
   24.7509  -22.7388  -12.9803 C   0  0  0  0  0  0  0  0  0  0  0  0
   25.0603  -21.3940  -12.3635 C   0  0  2  0  0  0  0  0  0  0  0  0
   25.6200  -21.4744  -11.0559 N   0  0  0  0  0  0  0  0  0  0  0  0
   23.8256  -20.5709  -12.4377 C   0  0  0  0  0  0  0  0  0  0  0  0
   23.1793  -20.3621  -11.3827 O   0  0  0  0  0  0  0  0  0  0  0  0
   21.1893  -16.0866  -15.1474 N   0  0  0  0  0  0  0  0  0  0  0  0
   20.8792  -17.4790  -14.9367 C   0  0  0  0  0  0  0  0  0  0  0  0
   19.6983  -17.8030  -14.7373 O   0  0  0  0  0  0  0  0  0  0  0  0
   22.0430  -18.3909  -14.9840 C   0  0  0  0  0  0  0  0  0  0  0  0
   22.1190  -19.1985  -13.7080 C   0  0  2  0  0  0  0  0  0  0  0  0
   23.3226  -19.9987  -13.6324 N   0  0  0  0  0  0  0  0  0  0  0  0
   20.8978  -19.9980  -13.5417 C   0  0  0  0  0  0  0  0  0  0  0  0
   19.8940  -19.6267  -12.6728 O   0  0  0  0  0  0  0  0  0  0  0  0
   20.7569  -21.0473  -14.2038 O   0  0  0  0  0  0  0  0  0  0  0  0
  2  1  1  6
  3  2  1  0
  4  5  2  0
  4  3  1  0
  6  5  1  0
  7  6  2  0
  8  7  1  0
  8  9  2  0
  9  4  1  0
 10  2  1  0
 11 10  2  0
 13 12  1  0
 14 15  1  0
 14 13  1  1
 15 10  1  0
 16 14  1  0
 17 16  2  0
 19 21  1  0
 19 18  1  0
 20 19  2  0
 22 21  1  6
 22 24  1  0
 22 23  1  0
 23 16  1  0
 24 25  1  0
 26 24  2  0
M  END
$$$$
