FSN.pdb
     RDKit          3D

 26 26  0  0  1  0  0  0  0  0999 V2000
   21.6632  -10.0202  -14.9919 N   0  0  0  0  0  0  0  0  0  0  0  0
   21.9899   -9.0981  -13.9478 C   0  0  1  0  0  0  0  0  0  0  0  0
   22.8721   -8.0097  -14.5119 C   0  0  0  0  0  0  0  0  0  0  0  0
   24.1315   -8.6229  -15.0003 C   0  0  0  0  0  0  0  0  0  0  0  0
   24.9752   -9.3550  -14.1723 C   0  0  0  0  0  0  0  0  0  0  0  0
   26.1381   -9.9146  -14.6463 C   0  0  0  0  0  0  0  0  0  0  0  0
   26.5125   -9.7672  -15.9764 C   0  0  0  0  0  0  0  0  0  0  0  0
   25.6915   -9.0509  -16.7964 C   0  0  0  0  0  0  0  0  0  0  0  0
   24.5232   -8.4885  -16.3204 C   0  0  0  0  0  0  0  0  0  0  0  0
   20.7858   -8.5305  -13.2717 C   0  0  0  0  0  0  0  0  0  0  0  0
   19.7711   -8.2984  -13.9402 O   0  0  0  0  0  0  0  0  0  0  0  0
   21.0176   -6.9807   -9.2998 O   0  0  0  0  0  0  0  0  0  0  0  0
   19.8655   -7.6567   -9.6605 C   0  0  0  0  0  0  0  0  0  0  0  0
   19.6510   -7.7124  -11.1557 C   0  0  2  0  0  0  0  0  0  0  0  0
   20.7583   -8.2434  -11.8778 N   0  0  0  0  0  0  0  0  0  0  0  0
   19.2392   -6.3562  -11.6014 C   0  0  0  0  0  0  0  0  0  0  0  0
   20.0959   -5.6170  -12.1436 O   0  0  0  0  0  0  0  0  0  0  0  0
   16.8519   -2.0735  -12.5166 N   0  0  0  0  0  0  0  0  0  0  0  0
   16.5013   -3.0512  -13.5169 C   0  0  0  0  0  0  0  0  0  0  0  0
   15.9066   -2.6724  -14.5378 O   0  0  0  0  0  0  0  0  0  0  0  0
   16.9043   -4.4389  -13.2004 C   0  0  0  0  0  0  0  0  0  0  0  0
   17.5413   -4.4923  -11.8302 C   0  0  2  0  0  0  0  0  0  0  0  0
   17.9300   -5.8348  -11.4544 N   0  0  0  0  0  0  0  0  0  0  0  0
   16.6612   -3.8604  -10.8381 C   0  0  0  0  0  0  0  0  0  0  0  0
   16.3463   -2.5193  -10.8895 O   0  0  0  0  0  0  0  0  0  0  0  0
   16.1794   -4.5522   -9.9168 O   0  0  0  0  0  0  0  0  0  0  0  0
  2  1  1  6
  3  2  1  0
  4  5  2  0
  4  3  1  0
  6  5  1  0
  7  6  2  0
  8  7  1  0
  8  9  2  0
  9  4  1  0
 10  2  1  0
 11 10  2  0
 13 12  1  0
 14 15  1  0
 14 13  1  1
 15 10  1  0
 16 14  1  0
 17 16  2  0
 19 21  1  0
 19 18  1  0
 20 19  2  0
 22 21  1  6
 22 24  1  0
 22 23  1  0
 23 16  1  0
 24 25  1  0
 26 24  2  0
M  END
$$$$
