FSN.pdb
     RDKit          3D

 26 26  0  0  1  0  0  0  0  0999 V2000
   24.9974  -20.1221   -8.2279 N   0  0  0  0  0  0  0  0  0  0  0  0
   26.2797  -20.1006   -8.8623 C   0  0  1  0  0  0  0  0  0  0  0  0
   27.1880  -21.0872   -8.1676 C   0  0  0  0  0  0  0  0  0  0  0  0
   27.6271  -20.5028   -6.8767 C   0  0  0  0  0  0  0  0  0  0  0  0
   26.8875  -20.6367   -5.7068 C   0  0  0  0  0  0  0  0  0  0  0  0
   27.3134  -20.0866   -4.5211 C   0  0  0  0  0  0  0  0  0  0  0  0
   28.5043  -19.3739   -4.4503 C   0  0  0  0  0  0  0  0  0  0  0  0
   29.2368  -19.2371   -5.5923 C   0  0  0  0  0  0  0  0  0  0  0  0
   28.8090  -19.7897   -6.7837 C   0  0  0  0  0  0  0  0  0  0  0  0
   26.2096  -20.3621  -10.3306 C   0  0  0  0  0  0  0  0  0  0  0  0
   25.1378  -20.7282  -10.8282 O   0  0  0  0  0  0  0  0  0  0  0  0
   29.2039  -21.1480  -13.3222 O   0  0  0  0  0  0  0  0  0  0  0  0
   28.6438  -19.8851  -13.2473 C   0  0  0  0  0  0  0  0  0  0  0  0
   27.2917  -19.8722  -12.5719 C   0  0  2  0  0  0  0  0  0  0  0  0
   27.3353  -20.2056  -11.1875 N   0  0  0  0  0  0  0  0  0  0  0  0
   26.3833  -20.7370  -13.3686 C   0  0  0  0  0  0  0  0  0  0  0  0
   26.4921  -21.9822  -13.2601 O   0  0  0  0  0  0  0  0  0  0  0  0
   22.0303  -22.9692  -13.8670 N   0  0  0  0  0  0  0  0  0  0  0  0
   22.1212  -21.7155  -13.1604 C   0  0  0  0  0  0  0  0  0  0  0  0
   21.0772  -21.1862  -12.7490 O   0  0  0  0  0  0  0  0  0  0  0  0
   23.4939  -21.1873  -13.0021 C   0  0  0  0  0  0  0  0  0  0  0  0
   24.0491  -20.7796  -14.3480 C   0  0  2  0  0  0  0  0  0  0  0  0
   25.3910  -20.2455  -14.2525 N   0  0  0  0  0  0  0  0  0  0  0  0
   23.1217  -19.8599  -15.0205 C   0  0  0  0  0  0  0  0  0  0  0  0
   23.5390  -18.9952  -16.0098 O   0  0  0  0  0  0  0  0  0  0  0  0
   21.9170  -19.8548  -14.6919 O   0  0  0  0  0  0  0  0  0  0  0  0
  2  1  1  1
  3  2  1  0
  4  5  2  0
  4  3  1  0
  6  5  1  0
  7  6  2  0
  8  7  1  0
  8  9  2  0
  9  4  1  0
 10  2  1  0
 11 10  2  0
 13 12  1  0
 14 15  1  0
 14 13  1  6
 15 10  1  0
 16 14  1  0
 17 16  2  0
 19 21  1  0
 19 18  1  0
 20 19  2  0
 22 21  1  1
 22 24  1  0
 22 23  1  0
 23 16  1  0
 24 25  1  0
 26 24  2  0
M  END
$$$$
