FSN.pdb
     RDKit          3D

 26 26  0  0  1  0  0  0  0  0999 V2000
   36.4430  -23.2955    4.7650 N   0  0  0  0  0  0  0  0  0  0  0  0
   35.8634  -23.0951    6.0578 C   0  0  1  0  0  0  0  0  0  0  0  0
   34.4150  -23.5210    6.0182 C   0  0  0  0  0  0  0  0  0  0  0  0
   33.6425  -22.5114    5.2534 C   0  0  0  0  0  0  0  0  0  0  0  0
   33.3540  -21.2500    5.7624 C   0  0  0  0  0  0  0  0  0  0  0  0
   32.6361  -20.3297    5.0360 C   0  0  0  0  0  0  0  0  0  0  0  0
   32.1716  -20.6297    3.7612 C   0  0  0  0  0  0  0  0  0  0  0  0
   32.4495  -21.8644    3.2533 C   0  0  0  0  0  0  0  0  0  0  0  0
   33.1707  -22.7892    3.9829 C   0  0  0  0  0  0  0  0  0  0  0  0
   36.6091  -23.7930    7.1469 C   0  0  0  0  0  0  0  0  0  0  0  0
   36.8585  -24.9991    7.0310 O   0  0  0  0  0  0  0  0  0  0  0  0
   38.9507  -21.7050   10.1121 O   0  0  0  0  0  0  0  0  0  0  0  0
   38.1176  -22.7372   10.5055 C   0  0  0  0  0  0  0  0  0  0  0  0
   37.7951  -23.7017    9.3873 C   0  0  2  0  0  0  0  0  0  0  0  0
   37.0479  -23.1209    8.3224 N   0  0  0  0  0  0  0  0  0  0  0  0
   37.1471  -24.8930    9.9944 C   0  0  0  0  0  0  0  0  0  0  0  0
   35.8979  -24.9031   10.1097 O   0  0  0  0  0  0  0  0  0  0  0  0
   35.6271  -29.4466    9.1593 N   0  0  0  0  0  0  0  0  0  0  0  0
   36.7611  -28.5577    9.1034 C   0  0  0  0  0  0  0  0  0  0  0  0
   36.9903  -27.9498    8.0464 O   0  0  0  0  0  0  0  0  0  0  0  0
   37.5466  -28.4700   10.3539 C   0  0  0  0  0  0  0  0  0  0  0  0
   37.2264  -27.1807   11.0759 C   0  0  2  0  0  0  0  0  0  0  0  0
   37.8521  -26.0317   10.4569 N   0  0  0  0  0  0  0  0  0  0  0  0
   37.5568  -27.3038   12.5020 C   0  0  0  0  0  0  0  0  0  0  0  0
   36.6285  -27.7157   13.4343 O   0  0  0  0  0  0  0  0  0  0  0  0
   38.7115  -27.0290   12.8900 O   0  0  0  0  0  0  0  0  0  0  0  0
  2  1  1  6
  3  2  1  0
  4  5  2  0
  4  3  1  0
  6  5  1  0
  7  6  2  0
  8  7  1  0
  8  9  2  0
  9  4  1  0
 10  2  1  0
 11 10  2  0
 13 12  1  0
 14 15  1  0
 14 13  1  1
 15 10  1  0
 16 14  1  0
 17 16  2  0
 19 21  1  0
 19 18  1  0
 20 19  2  0
 22 21  1  6
 22 24  1  0
 22 23  1  0
 23 16  1  0
 24 25  1  0
 26 24  2  0
M  END
$$$$
