FSN.pdb
     RDKit          3D

 26 26  0  0  1  0  0  0  0  0999 V2000
   28.4351  -21.2321   -9.0804 N   0  0  0  0  0  0  0  0  0  0  0  0
   27.1141  -20.6836   -9.0434 C   0  0  1  0  0  0  0  0  0  0  0  0
   27.1338  -19.4094   -8.2328 C   0  0  0  0  0  0  0  0  0  0  0  0
   27.6514  -19.7156   -6.8767 C   0  0  0  0  0  0  0  0  0  0  0  0
   26.9161  -20.4366   -5.9424 C   0  0  0  0  0  0  0  0  0  0  0  0
   27.4156  -20.7090   -4.6909 C   0  0  0  0  0  0  0  0  0  0  0  0
   28.6794  -20.2708   -4.3142 C   0  0  0  0  0  0  0  0  0  0  0  0
   29.4083  -19.5629   -5.2236 C   0  0  0  0  0  0  0  0  0  0  0  0
   28.9067  -19.2891   -6.4811 C   0  0  0  0  0  0  0  0  0  0  0  0
   26.5365  -20.4588  -10.4017 C   0  0  0  0  0  0  0  0  0  0  0  0
   26.7904  -19.4057  -10.9990 O   0  0  0  0  0  0  0  0  0  0  0  0
   24.5568  -23.6120  -12.5380 O   0  0  0  0  0  0  0  0  0  0  0  0
   25.1053  -22.5078  -13.1659 C   0  0  0  0  0  0  0  0  0  0  0  0
   25.0738  -21.2606  -12.3127 C   0  0  2  0  0  0  0  0  0  0  0  0
   25.6990  -21.4152  -11.0420 N   0  0  0  0  0  0  0  0  0  0  0  0
   23.6617  -20.8051  -12.2347 C   0  0  0  0  0  0  0  0  0  0  0  0
   23.0133  -21.0376  -11.1860 O   0  0  0  0  0  0  0  0  0  0  0  0
   19.1730  -18.8120  -12.9244 N   0  0  0  0  0  0  0  0  0  0  0  0
   19.9351  -18.0347  -13.8703 C   0  0  0  0  0  0  0  0  0  0  0  0
   19.3897  -17.0670  -14.4230 O   0  0  0  0  0  0  0  0  0  0  0  0
   21.3251  -18.4956  -14.0795 C   0  0  0  0  0  0  0  0  0  0  0  0
   21.6035  -19.7059  -13.2171 C   0  0  2  0  0  0  0  0  0  0  0  0
   22.9897  -20.1181  -13.2758 N   0  0  0  0  0  0  0  0  0  0  0  0
   20.6761  -20.7934  -13.5567 C   0  0  0  0  0  0  0  0  0  0  0  0
   19.4977  -20.9905  -12.8688 O   0  0  0  0  0  0  0  0  0  0  0  0
   20.9561  -21.5675  -14.4958 O   0  0  0  0  0  0  0  0  0  0  0  0
  2  1  1  6
  3  2  1  0
  4  5  2  0
  4  3  1  0
  6  5  1  0
  7  6  2  0
  8  7  1  0
  8  9  2  0
  9  4  1  0
 10  2  1  0
 11 10  2  0
 13 12  1  0
 14 15  1  0
 14 13  1  1
 15 10  1  0
 16 14  1  0
 17 16  2  0
 19 21  1  0
 19 18  1  0
 20 19  2  0
 22 21  1  6
 22 24  1  0
 22 23  1  0
 23 16  1  0
 24 25  1  0
 26 24  2  0
M  END
$$$$
