FSN.pdb
     RDKit          3D

 26 26  0  0  1  0  0  0  0  0999 V2000
   28.2520  -20.8850   -8.4071 N   0  0  0  0  0  0  0  0  0  0  0  0
   26.8213  -20.8801   -8.4222 C   0  0  1  0  0  0  0  0  0  0  0  0
   26.3203  -20.0795   -7.2436 C   0  0  0  0  0  0  0  0  0  0  0  0
   27.4259  -19.9285   -6.2660 C   0  0  0  0  0  0  0  0  0  0  0  0
   28.1143  -18.7323   -6.0969 C   0  0  0  0  0  0  0  0  0  0  0  0
   29.1362  -18.6148   -5.1847 C   0  0  0  0  0  0  0  0  0  0  0  0
   29.5184  -19.6931   -4.3959 C   0  0  0  0  0  0  0  0  0  0  0  0
   28.8492  -20.8706   -4.5545 C   0  0  0  0  0  0  0  0  0  0  0  0
   27.8225  -20.9889   -5.4709 C   0  0  0  0  0  0  0  0  0  0  0  0
   26.2523  -20.3760   -9.7072 C   0  0  0  0  0  0  0  0  0  0  0  0
   25.4156  -19.4652   -9.6810 O   0  0  0  0  0  0  0  0  0  0  0  0
   28.1539  -20.3281  -13.2429 O   0  0  0  0  0  0  0  0  0  0  0  0
   26.8825  -20.8444  -13.4194 C   0  0  0  0  0  0  0  0  0  0  0  0
   25.9895  -20.6535  -12.2149 C   0  0  2  0  0  0  0  0  0  0  0  0
   26.6370  -20.9056  -10.9712 N   0  0  0  0  0  0  0  0  0  0  0  0
   24.7654  -21.4679  -12.4294 C   0  0  0  0  0  0  0  0  0  0  0  0
   24.5667  -22.4595  -11.6868 O   0  0  0  0  0  0  0  0  0  0  0  0
   20.0797  -22.1450  -11.0437 N   0  0  0  0  0  0  0  0  0  0  0  0
   20.4309  -20.9648  -11.7943 C   0  0  0  0  0  0  0  0  0  0  0  0
   19.5207  -20.2497  -12.2409 O   0  0  0  0  0  0  0  0  0  0  0  0
   21.8839  -20.7351  -11.9506 C   0  0  0  0  0  0  0  0  0  0  0  0
   22.3696  -21.3574  -13.2402 C   0  0  2  0  0  0  0  0  0  0  0  0
   23.7960  -21.1978  -13.4268 N   0  0  0  0  0  0  0  0  0  0  0  0
   21.5906  -20.8437  -14.3748 C   0  0  0  0  0  0  0  0  0  0  0  0
   21.8413  -19.6087  -14.9340 O   0  0  0  0  0  0  0  0  0  0  0  0
   20.6716  -21.5406  -14.8534 O   0  0  0  0  0  0  0  0  0  0  0  0
  2  1  1  6
  3  2  1  0
  4  5  2  0
  4  3  1  0
  6  5  1  0
  7  6  2  0
  8  7  1  0
  8  9  2  0
  9  4  1  0
 10  2  1  0
 11 10  2  0
 13 12  1  0
 14 15  1  0
 14 13  1  6
 15 10  1  0
 16 14  1  0
 17 16  2  0
 19 21  1  0
 19 18  1  0
 20 19  2  0
 22 21  1  1
 22 24  1  0
 22 23  1  0
 23 16  1  0
 24 25  1  0
 26 24  2  0
M  END
$$$$
