FSN.pdb
     RDKit          3D

 26 26  0  0  1  0  0  0  0  0999 V2000
   26.4133  -22.5302  -18.0202 N   0  0  0  0  0  0  0  0  0  0  0  0
   26.0371  -21.4639  -17.1434 C   0  0  1  0  0  0  0  0  0  0  0  0
   25.3552  -20.3832  -17.9486 C   0  0  0  0  0  0  0  0  0  0  0  0
   26.3408  -19.7971  -18.8898 C   0  0  0  0  0  0  0  0  0  0  0  0
   26.2609  -19.9830  -20.2655 C   0  0  0  0  0  0  0  0  0  0  0  0
   27.1857  -19.4304  -21.1196 C   0  0  0  0  0  0  0  0  0  0  0  0
   28.2379  -18.6628  -20.6350 C   0  0  0  0  0  0  0  0  0  0  0  0
   28.3248  -18.4748  -19.2872 C   0  0  0  0  0  0  0  0  0  0  0  0
   27.3958  -19.0299  -18.4289 C   0  0  0  0  0  0  0  0  0  0  0  0
   25.1849  -21.9172  -16.0044 C   0  0  0  0  0  0  0  0  0  0  0  0
   24.2881  -22.7434  -16.2126 O   0  0  0  0  0  0  0  0  0  0  0  0
   25.4885  -20.0194  -12.1739 O   0  0  0  0  0  0  0  0  0  0  0  0
   25.1842  -21.3682  -12.2242 C   0  0  0  0  0  0  0  0  0  0  0  0
   24.5821  -21.7943  -13.5435 C   0  0  2  0  0  0  0  0  0  0  0  0
   25.3644  -21.4330  -14.6780 N   0  0  0  0  0  0  0  0  0  0  0  0
   23.1885  -21.2808  -13.5881 C   0  0  0  0  0  0  0  0  0  0  0  0
   22.9459  -20.2633  -14.2809 O   0  0  0  0  0  0  0  0  0  0  0  0
   19.5211  -24.6028  -13.3861 N   0  0  0  0  0  0  0  0  0  0  0  0
   19.2337  -23.1944  -13.5020 C   0  0  0  0  0  0  0  0  0  0  0  0
   18.5993  -22.7950  -14.4905 O   0  0  0  0  0  0  0  0  0  0  0  0
   19.7453  -22.3605  -12.3924 C   0  0  0  0  0  0  0  0  0  0  0  0
   20.7482  -21.3588  -12.9187 C   0  0  2  0  0  0  0  0  0  0  0  0
   22.1025  -21.8688  -12.8937 N   0  0  0  0  0  0  0  0  0  0  0  0
   20.6119  -20.0828  -12.2036 C   0  0  0  0  0  0  0  0  0  0  0  0
   19.4972  -19.2834  -12.3413 O   0  0  0  0  0  0  0  0  0  0  0  0
   21.5292  -19.7033  -11.4460 O   0  0  0  0  0  0  0  0  0  0  0  0
  2  1  1  6
  3  2  1  0
  4  5  2  0
  4  3  1  0
  6  5  1  0
  7  6  2  0
  8  7  1  0
  8  9  2  0
  9  4  1  0
 10  2  1  0
 11 10  2  0
 13 12  1  0
 14 15  1  0
 14 13  1  1
 15 10  1  0
 16 14  1  0
 17 16  2  0
 19 21  1  0
 19 18  1  0
 20 19  2  0
 22 21  1  1
 22 24  1  0
 22 23  1  0
 23 16  1  0
 24 25  1  0
 26 24  2  0
M  END
$$$$
