FSN.pdb
     RDKit          3D

 26 26  0  0  1  0  0  0  0  0999 V2000
   24.2144  -12.4711  -17.7836 N   0  0  0  0  0  0  0  0  0  0  0  0
   23.9479  -12.0412  -16.4451 C   0  0  1  0  0  0  0  0  0  0  0  0
   25.2593  -11.7880  -15.7401 C   0  0  0  0  0  0  0  0  0  0  0  0
   25.9753  -13.0784  -15.5886 C   0  0  0  0  0  0  0  0  0  0  0  0
   25.6392  -14.0080  -14.6107 C   0  0  0  0  0  0  0  0  0  0  0  0
   26.3166  -15.1981  -14.4882 C   0  0  0  0  0  0  0  0  0  0  0  0
   27.3664  -15.5147  -15.3421 C   0  0  0  0  0  0  0  0  0  0  0  0
   27.7035  -14.6094  -16.3044 C   0  0  0  0  0  0  0  0  0  0  0  0
   27.0230  -13.4137  -16.4276 C   0  0  0  0  0  0  0  0  0  0  0  0
   23.0538  -10.8471  -16.3821 C   0  0  0  0  0  0  0  0  0  0  0  0
   23.2185   -9.9260  -17.1913 O   0  0  0  0  0  0  0  0  0  0  0  0
   19.1818  -11.0235  -14.8551 O   0  0  0  0  0  0  0  0  0  0  0  0
   19.9044   -9.9210  -14.4347 C   0  0  0  0  0  0  0  0  0  0  0  0
   21.1070   -9.6305  -15.3030 C   0  0  2  0  0  0  0  0  0  0  0  0
   22.0112  -10.7251  -15.4208 N   0  0  0  0  0  0  0  0  0  0  0  0
   21.7371   -8.3843  -14.7956 C   0  0  0  0  0  0  0  0  0  0  0  0
   22.5698   -8.4705  -13.8610 O   0  0  0  0  0  0  0  0  0  0  0  0
   23.1645   -2.6279  -16.4658 N   0  0  0  0  0  0  0  0  0  0  0  0
   23.0265   -3.6939  -15.5045 C   0  0  0  0  0  0  0  0  0  0  0  0
   23.5560   -3.5637  -14.3900 O   0  0  0  0  0  0  0  0  0  0  0  0
   22.2437   -4.8584  -15.9731 C   0  0  0  0  0  0  0  0  0  0  0  0
   22.1326   -5.8848  -14.8684 C   0  0  2  0  0  0  0  0  0  0  0  0
   21.4587   -7.0903  -15.3012 N   0  0  0  0  0  0  0  0  0  0  0  0
   21.5097   -5.2847  -13.6810 C   0  0  0  0  0  0  0  0  0  0  0  0
   20.1477   -5.0920  -13.5888 O   0  0  0  0  0  0  0  0  0  0  0  0
   22.2286   -4.9359  -12.7214 O   0  0  0  0  0  0  0  0  0  0  0  0
  2  1  1  6
  3  2  1  0
  4  5  2  0
  4  3  1  0
  6  5  1  0
  7  6  2  0
  8  7  1  0
  8  9  2  0
  9  4  1  0
 10  2  1  0
 11 10  2  0
 13 12  1  0
 14 15  1  0
 14 13  1  1
 15 10  1  0
 16 14  1  0
 17 16  2  0
 19 21  1  0
 19 18  1  0
 20 19  2  0
 22 21  1  6
 22 24  1  0
 22 23  1  0
 23 16  1  0
 24 25  1  0
 26 24  2  0
M  END
$$$$
