FSN.pdb
     RDKit          3D

 26 26  0  0  1  0  0  0  0  0999 V2000
   16.2779  -17.7026    2.5164 N   0  0  0  0  0  0  0  0  0  0  0  0
   17.5959  -17.8388    3.0561 C   0  0  1  0  0  0  0  0  0  0  0  0
   17.8283  -16.7418    4.0678 C   0  0  0  0  0  0  0  0  0  0  0  0
   18.1285  -15.4822    3.3439 C   0  0  0  0  0  0  0  0  0  0  0  0
   18.8928  -15.4528    2.1827 C   0  0  0  0  0  0  0  0  0  0  0  0
   19.1589  -14.2736    1.5279 C   0  0  0  0  0  0  0  0  0  0  0  0
   18.6705  -13.0638    2.0064 C   0  0  0  0  0  0  0  0  0  0  0  0
   17.9198  -13.0823    3.1446 C   0  0  0  0  0  0  0  0  0  0  0  0
   17.6524  -14.2669    3.8027 C   0  0  0  0  0  0  0  0  0  0  0  0
   17.8500  -19.1876    3.6439 C   0  0  0  0  0  0  0  0  0  0  0  0
   16.9528  -20.0386    3.6128 O   0  0  0  0  0  0  0  0  0  0  0  0
   21.4089  -19.7533    5.8020 O   0  0  0  0  0  0  0  0  0  0  0  0
   20.8253  -20.9123    5.3220 C   0  0  0  0  0  0  0  0  0  0  0  0
   19.3691  -20.7386    4.9559 C   0  0  2  0  0  0  0  0  0  0  0  0
   19.0931  -19.5362    4.2434 N   0  0  0  0  0  0  0  0  0  0  0  0
   18.5714  -20.8950    6.1996 C   0  0  0  0  0  0  0  0  0  0  0  0
   17.8922  -19.9204    6.6034 O   0  0  0  0  0  0  0  0  0  0  0  0
   14.7104  -23.3608    9.1628 N   0  0  0  0  0  0  0  0  0  0  0  0
   15.4958  -22.1515    9.1744 C   0  0  0  0  0  0  0  0  0  0  0  0
   15.4660  -21.4311   10.1841 O   0  0  0  0  0  0  0  0  0  0  0  0
   16.2723  -21.9008    7.9405 C   0  0  0  0  0  0  0  0  0  0  0  0
   17.7266  -22.2481    8.1655 C   0  0  2  0  0  0  0  0  0  0  0  0
   18.5246  -22.0837    6.9693 N   0  0  0  0  0  0  0  0  0  0  0  0
   17.8420  -23.5950    8.7407 C   0  0  0  0  0  0  0  0  0  0  0  0
   17.8809  -23.8072   10.1023 O   0  0  0  0  0  0  0  0  0  0  0  0
   17.9073  -24.5832    7.9801 O   0  0  0  0  0  0  0  0  0  0  0  0
  2  1  1  1
  3  2  1  0
  4  5  2  0
  4  3  1  0
  6  5  1  0
  7  6  2  0
  8  7  1  0
  8  9  2  0
  9  4  1  0
 10  2  1  0
 11 10  2  0
 13 12  1  0
 14 15  1  0
 14 13  1  1
 15 10  1  0
 16 14  1  0
 17 16  2  0
 19 21  1  0
 19 18  1  0
 20 19  2  0
 22 21  1  6
 22 24  1  0
 22 23  1  0
 23 16  1  0
 24 25  1  0
 26 24  2  0
M  END
$$$$
