KLH.pdb
     RDKit          3D

 28 28  0  0  1  0  0  0  0  0999 V2000
   19.8007  -17.8190  -22.7825 N   0  0  0  0  0  0  0  0  0  0  0  0
   18.8729  -17.3028  -21.8288 C   0  0  1  0  0  0  0  0  0  0  0  0
   17.7200  -18.2569  -21.6086 C   0  0  0  0  0  0  0  0  0  0  0  0
   16.9885  -18.5653  -22.8758 C   0  0  0  0  0  0  0  0  0  0  0  0
   15.7448  -19.3760  -22.6803 C   0  0  0  0  0  0  0  0  0  0  0  0
   15.0582  -19.7153  -23.9823 C   0  0  0  0  0  0  0  0  0  0  0  0
   13.9273  -20.5712  -23.6710 N   0  0  0  0  0  0  0  0  0  0  0  0
   19.5449  -16.9599  -20.5427 C   0  0  0  0  0  0  0  0  0  0  0  0
   20.6758  -17.4597  -20.3529 O   0  0  0  0  0  0  0  0  0  0  0  0
   19.7836  -13.3317  -19.7820 C   0  0  0  0  0  0  0  0  0  0  0  0
   19.6955  -13.2040  -18.2538 C   0  0  1  0  0  0  0  0  0  0  0  0
   18.8419  -11.9490  -18.0405 C   0  0  0  0  0  0  0  0  0  0  0  0
   19.0000  -14.4237  -17.7645 C   0  0  0  0  0  0  0  0  0  0  0  0
   19.5375  -15.7268  -18.3286 C   0  0  2  0  0  0  0  0  0  0  0  0
   18.9782  -16.1286  -19.5725 N   0  0  0  0  0  0  0  0  0  0  0  0
   19.5442  -16.7457  -17.2760 C   0  0  0  0  0  0  0  0  0  0  0  0
   20.1428  -16.4969  -16.1637 O   0  0  0  0  0  0  0  0  0  0  0  0
   18.9348  -17.9998  -17.3870 N   0  0  0  0  0  0  0  0  0  0  0  0
   18.8995  -18.9086  -16.2049 C   0  0  1  0  0  0  0  0  0  0  0  0
   17.8712  -18.3095  -15.2927 C   0  0  0  0  0  0  0  0  0  0  0  0
   18.4499  -17.4968  -14.2132 C   0  0  0  0  0  0  0  0  0  0  0  0
   19.7206  -17.3099  -13.7651 C   0  0  0  0  0  0  0  0  0  0  0  0
   19.7220  -16.4000  -12.7706 N   0  0  0  0  0  0  0  0  0  0  0  0
   18.4629  -16.0298  -12.6097 C   0  0  0  0  0  0  0  0  0  0  0  0
   17.6823  -16.6707  -13.4603 N   0  0  0  0  0  0  0  0  0  0  0  0
   18.3267  -20.1977  -16.7281 C   0  0  0  0  0  0  0  0  0  0  0  0
   18.1237  -20.2710  -17.9791 O   0  0  0  0  0  0  0  0  0  0  0  0
   18.0101  -21.2859  -15.9643 O   0  0  0  0  0  0  0  0  0  0  0  0
  2  1  1  6
  3  2  1  0
  3  4  1  0
  5  4  1  0
  5  6  1  0
  7  6  1  0
  8  9  2  0
  8  2  1  0
 11 10  1  6
 11 12  1  0
 11 13  1  0
 14 13  1  1
 14 15  1  0
 15  8  1  0
 16 18  1  0
 16 14  1  0
 17 16  2  0
 19 18  1  0
 19 26  1  0
 19 20  1  1
 20 21  1  0
 21 22  2  0
 22 23  1  0
 24 23  1  0
 25 21  1  0
 25 24  2  0
 26 28  1  0
 27 26  2  0
M  END
$$$$
