KLH.pdb
     RDKit          3D

 28 28  0  0  1  0  0  0  0  0999 V2000
   25.7398  -24.1292  -14.6791 N   0  0  0  0  0  0  0  0  0  0  0  0
   24.3194  -24.0761  -14.8085 C   0  0  1  0  0  0  0  0  0  0  0  0
   23.7005  -25.4485  -14.6616 C   0  0  0  0  0  0  0  0  0  0  0  0
   24.2212  -26.4174  -15.6746 C   0  0  0  0  0  0  0  0  0  0  0  0
   24.1343  -25.9285  -17.0873 C   0  0  0  0  0  0  0  0  0  0  0  0
   24.6199  -26.9492  -18.0894 C   0  0  0  0  0  0  0  0  0  0  0  0
   24.5277  -26.3471  -19.4075 N   0  0  0  0  0  0  0  0  0  0  0  0
   23.7191  -23.1061  -13.8485 C   0  0  0  0  0  0  0  0  0  0  0  0
   22.4821  -23.1813  -13.6786 O   0  0  0  0  0  0  0  0  0  0  0  0
   26.9407  -20.3596  -10.0733 C   0  0  0  0  0  0  0  0  0  0  0  0
   25.8129  -21.2209  -10.6612 C   0  0  1  0  0  0  0  0  0  0  0  0
   25.0047  -21.6530   -9.4327 C   0  0  0  0  0  0  0  0  0  0  0  0
   25.0179  -20.3323  -11.5495 C   0  0  0  0  0  0  0  0  0  0  0  0
   23.9773  -21.0481  -12.3920 C   0  0  2  0  0  0  0  0  0  0  0  0
   24.4612  -22.1469  -13.1535 N   0  0  0  0  0  0  0  0  0  0  0  0
   23.1882  -20.0603  -13.1321 C   0  0  0  0  0  0  0  0  0  0  0  0
   22.5025  -19.1871  -12.4804 O   0  0  0  0  0  0  0  0  0  0  0  0
   23.1201  -19.9889  -14.5274 N   0  0  0  0  0  0  0  0  0  0  0  0
   22.2791  -18.9386  -15.1708 C   0  0  1  0  0  0  0  0  0  0  0  0
   22.7732  -18.8662  -16.5846 C   0  0  0  0  0  0  0  0  0  0  0  0
   21.9912  -17.9540  -17.4313 C   0  0  0  0  0  0  0  0  0  0  0  0
   20.9486  -17.1157  -17.1844 C   0  0  0  0  0  0  0  0  0  0  0  0
   20.6304  -16.4438  -18.3087 N   0  0  0  0  0  0  0  0  0  0  0  0
   21.4711  -16.8644  -19.2384 C   0  0  0  0  0  0  0  0  0  0  0  0
   22.2952  -17.7674  -18.7394 N   0  0  0  0  0  0  0  0  0  0  0  0
   20.8959  -19.5288  -15.2172 C   0  0  0  0  0  0  0  0  0  0  0  0
   20.8123  -20.7938  -15.2822 O   0  0  0  0  0  0  0  0  0  0  0  0
   19.7327  -18.8116  -15.1959 O   0  0  0  0  0  0  0  0  0  0  0  0
  2  1  1  1
  3  2  1  0
  3  4  1  0
  5  4  1  0
  5  6  1  0
  7  6  1  0
  8  9  2  0
  8  2  1  0
 11 10  1  1
 11 12  1  0
 11 13  1  0
 14 13  1  6
 14 15  1  0
 15  8  1  0
 16 18  1  0
 16 14  1  0
 17 16  2  0
 19 18  1  0
 19 26  1  0
 19 20  1  6
 20 21  1  0
 21 22  2  0
 22 23  1  0
 24 23  1  0
 25 21  1  0
 25 24  2  0
 26 28  1  0
 27 26  2  0
M  END
$$$$
