KLH.pdb
     RDKit          3D

 28 28  0  0  1  0  0  0  0  0999 V2000
   32.7242   -9.2750  -18.3907 N   0  0  0  0  0  0  0  0  0  0  0  0
   31.4567   -8.6914  -18.0910 C   0  0  1  0  0  0  0  0  0  0  0  0
   31.3270   -7.3122  -18.6986 C   0  0  0  0  0  0  0  0  0  0  0  0
   32.1946   -6.3059  -18.0128 C   0  0  0  0  0  0  0  0  0  0  0  0
   32.0098   -4.9041  -18.5060 C   0  0  0  0  0  0  0  0  0  0  0  0
   33.0201   -3.9428  -17.9255 C   0  0  0  0  0  0  0  0  0  0  0  0
   34.2643   -4.6697  -17.7474 N   0  0  0  0  0  0  0  0  0  0  0  0
   30.3338   -9.5767  -18.5133 C   0  0  0  0  0  0  0  0  0  0  0  0
   30.4763  -10.1796  -19.5999 O   0  0  0  0  0  0  0  0  0  0  0  0
   27.5751  -13.1285  -15.2771 C   0  0  0  0  0  0  0  0  0  0  0  0
   28.3213  -12.4660  -16.4449 C   0  0  1  0  0  0  0  0  0  0  0  0
   28.4257  -13.5809  -17.4914 C   0  0  0  0  0  0  0  0  0  0  0  0
   27.4604  -11.3517  -16.9222 C   0  0  0  0  0  0  0  0  0  0  0  0
   28.0378  -10.5589  -18.0813 C   0  0  2  0  0  0  0  0  0  0  0  0
   29.1659   -9.7531  -17.7659 N   0  0  0  0  0  0  0  0  0  0  0  0
   26.9525   -9.8816  -18.7950 C   0  0  0  0  0  0  0  0  0  0  0  0
   26.4978   -8.7676  -18.3372 O   0  0  0  0  0  0  0  0  0  0  0  0
   26.3565  -10.3621  -19.9657 N   0  0  0  0  0  0  0  0  0  0  0  0
   25.2387   -9.5973  -20.5904 C   0  0  1  0  0  0  0  0  0  0  0  0
   25.1799  -10.0929  -22.0043 C   0  0  0  0  0  0  0  0  0  0  0  0
   24.0928   -9.4914  -22.7899 C   0  0  0  0  0  0  0  0  0  0  0  0
   23.2231   -8.4729  -22.5517 C   0  0  0  0  0  0  0  0  0  0  0  0
   22.4498   -8.2730  -23.6375 N   0  0  0  0  0  0  0  0  0  0  0  0
   22.8419   -9.1602  -24.5360 C   0  0  0  0  0  0  0  0  0  0  0  0
   23.8232   -9.9007  -24.0541 N   0  0  0  0  0  0  0  0  0  0  0  0
   23.9990  -10.0937  -19.8976 C   0  0  0  0  0  0  0  0  0  0  0  0
   22.9466   -9.3966  -20.0322 O   0  0  0  0  0  0  0  0  0  0  0  0
   23.9214  -11.2284  -19.1397 O   0  0  0  0  0  0  0  0  0  0  0  0
  2  1  1  6
  3  2  1  0
  3  4  1  0
  5  4  1  0
  5  6  1  0
  7  6  1  0
  8  9  2  0
  8  2  1  0
 11 10  1  1
 11 12  1  0
 11 13  1  0
 14 13  1  1
 14 15  1  0
 15  8  1  0
 16 18  1  0
 16 14  1  0
 17 16  2  0
 19 18  1  0
 19 26  1  0
 19 20  1  6
 20 21  1  0
 21 22  2  0
 22 23  1  0
 24 23  1  0
 25 21  1  0
 25 24  2  0
 26 28  1  0
 27 26  2  0
M  END
$$$$
