KLH.pdb
     RDKit          3D

 28 28  0  0  1  0  0  0  0  0999 V2000
   21.1994  -13.5349  -16.0160 N   0  0  0  0  0  0  0  0  0  0  0  0
   21.1489  -12.3057  -16.7395 C   0  0  1  0  0  0  0  0  0  0  0  0
   19.7412  -11.9917  -17.1957 C   0  0  0  0  0  0  0  0  0  0  0  0
   19.1203  -13.1279  -17.9437 C   0  0  0  0  0  0  0  0  0  0  0  0
   17.7615  -12.8250  -18.4952 C   0  0  0  0  0  0  0  0  0  0  0  0
   17.2223  -13.9374  -19.3634 C   0  0  0  0  0  0  0  0  0  0  0  0
   15.9307  -13.5101  -19.8706 N   0  0  0  0  0  0  0  0  0  0  0  0
   21.7245  -11.1812  -15.9474 C   0  0  0  0  0  0  0  0  0  0  0  0
   21.1495  -10.9041  -14.8717 O   0  0  0  0  0  0  0  0  0  0  0  0
   27.1457  -10.1640  -16.2843 C   0  0  0  0  0  0  0  0  0  0  0  0
   25.7005  -10.4931  -15.8809 C   0  0  1  0  0  0  0  0  0  0  0  0
   25.8351  -11.0455  -14.4575 C   0  0  0  0  0  0  0  0  0  0  0  0
   24.9515   -9.2088  -15.8966 C   0  0  0  0  0  0  0  0  0  0  0  0
   23.4544   -9.3477  -15.6854 C   0  0  2  0  0  0  0  0  0  0  0  0
   22.8456  -10.4487  -16.3477 N   0  0  0  0  0  0  0  0  0  0  0  0
   22.8120   -8.0474  -15.8918 C   0  0  0  0  0  0  0  0  0  0  0  0
   23.1974   -7.0375  -15.1927 O   0  0  0  0  0  0  0  0  0  0  0  0
   21.7867   -7.8106  -16.8132 N   0  0  0  0  0  0  0  0  0  0  0  0
   21.1454   -6.4652  -16.8717 C   0  0  1  0  0  0  0  0  0  0  0  0
   20.7551   -6.2899  -18.3088 C   0  0  0  0  0  0  0  0  0  0  0  0
   20.1312   -4.9892  -18.5907 C   0  0  0  0  0  0  0  0  0  0  0  0
   19.9948   -3.8442  -17.8689 C   0  0  0  0  0  0  0  0  0  0  0  0
   19.3854   -2.9047  -18.6190 N   0  0  0  0  0  0  0  0  0  0  0  0
   19.1504   -3.4670  -19.7924 C   0  0  0  0  0  0  0  0  0  0  0  0
   19.5870   -4.7131  -19.8015 N   0  0  0  0  0  0  0  0  0  0  0  0
   19.8719   -6.6120  -16.0841 C   0  0  0  0  0  0  0  0  0  0  0  0
   19.3858   -7.7809  -15.9892 O   0  0  0  0  0  0  0  0  0  0  0  0
   19.2041   -5.5902  -15.4694 O   0  0  0  0  0  0  0  0  0  0  0  0
  2  1  1  1
  3  2  1  0
  3  4  1  0
  5  4  1  0
  5  6  1  0
  7  6  1  0
  8  9  2  0
  8  2  1  0
 11 10  1  1
 11 12  1  0
 11 13  1  0
 14 13  1  6
 14 15  1  0
 15  8  1  0
 16 18  1  0
 16 14  1  0
 17 16  2  0
 19 18  1  0
 19 26  1  0
 19 20  1  6
 20 21  1  0
 21 22  2  0
 22 23  1  0
 24 23  1  0
 25 21  1  0
 25 24  2  0
 26 28  1  0
 27 26  2  0
M  END
$$$$
