KLH.pdb
     RDKit          3D

 28 28  0  0  1  0  0  0  0  0999 V2000
   13.0653  -12.4873    4.4787 N   0  0  0  0  0  0  0  0  0  0  0  0
   13.6787  -12.7345    5.7434 C   0  0  1  0  0  0  0  0  0  0  0  0
   12.8089  -13.6119    6.6162 C   0  0  0  0  0  0  0  0  0  0  0  0
   11.6446  -12.8679    7.1877 C   0  0  0  0  0  0  0  0  0  0  0  0
   10.8359  -13.6604    8.1676 C   0  0  0  0  0  0  0  0  0  0  0  0
    9.6907  -12.8694    8.7547 C   0  0  0  0  0  0  0  0  0  0  0  0
    9.0450  -13.7066    9.7499 N   0  0  0  0  0  0  0  0  0  0  0  0
   15.0440  -13.3123    5.5850 C   0  0  0  0  0  0  0  0  0  0  0  0
   15.1807  -14.1887    4.7031 O   0  0  0  0  0  0  0  0  0  0  0  0
   20.8490  -11.5498    6.4936 C   0  0  0  0  0  0  0  0  0  0  0  0
   19.9457  -12.7888    6.4022 C   0  0  1  0  0  0  0  0  0  0  0  0
   20.3229  -13.6084    7.6412 C   0  0  0  0  0  0  0  0  0  0  0  0
   18.5437  -12.2998    6.4805 C   0  0  0  0  0  0  0  0  0  0  0  0
   17.4885  -13.3673    6.2519 C   0  0  2  0  0  0  0  0  0  0  0  0
   16.1415  -12.9249    6.3591 N   0  0  0  0  0  0  0  0  0  0  0  0
   17.8290  -14.5613    7.0293 C   0  0  0  0  0  0  0  0  0  0  0  0
   17.6326  -14.5606    8.3016 O   0  0  0  0  0  0  0  0  0  0  0  0
   18.3640  -15.7329    6.4836 N   0  0  0  0  0  0  0  0  0  0  0  0
   18.4682  -16.9578    7.3282 C   0  0  1  0  0  0  0  0  0  0  0  0
   18.5157  -18.0934    6.3502 C   0  0  0  0  0  0  0  0  0  0  0  0
   17.1940  -18.6622    6.0499 C   0  0  0  0  0  0  0  0  0  0  0  0
   15.9343  -18.3673    6.4705 C   0  0  0  0  0  0  0  0  0  0  0  0
   15.0471  -19.1604    5.8375 N   0  0  0  0  0  0  0  0  0  0  0  0
   15.7553  -19.9353    5.0337 C   0  0  0  0  0  0  0  0  0  0  0  0
   17.0416  -19.6572    5.1416 N   0  0  0  0  0  0  0  0  0  0  0  0
   19.8273  -16.8696    7.9672 C   0  0  0  0  0  0  0  0  0  0  0  0
   20.5596  -15.8894    7.6285 O   0  0  0  0  0  0  0  0  0  0  0  0
   20.3292  -17.7583    8.8762 O   0  0  0  0  0  0  0  0  0  0  0  0
  2  1  1  6
  3  2  1  0
  3  4  1  0
  5  4  1  0
  5  6  1  0
  7  6  1  0
  8  9  2  0
  8  2  1  0
 11 10  1  1
 11 12  1  0
 11 13  1  0
 14 13  1  1
 14 15  1  0
 15  8  1  0
 16 18  1  0
 16 14  1  0
 17 16  2  0
 19 18  1  0
 19 26  1  0
 19 20  1  6
 20 21  1  0
 21 22  2  0
 22 23  1  0
 24 23  1  0
 25 21  1  0
 25 24  2  0
 26 28  1  0
 27 26  2  0
M  END
$$$$
