KLH.pdb
     RDKit          3D

 28 28  0  0  1  0  0  0  0  0999 V2000
   24.5797  -18.3382  -19.3857 N   0  0  0  0  0  0  0  0  0  0  0  0
   23.6569  -19.3941  -19.1204 C   0  0  1  0  0  0  0  0  0  0  0  0
   23.8923  -20.5752  -20.0356 C   0  0  0  0  0  0  0  0  0  0  0  0
   24.1690  -20.1558  -21.4439 C   0  0  0  0  0  0  0  0  0  0  0  0
   25.3790  -20.8007  -22.0459 C   0  0  0  0  0  0  0  0  0  0  0  0
   25.6681  -20.3089  -23.4446 C   0  0  0  0  0  0  0  0  0  0  0  0
   26.8338  -21.0263  -23.9289 N   0  0  0  0  0  0  0  0  0  0  0  0
   23.6928  -19.8041  -17.6874 C   0  0  0  0  0  0  0  0  0  0  0  0
   22.9712  -20.7738  -17.3657 O   0  0  0  0  0  0  0  0  0  0  0  0
   28.1449  -18.4870  -14.5193 C   0  0  0  0  0  0  0  0  0  0  0  0
   27.0373  -19.1880  -15.3202 C   0  0  1  0  0  0  0  0  0  0  0  0
   27.4156  -20.6714  -15.2459 C   0  0  0  0  0  0  0  0  0  0  0  0
   25.7607  -18.9166  -14.6081 C   0  0  0  0  0  0  0  0  0  0  0  0
   24.5192  -19.4202  -15.3224 C   0  0  2  0  0  0  0  0  0  0  0  0
   24.4765  -19.1673  -16.7209 N   0  0  0  0  0  0  0  0  0  0  0  0
   23.3288  -19.0208  -14.5678 C   0  0  0  0  0  0  0  0  0  0  0  0
   23.4526  -18.1925  -13.5901 O   0  0  0  0  0  0  0  0  0  0  0  0
   22.0346  -19.4801  -14.8333 N   0  0  0  0  0  0  0  0  0  0  0  0
   20.8845  -18.9288  -14.0599 C   0  0  1  0  0  0  0  0  0  0  0  0
   20.7460  -17.5141  -14.5371 C   0  0  0  0  0  0  0  0  0  0  0  0
   19.5624  -16.8286  -13.9986 C   0  0  0  0  0  0  0  0  0  0  0  0
   18.6007  -17.1898  -13.1068 C   0  0  0  0  0  0  0  0  0  0  0  0
   17.7572  -16.1578  -12.9063 N   0  0  0  0  0  0  0  0  0  0  0  0
   18.1974  -15.1702  -13.6673 C   0  0  0  0  0  0  0  0  0  0  0  0
   19.2759  -15.5456  -14.3303 N   0  0  0  0  0  0  0  0  0  0  0  0
   19.6848  -19.6835  -14.5648 C   0  0  0  0  0  0  0  0  0  0  0  0
   19.8640  -20.4471  -15.5630 O   0  0  0  0  0  0  0  0  0  0  0  0
   18.4273  -19.6086  -14.0350 O   0  0  0  0  0  0  0  0  0  0  0  0
  2  1  1  1
  3  2  1  0
  3  4  1  0
  5  4  1  0
  5  6  1  0
  7  6  1  0
  8  9  2  0
  8  2  1  0
 11 10  1  1
 11 12  1  0
 11 13  1  0
 14 13  1  1
 14 15  1  0
 15  8  1  0
 16 18  1  0
 16 14  1  0
 17 16  2  0
 19 18  1  0
 19 26  1  0
 19 20  1  6
 20 21  1  0
 21 22  2  0
 22 23  1  0
 24 23  1  0
 25 21  1  0
 25 24  2  0
 26 28  1  0
 27 26  2  0
M  END
$$$$
