WLK.pdb
     RDKit          3D

 32 33  0  0  1  0  0  0  0  0999 V2000
   28.0916  -20.6855  -10.0139 N   0  0  0  0  0  0  0  0  0  0  0  0
   26.7662  -21.0286   -9.4699 C   0  0  1  0  0  0  0  0  0  0  0  0
   26.6421  -20.3312   -8.1033 C   0  0  0  0  0  0  0  0  0  0  0  0
   27.9305  -20.4869   -7.3892 C   0  0  0  0  0  0  0  0  0  0  0  0
   29.0970  -21.0848   -7.8726 C   0  0  0  0  0  0  0  0  0  0  0  0
   30.0227  -21.0196   -6.9096 N   0  0  0  0  0  0  0  0  0  0  0  0
   29.5495  -20.4174   -5.8172 C   0  0  0  0  0  0  0  0  0  0  0  0
   30.1162  -20.1252   -4.6027 C   0  0  0  0  0  0  0  0  0  0  0  0
   29.3314  -19.4764   -3.6668 C   0  0  0  0  0  0  0  0  0  0  0  0
   28.0102  -19.1186   -3.9162 C   0  0  0  0  0  0  0  0  0  0  0  0
   27.4827  -19.4322   -5.1501 C   0  0  0  0  0  0  0  0  0  0  0  0
   28.2447  -20.0787   -6.0999 C   0  0  0  0  0  0  0  0  0  0  0  0
   25.7360  -20.4288  -10.3580 C   0  0  0  0  0  0  0  0  0  0  0  0
   25.2673  -19.2650  -10.1432 O   0  0  0  0  0  0  0  0  0  0  0  0
   28.3446  -21.2115  -14.8340 C   0  0  0  0  0  0  0  0  0  0  0  0
   27.4969  -20.5340  -13.7476 C   0  0  1  0  0  0  0  0  0  0  0  0
   27.4927  -19.0603  -14.1431 C   0  0  0  0  0  0  0  0  0  0  0  0
   26.1305  -21.1133  -13.7483 C   0  0  0  0  0  0  0  0  0  0  0  0
   25.1663  -20.5413  -12.7537 C   0  0  2  0  0  0  0  0  0  0  0  0
   25.2765  -21.1896  -11.4672 N   0  0  0  0  0  0  0  0  0  0  0  0
   23.7593  -20.6606  -13.2813 C   0  0  0  0  0  0  0  0  0  0  0  0
   23.4468  -20.2658  -14.4297 O   0  0  0  0  0  0  0  0  0  0  0  0
   22.7399  -21.2281  -12.4896 N   0  0  0  0  0  0  0  0  0  0  0  0
   21.3721  -21.2850  -13.0279 C   0  0  1  0  0  0  0  0  0  0  0  0
   20.9798  -19.8985  -13.5008 C   0  0  0  0  0  0  0  0  0  0  0  0
   19.5535  -19.8375  -13.8883 C   0  0  0  0  0  0  0  0  0  0  0  0
   19.2162  -18.3693  -14.2415 C   0  0  0  0  0  0  0  0  0  0  0  0
   17.7751  -18.3687  -14.6899 C   0  0  0  0  0  0  0  0  0  0  0  0
   17.3630  -16.9877  -14.7769 N   0  0  0  0  0  0  0  0  0  0  0  0
   21.3620  -22.2219  -14.1524 C   0  0  0  0  0  0  0  0  0  0  0  0
   20.5928  -23.3560  -14.1335 O   0  0  0  0  0  0  0  0  0  0  0  0
   22.0726  -21.9908  -15.1592 O   0  0  0  0  0  0  0  0  0  0  0  0
  2  1  1  6
  3  2  1  0
  3  4  1  0
  4 12  1  0
  4  5  2  0
  5  6  1  0
  7  8  2  0
  7  6  1  0
  9  8  1  0
 10  9  2  0
 11 10  1  0
 11 12  2  0
 12  7  1  0
 13  2  1  0
 14 13  2  0
 16 15  1  6
 16 18  1  0
 16 17  1  0
 19 18  1  6
 19 21  1  0
 19 20  1  0
 20 13  1  0
 21 23  1  0
 22 21  2  0
 23 24  1  0
 24 30  1  0
 24 25  1  6
 25 26  1  0
 27 26  1  0
 28 27  1  0
 29 28  1  0
 30 32  2  0
 30 31  1  0
M  END
$$$$
