WLK.pdb
     RDKit          3D

 32 33  0  0  1  0  0  0  0  0999 V2000
   27.9747  -20.8514  -10.3208 N   0  0  0  0  0  0  0  0  0  0  0  0
   26.5941  -21.1598   -9.9094 C   0  0  1  0  0  0  0  0  0  0  0  0
   26.4968  -20.8776   -8.3994 C   0  0  0  0  0  0  0  0  0  0  0  0
   27.8706  -20.8599   -7.8456 C   0  0  0  0  0  0  0  0  0  0  0  0
   29.0429  -21.2751   -8.4821 C   0  0  0  0  0  0  0  0  0  0  0  0
   30.0591  -21.0955   -7.6314 N   0  0  0  0  0  0  0  0  0  0  0  0
   29.6405  -20.5879   -6.4707 C   0  0  0  0  0  0  0  0  0  0  0  0
   30.3021  -20.2400   -5.3207 C   0  0  0  0  0  0  0  0  0  0  0  0
   29.5520  -19.7283   -4.2775 C   0  0  0  0  0  0  0  0  0  0  0  0
   28.1734  -19.5593   -4.3590 C   0  0  0  0  0  0  0  0  0  0  0  0
   27.5510  -19.9224   -5.5336 C   0  0  0  0  0  0  0  0  0  0  0  0
   28.2767  -20.4349   -6.5878 C   0  0  0  0  0  0  0  0  0  0  0  0
   25.6868  -20.1987  -10.5897 C   0  0  0  0  0  0  0  0  0  0  0  0
   25.3743  -19.0859  -10.0561 O   0  0  0  0  0  0  0  0  0  0  0  0
   27.0214  -19.6009  -15.6987 C   0  0  0  0  0  0  0  0  0  0  0  0
   27.5231  -18.9789  -14.3876 C   0  0  1  0  0  0  0  0  0  0  0  0
   26.9464  -17.5663  -14.4006 C   0  0  0  0  0  0  0  0  0  0  0  0
   27.0240  -19.7722  -13.2367 C   0  0  0  0  0  0  0  0  0  0  0  0
   25.5427  -19.7532  -13.0098 C   0  0  2  0  0  0  0  0  0  0  0  0
   25.1662  -20.5498  -11.8648 N   0  0  0  0  0  0  0  0  0  0  0  0
   24.8316  -20.2435  -14.2453 C   0  0  0  0  0  0  0  0  0  0  0  0
   24.5833  -19.4842  -15.2119 O   0  0  0  0  0  0  0  0  0  0  0  0
   24.4205  -21.5878  -14.3528 N   0  0  0  0  0  0  0  0  0  0  0  0
   22.9809  -21.8901  -14.3733 C   0  0  1  0  0  0  0  0  0  0  0  0
   22.5146  -22.1222  -12.9490 C   0  0  0  0  0  0  0  0  0  0  0  0
   21.1183  -22.6083  -12.9045 C   0  0  0  0  0  0  0  0  0  0  0  0
   20.4485  -22.0239  -11.6380 C   0  0  0  0  0  0  0  0  0  0  0  0
   19.0316  -22.5437  -11.6379 C   0  0  0  0  0  0  0  0  0  0  0  0
   18.3713  -21.9630  -10.4928 N   0  0  0  0  0  0  0  0  0  0  0  0
   22.2810  -20.7419  -14.9513 C   0  0  0  0  0  0  0  0  0  0  0  0
   21.5590  -20.8521  -16.1109 O   0  0  0  0  0  0  0  0  0  0  0  0
   22.3401  -19.6272  -14.3803 O   0  0  0  0  0  0  0  0  0  0  0  0
  2  1  1  6
  3  2  1  0
  3  4  1  0
  4 12  1  0
  4  5  2  0
  5  6  1  0
  7  8  2  0
  7  6  1  0
  9  8  1  0
 10  9  2  0
 11 10  1  0
 11 12  2  0
 12  7  1  0
 13  2  1  0
 14 13  2  0
 16 15  1  6
 16 18  1  0
 16 17  1  0
 19 18  1  6
 19 21  1  0
 19 20  1  0
 20 13  1  0
 21 23  1  0
 22 21  2  0
 23 24  1  0
 24 30  1  0
 24 25  1  1
 25 26  1  0
 27 26  1  0
 28 27  1  0
 29 28  1  0
 30 32  2  0
 30 31  1  0
M  END
$$$$
