WLK.pdb
     RDKit          3D

 32 33  0  0  1  0  0  0  0  0999 V2000
   27.8421  -21.5473   -9.8611 N   0  0  0  0  0  0  0  0  0  0  0  0
   26.6437  -20.8974   -9.3028 C   0  0  1  0  0  0  0  0  0  0  0  0
   27.1171  -19.6378   -8.5553 C   0  0  0  0  0  0  0  0  0  0  0  0
   28.3068  -20.0007   -7.7509 C   0  0  0  0  0  0  0  0  0  0  0  0
   29.4458  -20.6817   -8.1878 C   0  0  0  0  0  0  0  0  0  0  0  0
   30.2755  -20.8068   -7.1464 N   0  0  0  0  0  0  0  0  0  0  0  0
   29.7641  -20.2537   -6.0452 C   0  0  0  0  0  0  0  0  0  0  0  0
   30.2378  -20.1358   -4.7634 C   0  0  0  0  0  0  0  0  0  0  0  0
   29.4381  -19.4876   -3.8398 C   0  0  0  0  0  0  0  0  0  0  0  0
   28.1919  -18.9621   -4.1665 C   0  0  0  0  0  0  0  0  0  0  0  0
   27.7567  -19.1039   -5.4663 C   0  0  0  0  0  0  0  0  0  0  0  0
   28.5355  -19.7460   -6.4053 C   0  0  0  0  0  0  0  0  0  0  0  0
   25.8002  -20.4373  -10.4371 C   0  0  0  0  0  0  0  0  0  0  0  0
   24.8188  -19.6463  -10.2593 O   0  0  0  0  0  0  0  0  0  0  0  0
   28.0656  -19.6781  -15.5000 C   0  0  0  0  0  0  0  0  0  0  0  0
   27.2637  -19.4342  -14.2134 C   0  0  1  0  0  0  0  0  0  0  0  0
   26.7591  -18.0011  -14.3549 C   0  0  0  0  0  0  0  0  0  0  0  0
   26.1486  -20.4100  -14.1288 C   0  0  0  0  0  0  0  0  0  0  0  0
   25.3504  -20.3977  -12.8604 C   0  0  2  0  0  0  0  0  0  0  0  0
   26.1133  -20.9037  -11.7427 N   0  0  0  0  0  0  0  0  0  0  0  0
   24.0909  -21.2056  -13.0432 C   0  0  0  0  0  0  0  0  0  0  0  0
   24.1224  -22.4223  -13.3450 O   0  0  0  0  0  0  0  0  0  0  0  0
   22.8239  -20.6100  -12.8770 N   0  0  0  0  0  0  0  0  0  0  0  0
   21.6335  -21.4735  -12.8373 C   0  0  1  0  0  0  0  0  0  0  0  0
   20.8915  -21.2158  -11.5401 C   0  0  0  0  0  0  0  0  0  0  0  0
   19.6780  -22.0545  -11.4298 C   0  0  0  0  0  0  0  0  0  0  0  0
   19.7684  -22.8554  -10.1090 C   0  0  0  0  0  0  0  0  0  0  0  0
   18.5469  -23.7412  -10.0738 C   0  0  0  0  0  0  0  0  0  0  0  0
   18.6149  -24.5017   -8.8485 N   0  0  0  0  0  0  0  0  0  0  0  0
   20.7837  -21.1331  -13.9794 C   0  0  0  0  0  0  0  0  0  0  0  0
   19.9746  -22.0659  -14.5739 O   0  0  0  0  0  0  0  0  0  0  0  0
   20.7919  -19.9641  -14.4325 O   0  0  0  0  0  0  0  0  0  0  0  0
  2  1  1  6
  3  2  1  0
  3  4  1  0
  4 12  1  0
  4  5  2  0
  5  6  1  0
  7  8  2  0
  7  6  1  0
  9  8  1  0
 10  9  2  0
 11 10  1  0
 11 12  2  0
 12  7  1  0
 13  2  1  0
 14 13  2  0
 16 15  1  6
 16 18  1  0
 16 17  1  0
 19 18  1  6
 19 21  1  0
 19 20  1  0
 20 13  1  0
 21 23  1  0
 22 21  2  0
 23 24  1  0
 24 30  1  0
 24 25  1  1
 25 26  1  0
 27 26  1  0
 28 27  1  0
 29 28  1  0
 30 32  2  0
 30 31  1  0
M  END
$$$$
