WLK.pdb
     RDKit          3D

 32 33  0  0  1  0  0  0  0  0999 V2000
   26.9717  -19.8767  -17.2006 N   0  0  0  0  0  0  0  0  0  0  0  0
   27.0334  -19.1207  -15.9377 C   0  0  1  0  0  0  0  0  0  0  0  0
   25.6858  -18.3944  -15.7773 C   0  0  0  0  0  0  0  0  0  0  0  0
   25.6757  -17.2353  -16.6996 C   0  0  0  0  0  0  0  0  0  0  0  0
   25.0079  -17.1353  -17.9227 C   0  0  0  0  0  0  0  0  0  0  0  0
   25.2650  -15.9268  -18.4346 N   0  0  0  0  0  0  0  0  0  0  0  0
   26.0597  -15.2157  -17.6328 C   0  0  0  0  0  0  0  0  0  0  0  0
   26.5815  -13.9512  -17.7320 C   0  0  0  0  0  0  0  0  0  0  0  0
   27.3871  -13.5056  -16.6998 C   0  0  0  0  0  0  0  0  0  0  0  0
   27.6777  -14.2872  -15.5860 C   0  0  0  0  0  0  0  0  0  0  0  0
   27.1315  -15.5510  -15.5291 C   0  0  0  0  0  0  0  0  0  0  0  0
   26.3254  -16.0181  -16.5453 C   0  0  0  0  0  0  0  0  0  0  0  0
   27.1350  -20.0978  -14.8220 C   0  0  0  0  0  0  0  0  0  0  0  0
   26.4810  -21.1899  -14.8315 O   0  0  0  0  0  0  0  0  0  0  0  0
   29.2132  -22.5762  -10.5648 C   0  0  0  0  0  0  0  0  0  0  0  0
   29.0100  -21.0756  -10.3110 C   0  0  1  0  0  0  0  0  0  0  0  0
   30.1781  -20.6887   -9.4086 C   0  0  0  0  0  0  0  0  0  0  0  0
   29.0389  -20.3435  -11.6017 C   0  0  0  0  0  0  0  0  0  0  0  0
   27.8730  -20.5653  -12.5170 C   0  0  2  0  0  0  0  0  0  0  0  0
   27.9875  -19.7861  -13.7282 N   0  0  0  0  0  0  0  0  0  0  0  0
   26.5906  -20.2310  -11.7987 C   0  0  0  0  0  0  0  0  0  0  0  0
   26.1175  -19.0697  -11.7936 O   0  0  0  0  0  0  0  0  0  0  0  0
   25.8750  -21.2270  -11.1033 N   0  0  0  0  0  0  0  0  0  0  0  0
   24.4835  -20.9570  -10.7097 C   0  0  1  0  0  0  0  0  0  0  0  0
   23.5614  -21.5173  -11.7754 C   0  0  0  0  0  0  0  0  0  0  0  0
   22.1387  -21.2889  -11.4410 C   0  0  0  0  0  0  0  0  0  0  0  0
   21.2809  -21.8095  -12.6188 C   0  0  0  0  0  0  0  0  0  0  0  0
   19.8476  -21.5051  -12.2574 C   0  0  0  0  0  0  0  0  0  0  0  0
   19.0207  -22.1056  -13.2773 N   0  0  0  0  0  0  0  0  0  0  0  0
   24.2339  -21.6202   -9.4289 C   0  0  0  0  0  0  0  0  0  0  0  0
   25.2580  -22.1310   -8.6748 O   0  0  0  0  0  0  0  0  0  0  0  0
   23.0590  -21.7304   -9.0056 O   0  0  0  0  0  0  0  0  0  0  0  0
  2  1  1  6
  3  2  1  0
  3  4  1  0
  4 12  1  0
  4  5  2  0
  5  6  1  0
  7  8  2  0
  7  6  1  0
  9  8  1  0
 10  9  2  0
 11 10  1  0
 11 12  2  0
 12  7  1  0
 13  2  1  0
 14 13  2  0
 16 15  1  6
 16 18  1  0
 16 17  1  0
 19 18  1  1
 19 21  1  0
 19 20  1  0
 20 13  1  0
 21 23  1  0
 22 21  2  0
 23 24  1  0
 24 30  1  0
 24 25  1  6
 25 26  1  0
 27 26  1  0
 28 27  1  0
 29 28  1  0
 30 32  2  0
 30 31  1  0
M  END
$$$$
