WLK.pdb
     RDKit          3D

 32 33  0  0  1  0  0  0  0  0999 V2000
   27.1937  -21.4351   -8.9641 N   0  0  0  0  0  0  0  0  0  0  0  0
   25.8901  -20.7499   -9.0035 C   0  0  1  0  0  0  0  0  0  0  0  0
   25.9863  -19.5367   -8.0610 C   0  0  0  0  0  0  0  0  0  0  0  0
   27.3510  -19.5088   -7.4856 C   0  0  0  0  0  0  0  0  0  0  0  0
   28.5476  -19.2586   -8.1620 C   0  0  0  0  0  0  0  0  0  0  0  0
   29.5453  -19.3317   -7.2746 N   0  0  0  0  0  0  0  0  0  0  0  0
   29.0918  -19.6139   -6.0519 C   0  0  0  0  0  0  0  0  0  0  0  0
   29.7244  -19.7834   -4.8467 C   0  0  0  0  0  0  0  0  0  0  0  0
   28.9406  -20.0738   -3.7448 C   0  0  0  0  0  0  0  0  0  0  0  0
   27.5568  -20.1963   -3.8217 C   0  0  0  0  0  0  0  0  0  0  0  0
   26.9644  -20.0178   -5.0530 C   0  0  0  0  0  0  0  0  0  0  0  0
   27.7240  -19.7277   -6.1663 C   0  0  0  0  0  0  0  0  0  0  0  0
   25.6926  -20.2173  -10.3772 C   0  0  0  0  0  0  0  0  0  0  0  0
   25.3737  -19.0019  -10.5809 O   0  0  0  0  0  0  0  0  0  0  0  0
   28.8992  -21.3774  -14.7251 C   0  0  0  0  0  0  0  0  0  0  0  0
   27.9794  -20.5708  -13.7972 C   0  0  1  0  0  0  0  0  0  0  0  0
   27.9770  -19.1694  -14.4010 C   0  0  0  0  0  0  0  0  0  0  0  0
   26.6240  -21.1753  -13.7909 C   0  0  0  0  0  0  0  0  0  0  0  0
   25.6454  -20.6009  -12.8118 C   0  0  2  0  0  0  0  0  0  0  0  0
   25.8681  -21.1025  -11.4753 N   0  0  0  0  0  0  0  0  0  0  0  0
   24.2386  -20.9074  -13.2582 C   0  0  0  0  0  0  0  0  0  0  0  0
   23.8643  -20.7243  -14.4410 O   0  0  0  0  0  0  0  0  0  0  0  0
   23.2898  -21.4164  -12.3480 N   0  0  0  0  0  0  0  0  0  0  0  0
   21.9049  -21.6140  -12.8028 C   0  0  1  0  0  0  0  0  0  0  0  0
   21.1407  -22.3525  -11.7210 C   0  0  0  0  0  0  0  0  0  0  0  0
   19.7422  -22.6166  -12.1243 C   0  0  0  0  0  0  0  0  0  0  0  0
   19.0627  -23.4248  -10.9933 C   0  0  0  0  0  0  0  0  0  0  0  0
   17.6599  -23.7118  -11.4705 C   0  0  0  0  0  0  0  0  0  0  0  0
   16.9752  -24.3758  -10.3867 N   0  0  0  0  0  0  0  0  0  0  0  0
   21.3070  -20.2978  -13.0321 C   0  0  0  0  0  0  0  0  0  0  0  0
   20.3681  -20.0976  -14.0102 O   0  0  0  0  0  0  0  0  0  0  0  0
   21.6580  -19.3247  -12.3237 O   0  0  0  0  0  0  0  0  0  0  0  0
  2  1  1  6
  3  2  1  0
  3  4  1  0
  4 12  1  0
  4  5  2  0
  5  6  1  0
  7  8  2  0
  7  6  1  0
  9  8  1  0
 10  9  2  0
 11 10  1  0
 11 12  2  0
 12  7  1  0
 13  2  1  0
 14 13  2  0
 16 15  1  6
 16 18  1  0
 16 17  1  0
 19 18  1  6
 19 21  1  0
 19 20  1  0
 20 13  1  0
 21 23  1  0
 22 21  2  0
 23 24  1  0
 24 30  1  0
 24 25  1  1
 25 26  1  0
 27 26  1  0
 28 27  1  0
 29 28  1  0
 30 32  2  0
 30 31  1  0
M  END
$$$$
