WLK.pdb
     RDKit          3D

 32 33  0  0  1  0  0  0  0  0999 V2000
   26.1569  -19.7155  -11.7542 N   0  0  0  0  0  0  0  0  0  0  0  0
   26.0557  -21.1850  -11.7289 C   0  0  1  0  0  0  0  0  0  0  0  0
   25.4111  -21.5724  -10.3858 C   0  0  0  0  0  0  0  0  0  0  0  0
   26.2487  -21.0180   -9.2971 C   0  0  0  0  0  0  0  0  0  0  0  0
   25.8086  -20.3863   -8.1313 C   0  0  0  0  0  0  0  0  0  0  0  0
   26.8862  -20.0351   -7.4213 N   0  0  0  0  0  0  0  0  0  0  0  0
   28.0146  -20.3915   -8.0376 C   0  0  0  0  0  0  0  0  0  0  0  0
   29.3369  -20.2478   -7.7028 C   0  0  0  0  0  0  0  0  0  0  0  0
   30.2806  -20.7423   -8.5846 C   0  0  0  0  0  0  0  0  0  0  0  0
   29.9346  -21.3689   -9.7777 C   0  0  0  0  0  0  0  0  0  0  0  0
   28.5941  -21.4911  -10.0728 C   0  0  0  0  0  0  0  0  0  0  0  0
   27.6343  -21.0062   -9.2100 C   0  0  0  0  0  0  0  0  0  0  0  0
   25.1104  -21.5987  -12.7990 C   0  0  0  0  0  0  0  0  0  0  0  0
   24.2504  -20.7910  -13.2768 O   0  0  0  0  0  0  0  0  0  0  0  0
   26.6976  -25.6417  -16.5297 C   0  0  0  0  0  0  0  0  0  0  0  0
   26.2317  -24.2947  -15.9585 C   0  0  1  0  0  0  0  0  0  0  0  0
   25.9658  -23.4384  -17.1932 C   0  0  0  0  0  0  0  0  0  0  0  0
   25.0055  -24.4950  -15.1467 C   0  0  0  0  0  0  0  0  0  0  0  0
   24.4453  -23.2762  -14.4783 C   0  0  2  0  0  0  0  0  0  0  0  0
   25.1846  -22.9321  -13.2857 N   0  0  0  0  0  0  0  0  0  0  0  0
   22.9918  -23.4994  -14.1471 C   0  0  0  0  0  0  0  0  0  0  0  0
   22.6351  -24.1446  -13.1327 O   0  0  0  0  0  0  0  0  0  0  0  0
   21.9770  -22.9819  -14.9778 N   0  0  0  0  0  0  0  0  0  0  0  0
   20.5728  -23.1559  -14.5753 C   0  0  1  0  0  0  0  0  0  0  0  0
   19.7579  -22.0164  -15.1561 C   0  0  0  0  0  0  0  0  0  0  0  0
   18.3286  -22.1266  -14.7914 C   0  0  0  0  0  0  0  0  0  0  0  0
   17.5642  -20.9844  -15.5021 C   0  0  0  0  0  0  0  0  0  0  0  0
   16.6564  -20.3783  -14.4598 C   0  0  0  0  0  0  0  0  0  0  0  0
   16.9433  -18.9638  -14.4244 N   0  0  0  0  0  0  0  0  0  0  0  0
   20.1001  -24.4350  -15.1072 C   0  0  0  0  0  0  0  0  0  0  0  0
   20.7181  -25.0418  -16.1693 O   0  0  0  0  0  0  0  0  0  0  0  0
   19.1057  -24.9941  -14.5870 O   0  0  0  0  0  0  0  0  0  0  0  0
  2  1  1  1
  3  2  1  0
  3  4  1  0
  4 12  1  0
  4  5  2  0
  5  6  1  0
  7  8  2  0
  7  6  1  0
  9  8  1  0
 10  9  2  0
 11 10  1  0
 11 12  2  0
 12  7  1  0
 13  2  1  0
 14 13  2  0
 16 15  1  6
 16 18  1  0
 16 17  1  0
 19 18  1  1
 19 21  1  0
 19 20  1  0
 20 13  1  0
 21 23  1  0
 22 21  2  0
 23 24  1  0
 24 30  1  0
 24 25  1  6
 25 26  1  0
 27 26  1  0
 28 27  1  0
 29 28  1  0
 30 32  2  0
 30 31  1  0
M  END
$$$$
