WLK.pdb
     RDKit          3D

 32 33  0  0  1  0  0  0  0  0999 V2000
   28.9191  -21.7273  -10.5951 N   0  0  0  0  0  0  0  0  0  0  0  0
   27.5763  -21.3206  -10.1459 C   0  0  1  0  0  0  0  0  0  0  0  0
   27.7183  -19.9374   -9.4856 C   0  0  0  0  0  0  0  0  0  0  0  0
   28.6340  -20.0720   -8.3291 C   0  0  0  0  0  0  0  0  0  0  0  0
   30.0217  -20.2300   -8.3647 C   0  0  0  0  0  0  0  0  0  0  0  0
   30.4588  -20.3167   -7.1038 N   0  0  0  0  0  0  0  0  0  0  0  0
   29.4536  -20.2267   -6.2311 C   0  0  0  0  0  0  0  0  0  0  0  0
   29.4124  -20.2602   -4.8605 C   0  0  0  0  0  0  0  0  0  0  0  0
   28.1770  -20.1350   -4.2514 C   0  0  0  0  0  0  0  0  0  0  0  0
   26.9983  -19.9789   -4.9741 C   0  0  0  0  0  0  0  0  0  0  0  0
   27.0878  -19.9508   -6.3489 C   0  0  0  0  0  0  0  0  0  0  0  0
   28.3076  -20.0737   -6.9796 C   0  0  0  0  0  0  0  0  0  0  0  0
   26.7239  -21.1409  -11.3504 C   0  0  0  0  0  0  0  0  0  0  0  0
   27.1427  -20.5119  -12.3748 O   0  0  0  0  0  0  0  0  0  0  0  0
   24.3418  -22.9196  -15.3894 C   0  0  0  0  0  0  0  0  0  0  0  0
   23.4135  -23.1816  -14.1947 C   0  0  1  0  0  0  0  0  0  0  0  0
   22.9040  -24.6017  -14.4231 C   0  0  0  0  0  0  0  0  0  0  0  0
   24.1826  -23.0638  -12.9308 C   0  0  0  0  0  0  0  0  0  0  0  0
   24.6486  -21.6876  -12.5629 C   0  0  2  0  0  0  0  0  0  0  0  0
   25.4135  -21.6912  -11.3373 N   0  0  0  0  0  0  0  0  0  0  0  0
   23.4631  -20.7649  -12.4376 C   0  0  0  0  0  0  0  0  0  0  0  0
   22.7509  -20.7380  -11.4059 O   0  0  0  0  0  0  0  0  0  0  0  0
   23.1162  -19.8927  -13.4895 N   0  0  0  0  0  0  0  0  0  0  0  0
   21.9960  -18.9588  -13.2968 C   0  0  1  0  0  0  0  0  0  0  0  0
   21.9674  -17.9898  -14.4630 C   0  0  0  0  0  0  0  0  0  0  0  0
   20.8286  -18.2588  -15.3680 C   0  0  0  0  0  0  0  0  0  0  0  0
   20.9367  -17.2937  -16.5726 C   0  0  0  0  0  0  0  0  0  0  0  0
   19.7377  -17.5782  -17.4439 C   0  0  0  0  0  0  0  0  0  0  0  0
   19.8373  -16.7090  -18.5924 N   0  0  0  0  0  0  0  0  0  0  0  0
   20.7556  -19.7350  -13.2568 C   0  0  0  0  0  0  0  0  0  0  0  0
   20.6678  -20.9758  -13.8320 O   0  0  0  0  0  0  0  0  0  0  0  0
   19.7444  -19.2603  -12.6875 O   0  0  0  0  0  0  0  0  0  0  0  0
  2  1  1  6
  3  2  1  0
  3  4  1  0
  4 12  1  0
  4  5  2  0
  5  6  1  0
  7  8  2  0
  7  6  1  0
  9  8  1  0
 10  9  2  0
 11 10  1  0
 11 12  2  0
 12  7  1  0
 13  2  1  0
 14 13  2  0
 16 15  1  6
 16 18  1  0
 16 17  1  0
 19 18  1  1
 19 21  1  0
 19 20  1  0
 20 13  1  0
 21 23  1  0
 22 21  2  0
 23 24  1  0
 24 30  1  0
 24 25  1  6
 25 26  1  0
 27 26  1  0
 28 27  1  0
 29 28  1  0
 30 32  2  0
 30 31  1  0
M  END
$$$$
