WLK.pdb
     RDKit          3D

 32 33  0  0  1  0  0  0  0  0999 V2000
   25.2035  -21.3826   -8.9934 N   0  0  0  0  0  0  0  0  0  0  0  0
   25.5002  -19.9657   -9.2665 C   0  0  1  0  0  0  0  0  0  0  0  0
   26.8602  -19.6534   -8.6166 C   0  0  0  0  0  0  0  0  0  0  0  0
   26.7549  -19.9442   -7.1679 C   0  0  0  0  0  0  0  0  0  0  0  0
   25.6942  -20.5688   -6.5070 C   0  0  0  0  0  0  0  0  0  0  0  0
   25.9990  -20.6312   -5.2063 N   0  0  0  0  0  0  0  0  0  0  0  0
   27.1928  -20.0896   -4.9579 C   0  0  0  0  0  0  0  0  0  0  0  0
   27.9129  -19.9278   -3.8018 C   0  0  0  0  0  0  0  0  0  0  0  0
   29.1478  -19.3120   -3.8948 C   0  0  0  0  0  0  0  0  0  0  0  0
   29.6706  -18.8610   -5.1027 C   0  0  0  0  0  0  0  0  0  0  0  0
   28.9121  -19.0449   -6.2384 C   0  0  0  0  0  0  0  0  0  0  0  0
   27.6780  -19.6559   -6.1718 C   0  0  0  0  0  0  0  0  0  0  0  0
   25.6744  -19.8076  -10.7343 C   0  0  0  0  0  0  0  0  0  0  0  0
   26.1121  -18.7246  -11.2402 O   0  0  0  0  0  0  0  0  0  0  0  0
   28.7816  -21.8381  -14.2129 C   0  0  0  0  0  0  0  0  0  0  0  0
   27.7821  -20.9553  -13.4517 C   0  0  1  0  0  0  0  0  0  0  0  0
   28.0117  -19.5577  -14.0195 C   0  0  0  0  0  0  0  0  0  0  0  0
   26.4007  -21.4367  -13.7021 C   0  0  0  0  0  0  0  0  0  0  0  0
   25.3020  -20.6939  -13.0041 C   0  0  2  0  0  0  0  0  0  0  0  0
   25.3380  -20.9032  -11.5750 N   0  0  0  0  0  0  0  0  0  0  0  0
   23.9668  -21.1169  -13.5617 C   0  0  0  0  0  0  0  0  0  0  0  0
   23.0647  -21.5920  -12.8317 O   0  0  0  0  0  0  0  0  0  0  0  0
   23.6886  -20.9881  -14.9378 N   0  0  0  0  0  0  0  0  0  0  0  0
   22.2960  -20.7798  -15.3638 C   0  0  1  0  0  0  0  0  0  0  0  0
   21.7792  -19.5060  -14.7234 C   0  0  0  0  0  0  0  0  0  0  0  0
   20.3575  -19.2667  -15.0545 C   0  0  0  0  0  0  0  0  0  0  0  0
   19.8974  -17.9974  -14.2987 C   0  0  0  0  0  0  0  0  0  0  0  0
   18.4305  -17.8332  -14.6136 C   0  0  0  0  0  0  0  0  0  0  0  0
   17.9638  -16.6946  -13.8585 N   0  0  0  0  0  0  0  0  0  0  0  0
   22.2782  -20.6532  -16.8219 C   0  0  0  0  0  0  0  0  0  0  0  0
   21.2417  -21.1452  -17.5714 O   0  0  0  0  0  0  0  0  0  0  0  0
   23.2304  -20.0852  -17.4072 O   0  0  0  0  0  0  0  0  0  0  0  0
  2  1  1  6
  3  2  1  0
  3  4  1  0
  4 12  1  0
  4  5  2  0
  5  6  1  0
  7  8  2  0
  7  6  1  0
  9  8  1  0
 10  9  2  0
 11 10  1  0
 11 12  2  0
 12  7  1  0
 13  2  1  0
 14 13  2  0
 16 15  1  6
 16 18  1  0
 16 17  1  0
 19 18  1  6
 19 21  1  0
 19 20  1  0
 20 13  1  0
 21 23  1  0
 22 21  2  0
 23 24  1  0
 24 30  1  0
 24 25  1  1
 25 26  1  0
 27 26  1  0
 28 27  1  0
 29 28  1  0
 30 32  2  0
 30 31  1  0
M  END
$$$$
