WLK.pdb
     RDKit          3D

 32 33  0  0  1  0  0  0  0  0999 V2000
   23.0471  -20.7350  -13.9886 N   0  0  0  0  0  0  0  0  0  0  0  0
   22.2798  -20.0630  -12.9256 C   0  0  1  0  0  0  0  0  0  0  0  0
   20.8116  -20.0165  -13.3859 C   0  0  0  0  0  0  0  0  0  0  0  0
   20.6909  -18.9756  -14.4328 C   0  0  0  0  0  0  0  0  0  0  0  0
   20.3752  -17.6269  -14.2502 C   0  0  0  0  0  0  0  0  0  0  0  0
   20.3660  -17.0398  -15.4518 N   0  0  0  0  0  0  0  0  0  0  0  0
   20.6550  -17.9087  -16.4222 C   0  0  0  0  0  0  0  0  0  0  0  0
   20.7631  -17.7739  -17.7829 C   0  0  0  0  0  0  0  0  0  0  0  0
   21.0864  -18.9007  -18.5167 C   0  0  0  0  0  0  0  0  0  0  0  0
   21.3012  -20.1423  -17.9266 C   0  0  0  0  0  0  0  0  0  0  0  0
   21.1819  -20.2306  -16.5565 C   0  0  0  0  0  0  0  0  0  0  0  0
   20.8605  -19.1218  -15.8031 C   0  0  0  0  0  0  0  0  0  0  0  0
   22.3271  -20.9209  -11.7126 C   0  0  0  0  0  0  0  0  0  0  0  0
   22.0771  -22.1678  -11.7685 O   0  0  0  0  0  0  0  0  0  0  0  0
   25.7881  -19.5062   -7.5217 C   0  0  0  0  0  0  0  0  0  0  0  0
   25.0588  -20.2178   -8.6704 C   0  0  1  0  0  0  0  0  0  0  0  0
   25.8788  -21.4831   -8.9054 C   0  0  0  0  0  0  0  0  0  0  0  0
   23.6660  -20.5265   -8.2610 C   0  0  0  0  0  0  0  0  0  0  0  0
   22.7916  -21.1556   -9.3031 C   0  0  2  0  0  0  0  0  0  0  0  0
   22.6607  -20.3150  -10.4708 N   0  0  0  0  0  0  0  0  0  0  0  0
   21.4348  -21.4533   -8.7176 C   0  0  0  0  0  0  0  0  0  0  0  0
   20.5192  -20.5967   -8.6986 O   0  0  0  0  0  0  0  0  0  0  0  0
   21.1507  -22.7202   -8.1681 N   0  0  0  0  0  0  0  0  0  0  0  0
   19.7745  -23.0160   -7.7409 C   0  0  1  0  0  0  0  0  0  0  0  0
   19.3349  -24.3147   -8.3891 C   0  0  0  0  0  0  0  0  0  0  0  0
   17.9806  -24.7137   -7.9477 C   0  0  0  0  0  0  0  0  0  0  0  0
   17.6207  -26.0439   -8.6514 C   0  0  0  0  0  0  0  0  0  0  0  0
   16.2192  -26.3849   -8.2072 C   0  0  0  0  0  0  0  0  0  0  0  0
   15.8375  -27.5880   -8.9082 N   0  0  0  0  0  0  0  0  0  0  0  0
   19.7679  -23.1534   -6.2836 C   0  0  0  0  0  0  0  0  0  0  0  0
   18.5965  -23.2227   -5.5756 O   0  0  0  0  0  0  0  0  0  0  0  0
   20.8545  -23.2071   -5.6603 O   0  0  0  0  0  0  0  0  0  0  0  0
  2  1  1  6
  3  2  1  0
  3  4  1  0
  4 12  1  0
  4  5  2  0
  5  6  1  0
  7  8  2  0
  7  6  1  0
  9  8  1  0
 10  9  2  0
 11 10  1  0
 11 12  2  0
 12  7  1  0
 13  2  1  0
 14 13  2  0
 16 15  1  1
 16 18  1  0
 16 17  1  0
 19 18  1  1
 19 21  1  0
 19 20  1  0
 20 13  1  0
 21 23  1  0
 22 21  2  0
 23 24  1  0
 24 30  1  0
 24 25  1  6
 25 26  1  0
 27 26  1  0
 28 27  1  0
 29 28  1  0
 30 32  2  0
 30 31  1  0
M  END
$$$$
