WLK.pdb
     RDKit          3D

 32 33  0  0  1  0  0  0  0  0999 V2000
   26.2110  -20.4131  -16.9330 N   0  0  0  0  0  0  0  0  0  0  0  0
   24.9679  -19.7822  -16.4565 C   0  0  1  0  0  0  0  0  0  0  0  0
   23.9763  -19.7872  -17.6339 C   0  0  0  0  0  0  0  0  0  0  0  0
   24.3824  -18.7234  -18.5813 C   0  0  0  0  0  0  0  0  0  0  0  0
   25.1533  -18.8713  -19.7371 C   0  0  0  0  0  0  0  0  0  0  0  0
   25.2893  -17.6650  -20.2985 N   0  0  0  0  0  0  0  0  0  0  0  0
   24.6596  -16.7241  -19.5927 C   0  0  0  0  0  0  0  0  0  0  0  0
   24.5204  -15.3713  -19.7714 C   0  0  0  0  0  0  0  0  0  0  0  0
   23.7844  -14.6713  -18.8326 C   0  0  0  0  0  0  0  0  0  0  0  0
   23.1929  -15.2872  -17.7342 C   0  0  0  0  0  0  0  0  0  0  0  0
   23.3592  -16.6481  -17.5951 C   0  0  0  0  0  0  0  0  0  0  0  0
   24.0884  -17.3680  -18.5175 C   0  0  0  0  0  0  0  0  0  0  0  0
   24.3888  -20.6505  -15.3980 C   0  0  0  0  0  0  0  0  0  0  0  0
   24.0680  -21.8602  -15.6305 O   0  0  0  0  0  0  0  0  0  0  0  0
   26.3937  -21.3017  -11.8616 C   0  0  0  0  0  0  0  0  0  0  0  0
   25.0945  -21.3422  -11.0442 C   0  0  1  0  0  0  0  0  0  0  0  0
   25.4955  -20.7902   -9.6793 C   0  0  0  0  0  0  0  0  0  0  0  0
   24.0648  -20.5006  -11.7032 C   0  0  0  0  0  0  0  0  0  0  0  0
   23.6288  -20.9335  -13.0702 C   0  0  2  0  0  0  0  0  0  0  0  0
   24.1963  -20.0975  -14.1029 N   0  0  0  0  0  0  0  0  0  0  0  0
   22.1238  -20.9194  -13.1533 C   0  0  0  0  0  0  0  0  0  0  0  0
   21.4768  -19.8515  -13.2702 O   0  0  0  0  0  0  0  0  0  0  0  0
   21.3892  -22.1217  -13.1026 N   0  0  0  0  0  0  0  0  0  0  0  0
   19.9220  -22.0613  -13.1909 C   0  0  1  0  0  0  0  0  0  0  0  0
   19.4017  -23.4386  -13.5545 C   0  0  0  0  0  0  0  0  0  0  0  0
   17.9256  -23.4569  -13.6480 C   0  0  0  0  0  0  0  0  0  0  0  0
   17.4857  -24.9012  -13.9870 C   0  0  0  0  0  0  0  0  0  0  0  0
   15.9786  -24.8718  -14.0603 C   0  0  0  0  0  0  0  0  0  0  0  0
   15.5495  -26.2031  -14.4181 N   0  0  0  0  0  0  0  0  0  0  0  0
   19.4019  -21.6554  -11.8844 C   0  0  0  0  0  0  0  0  0  0  0  0
   18.1716  -21.0657  -11.7545 O   0  0  0  0  0  0  0  0  0  0  0  0
   20.0922  -21.8455  -10.8552 O   0  0  0  0  0  0  0  0  0  0  0  0
  2  1  1  6
  3  2  1  0
  3  4  1  0
  4 12  1  0
  4  5  2  0
  5  6  1  0
  7  8  2  0
  7  6  1  0
  9  8  1  0
 10  9  2  0
 11 10  1  0
 11 12  2  0
 12  7  1  0
 13  2  1  0
 14 13  2  0
 16 15  1  6
 16 18  1  0
 16 17  1  0
 19 18  1  1
 19 21  1  0
 19 20  1  0
 20 13  1  0
 21 23  1  0
 22 21  2  0
 23 24  1  0
 24 30  1  0
 24 25  1  1
 25 26  1  0
 27 26  1  0
 28 27  1  0
 29 28  1  0
 30 32  2  0
 30 31  1  0
M  END
$$$$
