WLK.pdb
     RDKit          3D

 32 33  0  0  1  0  0  0  0  0999 V2000
   21.9711  -18.7318  -13.4030 N   0  0  0  0  0  0  0  0  0  0  0  0
   23.0256  -19.7109  -13.0874 C   0  0  1  0  0  0  0  0  0  0  0  0
   22.3236  -21.0222  -12.6909 C   0  0  0  0  0  0  0  0  0  0  0  0
   22.3926  -21.1529  -11.2171 C   0  0  0  0  0  0  0  0  0  0  0  0
   21.3233  -21.3172  -10.3329 C   0  0  0  0  0  0  0  0  0  0  0  0
   21.8210  -21.3889   -9.0937 N   0  0  0  0  0  0  0  0  0  0  0  0
   23.1510  -21.2836   -9.0946 C   0  0  0  0  0  0  0  0  0  0  0  0
   24.0813  -21.3018   -8.0868 C   0  0  0  0  0  0  0  0  0  0  0  0
   25.4121  -21.1661   -8.4382 C   0  0  0  0  0  0  0  0  0  0  0  0
   25.8264  -21.0147   -9.7578 C   0  0  0  0  0  0  0  0  0  0  0  0
   24.8570  -21.0022  -10.7370 C   0  0  0  0  0  0  0  0  0  0  0  0
   23.5238  -21.1356  -10.4122 C   0  0  0  0  0  0  0  0  0  0  0  0
   23.7853  -19.9858  -14.3353 C   0  0  0  0  0  0  0  0  0  0  0  0
   23.4507  -19.4644  -15.4473 O   0  0  0  0  0  0  0  0  0  0  0  0
   29.3169  -20.4889  -13.3101 C   0  0  0  0  0  0  0  0  0  0  0  0
   27.8939  -20.0555  -13.6911 C   0  0  1  0  0  0  0  0  0  0  0  0
   28.0819  -18.6859  -14.3371 C   0  0  0  0  0  0  0  0  0  0  0  0
   27.3093  -21.0398  -14.6355 C   0  0  0  0  0  0  0  0  0  0  0  0
   25.9761  -20.6864  -15.2220 C   0  0  2  0  0  0  0  0  0  0  0  0
   24.9081  -20.8545  -14.2636 N   0  0  0  0  0  0  0  0  0  0  0  0
   25.7186  -21.5280  -16.4458 C   0  0  0  0  0  0  0  0  0  0  0  0
   25.7364  -22.7811  -16.4037 O   0  0  0  0  0  0  0  0  0  0  0  0
   25.4453  -20.9236  -17.6899 N   0  0  0  0  0  0  0  0  0  0  0  0
   25.2558  -21.7819  -18.8695 C   0  0  1  0  0  0  0  0  0  0  0  0
   24.3894  -21.0434  -19.8715 C   0  0  0  0  0  0  0  0  0  0  0  0
   23.0475  -20.7514  -19.3217 C   0  0  0  0  0  0  0  0  0  0  0  0
   22.2456  -19.9841  -20.3998 C   0  0  0  0  0  0  0  0  0  0  0  0
   20.8772  -19.7443  -19.8100 C   0  0  0  0  0  0  0  0  0  0  0  0
   20.1061  -19.0434  -20.8093 N   0  0  0  0  0  0  0  0  0  0  0  0
   26.5709  -22.0591  -19.4491 C   0  0  0  0  0  0  0  0  0  0  0  0
   26.7896  -23.1590  -20.2368 O   0  0  0  0  0  0  0  0  0  0  0  0
   27.5259  -21.2788  -19.2226 O   0  0  0  0  0  0  0  0  0  0  0  0
  2  1  1  6
  3  2  1  0
  3  4  1  0
  4 12  1  0
  4  5  2  0
  5  6  1  0
  7  8  2  0
  7  6  1  0
  9  8  1  0
 10  9  2  0
 11 10  1  0
 11 12  2  0
 12  7  1  0
 13  2  1  0
 14 13  2  0
 16 15  1  6
 16 18  1  0
 16 17  1  0
 19 18  1  1
 19 21  1  0
 19 20  1  0
 20 13  1  0
 21 23  1  0
 22 21  2  0
 23 24  1  0
 24 30  1  0
 24 25  1  6
 25 26  1  0
 27 26  1  0
 28 27  1  0
 29 28  1  0
 30 32  2  0
 30 31  1  0
M  END
$$$$
