PMR.pdb
     RDKit          3D

 27 27  0  0  1  0  0  0  0  0999 V2000
   22.0968  -21.6172  -18.1991 N   0  0  0  0  0  0  0  0  0  0  0  0
   21.5753  -22.9642  -18.0531 C   0  0  0  0  0  0  0  0  0  0  0  0
   20.4284  -22.8295  -17.0733 C   0  0  0  0  0  0  0  0  0  0  0  0
   20.2462  -21.3158  -16.8808 C   0  0  0  0  0  0  0  0  0  0  0  0
   20.8995  -20.8215  -18.1416 C   0  0  1  0  0  0  0  0  0  0  0  0
   21.1403  -19.3814  -18.1978 C   0  0  0  0  0  0  0  0  0  0  0  0
   21.6076  -18.7936  -17.2064 O   0  0  0  0  0  0  0  0  0  0  0  0
   21.9188  -16.4353  -23.8696 C   0  0  0  0  0  0  0  0  0  0  0  0
   22.9323  -17.7289  -23.0820 S   0  0  0  0  0  0  0  0  0  0  0  0
   22.8428  -17.4818  -21.2991 C   0  0  0  0  0  0  0  0  0  0  0  0
   21.4528  -16.9718  -20.9751 C   0  0  0  0  0  0  0  0  0  0  0  0
   21.1565  -17.2298  -19.5156 C   0  0  2  0  0  0  0  0  0  0  0  0
   20.8427  -18.6484  -19.3783 N   0  0  0  0  0  0  0  0  0  0  0  0
   19.9810  -16.3925  -19.1508 C   0  0  0  0  0  0  0  0  0  0  0  0
   18.8339  -16.9310  -19.2065 O   0  0  0  0  0  0  0  0  0  0  0  0
   19.2892   -8.8794  -14.5646 N   0  0  0  0  0  0  0  0  0  0  0  0
   17.9320   -9.3413  -14.7020 C   0  0  0  0  0  0  0  0  0  0  0  0
   16.9584   -8.7019  -14.1502 N   0  0  0  0  0  0  0  0  0  0  0  0
   17.6457  -10.5157  -15.4458 N   0  0  0  0  0  0  0  0  0  0  0  0
   18.7262  -11.2809  -16.0255 C   0  0  0  0  0  0  0  0  0  0  0  0
   18.1947  -12.3722  -16.8947 C   0  0  0  0  0  0  0  0  0  0  0  0
   19.3044  -13.2197  -17.4333 C   0  0  0  0  0  0  0  0  0  0  0  0
   18.8649  -14.3751  -18.2614 C   0  0  2  0  0  0  0  0  0  0  0  0
   20.0758  -15.0553  -18.7525 N   0  0  0  0  0  0  0  0  0  0  0  0
   18.0104  -14.0051  -19.4082 C   0  0  0  0  0  0  0  0  0  0  0  0
   16.6306  -13.9354  -19.3649 O   0  0  0  0  0  0  0  0  0  0  0  0
   18.5592  -13.7318  -20.5065 O   0  0  0  0  0  0  0  0  0  0  0  0
  1  5  1  0
  2  3  1  0
  2  1  1  0
  3  4  1  0
  4  5  1  0
  5  6  1  1
  6  7  2  0
  9  8  1  0
 10  9  1  0
 11 10  1  0
 12 11  1  6
 12 14  1  0
 13  6  1  0
 13 12  1  0
 14 24  1  0
 14 15  2  0
 16 17  1  0
 17 19  1  0
 18 17  2  0
 19 20  1  0
 20 21  1  0
 21 22  1  0
 23 22  1  6
 23 25  1  0
 24 23  1  0
 25 27  2  0
 25 26  1  0
M  END
$$$$
