PMR.pdb
     RDKit          3D

 27 27  0  0  1  0  0  0  0  0999 V2000
   25.5539  -21.7555  -15.8591 N   0  0  0  0  0  0  0  0  0  0  0  0
   26.9326  -22.1355  -16.1091 C   0  0  0  0  0  0  0  0  0  0  0  0
   27.7571  -21.0433  -15.4602 C   0  0  0  0  0  0  0  0  0  0  0  0
   26.7438  -20.1907  -14.6807 C   0  0  0  0  0  0  0  0  0  0  0  0
   25.6304  -21.1910  -14.5379 C   0  0  1  0  0  0  0  0  0  0  0  0
   24.3639  -20.6513  -14.0484 C   0  0  0  0  0  0  0  0  0  0  0  0
   24.3296  -20.0400  -12.9659 O   0  0  0  0  0  0  0  0  0  0  0  0
   22.0861  -15.3770  -15.8045 C   0  0  0  0  0  0  0  0  0  0  0  0
   21.0439  -16.8655  -15.6662 S   0  0  0  0  0  0  0  0  0  0  0  0
   22.1228  -18.3019  -15.8091 C   0  0  0  0  0  0  0  0  0  0  0  0
   21.2869  -19.5344  -15.5271 C   0  0  0  0  0  0  0  0  0  0  0  0
   21.8871  -20.2858  -14.3611 C   0  0  2  0  0  0  0  0  0  0  0  0
   23.1710  -20.8215  -14.8017 N   0  0  0  0  0  0  0  0  0  0  0  0
   20.9467  -21.3872  -14.0168 C   0  0  0  0  0  0  0  0  0  0  0  0
   20.9560  -22.4212  -14.7514 O   0  0  0  0  0  0  0  0  0  0  0  0
   16.5039  -26.0953   -8.8802 N   0  0  0  0  0  0  0  0  0  0  0  0
   17.8857  -26.4925   -8.7971 C   0  0  0  0  0  0  0  0  0  0  0  0
   18.2068  -27.7170   -8.5553 N   0  0  0  0  0  0  0  0  0  0  0  0
   18.9191  -25.5361   -8.9756 N   0  0  0  0  0  0  0  0  0  0  0  0
   18.5837  -24.1637   -9.2811 C   0  0  0  0  0  0  0  0  0  0  0  0
   18.4616  -23.9646  -10.7556 C   0  0  0  0  0  0  0  0  0  0  0  0
   19.2928  -22.8071  -11.2129 C   0  0  0  0  0  0  0  0  0  0  0  0
   19.2071  -22.5107  -12.6684 C   0  0  2  0  0  0  0  0  0  0  0  0
   20.0625  -21.3412  -12.9344 N   0  0  0  0  0  0  0  0  0  0  0  0
   17.8373  -22.2364  -13.1488 C   0  0  0  0  0  0  0  0  0  0  0  0
   16.9257  -23.2105  -13.5103 O   0  0  0  0  0  0  0  0  0  0  0  0
   17.4582  -21.0407  -13.2412 O   0  0  0  0  0  0  0  0  0  0  0  0
  1  5  1  0
  2  3  1  0
  2  1  1  0
  3  4  1  0
  4  5  1  0
  5  6  1  6
  6  7  2  0
  9  8  1  0
 10  9  1  0
 11 10  1  0
 12 11  1  6
 12 14  1  0
 13  6  1  0
 13 12  1  0
 14 24  1  0
 14 15  2  0
 16 17  1  0
 17 19  1  0
 18 17  2  0
 19 20  1  0
 20 21  1  0
 21 22  1  0
 23 22  1  1
 23 25  1  0
 24 23  1  0
 25 27  2  0
 25 26  1  0
M  END
$$$$
