PMR.pdb
     RDKit          3D

 27 27  0  0  1  0  0  0  0  0999 V2000
   27.7452  -19.5604  -14.3070 N   0  0  0  0  0  0  0  0  0  0  0  0
   28.5226  -19.4287  -15.5261 C   0  0  0  0  0  0  0  0  0  0  0  0
   29.2125  -20.7669  -15.6898 C   0  0  0  0  0  0  0  0  0  0  0  0
   28.5907  -21.6688  -14.6121 C   0  0  0  0  0  0  0  0  0  0  0  0
   27.3038  -20.9279  -14.3759 C   0  0  1  0  0  0  0  0  0  0  0  0
   26.5362  -21.3636  -13.2115 C   0  0  0  0  0  0  0  0  0  0  0  0
   25.8289  -22.3840  -13.2838 O   0  0  0  0  0  0  0  0  0  0  0  0
   26.7960  -19.5001   -6.6140 C   0  0  0  0  0  0  0  0  0  0  0  0
   28.0383  -19.6051   -7.9431 S   0  0  0  0  0  0  0  0  0  0  0  0
   27.3644  -20.6628   -9.2372 C   0  0  0  0  0  0  0  0  0  0  0  0
   26.0863  -20.0196   -9.7373 C   0  0  0  0  0  0  0  0  0  0  0  0
   25.5895  -20.7765  -10.9476 C   0  0  2  0  0  0  0  0  0  0  0  0
   26.5925  -20.6277  -11.9971 N   0  0  0  0  0  0  0  0  0  0  0  0
   24.3013  -20.1534  -11.3578 C   0  0  0  0  0  0  0  0  0  0  0  0
   24.3388  -18.9736  -11.8218 O   0  0  0  0  0  0  0  0  0  0  0  0
   21.8113  -25.3494  -15.6586 N   0  0  0  0  0  0  0  0  0  0  0  0
   20.5634  -24.6354  -15.5755 C   0  0  0  0  0  0  0  0  0  0  0  0
   19.4468  -25.2265  -15.8303 N   0  0  0  0  0  0  0  0  0  0  0  0
   20.5448  -23.2626  -15.2155 N   0  0  0  0  0  0  0  0  0  0  0  0
   21.7754  -22.5984  -14.8499 C   0  0  0  0  0  0  0  0  0  0  0  0
   21.7436  -22.1762  -13.4183 C   0  0  0  0  0  0  0  0  0  0  0  0
   21.8187  -20.6866  -13.2949 C   0  0  0  0  0  0  0  0  0  0  0  0
   21.8903  -20.1765  -11.8990 C   0  0  2  0  0  0  0  0  0  0  0  0
   23.0635  -20.7966  -11.2594 N   0  0  0  0  0  0  0  0  0  0  0  0
   20.6855  -20.4570  -11.0916 C   0  0  0  0  0  0  0  0  0  0  0  0
   19.4343  -19.9260  -11.3434 O   0  0  0  0  0  0  0  0  0  0  0  0
   20.7870  -21.2293  -10.1041 O   0  0  0  0  0  0  0  0  0  0  0  0
  1  5  1  0
  2  3  1  0
  2  1  1  0
  3  4  1  0
  4  5  1  0
  5  6  1  1
  6  7  2  0
  9  8  1  0
 10  9  1  0
 11 10  1  0
 12 11  1  1
 12 14  1  0
 13  6  1  0
 13 12  1  0
 14 24  1  0
 14 15  2  0
 16 17  1  0
 17 19  1  0
 18 17  2  0
 19 20  1  0
 20 21  1  0
 21 22  1  0
 23 22  1  6
 23 25  1  0
 24 23  1  0
 25 27  2  0
 25 26  1  0
M  END
$$$$
