PMR.pdb
     RDKit          3D

 27 27  0  0  1  0  0  0  0  0999 V2000
   24.6515  -22.3431  -15.4187 N   0  0  0  0  0  0  0  0  0  0  0  0
   26.0049  -22.8430  -15.5805 C   0  0  0  0  0  0  0  0  0  0  0  0
   26.8911  -21.7350  -15.0508 C   0  0  0  0  0  0  0  0  0  0  0  0
   25.9249  -20.7245  -14.4128 C   0  0  0  0  0  0  0  0  0  0  0  0
   24.7418  -21.6219  -14.1771 C   0  0  1  0  0  0  0  0  0  0  0  0
   23.5069  -20.9409  -13.7947 C   0  0  0  0  0  0  0  0  0  0  0  0
   23.4766  -20.2500  -12.7610 O   0  0  0  0  0  0  0  0  0  0  0  0
   19.2044  -17.9734  -17.2726 C   0  0  0  0  0  0  0  0  0  0  0  0
   20.9447  -17.4977  -17.0160 S   0  0  0  0  0  0  0  0  0  0  0  0
   21.5894  -18.4974  -15.6622 C   0  0  0  0  0  0  0  0  0  0  0  0
   20.6098  -19.6280  -15.4188 C   0  0  0  0  0  0  0  0  0  0  0  0
   21.0729  -20.4398  -14.2310 C   0  0  2  0  0  0  0  0  0  0  0  0
   22.3402  -21.0641  -14.5966 N   0  0  0  0  0  0  0  0  0  0  0  0
   20.0324  -21.4724  -13.9713 C   0  0  0  0  0  0  0  0  0  0  0  0
   20.0238  -22.5001  -14.7146 O   0  0  0  0  0  0  0  0  0  0  0  0
   16.4626  -25.0358   -7.0510 N   0  0  0  0  0  0  0  0  0  0  0  0
   17.7737  -24.9997   -7.6460 C   0  0  0  0  0  0  0  0  0  0  0  0
   18.8296  -25.1669   -6.9262 N   0  0  0  0  0  0  0  0  0  0  0  0
   17.9234  -24.7728   -9.0391 N   0  0  0  0  0  0  0  0  0  0  0  0
   16.8414  -24.1791   -9.7912 C   0  0  0  0  0  0  0  0  0  0  0  0
   17.1715  -24.1330  -11.2464 C   0  0  0  0  0  0  0  0  0  0  0  0
   18.1809  -23.0665  -11.5357 C   0  0  0  0  0  0  0  0  0  0  0  0
   18.0322  -22.4060  -12.8606 C   0  0  2  0  0  0  0  0  0  0  0  0
   19.0735  -21.3686  -12.9588 N   0  0  0  0  0  0  0  0  0  0  0  0
   16.7066  -21.7936  -13.0841 C   0  0  0  0  0  0  0  0  0  0  0  0
   16.3912  -20.4812  -12.7862 O   0  0  0  0  0  0  0  0  0  0  0  0
   15.7909  -22.5001  -13.5785 O   0  0  0  0  0  0  0  0  0  0  0  0
  1  5  1  0
  2  3  1  0
  2  1  1  0
  3  4  1  0
  4  5  1  0
  5  6  1  6
  6  7  2  0
  9  8  1  0
 10  9  1  0
 11 10  1  0
 12 11  1  6
 12 14  1  0
 13  6  1  0
 13 12  1  0
 14 24  1  0
 14 15  2  0
 16 17  1  0
 17 19  1  0
 18 17  2  0
 19 20  1  0
 20 21  1  0
 21 22  1  0
 23 22  1  1
 23 25  1  0
 24 23  1  0
 25 27  2  0
 25 26  1  0
M  END
$$$$
