PMR.pdb
     RDKit          3D

 27 27  0  0  1  0  0  0  0  0999 V2000
   28.3897  -19.6018  -14.8068 N   0  0  0  0  0  0  0  0  0  0  0  0
   29.2196  -19.4906  -15.9928 C   0  0  0  0  0  0  0  0  0  0  0  0
   29.7998  -20.8757  -16.1886 C   0  0  0  0  0  0  0  0  0  0  0  0
   29.0649  -21.7617  -15.1705 C   0  0  0  0  0  0  0  0  0  0  0  0
   27.8373  -20.9229  -14.9469 C   0  0  1  0  0  0  0  0  0  0  0  0
   26.9934  -21.3355  -13.8278 C   0  0  0  0  0  0  0  0  0  0  0  0
   26.1845  -22.2687  -13.9747 O   0  0  0  0  0  0  0  0  0  0  0  0
   28.1098  -20.7685   -7.2100 C   0  0  0  0  0  0  0  0  0  0  0  0
   26.6007  -19.8223   -7.5953 S   0  0  0  0  0  0  0  0  0  0  0  0
   25.8463  -20.5683   -9.0520 C   0  0  0  0  0  0  0  0  0  0  0  0
   26.7654  -20.3096  -10.2291 C   0  0  0  0  0  0  0  0  0  0  0  0
   26.2017  -20.9856  -11.4578 C   0  0  2  0  0  0  0  0  0  0  0  0
   27.0910  -20.6762  -12.5727 N   0  0  0  0  0  0  0  0  0  0  0  0
   24.8465  -20.4153  -11.6908 C   0  0  0  0  0  0  0  0  0  0  0  0
   24.7660  -19.1784  -11.9599 O   0  0  0  0  0  0  0  0  0  0  0  0
   19.5579  -23.7695  -17.3378 N   0  0  0  0  0  0  0  0  0  0  0  0
   18.8233  -22.5999  -16.9298 C   0  0  0  0  0  0  0  0  0  0  0  0
   17.7391  -22.2569  -17.5364 N   0  0  0  0  0  0  0  0  0  0  0  0
   19.2874  -21.8007  -15.8525 N   0  0  0  0  0  0  0  0  0  0  0  0
   20.5109  -22.1551  -15.1695 C   0  0  0  0  0  0  0  0  0  0  0  0
   20.7913  -21.2001  -14.0567 C   0  0  0  0  0  0  0  0  0  0  0  0
   22.0921  -21.5190  -13.3889 C   0  0  0  0  0  0  0  0  0  0  0  0
   22.4497  -20.6248  -12.2547 C   0  0  2  0  0  0  0  0  0  0  0  0
   23.6687  -21.1666  -11.6296 N   0  0  0  0  0  0  0  0  0  0  0  0
   21.3910  -20.4932  -11.2330 C   0  0  0  0  0  0  0  0  0  0  0  0
   20.2641  -19.7047  -11.3716 O   0  0  0  0  0  0  0  0  0  0  0  0
   21.5067  -21.1354  -10.1577 O   0  0  0  0  0  0  0  0  0  0  0  0
  1  5  1  0
  2  3  1  0
  2  1  1  0
  3  4  1  0
  4  5  1  0
  5  6  1  1
  6  7  2  0
  9  8  1  0
 10  9  1  0
 11 10  1  0
 12 11  1  1
 12 14  1  0
 13  6  1  0
 13 12  1  0
 14 24  1  0
 14 15  2  0
 16 17  1  0
 17 19  1  0
 18 17  2  0
 19 20  1  0
 20 21  1  0
 21 22  1  0
 23 22  1  6
 23 25  1  0
 24 23  1  0
 25 27  2  0
 25 26  1  0
M  END
$$$$
