PMR.pdb
     RDKit          3D

 27 27  0  0  1  0  0  0  0  0999 V2000
   27.5360  -19.1552  -14.2878 N   0  0  0  0  0  0  0  0  0  0  0  0
   28.1299  -18.9646  -15.5988 C   0  0  0  0  0  0  0  0  0  0  0  0
   29.0100  -20.1800  -15.8037 C   0  0  0  0  0  0  0  0  0  0  0  0
   28.6806  -21.1118  -14.6269 C   0  0  0  0  0  0  0  0  0  0  0  0
   27.3250  -20.5780  -14.2552 C   0  0  1  0  0  0  0  0  0  0  0  0
   26.7851  -21.0694  -12.9895 C   0  0  0  0  0  0  0  0  0  0  0  0
   26.3150  -22.2188  -12.9226 O   0  0  0  0  0  0  0  0  0  0  0  0
   29.1024  -19.7227   -7.0832 C   0  0  0  0  0  0  0  0  0  0  0  0
   27.3306  -19.3547   -6.8685 S   0  0  0  0  0  0  0  0  0  0  0  0
   26.4250  -20.2849   -8.1184 C   0  0  0  0  0  0  0  0  0  0  0  0
   27.0022  -19.9192   -9.4713 C   0  0  0  0  0  0  0  0  0  0  0  0
   26.2753  -20.6928  -10.5473 C   0  0  2  0  0  0  0  0  0  0  0  0
   26.7933  -20.2412  -11.8346 N   0  0  0  0  0  0  0  0  0  0  0  0
   24.8277  -20.3700  -10.4192 C   0  0  0  0  0  0  0  0  0  0  0  0
   24.4587  -19.1919  -10.7105 O   0  0  0  0  0  0  0  0  0  0  0  0
   17.9648  -23.7867  -11.2039 N   0  0  0  0  0  0  0  0  0  0  0  0
   17.5401  -22.7585  -12.1184 C   0  0  0  0  0  0  0  0  0  0  0  0
   16.2883  -22.5041  -12.2899 N   0  0  0  0  0  0  0  0  0  0  0  0
   18.4976  -22.0102  -12.8517 N   0  0  0  0  0  0  0  0  0  0  0  0
   19.9082  -22.2408  -12.6366 C   0  0  0  0  0  0  0  0  0  0  0  0
   20.3863  -21.5055  -11.4285 C   0  0  0  0  0  0  0  0  0  0  0  0
   21.8642  -21.6627  -11.2528 C   0  0  0  0  0  0  0  0  0  0  0  0
   22.4402  -20.9210  -10.0987 C   0  0  2  0  0  0  0  0  0  0  0  0
   23.8627  -21.2907   -9.9989 N   0  0  0  0  0  0  0  0  0  0  0  0
   21.7705  -21.1944   -8.8108 C   0  0  0  0  0  0  0  0  0  0  0  0
   20.5491  -20.6661   -8.4368 O   0  0  0  0  0  0  0  0  0  0  0  0
   22.3360  -21.9577   -7.9864 O   0  0  0  0  0  0  0  0  0  0  0  0
  1  5  1  0
  2  3  1  0
  2  1  1  0
  3  4  1  0
  4  5  1  0
  5  6  1  1
  6  7  2  0
  9  8  1  0
 10  9  1  0
 11 10  1  0
 12 11  1  1
 12 14  1  0
 13  6  1  0
 13 12  1  0
 14 24  1  0
 14 15  2  0
 16 17  1  0
 17 19  1  0
 18 17  2  0
 19 20  1  0
 20 21  1  0
 21 22  1  0
 23 22  1  6
 23 25  1  0
 24 23  1  0
 25 27  2  0
 25 26  1  0
M  END
$$$$
