PMR.pdb
     RDKit          3D

 27 27  0  0  1  0  0  0  0  0999 V2000
   28.0480  -19.3915  -13.3908 N   0  0  0  0  0  0  0  0  0  0  0  0
   28.5224  -19.2858  -14.7589 C   0  0  0  0  0  0  0  0  0  0  0  0
   29.1609  -20.6278  -15.0503 C   0  0  0  0  0  0  0  0  0  0  0  0
   28.8080  -21.5067  -13.8400 C   0  0  0  0  0  0  0  0  0  0  0  0
   27.6076  -20.7597  -13.3282 C   0  0  1  0  0  0  0  0  0  0  0  0
   27.1312  -21.1705  -12.0094 C   0  0  0  0  0  0  0  0  0  0  0  0
   26.3836  -22.1586  -11.9024 O   0  0  0  0  0  0  0  0  0  0  0  0
   27.9932  -20.1914   -4.2662 C   0  0  0  0  0  0  0  0  0  0  0  0
   28.5654  -19.7447   -5.9377 S   0  0  0  0  0  0  0  0  0  0  0  0
   27.3648  -20.3911   -7.1160 C   0  0  0  0  0  0  0  0  0  0  0  0
   27.8794  -20.0885   -8.5092 C   0  0  0  0  0  0  0  0  0  0  0  0
   26.9779  -20.7496   -9.5264 C   0  0  2  0  0  0  0  0  0  0  0  0
   27.5165  -20.4471  -10.8485 N   0  0  0  0  0  0  0  0  0  0  0  0
   25.6216  -20.1583   -9.3621 C   0  0  0  0  0  0  0  0  0  0  0  0
   25.5308  -18.8938   -9.3231 O   0  0  0  0  0  0  0  0  0  0  0  0
   22.2188  -18.9087  -15.5022 N   0  0  0  0  0  0  0  0  0  0  0  0
   20.8985  -19.3125  -15.0926 C   0  0  0  0  0  0  0  0  0  0  0  0
   19.8516  -18.8040  -15.6462 N   0  0  0  0  0  0  0  0  0  0  0  0
   20.7295  -20.2766  -14.0648 N   0  0  0  0  0  0  0  0  0  0  0  0
   21.8839  -20.7849  -13.3590 C   0  0  0  0  0  0  0  0  0  0  0  0
   21.8918  -20.3075  -11.9445 C   0  0  0  0  0  0  0  0  0  0  0  0
   23.1241  -20.7650  -11.2290 C   0  0  0  0  0  0  0  0  0  0  0  0
   23.1982  -20.3728   -9.7957 C   0  0  2  0  0  0  0  0  0  0  0  0
   24.4532  -20.9186   -9.2504 N   0  0  0  0  0  0  0  0  0  0  0  0
   22.0614  -20.8476   -8.9805 C   0  0  0  0  0  0  0  0  0  0  0  0
   20.7819  -20.3287   -9.0456 O   0  0  0  0  0  0  0  0  0  0  0  0
   22.2531  -21.7873   -8.1667 O   0  0  0  0  0  0  0  0  0  0  0  0
  1  5  1  0
  2  3  1  0
  2  1  1  0
  3  4  1  0
  4  5  1  0
  5  6  1  1
  6  7  2  0
  9  8  1  0
 10  9  1  0
 11 10  1  0
 12 11  1  1
 12 14  1  0
 13  6  1  0
 13 12  1  0
 14 24  1  0
 14 15  2  0
 16 17  1  0
 17 19  1  0
 18 17  2  0
 19 20  1  0
 20 21  1  0
 21 22  1  0
 23 22  1  6
 23 25  1  0
 24 23  1  0
 25 27  2  0
 25 26  1  0
M  END
$$$$
