PMR.pdb
     RDKit          3D

 27 27  0  0  1  0  0  0  0  0999 V2000
   22.2280  -22.0220  -12.9810 N   0  0  0  0  0  0  0  0  0  0  0  0
   20.8397  -22.2874  -13.3123 C   0  0  0  0  0  0  0  0  0  0  0  0
   20.1279  -20.9723  -13.0722 C   0  0  0  0  0  0  0  0  0  0  0  0
   21.2496  -19.9570  -12.8029 C   0  0  0  0  0  0  0  0  0  0  0  0
   22.3996  -20.6741  -13.4539 C   0  0  1  0  0  0  0  0  0  0  0  0
   23.7210  -20.1130  -13.1818 C   0  0  0  0  0  0  0  0  0  0  0  0
   24.0298  -19.0032  -13.6506 O   0  0  0  0  0  0  0  0  0  0  0  0
   27.7719  -20.5467   -8.0977 C   0  0  0  0  0  0  0  0  0  0  0  0
   25.9525  -20.4841   -8.0143 S   0  0  0  0  0  0  0  0  0  0  0  0
   25.3420  -20.1391   -9.6744 C   0  0  0  0  0  0  0  0  0  0  0  0
   26.3134  -20.7586  -10.6593 C   0  0  0  0  0  0  0  0  0  0  0  0
   25.9716  -20.2910  -12.0553 C   0  0  2  0  0  0  0  0  0  0  0  0
   24.6556  -20.8283  -12.3854 N   0  0  0  0  0  0  0  0  0  0  0  0
   27.0097  -20.8408  -12.9698 C   0  0  0  0  0  0  0  0  0  0  0  0
   27.3822  -22.0392  -12.7857 O   0  0  0  0  0  0  0  0  0  0  0  0
   26.5609  -25.8282  -16.4475 N   0  0  0  0  0  0  0  0  0  0  0  0
   25.4303  -25.2758  -15.7470 C   0  0  0  0  0  0  0  0  0  0  0  0
   24.7565  -25.9917  -14.9135 N   0  0  0  0  0  0  0  0  0  0  0  0
   25.0361  -23.9305  -15.9689 N   0  0  0  0  0  0  0  0  0  0  0  0
   25.5372  -23.2152  -17.1206 C   0  0  0  0  0  0  0  0  0  0  0  0
   26.8203  -22.5240  -16.7969 C   0  0  0  0  0  0  0  0  0  0  0  0
   26.6681  -21.6405  -15.5985 C   0  0  0  0  0  0  0  0  0  0  0  0
   27.8502  -20.7901  -15.2931 C   0  0  2  0  0  0  0  0  0  0  0  0
   27.5892  -20.1107  -14.0122 N   0  0  0  0  0  0  0  0  0  0  0  0
   28.1531  -19.7828  -16.3302 C   0  0  0  0  0  0  0  0  0  0  0  0
   29.0374  -19.9772  -17.3747 O   0  0  0  0  0  0  0  0  0  0  0  0
   27.5759  -18.6666  -16.2744 O   0  0  0  0  0  0  0  0  0  0  0  0
  1  5  1  0
  2  3  1  0
  2  1  1  0
  3  4  1  0
  4  5  1  0
  5  6  1  1
  6  7  2  0
  9  8  1  0
 10  9  1  0
 11 10  1  0
 12 11  1  1
 12 14  1  0
 13  6  1  0
 13 12  1  0
 14 24  1  0
 14 15  2  0
 16 17  1  0
 17 19  1  0
 18 17  2  0
 19 20  1  0
 20 21  1  0
 21 22  1  0
 23 22  1  6
 23 25  1  0
 24 23  1  0
 25 27  2  0
 25 26  1  0
M  END
$$$$
