PMR.pdb
     RDKit          3D

 27 27  0  0  1  0  0  0  0  0999 V2000
   27.4084  -17.8067  -15.0673 N   0  0  0  0  0  0  0  0  0  0  0  0
   28.1954  -16.9975  -15.9804 C   0  0  0  0  0  0  0  0  0  0  0  0
   29.4674  -17.7898  -16.1992 C   0  0  0  0  0  0  0  0  0  0  0  0
   29.2121  -19.1457  -15.5225 C   0  0  0  0  0  0  0  0  0  0  0  0
   27.7086  -19.1420  -15.5110 C   0  0  1  0  0  0  0  0  0  0  0  0
   27.0869  -20.1896  -14.7042 C   0  0  0  0  0  0  0  0  0  0  0  0
   27.2174  -21.3821  -15.0325 O   0  0  0  0  0  0  0  0  0  0  0  0
   27.2820  -20.4742   -8.3657 C   0  0  0  0  0  0  0  0  0  0  0  0
   25.5057  -20.7842   -8.6297 S   0  0  0  0  0  0  0  0  0  0  0  0
   25.3044  -21.4065  -10.3089 C   0  0  0  0  0  0  0  0  0  0  0  0
   25.8536  -20.3586  -11.2563 C   0  0  0  0  0  0  0  0  0  0  0  0
   25.7489  -20.8679  -12.6755 C   0  0  2  0  0  0  0  0  0  0  0  0
   26.3333  -19.8539  -13.5471 N   0  0  0  0  0  0  0  0  0  0  0  0
   24.3013  -21.0474  -12.9727 C   0  0  0  0  0  0  0  0  0  0  0  0
   23.5948  -20.0035  -13.1134 O   0  0  0  0  0  0  0  0  0  0  0  0
   21.2520  -26.6158  -16.7816 N   0  0  0  0  0  0  0  0  0  0  0  0
   21.9231  -26.8746  -15.5339 C   0  0  0  0  0  0  0  0  0  0  0  0
   22.9248  -27.6837  -15.4790 N   0  0  0  0  0  0  0  0  0  0  0  0
   21.4860  -26.2439  -14.3399 N   0  0  0  0  0  0  0  0  0  0  0  0
   20.2536  -25.4889  -14.3352 C   0  0  0  0  0  0  0  0  0  0  0  0
   20.5293  -24.0267  -14.2141 C   0  0  0  0  0  0  0  0  0  0  0  0
   21.9398  -23.7793  -13.7793 C   0  0  0  0  0  0  0  0  0  0  0  0
   22.2793  -22.3511  -13.5371 C   0  0  2  0  0  0  0  0  0  0  0  0
   23.6864  -22.2965  -13.1043 N   0  0  0  0  0  0  0  0  0  0  0  0
   21.4285  -21.6917  -12.5254 C   0  0  0  0  0  0  0  0  0  0  0  0
   20.3095  -20.9349  -12.8178 O   0  0  0  0  0  0  0  0  0  0  0  0
   21.7283  -21.8172  -11.3103 O   0  0  0  0  0  0  0  0  0  0  0  0
  1  5  1  0
  2  3  1  0
  2  1  1  0
  3  4  1  0
  4  5  1  0
  5  6  1  1
  6  7  2  0
  9  8  1  0
 10  9  1  0
 11 10  1  0
 12 11  1  1
 12 14  1  0
 13  6  1  0
 13 12  1  0
 14 24  1  0
 14 15  2  0
 16 17  1  0
 17 19  1  0
 18 17  2  0
 19 20  1  0
 20 21  1  0
 21 22  1  0
 23 22  1  1
 23 25  1  0
 24 23  1  0
 25 27  2  0
 25 26  1  0
M  END
$$$$
