PMR.pdb
     RDKit          3D

 27 27  0  0  1  0  0  0  0  0999 V2000
   29.1784  -18.5675  -16.0701 N   0  0  0  0  0  0  0  0  0  0  0  0
   29.4021  -18.0198  -17.3959 C   0  0  0  0  0  0  0  0  0  0  0  0
   29.7497  -19.2180  -18.2544 C   0  0  0  0  0  0  0  0  0  0  0  0
   29.4894  -20.4382  -17.3574 C   0  0  0  0  0  0  0  0  0  0  0  0
   28.5416  -19.8234  -16.3652 C   0  0  1  0  0  0  0  0  0  0  0  0
   28.2574  -20.6369  -15.1852 C   0  0  0  0  0  0  0  0  0  0  0  0
   27.5613  -21.6617  -15.2938 O   0  0  0  0  0  0  0  0  0  0  0  0
   31.4830  -21.1955   -9.3367 C   0  0  0  0  0  0  0  0  0  0  0  0
   31.4987  -22.3487  -10.7477 S   0  0  0  0  0  0  0  0  0  0  0  0
   30.8168  -21.4784  -12.1708 C   0  0  0  0  0  0  0  0  0  0  0  0
   29.5703  -20.7496  -11.7100 C   0  0  0  0  0  0  0  0  0  0  0  0
   28.4535  -21.0025  -12.6964 C   0  0  2  0  0  0  0  0  0  0  0  0
   28.7711  -20.2633  -13.9139 N   0  0  0  0  0  0  0  0  0  0  0  0
   27.1987  -20.4899  -12.0809 C   0  0  0  0  0  0  0  0  0  0  0  0
   27.1108  -19.2414  -11.8747 O   0  0  0  0  0  0  0  0  0  0  0  0
   20.2147  -18.6016  -15.0693 N   0  0  0  0  0  0  0  0  0  0  0  0
   20.1696  -19.5788  -14.0123 C   0  0  0  0  0  0  0  0  0  0  0  0
   19.0831  -19.7853  -13.3507 N   0  0  0  0  0  0  0  0  0  0  0  0
   21.3277  -20.3285  -13.6784 N   0  0  0  0  0  0  0  0  0  0  0  0
   21.3366  -21.1445  -12.4855 C   0  0  0  0  0  0  0  0  0  0  0  0
   22.4098  -20.6994  -11.5480 C   0  0  0  0  0  0  0  0  0  0  0  0
   23.7575  -21.1446  -12.0226 C   0  0  0  0  0  0  0  0  0  0  0  0
   24.9001  -20.6759  -11.1929 C   0  0  2  0  0  0  0  0  0  0  0  0
   26.1215  -21.3065  -11.7226 N   0  0  0  0  0  0  0  0  0  0  0  0
   24.7702  -20.9887   -9.7550 C   0  0  0  0  0  0  0  0  0  0  0  0
   23.9727  -20.2866   -8.8709 O   0  0  0  0  0  0  0  0  0  0  0  0
   25.4226  -21.9567   -9.2865 O   0  0  0  0  0  0  0  0  0  0  0  0
  1  5  1  0
  2  3  1  0
  2  1  1  0
  3  4  1  0
  4  5  1  0
  5  6  1  1
  6  7  2  0
  9  8  1  0
 10  9  1  0
 11 10  1  0
 12 11  1  1
 12 14  1  0
 13  6  1  0
 13 12  1  0
 14 24  1  0
 14 15  2  0
 16 17  1  0
 17 19  1  0
 18 17  2  0
 19 20  1  0
 20 21  1  0
 21 22  1  0
 23 22  1  6
 23 25  1  0
 24 23  1  0
 25 27  2  0
 25 26  1  0
M  END
$$$$
