PMR.pdb
     RDKit          3D

 27 27  0  0  1  0  0  0  0  0999 V2000
   27.2747  -19.0232  -14.5705 N   0  0  0  0  0  0  0  0  0  0  0  0
   27.9422  -18.6875  -15.8154 C   0  0  0  0  0  0  0  0  0  0  0  0
   28.9989  -19.7586  -15.9872 C   0  0  0  0  0  0  0  0  0  0  0  0
   28.7082  -20.7845  -14.8807 C   0  0  0  0  0  0  0  0  0  0  0  0
   27.2647  -20.4613  -14.6109 C   0  0  1  0  0  0  0  0  0  0  0  0
   26.6968  -21.0850  -13.4178 C   0  0  0  0  0  0  0  0  0  0  0  0
   26.2050  -22.2250  -13.4907 O   0  0  0  0  0  0  0  0  0  0  0  0
   27.6730  -18.6343   -7.6274 C   0  0  0  0  0  0  0  0  0  0  0  0
   26.6708  -20.0680   -7.1165 S   0  0  0  0  0  0  0  0  0  0  0  0
   25.7707  -20.6485   -8.5658 C   0  0  0  0  0  0  0  0  0  0  0  0
   26.5427  -20.2076   -9.7933 C   0  0  0  0  0  0  0  0  0  0  0  0
   25.9528  -20.8713  -11.0164 C   0  0  2  0  0  0  0  0  0  0  0  0
   26.7023  -20.3962  -12.1748 N   0  0  0  0  0  0  0  0  0  0  0  0
   24.5278  -20.4494  -11.1016 C   0  0  0  0  0  0  0  0  0  0  0  0
   24.2872  -19.2129  -11.2501 O   0  0  0  0  0  0  0  0  0  0  0  0
   22.6855  -19.2686  -16.3469 N   0  0  0  0  0  0  0  0  0  0  0  0
   21.2826  -19.3450  -16.6632 C   0  0  0  0  0  0  0  0  0  0  0  0
   20.7393  -18.4934  -17.4636 N   0  0  0  0  0  0  0  0  0  0  0  0
   20.4725  -20.3607  -16.0915 N   0  0  0  0  0  0  0  0  0  0  0  0
   21.0359  -21.2651  -15.1149 C   0  0  0  0  0  0  0  0  0  0  0  0
   21.2519  -20.5691  -13.8119 C   0  0  0  0  0  0  0  0  0  0  0  0
   21.8607  -21.4922  -12.8033 C   0  0  0  0  0  0  0  0  0  0  0  0
   22.1230  -20.8807  -11.4726 C   0  0  2  0  0  0  0  0  0  0  0  0
   23.4507  -21.3383  -11.0277 N   0  0  0  0  0  0  0  0  0  0  0  0
   21.1175  -21.2186  -10.4445 C   0  0  0  0  0  0  0  0  0  0  0  0
   21.3718  -21.9889   -9.3252 O   0  0  0  0  0  0  0  0  0  0  0  0
   19.9451  -20.7841  -10.5810 O   0  0  0  0  0  0  0  0  0  0  0  0
  1  5  1  0
  2  3  1  0
  2  1  1  0
  3  4  1  0
  4  5  1  0
  5  6  1  1
  6  7  2  0
  9  8  1  0
 10  9  1  0
 11 10  1  0
 12 11  1  1
 12 14  1  0
 13  6  1  0
 13 12  1  0
 14 24  1  0
 14 15  2  0
 16 17  1  0
 17 19  1  0
 18 17  2  0
 19 20  1  0
 20 21  1  0
 21 22  1  0
 23 22  1  6
 23 25  1  0
 24 23  1  0
 25 27  2  0
 25 26  1  0
M  END
$$$$
