ICS.pdb
     RDKit          3D

 21 20  0  0  1  0  0  0  0  0999 V2000
    7.5153  -11.4452   19.0932 C   0  0  0  0  0  0  0  0  0  0  0  0
    7.8625  -12.6754   18.3263 C   0  0  0  0  0  0  0  0  0  0  0  0
    8.3302  -13.8198   19.1693 C   0  0  2  0  0  0  0  0  0  0  0  0
    9.6120  -13.4018   19.8566 C   0  0  0  0  0  0  0  0  0  0  0  0
    8.6174  -15.0621   18.3613 C   0  0  2  0  0  0  0  0  0  0  0  0
    7.4384  -15.5538   17.6996 N   0  0  0  0  0  0  0  0  0  0  0  0
    9.1497  -16.0982   19.3164 C   0  0  0  0  0  0  0  0  0  0  0  0
    8.3809  -16.7509   20.0609 O   0  0  0  0  0  0  0  0  0  0  0  0
   10.5547  -16.3434   19.3769 N   0  0  0  0  0  0  0  0  0  0  0  0
   11.1185  -17.3404   20.2378 C   0  0  1  0  0  0  0  0  0  0  0  0
   12.1646  -18.1302   19.4959 C   0  0  0  0  0  0  0  0  0  0  0  0
   12.8233  -19.3793   20.6283 S   0  0  0  0  0  0  0  0  0  0  0  0
   11.6945  -16.7523   21.4813 C   0  0  0  0  0  0  0  0  0  0  0  0
   12.5484  -15.8413   21.3691 O   0  0  0  0  0  0  0  0  0  0  0  0
   10.3669  -17.9766   25.2499 O   0  0  0  0  0  0  0  0  0  0  0  0
   10.8579  -16.6802   25.1137 C   0  0  0  0  0  0  0  0  0  0  0  0
   11.8474  -16.5943   23.9654 C   0  0  2  0  0  0  0  0  0  0  0  0
   11.3068  -17.1905   22.7604 N   0  0  0  0  0  0  0  0  0  0  0  0
   13.1424  -17.2164   24.3296 C   0  0  0  0  0  0  0  0  0  0  0  0
   13.5580  -18.2783   23.8062 O   0  0  0  0  0  0  0  0  0  0  0  0
   13.9686  -16.6260   25.2953 O   0  0  0  0  0  0  0  0  0  0  0  0
  2  1  1  0
  3  2  1  0
  3  4  1  6
  5  7  1  0
  5  3  1  0
  5  6  1  1
  7  8  2  0
  9 10  1  0
  9  7  1  0
 11 12  1  0
 10 11  1  6
 13 18  1  0
 13 10  1  0
 14 13  2  0
 16 15  1  0
 17 18  1  0
 17 16  1  1
 19 17  1  0
 20 19  2  0
 21 19  1  0
M  END
$$$$
