ICS.pdb
     RDKit          3D

 21 20  0  0  1  0  0  0  0  0999 V2000
    6.9693  -11.9378   22.7222 C   0  0  0  0  0  0  0  0  0  0  0  0
    7.2879  -13.2813   23.2837 C   0  0  0  0  0  0  0  0  0  0  0  0
    8.0258  -14.1854   22.3471 C   0  0  2  0  0  0  0  0  0  0  0  0
    7.1545  -14.4112   21.1306 C   0  0  0  0  0  0  0  0  0  0  0  0
    8.3353  -15.5315   22.9560 C   0  0  2  0  0  0  0  0  0  0  0  0
    7.1501  -16.1792   23.4516 N   0  0  0  0  0  0  0  0  0  0  0  0
    9.3095  -15.2954   24.0803 C   0  0  0  0  0  0  0  0  0  0  0  0
   10.4675  -14.8700   23.8575 O   0  0  0  0  0  0  0  0  0  0  0  0
    8.9096  -15.5600   25.4249 N   0  0  0  0  0  0  0  0  0  0  0  0
    9.8186  -15.4482   26.5269 C   0  0  1  0  0  0  0  0  0  0  0  0
    9.2514  -14.5226   27.5709 C   0  0  0  0  0  0  0  0  0  0  0  0
   10.4858  -14.3433   28.8827 S   0  0  0  0  0  0  0  0  0  0  0  0
   10.1435  -16.7740   27.1275 C   0  0  0  0  0  0  0  0  0  0  0  0
    9.2154  -17.4337   27.6519 O   0  0  0  0  0  0  0  0  0  0  0  0
   13.2848  -20.4622   27.4034 O   0  0  0  0  0  0  0  0  0  0  0  0
   13.0419  -19.1522   26.9971 C   0  0  0  0  0  0  0  0  0  0  0  0
   11.7370  -18.6384   27.5788 C   0  0  2  0  0  0  0  0  0  0  0  0
   11.4502  -17.2944   27.1192 N   0  0  0  0  0  0  0  0  0  0  0  0
   11.7523  -18.7003   29.0595 C   0  0  0  0  0  0  0  0  0  0  0  0
   11.8279  -17.6774   29.7823 O   0  0  0  0  0  0  0  0  0  0  0  0
   11.6811  -19.9337   29.7207 O   0  0  0  0  0  0  0  0  0  0  0  0
  2  1  1  0
  3  2  1  0
  3  4  1  6
  5  7  1  0
  5  3  1  0
  5  6  1  1
  7  8  2  0
  9 10  1  0
  9  7  1  0
 11 12  1  0
 10 11  1  1
 13 18  1  0
 13 10  1  0
 14 13  2  0
 16 15  1  0
 17 18  1  0
 17 16  1  6
 19 17  1  0
 20 19  2  0
 21 19  1  0
M  END
$$$$
