ICS.pdb
     RDKit          3D

 21 20  0  0  1  0  0  0  0  0999 V2000
    7.4076  -12.9214   19.0685 C   0  0  0  0  0  0  0  0  0  0  0  0
    6.9590  -13.6130   20.3105 C   0  0  0  0  0  0  0  0  0  0  0  0
    8.0627  -13.9605   21.2594 C   0  0  2  0  0  0  0  0  0  0  0  0
    9.0009  -14.9172   20.5562 C   0  0  0  0  0  0  0  0  0  0  0  0
    7.5639  -14.6340   22.5150 C   0  0  2  0  0  0  0  0  0  0  0  0
    6.5417  -13.8595   23.1669 N   0  0  0  0  0  0  0  0  0  0  0  0
    8.7505  -14.8045   23.4272 C   0  0  0  0  0  0  0  0  0  0  0  0
    9.4201  -13.8174   23.8127 O   0  0  0  0  0  0  0  0  0  0  0  0
    9.1213  -16.1126   23.8620 N   0  0  0  0  0  0  0  0  0  0  0  0
   10.3199  -16.3570   24.6081 C   0  0  1  0  0  0  0  0  0  0  0  0
    9.9770  -16.8958   25.9721 C   0  0  0  0  0  0  0  0  0  0  0  0
    9.1504  -15.5778   26.8974 S   0  0  0  0  0  0  0  0  0  0  0  0
   11.2467  -17.2856   23.8992 C   0  0  0  0  0  0  0  0  0  0  0  0
   10.7702  -18.3248   23.3847 O   0  0  0  0  0  0  0  0  0  0  0  0
   14.1462  -16.2470   21.4841 O   0  0  0  0  0  0  0  0  0  0  0  0
   14.6451  -17.1539   22.4162 C   0  0  0  0  0  0  0  0  0  0  0  0
   13.5168  -17.9193   23.0842 C   0  0  2  0  0  0  0  0  0  0  0  0
   12.6251  -17.0258   23.7957 N   0  0  0  0  0  0  0  0  0  0  0  0
   14.0458  -18.9695   23.9863 C   0  0  0  0  0  0  0  0  0  0  0  0
   13.8150  -18.9863   25.2195 O   0  0  0  0  0  0  0  0  0  0  0  0
   14.8419  -20.0063   23.4812 O   0  0  0  0  0  0  0  0  0  0  0  0
  2  1  1  0
  3  2  1  0
  3  4  1  6
  5  7  1  0
  5  3  1  0
  5  6  1  1
  7  8  2  0
  9 10  1  0
  9  7  1  0
 11 12  1  0
 10 11  1  1
 13 18  1  0
 13 10  1  0
 14 13  2  0
 16 15  1  0
 17 18  1  0
 17 16  1  1
 19 17  1  0
 20 19  2  0
 21 19  1  0
M  END
$$$$
