ICS.pdb
     RDKit          3D

 21 20  0  0  1  0  0  0  0  0999 V2000
    7.3991  -12.1453   18.4866 C   0  0  0  0  0  0  0  0  0  0  0  0
    7.4846  -13.5724   18.9086 C   0  0  0  0  0  0  0  0  0  0  0  0
    8.1945  -13.7931   20.2072 C   0  0  2  0  0  0  0  0  0  0  0  0
    9.6130  -13.2879   20.0572 C   0  0  0  0  0  0  0  0  0  0  0  0
    8.2566  -15.2495   20.5995 C   0  0  2  0  0  0  0  0  0  0  0  0
    6.9442  -15.8119   20.7759 N   0  0  0  0  0  0  0  0  0  0  0  0
    9.0351  -15.3285   21.8866 C   0  0  0  0  0  0  0  0  0  0  0  0
   10.2747  -15.1432   21.9080 O   0  0  0  0  0  0  0  0  0  0  0  0
    8.3516  -15.6196   23.1055 N   0  0  0  0  0  0  0  0  0  0  0  0
    9.0384  -15.7252   24.3586 C   0  0  1  0  0  0  0  0  0  0  0  0
    8.0585  -15.6003   25.4955 C   0  0  0  0  0  0  0  0  0  0  0  0
    7.1794  -14.0301   25.3002 S   0  0  0  0  0  0  0  0  0  0  0  0
    9.8107  -16.9957   24.4737 C   0  0  0  0  0  0  0  0  0  0  0  0
    9.2254  -18.0739   24.2155 O   0  0  0  0  0  0  0  0  0  0  0  0
   13.2762  -17.4311   22.9948 O   0  0  0  0  0  0  0  0  0  0  0  0
   13.3410  -17.9696   24.2778 C   0  0  0  0  0  0  0  0  0  0  0  0
   11.9494  -18.2286   24.8269 C   0  0  2  0  0  0  0  0  0  0  0  0
   11.1630  -17.0120   24.8602 N   0  0  0  0  0  0  0  0  0  0  0  0
   12.0137  -18.8552   26.1685 C   0  0  0  0  0  0  0  0  0  0  0  0
   11.5036  -18.3322   27.1886 O   0  0  0  0  0  0  0  0  0  0  0  0
   12.6624  -20.0841   26.3494 O   0  0  0  0  0  0  0  0  0  0  0  0
  2  1  1  0
  3  2  1  0
  3  4  1  6
  5  7  1  0
  5  3  1  0
  5  6  1  1
  7  8  2  0
  9 10  1  0
  9  7  1  0
 11 12  1  0
 10 11  1  1
 13 18  1  0
 13 10  1  0
 14 13  2  0
 16 15  1  0
 17 18  1  0
 17 16  1  1
 19 17  1  0
 20 19  2  0
 21 19  1  0
M  END
$$$$
