ICS.pdb
     RDKit          3D

 21 20  0  0  1  0  0  0  0  0999 V2000
    7.5532  -16.2073   17.0399 C   0  0  0  0  0  0  0  0  0  0  0  0
    7.1952  -15.0439   17.9004 C   0  0  0  0  0  0  0  0  0  0  0  0
    7.9973  -14.9338   19.1588 C   0  0  2  0  0  0  0  0  0  0  0  0
    7.8076  -16.2110   19.9481 C   0  0  0  0  0  0  0  0  0  0  0  0
    7.5646  -13.7786   20.0289 C   0  0  2  0  0  0  0  0  0  0  0  0
    7.7362  -12.5148   19.3633 N   0  0  0  0  0  0  0  0  0  0  0  0
    8.4031  -13.8277   21.2792 C   0  0  0  0  0  0  0  0  0  0  0  0
    9.6216  -13.5340   21.2558 O   0  0  0  0  0  0  0  0  0  0  0  0
    7.8020  -14.2154   22.5146 N   0  0  0  0  0  0  0  0  0  0  0  0
    8.5563  -14.3273   23.7277 C   0  0  1  0  0  0  0  0  0  0  0  0
    7.7336  -13.8429   24.8926 C   0  0  0  0  0  0  0  0  0  0  0  0
    6.1707  -14.7561   24.8858 S   0  0  0  0  0  0  0  0  0  0  0  0
    9.0329  -15.7195   23.9698 C   0  0  0  0  0  0  0  0  0  0  0  0
    8.2510  -16.6679   23.7231 O   0  0  0  0  0  0  0  0  0  0  0  0
   13.0475  -16.5197   24.3094 O   0  0  0  0  0  0  0  0  0  0  0  0
   12.1580  -17.5174   23.9175 C   0  0  0  0  0  0  0  0  0  0  0  0
   10.8147  -17.3449   24.6038 C   0  0  2  0  0  0  0  0  0  0  0  0
   10.3226  -15.9895   24.4619 N   0  0  0  0  0  0  0  0  0  0  0  0
   10.8916  -17.7342   26.0318 C   0  0  0  0  0  0  0  0  0  0  0  0
   10.5887  -16.9542   26.9667 O   0  0  0  0  0  0  0  0  0  0  0  0
   11.3158  -19.0189   26.3971 O   0  0  0  0  0  0  0  0  0  0  0  0
  2  1  1  0
  3  2  1  0
  3  4  1  1
  5  7  1  0
  5  3  1  0
  5  6  1  6
  7  8  2  0
  9 10  1  0
  9  7  1  0
 11 12  1  0
 10 11  1  1
 13 18  1  0
 13 10  1  0
 14 13  2  0
 16 15  1  0
 17 18  1  0
 17 16  1  1
 19 17  1  0
 20 19  2  0
 21 19  1  0
M  END
$$$$
