ICS.pdb
     RDKit          3D

 21 20  0  0  1  0  0  0  0  0999 V2000
    7.3243  -15.4416   17.0558 C   0  0  0  0  0  0  0  0  0  0  0  0
    7.3047  -14.2579   17.9616 C   0  0  0  0  0  0  0  0  0  0  0  0
    7.8083  -14.5274   19.3447 C   0  0  2  0  0  0  0  0  0  0  0  0
    6.9298  -15.5929   19.9635 C   0  0  0  0  0  0  0  0  0  0  0  0
    7.7591  -13.3079   20.2329 C   0  0  2  0  0  0  0  0  0  0  0  0
    8.5364  -12.2233   19.6951 N   0  0  0  0  0  0  0  0  0  0  0  0
    8.2975  -13.7182   21.5786 C   0  0  0  0  0  0  0  0  0  0  0  0
    9.5242  -13.9032   21.7581 O   0  0  0  0  0  0  0  0  0  0  0  0
    7.3967  -13.9004   22.6709 N   0  0  0  0  0  0  0  0  0  0  0  0
    7.8532  -14.2234   23.9901 C   0  0  1  0  0  0  0  0  0  0  0  0
    6.7706  -13.9319   24.9959 C   0  0  0  0  0  0  0  0  0  0  0  0
    6.5404  -12.1375   25.0587 S   0  0  0  0  0  0  0  0  0  0  0  0
    8.2995  -15.6419   24.1016 C   0  0  0  0  0  0  0  0  0  0  0  0
    7.4391  -16.5472   23.9929 O   0  0  0  0  0  0  0  0  0  0  0  0
   12.3517  -16.6589   24.1927 O   0  0  0  0  0  0  0  0  0  0  0  0
   11.4089  -17.5859   23.7545 C   0  0  0  0  0  0  0  0  0  0  0  0
   10.0722  -17.3631   24.4392 C   0  0  2  0  0  0  0  0  0  0  0  0
    9.6459  -15.9831   24.3229 N   0  0  0  0  0  0  0  0  0  0  0  0
   10.1238  -17.7842   25.8593 C   0  0  0  0  0  0  0  0  0  0  0  0
    9.8735  -17.0041   26.8096 O   0  0  0  0  0  0  0  0  0  0  0  0
   10.4623  -19.1009   26.1990 O   0  0  0  0  0  0  0  0  0  0  0  0
  2  1  1  0
  3  2  1  0
  3  4  1  1
  5  7  1  0
  5  3  1  0
  5  6  1  6
  7  8  2  0
  9 10  1  0
  9  7  1  0
 11 12  1  0
 10 11  1  1
 13 18  1  0
 13 10  1  0
 14 13  2  0
 16 15  1  0
 17 18  1  0
 17 16  1  1
 19 17  1  0
 20 19  2  0
 21 19  1  0
M  END
$$$$
