ICS.pdb
     RDKit          3D

 21 20  0  0  1  0  0  0  0  0999 V2000
    6.9377  -11.8595   27.7276 C   0  0  0  0  0  0  0  0  0  0  0  0
    6.2227  -12.9069   26.9442 C   0  0  0  0  0  0  0  0  0  0  0  0
    7.1151  -13.7855   26.1251 C   0  0  2  0  0  0  0  0  0  0  0  0
    7.8288  -12.9150   25.1137 C   0  0  0  0  0  0  0  0  0  0  0  0
    6.3556  -14.8502   25.3714 C   0  0  2  0  0  0  0  0  0  0  0  0
    5.7326  -15.7935   26.2613 N   0  0  0  0  0  0  0  0  0  0  0  0
    7.3450  -15.5513   24.4779 C   0  0  0  0  0  0  0  0  0  0  0  0
    8.0075  -16.5335   24.8877 O   0  0  0  0  0  0  0  0  0  0  0  0
    7.5339  -15.0910   23.1399 N   0  0  0  0  0  0  0  0  0  0  0  0
    8.3382  -15.8060   22.1939 C   0  0  1  0  0  0  0  0  0  0  0  0
    8.1888  -15.1957   20.8251 C   0  0  0  0  0  0  0  0  0  0  0  0
    6.4746  -15.4348   20.2951 S   0  0  0  0  0  0  0  0  0  0  0  0
    9.7748  -15.8478   22.5917 C   0  0  0  0  0  0  0  0  0  0  0  0
   10.3430  -14.7695   22.8850 O   0  0  0  0  0  0  0  0  0  0  0  0
   11.5106  -19.4668   23.3116 O   0  0  0  0  0  0  0  0  0  0  0  0
   12.1229  -18.3719   23.9171 C   0  0  0  0  0  0  0  0  0  0  0  0
   11.8629  -17.1015   23.1275 C   0  0  2  0  0  0  0  0  0  0  0  0
   10.4975  -17.0532   22.6446 N   0  0  0  0  0  0  0  0  0  0  0  0
   12.8258  -16.9621   22.0094 C   0  0  0  0  0  0  0  0  0  0  0  0
   12.4705  -16.9231   20.8066 O   0  0  0  0  0  0  0  0  0  0  0  0
   14.2008  -16.8665   22.2625 O   0  0  0  0  0  0  0  0  0  0  0  0
  2  1  1  0
  3  2  1  0
  3  4  1  6
  5  7  1  0
  5  3  1  0
  5  6  1  1
  7  8  2  0
  9 10  1  0
  9  7  1  0
 11 12  1  0
 10 11  1  6
 13 18  1  0
 13 10  1  0
 14 13  2  0
 16 15  1  0
 17 18  1  0
 17 16  1  6
 19 17  1  0
 20 19  2  0
 21 19  1  0
M  END
$$$$
