ICS.pdb
     RDKit          3D

 21 20  0  0  1  0  0  0  0  0999 V2000
    7.6957  -12.3532   18.4672 C   0  0  0  0  0  0  0  0  0  0  0  0
    7.1948  -13.5429   19.2128 C   0  0  0  0  0  0  0  0  0  0  0  0
    7.7256  -13.6696   20.6061 C   0  0  2  0  0  0  0  0  0  0  0  0
    9.2302  -13.8086   20.5230 C   0  0  0  0  0  0  0  0  0  0  0  0
    7.1844  -14.8784   21.3303 C   0  0  2  0  0  0  0  0  0  0  0  0
    5.7458  -14.8977   21.3370 N   0  0  0  0  0  0  0  0  0  0  0  0
    7.7117  -14.8228   22.7401 C   0  0  0  0  0  0  0  0  0  0  0  0
    7.5872  -13.7901   23.4397 O   0  0  0  0  0  0  0  0  0  0  0  0
    8.3657  -15.9654   23.2922 N   0  0  0  0  0  0  0  0  0  0  0  0
    9.0094  -15.9314   24.5719 C   0  0  1  0  0  0  0  0  0  0  0  0
    7.9767  -15.8924   25.6675 C   0  0  0  0  0  0  0  0  0  0  0  0
    6.5454  -16.8531   25.1150 S   0  0  0  0  0  0  0  0  0  0  0  0
    9.9347  -17.0842   24.7691 C   0  0  0  0  0  0  0  0  0  0  0  0
    9.4835  -18.2434   24.6132 O   0  0  0  0  0  0  0  0  0  0  0  0
   14.0490  -16.4990   25.1147 O   0  0  0  0  0  0  0  0  0  0  0  0
   13.5447  -17.6939   24.6066 C   0  0  0  0  0  0  0  0  0  0  0  0
   12.1993  -18.0216   25.2291 C   0  0  2  0  0  0  0  0  0  0  0  0
   11.2843  -16.9032   25.1214 N   0  0  0  0  0  0  0  0  0  0  0  0
   12.3541  -18.4458   26.6408 C   0  0  0  0  0  0  0  0  0  0  0  0
   12.8995  -17.7256   27.5115 O   0  0  0  0  0  0  0  0  0  0  0  0
   11.8852  -19.6970   27.0631 O   0  0  0  0  0  0  0  0  0  0  0  0
  2  1  1  0
  3  2  1  0
  3  4  1  6
  5  7  1  0
  5  3  1  0
  5  6  1  1
  7  8  2  0
  9 10  1  0
  9  7  1  0
 11 12  1  0
 10 11  1  1
 13 18  1  0
 13 10  1  0
 14 13  2  0
 16 15  1  0
 17 18  1  0
 17 16  1  1
 19 17  1  0
 20 19  2  0
 21 19  1  0
M  END
$$$$
