ICS.pdb
     RDKit          3D

 21 20  0  0  1  0  0  0  0  0999 V2000
    7.1963  -15.8530   17.7727 C   0  0  0  0  0  0  0  0  0  0  0  0
    7.1077  -14.6074   18.5867 C   0  0  0  0  0  0  0  0  0  0  0  0
    7.6347  -14.7394   19.9810 C   0  0  2  0  0  0  0  0  0  0  0  0
    6.8053  -15.7823   20.6982 C   0  0  0  0  0  0  0  0  0  0  0  0
    7.5451  -13.4521   20.7643 C   0  0  2  0  0  0  0  0  0  0  0  0
    8.2679  -12.3855   20.1241 N   0  0  0  0  0  0  0  0  0  0  0  0
    8.1186  -13.7242   22.1303 C   0  0  0  0  0  0  0  0  0  0  0  0
    9.3538  -13.8507   22.3025 O   0  0  0  0  0  0  0  0  0  0  0  0
    7.2419  -13.8405   23.2509 N   0  0  0  0  0  0  0  0  0  0  0  0
    7.7288  -14.0611   24.5803 C   0  0  1  0  0  0  0  0  0  0  0  0
    6.6776  -13.6703   25.5856 C   0  0  0  0  0  0  0  0  0  0  0  0
    6.4755  -11.8731   25.5066 S   0  0  0  0  0  0  0  0  0  0  0  0
    8.1578  -15.4728   24.7974 C   0  0  0  0  0  0  0  0  0  0  0  0
    7.2847  -16.3720   24.7665 O   0  0  0  0  0  0  0  0  0  0  0  0
   12.0906  -16.5098   24.4123 O   0  0  0  0  0  0  0  0  0  0  0  0
   11.1178  -17.4996   24.2929 C   0  0  0  0  0  0  0  0  0  0  0  0
    9.9226  -17.1932   25.1777 C   0  0  2  0  0  0  0  0  0  0  0  0
    9.5018  -15.8142   25.0330 N   0  0  0  0  0  0  0  0  0  0  0  0
   10.2129  -17.5128   26.5955 C   0  0  0  0  0  0  0  0  0  0  0  0
   10.0617  -16.6832   27.5246 O   0  0  0  0  0  0  0  0  0  0  0  0
   10.6780  -18.7843   26.9573 O   0  0  0  0  0  0  0  0  0  0  0  0
  2  1  1  0
  3  2  1  0
  3  4  1  1
  5  7  1  0
  5  3  1  0
  5  6  1  6
  7  8  2  0
  9 10  1  0
  9  7  1  0
 11 12  1  0
 10 11  1  1
 13 18  1  0
 13 10  1  0
 14 13  2  0
 16 15  1  0
 17 18  1  0
 17 16  1  6
 19 17  1  0
 20 19  2  0
 21 19  1  0
M  END
$$$$
