ICS.pdb
     RDKit          3D

 21 20  0  0  1  0  0  0  0  0999 V2000
    8.1644  -11.7150   19.5071 C   0  0  0  0  0  0  0  0  0  0  0  0
    8.9178  -12.9864   19.7015 C   0  0  0  0  0  0  0  0  0  0  0  0
    8.0797  -14.2230   19.6142 C   0  0  2  0  0  0  0  0  0  0  0  0
    6.9031  -14.0584   20.5515 C   0  0  0  0  0  0  0  0  0  0  0  0
    8.8301  -15.4680   20.0211 C   0  0  2  0  0  0  0  0  0  0  0  0
    8.0192  -16.6487   19.8866 N   0  0  0  0  0  0  0  0  0  0  0  0
    9.2487  -15.2835   21.4563 C   0  0  0  0  0  0  0  0  0  0  0  0
   10.1030  -14.4244   21.7781 O   0  0  0  0  0  0  0  0  0  0  0  0
    8.6635  -16.1002   22.4703 N   0  0  0  0  0  0  0  0  0  0  0  0
    9.1182  -16.0722   23.8288 C   0  0  1  0  0  0  0  0  0  0  0  0
    7.9745  -15.7330   24.7482 C   0  0  0  0  0  0  0  0  0  0  0  0
    8.5778  -15.8509   26.4508 S   0  0  0  0  0  0  0  0  0  0  0  0
    9.7521  -17.3584   24.2386 C   0  0  0  0  0  0  0  0  0  0  0  0
    9.0140  -18.3561   24.4158 O   0  0  0  0  0  0  0  0  0  0  0  0
   13.9140  -17.8980   24.0386 O   0  0  0  0  0  0  0  0  0  0  0  0
   13.0119  -18.9380   23.8266 C   0  0  0  0  0  0  0  0  0  0  0  0
   11.7685  -18.7580   24.6791 C   0  0  2  0  0  0  0  0  0  0  0  0
   11.1407  -17.4763   24.4285 N   0  0  0  0  0  0  0  0  0  0  0  0
   12.0805  -18.9229   26.1186 C   0  0  0  0  0  0  0  0  0  0  0  0
   11.9003  -18.0119   26.9624 O   0  0  0  0  0  0  0  0  0  0  0  0
   12.6007  -20.1319   26.5998 O   0  0  0  0  0  0  0  0  0  0  0  0
  2  1  1  0
  3  2  1  0
  3  4  1  1
  5  7  1  0
  5  3  1  0
  5  6  1  1
  7  8  2  0
  9 10  1  0
  9  7  1  0
 11 12  1  0
 10 11  1  1
 13 18  1  0
 13 10  1  0
 14 13  2  0
 16 15  1  0
 17 18  1  0
 17 16  1  6
 19 17  1  0
 20 19  2  0
 21 19  1  0
M  END
$$$$
