GWG.pdb
     RDKit          3D

 23 24  0  0  1  0  0  0  0  0999 V2000
   27.5774  -21.7439  -15.4904 N   0  0  0  0  0  0  0  0  0  0  0  0
   27.9362  -20.8718  -14.4128 C   0  0  0  0  0  0  0  0  0  0  0  0
   27.1773  -21.2178  -13.1547 C   0  0  0  0  0  0  0  0  0  0  0  0
   26.2853  -22.0710  -13.2229 O   0  0  0  0  0  0  0  0  0  0  0  0
   27.4568  -20.6012  -11.9208 N   0  0  0  0  0  0  0  0  0  0  0  0
   26.7516  -20.6882  -10.6998 C   0  0  1  0  0  0  0  0  0  0  0  0
   27.3643  -20.1122   -9.4687 C   0  0  0  0  0  0  0  0  0  0  0  0
   26.7616  -20.4504   -8.1818 C   0  0  0  0  0  0  0  0  0  0  0  0
   25.6155  -21.0550   -7.7822 C   0  0  0  0  0  0  0  0  0  0  0  0
   25.5736  -21.1066   -6.4462 N   0  0  0  0  0  0  0  0  0  0  0  0
   26.6833  -20.5425   -5.9372 C   0  0  0  0  0  0  0  0  0  0  0  0
   27.1456  -20.3399   -4.6490 C   0  0  0  0  0  0  0  0  0  0  0  0
   28.3535  -19.7279   -4.4114 C   0  0  0  0  0  0  0  0  0  0  0  0
   29.1361  -19.2997   -5.4632 C   0  0  0  0  0  0  0  0  0  0  0  0
   28.6585  -19.5103   -6.7355 C   0  0  0  0  0  0  0  0  0  0  0  0
   27.4522  -20.1200   -6.9921 C   0  0  0  0  0  0  0  0  0  0  0  0
   25.3365  -20.2738  -10.7273 C   0  0  0  0  0  0  0  0  0  0  0  0
   25.0682  -19.0384  -10.6968 O   0  0  0  0  0  0  0  0  0  0  0  0
   24.2592  -21.2050  -10.7869 N   0  0  0  0  0  0  0  0  0  0  0  0
   23.0715  -20.8274  -11.4916 C   0  0  0  0  0  0  0  0  0  0  0  0
   21.8842  -20.7610  -10.6157 C   0  0  0  0  0  0  0  0  0  0  0  0
   20.6484  -21.2704  -10.9629 O   0  0  0  0  0  0  0  0  0  0  0  0
   22.0120  -20.2089   -9.4926 O   0  0  0  0  0  0  0  0  0  0  0  0
  1  2  1  0
  3  4  2  0
  3  2  1  0
  5  3  1  0
  6  5  1  0
  6 17  1  0
  6  7  1  1
  8  7  1  0
  9  8  2  0
 10 11  1  0
 10  9  1  0
 11 16  2  0
 12 11  1  0
 12 13  2  0
 13 14  1  0
 14 15  2  0
 16  8  1  0
 16 15  1  0
 17 19  1  0
 17 18  2  0
 19 20  1  0
 20 21  1  0
 21 23  2  0
 21 22  1  0
M  END
$$$$
