GWG.pdb
     RDKit          3D

 23 24  0  0  1  0  0  0  0  0999 V2000
   27.4718  -22.5392  -15.8229 N   0  0  0  0  0  0  0  0  0  0  0  0
   27.7056  -21.4464  -14.9275 C   0  0  0  0  0  0  0  0  0  0  0  0
   26.9884  -21.6525  -13.6155 C   0  0  0  0  0  0  0  0  0  0  0  0
   26.0210  -22.4218  -13.5897 O   0  0  0  0  0  0  0  0  0  0  0  0
   27.3888  -20.9991  -12.4350 N   0  0  0  0  0  0  0  0  0  0  0  0
   26.7638  -20.9827  -11.1682 C   0  0  1  0  0  0  0  0  0  0  0  0
   27.5550  -20.5597   -9.9774 C   0  0  0  0  0  0  0  0  0  0  0  0
   26.8743  -20.5103   -8.6860 C   0  0  0  0  0  0  0  0  0  0  0  0
   25.6265  -20.8004   -8.2412 C   0  0  0  0  0  0  0  0  0  0  0  0
   25.5499  -20.5677   -6.9261 N   0  0  0  0  0  0  0  0  0  0  0  0
   26.7366  -20.1230   -6.4760 C   0  0  0  0  0  0  0  0  0  0  0  0
   27.2041  -19.7476   -5.2290 C   0  0  0  0  0  0  0  0  0  0  0  0
   28.5016  -19.3307   -5.0483 C   0  0  0  0  0  0  0  0  0  0  0  0
   29.3715  -19.2780   -6.1172 C   0  0  0  0  0  0  0  0  0  0  0  0
   28.8871  -19.6550   -7.3480 C   0  0  0  0  0  0  0  0  0  0  0  0
   27.5920  -20.0740   -7.5476 C   0  0  0  0  0  0  0  0  0  0  0  0
   25.4524  -20.3125  -11.0911 C   0  0  0  0  0  0  0  0  0  0  0  0
   25.4040  -19.0594  -11.2538 O   0  0  0  0  0  0  0  0  0  0  0  0
   24.2382  -21.0159  -10.8415 N   0  0  0  0  0  0  0  0  0  0  0  0
   23.0061  -20.2890  -10.9006 C   0  0  0  0  0  0  0  0  0  0  0  0
   22.2383  -20.5650  -12.1316 C   0  0  0  0  0  0  0  0  0  0  0  0
   21.0553  -19.9293  -12.4537 O   0  0  0  0  0  0  0  0  0  0  0  0
   22.6921  -21.4276  -12.9269 O   0  0  0  0  0  0  0  0  0  0  0  0
  1  2  1  0
  3  4  2  0
  3  2  1  0
  5  3  1  0
  6  5  1  0
  6 17  1  0
  6  7  1  1
  8  7  1  0
  9  8  2  0
 10 11  1  0
 10  9  1  0
 11 16  2  0
 12 11  1  0
 12 13  2  0
 13 14  1  0
 14 15  2  0
 16  8  1  0
 16 15  1  0
 17 19  1  0
 17 18  2  0
 19 20  1  0
 20 21  1  0
 21 23  2  0
 21 22  1  0
M  END
$$$$
