GWG.pdb
     RDKit          3D

 23 24  0  0  1  0  0  0  0  0999 V2000
   28.8243  -17.8112  -15.2357 N   0  0  0  0  0  0  0  0  0  0  0  0
   27.9722  -18.0006  -14.1004 C   0  0  0  0  0  0  0  0  0  0  0  0
   27.5202  -19.4366  -13.9907 C   0  0  0  0  0  0  0  0  0  0  0  0
   27.8713  -20.2315  -14.8699 O   0  0  0  0  0  0  0  0  0  0  0  0
   26.7188  -19.8877  -12.9253 N   0  0  0  0  0  0  0  0  0  0  0  0
   26.2482  -21.1915  -12.6525 C   0  0  1  0  0  0  0  0  0  0  0  0
   26.6167  -21.8373  -11.3603 C   0  0  0  0  0  0  0  0  0  0  0  0
   26.3834  -21.0868  -10.1291 C   0  0  0  0  0  0  0  0  0  0  0  0
   25.3155  -20.4750   -9.5597 C   0  0  0  0  0  0  0  0  0  0  0  0
   25.6763  -19.9291   -8.3930 N   0  0  0  0  0  0  0  0  0  0  0  0
   26.9804  -20.1672   -8.1668 C   0  0  0  0  0  0  0  0  0  0  0  0
   27.8441  -19.8449   -7.1350 C   0  0  0  0  0  0  0  0  0  0  0  0
   29.1623  -20.2348   -7.1585 C   0  0  0  0  0  0  0  0  0  0  0  0
   29.6544  -20.9623   -8.2218 C   0  0  0  0  0  0  0  0  0  0  0  0
   28.7799  -21.2721   -9.2370 C   0  0  0  0  0  0  0  0  0  0  0  0
   27.4583  -20.8897   -9.2307 C   0  0  0  0  0  0  0  0  0  0  0  0
   24.8099  -21.4306  -12.8743 C   0  0  0  0  0  0  0  0  0  0  0  0
   23.9848  -20.5559  -12.4830 O   0  0  0  0  0  0  0  0  0  0  0  0
   24.3104  -22.6042  -13.5102 N   0  0  0  0  0  0  0  0  0  0  0  0
   22.9027  -22.6995  -13.7538 C   0  0  0  0  0  0  0  0  0  0  0  0
   22.5165  -23.9803  -14.3793 C   0  0  0  0  0  0  0  0  0  0  0  0
   21.2126  -24.3220  -14.6800 O   0  0  0  0  0  0  0  0  0  0  0  0
   23.4300  -24.8013  -14.6512 O   0  0  0  0  0  0  0  0  0  0  0  0
  1  2  1  0
  3  4  2  0
  3  2  1  0
  5  3  1  0
  6  5  1  0
  6 17  1  0
  6  7  1  1
  8  7  1  0
  9  8  2  0
 10 11  1  0
 10  9  1  0
 11 16  2  0
 12 11  1  0
 12 13  2  0
 13 14  1  0
 14 15  2  0
 16  8  1  0
 16 15  1  0
 17 19  1  0
 17 18  2  0
 19 20  1  0
 20 21  1  0
 21 23  2  0
 21 22  1  0
M  END
$$$$
