GWG.pdb
     RDKit          3D

 23 24  0  0  1  0  0  0  0  0999 V2000
   27.9981  -21.8181  -15.3902 N   0  0  0  0  0  0  0  0  0  0  0  0
   27.5612  -20.8100  -14.4717 C   0  0  0  0  0  0  0  0  0  0  0  0
   26.6069  -21.3790  -13.4500 C   0  0  0  0  0  0  0  0  0  0  0  0
   26.1127  -22.4917  -13.6638 O   0  0  0  0  0  0  0  0  0  0  0  0
   26.2701  -20.6830  -12.2740 N   0  0  0  0  0  0  0  0  0  0  0  0
   25.3755  -21.0510  -11.2445 C   0  0  1  0  0  0  0  0  0  0  0  0
   25.7767  -20.8311   -9.8255 C   0  0  0  0  0  0  0  0  0  0  0  0
   27.1831  -21.0138   -9.4759 C   0  0  0  0  0  0  0  0  0  0  0  0
   28.2386  -21.6613  -10.0287 C   0  0  0  0  0  0  0  0  0  0  0  0
   29.3243  -21.4891   -9.2665 N   0  0  0  0  0  0  0  0  0  0  0  0
   29.0129  -20.7288   -8.2018 C   0  0  0  0  0  0  0  0  0  0  0  0
   29.7401  -20.2486   -7.1270 C   0  0  0  0  0  0  0  0  0  0  0  0
   29.1548  -19.4635   -6.1620 C   0  0  0  0  0  0  0  0  0  0  0  0
   27.8179  -19.1359   -6.2473 C   0  0  0  0  0  0  0  0  0  0  0  0
   27.1129  -19.6234   -7.3228 C   0  0  0  0  0  0  0  0  0  0  0  0
   27.6817  -20.4108   -8.2972 C   0  0  0  0  0  0  0  0  0  0  0  0
   23.9822  -20.5895  -11.3887 C   0  0  0  0  0  0  0  0  0  0  0  0
   23.6882  -19.4241  -10.9958 O   0  0  0  0  0  0  0  0  0  0  0  0
   22.9537  -21.4000  -11.9515 N   0  0  0  0  0  0  0  0  0  0  0  0
   21.6914  -20.7912  -12.2448 C   0  0  0  0  0  0  0  0  0  0  0  0
   20.7377  -21.7276  -12.8730 C   0  0  0  0  0  0  0  0  0  0  0  0
   19.3664  -21.5716  -12.8213 O   0  0  0  0  0  0  0  0  0  0  0  0
   21.2062  -22.7200  -13.4879 O   0  0  0  0  0  0  0  0  0  0  0  0
  1  2  1  0
  3  4  2  0
  3  2  1  0
  5  3  1  0
  6  5  1  0
  6 17  1  0
  6  7  1  1
  8  7  1  0
  9  8  2  0
 10 11  1  0
 10  9  1  0
 11 16  2  0
 12 11  1  0
 12 13  2  0
 13 14  1  0
 14 15  2  0
 16  8  1  0
 16 15  1  0
 17 19  1  0
 17 18  2  0
 19 20  1  0
 20 21  1  0
 21 23  2  0
 21 22  1  0
M  END
$$$$
