GWG.pdb
     RDKit          3D

 23 24  0  0  1  0  0  0  0  0999 V2000
   21.2476  -19.2880  -14.8318 N   0  0  0  0  0  0  0  0  0  0  0  0
   22.1502  -19.7452  -13.8184 C   0  0  0  0  0  0  0  0  0  0  0  0
   23.5005  -19.0839  -13.9513 C   0  0  0  0  0  0  0  0  0  0  0  0
   23.5975  -17.8847  -13.6672 O   0  0  0  0  0  0  0  0  0  0  0  0
   24.6382  -19.7900  -14.3850 N   0  0  0  0  0  0  0  0  0  0  0  0
   25.9847  -19.3662  -14.4385 C   0  0  1  0  0  0  0  0  0  0  0  0
   26.8920  -19.6963  -13.3024 C   0  0  0  0  0  0  0  0  0  0  0  0
   26.4376  -20.6863  -12.3292 C   0  0  0  0  0  0  0  0  0  0  0  0
   26.0861  -21.9951  -12.3764 C   0  0  0  0  0  0  0  0  0  0  0  0
   25.7459  -22.4163  -11.1533 N   0  0  0  0  0  0  0  0  0  0  0  0
   25.8654  -21.4032  -10.2770 C   0  0  0  0  0  0  0  0  0  0  0  0
   25.6548  -21.2907   -8.9141 C   0  0  0  0  0  0  0  0  0  0  0  0
   25.8700  -20.1044   -8.2535 C   0  0  0  0  0  0  0  0  0  0  0  0
   26.3045  -18.9920   -8.9433 C   0  0  0  0  0  0  0  0  0  0  0  0
   26.5075  -19.1246  -10.2970 C   0  0  0  0  0  0  0  0  0  0  0  0
   26.2966  -20.3033  -10.9746 C   0  0  0  0  0  0  0  0  0  0  0  0
   26.7146  -19.6527  -15.6875 C   0  0  0  0  0  0  0  0  0  0  0  0
   27.0783  -20.8422  -15.9153 O   0  0  0  0  0  0  0  0  0  0  0  0
   27.0273  -18.6474  -16.6482 N   0  0  0  0  0  0  0  0  0  0  0  0
   27.6282  -19.0503  -17.8838 C   0  0  0  0  0  0  0  0  0  0  0  0
   28.9638  -18.4550  -18.0904 C   0  0  0  0  0  0  0  0  0  0  0  0
   29.7961  -18.7897  -19.1405 O   0  0  0  0  0  0  0  0  0  0  0  0
   29.3597  -17.5960  -17.2610 O   0  0  0  0  0  0  0  0  0  0  0  0
  1  2  1  0
  3  4  2  0
  3  2  1  0
  5  3  1  0
  6  5  1  0
  6 17  1  0
  6  7  1  1
  8  7  1  0
  9  8  2  0
 10 11  1  0
 10  9  1  0
 11 16  2  0
 12 11  1  0
 12 13  2  0
 13 14  1  0
 14 15  2  0
 16  8  1  0
 16 15  1  0
 17 19  1  0
 17 18  2  0
 19 20  1  0
 20 21  1  0
 21 23  2  0
 21 22  1  0
M  END
$$$$
