GWG.pdb
     RDKit          3D

 23 24  0  0  1  0  0  0  0  0999 V2000
   20.9331  -12.6241  -17.4001 N   0  0  0  0  0  0  0  0  0  0  0  0
   21.4260  -11.3986  -17.9530 C   0  0  0  0  0  0  0  0  0  0  0  0
   22.4036  -10.7313  -17.0163 C   0  0  0  0  0  0  0  0  0  0  0  0
   22.5921  -11.2391  -15.9050 O   0  0  0  0  0  0  0  0  0  0  0  0
   23.0978   -9.5598  -17.3721 N   0  0  0  0  0  0  0  0  0  0  0  0
   23.9781   -8.7737  -16.5959 C   0  0  1  0  0  0  0  0  0  0  0  0
   25.4087   -8.6742  -17.0038 C   0  0  0  0  0  0  0  0  0  0  0  0
   26.1352   -9.9153  -17.2596 C   0  0  0  0  0  0  0  0  0  0  0  0
   25.8144  -11.2324  -17.2903 C   0  0  0  0  0  0  0  0  0  0  0  0
   26.8994  -11.9553  -17.5895 N   0  0  0  0  0  0  0  0  0  0  0  0
   27.9531  -11.1379  -17.7630 C   0  0  0  0  0  0  0  0  0  0  0  0
   29.2820  -11.3496  -18.0852 C   0  0  0  0  0  0  0  0  0  0  0  0
   30.1626  -10.3014  -18.2104 C   0  0  0  0  0  0  0  0  0  0  0  0
   29.7343   -9.0050  -18.0155 C   0  0  0  0  0  0  0  0  0  0  0  0
   28.4101   -8.8160  -17.6958 C   0  0  0  0  0  0  0  0  0  0  0  0
   27.5151   -9.8528  -17.5656 C   0  0  0  0  0  0  0  0  0  0  0  0
   23.5181   -7.4147  -16.2546 C   0  0  0  0  0  0  0  0  0  0  0  0
   23.0875   -6.6719  -17.1830 O   0  0  0  0  0  0  0  0  0  0  0  0
   23.5378   -6.9031  -14.9245 N   0  0  0  0  0  0  0  0  0  0  0  0
   23.0432   -5.5787  -14.6974 C   0  0  0  0  0  0  0  0  0  0  0  0
   21.6042   -5.5552  -14.3660 C   0  0  0  0  0  0  0  0  0  0  0  0
   21.0530   -4.7242  -13.4106 O   0  0  0  0  0  0  0  0  0  0  0  0
   20.8436   -6.3374  -14.9921 O   0  0  0  0  0  0  0  0  0  0  0  0
  1  2  1  0
  3  4  2  0
  3  2  1  0
  5  3  1  0
  6  5  1  0
  6 17  1  0
  6  7  1  6
  8  7  1  0
  9  8  2  0
 10 11  1  0
 10  9  1  0
 11 16  2  0
 12 11  1  0
 12 13  2  0
 13 14  1  0
 14 15  2  0
 16  8  1  0
 16 15  1  0
 17 19  1  0
 17 18  2  0
 19 20  1  0
 20 21  1  0
 21 23  2  0
 21 22  1  0
M  END
$$$$
