GWG.pdb
     RDKit          3D

 23 24  0  0  1  0  0  0  0  0999 V2000
   29.2306  -19.2134  -15.5638 N   0  0  0  0  0  0  0  0  0  0  0  0
   28.4504  -18.9512  -14.3919 C   0  0  0  0  0  0  0  0  0  0  0  0
   27.5171  -20.0983  -14.0896 C   0  0  0  0  0  0  0  0  0  0  0  0
   27.4264  -21.0146  -14.9144 O   0  0  0  0  0  0  0  0  0  0  0  0
   26.7569  -20.1503  -12.9063 N   0  0  0  0  0  0  0  0  0  0  0  0
   25.8175  -21.1203  -12.4910 C   0  0  1  0  0  0  0  0  0  0  0  0
   26.0235  -21.8144  -11.1877 C   0  0  0  0  0  0  0  0  0  0  0  0
   26.1345  -20.9931   -9.9850 C   0  0  0  0  0  0  0  0  0  0  0  0
   25.3177  -20.1374   -9.3221 C   0  0  0  0  0  0  0  0  0  0  0  0
   25.9482  -19.6522   -8.2467 N   0  0  0  0  0  0  0  0  0  0  0  0
   27.1859  -20.1734   -8.1751 C   0  0  0  0  0  0  0  0  0  0  0  0
   28.2338  -20.0243   -7.2840 C   0  0  0  0  0  0  0  0  0  0  0  0
   29.4169  -20.7041   -7.4521 C   0  0  0  0  0  0  0  0  0  0  0  0
   29.5839  -21.5567   -8.5232 C   0  0  0  0  0  0  0  0  0  0  0  0
   28.5307  -21.6907   -9.3973 C   0  0  0  0  0  0  0  0  0  0  0  0
   27.3402  -21.0180   -9.2453 C   0  0  0  0  0  0  0  0  0  0  0  0
   24.3963  -20.7342  -12.5689 C   0  0  0  0  0  0  0  0  0  0  0  0
   24.0246  -19.6769  -11.9833 O   0  0  0  0  0  0  0  0  0  0  0  0
   23.4245  -21.5010  -13.2754 N   0  0  0  0  0  0  0  0  0  0  0  0
   22.0960  -20.9791  -13.3873 C   0  0  0  0  0  0  0  0  0  0  0  0
   21.0910  -21.8252  -12.7127 C   0  0  0  0  0  0  0  0  0  0  0  0
   19.7443  -21.5227  -12.6653 O   0  0  0  0  0  0  0  0  0  0  0  0
   21.4897  -22.8785  -12.1522 O   0  0  0  0  0  0  0  0  0  0  0  0
  1  2  1  0
  3  4  2  0
  3  2  1  0
  5  3  1  0
  6  5  1  0
  6 17  1  0
  6  7  1  1
  8  7  1  0
  9  8  2  0
 10 11  1  0
 10  9  1  0
 11 16  2  0
 12 11  1  0
 12 13  2  0
 13 14  1  0
 14 15  2  0
 16  8  1  0
 16 15  1  0
 17 19  1  0
 17 18  2  0
 19 20  1  0
 20 21  1  0
 21 23  2  0
 21 22  1  0
M  END
$$$$
