GWG.pdb
     RDKit          3D

 23 24  0  0  1  0  0  0  0  0999 V2000
   28.5129  -19.1101  -15.6949 N   0  0  0  0  0  0  0  0  0  0  0  0
   28.2191  -18.9277  -14.3052 C   0  0  0  0  0  0  0  0  0  0  0  0
   27.7690  -20.2201  -13.6683 C   0  0  0  0  0  0  0  0  0  0  0  0
   28.4211  -21.2453  -13.8960 O   0  0  0  0  0  0  0  0  0  0  0  0
   26.6394  -20.2863  -12.8314 N   0  0  0  0  0  0  0  0  0  0  0  0
   26.2227  -21.3302  -11.9756 C   0  0  1  0  0  0  0  0  0  0  0  0
   26.9879  -21.5858  -10.7218 C   0  0  0  0  0  0  0  0  0  0  0  0
   26.7585  -20.6957   -9.5866 C   0  0  0  0  0  0  0  0  0  0  0  0
   25.7273  -19.9278   -9.1555 C   0  0  0  0  0  0  0  0  0  0  0  0
   26.0701  -19.3051   -8.0224 N   0  0  0  0  0  0  0  0  0  0  0  0
   27.3256  -19.6460   -7.6815 C   0  0  0  0  0  0  0  0  0  0  0  0
   28.1526  -19.3076   -6.6251 C   0  0  0  0  0  0  0  0  0  0  0  0
   29.4216  -19.8253   -6.5170 C   0  0  0  0  0  0  0  0  0  0  0  0
   29.8999  -20.7011   -7.4690 C   0  0  0  0  0  0  0  0  0  0  0  0
   29.0625  -21.0243   -8.5109 C   0  0  0  0  0  0  0  0  0  0  0  0
   27.7903  -20.5155   -8.6357 C   0  0  0  0  0  0  0  0  0  0  0  0
   24.7881  -21.3684  -11.6360 C   0  0  0  0  0  0  0  0  0  0  0  0
   24.3624  -22.3187  -10.9186 O   0  0  0  0  0  0  0  0  0  0  0  0
   23.8617  -20.3810  -12.0811 N   0  0  0  0  0  0  0  0  0  0  0  0
   22.4795  -20.5441  -11.7452 C   0  0  0  0  0  0  0  0  0  0  0  0
   21.7162  -21.2508  -12.7935 C   0  0  0  0  0  0  0  0  0  0  0  0
   22.2923  -21.7887  -13.9276 O   0  0  0  0  0  0  0  0  0  0  0  0
   20.4731  -21.3662  -12.6392 O   0  0  0  0  0  0  0  0  0  0  0  0
  1  2  1  0
  3  4  2  0
  3  2  1  0
  5  3  1  0
  6  5  1  0
  6 17  1  0
  6  7  1  1
  8  7  1  0
  9  8  2  0
 10 11  1  0
 10  9  1  0
 11 16  2  0
 12 11  1  0
 12 13  2  0
 13 14  1  0
 14 15  2  0
 16  8  1  0
 16 15  1  0
 17 19  1  0
 17 18  2  0
 19 20  1  0
 20 21  1  0
 21 23  2  0
 21 22  1  0
M  END
$$$$
