GWG.pdb
     RDKit          3D

 23 24  0  0  1  0  0  0  0  0999 V2000
   29.0439  -18.4693  -15.6198 N   0  0  0  0  0  0  0  0  0  0  0  0
   28.1947  -18.4010  -14.4688 C   0  0  0  0  0  0  0  0  0  0  0  0
   27.5261  -19.7282  -14.2042 C   0  0  0  0  0  0  0  0  0  0  0  0
   27.6588  -20.6295  -15.0398 O   0  0  0  0  0  0  0  0  0  0  0  0
   26.7650  -19.9625  -13.0438 N   0  0  0  0  0  0  0  0  0  0  0  0
   26.0713  -21.1291  -12.6521 C   0  0  1  0  0  0  0  0  0  0  0  0
   26.4564  -21.8066  -11.3810 C   0  0  0  0  0  0  0  0  0  0  0  0
   26.3214  -21.0540  -10.1364 C   0  0  0  0  0  0  0  0  0  0  0  0
   25.3084  -20.4158   -9.4997 C   0  0  0  0  0  0  0  0  0  0  0  0
   25.7566  -19.8834   -8.3574 N   0  0  0  0  0  0  0  0  0  0  0  0
   27.0656  -20.1569   -8.2143 C   0  0  0  0  0  0  0  0  0  0  0  0
   28.0010  -19.8611   -7.2387 C   0  0  0  0  0  0  0  0  0  0  0  0
   29.3041  -20.2859   -7.3460 C   0  0  0  0  0  0  0  0  0  0  0  0
   29.7085  -21.0229   -8.4393 C   0  0  0  0  0  0  0  0  0  0  0  0
   28.7636  -21.3060   -9.3978 C   0  0  0  0  0  0  0  0  0  0  0  0
   27.4558  -20.8886   -9.3074 C   0  0  0  0  0  0  0  0  0  0  0  0
   24.5986  -21.0623  -12.6912 C   0  0  0  0  0  0  0  0  0  0  0  0
   24.0345  -19.9771  -12.3698 O   0  0  0  0  0  0  0  0  0  0  0  0
   23.7844  -22.1672  -13.0755 N   0  0  0  0  0  0  0  0  0  0  0  0
   22.4086  -21.9227  -13.3874 C   0  0  0  0  0  0  0  0  0  0  0  0
   21.5198  -22.0886  -12.2197 C   0  0  0  0  0  0  0  0  0  0  0  0
   20.2138  -22.5288  -12.3090 O   0  0  0  0  0  0  0  0  0  0  0  0
   21.9836  -21.8122  -11.0835 O   0  0  0  0  0  0  0  0  0  0  0  0
  1  2  1  0
  3  4  2  0
  3  2  1  0
  5  3  1  0
  6  5  1  0
  6 17  1  0
  6  7  1  1
  8  7  1  0
  9  8  2  0
 10 11  1  0
 10  9  1  0
 11 16  2  0
 12 11  1  0
 12 13  2  0
 13 14  1  0
 14 15  2  0
 16  8  1  0
 16 15  1  0
 17 19  1  0
 17 18  2  0
 19 20  1  0
 20 21  1  0
 21 23  2  0
 21 22  1  0
M  END
$$$$
