GWG.pdb
     RDKit          3D

 23 24  0  0  1  0  0  0  0  0999 V2000
   25.9341  -23.9581  -16.0935 N   0  0  0  0  0  0  0  0  0  0  0  0
   24.9565  -23.0435  -16.6021 C   0  0  0  0  0  0  0  0  0  0  0  0
   24.1644  -22.4129  -15.4826 C   0  0  0  0  0  0  0  0  0  0  0  0
   24.5706  -22.5546  -14.3237 O   0  0  0  0  0  0  0  0  0  0  0  0
   22.9893  -21.6763  -15.7223 N   0  0  0  0  0  0  0  0  0  0  0  0
   22.2017  -20.9327  -14.8155 C   0  0  1  0  0  0  0  0  0  0  0  0
   22.3005  -19.4451  -14.8236 C   0  0  0  0  0  0  0  0  0  0  0  0
   23.6207  -18.8460  -14.6459 C   0  0  0  0  0  0  0  0  0  0  0  0
   24.7834  -19.2287  -14.0624 C   0  0  0  0  0  0  0  0  0  0  0  0
   25.6986  -18.2632  -14.2020 N   0  0  0  0  0  0  0  0  0  0  0  0
   25.1654  -17.2293  -14.8767 C   0  0  0  0  0  0  0  0  0  0  0  0
   25.6590  -16.0058  -15.2935 C   0  0  0  0  0  0  0  0  0  0  0  0
   24.8750  -15.1203  -15.9944 C   0  0  0  0  0  0  0  0  0  0  0  0
   23.5678  -15.4375  -16.2990 C   0  0  0  0  0  0  0  0  0  0  0  0
   23.0965  -16.6582  -15.8756 C   0  0  0  0  0  0  0  0  0  0  0  0
   23.8661  -17.5562  -15.1727 C   0  0  0  0  0  0  0  0  0  0  0  0
   20.7706  -21.2824  -14.7482 C   0  0  0  0  0  0  0  0  0  0  0  0
   20.1238  -21.3908  -15.8293 O   0  0  0  0  0  0  0  0  0  0  0  0
   20.0858  -21.5035  -13.5179 N   0  0  0  0  0  0  0  0  0  0  0  0
   18.7043  -21.8767  -13.5655 C   0  0  0  0  0  0  0  0  0  0  0  0
   18.1390  -22.1467  -12.2282 C   0  0  0  0  0  0  0  0  0  0  0  0
   16.8114  -22.4568  -12.0075 O   0  0  0  0  0  0  0  0  0  0  0  0
   18.9144  -22.0897  -11.2393 O   0  0  0  0  0  0  0  0  0  0  0  0
  1  2  1  0
  3  4  2  0
  3  2  1  0
  5  3  1  0
  6  5  1  0
  6 17  1  0
  6  7  1  6
  8  7  1  0
  9  8  2  0
 10 11  1  0
 10  9  1  0
 11 16  2  0
 12 11  1  0
 12 13  2  0
 13 14  1  0
 14 15  2  0
 16  8  1  0
 16 15  1  0
 17 19  1  0
 17 18  2  0
 19 20  1  0
 20 21  1  0
 21 23  2  0
 21 22  1  0
M  END
$$$$
