DCQ.pdb
     RDKit          3D

 24 23  0  0  1  0  0  0  0  0999 V2000
   17.6740  -14.4549  -15.5859 N   0  0  0  0  0  0  0  0  0  0  0  0
   16.8943  -13.2427  -15.5590 C   0  0  1  0  0  0  0  0  0  0  0  0
   15.7845  -13.2980  -14.5478 C   0  0  0  0  0  0  0  0  0  0  0  0
   14.8722  -14.4002  -14.9048 C   0  0  0  0  0  0  0  0  0  0  0  0
   14.5053  -14.5385  -16.0906 O   0  0  0  0  0  0  0  0  0  0  0  0
   17.7401  -12.0357  -15.4068 C   0  0  0  0  0  0  0  0  0  0  0  0
   18.6694  -12.0472  -14.5516 O   0  0  0  0  0  0  0  0  0  0  0  0
   14.4193  -15.2782  -13.9526 O   0  0  0  0  0  0  0  0  0  0  0  0
   17.5636  -10.8562  -16.1747 N   0  0  0  0  0  0  0  0  0  0  0  0
   18.4405   -9.7492  -15.9915 C   0  0  1  0  0  0  0  0  0  0  0  0
   19.6279   -9.9088  -16.9430 C   0  0  0  0  0  0  0  0  0  0  0  0
   19.1106  -10.5899  -18.5219 S   0  0  0  0  0  0  0  0  0  0  0  0
   17.7948   -8.4316  -16.1691 C   0  0  0  0  0  0  0  0  0  0  0  0
   16.7886   -8.4035  -16.9446 O   0  0  0  0  0  0  0  0  0  0  0  0
   13.7395   -6.0504  -13.4710 N   0  0  0  0  0  0  0  0  0  0  0  0
   14.1080   -4.8779  -14.2004 C   0  0  0  0  0  0  0  0  0  0  0  0
   13.3194   -3.8827  -14.1644 O   0  0  0  0  0  0  0  0  0  0  0  0
   15.3602   -4.7771  -14.9797 C   0  0  0  0  0  0  0  0  0  0  0  0
   16.1774   -6.0152  -15.0695 C   0  0  0  0  0  0  0  0  0  0  0  0
   17.4544   -5.9798  -15.8220 C   0  0  2  0  0  0  0  0  0  0  0  0
   18.2006   -7.2446  -15.5614 N   0  0  0  0  0  0  0  0  0  0  0  0
   18.3255   -4.8680  -15.4890 C   0  0  0  0  0  0  0  0  0  0  0  0
   17.9997   -3.5835  -15.9240 O   0  0  0  0  0  0  0  0  0  0  0  0
   19.3963   -4.9565  -14.8145 O   0  0  0  0  0  0  0  0  0  0  0  0
  2  1  1  1
  2  3  1  0
  3  4  1  0
  4  8  1  0
  4  5  2  0
  6  2  1  0
  6  9  1  0
  7  6  2  0
 10  9  1  0
 10 11  1  6
 10 13  1  0
 12 11  1  0
 13 21  1  0
 14 13  2  0
 16 17  2  0
 16 15  1  0
 18 16  1  0
 19 18  1  0
 20 19  1  1
 21 20  1  0
 22 23  1  0
 22 20  1  0
 24 22  2  0
M  END
$$$$
