DCQ.pdb
     RDKit          3D

 24 23  0  0  1  0  0  0  0  0999 V2000
   18.7758  -14.4292  -16.7894 N   0  0  0  0  0  0  0  0  0  0  0  0
   18.3298  -13.0586  -16.8135 C   0  0  1  0  0  0  0  0  0  0  0  0
   16.8882  -12.9184  -16.4141 C   0  0  0  0  0  0  0  0  0  0  0  0
   16.0405  -13.2432  -17.5762 C   0  0  0  0  0  0  0  0  0  0  0  0
   16.4180  -12.9257  -18.7237 O   0  0  0  0  0  0  0  0  0  0  0  0
   19.2222  -12.1653  -16.0381 C   0  0  0  0  0  0  0  0  0  0  0  0
   19.3308  -12.3446  -14.7927 O   0  0  0  0  0  0  0  0  0  0  0  0
   14.8411  -13.8900  -17.4163 O   0  0  0  0  0  0  0  0  0  0  0  0
   19.9689  -11.1095  -16.6211 N   0  0  0  0  0  0  0  0  0  0  0  0
   20.7587  -10.2570  -15.7982 C   0  0  1  0  0  0  0  0  0  0  0  0
   22.2231  -10.6813  -15.9253 C   0  0  0  0  0  0  0  0  0  0  0  0
   23.2940   -9.6306  -14.9386 S   0  0  0  0  0  0  0  0  0  0  0  0
   20.5988   -8.8172  -16.0915 C   0  0  0  0  0  0  0  0  0  0  0  0
   20.8827   -8.4542  -17.2756 O   0  0  0  0  0  0  0  0  0  0  0  0
   16.0853   -5.0785  -14.2550 N   0  0  0  0  0  0  0  0  0  0  0  0
   16.1984   -5.9730  -15.3639 C   0  0  0  0  0  0  0  0  0  0  0  0
   15.1265   -6.3903  -15.9032 O   0  0  0  0  0  0  0  0  0  0  0  0
   17.4991   -6.4199  -15.9060 C   0  0  0  0  0  0  0  0  0  0  0  0
   18.7087   -5.9234  -15.1996 C   0  0  0  0  0  0  0  0  0  0  0  0
   20.0399   -6.4283  -15.6133 C   0  0  2  0  0  0  0  0  0  0  0  0
   20.1687   -7.8508  -15.1838 N   0  0  0  0  0  0  0  0  0  0  0  0
   21.1655   -5.6914  -15.0695 C   0  0  0  0  0  0  0  0  0  0  0  0
   21.5412   -4.4803  -15.6503 O   0  0  0  0  0  0  0  0  0  0  0  0
   21.8673   -6.0580  -14.0783 O   0  0  0  0  0  0  0  0  0  0  0  0
  2  1  1  1
  2  3  1  0
  3  4  1  0
  4  8  1  0
  4  5  2  0
  6  2  1  0
  6  9  1  0
  7  6  2  0
 10  9  1  0
 10 11  1  6
 10 13  1  0
 12 11  1  0
 13 21  1  0
 14 13  2  0
 16 17  2  0
 16 15  1  0
 18 16  1  0
 19 18  1  0
 20 19  1  1
 21 20  1  0
 22 23  1  0
 22 20  1  0
 24 22  2  0
M  END
$$$$
