DCQ.pdb
     RDKit          3D

 24 23  0  0  1  0  0  0  0  0999 V2000
   15.7532  -11.4922  -11.3835 N   0  0  0  0  0  0  0  0  0  0  0  0
   15.3370  -10.5178  -12.3610 C   0  0  1  0  0  0  0  0  0  0  0  0
   13.8845  -10.6523  -12.7209 C   0  0  0  0  0  0  0  0  0  0  0  0
   13.5996  -12.0674  -13.0218 C   0  0  0  0  0  0  0  0  0  0  0  0
   12.5032  -12.5617  -12.6848 O   0  0  0  0  0  0  0  0  0  0  0  0
   15.6969   -9.1366  -11.9636 C   0  0  0  0  0  0  0  0  0  0  0  0
   15.4887   -8.1945  -12.7785 O   0  0  0  0  0  0  0  0  0  0  0  0
   14.5220  -12.8514  -13.6676 O   0  0  0  0  0  0  0  0  0  0  0  0
   16.2679   -8.8090  -10.7071 N   0  0  0  0  0  0  0  0  0  0  0  0
   16.6045   -7.4579  -10.4083 C   0  0  1  0  0  0  0  0  0  0  0  0
   16.4507   -7.2419   -8.9015 C   0  0  0  0  0  0  0  0  0  0  0  0
   17.1575   -5.6715   -8.3929 S   0  0  0  0  0  0  0  0  0  0  0  0
   17.9517   -7.0562  -10.8646 C   0  0  0  0  0  0  0  0  0  0  0  0
   18.9070   -7.8221  -10.5253 O   0  0  0  0  0  0  0  0  0  0  0  0
   20.7645   -9.3413  -14.4136 N   0  0  0  0  0  0  0  0  0  0  0  0
   21.6193   -8.1960  -14.3998 C   0  0  0  0  0  0  0  0  0  0  0  0
   22.7427   -8.2852  -14.9863 O   0  0  0  0  0  0  0  0  0  0  0  0
   21.2480   -6.9243  -13.7438 C   0  0  0  0  0  0  0  0  0  0  0  0
   19.9863   -6.9364  -12.9583 C   0  0  0  0  0  0  0  0  0  0  0  0
   19.6135   -5.7309  -12.1799 C   0  0  2  0  0  0  0  0  0  0  0  0
   18.2434   -5.9236  -11.6230 N   0  0  0  0  0  0  0  0  0  0  0  0
   19.6205   -4.4926  -12.9364 C   0  0  0  0  0  0  0  0  0  0  0  0
   20.8256   -3.8246  -13.1530 O   0  0  0  0  0  0  0  0  0  0  0  0
   18.5958   -3.9384  -13.4385 O   0  0  0  0  0  0  0  0  0  0  0  0
  2  1  1  1
  2  3  1  0
  3  4  1  0
  4  8  1  0
  4  5  2  0
  6  2  1  0
  6  9  1  0
  7  6  2  0
 10  9  1  0
 10 11  1  1
 10 13  1  0
 12 11  1  0
 13 21  1  0
 14 13  2  0
 16 17  2  0
 16 15  1  0
 18 16  1  0
 19 18  1  0
 20 19  1  6
 21 20  1  0
 22 23  1  0
 22 20  1  0
 24 22  2  0
M  END
$$$$
