DCQ.pdb
     RDKit          3D

 24 23  0  0  1  0  0  0  0  0999 V2000
   18.7015  -19.0110  -12.2830 N   0  0  0  0  0  0  0  0  0  0  0  0
   19.4769  -20.0880  -12.8461 C   0  0  1  0  0  0  0  0  0  0  0  0
   19.0723  -20.4079  -14.2572 C   0  0  0  0  0  0  0  0  0  0  0  0
   18.0311  -21.4517  -14.2269 C   0  0  0  0  0  0  0  0  0  0  0  0
   18.1628  -22.4332  -13.4658 O   0  0  0  0  0  0  0  0  0  0  0  0
   20.9346  -19.8582  -12.7127 C   0  0  0  0  0  0  0  0  0  0  0  0
   21.4166  -18.7596  -13.1072 O   0  0  0  0  0  0  0  0  0  0  0  0
   16.9175  -21.3614  -15.0234 O   0  0  0  0  0  0  0  0  0  0  0  0
   21.8284  -20.8119  -12.1615 N   0  0  0  0  0  0  0  0  0  0  0  0
   23.2259  -20.5404  -12.1254 C   0  0  1  0  0  0  0  0  0  0  0  0
   23.8267  -21.2522  -10.9117 C   0  0  0  0  0  0  0  0  0  0  0  0
   25.6038  -21.0091  -10.8274 S   0  0  0  0  0  0  0  0  0  0  0  0
   23.9448  -20.9090  -13.3631 C   0  0  0  0  0  0  0  0  0  0  0  0
   23.7002  -22.0665  -13.8266 O   0  0  0  0  0  0  0  0  0  0  0  0
   29.2524  -20.4551  -15.5401 N   0  0  0  0  0  0  0  0  0  0  0  0
   28.6230  -20.3422  -16.8183 C   0  0  0  0  0  0  0  0  0  0  0  0
   29.2805  -20.7135  -17.8398 O   0  0  0  0  0  0  0  0  0  0  0  0
   27.2500  -19.8235  -16.9946 C   0  0  0  0  0  0  0  0  0  0  0  0
   26.4813  -19.5677  -15.7485 C   0  0  0  0  0  0  0  0  0  0  0  0
   25.5920  -20.6309  -15.2223 C   0  0  2  0  0  0  0  0  0  0  0  0
   24.8510  -20.0972  -14.0431 N   0  0  0  0  0  0  0  0  0  0  0  0
   26.2727  -21.8453  -14.8128 C   0  0  0  0  0  0  0  0  0  0  0  0
   26.4249  -22.8904  -15.7238 O   0  0  0  0  0  0  0  0  0  0  0  0
   26.7611  -22.0550  -13.6609 O   0  0  0  0  0  0  0  0  0  0  0  0
  2  1  1  6
  2  3  1  0
  3  4  1  0
  4  8  1  0
  4  5  2  0
  6  2  1  0
  6  9  1  0
  7  6  2  0
 10  9  1  0
 10 11  1  1
 10 13  1  0
 12 11  1  0
 13 21  1  0
 14 13  2  0
 16 17  2  0
 16 15  1  0
 18 16  1  0
 19 18  1  0
 20 19  1  1
 21 20  1  0
 22 23  1  0
 22 20  1  0
 24 22  2  0
M  END
$$$$
