DCQ.pdb
     RDKit          3D

 24 23  0  0  1  0  0  0  0  0999 V2000
   14.1291  -13.1303  -10.8469 N   0  0  0  0  0  0  0  0  0  0  0  0
   13.9351  -11.8520  -11.4845 C   0  0  1  0  0  0  0  0  0  0  0  0
   12.5415  -11.3235  -11.2952 C   0  0  0  0  0  0  0  0  0  0  0  0
   11.5861  -12.2892  -11.8687 C   0  0  0  0  0  0  0  0  0  0  0  0
   11.6108  -12.5286  -13.0943 O   0  0  0  0  0  0  0  0  0  0  0  0
   14.9723  -10.8683  -11.0946 C   0  0  0  0  0  0  0  0  0  0  0  0
   15.1588  -10.6338   -9.8677 O   0  0  0  0  0  0  0  0  0  0  0  0
   10.6685  -12.9305  -11.0753 O   0  0  0  0  0  0  0  0  0  0  0  0
   15.7757  -10.1679  -12.0306 N   0  0  0  0  0  0  0  0  0  0  0  0
   16.7404   -9.2243  -11.5757 C   0  0  1  0  0  0  0  0  0  0  0  0
   17.9395   -9.2609  -12.5252 C   0  0  0  0  0  0  0  0  0  0  0  0
   19.2003   -8.0828  -12.0284 S   0  0  0  0  0  0  0  0  0  0  0  0
   16.2196   -7.8482  -11.4356 C   0  0  0  0  0  0  0  0  0  0  0  0
   15.5258   -7.4127  -12.4069 O   0  0  0  0  0  0  0  0  0  0  0  0
   14.3168   -4.8729   -6.2529 N   0  0  0  0  0  0  0  0  0  0  0  0
   14.1618   -3.8902   -7.2790 C   0  0  0  0  0  0  0  0  0  0  0  0
   13.6292   -2.7806   -6.9644 O   0  0  0  0  0  0  0  0  0  0  0  0
   14.5992   -4.1096   -8.6740 C   0  0  0  0  0  0  0  0  0  0  0  0
   15.2716   -5.4052   -8.9537 C   0  0  0  0  0  0  0  0  0  0  0  0
   15.8170   -5.6531  -10.3099 C   0  0  2  0  0  0  0  0  0  0  0  0
   16.4297   -7.0126  -10.3399 N   0  0  0  0  0  0  0  0  0  0  0  0
   16.8199   -4.6990  -10.7456 C   0  0  0  0  0  0  0  0  0  0  0  0
   16.4203   -3.4611  -11.2488 O   0  0  0  0  0  0  0  0  0  0  0  0
   18.0734   -4.8912  -10.7113 O   0  0  0  0  0  0  0  0  0  0  0  0
  2  1  1  1
  2  3  1  0
  3  4  1  0
  4  8  1  0
  4  5  2  0
  6  2  1  0
  6  9  1  0
  7  6  2  0
 10  9  1  0
 10 11  1  6
 10 13  1  0
 12 11  1  0
 13 21  1  0
 14 13  2  0
 16 17  2  0
 16 15  1  0
 18 16  1  0
 19 18  1  0
 20 19  1  1
 21 20  1  0
 22 23  1  0
 22 20  1  0
 24 22  2  0
M  END
$$$$
