DCQ.pdb
     RDKit          3D

 24 23  0  0  1  0  0  0  0  0999 V2000
   25.8193  -12.3019  -18.0182 N   0  0  0  0  0  0  0  0  0  0  0  0
   24.4453  -12.7229  -17.9045 C   0  0  1  0  0  0  0  0  0  0  0  0
   23.6520  -12.4294  -19.1463 C   0  0  0  0  0  0  0  0  0  0  0  0
   23.6630  -10.9740  -19.3831 C   0  0  0  0  0  0  0  0  0  0  0  0
   23.3191  -10.1969  -18.4678 O   0  0  0  0  0  0  0  0  0  0  0  0
   24.3260  -14.1364  -17.4765 C   0  0  0  0  0  0  0  0  0  0  0  0
   23.7468  -14.9576  -18.2415 O   0  0  0  0  0  0  0  0  0  0  0  0
   24.0458  -10.4590  -20.5958 O   0  0  0  0  0  0  0  0  0  0  0  0
   24.8305  -14.6245  -16.2438 N   0  0  0  0  0  0  0  0  0  0  0  0
   24.7657  -16.0161  -15.9489 C   0  0  1  0  0  0  0  0  0  0  0  0
   25.7756  -16.3245  -14.8418 C   0  0  0  0  0  0  0  0  0  0  0  0
   27.4621  -16.1108  -15.4203 S   0  0  0  0  0  0  0  0  0  0  0  0
   23.4161  -16.4930  -15.5804 C   0  0  0  0  0  0  0  0  0  0  0  0
   22.7607  -15.7514  -14.7835 O   0  0  0  0  0  0  0  0  0  0  0  0
   18.7813  -18.0022  -19.0789 N   0  0  0  0  0  0  0  0  0  0  0  0
   18.2824  -18.3873  -17.7962 C   0  0  0  0  0  0  0  0  0  0  0  0
   17.0695  -18.7565  -17.7161 O   0  0  0  0  0  0  0  0  0  0  0  0
   19.1155  -18.3800  -16.5750 C   0  0  0  0  0  0  0  0  0  0  0  0
   20.5378  -17.9880  -16.7545 C   0  0  0  0  0  0  0  0  0  0  0  0
   21.4485  -18.0345  -15.5855 C   0  0  2  0  0  0  0  0  0  0  0  0
   22.8238  -17.6706  -16.0335 N   0  0  0  0  0  0  0  0  0  0  0  0
   21.5191  -19.3225  -14.9207 C   0  0  0  0  0  0  0  0  0  0  0  0
   22.5626  -20.1973  -15.2225 O   0  0  0  0  0  0  0  0  0  0  0  0
   20.6901  -19.7448  -14.0582 O   0  0  0  0  0  0  0  0  0  0  0  0
  2  1  1  6
  2  3  1  0
  3  4  1  0
  4  8  1  0
  4  5  2  0
  6  2  1  0
  6  9  1  0
  7  6  2  0
 10  9  1  0
 10 11  1  1
 10 13  1  0
 12 11  1  0
 13 21  1  0
 14 13  2  0
 16 17  2  0
 16 15  1  0
 18 16  1  0
 19 18  1  0
 20 19  1  6
 21 20  1  0
 22 23  1  0
 22 20  1  0
 24 22  2  0
M  END
$$$$
