DCQ.pdb
     RDKit          3D

 24 23  0  0  1  0  0  0  0  0999 V2000
   13.1998  -10.9481  -11.1851 N   0  0  0  0  0  0  0  0  0  0  0  0
   14.5410  -10.6324  -10.7612 C   0  0  1  0  0  0  0  0  0  0  0  0
   15.5827  -11.2470  -11.6523 C   0  0  0  0  0  0  0  0  0  0  0  0
   15.4200  -12.7124  -11.6313 C   0  0  0  0  0  0  0  0  0  0  0  0
   15.5122  -13.3592  -12.6958 O   0  0  0  0  0  0  0  0  0  0  0  0
   14.7417   -9.1761  -10.5753 C   0  0  0  0  0  0  0  0  0  0  0  0
   14.4309   -8.3935  -11.5165 O   0  0  0  0  0  0  0  0  0  0  0  0
   15.1683  -13.3780  -10.4582 O   0  0  0  0  0  0  0  0  0  0  0  0
   15.2684   -8.6055   -9.3883 N   0  0  0  0  0  0  0  0  0  0  0  0
   15.4526   -7.1964   -9.2965 C   0  0  1  0  0  0  0  0  0  0  0  0
   15.2452   -6.7743   -7.8406 C   0  0  0  0  0  0  0  0  0  0  0  0
   15.6141   -5.0323   -7.6083 S   0  0  0  0  0  0  0  0  0  0  0  0
   16.7585   -6.7239   -9.8023 C   0  0  0  0  0  0  0  0  0  0  0  0
   17.7859   -7.2560   -9.2770 O   0  0  0  0  0  0  0  0  0  0  0  0
   20.1075   -9.0186  -13.0634 N   0  0  0  0  0  0  0  0  0  0  0  0
   20.7511   -7.7488  -13.1901 C   0  0  0  0  0  0  0  0  0  0  0  0
   21.8775   -7.7086  -13.7760 O   0  0  0  0  0  0  0  0  0  0  0  0
   20.1599   -6.4941  -12.6785 C   0  0  0  0  0  0  0  0  0  0  0  0
   18.9131   -6.6344  -11.8819 C   0  0  0  0  0  0  0  0  0  0  0  0
   18.3149   -5.4260  -11.2654 C   0  0  2  0  0  0  0  0  0  0  0  0
   16.9405   -5.7589  -10.7915 N   0  0  0  0  0  0  0  0  0  0  0  0
   18.2198   -4.2774  -12.1473 C   0  0  0  0  0  0  0  0  0  0  0  0
   16.9815   -3.9181  -12.6791 O   0  0  0  0  0  0  0  0  0  0  0  0
   19.1929   -3.5410  -12.4938 O   0  0  0  0  0  0  0  0  0  0  0  0
  2  1  1  6
  2  3  1  0
  3  4  1  0
  4  8  1  0
  4  5  2  0
  6  2  1  0
  6  9  1  0
  7  6  2  0
 10  9  1  0
 10 11  1  1
 10 13  1  0
 12 11  1  0
 13 21  1  0
 14 13  2  0
 16 17  2  0
 16 15  1  0
 18 16  1  0
 19 18  1  0
 20 19  1  6
 21 20  1  0
 22 23  1  0
 22 20  1  0
 24 22  2  0
M  END
$$$$
