DCQ.pdb
     RDKit          3D

 24 23  0  0  1  0  0  0  0  0999 V2000
   23.1758  -14.7153  -18.1019 N   0  0  0  0  0  0  0  0  0  0  0  0
   22.9984  -13.4081  -18.6831 C   0  0  1  0  0  0  0  0  0  0  0  0
   21.6419  -13.2378  -19.3063 C   0  0  0  0  0  0  0  0  0  0  0  0
   21.4940  -14.2204  -20.3958 C   0  0  0  0  0  0  0  0  0  0  0  0
   22.3005  -14.2111  -21.3494 O   0  0  0  0  0  0  0  0  0  0  0  0
   23.3243  -12.3220  -17.7293 C   0  0  0  0  0  0  0  0  0  0  0  0
   22.6608  -12.2322  -16.6586 O   0  0  0  0  0  0  0  0  0  0  0  0
   20.4819  -15.1468  -20.3784 O   0  0  0  0  0  0  0  0  0  0  0  0
   24.3497  -11.3676  -17.9530 N   0  0  0  0  0  0  0  0  0  0  0  0
   24.6252  -10.3747  -16.9701 C   0  0  1  0  0  0  0  0  0  0  0  0
   26.1265  -10.0804  -16.9859 C   0  0  0  0  0  0  0  0  0  0  0  0
   26.7291   -9.6787  -15.3428 S   0  0  0  0  0  0  0  0  0  0  0  0
   23.8417   -9.1319  -17.1312 C   0  0  0  0  0  0  0  0  0  0  0  0
   23.8040   -8.6443  -18.3040 O   0  0  0  0  0  0  0  0  0  0  0  0
   17.5385   -7.2277  -17.1917 N   0  0  0  0  0  0  0  0  0  0  0  0
   18.7720   -7.1584  -17.9103 C   0  0  0  0  0  0  0  0  0  0  0  0
   18.7764   -7.5382  -19.1225 O   0  0  0  0  0  0  0  0  0  0  0  0
   20.0263   -6.6606  -17.3067 C   0  0  0  0  0  0  0  0  0  0  0  0
   21.0951   -7.6704  -17.0904 C   0  0  0  0  0  0  0  0  0  0  0  0
   22.3517   -7.2542  -16.4226 C   0  0  2  0  0  0  0  0  0  0  0  0
   23.1567   -8.4710  -16.1129 N   0  0  0  0  0  0  0  0  0  0  0  0
   22.1678   -6.5118  -15.1894 C   0  0  0  0  0  0  0  0  0  0  0  0
   22.6136   -7.0557  -13.9849 O   0  0  0  0  0  0  0  0  0  0  0  0
   21.6190   -5.3716  -15.0990 O   0  0  0  0  0  0  0  0  0  0  0  0
  2  1  1  1
  2  3  1  0
  3  4  1  0
  4  8  1  0
  4  5  2  0
  6  2  1  0
  6  9  1  0
  7  6  2  0
 10  9  1  0
 10 11  1  6
 10 13  1  0
 12 11  1  0
 13 21  1  0
 14 13  2  0
 16 17  2  0
 16 15  1  0
 18 16  1  0
 19 18  1  0
 20 19  1  1
 21 20  1  0
 22 23  1  0
 22 20  1  0
 24 22  2  0
M  END
$$$$
