DCQ.pdb
     RDKit          3D

 24 23  0  0  1  0  0  0  0  0999 V2000
   16.7316  -12.2827  -14.0266 N   0  0  0  0  0  0  0  0  0  0  0  0
   16.9947  -12.0961  -15.4316 C   0  0  1  0  0  0  0  0  0  0  0  0
   15.9285  -12.7023  -16.2993 C   0  0  0  0  0  0  0  0  0  0  0  0
   15.7500  -14.1145  -15.9143 C   0  0  0  0  0  0  0  0  0  0  0  0
   14.7867  -14.4397  -15.1888 O   0  0  0  0  0  0  0  0  0  0  0  0
   17.2610  -10.6779  -15.7682 C   0  0  0  0  0  0  0  0  0  0  0  0
   17.4997  -10.3716  -16.9699 O   0  0  0  0  0  0  0  0  0  0  0  0
   16.6274  -15.0790  -16.3414 O   0  0  0  0  0  0  0  0  0  0  0  0
   17.2631   -9.6342  -14.8075 N   0  0  0  0  0  0  0  0  0  0  0  0
   17.5658   -8.3008  -15.2054 C   0  0  1  0  0  0  0  0  0  0  0  0
   16.5357   -7.3613  -14.5752 C   0  0  0  0  0  0  0  0  0  0  0  0
   14.8878   -7.6785  -15.2142 S   0  0  0  0  0  0  0  0  0  0  0  0
   18.9418   -7.8710  -14.8790 C   0  0  0  0  0  0  0  0  0  0  0  0
   19.3814   -8.2246  -13.7405 O   0  0  0  0  0  0  0  0  0  0  0  0
   23.7991   -8.5721  -18.4370 N   0  0  0  0  0  0  0  0  0  0  0  0
   24.3662   -7.8893  -17.3169 C   0  0  0  0  0  0  0  0  0  0  0  0
   25.6309   -7.7822  -17.2635 O   0  0  0  0  0  0  0  0  0  0  0  0
   23.5472   -7.3031  -16.2347 C   0  0  0  0  0  0  0  0  0  0  0  0
   22.0752   -7.4568  -16.3706 C   0  0  0  0  0  0  0  0  0  0  0  0
   21.1938   -6.8828  -15.3256 C   0  0  2  0  0  0  0  0  0  0  0  0
   19.7731   -7.1228  -15.7108 N   0  0  0  0  0  0  0  0  0  0  0  0
   21.3639   -5.4592  -15.1015 C   0  0  0  0  0  0  0  0  0  0  0  0
   22.2750   -5.0169  -14.1426 O   0  0  0  0  0  0  0  0  0  0  0  0
   20.7387   -4.5437  -15.7182 O   0  0  0  0  0  0  0  0  0  0  0  0
  2  1  1  1
  2  3  1  0
  3  4  1  0
  4  8  1  0
  4  5  2  0
  6  2  1  0
  6  9  1  0
  7  6  2  0
 10  9  1  0
 10 11  1  1
 10 13  1  0
 12 11  1  0
 13 21  1  0
 14 13  2  0
 16 17  2  0
 16 15  1  0
 18 16  1  0
 19 18  1  0
 20 19  1  6
 21 20  1  0
 22 23  1  0
 22 20  1  0
 24 22  2  0
M  END
$$$$
