QQK.pdb
     RDKit          3D

 28 27  0  0  1  0  0  0  0  0999 V2000
   13.6316  -17.0916   21.0942 N   0  0  0  0  0  0  0  0  0  0  0  0
   13.0830  -18.3976   21.3644 C   0  0  0  0  0  0  0  0  0  0  0  0
   13.9122  -19.3081   21.6440 O   0  0  0  0  0  0  0  0  0  0  0  0
   11.6255  -18.5721   21.2971 C   0  0  0  0  0  0  0  0  0  0  0  0
   10.8682  -17.3546   20.8999 C   0  0  0  0  0  0  0  0  0  0  0  0
    9.5921  -17.1563   21.6431 C   0  0  2  0  0  0  0  0  0  0  0  0
    8.5667  -16.6860   20.7412 N   0  0  0  0  0  0  0  0  0  0  0  0
    9.7691  -16.2388   22.8004 C   0  0  0  0  0  0  0  0  0  0  0  0
   10.9352  -16.0625   23.2251 O   0  0  0  0  0  0  0  0  0  0  0  0
    6.5570  -11.6745   27.6909 N   0  0  0  0  0  0  0  0  0  0  0  0
    6.7655  -12.1690   26.3796 C   0  0  0  0  0  0  0  0  0  0  0  0
    5.9981  -11.7581   25.4719 O   0  0  0  0  0  0  0  0  0  0  0  0
    7.8668  -13.1378   26.1390 C   0  0  0  0  0  0  0  0  0  0  0  0
    7.6408  -13.9269   24.8670 C   0  0  0  0  0  0  0  0  0  0  0  0
    8.8730  -14.7770   24.6571 C   0  0  2  0  0  0  0  0  0  0  0  0
    8.7164  -15.5593   23.4456 N   0  0  0  0  0  0  0  0  0  0  0  0
    9.0544  -15.7448   25.7984 C   0  0  0  0  0  0  0  0  0  0  0  0
    8.2825  -16.7229   25.9331 O   0  0  0  0  0  0  0  0  0  0  0  0
   10.0887  -15.5861   26.7464 N   0  0  0  0  0  0  0  0  0  0  0  0
   10.3155  -16.3687   27.9245 C   0  0  1  0  0  0  0  0  0  0  0  0
   11.5391  -17.1628   27.9455 C   0  0  0  0  0  0  0  0  0  0  0  0
   11.9247  -18.0688   29.0101 C   0  0  0  0  0  0  0  0  0  0  0  0
   13.2134  -18.7423   29.0935 C   0  0  0  0  0  0  0  0  0  0  0  0
   13.5504  -19.7204   30.1455 C   0  0  0  0  0  0  0  0  0  0  0  0
   14.8540  -20.2719   30.1974 N   0  0  0  0  0  0  0  0  0  0  0  0
   10.5149  -15.3684   29.1166 C   0  0  0  0  0  0  0  0  0  0  0  0
   10.4500  -15.7369   30.2762 O   0  0  0  0  0  0  0  0  0  0  0  0
   10.7679  -14.0477   28.7987 O   0  0  0  0  0  0  0  0  0  0  0  0
  2  1  1  0
  3  2  2  0
  4  2  1  0
  5  6  1  0
  5  4  1  0
  6  8  1  0
  6  7  1  6
  8  9  2  0
 11 10  1  0
 11 12  2  0
 13 11  1  0
 14 13  1  0
 15 14  1  1
 16 15  1  0
 16  8  1  0
 17 15  1  0
 17 18  2  0
 19 17  1  0
 20 19  1  0
 20 26  1  0
 20 21  1  6
 22 21  1  0
 23 22  1  0
 24 23  1  0
 25 24  1  0
 26 28  1  0
 27 26  2  0
M  END
$$$$
