QQK.pdb
     RDKit          3D

 28 27  0  0  1  0  0  0  0  0999 V2000
   12.6393  -17.7502   14.3380 N   0  0  0  0  0  0  0  0  0  0  0  0
   11.2422  -17.4469   14.1484 C   0  0  0  0  0  0  0  0  0  0  0  0
   10.9530  -16.7363   13.1454 O   0  0  0  0  0  0  0  0  0  0  0  0
   10.2732  -17.9771   15.1175 C   0  0  0  0  0  0  0  0  0  0  0  0
    9.8892  -17.0303   16.1989 C   0  0  0  0  0  0  0  0  0  0  0  0
    9.9108  -17.6202   17.5670 C   0  0  2  0  0  0  0  0  0  0  0  0
    8.7159  -18.4023   17.7833 N   0  0  0  0  0  0  0  0  0  0  0  0
   10.0800  -16.5749   18.6116 C   0  0  0  0  0  0  0  0  0  0  0  0
   11.2227  -16.0796   18.7538 O   0  0  0  0  0  0  0  0  0  0  0  0
    8.9078  -11.9826   19.9429 N   0  0  0  0  0  0  0  0  0  0  0  0
    8.0092  -12.6001   19.0381 C   0  0  0  0  0  0  0  0  0  0  0  0
    7.7437  -11.9897   17.9710 O   0  0  0  0  0  0  0  0  0  0  0  0
    7.4287  -13.9234   19.3861 C   0  0  0  0  0  0  0  0  0  0  0  0
    7.9173  -14.4036   20.7361 C   0  0  0  0  0  0  0  0  0  0  0  0
    9.2247  -15.1233   20.4953 C   0  0  2  0  0  0  0  0  0  0  0  0
    9.0445  -16.1088   19.4463 N   0  0  0  0  0  0  0  0  0  0  0  0
    9.6647  -15.8595   21.7349 C   0  0  0  0  0  0  0  0  0  0  0  0
    8.8656  -16.6017   22.3524 O   0  0  0  0  0  0  0  0  0  0  0  0
   10.9781  -15.7409   22.2394 N   0  0  0  0  0  0  0  0  0  0  0  0
   11.6530  -16.6407   23.1264 C   0  0  1  0  0  0  0  0  0  0  0  0
   12.2262  -17.8366   22.5185 C   0  0  0  0  0  0  0  0  0  0  0  0
   12.8711  -18.9122   23.2465 C   0  0  0  0  0  0  0  0  0  0  0  0
   13.3964  -20.1243   22.6329 C   0  0  0  0  0  0  0  0  0  0  0  0
   13.9404  -21.2554   23.4085 C   0  0  0  0  0  0  0  0  0  0  0  0
   14.5101  -22.3604   22.7298 N   0  0  0  0  0  0  0  0  0  0  0  0
   12.9079  -15.8858   23.6892 C   0  0  0  0  0  0  0  0  0  0  0  0
   13.5330  -15.0917   23.0085 O   0  0  0  0  0  0  0  0  0  0  0  0
   13.2781  -16.1578   24.9924 O   0  0  0  0  0  0  0  0  0  0  0  0
  2  1  1  0
  3  2  2  0
  4  2  1  0
  5  6  1  0
  5  4  1  0
  6  8  1  0
  6  7  1  1
  8  9  2  0
 11 10  1  0
 11 12  2  0
 13 11  1  0
 14 13  1  0
 15 14  1  1
 16 15  1  0
 16  8  1  0
 17 15  1  0
 17 18  2  0
 19 17  1  0
 20 19  1  0
 20 26  1  0
 20 21  1  6
 22 21  1  0
 23 22  1  0
 24 23  1  0
 25 24  1  0
 26 28  1  0
 27 26  2  0
M  END
$$$$
