QQK.pdb
     RDKit          3D

 28 27  0  0  1  0  0  0  0  0999 V2000
    4.0042  -21.1198   25.2410 N   0  0  0  0  0  0  0  0  0  0  0  0
    3.2082  -21.5150   24.1052 C   0  0  0  0  0  0  0  0  0  0  0  0
    2.3925  -22.4606   24.2930 O   0  0  0  0  0  0  0  0  0  0  0  0
    3.3992  -20.8021   22.8346 C   0  0  0  0  0  0  0  0  0  0  0  0
    4.4486  -19.7477   22.8615 C   0  0  0  0  0  0  0  0  0  0  0  0
    4.7212  -19.1197   21.5381 C   0  0  2  0  0  0  0  0  0  0  0  0
    4.8115  -20.1399   20.5197 N   0  0  0  0  0  0  0  0  0  0  0  0
    5.9422  -18.2711   21.5756 C   0  0  0  0  0  0  0  0  0  0  0  0
    7.0482  -18.8534   21.6694 O   0  0  0  0  0  0  0  0  0  0  0  0
    6.8680  -12.5060   19.1965 N   0  0  0  0  0  0  0  0  0  0  0  0
    8.1191  -12.8661   19.7556 C   0  0  0  0  0  0  0  0  0  0  0  0
    9.1224  -12.1806   19.4314 O   0  0  0  0  0  0  0  0  0  0  0  0
    8.1885  -14.0220   20.6875 C   0  0  0  0  0  0  0  0  0  0  0  0
    6.8815  -14.7852   20.7197 C   0  0  0  0  0  0  0  0  0  0  0  0
    7.1301  -16.0410   21.5238 C   0  0  2  0  0  0  0  0  0  0  0  0
    5.9351  -16.8631   21.5126 N   0  0  0  0  0  0  0  0  0  0  0  0
    7.4315  -15.7031   22.9615 C   0  0  0  0  0  0  0  0  0  0  0  0
    6.5268  -15.2835   23.7205 O   0  0  0  0  0  0  0  0  0  0  0  0
    8.7294  -15.8453   23.4990 N   0  0  0  0  0  0  0  0  0  0  0  0
    9.1405  -15.6117   24.8511 C   0  0  1  0  0  0  0  0  0  0  0  0
    8.7939  -16.6472   25.8186 C   0  0  0  0  0  0  0  0  0  0  0  0
    9.1537  -18.0472   25.7033 C   0  0  0  0  0  0  0  0  0  0  0  0
    8.7705  -19.0784   26.6579 C   0  0  0  0  0  0  0  0  0  0  0  0
    9.1546  -20.4961   26.5177 C   0  0  0  0  0  0  0  0  0  0  0  0
    8.7130  -21.4396   27.4774 N   0  0  0  0  0  0  0  0  0  0  0  0
   10.7093  -15.6139   24.8677 C   0  0  0  0  0  0  0  0  0  0  0  0
   11.3573  -15.9097   23.8791 O   0  0  0  0  0  0  0  0  0  0  0  0
   11.3300  -15.2659   26.0522 O   0  0  0  0  0  0  0  0  0  0  0  0
  2  1  1  0
  3  2  2  0
  4  2  1  0
  5  6  1  0
  5  4  1  0
  6  8  1  0
  6  7  1  6
  8  9  2  0
 11 10  1  0
 11 12  2  0
 13 11  1  0
 14 13  1  0
 15 14  1  6
 16 15  1  0
 16  8  1  0
 17 15  1  0
 17 18  2  0
 19 17  1  0
 20 19  1  0
 20 26  1  0
 20 21  1  1
 22 21  1  0
 23 22  1  0
 24 23  1  0
 25 24  1  0
 26 28  1  0
 27 26  2  0
M  END
$$$$
