QQK.pdb
     RDKit          3D

 28 27  0  0  1  0  0  0  0  0999 V2000
   11.0526  -18.8128   13.3148 N   0  0  0  0  0  0  0  0  0  0  0  0
   10.4670  -19.8286   12.4753 C   0  0  0  0  0  0  0  0  0  0  0  0
   10.4497  -19.5909   11.2352 O   0  0  0  0  0  0  0  0  0  0  0  0
    9.9428  -21.0453   13.1110 C   0  0  0  0  0  0  0  0  0  0  0  0
   10.1435  -21.1170   14.5835 C   0  0  0  0  0  0  0  0  0  0  0  0
    9.6916  -22.3946   15.2028 C   0  0  2  0  0  0  0  0  0  0  0  0
    8.2598  -22.5268   15.0664 N   0  0  0  0  0  0  0  0  0  0  0  0
   10.1201  -22.4964   16.6234 C   0  0  0  0  0  0  0  0  0  0  0  0
    9.7357  -21.5983   17.4088 O   0  0  0  0  0  0  0  0  0  0  0  0
   11.8799  -27.6707   19.5732 N   0  0  0  0  0  0  0  0  0  0  0  0
   10.5678  -27.1369   19.5434 C   0  0  0  0  0  0  0  0  0  0  0  0
    9.6162  -27.9109   19.8211 O   0  0  0  0  0  0  0  0  0  0  0  0
   10.3777  -25.7056   19.1902 C   0  0  0  0  0  0  0  0  0  0  0  0
   11.6965  -25.0362   18.8668 C   0  0  0  0  0  0  0  0  0  0  0  0
   11.3813  -23.6002   18.5150 C   0  0  2  0  0  0  0  0  0  0  0  0
   10.9253  -23.5315   17.1397 N   0  0  0  0  0  0  0  0  0  0  0  0
   12.6149  -22.7409   18.6246 C   0  0  0  0  0  0  0  0  0  0  0  0
   13.5063  -22.7910   17.7451 O   0  0  0  0  0  0  0  0  0  0  0  0
   12.8085  -21.8585   19.7097 N   0  0  0  0  0  0  0  0  0  0  0  0
   13.8947  -20.9452   19.9041 C   0  0  1  0  0  0  0  0  0  0  0  0
   13.6325  -19.5503   19.5672 C   0  0  0  0  0  0  0  0  0  0  0  0
   13.2429  -19.0704   18.2553 C   0  0  0  0  0  0  0  0  0  0  0  0
   12.1989  -18.0837   18.0147 C   0  0  0  0  0  0  0  0  0  0  0  0
   11.8586  -17.5744   16.6724 C   0  0  0  0  0  0  0  0  0  0  0  0
   10.7997  -16.6456   16.5234 N   0  0  0  0  0  0  0  0  0  0  0  0
   14.1903  -20.8944   21.4441 C   0  0  0  0  0  0  0  0  0  0  0  0
   14.7722  -19.9516   21.9512 O   0  0  0  0  0  0  0  0  0  0  0  0
   13.7632  -21.9652   22.2059 O   0  0  0  0  0  0  0  0  0  0  0  0
  2  1  1  0
  3  2  2  0
  4  2  1  0
  5  6  1  0
  5  4  1  0
  6  8  1  0
  6  7  1  1
  8  9  2  0
 11 10  1  0
 11 12  2  0
 13 11  1  0
 14 13  1  0
 15 14  1  6
 16 15  1  0
 16  8  1  0
 17 15  1  0
 17 18  2  0
 19 17  1  0
 20 19  1  0
 20 26  1  0
 20 21  1  1
 22 21  1  0
 23 22  1  0
 24 23  1  0
 25 24  1  0
 26 28  1  0
 27 26  2  0
M  END
$$$$
