QQK.pdb
     RDKit          3D

 28 27  0  0  1  0  0  0  0  0999 V2000
    8.6980  -11.5571   18.7297 N   0  0  0  0  0  0  0  0  0  0  0  0
    7.8736  -12.7359   18.6273 C   0  0  0  0  0  0  0  0  0  0  0  0
    6.6417  -12.5814   18.8584 O   0  0  0  0  0  0  0  0  0  0  0  0
    8.5138  -14.0086   18.2674 C   0  0  0  0  0  0  0  0  0  0  0  0
    8.6446  -14.9805   19.3863 C   0  0  0  0  0  0  0  0  0  0  0  0
    9.4053  -16.2144   19.0413 C   0  0  2  0  0  0  0  0  0  0  0  0
    8.6824  -16.9755   18.0491 N   0  0  0  0  0  0  0  0  0  0  0  0
    9.7039  -17.0295   20.2491 C   0  0  0  0  0  0  0  0  0  0  0  0
    8.8018  -17.7915   20.6696 O   0  0  0  0  0  0  0  0  0  0  0  0
   14.6409  -20.2065   22.4187 N   0  0  0  0  0  0  0  0  0  0  0  0
   13.9961  -19.9389   21.1858 C   0  0  0  0  0  0  0  0  0  0  0  0
   14.5966  -20.2651   20.1300 O   0  0  0  0  0  0  0  0  0  0  0  0
   12.6572  -19.2934   21.1957 C   0  0  0  0  0  0  0  0  0  0  0  0
   12.5775  -18.2018   22.2416 C   0  0  0  0  0  0  0  0  0  0  0  0
   11.1623  -17.6715   22.2107 C   0  0  2  0  0  0  0  0  0  0  0  0
   10.9283  -17.0001   20.9464 N   0  0  0  0  0  0  0  0  0  0  0  0
   10.9482  -16.6581   23.3058 C   0  0  0  0  0  0  0  0  0  0  0  0
   11.5644  -15.5668   23.2933 O   0  0  0  0  0  0  0  0  0  0  0  0
   10.0558  -16.8988   24.3732 N   0  0  0  0  0  0  0  0  0  0  0  0
    9.8099  -16.0585   25.5069 C   0  0  1  0  0  0  0  0  0  0  0  0
    8.5118  -15.3942   25.5476 C   0  0  0  0  0  0  0  0  0  0  0  0
    8.3008  -14.0007   25.8894 C   0  0  0  0  0  0  0  0  0  0  0  0
    6.9970  -13.3541   25.9471 C   0  0  0  0  0  0  0  0  0  0  0  0
    6.8136  -11.9270   26.2738 C   0  0  0  0  0  0  0  0  0  0  0  0
    5.5093  -11.3750   26.2935 N   0  0  0  0  0  0  0  0  0  0  0  0
    9.7814  -16.9830   26.7742 C   0  0  0  0  0  0  0  0  0  0  0  0
    9.5724  -18.1801   26.6859 O   0  0  0  0  0  0  0  0  0  0  0  0
   10.0035  -16.3839   27.9994 O   0  0  0  0  0  0  0  0  0  0  0  0
  2  1  1  0
  3  2  2  0
  4  2  1  0
  5  6  1  0
  5  4  1  0
  6  8  1  0
  6  7  1  6
  8  9  2  0
 11 10  1  0
 11 12  2  0
 13 11  1  0
 14 13  1  0
 15 14  1  6
 16 15  1  0
 16  8  1  0
 17 15  1  0
 17 18  2  0
 19 17  1  0
 20 19  1  0
 20 26  1  0
 20 21  1  6
 22 21  1  0
 23 22  1  0
 24 23  1  0
 25 24  1  0
 26 28  1  0
 27 26  2  0
M  END
$$$$
