QQK.pdb
     RDKit          3D

 28 27  0  0  1  0  0  0  0  0999 V2000
    7.3298  -12.3139   19.6258 N   0  0  0  0  0  0  0  0  0  0  0  0
    7.4122  -13.7521   19.5581 C   0  0  0  0  0  0  0  0  0  0  0  0
    7.0926  -14.3827   20.6044 O   0  0  0  0  0  0  0  0  0  0  0  0
    7.8531  -14.3694   18.2996 C   0  0  0  0  0  0  0  0  0  0  0  0
    9.0488  -13.7377   17.6792 C   0  0  0  0  0  0  0  0  0  0  0  0
   10.0771  -14.7057   17.2041 C   0  0  2  0  0  0  0  0  0  0  0  0
    9.4431  -15.7711   16.4631 N   0  0  0  0  0  0  0  0  0  0  0  0
   10.8964  -15.2306   18.3290 C   0  0  0  0  0  0  0  0  0  0  0  0
   10.6727  -16.4042   18.7085 O   0  0  0  0  0  0  0  0  0  0  0  0
   16.2832  -15.1005   20.8860 N   0  0  0  0  0  0  0  0  0  0  0  0
   16.0314  -14.7102   19.5474 C   0  0  0  0  0  0  0  0  0  0  0  0
   16.9174  -14.9589   18.6903 O   0  0  0  0  0  0  0  0  0  0  0  0
   14.7488  -14.0336   19.2210 C   0  0  0  0  0  0  0  0  0  0  0  0
   13.8061  -14.0348   20.4057 C   0  0  0  0  0  0  0  0  0  0  0  0
   12.7028  -15.0167   20.0835 C   0  0  2  0  0  0  0  0  0  0  0  0
   11.9017  -14.4977   18.9912 N   0  0  0  0  0  0  0  0  0  0  0  0
   11.7877  -15.1983   21.2673 C   0  0  0  0  0  0  0  0  0  0  0  0
   11.2204  -14.2113   21.7914 O   0  0  0  0  0  0  0  0  0  0  0  0
   11.5392  -16.4726   21.8224 N   0  0  0  0  0  0  0  0  0  0  0  0
   10.8183  -16.7719   23.0234 C   0  0  1  0  0  0  0  0  0  0  0  0
   10.3258  -18.1387   23.1563 C   0  0  0  0  0  0  0  0  0  0  0  0
    9.4257  -18.7926   22.2262 C   0  0  0  0  0  0  0  0  0  0  0  0
    9.7033  -20.0588   21.5620 C   0  0  0  0  0  0  0  0  0  0  0  0
    8.7912  -20.6765   20.5805 C   0  0  0  0  0  0  0  0  0  0  0  0
    9.1073  -21.9432   20.0310 N   0  0  0  0  0  0  0  0  0  0  0  0
   11.8262  -16.6345   24.2179 C   0  0  0  0  0  0  0  0  0  0  0  0
   11.4523  -16.6813   25.3766 O   0  0  0  0  0  0  0  0  0  0  0  0
   13.1600  -16.4577   23.9030 O   0  0  0  0  0  0  0  0  0  0  0  0
  2  1  1  0
  3  2  2  0
  4  2  1  0
  5  6  1  0
  5  4  1  0
  6  8  1  0
  6  7  1  1
  8  9  2  0
 11 10  1  0
 11 12  2  0
 13 11  1  0
 14 13  1  0
 15 14  1  1
 16 15  1  0
 16  8  1  0
 17 15  1  0
 17 18  2  0
 19 17  1  0
 20 19  1  0
 20 26  1  0
 20 21  1  6
 22 21  1  0
 23 22  1  0
 24 23  1  0
 25 24  1  0
 26 28  1  0
 27 26  2  0
M  END
$$$$
