QQK.pdb
     RDKit          3D

 28 27  0  0  1  0  0  0  0  0999 V2000
   16.7594  -18.0742   18.3097 N   0  0  0  0  0  0  0  0  0  0  0  0
   16.1129  -17.4815   19.4545 C   0  0  0  0  0  0  0  0  0  0  0  0
   16.1454  -18.1493   20.5258 O   0  0  0  0  0  0  0  0  0  0  0  0
   15.4752  -16.1673   19.2957 C   0  0  0  0  0  0  0  0  0  0  0  0
   14.6198  -16.0300   18.0861 C   0  0  0  0  0  0  0  0  0  0  0  0
   13.9174  -14.7205   17.9768 C   0  0  2  0  0  0  0  0  0  0  0  0
   14.8733  -13.6416   18.0674 N   0  0  0  0  0  0  0  0  0  0  0  0
   12.8420  -14.5890   18.9958 C   0  0  0  0  0  0  0  0  0  0  0  0
   13.1126  -13.9559   20.0433 O   0  0  0  0  0  0  0  0  0  0  0  0
    7.5952  -13.2555   19.7550 N   0  0  0  0  0  0  0  0  0  0  0  0
    7.9352  -13.4188   18.3893 C   0  0  0  0  0  0  0  0  0  0  0  0
    7.4973  -12.5682   17.5730 O   0  0  0  0  0  0  0  0  0  0  0  0
    8.7826  -14.5723   17.9884 C   0  0  0  0  0  0  0  0  0  0  0  0
    9.1689  -15.4164   19.1842 C   0  0  0  0  0  0  0  0  0  0  0  0
   10.4396  -14.8204   19.7457 C   0  0  2  0  0  0  0  0  0  0  0  0
   11.5465  -15.1272   18.8599 N   0  0  0  0  0  0  0  0  0  0  0  0
   10.7601  -15.4184   21.0917 C   0  0  0  0  0  0  0  0  0  0  0  0
   11.5333  -16.4003   21.1848 O   0  0  0  0  0  0  0  0  0  0  0  0
   10.2071  -14.8998   22.2829 N   0  0  0  0  0  0  0  0  0  0  0  0
   10.4122  -15.3792   23.6170 C   0  0  1  0  0  0  0  0  0  0  0  0
    9.6597  -14.7029   24.6680 C   0  0  0  0  0  0  0  0  0  0  0  0
    8.3632  -14.0777   24.4920 C   0  0  0  0  0  0  0  0  0  0  0  0
    7.5005  -13.6467   25.5836 C   0  0  0  0  0  0  0  0  0  0  0  0
    6.2183  -12.9470   25.3758 C   0  0  0  0  0  0  0  0  0  0  0  0
    5.4682  -12.5118   26.4958 N   0  0  0  0  0  0  0  0  0  0  0  0
    9.8669  -16.8492   23.6725 C   0  0  0  0  0  0  0  0  0  0  0  0
    9.1599  -17.3011   22.7890 O   0  0  0  0  0  0  0  0  0  0  0  0
   10.2213  -17.6146   24.7671 O   0  0  0  0  0  0  0  0  0  0  0  0
  2  1  1  0
  3  2  2  0
  4  2  1  0
  5  6  1  0
  5  4  1  0
  6  8  1  0
  6  7  1  1
  8  9  2  0
 11 10  1  0
 11 12  2  0
 13 11  1  0
 14 13  1  0
 15 14  1  6
 16 15  1  0
 16  8  1  0
 17 15  1  0
 17 18  2  0
 19 17  1  0
 20 19  1  0
 20 26  1  0
 20 21  1  1
 22 21  1  0
 23 22  1  0
 24 23  1  0
 25 24  1  0
 26 28  1  0
 27 26  2  0
M  END
$$$$
