YGY.pdb
     RDKit          3D

 29 30  0  0  1  0  0  0  0  0999 V2000
   37.7877   -8.3643  -11.2329 O   0  0  0  0  0  0  0  0  0  0  0  0
   37.6975   -7.3359  -10.2863 C   0  0  0  0  0  0  0  0  0  0  0  0
   37.2479   -7.5824   -9.0028 C   0  0  0  0  0  0  0  0  0  0  0  0
   37.1483   -6.5843   -8.0451 C   0  0  0  0  0  0  0  0  0  0  0  0
   37.5168   -5.2888   -8.3978 C   0  0  0  0  0  0  0  0  0  0  0  0
   37.4067   -4.2468   -7.3786 C   0  0  0  0  0  0  0  0  0  0  0  0
   38.7063   -3.7504   -6.8409 C   0  0  2  0  0  0  0  0  0  0  0  0
   39.2875   -4.6746   -5.8661 N   0  0  0  0  0  0  0  0  0  0  0  0
   38.6519   -2.3750   -6.3187 C   0  0  0  0  0  0  0  0  0  0  0  0
   38.2820   -1.4655   -7.1060 O   0  0  0  0  0  0  0  0  0  0  0  0
   37.9704   -5.0100   -9.6735 C   0  0  0  0  0  0  0  0  0  0  0  0
   38.0486   -6.0323  -10.5780 C   0  0  0  0  0  0  0  0  0  0  0  0
   38.9829   -1.9975   -5.0020 N   0  0  0  0  0  0  0  0  0  0  0  0
   38.9399   -0.6405   -4.5157 C   0  0  0  0  0  0  0  0  0  0  0  0
   37.6217   -0.0053   -4.7176 C   0  0  0  0  0  0  0  0  0  0  0  0
   36.8907   -0.4024   -5.6547 O   0  0  0  0  0  0  0  0  0  0  0  0
   34.5071   -2.3984    0.5334 O   0  0  0  0  0  0  0  0  0  0  0  0
   34.7072   -1.2766   -0.2759 C   0  0  0  0  0  0  0  0  0  0  0  0
   35.9857   -0.7210   -0.2450 C   0  0  0  0  0  0  0  0  0  0  0  0
   36.2028    0.3834   -1.0344 C   0  0  0  0  0  0  0  0  0  0  0  0
   35.2142    0.9451   -1.8382 C   0  0  0  0  0  0  0  0  0  0  0  0
   35.5017    2.1323   -2.6479 C   0  0  0  0  0  0  0  0  0  0  0  0
   35.9096    1.7185   -4.0417 C   0  0  2  0  0  0  0  0  0  0  0  0
   37.1884    1.0267   -3.8776 N   0  0  0  0  0  0  0  0  0  0  0  0
   36.0115    2.8335   -4.9825 C   0  0  0  0  0  0  0  0  0  0  0  0
   37.2260    3.2461   -5.5493 O   0  0  0  0  0  0  0  0  0  0  0  0
   33.9799    0.3649   -1.8334 C   0  0  0  0  0  0  0  0  0  0  0  0
   33.7125   -0.7445   -1.0585 C   0  0  0  0  0  0  0  0  0  0  0  0
   35.0035    3.4911   -5.3389 O   0  0  0  0  0  0  0  0  0  0  0  0
  2  1  1  0
  3  2  2  0
  4  3  1  0
  5  4  2  0
  5 11  1  0
  6  5  1  0
  7  6  1  0
  7  8  1  1
  9  7  1  0
  9 13  1  0
 10  9  2  0
 11 12  2  0
 12  2  1  0
 14 13  1  0
 15 14  1  0
 15 24  1  0
 16 15  2  0
 18 28  2  0
 18 17  1  0
 19 18  1  0
 20 21  1  0
 20 19  2  0
 21 27  2  0
 22 21  1  0
 23 24  1  0
 23 22  1  1
 25 23  1  0
 26 25  1  0
 27 28  1  0
 29 25  2  0
M  END
$$$$
