YGY.pdb
     RDKit          3D

 29 30  0  0  1  0  0  0  0  0999 V2000
   29.3467  -10.2461  -17.0734 O   0  0  0  0  0  0  0  0  0  0  0  0
   27.9993  -10.2973  -16.6942 C   0  0  0  0  0  0  0  0  0  0  0  0
   27.6325  -10.5937  -15.3949 C   0  0  0  0  0  0  0  0  0  0  0  0
   26.3071  -10.6514  -14.9911 C   0  0  0  0  0  0  0  0  0  0  0  0
   25.3154  -10.4003  -15.9355 C   0  0  0  0  0  0  0  0  0  0  0  0
   23.9228  -10.4645  -15.4960 C   0  0  0  0  0  0  0  0  0  0  0  0
   23.0939   -9.2762  -15.8503 C   0  0  2  0  0  0  0  0  0  0  0  0
   23.5678   -8.0585  -15.1911 N   0  0  0  0  0  0  0  0  0  0  0  0
   21.6487   -9.4736  -15.6510 C   0  0  0  0  0  0  0  0  0  0  0  0
   21.1681   -9.1758  -14.5266 O   0  0  0  0  0  0  0  0  0  0  0  0
   25.6498  -10.1011  -17.2429 C   0  0  0  0  0  0  0  0  0  0  0  0
   26.9726  -10.0576  -17.5863 C   0  0  0  0  0  0  0  0  0  0  0  0
   20.7599   -9.9714  -16.6245 N   0  0  0  0  0  0  0  0  0  0  0  0
   19.3719  -10.2717  -16.3731 C   0  0  0  0  0  0  0  0  0  0  0  0
   18.6911  -10.8446  -17.5522 C   0  0  0  0  0  0  0  0  0  0  0  0
   19.3196  -10.9409  -18.6321 O   0  0  0  0  0  0  0  0  0  0  0  0
   15.1765  -16.5462  -14.6874 O   0  0  0  0  0  0  0  0  0  0  0  0
   15.7059  -15.7131  -15.6768 C   0  0  0  0  0  0  0  0  0  0  0  0
   14.8889  -15.4824  -16.7829 C   0  0  0  0  0  0  0  0  0  0  0  0
   15.3917  -14.6653  -17.7675 C   0  0  0  0  0  0  0  0  0  0  0  0
   16.6532  -14.0801  -17.6942 C   0  0  0  0  0  0  0  0  0  0  0  0
   17.1408  -13.2287  -18.7828 C   0  0  0  0  0  0  0  0  0  0  0  0
   16.6203  -11.8219  -18.6088 C   0  0  2  0  0  0  0  0  0  0  0  0
   17.3623  -11.2762  -17.4720 N   0  0  0  0  0  0  0  0  0  0  0  0
   15.1747  -11.7490  -18.3999 C   0  0  0  0  0  0  0  0  0  0  0  0
   14.2418  -12.0529  -19.4020 O   0  0  0  0  0  0  0  0  0  0  0  0
   17.4140  -14.3367  -16.5917 C   0  0  0  0  0  0  0  0  0  0  0  0
   16.9540  -15.1499  -15.5769 C   0  0  0  0  0  0  0  0  0  0  0  0
   14.6832  -11.4055  -17.2972 O   0  0  0  0  0  0  0  0  0  0  0  0
  2  1  1  0
  3  2  2  0
  4  3  1  0
  5  4  2  0
  5 11  1  0
  6  5  1  0
  7  6  1  0
  7  8  1  1
  9  7  1  0
  9 13  1  0
 10  9  2  0
 11 12  2  0
 12  2  1  0
 14 13  1  0
 15 14  1  0
 15 24  1  0
 16 15  2  0
 18 28  2  0
 18 17  1  0
 19 18  1  0
 20 21  1  0
 20 19  2  0
 21 27  2  0
 22 21  1  0
 23 24  1  0
 23 22  1  1
 25 23  1  0
 26 25  1  0
 27 28  1  0
 29 25  2  0
M  END
$$$$
