YGY.pdb
     RDKit          3D

 29 30  0  0  1  0  0  0  0  0999 V2000
   15.9759  -15.8320  -23.5504 O   0  0  0  0  0  0  0  0  0  0  0  0
   16.4883  -14.7451  -22.8308 C   0  0  0  0  0  0  0  0  0  0  0  0
   16.7481  -13.5364  -23.4489 C   0  0  0  0  0  0  0  0  0  0  0  0
   17.2553  -12.4437  -22.7619 C   0  0  0  0  0  0  0  0  0  0  0  0
   17.5096  -12.5775  -21.3996 C   0  0  0  0  0  0  0  0  0  0  0  0
   18.0440  -11.4178  -20.6882 C   0  0  0  0  0  0  0  0  0  0  0  0
   19.4826  -11.1246  -20.9509 C   0  0  2  0  0  0  0  0  0  0  0  0
   20.3668  -12.1218  -20.3462 N   0  0  0  0  0  0  0  0  0  0  0  0
   19.8885   -9.7543  -20.5970 C   0  0  0  0  0  0  0  0  0  0  0  0
   19.1924   -8.8054  -21.0430 O   0  0  0  0  0  0  0  0  0  0  0  0
   17.2604  -13.7733  -20.7525 C   0  0  0  0  0  0  0  0  0  0  0  0
   16.7602  -14.8183  -21.4787 C   0  0  0  0  0  0  0  0  0  0  0  0
   20.9990   -9.4227  -19.7955 N   0  0  0  0  0  0  0  0  0  0  0  0
   21.3513   -8.0753  -19.4208 C   0  0  0  0  0  0  0  0  0  0  0  0
   20.9814   -7.7574  -18.0265 C   0  0  0  0  0  0  0  0  0  0  0  0
   19.7730   -7.7824  -17.6954 O   0  0  0  0  0  0  0  0  0  0  0  0
   26.7306   -3.6003  -16.9082 O   0  0  0  0  0  0  0  0  0  0  0  0
   25.8176   -4.5576  -16.4574 C   0  0  0  0  0  0  0  0  0  0  0  0
   24.9207   -4.1329  -15.4778 C   0  0  0  0  0  0  0  0  0  0  0  0
   24.0142   -5.0600  -15.0210 C   0  0  0  0  0  0  0  0  0  0  0  0
   23.9674   -6.3691  -15.4934 C   0  0  0  0  0  0  0  0  0  0  0  0
   22.9867   -7.3169  -14.9574 C   0  0  0  0  0  0  0  0  0  0  0  0
   21.6684   -7.1554  -15.6759 C   0  0  2  0  0  0  0  0  0  0  0  0
   21.9617   -7.4318  -17.0824 N   0  0  0  0  0  0  0  0  0  0  0  0
   21.0559   -5.8395  -15.4968 C   0  0  0  0  0  0  0  0  0  0  0  0
   20.4488   -5.4363  -14.2987 O   0  0  0  0  0  0  0  0  0  0  0  0
   24.8661   -6.7356  -16.4516 C   0  0  0  0  0  0  0  0  0  0  0  0
   25.7953   -5.8418  -16.9421 C   0  0  0  0  0  0  0  0  0  0  0  0
   21.0398   -4.9875  -16.4184 O   0  0  0  0  0  0  0  0  0  0  0  0
  2  1  1  0
  3  2  2  0
  4  3  1  0
  5  4  2  0
  5 11  1  0
  6  5  1  0
  7  6  1  0
  7  8  1  1
  9  7  1  0
  9 13  1  0
 10  9  2  0
 11 12  2  0
 12  2  1  0
 14 13  1  0
 15 14  1  0
 15 24  1  0
 16 15  2  0
 18 28  2  0
 18 17  1  0
 19 18  1  0
 20 21  1  0
 20 19  2  0
 21 27  2  0
 22 21  1  0
 23 24  1  0
 23 22  1  1
 25 23  1  0
 26 25  1  0
 27 28  1  0
 29 25  2  0
M  END
$$$$
