YGY.pdb
     RDKit          3D

 29 30  0  0  1  0  0  0  0  0999 V2000
   21.3129  -18.1102  -22.0955 O   0  0  0  0  0  0  0  0  0  0  0  0
   21.5204  -16.8364  -21.5512 C   0  0  0  0  0  0  0  0  0  0  0  0
   21.3494  -15.6962  -22.3135 C   0  0  0  0  0  0  0  0  0  0  0  0
   21.5476  -14.4228  -21.8015 C   0  0  0  0  0  0  0  0  0  0  0  0
   21.9331  -14.2969  -20.4695 C   0  0  0  0  0  0  0  0  0  0  0  0
   22.1385  -12.9489  -19.9432 C   0  0  0  0  0  0  0  0  0  0  0  0
   21.1024  -12.4846  -18.9758 C   0  0  2  0  0  0  0  0  0  0  0  0
   19.7498  -12.5931  -19.5240 N   0  0  0  0  0  0  0  0  0  0  0  0
   21.3576  -11.1442  -18.4229 C   0  0  0  0  0  0  0  0  0  0  0  0
   22.4717  -10.9412  -17.8740 O   0  0  0  0  0  0  0  0  0  0  0  0
   22.1123  -15.4181  -19.6811 C   0  0  0  0  0  0  0  0  0  0  0  0
   21.9031  -16.6494  -20.2374 C   0  0  0  0  0  0  0  0  0  0  0  0
   20.4481  -10.0685  -18.4610 N   0  0  0  0  0  0  0  0  0  0  0  0
   20.7397   -8.7462  -17.9649 C   0  0  0  0  0  0  0  0  0  0  0  0
   20.3040   -8.5542  -16.5666 C   0  0  0  0  0  0  0  0  0  0  0  0
   19.3644   -9.2525  -16.1194 O   0  0  0  0  0  0  0  0  0  0  0  0
   20.2974   -5.4811   -8.3560 O   0  0  0  0  0  0  0  0  0  0  0  0
   20.6296   -5.7856   -9.6790 C   0  0  0  0  0  0  0  0  0  0  0  0
   20.9598   -7.1158   -9.9354 C   0  0  0  0  0  0  0  0  0  0  0  0
   21.2896   -7.4357  -11.2311 C   0  0  0  0  0  0  0  0  0  0  0  0
   21.3028   -6.4994  -12.2618 C   0  0  0  0  0  0  0  0  0  0  0  0
   21.6769   -6.8977  -13.6216 C   0  0  0  0  0  0  0  0  0  0  0  0
   20.4402   -7.2464  -14.4146 C   0  0  2  0  0  0  0  0  0  0  0  0
   20.9274   -7.6072  -15.7462 N   0  0  0  0  0  0  0  0  0  0  0  0
   19.4518   -6.1700  -14.4706 C   0  0  0  0  0  0  0  0  0  0  0  0
   18.3629   -6.0863  -13.5908 O   0  0  0  0  0  0  0  0  0  0  0  0
   20.9722   -5.2111  -11.9597 C   0  0  0  0  0  0  0  0  0  0  0  0
   20.6339   -4.8405  -10.6748 C   0  0  0  0  0  0  0  0  0  0  0  0
   19.5250   -5.2496  -15.3210 O   0  0  0  0  0  0  0  0  0  0  0  0
  2  1  1  0
  3  2  2  0
  4  3  1  0
  5  4  2  0
  5 11  1  0
  6  5  1  0
  7  6  1  0
  7  8  1  6
  9  7  1  0
  9 13  1  0
 10  9  2  0
 11 12  2  0
 12  2  1  0
 14 13  1  0
 15 14  1  0
 15 24  1  0
 16 15  2  0
 18 28  2  0
 18 17  1  0
 19 18  1  0
 20 21  1  0
 20 19  2  0
 21 27  2  0
 22 21  1  0
 23 24  1  0
 23 22  1  1
 25 23  1  0
 26 25  1  0
 27 28  1  0
 29 25  2  0
M  END
$$$$
