YGY.pdb
     RDKit          3D

 29 30  0  0  1  0  0  0  0  0999 V2000
   17.6714  -12.2164  -16.5887 O   0  0  0  0  0  0  0  0  0  0  0  0
   18.6168  -13.2488  -16.6339 C   0  0  0  0  0  0  0  0  0  0  0  0
   19.5940  -13.3670  -15.6636 C   0  0  0  0  0  0  0  0  0  0  0  0
   20.5426  -14.3784  -15.6829 C   0  0  0  0  0  0  0  0  0  0  0  0
   20.5021  -15.3049  -16.7214 C   0  0  0  0  0  0  0  0  0  0  0  0
   21.5079  -16.3655  -16.7291 C   0  0  0  0  0  0  0  0  0  0  0  0
   20.9725  -17.7442  -16.5367 C   0  0  2  0  0  0  0  0  0  0  0  0
   20.2958  -17.8968  -15.2480 N   0  0  0  0  0  0  0  0  0  0  0  0
   21.9658  -18.8083  -16.7570 C   0  0  0  0  0  0  0  0  0  0  0  0
   22.5288  -18.8581  -17.8814 O   0  0  0  0  0  0  0  0  0  0  0  0
   19.5372  -15.2138  -17.7070 C   0  0  0  0  0  0  0  0  0  0  0  0
   18.6264  -14.1963  -17.6388 C   0  0  0  0  0  0  0  0  0  0  0  0
   22.3355  -19.7777  -15.8034 N   0  0  0  0  0  0  0  0  0  0  0  0
   23.3343  -20.7932  -16.0293 C   0  0  0  0  0  0  0  0  0  0  0  0
   24.6880  -20.3592  -15.6279 C   0  0  0  0  0  0  0  0  0  0  0  0
   24.8981  -19.1436  -15.4073 O   0  0  0  0  0  0  0  0  0  0  0  0
   23.5438  -20.9441   -9.7764 O   0  0  0  0  0  0  0  0  0  0  0  0
   24.5121  -21.1390  -10.7652 C   0  0  0  0  0  0  0  0  0  0  0  0
   24.1580  -21.9957  -11.8068 C   0  0  0  0  0  0  0  0  0  0  0  0
   25.0971  -22.2006  -12.7897 C   0  0  0  0  0  0  0  0  0  0  0  0
   26.3515  -21.5963  -12.7755 C   0  0  0  0  0  0  0  0  0  0  0  0
   27.3167  -21.8645  -13.8451 C   0  0  0  0  0  0  0  0  0  0  0  0
   27.0634  -20.9392  -15.0112 C   0  0  2  0  0  0  0  0  0  0  0  0
   25.7267  -21.2872  -15.4937 N   0  0  0  0  0  0  0  0  0  0  0  0
   28.0664  -21.0368  -16.0710 C   0  0  0  0  0  0  0  0  0  0  0  0
   29.3035  -20.3785  -16.0149 O   0  0  0  0  0  0  0  0  0  0  0  0
   26.6499  -20.7667  -11.7348 C   0  0  0  0  0  0  0  0  0  0  0  0
   25.7414  -20.5291  -10.7244 C   0  0  0  0  0  0  0  0  0  0  0  0
   27.8722  -21.7245  -17.1029 O   0  0  0  0  0  0  0  0  0  0  0  0
  2  1  1  0
  3  2  2  0
  4  3  1  0
  5  4  2  0
  5 11  1  0
  6  5  1  0
  7  6  1  0
  7  8  1  1
  9  7  1  0
  9 13  1  0
 10  9  2  0
 11 12  2  0
 12  2  1  0
 14 13  1  0
 15 14  1  0
 15 24  1  0
 16 15  2  0
 18 28  2  0
 18 17  1  0
 19 18  1  0
 20 21  1  0
 20 19  2  0
 21 27  2  0
 22 21  1  0
 23 24  1  0
 23 22  1  1
 25 23  1  0
 26 25  1  0
 27 28  1  0
 29 25  2  0
M  END
$$$$
