WRW.pdb
     RDKit          3D

 40 43  0  0  1  0  0  0  0  0999 V2000
   14.6441  -19.0745   25.2911 N   0  0  0  0  0  0  0  0  0  0  0  0
   13.4168  -18.3302   25.1916 C   0  0  1  0  0  0  0  0  0  0  0  0
   13.4550  -17.0453   26.0312 C   0  0  0  0  0  0  0  0  0  0  0  0
   12.7285  -17.2232   27.3007 C   0  0  0  0  0  0  0  0  0  0  0  0
   12.9136  -18.2678   28.2198 C   0  0  0  0  0  0  0  0  0  0  0  0
   12.0936  -18.0894   29.2604 N   0  0  0  0  0  0  0  0  0  0  0  0
   11.3584  -16.9793   29.1013 C   0  0  0  0  0  0  0  0  0  0  0  0
   10.3812  -16.3888   29.8953 C   0  0  0  0  0  0  0  0  0  0  0  0
    9.8027  -15.2335   29.4351 C   0  0  0  0  0  0  0  0  0  0  0  0
   10.1740  -14.6715   28.2234 C   0  0  0  0  0  0  0  0  0  0  0  0
   11.1321  -15.2567   27.4487 C   0  0  0  0  0  0  0  0  0  0  0  0
   11.7507  -16.4302   27.8728 C   0  0  0  0  0  0  0  0  0  0  0  0
   13.2272  -17.8309   23.7798 C   0  0  0  0  0  0  0  0  0  0  0  0
   13.8427  -16.8172   23.4308 O   0  0  0  0  0  0  0  0  0  0  0  0
    7.4845  -19.0415   19.1626 N   0  0  0  0  0  0  0  0  0  0  0  0
    7.8669  -18.3519   17.9941 C   0  0  0  0  0  0  0  0  0  0  0  0
    7.0284  -17.8204   17.1727 N   0  0  0  0  0  0  0  0  0  0  0  0
    9.2575  -18.2400   17.6996 N   0  0  0  0  0  0  0  0  0  0  0  0
   10.2112  -18.8567   18.5994 C   0  0  0  0  0  0  0  0  0  0  0  0
   10.2903  -18.0256   19.8563 C   0  0  0  0  0  0  0  0  0  0  0  0
   11.3087  -18.5789   20.7718 C   0  0  0  0  0  0  0  0  0  0  0  0
   11.4914  -17.7513   22.0166 C   0  0  2  0  0  0  0  0  0  0  0  0
   12.3721  -18.5288   22.9350 N   0  0  0  0  0  0  0  0  0  0  0  0
   10.3024  -17.4552   22.7854 C   0  0  0  0  0  0  0  0  0  0  0  0
    9.8116  -18.4245   23.4983 O   0  0  0  0  0  0  0  0  0  0  0  0
    7.3105  -17.3599   16.2933 N   0  0  0  0  0  0  0  0  0  0  0  0
    9.6657  -16.2129   22.8097 C   0  0  2  0  0  0  0  0  0  0  0  0
    8.4771  -16.0168   23.6781 C   0  0  0  0  0  0  0  0  0  0  0  0
    8.2038  -14.5551   23.6184 C   0  0  0  0  0  0  0  0  0  0  0  0
    7.1523  -14.0530   24.5043 C   0  0  0  0  0  0  0  0  0  0  0  0
    6.2073  -14.8240   25.1602 N   0  0  0  0  0  0  0  0  0  0  0  0
    5.3894  -14.0306   25.8496 C   0  0  0  0  0  0  0  0  0  0  0  0
    5.7464  -12.7227   25.6867 C   0  0  0  0  0  0  0  0  0  0  0  0
    5.2341  -11.5406   26.1879 C   0  0  0  0  0  0  0  0  0  0  0  0
    5.8320  -10.3480   25.8474 C   0  0  0  0  0  0  0  0  0  0  0  0
    6.9305  -10.3356   25.0150 C   0  0  0  0  0  0  0  0  0  0  0  0
    7.4180  -11.5256   24.5310 C   0  0  0  0  0  0  0  0  0  0  0  0
    6.8405  -12.7588   24.8512 C   0  0  0  0  0  0  0  0  0  0  0  0
    7.4246  -16.9123   23.2076 O   0  0  0  0  0  0  0  0  0  0  0  0
    6.4810  -17.2290   23.9594 O   0  0  0  0  0  0  0  0  0  0  0  0
  2  1  1  6
  2  3  1  0
  3  4  1  0
  4  5  2  0
  6  5  1  0
  7  6  1  0
  8  7  2  0
  9  8  1  0
 10 11  1  0
 10  9  2  0
 11 12  2  0
 12  7  1  0
 12  4  1  0
 13  2  1  0
 13 14  2  0
 15 16  1  0
 16 18  1  0
 17 16  2  0
 18 19  1  0
 19 20  1  0
 20 21  1  0
 22 21  1  6
 22 23  1  0
 22 24  1  0
 23 13  1  0
 24 25  2  0
 26 24  1  0
 26 27  1  0
 27 38  1  0
 27 28  1  6
 29 28  1  0
 30 29  2  0
 31 30  1  0
 32 31  1  0
 32 37  2  0
 33 32  1  0
 34 33  2  0
 34 35  1  0
 35 36  2  0
 36 37  1  0
 37 29  1  0
 38 40  1  0
 39 38  2  0
M  END
$$$$
