WRW.pdb
     RDKit          3D

 40 43  0  0  1  0  0  0  0  0999 V2000
    5.8682  -18.3096   23.3244 N   0  0  0  0  0  0  0  0  0  0  0  0
    6.9391  -17.3487   23.3312 C   0  0  1  0  0  0  0  0  0  0  0  0
    7.5569  -17.1876   24.7276 C   0  0  0  0  0  0  0  0  0  0  0  0
    7.0786  -15.9544   25.3766 C   0  0  0  0  0  0  0  0  0  0  0  0
    6.2534  -15.8831   26.5098 C   0  0  0  0  0  0  0  0  0  0  0  0
    6.0436  -14.6002   26.8219 N   0  0  0  0  0  0  0  0  0  0  0  0
    6.6809  -13.7917   25.9627 C   0  0  0  0  0  0  0  0  0  0  0  0
    6.7590  -12.4061   25.8723 C   0  0  0  0  0  0  0  0  0  0  0  0
    7.5051  -11.8781   24.8498 C   0  0  0  0  0  0  0  0  0  0  0  0
    8.1585  -12.6912   23.9366 C   0  0  0  0  0  0  0  0  0  0  0  0
    8.0765  -14.0495   24.0300 C   0  0  0  0  0  0  0  0  0  0  0  0
    7.3324  -14.6344   25.0517 C   0  0  0  0  0  0  0  0  0  0  0  0
    8.0866  -17.8465   22.4863 C   0  0  0  0  0  0  0  0  0  0  0  0
    7.9746  -18.9500   21.9403 O   0  0  0  0  0  0  0  0  0  0  0  0
    6.3106  -13.7053   16.9568 N   0  0  0  0  0  0  0  0  0  0  0  0
    7.7162  -13.7367   16.8545 C   0  0  0  0  0  0  0  0  0  0  0  0
    8.3630  -13.3768   15.7999 N   0  0  0  0  0  0  0  0  0  0  0  0
    8.4655  -14.1974   17.9767 N   0  0  0  0  0  0  0  0  0  0  0  0
    7.7500  -14.6965   19.1337 C   0  0  0  0  0  0  0  0  0  0  0  0
    8.7577  -15.1335   20.1682 C   0  0  0  0  0  0  0  0  0  0  0  0
    9.0748  -16.5662   19.9999 C   0  0  0  0  0  0  0  0  0  0  0  0
    9.9806  -17.0983   21.0789 C   0  0  2  0  0  0  0  0  0  0  0  0
    9.2163  -17.0469   22.3581 N   0  0  0  0  0  0  0  0  0  0  0  0
   11.1997  -16.3618   21.3312 C   0  0  0  0  0  0  0  0  0  0  0  0
   12.2593  -16.7475   20.6854 O   0  0  0  0  0  0  0  0  0  0  0  0
    9.3887  -13.4489   15.7116 N   0  0  0  0  0  0  0  0  0  0  0  0
   11.3025  -15.2794   22.2072 C   0  0  1  0  0  0  0  0  0  0  0  0
   11.7207  -15.5131   23.6128 C   0  0  0  0  0  0  0  0  0  0  0  0
   10.4498  -15.7523   24.3494 C   0  0  0  0  0  0  0  0  0  0  0  0
   10.5603  -15.9259   25.7985 C   0  0  0  0  0  0  0  0  0  0  0  0
   10.8053  -17.1194   26.4564 N   0  0  0  0  0  0  0  0  0  0  0  0
   10.8047  -16.9087   27.7715 C   0  0  0  0  0  0  0  0  0  0  0  0
   10.5644  -15.5920   28.0420 C   0  0  0  0  0  0  0  0  0  0  0  0
   10.4745  -14.8775   29.2220 C   0  0  0  0  0  0  0  0  0  0  0  0
   10.2302  -13.5233   29.1740 C   0  0  0  0  0  0  0  0  0  0  0  0
   10.0772  -12.8887   27.9599 C   0  0  0  0  0  0  0  0  0  0  0  0
   10.1707  -13.6240   26.8030 C   0  0  0  0  0  0  0  0  0  0  0  0
   10.4170  -15.0011   26.8069 C   0  0  0  0  0  0  0  0  0  0  0  0
   12.7063  -16.5901   23.6151 O   0  0  0  0  0  0  0  0  0  0  0  0
   13.3281  -16.8760   24.6579 O   0  0  0  0  0  0  0  0  0  0  0  0
  2  1  1  1
  2  3  1  0
  3  4  1  0
  4  5  2  0
  6  5  1  0
  7  6  1  0
  8  7  2  0
  9  8  1  0
 10 11  1  0
 10  9  2  0
 11 12  2  0
 12  7  1  0
 12  4  1  0
 13  2  1  0
 13 14  2  0
 15 16  1  0
 16 18  1  0
 17 16  2  0
 18 19  1  0
 19 20  1  0
 20 21  1  0
 22 21  1  6
 22 23  1  0
 22 24  1  0
 23 13  1  0
 24 25  2  0
 26 24  1  0
 26 27  1  0
 27 38  1  0
 27 28  1  1
 29 28  1  0
 30 29  2  0
 31 30  1  0
 32 31  1  0
 32 37  2  0
 33 32  1  0
 34 33  2  0
 34 35  1  0
 35 36  2  0
 36 37  1  0
 37 29  1  0
 38 40  1  0
 39 38  2  0
M  END
$$$$
