WRW.pdb
     RDKit          3D

 40 43  0  0  1  0  0  0  0  0999 V2000
    6.1405  -18.4693   22.0792 N   0  0  0  0  0  0  0  0  0  0  0  0
    7.1404  -17.4410   22.1916 C   0  0  1  0  0  0  0  0  0  0  0  0
    7.5111  -17.1581   23.6544 C   0  0  0  0  0  0  0  0  0  0  0  0
    6.8551  -15.9300   24.1365 C   0  0  0  0  0  0  0  0  0  0  0  0
    5.8954  -15.8517   25.1578 C   0  0  0  0  0  0  0  0  0  0  0  0
    5.5418  -14.5744   25.3328 N   0  0  0  0  0  0  0  0  0  0  0  0
    6.2081  -13.7764   24.4859 C   0  0  0  0  0  0  0  0  0  0  0  0
    6.1794  -12.4003   24.2867 C   0  0  0  0  0  0  0  0  0  0  0  0
    6.9969  -11.8829   23.3145 C   0  0  0  0  0  0  0  0  0  0  0  0
    7.8226  -12.6972   22.5550 C   0  0  0  0  0  0  0  0  0  0  0  0
    7.8448  -14.0464   22.7545 C   0  0  0  0  0  0  0  0  0  0  0  0
    7.0343  -14.6202   23.7309 C   0  0  0  0  0  0  0  0  0  0  0  0
    8.4369  -17.9102   21.5770 C   0  0  0  0  0  0  0  0  0  0  0  0
    8.6443  -19.1269   21.5081 O   0  0  0  0  0  0  0  0  0  0  0  0
    6.9384  -16.5515   18.0992 N   0  0  0  0  0  0  0  0  0  0  0  0
    7.6315  -15.5248   17.4265 C   0  0  0  0  0  0  0  0  0  0  0  0
    7.1393  -14.3535   17.2122 N   0  0  0  0  0  0  0  0  0  0  0  0
    8.9478  -15.7970   16.9507 N   0  0  0  0  0  0  0  0  0  0  0  0
    9.8179  -16.6345   17.7514 C   0  0  0  0  0  0  0  0  0  0  0  0
   10.2037  -15.8728   18.9954 C   0  0  0  0  0  0  0  0  0  0  0  0
   11.2714  -16.5887   19.7227 C   0  0  0  0  0  0  0  0  0  0  0  0
   10.7567  -17.3696   20.9030 C   0  0  2  0  0  0  0  0  0  0  0  0
    9.3393  -16.9586   21.1165 N   0  0  0  0  0  0  0  0  0  0  0  0
   11.4152  -17.1474   22.1716 C   0  0  0  0  0  0  0  0  0  0  0  0
   12.7121  -17.2285   22.1784 O   0  0  0  0  0  0  0  0  0  0  0  0
    7.6566  -13.6002   16.7325 N   0  0  0  0  0  0  0  0  0  0  0  0
   10.7532  -16.8526   23.3650 C   0  0  1  0  0  0  0  0  0  0  0  0
   11.5439  -16.5767   24.5914 C   0  0  0  0  0  0  0  0  0  0  0  0
   10.5814  -15.9270   25.5222 C   0  0  0  0  0  0  0  0  0  0  0  0
   10.7224  -16.2597   26.9406 C   0  0  0  0  0  0  0  0  0  0  0  0
   10.9601  -17.5218   27.4582 N   0  0  0  0  0  0  0  0  0  0  0  0
   10.9941  -17.4561   28.7880 C   0  0  0  0  0  0  0  0  0  0  0  0
   10.7851  -16.1732   29.2062 C   0  0  0  0  0  0  0  0  0  0  0  0
   10.7363  -15.5905   30.4589 C   0  0  0  0  0  0  0  0  0  0  0  0
   10.5165  -14.2354   30.5648 C   0  0  0  0  0  0  0  0  0  0  0  0
   10.3472  -13.4696   29.4314 C   0  0  0  0  0  0  0  0  0  0  0  0
   10.3999  -14.0754   28.1992 C   0  0  0  0  0  0  0  0  0  0  0  0
   10.6201  -15.4485   28.0469 C   0  0  0  0  0  0  0  0  0  0  0  0
   12.1498  -17.8315   25.0268 O   0  0  0  0  0  0  0  0  0  0  0  0
   13.2057  -17.8268   25.6909 O   0  0  0  0  0  0  0  0  0  0  0  0
  2  1  1  1
  2  3  1  0
  3  4  1  0
  4  5  2  0
  6  5  1  0
  7  6  1  0
  8  7  2  0
  9  8  1  0
 10 11  1  0
 10  9  2  0
 11 12  2  0
 12  7  1  0
 12  4  1  0
 13  2  1  0
 13 14  2  0
 15 16  1  0
 16 18  1  0
 17 16  2  0
 18 19  1  0
 19 20  1  0
 20 21  1  0
 22 21  1  6
 22 23  1  0
 22 24  1  0
 23 13  1  0
 24 25  2  0
 26 24  1  0
 26 27  1  0
 27 38  1  0
 27 28  1  6
 29 28  1  0
 30 29  2  0
 31 30  1  0
 32 31  1  0
 32 37  2  0
 33 32  1  0
 34 33  2  0
 34 35  1  0
 35 36  2  0
 36 37  1  0
 37 29  1  0
 38 40  1  0
 39 38  2  0
M  END
$$$$
