WRW.pdb
     RDKit          3D

 40 43  0  0  1  0  0  0  0  0999 V2000
    6.6373  -18.8195   25.6925 N   0  0  0  0  0  0  0  0  0  0  0  0
    7.0356  -17.5328   25.1867 C   0  0  1  0  0  0  0  0  0  0  0  0
    7.8249  -16.7260   26.2276 C   0  0  0  0  0  0  0  0  0  0  0  0
    7.0262  -15.5970   26.7359 C   0  0  0  0  0  0  0  0  0  0  0  0
    6.0564  -15.6601   27.7486 C   0  0  0  0  0  0  0  0  0  0  0  0
    5.5544  -14.4383   27.9544 N   0  0  0  0  0  0  0  0  0  0  0  0
    6.1291  -13.5443   27.1367 C   0  0  0  0  0  0  0  0  0  0  0  0
    5.9411  -12.1760   26.9746 C   0  0  0  0  0  0  0  0  0  0  0  0
    6.6996  -11.5394   26.0256 C   0  0  0  0  0  0  0  0  0  0  0  0
    7.6205  -12.2300   25.2531 C   0  0  0  0  0  0  0  0  0  0  0  0
    7.7989  -13.5725   25.4161 C   0  0  0  0  0  0  0  0  0  0  0  0
    7.0539  -14.2643   26.3679 C   0  0  0  0  0  0  0  0  0  0  0  0
    8.0126  -17.7037   24.0488 C   0  0  0  0  0  0  0  0  0  0  0  0
    8.8260  -18.6325   24.1115 O   0  0  0  0  0  0  0  0  0  0  0  0
    8.0844  -12.0830   17.6311 N   0  0  0  0  0  0  0  0  0  0  0  0
    8.0951  -13.4729   17.3962 C   0  0  0  0  0  0  0  0  0  0  0  0
    7.6695  -14.0158   16.3079 N   0  0  0  0  0  0  0  0  0  0  0  0
    8.5989  -14.3277   18.4202 N   0  0  0  0  0  0  0  0  0  0  0  0
    8.4395  -15.7602   18.2717 C   0  0  0  0  0  0  0  0  0  0  0  0
    9.1219  -16.4409   19.4325 C   0  0  0  0  0  0  0  0  0  0  0  0
    8.3370  -16.2519   20.6693 C   0  0  0  0  0  0  0  0  0  0  0  0
    8.8968  -17.0123   21.8425 C   0  0  2  0  0  0  0  0  0  0  0  0
    7.9571  -16.8133   22.9830 N   0  0  0  0  0  0  0  0  0  0  0  0
   10.1910  -16.5945   22.3351 C   0  0  0  0  0  0  0  0  0  0  0  0
   10.4918  -15.3382   22.1941 O   0  0  0  0  0  0  0  0  0  0  0  0
    7.5988  -15.0366   16.1735 N   0  0  0  0  0  0  0  0  0  0  0  0
   11.1166  -17.4435   22.9450 C   0  0  1  0  0  0  0  0  0  0  0  0
   12.4609  -16.9241   23.3031 C   0  0  0  0  0  0  0  0  0  0  0  0
   12.1905  -15.7029   24.1097 C   0  0  0  0  0  0  0  0  0  0  0  0
   11.8349  -15.9158   25.5134 C   0  0  0  0  0  0  0  0  0  0  0  0
   12.2575  -16.9692   26.3068 N   0  0  0  0  0  0  0  0  0  0  0  0
   11.7106  -16.8602   27.5162 C   0  0  0  0  0  0  0  0  0  0  0  0
   10.9157  -15.7517   27.5805 C   0  0  0  0  0  0  0  0  0  0  0  0
   10.1517  -15.2021   28.5931 C   0  0  0  0  0  0  0  0  0  0  0  0
    9.4527  -14.0398   28.3561 C   0  0  0  0  0  0  0  0  0  0  0  0
    9.5158  -13.4322   27.1205 C   0  0  0  0  0  0  0  0  0  0  0  0
   10.2824  -14.0011   26.1323 C   0  0  0  0  0  0  0  0  0  0  0  0
   11.0074  -15.1809   26.3306 C   0  0  0  0  0  0  0  0  0  0  0  0
   13.2007  -18.0023   23.9521 O   0  0  0  0  0  0  0  0  0  0  0  0
   12.6474  -19.0945   24.1907 O   0  0  0  0  0  0  0  0  0  0  0  0
  2  1  1  1
  2  3  1  0
  3  4  1  0
  4  5  2  0
  6  5  1  0
  7  6  1  0
  8  7  2  0
  9  8  1  0
 10 11  1  0
 10  9  2  0
 11 12  2  0
 12  7  1  0
 12  4  1  0
 13  2  1  0
 13 14  2  0
 15 16  1  0
 16 18  1  0
 17 16  2  0
 18 19  1  0
 19 20  1  0
 20 21  1  0
 22 21  1  6
 22 23  1  0
 22 24  1  0
 23 13  1  0
 24 25  2  0
 26 24  1  0
 26 27  1  0
 27 38  1  0
 27 28  1  6
 29 28  1  0
 30 29  2  0
 31 30  1  0
 32 31  1  0
 32 37  2  0
 33 32  1  0
 34 33  2  0
 34 35  1  0
 35 36  2  0
 36 37  1  0
 37 29  1  0
 38 40  1  0
 39 38  2  0
M  END
$$$$
