WRW.pdb
     RDKit          3D

 40 43  0  0  1  0  0  0  0  0999 V2000
    6.2075  -21.2968   23.1125 N   0  0  0  0  0  0  0  0  0  0  0  0
    6.8378  -20.1813   23.7671 C   0  0  1  0  0  0  0  0  0  0  0  0
    7.9333  -20.6328   24.7435 C   0  0  0  0  0  0  0  0  0  0  0  0
    7.6602  -20.1423   26.1058 C   0  0  0  0  0  0  0  0  0  0  0  0
    6.7934  -20.7326   27.0387 C   0  0  0  0  0  0  0  0  0  0  0  0
    6.8144  -20.0216   28.1706 N   0  0  0  0  0  0  0  0  0  0  0  0
    7.6487  -18.9776   28.0608 C   0  0  0  0  0  0  0  0  0  0  0  0
    7.9970  -17.9672   28.9507 C   0  0  0  0  0  0  0  0  0  0  0  0
    8.8944  -17.0238   28.5196 C   0  0  0  0  0  0  0  0  0  0  0  0
    9.4365  -17.0705   27.2445 C   0  0  0  0  0  0  0  0  0  0  0  0
    9.0894  -18.0633   26.3761 C   0  0  0  0  0  0  0  0  0  0  0  0
    8.1831  -19.0460   26.7668 C   0  0  0  0  0  0  0  0  0  0  0  0
    7.5810  -19.3409   22.7573 C   0  0  0  0  0  0  0  0  0  0  0  0
    8.2249  -19.9205   21.8753 O   0  0  0  0  0  0  0  0  0  0  0  0
    6.4024  -13.5831   19.5020 N   0  0  0  0  0  0  0  0  0  0  0  0
    7.2982  -13.4726   18.4192 C   0  0  0  0  0  0  0  0  0  0  0  0
    7.5253  -12.3710   17.7907 N   0  0  0  0  0  0  0  0  0  0  0  0
    7.9878  -14.6446   17.9900 N   0  0  0  0  0  0  0  0  0  0  0  0
    8.0912  -15.7647   18.9033 C   0  0  0  0  0  0  0  0  0  0  0  0
    7.9939  -15.2421   20.3153 C   0  0  0  0  0  0  0  0  0  0  0  0
    7.3286  -16.2348   21.1833 C   0  0  0  0  0  0  0  0  0  0  0  0
    8.3011  -17.1322   21.9022 C   0  0  2  0  0  0  0  0  0  0  0  0
    7.5109  -17.9566   22.8610 N   0  0  0  0  0  0  0  0  0  0  0  0
    9.3193  -16.4862   22.7010 C   0  0  0  0  0  0  0  0  0  0  0  0
   10.2403  -15.8338   22.0571 O   0  0  0  0  0  0  0  0  0  0  0  0
    8.1373  -12.3066   16.9622 N   0  0  0  0  0  0  0  0  0  0  0  0
    9.3679  -16.5179   24.0961 C   0  0  1  0  0  0  0  0  0  0  0  0
   10.5112  -15.8865   24.8028 C   0  0  0  0  0  0  0  0  0  0  0  0
    9.9636  -15.4938   26.1298 C   0  0  0  0  0  0  0  0  0  0  0  0
    8.6959  -14.7621   26.1199 C   0  0  0  0  0  0  0  0  0  0  0  0
    7.4323  -15.3284   26.1237 N   0  0  0  0  0  0  0  0  0  0  0  0
    6.5146  -14.3643   26.0760 C   0  0  0  0  0  0  0  0  0  0  0  0
    7.1145  -13.1382   26.0392 C   0  0  0  0  0  0  0  0  0  0  0  0
    6.6151  -11.8499   25.9950 C   0  0  0  0  0  0  0  0  0  0  0  0
    7.4902  -10.7870   25.9803 C   0  0  0  0  0  0  0  0  0  0  0  0
    8.8504  -11.0080   26.0095 C   0  0  0  0  0  0  0  0  0  0  0  0
    9.3188  -12.2990   26.0526 C   0  0  0  0  0  0  0  0  0  0  0  0
    8.4648  -13.4070   26.0682 C   0  0  0  0  0  0  0  0  0  0  0  0
   11.6230  -16.8326   24.7932 O   0  0  0  0  0  0  0  0  0  0  0  0
   12.6696  -16.5850   25.4250 O   0  0  0  0  0  0  0  0  0  0  0  0
  2  1  1  6
  2  3  1  0
  3  4  1  0
  4  5  2  0
  6  5  1  0
  7  6  1  0
  8  7  2  0
  9  8  1  0
 10 11  1  0
 10  9  2  0
 11 12  2  0
 12  7  1  0
 12  4  1  0
 13  2  1  0
 13 14  2  0
 15 16  1  0
 16 18  1  0
 17 16  2  0
 18 19  1  0
 19 20  1  0
 20 21  1  0
 22 21  1  1
 22 23  1  0
 22 24  1  0
 23 13  1  0
 24 25  2  0
 26 24  1  0
 26 27  1  0
 27 38  1  0
 27 28  1  6
 29 28  1  0
 30 29  2  0
 31 30  1  0
 32 31  1  0
 32 37  2  0
 33 32  1  0
 34 33  2  0
 34 35  1  0
 35 36  2  0
 36 37  1  0
 37 29  1  0
 38 40  1  0
 39 38  2  0
M  END
$$$$
