WRW.pdb
     RDKit          3D

 40 43  0  0  1  0  0  0  0  0999 V2000
    7.0449  -17.8865   23.0828 N   0  0  0  0  0  0  0  0  0  0  0  0
    8.2271  -17.1380   22.7480 C   0  0  1  0  0  0  0  0  0  0  0  0
    8.3339  -15.8397   23.5607 C   0  0  0  0  0  0  0  0  0  0  0  0
    7.4902  -14.7818   22.9777 C   0  0  0  0  0  0  0  0  0  0  0  0
    6.3500  -14.2145   23.5679 C   0  0  0  0  0  0  0  0  0  0  0  0
    5.8560  -13.2738   22.7566 N   0  0  0  0  0  0  0  0  0  0  0  0
    6.5972  -13.1684   21.6442 C   0  0  0  0  0  0  0  0  0  0  0  0
    6.4834  -12.3520   20.5242 C   0  0  0  0  0  0  0  0  0  0  0  0
    7.4216  -12.4984   19.5344 C   0  0  0  0  0  0  0  0  0  0  0  0
    8.4470  -13.4252   19.6412 C   0  0  0  0  0  0  0  0  0  0  0  0
    8.5520  -14.2239   20.7419 C   0  0  0  0  0  0  0  0  0  0  0  0
    7.6249  -14.1125   21.7752 C   0  0  0  0  0  0  0  0  0  0  0  0
    9.4602  -17.9127   23.1454 C   0  0  0  0  0  0  0  0  0  0  0  0
    9.3487  -18.7807   24.0186 O   0  0  0  0  0  0  0  0  0  0  0  0
   13.6295  -14.7874   18.6266 N   0  0  0  0  0  0  0  0  0  0  0  0
   14.8743  -15.0587   19.2300 C   0  0  0  0  0  0  0  0  0  0  0  0
   15.8770  -14.2503   19.1917 N   0  0  0  0  0  0  0  0  0  0  0  0
   15.0372  -16.2980   19.9162 N   0  0  0  0  0  0  0  0  0  0  0  0
   13.9146  -17.2120   19.9779 C   0  0  0  0  0  0  0  0  0  0  0  0
   13.2302  -17.0406   21.3116 C   0  0  0  0  0  0  0  0  0  0  0  0
   12.8671  -18.3575   21.8729 C   0  0  0  0  0  0  0  0  0  0  0  0
   11.9086  -18.2589   23.0303 C   0  0  2  0  0  0  0  0  0  0  0  0
   10.6640  -17.6188   22.5158 N   0  0  0  0  0  0  0  0  0  0  0  0
   12.3212  -17.4463   24.1536 C   0  0  0  0  0  0  0  0  0  0  0  0
   12.8878  -16.3104   23.8757 O   0  0  0  0  0  0  0  0  0  0  0  0
   16.7597  -14.4174   19.6997 N   0  0  0  0  0  0  0  0  0  0  0  0
   12.1463  -17.8012   25.4926 C   0  0  1  0  0  0  0  0  0  0  0  0
   11.5222  -16.8337   26.4304 C   0  0  0  0  0  0  0  0  0  0  0  0
   10.3311  -16.3178   25.7023 C   0  0  0  0  0  0  0  0  0  0  0  0
    9.3397  -15.5986   26.5037 C   0  0  0  0  0  0  0  0  0  0  0  0
    8.4908  -16.1623   27.4413 N   0  0  0  0  0  0  0  0  0  0  0  0
    7.7017  -15.2173   27.9493 C   0  0  0  0  0  0  0  0  0  0  0  0
    7.9846  -14.0070   27.3840 C   0  0  0  0  0  0  0  0  0  0  0  0
    7.4659  -12.7394   27.5714 C   0  0  0  0  0  0  0  0  0  0  0  0
    7.9781  -11.6867   26.8467 C   0  0  0  0  0  0  0  0  0  0  0  0
    8.9982  -11.8974   25.9439 C   0  0  0  0  0  0  0  0  0  0  0  0
    9.4940  -13.1679   25.7775 C   0  0  0  0  0  0  0  0  0  0  0  0
    9.0021  -14.2650   26.4926 C   0  0  0  0  0  0  0  0  0  0  0  0
   11.2843  -17.5235   27.6949 O   0  0  0  0  0  0  0  0  0  0  0  0
   11.0395  -18.7465   27.7117 O   0  0  0  0  0  0  0  0  0  0  0  0
  2  1  1  1
  2  3  1  0
  3  4  1  0
  4  5  2  0
  6  5  1  0
  7  6  1  0
  8  7  2  0
  9  8  1  0
 10 11  1  0
 10  9  2  0
 11 12  2  0
 12  7  1  0
 12  4  1  0
 13  2  1  0
 13 14  2  0
 15 16  1  0
 16 18  1  0
 17 16  2  0
 18 19  1  0
 19 20  1  0
 20 21  1  0
 22 21  1  6
 22 23  1  0
 22 24  1  0
 23 13  1  0
 24 25  2  0
 26 24  1  0
 26 27  1  0
 27 38  1  0
 27 28  1  1
 29 28  1  0
 30 29  2  0
 31 30  1  0
 32 31  1  0
 32 37  2  0
 33 32  1  0
 34 33  2  0
 34 35  1  0
 35 36  2  0
 36 37  1  0
 37 29  1  0
 38 40  1  0
 39 38  2  0
M  END
$$$$
