WRW.pdb
     RDKit          3D

 40 43  0  0  1  0  0  0  0  0999 V2000
    6.1500  -20.1328   23.2179 N   0  0  0  0  0  0  0  0  0  0  0  0
    6.4259  -18.7509   23.5078 C   0  0  1  0  0  0  0  0  0  0  0  0
    7.1782  -18.5819   24.8356 C   0  0  0  0  0  0  0  0  0  0  0  0
    6.9382  -17.2471   25.4114 C   0  0  0  0  0  0  0  0  0  0  0  0
    5.7332  -16.7916   25.9687 C   0  0  0  0  0  0  0  0  0  0  0  0
    5.8959  -15.5387   26.4057 N   0  0  0  0  0  0  0  0  0  0  0  0
    7.1470  -15.1141   26.1766 C   0  0  0  0  0  0  0  0  0  0  0  0
    7.7825  -13.9057   26.4410 C   0  0  0  0  0  0  0  0  0  0  0  0
    9.0968  -13.7852   26.0678 C   0  0  0  0  0  0  0  0  0  0  0  0
    9.7712  -14.8261   25.4485 C   0  0  0  0  0  0  0  0  0  0  0  0
    9.1414  -16.0083   25.1907 C   0  0  0  0  0  0  0  0  0  0  0  0
    7.8075  -16.1809   25.5518 C   0  0  0  0  0  0  0  0  0  0  0  0
    7.3782  -18.1867   22.4814 C   0  0  0  0  0  0  0  0  0  0  0  0
    8.2129  -18.9473   21.9784 O   0  0  0  0  0  0  0  0  0  0  0  0
    7.7870  -15.1492   15.1386 N   0  0  0  0  0  0  0  0  0  0  0  0
    8.1894  -14.0243   15.8868 C   0  0  0  0  0  0  0  0  0  0  0  0
    8.0049  -12.8085   15.5023 N   0  0  0  0  0  0  0  0  0  0  0  0
    8.8423  -14.2414   17.1357 N   0  0  0  0  0  0  0  0  0  0  0  0
    8.2295  -15.1383   18.0946 C   0  0  0  0  0  0  0  0  0  0  0  0
    8.1148  -14.4203   19.4166 C   0  0  0  0  0  0  0  0  0  0  0  0
    7.3106  -15.2185   20.3640 C   0  0  0  0  0  0  0  0  0  0  0  0
    8.0952  -16.3300   21.0096 C   0  0  2  0  0  0  0  0  0  0  0  0
    7.2771  -16.8415   22.1465 N   0  0  0  0  0  0  0  0  0  0  0  0
    9.3744  -15.9781   21.5860 C   0  0  0  0  0  0  0  0  0  0  0  0
   10.2778  -15.5243   20.7697 O   0  0  0  0  0  0  0  0  0  0  0  0
    8.3819  -11.9908   16.0067 N   0  0  0  0  0  0  0  0  0  0  0  0
    9.6885  -16.0910   22.9418 C   0  0  1  0  0  0  0  0  0  0  0  0
   11.0673  -15.7861   23.4013 C   0  0  0  0  0  0  0  0  0  0  0  0
   10.9628  -14.4486   24.0455 C   0  0  0  0  0  0  0  0  0  0  0  0
   10.4490  -14.4248   25.4159 C   0  0  0  0  0  0  0  0  0  0  0  0
   10.7608  -15.3312   26.4152 N   0  0  0  0  0  0  0  0  0  0  0  0
   10.0846  -15.0224   27.5203 C   0  0  0  0  0  0  0  0  0  0  0  0
    9.3085  -13.9188   27.3100 C   0  0  0  0  0  0  0  0  0  0  0  0
    8.4469  -13.2082   28.1247 C   0  0  0  0  0  0  0  0  0  0  0  0
    7.8005  -12.1017   27.6212 C   0  0  0  0  0  0  0  0  0  0  0  0
    8.0123  -11.7084   26.3172 C   0  0  0  0  0  0  0  0  0  0  0  0
    8.8735  -12.4338   25.5299 C   0  0  0  0  0  0  0  0  0  0  0  0
    9.5496  -13.5641   26.0014 C   0  0  0  0  0  0  0  0  0  0  0  0
   11.5181  -16.8956   24.2361 O   0  0  0  0  0  0  0  0  0  0  0  0
   12.6645  -16.8919   24.7278 O   0  0  0  0  0  0  0  0  0  0  0  0
  2  1  1  6
  2  3  1  0
  3  4  1  0
  4  5  2  0
  6  5  1  0
  7  6  1  0
  8  7  2  0
  9  8  1  0
 10 11  1  0
 10  9  2  0
 11 12  2  0
 12  7  1  0
 12  4  1  0
 13  2  1  0
 13 14  2  0
 15 16  1  0
 16 18  1  0
 17 16  2  0
 18 19  1  0
 19 20  1  0
 20 21  1  0
 22 21  1  1
 22 23  1  0
 22 24  1  0
 23 13  1  0
 24 25  2  0
 26 24  1  0
 26 27  1  0
 27 38  1  0
 27 28  1  6
 29 28  1  0
 30 29  2  0
 31 30  1  0
 32 31  1  0
 32 37  2  0
 33 32  1  0
 34 33  2  0
 34 35  1  0
 35 36  2  0
 36 37  1  0
 37 29  1  0
 38 40  1  0
 39 38  2  0
M  END
$$$$
