WRW.pdb
     RDKit          3D

 40 43  0  0  1  0  0  0  0  0999 V2000
    6.7941  -18.0830   24.9698 N   0  0  0  0  0  0  0  0  0  0  0  0
    7.4451  -17.0710   24.1812 C   0  0  1  0  0  0  0  0  0  0  0  0
    8.2615  -16.1033   25.0498 C   0  0  0  0  0  0  0  0  0  0  0  0
    7.3784  -15.1776   25.7806 C   0  0  0  0  0  0  0  0  0  0  0  0
    6.5168  -15.5166   26.8356 C   0  0  0  0  0  0  0  0  0  0  0  0
    5.8889  -14.4163   27.2623 N   0  0  0  0  0  0  0  0  0  0  0  0
    6.2751  -13.3443   26.5555 C   0  0  0  0  0  0  0  0  0  0  0  0
    5.9071  -12.0048   26.6209 C   0  0  0  0  0  0  0  0  0  0  0  0
    6.4951  -11.1412   25.7322 C   0  0  0  0  0  0  0  0  0  0  0  0
    7.4220  -11.5824   24.8005 C   0  0  0  0  0  0  0  0  0  0  0  0
    7.7774  -12.8980   24.7407 C   0  0  0  0  0  0  0  0  0  0  0  0
    7.2098  -13.8142   25.6226 C   0  0  0  0  0  0  0  0  0  0  0  0
    8.4778  -17.7022   23.2792 C   0  0  0  0  0  0  0  0  0  0  0  0
    9.0181  -18.7495   23.6527 O   0  0  0  0  0  0  0  0  0  0  0  0
    6.9095  -13.7508   18.4680 N   0  0  0  0  0  0  0  0  0  0  0  0
    8.2974  -13.5414   18.3369 C   0  0  0  0  0  0  0  0  0  0  0  0
    8.8545  -12.3822   18.4155 N   0  0  0  0  0  0  0  0  0  0  0  0
    9.1322  -14.6724   18.0984 N   0  0  0  0  0  0  0  0  0  0  0  0
    8.5494  -15.9966   18.1778 C   0  0  0  0  0  0  0  0  0  0  0  0
    8.5881  -16.4515   19.6159 C   0  0  0  0  0  0  0  0  0  0  0  0
    9.9459  -16.9121   19.9701 C   0  0  0  0  0  0  0  0  0  0  0  0
   10.0314  -17.4710   21.3659 C   0  0  2  0  0  0  0  0  0  0  0  0
    8.7769  -17.0820   22.0718 N   0  0  0  0  0  0  0  0  0  0  0  0
   11.1076  -16.9836   22.2006 C   0  0  0  0  0  0  0  0  0  0  0  0
   11.3973  -15.7208   22.1017 O   0  0  0  0  0  0  0  0  0  0  0  0
    9.8738  -12.2370   18.3443 N   0  0  0  0  0  0  0  0  0  0  0  0
   11.8365  -17.7734   23.0920 C   0  0  1  0  0  0  0  0  0  0  0  0
   12.9936  -17.1850   23.8131 C   0  0  0  0  0  0  0  0  0  0  0  0
   12.4256  -16.0271   24.5558 C   0  0  0  0  0  0  0  0  0  0  0  0
   11.9006  -16.3061   25.8933 C   0  0  0  0  0  0  0  0  0  0  0  0
   11.8780  -17.5436   26.5142 N   0  0  0  0  0  0  0  0  0  0  0  0
   11.2975  -17.4301   27.7074 C   0  0  0  0  0  0  0  0  0  0  0  0
   10.9158  -16.1380   27.9296 C   0  0  0  0  0  0  0  0  0  0  0  0
   10.2955  -15.5126   28.9950 C   0  0  0  0  0  0  0  0  0  0  0  0
   10.0475  -14.1597   28.9320 C   0  0  0  0  0  0  0  0  0  0  0  0
   10.4151  -13.4384   27.8165 C   0  0  0  0  0  0  0  0  0  0  0  0
   11.0295  -14.0861   26.7720 C   0  0  0  0  0  0  0  0  0  0  0  0
   11.2993  -15.4586   26.7948 C   0  0  0  0  0  0  0  0  0  0  0  0
   13.6163  -18.2435   24.6024 O   0  0  0  0  0  0  0  0  0  0  0  0
   13.1164  -19.3858   24.6343 O   0  0  0  0  0  0  0  0  0  0  0  0
  2  1  1  1
  2  3  1  0
  3  4  1  0
  4  5  2  0
  6  5  1  0
  7  6  1  0
  8  7  2  0
  9  8  1  0
 10 11  1  0
 10  9  2  0
 11 12  2  0
 12  7  1  0
 12  4  1  0
 13  2  1  0
 13 14  2  0
 15 16  1  0
 16 18  1  0
 17 16  2  0
 18 19  1  0
 19 20  1  0
 20 21  1  0
 22 21  1  6
 22 23  1  0
 22 24  1  0
 23 13  1  0
 24 25  2  0
 26 24  1  0
 26 27  1  0
 27 38  1  0
 27 28  1  6
 29 28  1  0
 30 29  2  0
 31 30  1  0
 32 31  1  0
 32 37  2  0
 33 32  1  0
 34 33  2  0
 34 35  1  0
 35 36  2  0
 36 37  1  0
 37 29  1  0
 38 40  1  0
 39 38  2  0
M  END
$$$$
