WRW.pdb
     RDKit          3D

 40 43  0  0  1  0  0  0  0  0999 V2000
   14.4809  -19.1204   23.8250 N   0  0  0  0  0  0  0  0  0  0  0  0
   13.4695  -18.2776   24.4053 C   0  0  1  0  0  0  0  0  0  0  0  0
   14.0739  -17.1989   25.3155 C   0  0  0  0  0  0  0  0  0  0  0  0
   13.3576  -17.1322   26.6014 C   0  0  0  0  0  0  0  0  0  0  0  0
   13.5319  -17.9998   27.6909 C   0  0  0  0  0  0  0  0  0  0  0  0
   12.7266  -17.6213   28.6886 N   0  0  0  0  0  0  0  0  0  0  0  0
   12.0117  -16.5422   28.3390 C   0  0  0  0  0  0  0  0  0  0  0  0
   11.0547  -15.7990   29.0215 C   0  0  0  0  0  0  0  0  0  0  0  0
   10.4940  -14.7323   28.3665 C   0  0  0  0  0  0  0  0  0  0  0  0
   10.8634  -14.4034   27.0714 C   0  0  0  0  0  0  0  0  0  0  0  0
   11.8016  -15.1375   26.4070 C   0  0  0  0  0  0  0  0  0  0  0  0
   12.4016  -16.2294   27.0295 C   0  0  0  0  0  0  0  0  0  0  0  0
   12.7726  -17.4864   23.3250 C   0  0  0  0  0  0  0  0  0  0  0  0
   12.9165  -16.2587   23.3148 O   0  0  0  0  0  0  0  0  0  0  0  0
   11.2155  -16.2036   17.2018 N   0  0  0  0  0  0  0  0  0  0  0  0
   11.9901  -17.2957   16.7608 C   0  0  0  0  0  0  0  0  0  0  0  0
   12.9527  -17.1907   15.9107 N   0  0  0  0  0  0  0  0  0  0  0  0
   11.6899  -18.5901   17.2782 N   0  0  0  0  0  0  0  0  0  0  0  0
   10.6899  -18.7083   18.3201 C   0  0  0  0  0  0  0  0  0  0  0  0
   11.2283  -18.0675   19.5756 C   0  0  0  0  0  0  0  0  0  0  0  0
   10.2893  -18.2717   20.6971 C   0  0  0  0  0  0  0  0  0  0  0  0
   10.7123  -17.5597   21.9548 C   0  0  2  0  0  0  0  0  0  0  0  0
   12.0015  -18.1686   22.3912 N   0  0  0  0  0  0  0  0  0  0  0  0
    9.8308  -17.6698   23.0965 C   0  0  0  0  0  0  0  0  0  0  0  0
    9.8238  -18.8092   23.7212 O   0  0  0  0  0  0  0  0  0  0  0  0
   13.5219  -17.9923   15.5969 N   0  0  0  0  0  0  0  0  0  0  0  0
    9.0063  -16.6430   23.5605 C   0  0  2  0  0  0  0  0  0  0  0  0
    8.1824  -16.8595   24.7769 C   0  0  0  0  0  0  0  0  0  0  0  0
    8.3291  -15.6025   25.5601 C   0  0  0  0  0  0  0  0  0  0  0  0
    7.1304  -14.7725   25.6891 C   0  0  0  0  0  0  0  0  0  0  0  0
    5.8439  -15.2342   25.9106 N   0  0  0  0  0  0  0  0  0  0  0  0
    5.0015  -14.2029   25.9374 C   0  0  0  0  0  0  0  0  0  0  0  0
    5.6763  -13.0325   25.7391 C   0  0  0  0  0  0  0  0  0  0  0  0
    5.2704  -11.7120   25.6889 C   0  0  0  0  0  0  0  0  0  0  0  0
    6.2081  -10.7251   25.4826 C   0  0  0  0  0  0  0  0  0  0  0  0
    7.5378  -11.0533   25.3280 C   0  0  0  0  0  0  0  0  0  0  0  0
    7.9128  -12.3740   25.3818 C   0  0  0  0  0  0  0  0  0  0  0  0
    6.9928  -13.4074   25.5887 C   0  0  0  0  0  0  0  0  0  0  0  0
    6.8357  -17.2251   24.3479 O   0  0  0  0  0  0  0  0  0  0  0  0
    6.4847  -17.0654   23.1617 O   0  0  0  0  0  0  0  0  0  0  0  0
  2  1  1  6
  2  3  1  0
  3  4  1  0
  4  5  2  0
  6  5  1  0
  7  6  1  0
  8  7  2  0
  9  8  1  0
 10 11  1  0
 10  9  2  0
 11 12  2  0
 12  7  1  0
 12  4  1  0
 13  2  1  0
 13 14  2  0
 15 16  1  0
 16 18  1  0
 17 16  2  0
 18 19  1  0
 19 20  1  0
 20 21  1  0
 22 21  1  6
 22 23  1  0
 22 24  1  0
 23 13  1  0
 24 25  2  0
 26 24  1  0
 26 27  1  0
 27 38  1  0
 27 28  1  1
 29 28  1  0
 30 29  2  0
 31 30  1  0
 32 31  1  0
 32 37  2  0
 33 32  1  0
 34 33  2  0
 34 35  1  0
 35 36  2  0
 36 37  1  0
 37 29  1  0
 38 40  1  0
 39 38  2  0
M  END
$$$$
