WRW.pdb
     RDKit          3D

 40 43  0  0  1  0  0  0  0  0999 V2000
    6.7457  -19.1263   24.5766 N   0  0  0  0  0  0  0  0  0  0  0  0
    7.4279  -17.9317   24.1550 C   0  0  1  0  0  0  0  0  0  0  0  0
    8.1706  -17.2548   25.3159 C   0  0  0  0  0  0  0  0  0  0  0  0
    7.5284  -15.9799   25.6807 C   0  0  0  0  0  0  0  0  0  0  0  0
    6.5984  -15.7888   26.7144 C   0  0  0  0  0  0  0  0  0  0  0  0
    6.2495  -14.4991   26.7601 N   0  0  0  0  0  0  0  0  0  0  0  0
    6.8911  -13.7993   25.8132 C   0  0  0  0  0  0  0  0  0  0  0  0
    6.8563  -12.4528   25.4671 C   0  0  0  0  0  0  0  0  0  0  0  0
    7.6455  -12.0459   24.4217 C   0  0  0  0  0  0  0  0  0  0  0  0
    8.4494  -12.9400   23.7316 C   0  0  0  0  0  0  0  0  0  0  0  0
    8.4776  -14.2597   24.0752 C   0  0  0  0  0  0  0  0  0  0  0  0
    7.6955  -14.7222   25.1307 C   0  0  0  0  0  0  0  0  0  0  0  0
    8.5265  -18.2796   23.1802 C   0  0  0  0  0  0  0  0  0  0  0  0
    8.9694  -19.4338   23.1864 O   0  0  0  0  0  0  0  0  0  0  0  0
    6.4263  -14.1271   18.8264 N   0  0  0  0  0  0  0  0  0  0  0  0
    7.6423  -13.9191   18.1443 C   0  0  0  0  0  0  0  0  0  0  0  0
    8.0167  -12.7745   17.6860 N   0  0  0  0  0  0  0  0  0  0  0  0
    8.5048  -15.0368   17.9441 N   0  0  0  0  0  0  0  0  0  0  0  0
    8.2226  -16.2691   18.6521 C   0  0  0  0  0  0  0  0  0  0  0  0
    8.7061  -16.1260   20.0742 C   0  0  0  0  0  0  0  0  0  0  0  0
   10.0435  -16.7347   20.2233 C   0  0  0  0  0  0  0  0  0  0  0  0
   10.1602  -17.6042   21.4473 C   0  0  2  0  0  0  0  0  0  0  0  0
    8.9923  -17.2920   22.3202 N   0  0  0  0  0  0  0  0  0  0  0  0
   11.3255  -17.4064   22.2812 C   0  0  0  0  0  0  0  0  0  0  0  0
   12.4810  -17.6421   21.7354 O   0  0  0  0  0  0  0  0  0  0  0  0
    8.9155  -12.6241   17.2018 N   0  0  0  0  0  0  0  0  0  0  0  0
   11.2833  -16.9816   23.6105 C   0  0  1  0  0  0  0  0  0  0  0  0
   12.5525  -16.7147   24.3339 C   0  0  0  0  0  0  0  0  0  0  0  0
   12.2728  -15.5031   25.1515 C   0  0  0  0  0  0  0  0  0  0  0  0
   11.6665  -15.7297   26.4643 C   0  0  0  0  0  0  0  0  0  0  0  0
   11.8677  -16.8373   27.2707 N   0  0  0  0  0  0  0  0  0  0  0  0
   11.1306  -16.7219   28.3739 C   0  0  0  0  0  0  0  0  0  0  0  0
   10.4204  -15.5559   28.3516 C   0  0  0  0  0  0  0  0  0  0  0  0
    9.5364  -14.9781   29.2436 C   0  0  0  0  0  0  0  0  0  0  0  0
    8.9760  -13.7568   28.9431 C   0  0  0  0  0  0  0  0  0  0  0  0
    9.2951  -13.1187   27.7637 C   0  0  0  0  0  0  0  0  0  0  0  0
   10.1761  -13.7166   26.8953 C   0  0  0  0  0  0  0  0  0  0  0  0
   10.7673  -14.9563   27.1614 C   0  0  0  0  0  0  0  0  0  0  0  0
   12.9259  -17.9311   25.0495 O   0  0  0  0  0  0  0  0  0  0  0  0
   13.9762  -17.9725   25.7212 O   0  0  0  0  0  0  0  0  0  0  0  0
  2  1  1  1
  2  3  1  0
  3  4  1  0
  4  5  2  0
  6  5  1  0
  7  6  1  0
  8  7  2  0
  9  8  1  0
 10 11  1  0
 10  9  2  0
 11 12  2  0
 12  7  1  0
 12  4  1  0
 13  2  1  0
 13 14  2  0
 15 16  1  0
 16 18  1  0
 17 16  2  0
 18 19  1  0
 19 20  1  0
 20 21  1  0
 22 21  1  6
 22 23  1  0
 22 24  1  0
 23 13  1  0
 24 25  2  0
 26 24  1  0
 26 27  1  0
 27 38  1  0
 27 28  1  6
 29 28  1  0
 30 29  2  0
 31 30  1  0
 32 31  1  0
 32 37  2  0
 33 32  1  0
 34 33  2  0
 34 35  1  0
 35 36  2  0
 36 37  1  0
 37 29  1  0
 38 40  1  0
 39 38  2  0
M  END
$$$$
