WRW.pdb
     RDKit          3D

 40 43  0  0  1  0  0  0  0  0999 V2000
    6.2580  -18.0913   23.9555 N   0  0  0  0  0  0  0  0  0  0  0  0
    7.2549  -17.2720   23.3192 C   0  0  1  0  0  0  0  0  0  0  0  0
    7.9660  -16.3510   24.3209 C   0  0  0  0  0  0  0  0  0  0  0  0
    7.1683  -15.1399   24.5817 C   0  0  0  0  0  0  0  0  0  0  0  0
    6.2433  -14.9676   25.6233 C   0  0  0  0  0  0  0  0  0  0  0  0
    5.7277  -13.7361   25.5551 N   0  0  0  0  0  0  0  0  0  0  0  0
    6.2505  -13.0583   24.5229 C   0  0  0  0  0  0  0  0  0  0  0  0
    6.0302  -11.7697   24.0487 C   0  0  0  0  0  0  0  0  0  0  0  0
    6.7360  -11.3716   22.9421 C   0  0  0  0  0  0  0  0  0  0  0  0
    7.6364  -12.2190   22.3151 C   0  0  0  0  0  0  0  0  0  0  0  0
    7.8467  -13.4823   22.7845 C   0  0  0  0  0  0  0  0  0  0  0  0
    7.1554  -13.9333   23.9063 C   0  0  0  0  0  0  0  0  0  0  0  0
    8.3661  -18.1371   22.7757 C   0  0  0  0  0  0  0  0  0  0  0  0
    8.5437  -19.2491   23.2859 O   0  0  0  0  0  0  0  0  0  0  0  0
    9.7528  -18.7518   14.4239 N   0  0  0  0  0  0  0  0  0  0  0  0
   10.4470  -18.0838   15.4530 C   0  0  0  0  0  0  0  0  0  0  0  0
   11.2835  -17.1262   15.2445 N   0  0  0  0  0  0  0  0  0  0  0  0
   10.2168  -18.4925   16.7995 N   0  0  0  0  0  0  0  0  0  0  0  0
   10.9241  -17.8103   17.8643 C   0  0  0  0  0  0  0  0  0  0  0  0
   10.4470  -18.3607   19.1857 C   0  0  0  0  0  0  0  0  0  0  0  0
   11.0832  -17.6331   20.3024 C   0  0  0  0  0  0  0  0  0  0  0  0
   10.5703  -18.0626   21.6516 C   0  0  2  0  0  0  0  0  0  0  0  0
    9.1397  -17.6493   21.7291 N   0  0  0  0  0  0  0  0  0  0  0  0
   11.2031  -17.4713   22.8102 C   0  0  0  0  0  0  0  0  0  0  0  0
   11.0759  -16.1860   22.9529 O   0  0  0  0  0  0  0  0  0  0  0  0
   11.9270  -16.7680   15.9674 N   0  0  0  0  0  0  0  0  0  0  0  0
   11.9249  -18.1864   23.7679 C   0  0  1  0  0  0  0  0  0  0  0  0
   12.3655  -17.5048   25.0115 C   0  0  0  0  0  0  0  0  0  0  0  0
   11.3081  -17.8216   26.0098 C   0  0  0  0  0  0  0  0  0  0  0  0
   10.5110  -16.6934   26.4936 C   0  0  0  0  0  0  0  0  0  0  0  0
    9.3387  -16.2250   25.9246 N   0  0  0  0  0  0  0  0  0  0  0  0
    8.9074  -15.1657   26.6070 C   0  0  0  0  0  0  0  0  0  0  0  0
    9.7562  -14.8875   27.6397 C   0  0  0  0  0  0  0  0  0  0  0  0
    9.7495  -13.9177   28.6249 C   0  0  0  0  0  0  0  0  0  0  0  0
   10.7596  -13.8991   29.5604 C   0  0  0  0  0  0  0  0  0  0  0  0
   11.7663  -14.8394   29.5129 C   0  0  0  0  0  0  0  0  0  0  0  0
   11.7481  -15.7913   28.5222 C   0  0  0  0  0  0  0  0  0  0  0  0
   10.7415  -15.8455   27.5522 C   0  0  0  0  0  0  0  0  0  0  0  0
   13.7224  -17.9515   25.3120 O   0  0  0  0  0  0  0  0  0  0  0  0
   14.2134  -18.9292   24.7129 O   0  0  0  0  0  0  0  0  0  0  0  0
  2  1  1  1
  2  3  1  0
  3  4  1  0
  4  5  2  0
  6  5  1  0
  7  6  1  0
  8  7  2  0
  9  8  1  0
 10 11  1  0
 10  9  2  0
 11 12  2  0
 12  7  1  0
 12  4  1  0
 13  2  1  0
 13 14  2  0
 15 16  1  0
 16 18  1  0
 17 16  2  0
 18 19  1  0
 19 20  1  0
 20 21  1  0
 22 21  1  6
 22 23  1  0
 22 24  1  0
 23 13  1  0
 24 25  2  0
 26 24  1  0
 26 27  1  0
 27 38  1  0
 27 28  1  1
 29 28  1  0
 30 29  2  0
 31 30  1  0
 32 31  1  0
 32 37  2  0
 33 32  1  0
 34 33  2  0
 34 35  1  0
 35 36  2  0
 36 37  1  0
 37 29  1  0
 38 40  1  0
 39 38  2  0
M  END
$$$$
