PNK.pdb
     RDKit          3D

 25 25  0  0  1  0  0  0  0  0999 V2000
    7.6510  -14.6241   19.0110 N   0  0  0  0  0  0  0  0  0  0  0  0
    7.9597  -13.3095   19.5323 C   0  0  0  0  0  0  0  0  0  0  0  0
    8.8761  -12.6226   18.5655 C   0  0  0  0  0  0  0  0  0  0  0  0
    9.0573  -13.6291   17.4795 C   0  0  0  0  0  0  0  0  0  0  0  0
    8.8068  -14.9290   18.1982 C   0  0  1  0  0  0  0  0  0  0  0  0
    9.9059  -15.3567   19.0668 C   0  0  0  0  0  0  0  0  0  0  0  0
   10.9787  -15.7601   18.5778 O   0  0  0  0  0  0  0  0  0  0  0  0
   13.3742  -14.3333   18.7690 N   0  0  0  0  0  0  0  0  0  0  0  0
   12.9523  -15.1056   19.8646 C   0  0  0  0  0  0  0  0  0  0  0  0
   13.3186  -16.3360   19.8901 O   0  0  0  0  0  0  0  0  0  0  0  0
   12.1343  -14.6702   20.9956 C   0  0  0  0  0  0  0  0  0  0  0  0
   10.9700  -15.5651   21.3258 C   0  0  2  0  0  0  0  0  0  0  0  0
    9.8295  -15.3427   20.4937 N   0  0  0  0  0  0  0  0  0  0  0  0
   10.6650  -15.3930   22.7824 C   0  0  0  0  0  0  0  0  0  0  0  0
   11.5754  -15.5351   23.6499 O   0  0  0  0  0  0  0  0  0  0  0  0
    9.3328  -15.0687   23.1468 N   0  0  0  0  0  0  0  0  0  0  0  0
    8.9729  -14.8094   24.5456 C   0  0  1  0  0  0  0  0  0  0  0  0
    7.5901  -14.2103   24.5486 C   0  0  0  0  0  0  0  0  0  0  0  0
    7.0430  -13.9071   25.9005 C   0  0  0  0  0  0  0  0  0  0  0  0
    6.4629  -12.5208   26.0022 C   0  0  0  0  0  0  0  0  0  0  0  0
    5.9368  -12.2183   27.3786 C   0  0  0  0  0  0  0  0  0  0  0  0
    5.4072  -10.8993   27.5192 N   0  0  0  0  0  0  0  0  0  0  0  0
    9.0740  -16.0518   25.3455 C   0  0  0  0  0  0  0  0  0  0  0  0
    9.1347  -15.9786   26.5939 O   0  0  0  0  0  0  0  0  0  0  0  0
    9.1045  -17.3072   24.7591 O   0  0  0  0  0  0  0  0  0  0  0  0
  1  2  1  0
  2  3  1  0
  4  3  1  0
  5  1  1  0
  5  4  1  0
  5  6  1  1
  7  6  2  0
  8  9  1  0
  9 11  1  0
 10  9  2  0
 12 11  1  6
 12 13  1  0
 13  6  1  0
 14 12  1  0
 14 15  2  0
 16 14  1  0
 17 16  1  0
 17 18  1  6
 19 18  1  0
 19 20  1  0
 21 22  1  0
 21 20  1  0
 23 17  1  0
 24 23  2  0
 25 23  1  0
M  END
$$$$
