PNK.pdb
     RDKit          3D

 25 25  0  0  1  0  0  0  0  0999 V2000
    7.7697  -18.4404   20.2203 N   0  0  0  0  0  0  0  0  0  0  0  0
    6.8517  -17.8291   19.2829 C   0  0  0  0  0  0  0  0  0  0  0  0
    7.5524  -17.6798   17.9666 C   0  0  0  0  0  0  0  0  0  0  0  0
    8.9092  -18.2429   18.2264 C   0  0  0  0  0  0  0  0  0  0  0  0
    9.0631  -18.0434   19.7115 C   0  0  1  0  0  0  0  0  0  0  0  0
    9.3309  -16.6587   20.1071 C   0  0  0  0  0  0  0  0  0  0  0  0
   10.3138  -16.0474   19.6455 O   0  0  0  0  0  0  0  0  0  0  0  0
    7.4161  -12.6268   18.9919 N   0  0  0  0  0  0  0  0  0  0  0  0
    7.0551  -13.5344   20.0022 C   0  0  0  0  0  0  0  0  0  0  0  0
    6.1029  -14.3550   19.7400 O   0  0  0  0  0  0  0  0  0  0  0  0
    7.6420  -13.6585   21.3357 C   0  0  0  0  0  0  0  0  0  0  0  0
    8.8144  -14.5972   21.4345 C   0  0  2  0  0  0  0  0  0  0  0  0
    8.5095  -15.9313   21.0227 N   0  0  0  0  0  0  0  0  0  0  0  0
    9.3317  -14.5299   22.8389 C   0  0  0  0  0  0  0  0  0  0  0  0
    9.6400  -13.4169   23.3566 O   0  0  0  0  0  0  0  0  0  0  0  0
    9.4608  -15.7468   23.5566 N   0  0  0  0  0  0  0  0  0  0  0  0
   10.1621  -15.7945   24.8449 C   0  0  1  0  0  0  0  0  0  0  0  0
    9.1466  -16.1671   25.8941 C   0  0  0  0  0  0  0  0  0  0  0  0
    9.6953  -16.3141   27.2710 C   0  0  0  0  0  0  0  0  0  0  0  0
    9.7093  -15.0187   28.0393 C   0  0  0  0  0  0  0  0  0  0  0  0
   10.2842  -15.1766   29.4205 C   0  0  0  0  0  0  0  0  0  0  0  0
   10.2593  -13.9791   30.1986 N   0  0  0  0  0  0  0  0  0  0  0  0
   11.3056  -16.7334   24.7778 C   0  0  0  0  0  0  0  0  0  0  0  0
   12.1523  -16.7412   25.7001 O   0  0  0  0  0  0  0  0  0  0  0  0
   11.4771  -17.6140   23.7215 O   0  0  0  0  0  0  0  0  0  0  0  0
  1  2  1  0
  2  3  1  0
  4  3  1  0
  5  1  1  0
  5  4  1  0
  5  6  1  6
  7  6  2  0
  8  9  1  0
  9 11  1  0
 10  9  2  0
 12 11  1  1
 12 13  1  0
 13  6  1  0
 14 12  1  0
 14 15  2  0
 16 14  1  0
 17 16  1  0
 17 18  1  1
 19 18  1  0
 19 20  1  0
 21 22  1  0
 21 20  1  0
 23 17  1  0
 24 23  2  0
 25 23  1  0
M  END
$$$$
