PNK.pdb
     RDKit          3D

 25 25  0  0  1  0  0  0  0  0999 V2000
    9.1486  -14.2604   17.6215 N   0  0  0  0  0  0  0  0  0  0  0  0
    7.7227  -14.4020   17.4168 C   0  0  0  0  0  0  0  0  0  0  0  0
    7.0245  -13.3441   18.2164 C   0  0  0  0  0  0  0  0  0  0  0  0
    8.1426  -12.6080   18.8749 C   0  0  0  0  0  0  0  0  0  0  0  0
    9.2282  -13.6509   18.9298 C   0  0  1  0  0  0  0  0  0  0  0  0
    9.0223  -14.6792   19.9524 C   0  0  0  0  0  0  0  0  0  0  0  0
    8.4099  -14.4120   21.0043 O   0  0  0  0  0  0  0  0  0  0  0  0
    9.6959  -19.1421   18.0869 N   0  0  0  0  0  0  0  0  0  0  0  0
    9.1818  -18.8778   19.3678 C   0  0  0  0  0  0  0  0  0  0  0  0
    7.9393  -19.1349   19.5651 O   0  0  0  0  0  0  0  0  0  0  0  0
    9.9021  -18.3374   20.5198 C   0  0  0  0  0  0  0  0  0  0  0  0
    9.5154  -16.9383   20.9178 C   0  0  2  0  0  0  0  0  0  0  0  0
    9.4943  -16.0217   19.8216 N   0  0  0  0  0  0  0  0  0  0  0  0
   10.4409  -16.5069   22.0140 C   0  0  0  0  0  0  0  0  0  0  0  0
   11.5866  -16.0432   21.7414 O   0  0  0  0  0  0  0  0  0  0  0  0
    9.9889  -16.6367   23.3525 N   0  0  0  0  0  0  0  0  0  0  0  0
   10.8348  -16.2276   24.4797 C   0  0  1  0  0  0  0  0  0  0  0  0
    9.9331  -15.6021   25.5125 C   0  0  0  0  0  0  0  0  0  0  0  0
   10.6070  -15.2290   26.7873 C   0  0  0  0  0  0  0  0  0  0  0  0
    9.6626  -14.6352   27.7993 C   0  0  0  0  0  0  0  0  0  0  0  0
   10.3611  -14.2325   29.0693 C   0  0  0  0  0  0  0  0  0  0  0  0
    9.4805  -13.7607   30.0901 N   0  0  0  0  0  0  0  0  0  0  0  0
   11.6035  -17.3831   24.9969 C   0  0  0  0  0  0  0  0  0  0  0  0
   12.6919  -17.1871   25.5839 O   0  0  0  0  0  0  0  0  0  0  0  0
   11.1599  -18.6883   24.8547 O   0  0  0  0  0  0  0  0  0  0  0  0
  1  2  1  0
  2  3  1  0
  4  3  1  0
  5  1  1  0
  5  4  1  0
  5  6  1  1
  7  6  2  0
  8  9  1  0
  9 11  1  0
 10  9  2  0
 12 11  1  6
 12 13  1  0
 13  6  1  0
 14 12  1  0
 14 15  2  0
 16 14  1  0
 17 16  1  0
 17 18  1  1
 19 18  1  0
 19 20  1  0
 21 22  1  0
 21 20  1  0
 23 17  1  0
 24 23  2  0
 25 23  1  0
M  END
$$$$
