PNK.pdb
     RDKit          3D

 25 25  0  0  1  0  0  0  0  0999 V2000
    9.2366  -14.5752   18.7537 N   0  0  0  0  0  0  0  0  0  0  0  0
    8.0059  -14.8242   18.0336 C   0  0  0  0  0  0  0  0  0  0  0  0
    7.1004  -13.6456   18.2265 C   0  0  0  0  0  0  0  0  0  0  0  0
    7.8979  -12.7296   19.0928 C   0  0  0  0  0  0  0  0  0  0  0  0
    8.8176  -13.6825   19.8106 C   0  0  1  0  0  0  0  0  0  0  0  0
    8.1693  -14.4610   20.8685 C   0  0  0  0  0  0  0  0  0  0  0  0
    7.1896  -13.9987   21.4846 O   0  0  0  0  0  0  0  0  0  0  0  0
    6.1171  -19.1247   23.4382 N   0  0  0  0  0  0  0  0  0  0  0  0
    7.4503  -18.6922   23.3364 C   0  0  0  0  0  0  0  0  0  0  0  0
    8.2334  -18.9716   24.3150 O   0  0  0  0  0  0  0  0  0  0  0  0
    8.0620  -17.9516   22.2340 C   0  0  0  0  0  0  0  0  0  0  0  0
    8.0464  -16.4539   22.3824 C   0  0  2  0  0  0  0  0  0  0  0  0
    8.6002  -15.7665   21.2585 N   0  0  0  0  0  0  0  0  0  0  0  0
    8.7430  -16.1183   23.6656 C   0  0  0  0  0  0  0  0  0  0  0  0
   10.0071  -16.1022   23.7244 O   0  0  0  0  0  0  0  0  0  0  0  0
    7.9406  -15.8232   24.7978 N   0  0  0  0  0  0  0  0  0  0  0  0
    8.5466  -15.3916   26.0627 C   0  0  1  0  0  0  0  0  0  0  0  0
    7.5179  -14.5685   26.7942 C   0  0  0  0  0  0  0  0  0  0  0  0
    7.3927  -13.1611   26.3227 C   0  0  0  0  0  0  0  0  0  0  0  0
    6.3414  -12.3826   27.0693 C   0  0  0  0  0  0  0  0  0  0  0  0
    6.2434  -10.9561   26.6018 C   0  0  0  0  0  0  0  0  0  0  0  0
    5.3248  -10.1620   27.3540 N   0  0  0  0  0  0  0  0  0  0  0  0
    9.0179  -16.5626   26.8376 C   0  0  0  0  0  0  0  0  0  0  0  0
    8.5981  -17.7053   26.5452 O   0  0  0  0  0  0  0  0  0  0  0  0
    9.9160  -16.4413   27.8861 O   0  0  0  0  0  0  0  0  0  0  0  0
  1  2  1  0
  2  3  1  0
  4  3  1  0
  5  1  1  0
  5  4  1  0
  5  6  1  1
  7  6  2  0
  8  9  1  0
  9 11  1  0
 10  9  2  0
 12 11  1  6
 12 13  1  0
 13  6  1  0
 14 12  1  0
 14 15  2  0
 16 14  1  0
 17 16  1  0
 17 18  1  1
 19 18  1  0
 19 20  1  0
 21 22  1  0
 21 20  1  0
 23 17  1  0
 24 23  2  0
 25 23  1  0
M  END
$$$$
