PNK.pdb
     RDKit          3D

 25 25  0  0  1  0  0  0  0  0999 V2000
    8.2735  -15.1210   18.4305 N   0  0  0  0  0  0  0  0  0  0  0  0
    7.0662  -14.3735   18.1496 C   0  0  0  0  0  0  0  0  0  0  0  0
    7.3594  -12.9161   18.3397 C   0  0  0  0  0  0  0  0  0  0  0  0
    8.7962  -12.8976   18.7408 C   0  0  0  0  0  0  0  0  0  0  0  0
    8.9783  -14.2612   19.3543 C   0  0  1  0  0  0  0  0  0  0  0  0
    8.3895  -14.4034   20.6880 C   0  0  0  0  0  0  0  0  0  0  0  0
    8.8371  -13.7504   21.6503 O   0  0  0  0  0  0  0  0  0  0  0  0
    5.4316  -18.7560   22.7676 N   0  0  0  0  0  0  0  0  0  0  0  0
    5.6245  -17.6309   21.9479 C   0  0  0  0  0  0  0  0  0  0  0  0
    5.9696  -17.8455   20.7298 O   0  0  0  0  0  0  0  0  0  0  0  0
    5.4774  -16.2248   22.3207 C   0  0  0  0  0  0  0  0  0  0  0  0
    6.7469  -15.4169   22.2859 C   0  0  2  0  0  0  0  0  0  0  0  0
    7.2930  -15.2745   20.9729 N   0  0  0  0  0  0  0  0  0  0  0  0
    7.7096  -16.0440   23.2473 C   0  0  0  0  0  0  0  0  0  0  0  0
    8.7476  -16.6318   22.8246 O   0  0  0  0  0  0  0  0  0  0  0  0
    7.4160  -15.9545   24.6324 N   0  0  0  0  0  0  0  0  0  0  0  0
    8.3506  -16.4714   25.6388 C   0  0  1  0  0  0  0  0  0  0  0  0
    8.6499  -15.3440   26.5929 C   0  0  0  0  0  0  0  0  0  0  0  0
    9.5732  -15.6966   27.7073 C   0  0  0  0  0  0  0  0  0  0  0  0
    9.8408  -14.5416   28.6364 C   0  0  0  0  0  0  0  0  0  0  0  0
   10.7809  -14.9083   29.7521 C   0  0  0  0  0  0  0  0  0  0  0  0
   11.1180  -13.8156   30.6080 N   0  0  0  0  0  0  0  0  0  0  0  0
    7.7853  -17.6673   26.3050 C   0  0  0  0  0  0  0  0  0  0  0  0
    6.5431  -17.8145   26.3583 O   0  0  0  0  0  0  0  0  0  0  0  0
    8.5871  -18.6414   26.8785 O   0  0  0  0  0  0  0  0  0  0  0  0
  1  2  1  0
  2  3  1  0
  4  3  1  0
  5  1  1  0
  5  4  1  0
  5  6  1  1
  7  6  2  0
  8  9  1  0
  9 11  1  0
 10  9  2  0
 12 11  1  6
 12 13  1  0
 13  6  1  0
 14 12  1  0
 14 15  2  0
 16 14  1  0
 17 16  1  0
 17 18  1  1
 19 18  1  0
 19 20  1  0
 21 22  1  0
 21 20  1  0
 23 17  1  0
 24 23  2  0
 25 23  1  0
M  END
$$$$
