PNK.pdb
     RDKit          3D

 25 25  0  0  1  0  0  0  0  0999 V2000
    8.6105  -14.2869   18.0399 N   0  0  0  0  0  0  0  0  0  0  0  0
    7.1882  -14.2262   18.3021 C   0  0  0  0  0  0  0  0  0  0  0  0
    6.9408  -13.1458   19.3109 C   0  0  0  0  0  0  0  0  0  0  0  0
    8.3046  -12.6109   19.5925 C   0  0  0  0  0  0  0  0  0  0  0  0
    9.1870  -13.7878   19.2679 C   0  0  1  0  0  0  0  0  0  0  0  0
    9.1657  -14.8506   20.2757 C   0  0  0  0  0  0  0  0  0  0  0  0
    8.3052  -14.8510   21.1770 O   0  0  0  0  0  0  0  0  0  0  0  0
   10.3658  -18.8778   18.4706 N   0  0  0  0  0  0  0  0  0  0  0  0
    9.9465  -18.8276   19.8110 C   0  0  0  0  0  0  0  0  0  0  0  0
    8.8131  -19.3622   20.0910 O   0  0  0  0  0  0  0  0  0  0  0  0
   10.6561  -18.2311   20.9417 C   0  0  0  0  0  0  0  0  0  0  0  0
   10.1581  -16.8760   21.3673 C   0  0  2  0  0  0  0  0  0  0  0  0
   10.1015  -15.9304   20.2972 N   0  0  0  0  0  0  0  0  0  0  0  0
   11.0188  -16.4129   22.5027 C   0  0  0  0  0  0  0  0  0  0  0  0
   12.1340  -15.8582   22.2779 O   0  0  0  0  0  0  0  0  0  0  0  0
   10.5412  -16.6177   23.8228 N   0  0  0  0  0  0  0  0  0  0  0  0
   11.3287  -16.1941   24.9864 C   0  0  1  0  0  0  0  0  0  0  0  0
   10.3548  -15.8046   26.0684 C   0  0  0  0  0  0  0  0  0  0  0  0
   10.9817  -15.3918   27.3550 C   0  0  0  0  0  0  0  0  0  0  0  0
    9.9821  -14.8770   28.3572 C   0  0  0  0  0  0  0  0  0  0  0  0
   10.6385  -14.3522   29.6049 C   0  0  0  0  0  0  0  0  0  0  0  0
    9.7219  -13.8137   30.5588 N   0  0  0  0  0  0  0  0  0  0  0  0
   12.2627  -17.2671   25.3984 C   0  0  0  0  0  0  0  0  0  0  0  0
   11.9121  -18.4644   25.2929 O   0  0  0  0  0  0  0  0  0  0  0  0
   13.5247  -16.9944   25.9022 O   0  0  0  0  0  0  0  0  0  0  0  0
  1  2  1  0
  2  3  1  0
  4  3  1  0
  5  1  1  0
  5  4  1  0
  5  6  1  1
  7  6  2  0
  8  9  1  0
  9 11  1  0
 10  9  2  0
 12 11  1  6
 12 13  1  0
 13  6  1  0
 14 12  1  0
 14 15  2  0
 16 14  1  0
 17 16  1  0
 17 18  1  1
 19 18  1  0
 19 20  1  0
 21 22  1  0
 21 20  1  0
 23 17  1  0
 24 23  2  0
 25 23  1  0
M  END
$$$$
