REV.pdb
     RDKit          3D

 28 27  0  0  1  0  0  0  0  0999 V2000
   20.7498  -21.4964   -9.4037 N   0  0  0  0  0  0  0  0  0  0  0  0
   20.6116  -21.2793  -10.7996 C   0  0  0  0  0  0  0  0  0  0  0  0
   19.4625  -20.9341  -11.2551 N   0  0  0  0  0  0  0  0  0  0  0  0
   21.7199  -21.4406  -11.6726 N   0  0  0  0  0  0  0  0  0  0  0  0
   23.0674  -21.5738  -11.1929 C   0  0  0  0  0  0  0  0  0  0  0  0
   23.6627  -20.2894  -10.7288 C   0  0  0  0  0  0  0  0  0  0  0  0
   25.1179  -20.2935  -10.4406 C   0  0  0  0  0  0  0  0  0  0  0  0
   25.9869  -21.0082  -11.4131 C   0  0  2  0  0  0  0  0  0  0  0  0
   27.0129  -21.7736  -10.7825 N   0  0  0  0  0  0  0  0  0  0  0  0
   26.5009  -20.1240  -12.4888 C   0  0  0  0  0  0  0  0  0  0  0  0
   27.3208  -19.2259  -12.1788 O   0  0  0  0  0  0  0  0  0  0  0  0
   19.3399  -20.8170  -12.2782 N   0  0  0  0  0  0  0  0  0  0  0  0
   26.1183  -20.2346  -13.8541 C   0  0  2  0  0  0  0  0  0  0  0  0
   26.6559  -19.3788  -14.8920 C   0  0  0  0  0  0  0  0  0  0  0  0
   27.3716  -20.1450  -15.9674 C   0  0  0  0  0  0  0  0  0  0  0  0
   27.8636  -19.2767  -17.0934 C   0  0  0  0  0  0  0  0  0  0  0  0
   28.5295  -20.1527  -18.0893 O   0  0  0  0  0  0  0  0  0  0  0  0
   29.0728  -19.6800  -19.1236 C   0  0  0  0  0  0  0  0  0  0  0  0
   25.4974  -18.6782  -15.5530 O   0  0  0  0  0  0  0  0  0  0  0  0
   24.4041  -19.2786  -15.7310 O   0  0  0  0  0  0  0  0  0  0  0  0
   28.5871  -21.5295  -17.9329 C   0  0  0  0  0  0  0  0  0  0  0  0
   23.0278  -14.7429  -16.6899 C   0  0  2  0  0  0  0  0  0  0  0  0
   23.8231  -15.6507  -15.7835 C   0  0  0  0  0  0  0  0  0  0  0  0
   22.9685  -16.2103  -14.6955 C   0  0  1  0  0  0  0  0  0  0  0  0
   24.4696  -16.7171  -16.6347 N   0  0  0  0  0  0  0  0  0  0  0  0
   25.5888  -17.3396  -15.9934 C   0  0  0  0  0  0  0  0  0  0  0  0
   24.8579  -16.0871  -17.9356 O   0  0  0  0  0  0  0  0  0  0  0  0
   23.8620  -15.9435  -18.8880 O   0  0  0  0  0  0  0  0  0  0  0  0
  2  1  1  0
  2  4  1  0
  3  2  2  0
  5  4  1  0
  6  5  1  0
  7  6  1  0
  8  7  1  0
  8  9  1  1
 10 11  2  0
 10  8  1  0
 12 10  1  0
 13 12  1  0
 14 15  1  0
 13 14  1  6
 15 16  1  0
 16 17  2  0
 16 20  1  0
 18 13  1  0
 18 19  2  0
 22 21  1  1
 23 22  1  0
 24 22  1  0
 24 25  1  1
 25 18  1  0
 26 24  1  0
 27 26  1  0
 28 26  2  0
M  END
$$$$
