REV.pdb
     RDKit          3D

 28 27  0  0  1  0  0  0  0  0999 V2000
   25.0858  -31.8951   -8.3675 N   0  0  0  0  0  0  0  0  0  0  0  0
   24.8804  -32.8311   -9.4146 C   0  0  0  0  0  0  0  0  0  0  0  0
   25.8483  -33.6084   -9.7401 N   0  0  0  0  0  0  0  0  0  0  0  0
   23.6320  -32.9056  -10.0871 N   0  0  0  0  0  0  0  0  0  0  0  0
   22.5198  -32.0629   -9.7460 C   0  0  0  0  0  0  0  0  0  0  0  0
   21.5080  -32.7344   -8.8831 C   0  0  0  0  0  0  0  0  0  0  0  0
   20.2685  -31.9734   -8.5912 C   0  0  0  0  0  0  0  0  0  0  0  0
   20.3075  -31.0636   -7.4154 C   0  0  2  0  0  0  0  0  0  0  0  0
   20.4592  -31.7604   -6.1794 N   0  0  0  0  0  0  0  0  0  0  0  0
   19.1869  -30.0905   -7.3989 C   0  0  0  0  0  0  0  0  0  0  0  0
   18.7987  -29.6126   -8.4925 O   0  0  0  0  0  0  0  0  0  0  0  0
   25.6969  -34.3205  -10.4787 N   0  0  0  0  0  0  0  0  0  0  0  0
   18.5250  -29.6662   -6.2137 C   0  0  2  0  0  0  0  0  0  0  0  0
   17.4058  -28.7466   -6.2259 C   0  0  0  0  0  0  0  0  0  0  0  0
   16.7810  -28.5702   -4.8715 C   0  0  0  0  0  0  0  0  0  0  0  0
   15.5946  -27.6447   -4.8764 C   0  0  0  0  0  0  0  0  0  0  0  0
   15.0819  -27.5507   -3.4869 O   0  0  0  0  0  0  0  0  0  0  0  0
   14.1125  -26.8014   -3.1917 C   0  0  0  0  0  0  0  0  0  0  0  0
   17.9273  -27.3966   -6.6447 O   0  0  0  0  0  0  0  0  0  0  0  0
   18.8003  -26.8058   -5.9544 O   0  0  0  0  0  0  0  0  0  0  0  0
   15.6410  -28.2795   -2.4478 C   0  0  0  0  0  0  0  0  0  0  0  0
   19.6959  -26.3326   -9.7201 C   0  0  2  0  0  0  0  0  0  0  0  0
   18.4887  -25.4332   -9.6105 C   0  0  0  0  0  0  0  0  0  0  0  0
   17.4379  -25.8177  -10.5981 C   0  0  2  0  0  0  0  0  0  0  0  0
   18.0002  -25.4725   -8.1824 N   0  0  0  0  0  0  0  0  0  0  0  0
   17.4656  -26.7482   -7.8111 C   0  0  0  0  0  0  0  0  0  0  0  0
   16.9903  -24.3804   -8.0172 O   0  0  0  0  0  0  0  0  0  0  0  0
   15.7063  -24.7587   -7.6596 O   0  0  0  0  0  0  0  0  0  0  0  0
  2  1  1  0
  2  4  1  0
  3  2  2  0
  5  4  1  0
  6  5  1  0
  7  6  1  0
  8  7  1  0
  8  9  1  1
 10 11  2  0
 10  8  1  0
 12 10  1  0
 13 12  1  0
 14 15  1  0
 13 14  1  1
 15 16  1  0
 16 17  2  0
 16 20  1  0
 18 13  1  0
 18 19  2  0
 22 21  1  6
 23 22  1  0
 24 22  1  0
 24 25  1  1
 25 18  1  0
 26 24  1  0
 27 26  1  0
 28 26  2  0
M  END
$$$$
