REV.pdb
     RDKit          3D

 28 27  0  0  1  0  0  0  0  0999 V2000
   19.2723  -27.2688   -1.9233 N   0  0  0  0  0  0  0  0  0  0  0  0
   17.8540  -27.2966   -1.8754 C   0  0  0  0  0  0  0  0  0  0  0  0
   17.2829  -28.1855   -1.1468 N   0  0  0  0  0  0  0  0  0  0  0  0
   17.0841  -26.3621   -2.6174 N   0  0  0  0  0  0  0  0  0  0  0  0
   17.5912  -25.7000   -3.7870 C   0  0  0  0  0  0  0  0  0  0  0  0
   17.9495  -26.6344   -4.8906 C   0  0  0  0  0  0  0  0  0  0  0  0
   18.3636  -26.0215   -6.1766 C   0  0  0  0  0  0  0  0  0  0  0  0
   17.3003  -25.3399   -6.9617 C   0  0  2  0  0  0  0  0  0  0  0  0
   15.9892  -25.5969   -6.4604 N   0  0  0  0  0  0  0  0  0  0  0  0
   17.4190  -25.5743   -8.4225 C   0  0  0  0  0  0  0  0  0  0  0  0
   17.2512  -26.7412   -8.8527 O   0  0  0  0  0  0  0  0  0  0  0  0
   16.2474  -28.2426   -1.1397 N   0  0  0  0  0  0  0  0  0  0  0  0
   17.7124  -24.5518   -9.3665 C   0  0  1  0  0  0  0  0  0  0  0  0
   17.7550  -24.7906  -10.7947 C   0  0  0  0  0  0  0  0  0  0  0  0
   17.6255  -23.5301  -11.6010 C   0  0  0  0  0  0  0  0  0  0  0  0
   16.2446  -22.9337  -11.5604 C   0  0  0  0  0  0  0  0  0  0  0  0
   16.2637  -21.6812  -12.3564 O   0  0  0  0  0  0  0  0  0  0  0  0
   17.1822  -21.4413  -13.1852 C   0  0  0  0  0  0  0  0  0  0  0  0
   19.1029  -25.3799  -11.1201 O   0  0  0  0  0  0  0  0  0  0  0  0
   20.1423  -24.9521  -10.5508 O   0  0  0  0  0  0  0  0  0  0  0  0
   15.2761  -20.7159  -12.2288 C   0  0  0  0  0  0  0  0  0  0  0  0
   20.5618  -28.2447  -10.1380 C   0  0  2  0  0  0  0  0  0  0  0  0
   20.6347  -28.4018  -11.6374 C   0  0  0  0  0  0  0  0  0  0  0  0
   19.5901  -29.3457  -12.1325 C   0  0  2  0  0  0  0  0  0  0  0  0
   20.5345  -27.0300  -12.2601 N   0  0  0  0  0  0  0  0  0  0  0  0
   19.2536  -26.4205  -12.0627 C   0  0  0  0  0  0  0  0  0  0  0  0
   20.8643  -27.1653  -13.7137 O   0  0  0  0  0  0  0  0  0  0  0  0
   19.8538  -26.8810  -14.6179 O   0  0  0  0  0  0  0  0  0  0  0  0
  2  1  1  0
  2  4  1  0
  3  2  2  0
  5  4  1  0
  6  5  1  0
  7  6  1  0
  8  7  1  0
  8  9  1  1
 10 11  2  0
 10  8  1  0
 12 10  1  0
 13 12  1  0
 14 15  1  0
 13 14  1  6
 15 16  1  0
 16 17  2  0
 16 20  1  0
 18 13  1  0
 18 19  2  0
 22 21  1  1
 23 22  1  0
 24 22  1  0
 24 25  1  6
 25 18  1  0
 26 24  1  0
 27 26  1  0
 28 26  2  0
M  END
$$$$
