REV.pdb
     RDKit          3D

 28 27  0  0  1  0  0  0  0  0999 V2000
   19.0737  -15.3102  -17.0896 N   0  0  0  0  0  0  0  0  0  0  0  0
   17.9123  -15.6081  -17.8493 C   0  0  0  0  0  0  0  0  0  0  0  0
   17.8871  -16.6968  -18.5285 N   0  0  0  0  0  0  0  0  0  0  0  0
   16.8033  -14.7213  -17.8579 N   0  0  0  0  0  0  0  0  0  0  0  0
   16.8313  -13.4438  -17.2016 C   0  0  0  0  0  0  0  0  0  0  0  0
   17.5667  -12.3984  -17.9670 C   0  0  0  0  0  0  0  0  0  0  0  0
   17.6227  -11.0444  -17.3635 C   0  0  0  0  0  0  0  0  0  0  0  0
   18.6476  -10.8283  -16.3078 C   0  0  2  0  0  0  0  0  0  0  0  0
   18.6619  -11.8653  -15.3277 N   0  0  0  0  0  0  0  0  0  0  0  0
   18.5891   -9.4694  -15.7136 C   0  0  0  0  0  0  0  0  0  0  0  0
   17.6673   -9.2155  -14.9007 O   0  0  0  0  0  0  0  0  0  0  0  0
   17.0453  -16.9207  -19.0913 N   0  0  0  0  0  0  0  0  0  0  0  0
   19.5184   -8.4349  -16.0117 C   0  0  1  0  0  0  0  0  0  0  0  0
   19.4839   -7.1385  -15.3662 C   0  0  0  0  0  0  0  0  0  0  0  0
   20.7544   -6.8184  -14.6319 C   0  0  0  0  0  0  0  0  0  0  0  0
   20.7424   -5.4625  -13.9796 C   0  0  0  0  0  0  0  0  0  0  0  0
   22.0659   -5.2495  -13.3427 O   0  0  0  0  0  0  0  0  0  0  0  0
   22.8780   -6.1990  -13.1778 C   0  0  0  0  0  0  0  0  0  0  0  0
   19.3274   -6.0956  -16.4422 O   0  0  0  0  0  0  0  0  0  0  0  0
   19.9711   -6.1885  -17.5214 O   0  0  0  0  0  0  0  0  0  0  0  0
   22.4739   -4.0005  -12.8989 C   0  0  0  0  0  0  0  0  0  0  0  0
   16.5590   -5.0775  -18.5936 C   0  0  2  0  0  0  0  0  0  0  0  0
   16.9446   -3.8355  -17.8274 C   0  0  0  0  0  0  0  0  0  0  0  0
   15.9698   -3.5520  -16.7335 C   0  0  2  0  0  0  0  0  0  0  0  0
   18.3587   -4.0102  -17.3281 N   0  0  0  0  0  0  0  0  0  0  0  0
   18.4654   -4.9880  -16.2870 C   0  0  0  0  0  0  0  0  0  0  0  0
   18.8517   -2.6699  -16.8805 O   0  0  0  0  0  0  0  0  0  0  0  0
   19.1046   -1.7302  -17.8668 O   0  0  0  0  0  0  0  0  0  0  0  0
  2  1  1  0
  2  4  1  0
  3  2  2  0
  5  4  1  0
  6  5  1  0
  7  6  1  0
  8  7  1  0
  8  9  1  1
 10 11  2  0
 10  8  1  0
 12 10  1  0
 13 12  1  0
 14 15  1  0
 13 14  1  1
 15 16  1  0
 16 17  2  0
 16 20  1  0
 18 13  1  0
 18 19  2  0
 22 21  1  6
 23 22  1  0
 24 22  1  0
 24 25  1  6
 25 18  1  0
 26 24  1  0
 27 26  1  0
 28 26  2  0
M  END
$$$$
