REV.pdb
     RDKit          3D

 28 27  0  0  1  0  0  0  0  0999 V2000
   30.9285  -21.3955  -10.7798 N   0  0  0  0  0  0  0  0  0  0  0  0
   30.0946  -21.2287   -9.6433 C   0  0  0  0  0  0  0  0  0  0  0  0
   30.6426  -20.9490   -8.5170 N   0  0  0  0  0  0  0  0  0  0  0  0
   28.6855  -21.3686   -9.7501 N   0  0  0  0  0  0  0  0  0  0  0  0
   28.0472  -21.8706  -10.9350 C   0  0  0  0  0  0  0  0  0  0  0  0
   27.7792  -20.8198  -11.9564 C   0  0  0  0  0  0  0  0  0  0  0  0
   26.3629  -20.6132  -12.3464 C   0  0  0  0  0  0  0  0  0  0  0  0
   25.5810  -21.8325  -12.6835 C   0  0  2  0  0  0  0  0  0  0  0  0
   26.3676  -22.8372  -13.3222 N   0  0  0  0  0  0  0  0  0  0  0  0
   24.3232  -21.5307  -13.4116 C   0  0  0  0  0  0  0  0  0  0  0  0
   24.3397  -21.5657  -14.6660 O   0  0  0  0  0  0  0  0  0  0  0  0
   30.0564  -20.9298   -7.6618 N   0  0  0  0  0  0  0  0  0  0  0  0
   23.0969  -21.2032  -12.7701 C   0  0  2  0  0  0  0  0  0  0  0  0
   21.8724  -20.9478  -13.5007 C   0  0  0  0  0  0  0  0  0  0  0  0
   20.6400  -21.2016  -12.6807 C   0  0  0  0  0  0  0  0  0  0  0  0
   19.3603  -20.9448  -13.4294 C   0  0  0  0  0  0  0  0  0  0  0  0
   18.2296  -21.1835  -12.4983 O   0  0  0  0  0  0  0  0  0  0  0  0
   17.4989  -20.2397  -12.0938 C   0  0  0  0  0  0  0  0  0  0  0  0
   21.8566  -19.4875  -13.8713 O   0  0  0  0  0  0  0  0  0  0  0  0
   22.6905  -18.6901  -13.3649 O   0  0  0  0  0  0  0  0  0  0  0  0
   17.9214  -22.4514  -12.0284 C   0  0  0  0  0  0  0  0  0  0  0  0
   23.4902  -18.1498  -15.4334 C   0  0  2  0  0  0  0  0  0  0  0  0
   22.3375  -17.5213  -16.1780 C   0  0  0  0  0  0  0  0  0  0  0  0
   22.1735  -18.1293  -17.5310 C   0  0  2  0  0  0  0  0  0  0  0  0
   21.1004  -17.6441  -15.3211 N   0  0  0  0  0  0  0  0  0  0  0  0
   20.9202  -18.9611  -14.7878 C   0  0  0  0  0  0  0  0  0  0  0  0
   19.9292  -17.2181  -16.1498 O   0  0  0  0  0  0  0  0  0  0  0  0
   18.9699  -18.1790  -16.4254 O   0  0  0  0  0  0  0  0  0  0  0  0
  2  1  1  0
  2  4  1  0
  3  2  2  0
  5  4  1  0
  6  5  1  0
  7  6  1  0
  8  7  1  0
  8  9  1  6
 10 11  2  0
 10  8  1  0
 12 10  1  0
 13 12  1  0
 14 15  1  0
 13 14  1  1
 15 16  1  0
 16 17  2  0
 16 20  1  0
 18 13  1  0
 18 19  2  0
 22 21  1  6
 23 22  1  0
 24 22  1  0
 24 25  1  1
 25 18  1  0
 26 24  1  0
 27 26  1  0
 28 26  2  0
M  END
$$$$
