REV.pdb
     RDKit          3D

 28 27  0  0  1  0  0  0  0  0999 V2000
   27.3291  -21.1715  -10.3526 N   0  0  0  0  0  0  0  0  0  0  0  0
   28.6548  -21.1083  -10.8561 C   0  0  0  0  0  0  0  0  0  0  0  0
   29.5241  -21.9340  -10.3983 N   0  0  0  0  0  0  0  0  0  0  0  0
   29.0112  -20.1526  -11.8441 N   0  0  0  0  0  0  0  0  0  0  0  0
   28.0675  -19.6394  -12.7978 C   0  0  0  0  0  0  0  0  0  0  0  0
   27.8043  -20.5682  -13.9324 C   0  0  0  0  0  0  0  0  0  0  0  0
   26.4541  -20.5095  -14.5441 C   0  0  0  0  0  0  0  0  0  0  0  0
   25.3167  -20.2491  -13.6221 C   0  0  2  0  0  0  0  0  0  0  0  0
   25.5322  -20.7741  -12.3129 N   0  0  0  0  0  0  0  0  0  0  0  0
   24.0051  -20.6413  -14.1956 C   0  0  0  0  0  0  0  0  0  0  0  0
   23.8671  -20.6056  -15.4425 O   0  0  0  0  0  0  0  0  0  0  0  0
   30.5232  -21.8019  -10.6430 N   0  0  0  0  0  0  0  0  0  0  0  0
   22.8920  -21.0564  -13.4136 C   0  0  1  0  0  0  0  0  0  0  0  0
   21.6360  -21.4797  -13.9982 C   0  0  0  0  0  0  0  0  0  0  0  0
   20.7331  -22.1614  -13.0103 C   0  0  0  0  0  0  0  0  0  0  0  0
   19.4446  -22.6489  -13.6155 C   0  0  0  0  0  0  0  0  0  0  0  0
   18.6520  -23.2986  -12.5420 O   0  0  0  0  0  0  0  0  0  0  0  0
   18.8195  -24.5110  -12.2414 C   0  0  0  0  0  0  0  0  0  0  0  0
   20.9124  -20.2457  -14.4711 O   0  0  0  0  0  0  0  0  0  0  0  0
   20.9126  -19.1970  -13.7727 O   0  0  0  0  0  0  0  0  0  0  0  0
   17.6914  -22.6075  -11.8188 C   0  0  0  0  0  0  0  0  0  0  0  0
   21.0959  -18.4651  -17.8937 C   0  0  2  0  0  0  0  0  0  0  0  0
   19.6470  -18.7530  -17.5838 C   0  0  0  0  0  0  0  0  0  0  0  0
   19.1261  -19.8686  -18.4272 C   0  0  2  0  0  0  0  0  0  0  0  0
   19.5272  -19.0258  -16.1036 N   0  0  0  0  0  0  0  0  0  0  0  0
   20.2149  -20.2150  -15.6985 C   0  0  0  0  0  0  0  0  0  0  0  0
   18.0697  -19.0889  -15.7694 O   0  0  0  0  0  0  0  0  0  0  0  0
   17.3484  -17.9104  -15.8718 O   0  0  0  0  0  0  0  0  0  0  0  0
  2  1  1  0
  2  4  1  0
  3  2  2  0
  5  4  1  0
  6  5  1  0
  7  6  1  0
  8  7  1  0
  8  9  1  1
 10 11  2  0
 10  8  1  0
 12 10  1  0
 13 12  1  0
 14 15  1  0
 13 14  1  6
 15 16  1  0
 16 17  2  0
 16 20  1  0
 18 13  1  0
 18 19  2  0
 22 21  1  6
 23 22  1  0
 24 22  1  0
 24 25  1  1
 25 18  1  0
 26 24  1  0
 27 26  1  0
 28 26  2  0
M  END
$$$$
