REV.pdb
     RDKit          3D

 28 27  0  0  1  0  0  0  0  0999 V2000
   21.4359  -28.8301  -11.5754 N   0  0  0  0  0  0  0  0  0  0  0  0
   20.1153  -28.3176  -11.6666 C   0  0  0  0  0  0  0  0  0  0  0  0
   19.6131  -28.1220  -12.8313 N   0  0  0  0  0  0  0  0  0  0  0  0
   19.3667  -28.0276  -10.4953 N   0  0  0  0  0  0  0  0  0  0  0  0
   18.2016  -27.1875  -10.5121 C   0  0  0  0  0  0  0  0  0  0  0  0
   18.3871  -25.8994   -9.7869 C   0  0  0  0  0  0  0  0  0  0  0  0
   18.2967  -25.9472   -8.3070 C   0  0  0  0  0  0  0  0  0  0  0  0
   18.3984  -24.6472   -7.5918 C   0  0  2  0  0  0  0  0  0  0  0  0
   19.5723  -23.9136   -7.9382 N   0  0  0  0  0  0  0  0  0  0  0  0
   18.2068  -24.7765   -6.1256 C   0  0  0  0  0  0  0  0  0  0  0  0
   19.2262  -24.8590   -5.3982 O   0  0  0  0  0  0  0  0  0  0  0  0
   18.6745  -27.6880  -12.9095 N   0  0  0  0  0  0  0  0  0  0  0  0
   16.9329  -24.8126   -5.4944 C   0  0  2  0  0  0  0  0  0  0  0  0
   16.7708  -24.8683   -4.0559 C   0  0  0  0  0  0  0  0  0  0  0  0
   15.5313  -24.1657   -3.5809 C   0  0  0  0  0  0  0  0  0  0  0  0
   15.3815  -24.1643   -2.0837 C   0  0  0  0  0  0  0  0  0  0  0  0
   14.1409  -23.4219   -1.7487 O   0  0  0  0  0  0  0  0  0  0  0  0
   13.4010  -22.9366   -2.6461 C   0  0  0  0  0  0  0  0  0  0  0  0
   16.6269  -26.3169   -3.6674 O   0  0  0  0  0  0  0  0  0  0  0  0
   16.1348  -27.1498   -4.4747 O   0  0  0  0  0  0  0  0  0  0  0  0
   13.7350  -23.2256   -0.4372 C   0  0  0  0  0  0  0  0  0  0  0  0
   17.4212  -27.8481    0.2769 C   0  0  2  0  0  0  0  0  0  0  0  0
   17.8436  -28.6034   -0.9598 C   0  0  0  0  0  0  0  0  0  0  0  0
   17.8420  -30.0762   -0.7193 C   0  0  1  0  0  0  0  0  0  0  0  0
   16.9398  -28.1892   -2.0962 N   0  0  0  0  0  0  0  0  0  0  0  0
   17.0321  -26.7929   -2.4012 C   0  0  0  0  0  0  0  0  0  0  0  0
   15.5427  -28.5847   -1.7333 O   0  0  0  0  0  0  0  0  0  0  0  0
   15.1487  -29.8730   -2.0566 O   0  0  0  0  0  0  0  0  0  0  0  0
  2  1  1  0
  2  4  1  0
  3  2  2  0
  5  4  1  0
  6  5  1  0
  7  6  1  0
  8  7  1  0
  8  9  1  1
 10 11  2  0
 10  8  1  0
 12 10  1  0
 13 12  1  0
 14 15  1  0
 13 14  1  6
 15 16  1  0
 16 17  2  0
 16 20  1  0
 18 13  1  0
 18 19  2  0
 22 21  1  1
 23 22  1  0
 24 22  1  0
 24 25  1  6
 25 18  1  0
 26 24  1  0
 27 26  1  0
 28 26  2  0
M  END
$$$$
