REV.pdb
     RDKit          3D

 28 27  0  0  1  0  0  0  0  0999 V2000
   19.4035  -23.6291   -8.0522 N   0  0  0  0  0  0  0  0  0  0  0  0
   19.4406  -22.6490   -9.0784 C   0  0  0  0  0  0  0  0  0  0  0  0
   18.3296  -22.2272   -9.5632 N   0  0  0  0  0  0  0  0  0  0  0  0
   20.6791  -22.1467   -9.5580 N   0  0  0  0  0  0  0  0  0  0  0  0
   21.9024  -22.2715   -8.8153 C   0  0  0  0  0  0  0  0  0  0  0  0
   22.4708  -20.9643   -8.3822 C   0  0  0  0  0  0  0  0  0  0  0  0
   23.2035  -20.1820   -9.4078 C   0  0  0  0  0  0  0  0  0  0  0  0
   24.3094  -20.8819  -10.1140 C   0  0  2  0  0  0  0  0  0  0  0  0
   25.5512  -20.8038   -9.4154 N   0  0  0  0  0  0  0  0  0  0  0  0
   24.4219  -20.4933  -11.5421 C   0  0  0  0  0  0  0  0  0  0  0  0
   24.9254  -19.3769  -11.8163 O   0  0  0  0  0  0  0  0  0  0  0  0
   17.4409  -22.6324   -9.2145 N   0  0  0  0  0  0  0  0  0  0  0  0
   23.9915  -21.3134  -12.6214 C   0  0  2  0  0  0  0  0  0  0  0  0
   24.1058  -20.9101  -14.0080 C   0  0  0  0  0  0  0  0  0  0  0  0
   24.6530  -21.9969  -14.8885 C   0  0  0  0  0  0  0  0  0  0  0  0
   26.1374  -22.1948  -14.7415 C   0  0  0  0  0  0  0  0  0  0  0  0
   26.8166  -21.2965  -15.7081 O   0  0  0  0  0  0  0  0  0  0  0  0
   26.1632  -20.5858  -16.5181 C   0  0  0  0  0  0  0  0  0  0  0  0
   22.7197  -20.5988  -14.5098 O   0  0  0  0  0  0  0  0  0  0  0  0
   21.7098  -21.1142  -13.9603 O   0  0  0  0  0  0  0  0  0  0  0  0
   28.1984  -21.1943  -15.7684 C   0  0  0  0  0  0  0  0  0  0  0  0
   21.6768  -17.0093  -15.8305 C   0  0  2  0  0  0  0  0  0  0  0  0
   20.6945  -18.0791  -15.4195 C   0  0  0  0  0  0  0  0  0  0  0  0
   19.3053  -17.7237  -15.8331 C   0  0  1  0  0  0  0  0  0  0  0  0
   21.1635  -19.3946  -15.9931 N   0  0  0  0  0  0  0  0  0  0  0  0
   22.4996  -19.7292  -15.6004 C   0  0  0  0  0  0  0  0  0  0  0  0
   21.0282  -19.3157  -17.4815 O   0  0  0  0  0  0  0  0  0  0  0  0
   19.7456  -19.3794  -18.0016 O   0  0  0  0  0  0  0  0  0  0  0  0
  2  1  1  0
  2  4  1  0
  3  2  2  0
  5  4  1  0
  6  5  1  0
  7  6  1  0
  8  7  1  0
  8  9  1  1
 10 11  2  0
 10  8  1  0
 12 10  1  0
 13 12  1  0
 14 15  1  0
 13 14  1  6
 15 16  1  0
 16 17  2  0
 16 20  1  0
 18 13  1  0
 18 19  2  0
 22 21  1  1
 23 22  1  0
 24 22  1  0
 24 25  1  1
 25 18  1  0
 26 24  1  0
 27 26  1  0
 28 26  2  0
M  END
$$$$
