NAF.pdb
     RDKit          3D

 25 25  0  0  1  0  0  0  0  0999 V2000
   28.1035  -23.5238  -15.7751 N   0  0  0  0  0  0  0  0  0  0  0  0
   27.1878  -22.6312  -16.3789 C   0  0  0  0  0  0  0  0  0  0  0  0
   27.5813  -21.8648  -17.2929 O   0  0  0  0  0  0  0  0  0  0  0  0
   25.7788  -22.6493  -15.8882 C   0  0  0  0  0  0  0  0  0  0  0  0
   25.7487  -23.6113  -14.7156 C   0  0  2  0  0  0  0  0  0  0  0  0
   25.2821  -24.8897  -15.2217 N   0  0  0  0  0  0  0  0  0  0  0  0
   24.8849  -23.0736  -13.6602 C   0  0  0  0  0  0  0  0  0  0  0  0
   23.6382  -23.2494  -13.6009 O   0  0  0  0  0  0  0  0  0  0  0  0
   25.5812  -21.0550  -10.5171 C   0  0  0  0  0  0  0  0  0  0  0  0
   24.7067  -21.6524  -11.5915 C   0  0  2  0  0  0  0  0  0  0  0  0
   25.4803  -22.2999  -12.6272 N   0  0  0  0  0  0  0  0  0  0  0  0
   23.8744  -20.5817  -12.1849 C   0  0  0  0  0  0  0  0  0  0  0  0
   23.0054  -19.9589  -11.5196 O   0  0  0  0  0  0  0  0  0  0  0  0
   24.0197  -20.2033  -13.5472 N   0  0  0  0  0  0  0  0  0  0  0  0
   23.2739  -19.1083  -14.1358 C   0  0  1  0  0  0  0  0  0  0  0  0
   24.1491  -17.8901  -14.3443 C   0  0  0  0  0  0  0  0  0  0  0  0
   25.5364  -18.2355  -14.6569 C   0  0  0  0  0  0  0  0  0  0  0  0
   25.9785  -18.5453  -15.9257 C   0  0  0  0  0  0  0  0  0  0  0  0
   27.2978  -18.8645  -16.1836 C   0  0  0  0  0  0  0  0  0  0  0  0
   28.2112  -18.8823  -15.1781 C   0  0  0  0  0  0  0  0  0  0  0  0
   27.7971  -18.5759  -13.8947 C   0  0  0  0  0  0  0  0  0  0  0  0
   26.4675  -18.2556  -13.6426 C   0  0  0  0  0  0  0  0  0  0  0  0
   22.7380  -19.5098  -15.4598 C   0  0  0  0  0  0  0  0  0  0  0  0
   21.9598  -18.7066  -16.2478 O   0  0  0  0  0  0  0  0  0  0  0  0
   23.0096  -20.6722  -15.9059 O   0  0  0  0  0  0  0  0  0  0  0  0
  1  2  1  0
  2  3  2  0
  4  5  1  0
  4  2  1  0
  5  7  1  0
  5  6  1  6
  7  8  2  0
 10  9  1  1
 11 10  1  0
 11  7  1  0
 12 10  1  0
 13 12  2  0
 14 12  1  0
 15 14  1  0
 15 23  1  0
 15 16  1  6
 17 16  1  0
 18 17  2  0
 19 18  1  0
 20 21  1  0
 20 19  2  0
 21 22  2  0
 22 17  1  0
 23 24  1  0
 25 23  2  0
M  END
$$$$
