NAF.pdb
     RDKit          3D

 25 25  0  0  1  0  0  0  0  0999 V2000
   24.9063  -24.9393  -15.1089 N   0  0  0  0  0  0  0  0  0  0  0  0
   24.4272  -23.6191  -14.9430 C   0  0  0  0  0  0  0  0  0  0  0  0
   23.2495  -23.3410  -15.2795 O   0  0  0  0  0  0  0  0  0  0  0  0
   25.3642  -22.6108  -14.3670 C   0  0  0  0  0  0  0  0  0  0  0  0
   24.6670  -21.2683  -14.4803 C   0  0  2  0  0  0  0  0  0  0  0  0
   25.2609  -20.5705  -15.6066 N   0  0  0  0  0  0  0  0  0  0  0  0
   24.8110  -20.5313  -13.2211 C   0  0  0  0  0  0  0  0  0  0  0  0
   25.8543  -19.9178  -12.8697 O   0  0  0  0  0  0  0  0  0  0  0  0
   22.4418  -19.8574  -10.3262 C   0  0  0  0  0  0  0  0  0  0  0  0
   23.7854  -19.9043  -11.0107 C   0  0  2  0  0  0  0  0  0  0  0  0
   23.7069  -20.4980  -12.3267 N   0  0  0  0  0  0  0  0  0  0  0  0
   24.7272  -20.6766  -10.1694 C   0  0  0  0  0  0  0  0  0  0  0  0
   24.8254  -21.9296  -10.2467 O   0  0  0  0  0  0  0  0  0  0  0  0
   25.5729  -20.0324   -9.2261 N   0  0  0  0  0  0  0  0  0  0  0  0
   26.5243  -20.7590   -8.4084 C   0  0  1  0  0  0  0  0  0  0  0  0
   27.7988  -19.9669   -8.2043 C   0  0  0  0  0  0  0  0  0  0  0  0
   28.0743  -19.6896   -6.7941 C   0  0  0  0  0  0  0  0  0  0  0  0
   28.7482  -20.5592   -5.9627 C   0  0  0  0  0  0  0  0  0  0  0  0
   28.9924  -20.2621   -4.6357 C   0  0  0  0  0  0  0  0  0  0  0  0
   28.5685  -19.0859   -4.1041 C   0  0  0  0  0  0  0  0  0  0  0  0
   27.8898  -18.1936   -4.9138 C   0  0  0  0  0  0  0  0  0  0  0  0
   27.6476  -18.4995   -6.2486 C   0  0  0  0  0  0  0  0  0  0  0  0
   25.9438  -21.0310   -7.0705 C   0  0  0  0  0  0  0  0  0  0  0  0
   26.3572  -22.0416   -6.2461 O   0  0  0  0  0  0  0  0  0  0  0  0
   25.0000  -20.2865   -6.6471 O   0  0  0  0  0  0  0  0  0  0  0  0
  1  2  1  0
  2  3  2  0
  4  5  1  0
  4  2  1  0
  5  7  1  0
  5  6  1  6
  7  8  2  0
 10  9  1  1
 11 10  1  0
 11  7  1  0
 12 10  1  0
 13 12  2  0
 14 12  1  0
 15 14  1  0
 15 23  1  0
 15 16  1  1
 17 16  1  0
 18 17  2  0
 19 18  1  0
 20 21  1  0
 20 19  2  0
 21 22  2  0
 22 17  1  0
 23 24  1  0
 25 23  2  0
M  END
$$$$
