NAF.pdb
     RDKit          3D

 25 25  0  0  1  0  0  0  0  0999 V2000
   14.4504  -24.7956   -1.2383 N   0  0  0  0  0  0  0  0  0  0  0  0
   15.1230  -23.6378   -1.6932 C   0  0  0  0  0  0  0  0  0  0  0  0
   15.5355  -23.5870   -2.8785 O   0  0  0  0  0  0  0  0  0  0  0  0
   15.3089  -22.5199   -0.7227 C   0  0  0  0  0  0  0  0  0  0  0  0
   14.0279  -22.4407    0.0859 C   0  0  2  0  0  0  0  0  0  0  0  0
   12.9621  -22.0839   -0.8332 N   0  0  0  0  0  0  0  0  0  0  0  0
   14.1888  -21.4651    1.1684 C   0  0  0  0  0  0  0  0  0  0  0  0
   14.0340  -20.2213    1.0357 O   0  0  0  0  0  0  0  0  0  0  0  0
   14.9240  -21.8052    4.8787 C   0  0  0  0  0  0  0  0  0  0  0  0
   14.7949  -21.0557    3.5759 C   0  0  2  0  0  0  0  0  0  0  0  0
   14.5432  -21.9402    2.4602 N   0  0  0  0  0  0  0  0  0  0  0  0
   16.0389  -20.2902    3.3359 C   0  0  0  0  0  0  0  0  0  0  0  0
   16.8775  -20.6278    2.4593 O   0  0  0  0  0  0  0  0  0  0  0  0
   16.3470  -19.1266    4.0918 N   0  0  0  0  0  0  0  0  0  0  0  0
   17.5146  -18.3100    3.8246 C   0  0  1  0  0  0  0  0  0  0  0  0
   17.4357  -17.6596    2.4592 C   0  0  0  0  0  0  0  0  0  0  0  0
   18.6201  -16.8606    2.1425 C   0  0  0  0  0  0  0  0  0  0  0  0
   18.7179  -15.5082    2.3936 C   0  0  0  0  0  0  0  0  0  0  0  0
   19.8542  -14.7863    2.0829 C   0  0  0  0  0  0  0  0  0  0  0  0
   20.9243  -15.3984    1.5121 C   0  0  0  0  0  0  0  0  0  0  0  0
   20.8555  -16.7542    1.2484 C   0  0  0  0  0  0  0  0  0  0  0  0
   19.7084  -17.4744    1.5639 C   0  0  0  0  0  0  0  0  0  0  0  0
   17.6218  -17.2277    4.8336 C   0  0  0  0  0  0  0  0  0  0  0  0
   18.7839  -16.8829    5.4680 O   0  0  0  0  0  0  0  0  0  0  0  0
   16.5756  -16.5679    5.1406 O   0  0  0  0  0  0  0  0  0  0  0  0
  1  2  1  0
  2  3  2  0
  4  5  1  0
  4  2  1  0
  5  7  1  0
  5  6  1  6
  7  8  2  0
 10  9  1  1
 11 10  1  0
 11  7  1  0
 12 10  1  0
 13 12  2  0
 14 12  1  0
 15 14  1  0
 15 23  1  0
 15 16  1  6
 17 16  1  0
 18 17  2  0
 19 18  1  0
 20 21  1  0
 20 19  2  0
 21 22  2  0
 22 17  1  0
 23 24  1  0
 25 23  2  0
M  END
$$$$
