NAF.pdb
     RDKit          3D

 25 25  0  0  1  0  0  0  0  0999 V2000
   29.7237  -27.4965  -19.2599 N   0  0  0  0  0  0  0  0  0  0  0  0
   28.3335  -27.3553  -19.4769 C   0  0  0  0  0  0  0  0  0  0  0  0
   27.8451  -27.6735  -20.5896 O   0  0  0  0  0  0  0  0  0  0  0  0
   27.5082  -26.8265  -18.3519 C   0  0  0  0  0  0  0  0  0  0  0  0
   28.4737  -26.5215  -17.2224 C   0  0  2  0  0  0  0  0  0  0  0  0
   28.4478  -27.6569  -16.3178 N   0  0  0  0  0  0  0  0  0  0  0  0
   28.0841  -25.2694  -16.5668 C   0  0  0  0  0  0  0  0  0  0  0  0
   27.2591  -25.1887  -15.6173 O   0  0  0  0  0  0  0  0  0  0  0  0
   29.6650  -21.8932  -16.4398 C   0  0  0  0  0  0  0  0  0  0  0  0
   28.4536  -22.7891  -16.3613 C   0  0  2  0  0  0  0  0  0  0  0  0
   28.6688  -24.0567  -17.0225 N   0  0  0  0  0  0  0  0  0  0  0  0
   27.3005  -22.0939  -16.9764 C   0  0  0  0  0  0  0  0  0  0  0  0
   26.8822  -20.9834  -16.5550 O   0  0  0  0  0  0  0  0  0  0  0  0
   26.6055  -22.6537  -18.0825 N   0  0  0  0  0  0  0  0  0  0  0  0
   25.4803  -21.9912  -18.7124 C   0  0  1  0  0  0  0  0  0  0  0  0
   25.9187  -21.1674  -19.9051 C   0  0  0  0  0  0  0  0  0  0  0  0
   24.7936  -20.5731  -20.6280 C   0  0  0  0  0  0  0  0  0  0  0  0
   24.1445  -21.1946  -21.6739 C   0  0  0  0  0  0  0  0  0  0  0  0
   23.0833  -20.6033  -22.3319 C   0  0  0  0  0  0  0  0  0  0  0  0
   22.6423  -19.3730  -21.9609 C   0  0  0  0  0  0  0  0  0  0  0  0
   23.2738  -18.7250  -20.9150 C   0  0  0  0  0  0  0  0  0  0  0  0
   24.3414  -19.3264  -20.2574 C   0  0  0  0  0  0  0  0  0  0  0  0
   24.5014  -22.9964  -19.1945 C   0  0  0  0  0  0  0  0  0  0  0  0
   24.7760  -24.3295  -19.3331 O   0  0  0  0  0  0  0  0  0  0  0  0
   23.3265  -22.6111  -19.5035 O   0  0  0  0  0  0  0  0  0  0  0  0
  1  2  1  0
  2  3  2  0
  4  5  1  0
  4  2  1  0
  5  7  1  0
  5  6  1  1
  7  8  2  0
 10  9  1  6
 11 10  1  0
 11  7  1  0
 12 10  1  0
 13 12  2  0
 14 12  1  0
 15 14  1  0
 15 23  1  0
 15 16  1  6
 17 16  1  0
 18 17  2  0
 19 18  1  0
 20 21  1  0
 20 19  2  0
 21 22  2  0
 22 17  1  0
 23 24  1  0
 25 23  2  0
M  END
$$$$
