NAF.pdb
     RDKit          3D

 25 25  0  0  1  0  0  0  0  0999 V2000
   22.0727  -15.5330  -17.6579 N   0  0  0  0  0  0  0  0  0  0  0  0
   22.3412  -16.4450  -16.6110 C   0  0  0  0  0  0  0  0  0  0  0  0
   22.0941  -16.1155  -15.4244 O   0  0  0  0  0  0  0  0  0  0  0  0
   22.9135  -17.7725  -16.9802 C   0  0  0  0  0  0  0  0  0  0  0  0
   24.3283  -17.7931  -16.4333 C   0  0  2  0  0  0  0  0  0  0  0  0
   25.0878  -16.7999  -17.1715 N   0  0  0  0  0  0  0  0  0  0  0  0
   24.8871  -19.1421  -16.5647 C   0  0  0  0  0  0  0  0  0  0  0  0
   24.4070  -20.0436  -17.3033 O   0  0  0  0  0  0  0  0  0  0  0  0
   28.1630  -20.6553  -15.4445 C   0  0  0  0  0  0  0  0  0  0  0  0
   26.7492  -20.7250  -15.9664 C   0  0  2  0  0  0  0  0  0  0  0  0
   26.0489  -19.4693  -15.8142 N   0  0  0  0  0  0  0  0  0  0  0  0
   26.0221  -21.7934  -15.2445 C   0  0  0  0  0  0  0  0  0  0  0  0
   26.2902  -23.0137  -15.4020 O   0  0  0  0  0  0  0  0  0  0  0  0
   24.9772  -21.4877  -14.3310 N   0  0  0  0  0  0  0  0  0  0  0  0
   24.2511  -22.5118  -13.6061 C   0  0  1  0  0  0  0  0  0  0  0  0
   25.0144  -22.9710  -12.3813 C   0  0  0  0  0  0  0  0  0  0  0  0
   25.2408  -21.8935  -11.4174 C   0  0  0  0  0  0  0  0  0  0  0  0
   24.2813  -21.4451  -10.5344 C   0  0  0  0  0  0  0  0  0  0  0  0
   24.5322  -20.4260   -9.6360 C   0  0  0  0  0  0  0  0  0  0  0  0
   25.7511  -19.8273   -9.5965 C   0  0  0  0  0  0  0  0  0  0  0  0
   26.7338  -20.2558  -10.4702 C   0  0  0  0  0  0  0  0  0  0  0  0
   26.4739  -21.2822  -11.3719 C   0  0  0  0  0  0  0  0  0  0  0  0
   22.9425  -21.9827  -13.1491 C   0  0  0  0  0  0  0  0  0  0  0  0
   21.9231  -22.7624  -12.6751 O   0  0  0  0  0  0  0  0  0  0  0  0
   22.7383  -20.7255  -13.1943 O   0  0  0  0  0  0  0  0  0  0  0  0
  1  2  1  0
  2  3  2  0
  4  5  1  0
  4  2  1  0
  5  7  1  0
  5  6  1  6
  7  8  2  0
 10  9  1  1
 11 10  1  0
 11  7  1  0
 12 10  1  0
 13 12  2  0
 14 12  1  0
 15 14  1  0
 15 23  1  0
 15 16  1  1
 17 16  1  0
 18 17  2  0
 19 18  1  0
 20 21  1  0
 20 19  2  0
 21 22  2  0
 22 17  1  0
 23 24  1  0
 25 23  2  0
M  END
$$$$
