NAF.pdb
     RDKit          3D

 25 25  0  0  1  0  0  0  0  0999 V2000
   16.8995  -12.4852  -16.5179 N   0  0  0  0  0  0  0  0  0  0  0  0
   17.4183  -12.0793  -15.2666 C   0  0  0  0  0  0  0  0  0  0  0  0
   16.8831  -12.4966  -14.2096 O   0  0  0  0  0  0  0  0  0  0  0  0
   18.5942  -11.1609  -15.2706 C   0  0  0  0  0  0  0  0  0  0  0  0
   18.9215  -10.8947  -16.7277 C   0  0  2  0  0  0  0  0  0  0  0  0
   19.7972  -11.9641  -17.1726 N   0  0  0  0  0  0  0  0  0  0  0  0
   19.5367   -9.5706  -16.8599 C   0  0  0  0  0  0  0  0  0  0  0  0
   20.7391   -9.3125  -16.5836 O   0  0  0  0  0  0  0  0  0  0  0  0
   18.3078   -6.3131  -18.3632 C   0  0  0  0  0  0  0  0  0  0  0  0
   19.2667   -7.1748  -17.5797 C   0  0  2  0  0  0  0  0  0  0  0  0
   18.7346   -8.4958  -17.3306 N   0  0  0  0  0  0  0  0  0  0  0  0
   19.5717   -6.5082  -16.2936 C   0  0  0  0  0  0  0  0  0  0  0  0
   18.8418   -6.6436  -15.2765 O   0  0  0  0  0  0  0  0  0  0  0  0
   20.7145   -5.6762  -16.1463 N   0  0  0  0  0  0  0  0  0  0  0  0
   20.9936   -4.9438  -14.9267 C   0  0  1  0  0  0  0  0  0  0  0  0
   22.3770   -5.2571  -14.3960 C   0  0  0  0  0  0  0  0  0  0  0  0
   22.5105   -6.6426  -13.9441 C   0  0  0  0  0  0  0  0  0  0  0  0
   21.9478   -7.1236  -12.7808 C   0  0  0  0  0  0  0  0  0  0  0  0
   22.0932   -8.4398  -12.3870 C   0  0  0  0  0  0  0  0  0  0  0  0
   22.8062   -9.3113  -13.1471 C   0  0  0  0  0  0  0  0  0  0  0  0
   23.3824   -8.8576  -14.3196 C   0  0  0  0  0  0  0  0  0  0  0  0
   23.2318   -7.5313  -14.7097 C   0  0  0  0  0  0  0  0  0  0  0  0
   20.9292   -3.4838  -15.1825 C   0  0  0  0  0  0  0  0  0  0  0  0
   21.0171   -2.5296  -14.2060 O   0  0  0  0  0  0  0  0  0  0  0  0
   20.7830   -3.0756  -16.3808 O   0  0  0  0  0  0  0  0  0  0  0  0
  1  2  1  0
  2  3  2  0
  4  5  1  0
  4  2  1  0
  5  7  1  0
  5  6  1  1
  7  8  2  0
 10  9  1  1
 11 10  1  0
 11  7  1  0
 12 10  1  0
 13 12  2  0
 14 12  1  0
 15 14  1  0
 15 23  1  0
 15 16  1  6
 17 16  1  0
 18 17  2  0
 19 18  1  0
 20 21  1  0
 20 19  2  0
 21 22  2  0
 22 17  1  0
 23 24  1  0
 25 23  2  0
M  END
$$$$
