NAF.pdb
     RDKit          3D

 25 25  0  0  1  0  0  0  0  0999 V2000
   15.5085  -14.8599  -15.3123 N   0  0  0  0  0  0  0  0  0  0  0  0
   16.8039  -14.8504  -14.7448 C   0  0  0  0  0  0  0  0  0  0  0  0
   17.1201  -15.7329  -13.9089 O   0  0  0  0  0  0  0  0  0  0  0  0
   17.7407  -13.7730  -15.1782 C   0  0  0  0  0  0  0  0  0  0  0  0
   16.9292  -12.8246  -16.0404 C   0  0  2  0  0  0  0  0  0  0  0  0
   16.5891  -13.5375  -17.2587 N   0  0  0  0  0  0  0  0  0  0  0  0
   17.7050  -11.6075  -16.2975 C   0  0  0  0  0  0  0  0  0  0  0  0
   18.6097  -11.5099  -17.1695 O   0  0  0  0  0  0  0  0  0  0  0  0
   17.4901   -8.0697  -14.9391 C   0  0  0  0  0  0  0  0  0  0  0  0
   18.1416   -9.2056  -15.6883 C   0  0  2  0  0  0  0  0  0  0  0  0
   17.4285  -10.4517  -15.5178 N   0  0  0  0  0  0  0  0  0  0  0  0
   19.5353   -9.3583  -15.2135 C   0  0  0  0  0  0  0  0  0  0  0  0
   19.8346  -10.0858  -14.2302 O   0  0  0  0  0  0  0  0  0  0  0  0
   20.6109   -8.6840  -15.8526 N   0  0  0  0  0  0  0  0  0  0  0  0
   21.9875   -8.8281  -15.4214 C   0  0  1  0  0  0  0  0  0  0  0  0
   22.7595   -9.7593  -16.3327 C   0  0  0  0  0  0  0  0  0  0  0  0
   24.1598   -9.9094  -15.9352 C   0  0  0  0  0  0  0  0  0  0  0  0
   24.5873  -10.7895  -14.9635 C   0  0  0  0  0  0  0  0  0  0  0  0
   25.9194  -10.9057  -14.6160 C   0  0  0  0  0  0  0  0  0  0  0  0
   26.8607  -10.1439  -15.2317 C   0  0  0  0  0  0  0  0  0  0  0  0
   26.4619   -9.2520  -16.2105 C   0  0  0  0  0  0  0  0  0  0  0  0
   25.1192   -9.1404  -16.5551 C   0  0  0  0  0  0  0  0  0  0  0  0
   22.6689   -7.5104  -15.4420 C   0  0  0  0  0  0  0  0  0  0  0  0
   23.5113   -7.0671  -14.4592 O   0  0  0  0  0  0  0  0  0  0  0  0
   22.4681   -6.7299  -16.4292 O   0  0  0  0  0  0  0  0  0  0  0  0
  1  2  1  0
  2  3  2  0
  4  5  1  0
  4  2  1  0
  5  7  1  0
  5  6  1  6
  7  8  2  0
 10  9  1  1
 11 10  1  0
 11  7  1  0
 12 10  1  0
 13 12  2  0
 14 12  1  0
 15 14  1  0
 15 23  1  0
 15 16  1  6
 17 16  1  0
 18 17  2  0
 19 18  1  0
 20 21  1  0
 20 19  2  0
 21 22  2  0
 22 17  1  0
 23 24  1  0
 25 23  2  0
M  END
$$$$
