WMA.pdb
     RDKit          3D

 28 29  0  0  1  0  0  0  0  0999 V2000
   34.8051  -29.4992  -79.4772 N   0  0  0  0  0  0  0  0  0  0  0  0
   35.8919  -28.5866  -79.5571 C   0  0  1  0  0  0  0  0  0  0  0  0
   37.0022  -28.8438  -78.5928 C   0  0  0  0  0  0  0  0  0  0  0  0
   37.2493  -30.2981  -78.5150 C   0  0  0  0  0  0  0  0  0  0  0  0
   38.4809  -30.9156  -78.2786 C   0  0  0  0  0  0  0  0  0  0  0  0
   38.3178  -32.2410  -78.2516 N   0  0  0  0  0  0  0  0  0  0  0  0
   37.0303  -32.5257  -78.4607 C   0  0  0  0  0  0  0  0  0  0  0  0
   36.3409  -33.7316  -78.5344 C   0  0  0  0  0  0  0  0  0  0  0  0
   34.9861  -33.7774  -78.7714 C   0  0  0  0  0  0  0  0  0  0  0  0
   34.3145  -32.5823  -78.9373 C   0  0  0  0  0  0  0  0  0  0  0  0
   34.9962  -31.3850  -78.8643 C   0  0  0  0  0  0  0  0  0  0  0  0
   36.3436  -31.3276  -78.6284 C   0  0  0  0  0  0  0  0  0  0  0  0
   36.3756  -28.4419  -80.9600 C   0  0  0  0  0  0  0  0  0  0  0  0
   36.0175  -29.3237  -81.7808 O   0  0  0  0  0  0  0  0  0  0  0  0
   41.4520  -27.9397  -77.8124 C   0  0  0  0  0  0  0  0  0  0  0  0
   39.8302  -27.3996  -78.4525 S   0  0  0  0  0  0  0  0  0  0  0  0
   40.1548  -26.0277  -79.6290 C   0  0  0  0  0  0  0  0  0  0  0  0
   39.3157  -26.3254  -80.8455 C   0  0  0  0  0  0  0  0  0  0  0  0
   37.8399  -26.4659  -80.5288 C   0  0  2  0  0  0  0  0  0  0  0  0
   37.1936  -27.4021  -81.4258 N   0  0  0  0  0  0  0  0  0  0  0  0
   37.1468  -25.1773  -80.4872 C   0  0  0  0  0  0  0  0  0  0  0  0
   37.6749  -24.1761  -79.9383 O   0  0  0  0  0  0  0  0  0  0  0  0
   36.6229  -22.8970  -82.1018 C   0  0  0  0  0  0  0  0  0  0  0  0
   35.4645  -23.7529  -81.6362 C   0  0  2  0  0  0  0  0  0  0  0  0
   35.8585  -24.9967  -81.0578 N   0  0  0  0  0  0  0  0  0  0  0  0
   34.5394  -23.9368  -82.7945 C   0  0  0  0  0  0  0  0  0  0  0  0
   33.3204  -24.1376  -82.5441 O   0  0  0  0  0  0  0  0  0  0  0  0
   34.9497  -23.8979  -84.1064 O   0  0  0  0  0  0  0  0  0  0  0  0
  2  1  1  6
  2  3  1  0
  2 13  1  0
  4  3  1  0
  4  5  2  0
  6  5  1  0
  7  6  1  0
  8  7  2  0
  9  8  1  0
 10  9  2  0
 10 11  1  0
 11 12  2  0
 12  7  1  0
 12  4  1  0
 13 14  2  0
 16 15  1  0
 17 18  1  0
 17 16  1  0
 19 18  1  6
 19 21  1  0
 20 19  1  0
 20 13  1  0
 21 22  2  0
 24 23  1  6
 24 26  1  0
 25 21  1  0
 25 24  1  0
 26 27  2  0
 26 28  1  0
M  END
$$$$
