WMA.pdb
     RDKit          3D

 28 29  0  0  1  0  0  0  0  0999 V2000
   28.6740  -20.7042  -15.5383 N   0  0  0  0  0  0  0  0  0  0  0  0
   27.5467  -20.0758  -14.9428 C   0  0  1  0  0  0  0  0  0  0  0  0
   26.5319  -19.5578  -15.9076 C   0  0  0  0  0  0  0  0  0  0  0  0
   27.0946  -18.3959  -16.6254 C   0  0  0  0  0  0  0  0  0  0  0  0
   27.5468  -18.3812  -17.9480 C   0  0  0  0  0  0  0  0  0  0  0  0
   27.9637  -17.1522  -18.2637 N   0  0  0  0  0  0  0  0  0  0  0  0
   27.8064  -16.3538  -17.2052 C   0  0  0  0  0  0  0  0  0  0  0  0
   28.0836  -15.0057  -17.0035 C   0  0  0  0  0  0  0  0  0  0  0  0
   27.8378  -14.3888  -15.7982 C   0  0  0  0  0  0  0  0  0  0  0  0
   27.3017  -15.1479  -14.7769 C   0  0  0  0  0  0  0  0  0  0  0  0
   27.0256  -16.4852  -14.9749 C   0  0  0  0  0  0  0  0  0  0  0  0
   27.2655  -17.1089  -16.1698 C   0  0  0  0  0  0  0  0  0  0  0  0
   26.9427  -20.9363  -13.8856 C   0  0  0  0  0  0  0  0  0  0  0  0
   26.6622  -22.1193  -14.2040 O   0  0  0  0  0  0  0  0  0  0  0  0
   25.2563  -20.8962   -7.3013 C   0  0  0  0  0  0  0  0  0  0  0  0
   26.8719  -20.3599   -7.9600 S   0  0  0  0  0  0  0  0  0  0  0  0
   26.9923  -21.0184   -9.6698 C   0  0  0  0  0  0  0  0  0  0  0  0
   25.6846  -20.6713  -10.3345 C   0  0  0  0  0  0  0  0  0  0  0  0
   25.6145  -21.1244  -11.7795 C   0  0  2  0  0  0  0  0  0  0  0  0
   26.6678  -20.5248  -12.5732 N   0  0  0  0  0  0  0  0  0  0  0  0
   24.2929  -20.9151  -12.3728 C   0  0  0  0  0  0  0  0  0  0  0  0
   23.9329  -19.7752  -12.7648 O   0  0  0  0  0  0  0  0  0  0  0  0
   21.6403  -22.9669  -13.9941 C   0  0  0  0  0  0  0  0  0  0  0  0
   22.1063  -21.7791  -13.1799 C   0  0  2  0  0  0  0  0  0  0  0  0
   23.3629  -21.9768  -12.5329 N   0  0  0  0  0  0  0  0  0  0  0  0
   21.0211  -21.4357  -12.2126 C   0  0  0  0  0  0  0  0  0  0  0  0
   21.3117  -21.4255  -10.9860 O   0  0  0  0  0  0  0  0  0  0  0  0
   19.7344  -21.1334  -12.5921 O   0  0  0  0  0  0  0  0  0  0  0  0
  2  1  1  6
  2  3  1  0
  2 13  1  0
  4  3  1  0
  4  5  2  0
  6  5  1  0
  7  6  1  0
  8  7  2  0
  9  8  1  0
 10  9  2  0
 10 11  1  0
 11 12  2  0
 12  7  1  0
 12  4  1  0
 13 14  2  0
 16 15  1  0
 17 18  1  0
 17 16  1  0
 19 18  1  1
 19 21  1  0
 20 19  1  0
 20 13  1  0
 21 22  2  0
 24 23  1  1
 24 26  1  0
 25 21  1  0
 25 24  1  0
 26 27  2  0
 26 28  1  0
M  END
$$$$
