WMA.pdb
     RDKit          3D

 28 29  0  0  1  0  0  0  0  0999 V2000
   27.8666  -20.1629  -14.5785 N   0  0  0  0  0  0  0  0  0  0  0  0
   26.7502  -19.9039  -13.7376 C   0  0  1  0  0  0  0  0  0  0  0  0
   25.4259  -20.2779  -14.3165 C   0  0  0  0  0  0  0  0  0  0  0  0
   25.1256  -19.3865  -15.4554 C   0  0  0  0  0  0  0  0  0  0  0  0
   25.9418  -19.1638  -16.5682 C   0  0  0  0  0  0  0  0  0  0  0  0
   25.3351  -18.3174  -17.4045 N   0  0  0  0  0  0  0  0  0  0  0  0
   24.1524  -17.9707  -16.8912 C   0  0  0  0  0  0  0  0  0  0  0  0
   23.1474  -17.1254  -17.3498 C   0  0  0  0  0  0  0  0  0  0  0  0
   21.9947  -16.9137  -16.6286 C   0  0  0  0  0  0  0  0  0  0  0  0
   21.8542  -17.5683  -15.4208 C   0  0  0  0  0  0  0  0  0  0  0  0
   22.8496  -18.4075  -14.9642 C   0  0  0  0  0  0  0  0  0  0  0  0
   24.0000  -18.6259  -15.6737 C   0  0  0  0  0  0  0  0  0  0  0  0
   26.9573  -20.4684  -12.3733 C   0  0  0  0  0  0  0  0  0  0  0  0
   27.2616  -21.6855  -12.2996 O   0  0  0  0  0  0  0  0  0  0  0  0
   27.2402  -19.7360   -4.5297 C   0  0  0  0  0  0  0  0  0  0  0  0
   27.3295  -18.9178   -6.1589 S   0  0  0  0  0  0  0  0  0  0  0  0
   26.7628  -20.1459   -7.4007 C   0  0  0  0  0  0  0  0  0  0  0  0
   26.9683  -19.4934   -8.7441 C   0  0  0  0  0  0  0  0  0  0  0  0
   26.5896  -20.3922   -9.9047 C   0  0  2  0  0  0  0  0  0  0  0  0
   26.8386  -19.7457  -11.1771 N   0  0  0  0  0  0  0  0  0  0  0  0
   25.2193  -20.8966   -9.8037 C   0  0  0  0  0  0  0  0  0  0  0  0
   24.8922  -21.7035   -8.8956 O   0  0  0  0  0  0  0  0  0  0  0  0
   21.8453  -19.8406  -10.4327 C   0  0  0  0  0  0  0  0  0  0  0  0
   22.8573  -20.9570  -10.5761 C   0  0  2  0  0  0  0  0  0  0  0  0
   24.2036  -20.5045  -10.7161 N   0  0  0  0  0  0  0  0  0  0  0  0
   22.4287  -21.8163  -11.7203 C   0  0  0  0  0  0  0  0  0  0  0  0
   23.2497  -21.9915  -12.6607 O   0  0  0  0  0  0  0  0  0  0  0  0
   21.1950  -22.4188  -11.7957 O   0  0  0  0  0  0  0  0  0  0  0  0
  2  1  1  6
  2  3  1  0
  2 13  1  0
  4  3  1  0
  4  5  2  0
  6  5  1  0
  7  6  1  0
  8  7  2  0
  9  8  1  0
 10  9  2  0
 10 11  1  0
 11 12  2  0
 12  7  1  0
 12  4  1  0
 13 14  2  0
 16 15  1  0
 17 18  1  0
 17 16  1  0
 19 18  1  1
 19 21  1  0
 20 19  1  0
 20 13  1  0
 21 22  2  0
 24 23  1  6
 24 26  1  0
 25 21  1  0
 25 24  1  0
 26 27  2  0
 26 28  1  0
M  END
$$$$
