WMA.pdb
     RDKit          3D

 28 29  0  0  1  0  0  0  0  0999 V2000
   25.1126  -19.3644   -9.2441 N   0  0  0  0  0  0  0  0  0  0  0  0
   26.3929  -19.9817   -9.2566 C   0  0  1  0  0  0  0  0  0  0  0  0
   26.5166  -21.1925   -8.3921 C   0  0  0  0  0  0  0  0  0  0  0  0
   26.2949  -20.8069   -6.9835 C   0  0  0  0  0  0  0  0  0  0  0  0
   25.1561  -21.0817   -6.2208 C   0  0  0  0  0  0  0  0  0  0  0  0
   25.3205  -20.6028   -4.9848 N   0  0  0  0  0  0  0  0  0  0  0  0
   26.5198  -20.0227   -4.8985 C   0  0  0  0  0  0  0  0  0  0  0  0
   27.1708  -19.3760   -3.8531 C   0  0  0  0  0  0  0  0  0  0  0  0
   28.4289  -18.8395   -4.0055 C   0  0  0  0  0  0  0  0  0  0  0  0
   29.0413  -18.9582   -5.2375 C   0  0  0  0  0  0  0  0  0  0  0  0
   28.3975  -19.5995   -6.2757 C   0  0  0  0  0  0  0  0  0  0  0  0
   27.1464  -20.1375   -6.1351 C   0  0  0  0  0  0  0  0  0  0  0  0
   26.8635  -20.2244  -10.6504 C   0  0  0  0  0  0  0  0  0  0  0  0
   26.3208  -19.5498  -11.5615 O   0  0  0  0  0  0  0  0  0  0  0  0
   32.0372  -23.3114   -9.4968 C   0  0  0  0  0  0  0  0  0  0  0  0
   32.4300  -22.0413  -10.7476 S   0  0  0  0  0  0  0  0  0  0  0  0
   30.9468  -20.9695  -10.8986 C   0  0  0  0  0  0  0  0  0  0  0  0
   30.0755  -21.6219  -11.9416 C   0  0  0  0  0  0  0  0  0  0  0  0
   28.7493  -20.9133  -12.1350 C   0  0  2  0  0  0  0  0  0  0  0  0
   27.8593  -21.1423  -11.0150 N   0  0  0  0  0  0  0  0  0  0  0  0
   28.1172  -21.2389  -13.4144 C   0  0  0  0  0  0  0  0  0  0  0  0
   27.4042  -22.2677  -13.5405 O   0  0  0  0  0  0  0  0  0  0  0  0
   27.8123  -19.6817  -16.8705 C   0  0  0  0  0  0  0  0  0  0  0  0
   27.6699  -20.7530  -15.8108 C   0  0  2  0  0  0  0  0  0  0  0  0
   28.2764  -20.4185  -14.5630 N   0  0  0  0  0  0  0  0  0  0  0  0
   28.2071  -22.0272  -16.3759 C   0  0  0  0  0  0  0  0  0  0  0  0
   29.4184  -22.2996  -16.1579 O   0  0  0  0  0  0  0  0  0  0  0  0
   27.4516  -22.9074  -17.1144 O   0  0  0  0  0  0  0  0  0  0  0  0
  2  1  1  6
  2  3  1  0
  2 13  1  0
  4  3  1  0
  4  5  2  0
  6  5  1  0
  7  6  1  0
  8  7  2  0
  9  8  1  0
 10  9  2  0
 10 11  1  0
 11 12  2  0
 12  7  1  0
 12  4  1  0
 13 14  2  0
 16 15  1  0
 17 18  1  0
 17 16  1  0
 19 18  1  1
 19 21  1  0
 20 19  1  0
 20 13  1  0
 21 22  2  0
 24 23  1  6
 24 26  1  0
 25 21  1  0
 25 24  1  0
 26 27  2  0
 26 28  1  0
M  END
$$$$
