WMA.pdb
     RDKit          3D

 28 29  0  0  1  0  0  0  0  0999 V2000
   26.1465  -35.3837   -9.4531 N   0  0  0  0  0  0  0  0  0  0  0  0
   26.2523  -34.3622   -8.4705 C   0  0  1  0  0  0  0  0  0  0  0  0
   24.9548  -33.7522   -8.0543 C   0  0  0  0  0  0  0  0  0  0  0  0
   24.3751  -33.0188   -9.1980 C   0  0  0  0  0  0  0  0  0  0  0  0
   24.0297  -33.5621  -10.4387 C   0  0  0  0  0  0  0  0  0  0  0  0
   23.5115  -32.6071  -11.2155 N   0  0  0  0  0  0  0  0  0  0  0  0
   23.5001  -31.4552  -10.5406 C   0  0  0  0  0  0  0  0  0  0  0  0
   23.0767  -30.1757  -10.8849 C   0  0  0  0  0  0  0  0  0  0  0  0
   23.1724  -29.1209  -10.0063 C   0  0  0  0  0  0  0  0  0  0  0  0
   23.7062  -29.3628   -8.7559 C   0  0  0  0  0  0  0  0  0  0  0  0
   24.1266  -30.6312   -8.4122 C   0  0  0  0  0  0  0  0  0  0  0  0
   24.0354  -31.6879   -9.2779 C   0  0  0  0  0  0  0  0  0  0  0  0
   27.0712  -34.8114   -7.3083 C   0  0  0  0  0  0  0  0  0  0  0  0
   26.8451  -35.9646   -6.8627 O   0  0  0  0  0  0  0  0  0  0  0  0
   33.5682  -34.7023   -5.2163 C   0  0  0  0  0  0  0  0  0  0  0  0
   32.7345  -33.8198   -6.5794 S   0  0  0  0  0  0  0  0  0  0  0  0
   31.0634  -34.5619   -6.7476 C   0  0  0  0  0  0  0  0  0  0  0  0
   30.2595  -34.0253   -5.5907 C   0  0  0  0  0  0  0  0  0  0  0  0
   28.8372  -34.5489   -5.5626 C   0  0  2  0  0  0  0  0  0  0  0  0
   28.0670  -34.0472   -6.6824 N   0  0  0  0  0  0  0  0  0  0  0  0
   28.1705  -34.3024   -4.2831 C   0  0  0  0  0  0  0  0  0  0  0  0
   27.7952  -33.1456   -3.9614 O   0  0  0  0  0  0  0  0  0  0  0  0
   26.5963  -36.3544   -1.5310 C   0  0  0  0  0  0  0  0  0  0  0  0
   27.2044  -35.1090   -2.1395 C   0  0  2  0  0  0  0  0  0  0  0  0
   27.9180  -35.3456   -3.3526 N   0  0  0  0  0  0  0  0  0  0  0  0
   28.0593  -34.4639   -1.0982 C   0  0  0  0  0  0  0  0  0  0  0  0
   29.3090  -34.5063   -1.2580 O   0  0  0  0  0  0  0  0  0  0  0  0
   27.5536  -33.8329    0.0140 O   0  0  0  0  0  0  0  0  0  0  0  0
  2  1  1  6
  2  3  1  0
  2 13  1  0
  4  3  1  0
  4  5  2  0
  6  5  1  0
  7  6  1  0
  8  7  2  0
  9  8  1  0
 10  9  2  0
 10 11  1  0
 11 12  2  0
 12  7  1  0
 12  4  1  0
 13 14  2  0
 16 15  1  0
 17 18  1  0
 17 16  1  0
 19 18  1  1
 19 21  1  0
 20 19  1  0
 20 13  1  0
 21 22  2  0
 24 23  1  1
 24 26  1  0
 25 21  1  0
 25 24  1  0
 26 27  2  0
 26 28  1  0
M  END
$$$$
