WMA.pdb
     RDKit          3D

 28 29  0  0  1  0  0  0  0  0999 V2000
   21.7810  -24.2407  -14.5154 N   0  0  0  0  0  0  0  0  0  0  0  0
   20.8530  -25.1253  -13.9018 C   0  0  1  0  0  0  0  0  0  0  0  0
   21.4488  -26.0853  -12.9260 C   0  0  0  0  0  0  0  0  0  0  0  0
   22.1234  -27.1717  -13.6654 C   0  0  0  0  0  0  0  0  0  0  0  0
   23.0348  -27.0160  -14.7138 C   0  0  0  0  0  0  0  0  0  0  0  0
   23.4562  -28.2164  -15.1208 N   0  0  0  0  0  0  0  0  0  0  0  0
   22.8614  -29.1590  -14.3858 C   0  0  0  0  0  0  0  0  0  0  0  0
   22.9444  -30.5474  -14.4038 C   0  0  0  0  0  0  0  0  0  0  0  0
   22.2153  -31.3272  -13.5354 C   0  0  0  0  0  0  0  0  0  0  0  0
   21.3863  -30.6926  -12.6315 C   0  0  0  0  0  0  0  0  0  0  0  0
   21.3027  -29.3156  -12.6118 C   0  0  0  0  0  0  0  0  0  0  0  0
   22.0239  -28.5301  -13.4704 C   0  0  0  0  0  0  0  0  0  0  0  0
   19.6904  -24.3831  -13.3357 C   0  0  0  0  0  0  0  0  0  0  0  0
   19.9431  -23.4761  -12.5032 O   0  0  0  0  0  0  0  0  0  0  0  0
   15.7752  -21.4724  -17.7848 C   0  0  0  0  0  0  0  0  0  0  0  0
   15.2001  -22.4377  -16.3464 S   0  0  0  0  0  0  0  0  0  0  0  0
   16.6439  -22.6358  -15.2293 C   0  0  0  0  0  0  0  0  0  0  0  0
   16.1882  -23.5650  -14.1332 C   0  0  0  0  0  0  0  0  0  0  0  0
   17.2647  -23.8390  -13.1016 C   0  0  2  0  0  0  0  0  0  0  0  0
   18.3473  -24.6214  -13.6624 N   0  0  0  0  0  0  0  0  0  0  0  0
   16.7325  -24.4369  -11.8761 C   0  0  0  0  0  0  0  0  0  0  0  0
   16.6776  -25.6859  -11.7366 O   0  0  0  0  0  0  0  0  0  0  0  0
   15.5762  -23.2696   -8.4564 C   0  0  0  0  0  0  0  0  0  0  0  0
   15.7295  -24.2369   -9.6105 C   0  0  2  0  0  0  0  0  0  0  0  0
   16.2570  -23.6448  -10.7970 N   0  0  0  0  0  0  0  0  0  0  0  0
   14.4026  -24.8822   -9.8434 C   0  0  0  0  0  0  0  0  0  0  0  0
   13.8022  -24.6147  -10.9191 O   0  0  0  0  0  0  0  0  0  0  0  0
   13.8114  -25.7447   -8.9503 O   0  0  0  0  0  0  0  0  0  0  0  0
  2  1  1  1
  2  3  1  0
  2 13  1  0
  4  3  1  0
  4  5  2  0
  6  5  1  0
  7  6  1  0
  8  7  2  0
  9  8  1  0
 10  9  2  0
 10 11  1  0
 11 12  2  0
 12  7  1  0
 12  4  1  0
 13 14  2  0
 16 15  1  0
 17 18  1  0
 17 16  1  0
 19 18  1  6
 19 21  1  0
 20 19  1  0
 20 13  1  0
 21 22  2  0
 24 23  1  1
 24 26  1  0
 25 21  1  0
 25 24  1  0
 26 27  2  0
 26 28  1  0
M  END
$$$$
