WMA.pdb
     RDKit          3D

 28 29  0  0  1  0  0  0  0  0999 V2000
   25.9671  -22.8356  -11.0028 N   0  0  0  0  0  0  0  0  0  0  0  0
   25.5775  -21.4951  -11.2702 C   0  0  1  0  0  0  0  0  0  0  0  0
   26.6546  -20.6262  -11.8301 C   0  0  0  0  0  0  0  0  0  0  0  0
   27.7939  -20.6003  -10.8902 C   0  0  0  0  0  0  0  0  0  0  0  0
   29.0935  -21.0421  -11.1545 C   0  0  0  0  0  0  0  0  0  0  0  0
   29.8606  -20.8408  -10.0798 N   0  0  0  0  0  0  0  0  0  0  0  0
   29.1227  -20.2848   -9.1160 C   0  0  0  0  0  0  0  0  0  0  0  0
   29.4288  -19.8846   -7.8194 C   0  0  0  0  0  0  0  0  0  0  0  0
   28.4805  -19.3306   -6.9902 C   0  0  0  0  0  0  0  0  0  0  0  0
   27.1982  -19.1781   -7.4797 C   0  0  0  0  0  0  0  0  0  0  0  0
   26.8926  -19.5741   -8.7655 C   0  0  0  0  0  0  0  0  0  0  0  0
   27.8281  -20.1255   -9.5993 C   0  0  0  0  0  0  0  0  0  0  0  0
   24.3258  -21.4460  -12.0788 C   0  0  0  0  0  0  0  0  0  0  0  0
   23.9122  -22.5324  -12.5566 O   0  0  0  0  0  0  0  0  0  0  0  0
   19.9782  -16.3258  -13.7612 C   0  0  0  0  0  0  0  0  0  0  0  0
   19.4455  -17.2891  -12.3052 S   0  0  0  0  0  0  0  0  0  0  0  0
   20.0111  -19.0149  -12.5754 C   0  0  0  0  0  0  0  0  0  0  0  0
   21.4956  -19.0043  -12.3134 C   0  0  0  0  0  0  0  0  0  0  0  0
   22.1648  -20.3257  -12.6358 C   0  0  2  0  0  0  0  0  0  0  0  0
   23.5829  -20.2858  -12.3419 N   0  0  0  0  0  0  0  0  0  0  0  0
   21.8999  -20.7731  -14.0041 C   0  0  0  0  0  0  0  0  0  0  0  0
   22.4224  -20.1891  -14.9883 O   0  0  0  0  0  0  0  0  0  0  0  0
   20.5940  -23.8044  -15.7524 C   0  0  0  0  0  0  0  0  0  0  0  0
   20.8056  -22.3114  -15.6212 C   0  0  2  0  0  0  0  0  0  0  0  0
   21.0493  -21.8758  -14.2842 N   0  0  0  0  0  0  0  0  0  0  0  0
   19.6253  -21.6286  -16.2311 C   0  0  0  0  0  0  0  0  0  0  0  0
   18.7552  -21.1553  -15.4515 O   0  0  0  0  0  0  0  0  0  0  0  0
   19.4447  -21.4932  -17.5876 O   0  0  0  0  0  0  0  0  0  0  0  0
  2  1  1  6
  2  3  1  0
  2 13  1  0
  4  3  1  0
  4  5  2  0
  6  5  1  0
  7  6  1  0
  8  7  2  0
  9  8  1  0
 10  9  2  0
 10 11  1  0
 11 12  2  0
 12  7  1  0
 12  4  1  0
 13 14  2  0
 16 15  1  0
 17 18  1  0
 17 16  1  0
 19 18  1  6
 19 21  1  0
 20 19  1  0
 20 13  1  0
 21 22  2  0
 24 23  1  1
 24 26  1  0
 25 21  1  0
 25 24  1  0
 26 27  2  0
 26 28  1  0
M  END
$$$$
