WMA.pdb
     RDKit          3D

 28 29  0  0  1  0  0  0  0  0999 V2000
   21.6633  -19.0214  -16.5238 N   0  0  0  0  0  0  0  0  0  0  0  0
   22.9888  -19.5101  -16.3678 C   0  0  1  0  0  0  0  0  0  0  0  0
   23.9883  -18.9325  -17.3144 C   0  0  0  0  0  0  0  0  0  0  0  0
   23.5562  -19.2038  -18.7006 C   0  0  0  0  0  0  0  0  0  0  0  0
   22.9774  -18.2850  -19.5807 C   0  0  0  0  0  0  0  0  0  0  0  0
   22.7412  -18.8783  -20.7539 N   0  0  0  0  0  0  0  0  0  0  0  0
   23.1393  -20.1509  -20.6861 C   0  0  0  0  0  0  0  0  0  0  0  0
   23.1138  -21.1875  -21.6134 C   0  0  0  0  0  0  0  0  0  0  0  0
   23.5837  -22.4441  -21.3070 C   0  0  0  0  0  0  0  0  0  0  0  0
   24.0888  -22.6581  -20.0398 C   0  0  0  0  0  0  0  0  0  0  0  0
   24.1153  -21.6313  -19.1186 C   0  0  0  0  0  0  0  0  0  0  0  0
   23.6513  -20.3772  -19.4128 C   0  0  0  0  0  0  0  0  0  0  0  0
   23.4331  -19.4268  -14.9470 C   0  0  0  0  0  0  0  0  0  0  0  0
   23.6480  -18.2788  -14.4828 O   0  0  0  0  0  0  0  0  0  0  0  0
   20.6956  -22.7690  -10.9289 C   0  0  0  0  0  0  0  0  0  0  0  0
   21.3312  -21.2508  -10.1397 S   0  0  0  0  0  0  0  0  0  0  0  0
   22.1931  -20.2938  -11.4485 C   0  0  0  0  0  0  0  0  0  0  0  0
   23.4866  -21.0245  -11.7043 C   0  0  0  0  0  0  0  0  0  0  0  0
   24.3040  -20.4103  -12.8235 C   0  0  2  0  0  0  0  0  0  0  0  0
   23.6261  -20.5268  -14.0985 N   0  0  0  0  0  0  0  0  0  0  0  0
   25.6697  -20.9341  -12.8776 C   0  0  0  0  0  0  0  0  0  0  0  0
   25.8851  -22.1674  -13.0010 O   0  0  0  0  0  0  0  0  0  0  0  0
   29.2264  -19.6235  -12.6993 C   0  0  0  0  0  0  0  0  0  0  0  0
   28.0915  -20.5896  -12.4356 C   0  0  2  0  0  0  0  0  0  0  0  0
   26.8055  -20.0851  -12.7941 N   0  0  0  0  0  0  0  0  0  0  0  0
   28.1598  -20.9914  -10.9985 C   0  0  0  0  0  0  0  0  0  0  0  0
   29.2127  -21.5572  -10.5982 O   0  0  0  0  0  0  0  0  0  0  0  0
   27.1402  -20.7758  -10.1014 O   0  0  0  0  0  0  0  0  0  0  0  0
  2  1  1  1
  2  3  1  0
  2 13  1  0
  4  3  1  0
  4  5  2  0
  6  5  1  0
  7  6  1  0
  8  7  2  0
  9  8  1  0
 10  9  2  0
 10 11  1  0
 11 12  2  0
 12  7  1  0
 12  4  1  0
 13 14  2  0
 16 15  1  0
 17 18  1  0
 17 16  1  0
 19 18  1  1
 19 21  1  0
 20 19  1  0
 20 13  1  0
 21 22  2  0
 24 23  1  1
 24 26  1  0
 25 21  1  0
 25 24  1  0
 26 27  2  0
 26 28  1  0
M  END
$$$$
