WMA.pdb
     RDKit          3D

 28 29  0  0  1  0  0  0  0  0999 V2000
   26.5230  -22.7553  -15.2216 N   0  0  0  0  0  0  0  0  0  0  0  0
   26.9210  -22.0615  -14.0466 C   0  0  1  0  0  0  0  0  0  0  0  0
   27.9447  -20.9962  -14.2607 C   0  0  0  0  0  0  0  0  0  0  0  0
   29.2920  -21.5776  -14.0909 C   0  0  0  0  0  0  0  0  0  0  0  0
   30.1334  -22.0262  -15.1130 C   0  0  0  0  0  0  0  0  0  0  0  0
   31.2803  -22.4642  -14.5871 N   0  0  0  0  0  0  0  0  0  0  0  0
   31.2324  -22.3244  -13.2602 C   0  0  0  0  0  0  0  0  0  0  0  0
   32.1464  -22.6265  -12.2561 C   0  0  0  0  0  0  0  0  0  0  0  0
   31.8662  -22.3952  -10.9289 C   0  0  0  0  0  0  0  0  0  0  0  0
   30.6390  -21.8484  -10.6093 C   0  0  0  0  0  0  0  0  0  0  0  0
   29.7310  -21.5478  -11.6037 C   0  0  0  0  0  0  0  0  0  0  0  0
   29.9995  -21.7729  -12.9272 C   0  0  0  0  0  0  0  0  0  0  0  0
   25.7394  -21.5724  -13.2800 C   0  0  0  0  0  0  0  0  0  0  0  0
   24.6064  -21.7865  -13.7802 O   0  0  0  0  0  0  0  0  0  0  0  0
   27.4799  -20.1344   -6.6505 C   0  0  0  0  0  0  0  0  0  0  0  0
   26.2876  -19.3168   -7.7649 S   0  0  0  0  0  0  0  0  0  0  0  0
   25.8649  -20.5334   -9.0736 C   0  0  0  0  0  0  0  0  0  0  0  0
   24.9539  -19.8057  -10.0292 C   0  0  0  0  0  0  0  0  0  0  0  0
   24.6171  -20.6187  -11.2636 C   0  0  2  0  0  0  0  0  0  0  0  0
   25.8001  -20.8975  -12.0520 N   0  0  0  0  0  0  0  0  0  0  0  0
   23.5531  -20.0125  -12.0653 C   0  0  0  0  0  0  0  0  0  0  0  0
   23.8198  -19.3623  -13.1088 O   0  0  0  0  0  0  0  0  0  0  0  0
   21.5704  -18.3965  -13.3551 C   0  0  0  0  0  0  0  0  0  0  0  0
   21.1477  -19.5962  -12.5346 C   0  0  2  0  0  0  0  0  0  0  0  0
   22.1830  -20.1271  -11.7081 N   0  0  0  0  0  0  0  0  0  0  0  0
   20.5948  -20.6182  -13.4732 C   0  0  0  0  0  0  0  0  0  0  0  0
   20.6010  -20.3467  -14.7042 O   0  0  0  0  0  0  0  0  0  0  0  0
   20.0850  -21.8276  -13.0630 O   0  0  0  0  0  0  0  0  0  0  0  0
  2  1  1  6
  2  3  1  0
  2 13  1  0
  4  3  1  0
  4  5  2  0
  6  5  1  0
  7  6  1  0
  8  7  2  0
  9  8  1  0
 10  9  2  0
 10 11  1  0
 11 12  2  0
 12  7  1  0
 12  4  1  0
 13 14  2  0
 16 15  1  0
 17 18  1  0
 17 16  1  0
 19 18  1  1
 19 21  1  0
 20 19  1  0
 20 13  1  0
 21 22  2  0
 24 23  1  6
 24 26  1  0
 25 21  1  0
 25 24  1  0
 26 27  2  0
 26 28  1  0
M  END
$$$$
