WMA.pdb
     RDKit          3D

 28 29  0  0  1  0  0  0  0  0999 V2000
   26.1403  -19.0623  -13.3815 N   0  0  0  0  0  0  0  0  0  0  0  0
   25.9403  -20.4156  -12.9954 C   0  0  1  0  0  0  0  0  0  0  0  0
   25.0824  -20.6058  -11.7885 C   0  0  0  0  0  0  0  0  0  0  0  0
   25.7464  -19.9923  -10.6203 C   0  0  0  0  0  0  0  0  0  0  0  0
   25.9164  -18.6240  -10.3904 C   0  0  0  0  0  0  0  0  0  0  0  0
   26.5377  -18.4415   -9.2222 N   0  0  0  0  0  0  0  0  0  0  0  0
   26.7858  -19.6316   -8.6703 C   0  0  0  0  0  0  0  0  0  0  0  0
   27.4053  -19.9975   -7.4798 C   0  0  0  0  0  0  0  0  0  0  0  0
   27.5560  -21.3166   -7.1181 C   0  0  0  0  0  0  0  0  0  0  0  0
   27.0719  -22.2850   -7.9754 C   0  0  0  0  0  0  0  0  0  0  0  0
   26.4569  -21.9243   -9.1566 C   0  0  0  0  0  0  0  0  0  0  0  0
   26.3010  -20.6152   -9.5260 C   0  0  0  0  0  0  0  0  0  0  0  0
   25.4953  -21.2479  -14.1496 C   0  0  0  0  0  0  0  0  0  0  0  0
   24.7707  -20.6885  -15.0107 O   0  0  0  0  0  0  0  0  0  0  0  0
   28.4415  -26.5255  -16.3195 C   0  0  0  0  0  0  0  0  0  0  0  0
   26.7385  -26.9950  -16.7790 S   0  0  0  0  0  0  0  0  0  0  0  0
   25.7635  -25.4412  -16.8593 C   0  0  0  0  0  0  0  0  0  0  0  0
   26.1183  -24.6712  -15.6128 C   0  0  0  0  0  0  0  0  0  0  0  0
   25.4105  -23.3338  -15.5196 C   0  0  2  0  0  0  0  0  0  0  0  0
   25.8242  -22.5977  -14.3423 N   0  0  0  0  0  0  0  0  0  0  0  0
   23.9547  -23.4588  -15.6057 C   0  0  0  0  0  0  0  0  0  0  0  0
   23.2819  -23.8731  -14.6268 O   0  0  0  0  0  0  0  0  0  0  0  0
   21.2126  -22.5902  -18.0871 C   0  0  0  0  0  0  0  0  0  0  0  0
   21.8166  -23.2218  -16.8513 C   0  0  2  0  0  0  0  0  0  0  0  0
   23.2388  -23.1226  -16.7857 N   0  0  0  0  0  0  0  0  0  0  0  0
   21.3459  -24.6380  -16.7869 C   0  0  0  0  0  0  0  0  0  0  0  0
   22.0924  -25.5261  -17.2798 O   0  0  0  0  0  0  0  0  0  0  0  0
   20.1503  -25.0149  -16.2218 O   0  0  0  0  0  0  0  0  0  0  0  0
  2  1  1  6
  2  3  1  0
  2 13  1  0
  4  3  1  0
  4  5  2  0
  6  5  1  0
  7  6  1  0
  8  7  2  0
  9  8  1  0
 10  9  2  0
 10 11  1  0
 11 12  2  0
 12  7  1  0
 12  4  1  0
 13 14  2  0
 16 15  1  0
 17 18  1  0
 17 16  1  0
 19 18  1  1
 19 21  1  0
 20 19  1  0
 20 13  1  0
 21 22  2  0
 24 23  1  6
 24 26  1  0
 25 21  1  0
 25 24  1  0
 26 27  2  0
 26 28  1  0
M  END
$$$$
