WNE.pdb
     RDKit          3D

 32 33  0  0  1  0  0  0  0  0999 V2000
   26.0338  -18.5264  -16.6509 N   0  0  0  0  0  0  0  0  0  0  0  0
   26.5235  -18.3712  -15.2623 C   0  0  1  0  0  0  0  0  0  0  0  0
   26.2982  -16.9452  -14.9237 C   0  0  0  0  0  0  0  0  0  0  0  0
   27.1127  -15.9461  -15.5898 C   0  0  0  0  0  0  0  0  0  0  0  0
   26.9117  -14.5913  -15.5545 C   0  0  0  0  0  0  0  0  0  0  0  0
   27.8437  -13.9861  -16.2902 N   0  0  0  0  0  0  0  0  0  0  0  0
   28.6622  -14.9072  -16.8158 C   0  0  0  0  0  0  0  0  0  0  0  0
   29.7765  -14.7666  -17.6473 C   0  0  0  0  0  0  0  0  0  0  0  0
   30.4696  -15.8809  -18.0647 C   0  0  0  0  0  0  0  0  0  0  0  0
   30.0269  -17.1198  -17.6361 C   0  0  0  0  0  0  0  0  0  0  0  0
   28.9265  -17.2491  -16.8159 C   0  0  0  0  0  0  0  0  0  0  0  0
   28.2168  -16.1442  -16.3855 C   0  0  0  0  0  0  0  0  0  0  0  0
   25.8481  -19.3701  -14.4491 C   0  0  0  0  0  0  0  0  0  0  0  0
   24.9815  -20.1189  -15.0183 O   0  0  0  0  0  0  0  0  0  0  0  0
   24.7883  -21.3948   -8.7758 N   0  0  0  0  0  0  0  0  0  0  0  0
   25.1387  -21.6929  -10.1129 C   0  0  0  0  0  0  0  0  0  0  0  0
   24.8483  -22.8238  -10.5633 O   0  0  0  0  0  0  0  0  0  0  0  0
   25.8289  -20.6959  -10.9555 C   0  0  0  0  0  0  0  0  0  0  0  0
   25.2003  -20.6013  -12.3651 C   0  0  2  0  0  0  0  0  0  0  0  0
   26.0414  -19.6235  -13.0644 N   0  0  0  0  0  0  0  0  0  0  0  0
   23.7922  -20.1995  -12.2754 C   0  0  0  0  0  0  0  0  0  0  0  0
   23.4351  -19.2678  -11.4731 O   0  0  0  0  0  0  0  0  0  0  0  0
   22.7378  -20.7634  -13.0233 N   0  0  0  0  0  0  0  0  0  0  0  0
   21.3174  -20.3823  -12.8390 C   0  0  1  0  0  0  0  0  0  0  0  0
   20.6366  -20.3124  -14.1578 C   0  0  0  0  0  0  0  0  0  0  0  0
   21.1441  -19.1753  -14.9918 C   0  0  0  0  0  0  0  0  0  0  0  0
   20.3993  -19.1900  -16.3060 C   0  0  0  0  0  0  0  0  0  0  0  0
   19.1845  -19.4910  -16.2812 O   0  0  0  0  0  0  0  0  0  0  0  0
   20.7269  -21.3996  -11.9699 C   0  0  0  0  0  0  0  0  0  0  0  0
   21.1390  -22.6162  -11.9550 O   0  0  0  0  0  0  0  0  0  0  0  0
   21.0960  -18.8729  -17.4513 O   0  0  0  0  0  0  0  0  0  0  0  0
   19.6873  -21.0993  -11.1095 O   0  0  0  0  0  0  0  0  0  0  0  0
  2  1  1  6
  2 13  1  0
  2  3  1  0
  4  3  1  0
  4  5  2  0
  6  5  1  0
  7  6  1  0
  8  7  2  0
  9  8  1  0
 10  9  2  0
 10 11  1  0
 11 12  2  0
 12  7  1  0
 12  4  1  0
 13 14  2  0
 15 16  1  0
 16 18  1  0
 17 16  2  0
 19 18  1  1
 20 19  1  0
 20 13  1  0
 21 22  2  0
 21 19  1  0
 23 21  1  0
 24 29  1  0
 24 23  1  0
 24 25  1  6
 26 25  1  0
 27 26  1  0
 27 28  2  0
 29 32  1  0
 30 29  2  0
 31 27  1  0
M  END
$$$$
