WNE.pdb
     RDKit          3D

 32 33  0  0  1  0  0  0  0  0999 V2000
   27.4343  -21.6512   -9.1524 N   0  0  0  0  0  0  0  0  0  0  0  0
   26.2125  -20.8189   -9.2332 C   0  0  1  0  0  0  0  0  0  0  0  0
   26.4065  -19.7392   -8.2354 C   0  0  0  0  0  0  0  0  0  0  0  0
   26.6879  -20.1171   -6.8631 C   0  0  0  0  0  0  0  0  0  0  0  0
   25.9305  -20.9563   -6.0889 C   0  0  0  0  0  0  0  0  0  0  0  0
   26.4831  -21.0632   -4.8808 N   0  0  0  0  0  0  0  0  0  0  0  0
   27.5925  -20.3140   -4.8317 C   0  0  0  0  0  0  0  0  0  0  0  0
   28.5035  -20.1034   -3.7933 C   0  0  0  0  0  0  0  0  0  0  0  0
   29.5867  -19.2746   -3.9846 C   0  0  0  0  0  0  0  0  0  0  0  0
   29.7330  -18.6717   -5.2213 C   0  0  0  0  0  0  0  0  0  0  0  0
   28.8292  -18.8852   -6.2400 C   0  0  0  0  0  0  0  0  0  0  0  0
   27.7356  -19.7127   -6.0693 C   0  0  0  0  0  0  0  0  0  0  0  0
   26.0448  -20.4271  -10.6237 C   0  0  0  0  0  0  0  0  0  0  0  0
   26.6714  -19.3900  -11.0331 O   0  0  0  0  0  0  0  0  0  0  0  0
   26.2277  -20.1764  -15.6263 N   0  0  0  0  0  0  0  0  0  0  0  0
   27.2154  -20.6558  -14.7352 C   0  0  0  0  0  0  0  0  0  0  0  0
   28.3715  -20.8416  -15.1766 O   0  0  0  0  0  0  0  0  0  0  0  0
   26.8910  -20.9298  -13.3209 C   0  0  0  0  0  0  0  0  0  0  0  0
   25.3885  -20.7168  -13.0246 C   0  0  2  0  0  0  0  0  0  0  0  0
   25.2513  -21.0749  -11.6084 N   0  0  0  0  0  0  0  0  0  0  0  0
   24.5655  -21.5415  -13.9161 C   0  0  0  0  0  0  0  0  0  0  0  0
   24.6823  -22.8165  -13.9090 O   0  0  0  0  0  0  0  0  0  0  0  0
   23.6078  -21.0469  -14.8257 N   0  0  0  0  0  0  0  0  0  0  0  0
   22.1577  -21.3311  -14.7122 C   0  0  1  0  0  0  0  0  0  0  0  0
   21.6569  -20.8869  -13.3857 C   0  0  0  0  0  0  0  0  0  0  0  0
   20.1860  -21.1294  -13.2312 C   0  0  0  0  0  0  0  0  0  0  0  0
   19.7812  -20.6829  -11.8459 C   0  0  0  0  0  0  0  0  0  0  0  0
   20.2330  -19.5911  -11.4329 O   0  0  0  0  0  0  0  0  0  0  0  0
   21.5099  -20.6157  -15.8110 C   0  0  0  0  0  0  0  0  0  0  0  0
   21.9454  -19.4904  -16.2518 O   0  0  0  0  0  0  0  0  0  0  0  0
   18.9419  -21.4989  -11.1196 O   0  0  0  0  0  0  0  0  0  0  0  0
   20.3869  -21.1211  -16.4392 O   0  0  0  0  0  0  0  0  0  0  0  0
  2  1  1  6
  2 13  1  0
  2  3  1  0
  4  3  1  0
  4  5  2  0
  6  5  1  0
  7  6  1  0
  8  7  2  0
  9  8  1  0
 10  9  2  0
 10 11  1  0
 11 12  2  0
 12  7  1  0
 12  4  1  0
 13 14  2  0
 15 16  1  0
 16 18  1  0
 17 16  2  0
 19 18  1  6
 20 19  1  0
 20 13  1  0
 21 22  2  0
 21 19  1  0
 23 21  1  0
 24 29  1  0
 24 23  1  0
 24 25  1  1
 26 25  1  0
 27 26  1  0
 27 28  2  0
 29 32  1  0
 30 29  2  0
 31 27  1  0
M  END
$$$$
