WNE.pdb
     RDKit          3D

 32 33  0  0  1  0  0  0  0  0999 V2000
   26.1667  -22.5670  -12.0506 N   0  0  0  0  0  0  0  0  0  0  0  0
   25.5147  -21.4972  -11.2615 C   0  0  1  0  0  0  0  0  0  0  0  0
   26.4813  -20.3727  -11.2509 C   0  0  0  0  0  0  0  0  0  0  0  0
   27.6356  -20.4697  -10.3772 C   0  0  0  0  0  0  0  0  0  0  0  0
   28.8912  -20.8753  -10.7459 C   0  0  0  0  0  0  0  0  0  0  0  0
   29.6938  -20.8533   -9.6822 N   0  0  0  0  0  0  0  0  0  0  0  0
   29.0015  -20.4421   -8.6116 C   0  0  0  0  0  0  0  0  0  0  0  0
   29.4004  -20.2586   -7.2850 C   0  0  0  0  0  0  0  0  0  0  0  0
   28.4924  -19.8202   -6.3470 C   0  0  0  0  0  0  0  0  0  0  0  0
   27.1961  -19.5737   -6.7631 C   0  0  0  0  0  0  0  0  0  0  0  0
   26.8114  -19.7575   -8.0740 C   0  0  0  0  0  0  0  0  0  0  0  0
   27.7063  -20.1967   -9.0311 C   0  0  0  0  0  0  0  0  0  0  0  0
   24.2084  -21.2555  -11.8531 C   0  0  0  0  0  0  0  0  0  0  0  0
   24.0245  -21.6172  -13.0660 O   0  0  0  0  0  0  0  0  0  0  0  0
   21.0771  -23.0001  -10.6678 N   0  0  0  0  0  0  0  0  0  0  0  0
   20.4542  -21.8278  -10.1807 C   0  0  0  0  0  0  0  0  0  0  0  0
   19.6408  -21.9380   -9.2362 O   0  0  0  0  0  0  0  0  0  0  0  0
   20.7560  -20.5084  -10.7711 C   0  0  0  0  0  0  0  0  0  0  0  0
   21.7868  -20.6148  -11.9186 C   0  0  2  0  0  0  0  0  0  0  0  0
   23.0820  -20.6535  -11.2304 N   0  0  0  0  0  0  0  0  0  0  0  0
   21.6509  -19.4814  -12.8401 C   0  0  0  0  0  0  0  0  0  0  0  0
   21.8396  -18.2846  -12.4260 O   0  0  0  0  0  0  0  0  0  0  0  0
   21.3180  -19.5818  -14.2070 N   0  0  0  0  0  0  0  0  0  0  0  0
   21.3926  -18.4381  -15.1467 C   0  0  1  0  0  0  0  0  0  0  0  0
   22.2325  -18.7991  -16.3180 C   0  0  0  0  0  0  0  0  0  0  0  0
   21.5940  -19.8617  -17.1602 C   0  0  0  0  0  0  0  0  0  0  0  0
   22.5343  -20.1851  -18.2976 C   0  0  0  0  0  0  0  0  0  0  0  0
   22.9748  -19.2298  -18.9759 O   0  0  0  0  0  0  0  0  0  0  0  0
   20.0158  -18.1309  -15.5326 C   0  0  0  0  0  0  0  0  0  0  0  0
   19.0445  -18.9458  -15.3260 O   0  0  0  0  0  0  0  0  0  0  0  0
   22.8518  -21.5066  -18.5223 O   0  0  0  0  0  0  0  0  0  0  0  0
   19.6865  -16.9346  -16.1423 O   0  0  0  0  0  0  0  0  0  0  0  0
  2  1  1  6
  2 13  1  0
  2  3  1  0
  4  3  1  0
  4  5  2  0
  6  5  1  0
  7  6  1  0
  8  7  2  0
  9  8  1  0
 10  9  2  0
 10 11  1  0
 11 12  2  0
 12  7  1  0
 12  4  1  0
 13 14  2  0
 15 16  1  0
 16 18  1  0
 17 16  2  0
 19 18  1  1
 20 19  1  0
 20 13  1  0
 21 22  2  0
 21 19  1  0
 23 21  1  0
 24 29  1  0
 24 23  1  0
 24 25  1  6
 26 25  1  0
 27 26  1  0
 27 28  2  0
 29 32  1  0
 30 29  2  0
 31 27  1  0
M  END
$$$$
