WNE.pdb
     RDKit          3D

 32 33  0  0  1  0  0  0  0  0999 V2000
   25.7009  -22.5147  -13.8340 N   0  0  0  0  0  0  0  0  0  0  0  0
   25.3673  -21.2841  -13.0815 C   0  0  1  0  0  0  0  0  0  0  0  0
   26.2047  -20.2177  -13.6819 C   0  0  0  0  0  0  0  0  0  0  0  0
   27.5809  -20.0962  -13.2385 C   0  0  0  0  0  0  0  0  0  0  0  0
   28.6267  -19.6196  -13.9843 C   0  0  0  0  0  0  0  0  0  0  0  0
   29.7442  -19.6651  -13.2596 N   0  0  0  0  0  0  0  0  0  0  0  0
   29.4673  -20.1615  -12.0466 C   0  0  0  0  0  0  0  0  0  0  0  0
   30.2985  -20.3992  -10.9487 C   0  0  0  0  0  0  0  0  0  0  0  0
   29.7744  -20.9248   -9.7888 C   0  0  0  0  0  0  0  0  0  0  0  0
   28.4192  -21.2020   -9.7554 C   0  0  0  0  0  0  0  0  0  0  0  0
   27.6067  -20.9644  -10.8433 C   0  0  0  0  0  0  0  0  0  0  0  0
   28.1121  -20.4376  -12.0167 C   0  0  0  0  0  0  0  0  0  0  0  0
   23.9237  -21.1176  -13.1388 C   0  0  0  0  0  0  0  0  0  0  0  0
   23.2897  -21.7097  -14.0786 O   0  0  0  0  0  0  0  0  0  0  0  0
   18.9319  -19.0604  -10.2051 N   0  0  0  0  0  0  0  0  0  0  0  0
   19.6628  -20.0467  -10.9069 C   0  0  0  0  0  0  0  0  0  0  0  0
   19.0285  -20.9745  -11.4572 O   0  0  0  0  0  0  0  0  0  0  0  0
   21.1359  -19.9833  -10.9883 C   0  0  0  0  0  0  0  0  0  0  0  0
   21.6506  -20.3713  -12.3938 C   0  0  2  0  0  0  0  0  0  0  0  0
   23.1110  -20.3600  -12.2530 N   0  0  0  0  0  0  0  0  0  0  0  0
   21.1557  -19.4277  -13.4023 C   0  0  0  0  0  0  0  0  0  0  0  0
   21.5370  -18.2056  -13.3872 O   0  0  0  0  0  0  0  0  0  0  0  0
   20.2576  -19.7474  -14.4417 N   0  0  0  0  0  0  0  0  0  0  0  0
   19.8214  -18.7700  -15.4669 C   0  0  1  0  0  0  0  0  0  0  0  0
   19.5545  -19.4682  -16.7510 C   0  0  0  0  0  0  0  0  0  0  0  0
   19.2717  -18.5061  -17.8648 C   0  0  0  0  0  0  0  0  0  0  0  0
   18.9908  -19.3067  -19.1147 C   0  0  0  0  0  0  0  0  0  0  0  0
   18.2775  -18.7760  -19.9958 O   0  0  0  0  0  0  0  0  0  0  0  0
   18.6230  -18.1219  -14.9353 C   0  0  0  0  0  0  0  0  0  0  0  0
   17.8278  -18.7102  -14.1157 O   0  0  0  0  0  0  0  0  0  0  0  0
   19.5332  -20.5692  -19.2132 O   0  0  0  0  0  0  0  0  0  0  0  0
   18.2839  -16.8292  -15.2892 O   0  0  0  0  0  0  0  0  0  0  0  0
  2  1  1  6
  2 13  1  0
  2  3  1  0
  4  3  1  0
  4  5  2  0
  6  5  1  0
  7  6  1  0
  8  7  2  0
  9  8  1  0
 10  9  2  0
 10 11  1  0
 11 12  2  0
 12  7  1  0
 12  4  1  0
 13 14  2  0
 15 16  1  0
 16 18  1  0
 17 16  2  0
 19 18  1  1
 20 19  1  0
 20 13  1  0
 21 22  2  0
 21 19  1  0
 23 21  1  0
 24 29  1  0
 24 23  1  0
 24 25  1  6
 26 25  1  0
 27 26  1  0
 27 28  2  0
 29 32  1  0
 30 29  2  0
 31 27  1  0
M  END
$$$$
