WNE.pdb
     RDKit          3D

 32 33  0  0  1  0  0  0  0  0999 V2000
   24.2931  -20.3311  -10.0494 N   0  0  0  0  0  0  0  0  0  0  0  0
   25.2426  -20.6025  -11.1525 C   0  0  1  0  0  0  0  0  0  0  0  0
   26.3457  -21.3803  -10.5383 C   0  0  0  0  0  0  0  0  0  0  0  0
   27.0209  -20.8173   -9.3840 C   0  0  0  0  0  0  0  0  0  0  0  0
   26.4479  -20.0237   -8.4254 C   0  0  0  0  0  0  0  0  0  0  0  0
   27.3693  -19.6815   -7.5253 N   0  0  0  0  0  0  0  0  0  0  0  0
   28.5445  -20.2292   -7.8621 C   0  0  0  0  0  0  0  0  0  0  0  0
   29.7931  -20.1603   -7.2384 C   0  0  0  0  0  0  0  0  0  0  0  0
   30.8726  -20.8192   -7.7832 C   0  0  0  0  0  0  0  0  0  0  0  0
   30.6746  -21.5375   -8.9491 C   0  0  0  0  0  0  0  0  0  0  0  0
   29.4393  -21.5999   -9.5576 C   0  0  0  0  0  0  0  0  0  0  0  0
   28.3430  -20.9462   -9.0279 C   0  0  0  0  0  0  0  0  0  0  0  0
   24.4921  -21.2332  -12.2267 C   0  0  0  0  0  0  0  0  0  0  0  0
   23.4265  -21.8698  -11.9187 O   0  0  0  0  0  0  0  0  0  0  0  0
   21.0984  -20.3223  -14.0680 N   0  0  0  0  0  0  0  0  0  0  0  0
   22.0036  -19.2466  -13.9161 C   0  0  0  0  0  0  0  0  0  0  0  0
   21.5640  -18.1599  -13.4782 O   0  0  0  0  0  0  0  0  0  0  0  0
   23.4301  -19.4018  -14.2649 C   0  0  0  0  0  0  0  0  0  0  0  0
   23.7825  -20.8690  -14.6022 C   0  0  2  0  0  0  0  0  0  0  0  0
   24.8055  -21.2253  -13.6126 N   0  0  0  0  0  0  0  0  0  0  0  0
   24.2494  -20.9812  -15.9884 C   0  0  0  0  0  0  0  0  0  0  0  0
   25.1590  -20.1959  -16.4303 O   0  0  0  0  0  0  0  0  0  0  0  0
   23.7747  -21.9159  -16.9319 N   0  0  0  0  0  0  0  0  0  0  0  0
   24.0234  -21.7971  -18.3882 C   0  0  1  0  0  0  0  0  0  0  0  0
   22.9032  -22.4135  -19.1451 C   0  0  0  0  0  0  0  0  0  0  0  0
   22.4309  -23.6866  -18.5109 C   0  0  0  0  0  0  0  0  0  0  0  0
   21.2677  -23.3550  -17.6057 C   0  0  0  0  0  0  0  0  0  0  0  0
   20.2839  -22.7721  -18.1149 O   0  0  0  0  0  0  0  0  0  0  0  0
   24.1545  -20.3678  -18.6689 C   0  0  0  0  0  0  0  0  0  0  0  0
   23.2865  -19.5063  -18.2760 O   0  0  0  0  0  0  0  0  0  0  0  0
   21.3556  -23.7113  -16.2779 O   0  0  0  0  0  0  0  0  0  0  0  0
   25.2317  -19.8665  -19.3757 O   0  0  0  0  0  0  0  0  0  0  0  0
  2  1  1  1
  2 13  1  0
  2  3  1  0
  4  3  1  0
  4  5  2  0
  6  5  1  0
  7  6  1  0
  8  7  2  0
  9  8  1  0
 10  9  2  0
 10 11  1  0
 11 12  2  0
 12  7  1  0
 12  4  1  0
 13 14  2  0
 15 16  1  0
 16 18  1  0
 17 16  2  0
 19 18  1  1
 20 19  1  0
 20 13  1  0
 21 22  2  0
 21 19  1  0
 23 21  1  0
 24 29  1  0
 24 23  1  0
 24 25  1  6
 26 25  1  0
 27 26  1  0
 27 28  2  0
 29 32  1  0
 30 29  2  0
 31 27  1  0
M  END
$$$$
