WNE.pdb
     RDKit          3D

 32 33  0  0  1  0  0  0  0  0999 V2000
   27.8447  -19.6077  -10.7778 N   0  0  0  0  0  0  0  0  0  0  0  0
   26.9592  -20.7944  -10.7783 C   0  0  1  0  0  0  0  0  0  0  0  0
   26.0951  -20.6397   -9.5832 C   0  0  0  0  0  0  0  0  0  0  0  0
   26.7160  -20.2317   -8.3370 C   0  0  0  0  0  0  0  0  0  0  0  0
   26.0834  -19.6227   -7.2853 C   0  0  0  0  0  0  0  0  0  0  0  0
   26.9666  -19.3820   -6.3167 N   0  0  0  0  0  0  0  0  0  0  0  0
   28.1747  -19.8168   -6.6988 C   0  0  0  0  0  0  0  0  0  0  0  0
   29.4043  -19.7882   -6.0355 C   0  0  0  0  0  0  0  0  0  0  0  0
   30.5270  -20.3051   -6.6430 C   0  0  0  0  0  0  0  0  0  0  0  0
   30.3905  -20.8429   -7.9105 C   0  0  0  0  0  0  0  0  0  0  0  0
   29.1735  -20.8668   -8.5574 C   0  0  0  0  0  0  0  0  0  0  0  0
   28.0347  -20.3536   -7.9661 C   0  0  0  0  0  0  0  0  0  0  0  0
   26.3071  -20.8495  -12.0770 C   0  0  0  0  0  0  0  0  0  0  0  0
   26.5060  -19.8809  -12.8882 O   0  0  0  0  0  0  0  0  0  0  0  0
   23.5727  -24.9009  -14.8321 N   0  0  0  0  0  0  0  0  0  0  0  0
   24.5675  -24.2118  -14.1006 C   0  0  0  0  0  0  0  0  0  0  0  0
   24.8936  -24.6587  -12.9781 O   0  0  0  0  0  0  0  0  0  0  0  0
   25.2048  -22.9970  -14.6470 C   0  0  0  0  0  0  0  0  0  0  0  0
   24.7887  -21.7292  -13.8657 C   0  0  2  0  0  0  0  0  0  0  0  0
   25.4565  -21.8766  -12.5677 N   0  0  0  0  0  0  0  0  0  0  0  0
   23.3277  -21.6439  -13.7624 C   0  0  0  0  0  0  0  0  0  0  0  0
   22.7055  -22.2843  -12.8447 O   0  0  0  0  0  0  0  0  0  0  0  0
   22.4964  -20.8874  -14.6143 N   0  0  0  0  0  0  0  0  0  0  0  0
   21.0245  -20.8142  -14.4568 C   0  0  1  0  0  0  0  0  0  0  0  0
   20.5096  -19.5689  -15.0826 C   0  0  0  0  0  0  0  0  0  0  0  0
   19.0157  -19.4772  -15.0035 C   0  0  0  0  0  0  0  0  0  0  0  0
   18.6623  -18.6074  -13.8199 C   0  0  0  0  0  0  0  0  0  0  0  0
   19.0625  -17.4215  -13.8312 O   0  0  0  0  0  0  0  0  0  0  0  0
   20.4814  -22.0135  -15.0937 C   0  0  0  0  0  0  0  0  0  0  0  0
   21.0368  -22.5636  -16.1131 O   0  0  0  0  0  0  0  0  0  0  0  0
   17.9233  -19.1663  -12.8006 O   0  0  0  0  0  0  0  0  0  0  0  0
   19.3332  -22.6237  -14.6241 O   0  0  0  0  0  0  0  0  0  0  0  0
  2  1  1  6
  2 13  1  0
  2  3  1  0
  4  3  1  0
  4  5  2  0
  6  5  1  0
  7  6  1  0
  8  7  2  0
  9  8  1  0
 10  9  2  0
 10 11  1  0
 11 12  2  0
 12  7  1  0
 12  4  1  0
 13 14  2  0
 15 16  1  0
 16 18  1  0
 17 16  2  0
 19 18  1  6
 20 19  1  0
 20 13  1  0
 21 22  2  0
 21 19  1  0
 23 21  1  0
 24 29  1  0
 24 23  1  0
 24 25  1  6
 26 25  1  0
 27 26  1  0
 27 28  2  0
 29 32  1  0
 30 29  2  0
 31 27  1  0
M  END
$$$$
