GQH.pdb
     RDKit          3D

 24 24  0  0  1  0  0  0  0  0999 V2000
   12.6136  -28.9762   33.5056 N   0  0  0  0  0  0  0  0  0  0  0  0
   12.2041  -27.6887   34.0122 C   0  0  0  0  0  0  0  0  0  0  0  0
   12.6681  -26.5742   33.1594 C   0  0  0  0  0  0  0  0  0  0  0  0
   13.6525  -26.7693   32.4117 O   0  0  0  0  0  0  0  0  0  0  0  0
   10.7504  -24.1977   29.0795 N   0  0  0  0  0  0  0  0  0  0  0  0
   11.3298  -22.9354   29.3098 C   0  0  0  0  0  0  0  0  0  0  0  0
   11.6061  -22.1516   28.3672 O   0  0  0  0  0  0  0  0  0  0  0  0
   11.6461  -22.4640   30.6945 C   0  0  0  0  0  0  0  0  0  0  0  0
   11.3631  -23.5030   31.7093 C   0  0  0  0  0  0  0  0  0  0  0  0
   12.5585  -24.2324   32.2121 C   0  0  2  0  0  0  0  0  0  0  0  0
   12.0586  -25.2937   33.1412 N   0  0  0  0  0  0  0  0  0  0  0  0
   13.5250  -23.3904   32.9316 C   0  0  0  0  0  0  0  0  0  0  0  0
   13.1358  -22.9131   34.0557 O   0  0  0  0  0  0  0  0  0  0  0  0
   14.8335  -23.0641   32.5127 N   0  0  0  0  0  0  0  0  0  0  0  0
   15.6714  -22.2112   33.3870 C   0  0  1  0  0  0  0  0  0  0  0  0
   17.0997  -22.2934   32.9406 C   0  0  0  0  0  0  0  0  0  0  0  0
   17.7075  -23.5928   33.2802 C   0  0  0  0  0  0  0  0  0  0  0  0
   17.7295  -24.3338   34.4330 C   0  0  0  0  0  0  0  0  0  0  0  0
   18.3598  -25.5254   34.2152 N   0  0  0  0  0  0  0  0  0  0  0  0
   18.7206  -25.5199   32.9427 C   0  0  0  0  0  0  0  0  0  0  0  0
   18.3481  -24.3836   32.3529 N   0  0  0  0  0  0  0  0  0  0  0  0
   15.2008  -20.8015   33.1960 C   0  0  0  0  0  0  0  0  0  0  0  0
   14.1098  -20.5792   32.3468 O   0  0  0  0  0  0  0  0  0  0  0  0
   15.7159  -19.8125   33.7420 O   0  0  0  0  0  0  0  0  0  0  0  0
  1  2  1  0
  2  3  1  0
  3 11  1  0
  4  3  2  0
  6  7  2  0
  6  5  1  0
  8  6  1  0
  9  8  1  0
 10  9  1  1
 10 12  1  0
 11 10  1  0
 12 13  2  0
 12 14  1  0
 14 15  1  0
 15 16  1  6
 16 17  1  0
 17 18  2  0
 18 19  1  0
 20 19  1  0
 21 17  1  0
 21 20  2  0
 22 15  1  0
 22 23  1  0
 24 22  2  0
M  END
$$$$
