GQH.pdb
     RDKit          3D

 24 24  0  0  1  0  0  0  0  0999 V2000
    5.1110  -19.2965   20.5465 N   0  0  0  0  0  0  0  0  0  0  0  0
    5.0882  -17.9323   21.0157 C   0  0  0  0  0  0  0  0  0  0  0  0
    6.4061  -17.2736   20.8973 C   0  0  0  0  0  0  0  0  0  0  0  0
    7.3835  -17.9640   20.5312 O   0  0  0  0  0  0  0  0  0  0  0  0
    8.7646  -11.8072   18.8651 N   0  0  0  0  0  0  0  0  0  0  0  0
    8.1632  -12.9795   18.3691 C   0  0  0  0  0  0  0  0  0  0  0  0
    8.2805  -13.3264   17.1670 O   0  0  0  0  0  0  0  0  0  0  0  0
    7.3514  -13.8732   19.2535 C   0  0  0  0  0  0  0  0  0  0  0  0
    7.9177  -13.9620   20.6175 C   0  0  0  0  0  0  0  0  0  0  0  0
    8.0125  -15.3401   21.1701 C   0  0  2  0  0  0  0  0  0  0  0  0
    6.6248  -15.9003   21.1760 N   0  0  0  0  0  0  0  0  0  0  0  0
    8.5574  -15.4112   22.5335 C   0  0  0  0  0  0  0  0  0  0  0  0
    8.0864  -14.5696   23.3777 O   0  0  0  0  0  0  0  0  0  0  0  0
    9.5364  -16.3141   23.0033 N   0  0  0  0  0  0  0  0  0  0  0  0
   10.0741  -16.1360   24.3718 C   0  0  1  0  0  0  0  0  0  0  0  0
    9.5500  -17.2254   25.2576 C   0  0  0  0  0  0  0  0  0  0  0  0
    8.0946  -17.1138   25.4633 C   0  0  0  0  0  0  0  0  0  0  0  0
    7.2882  -16.0722   25.8420 C   0  0  0  0  0  0  0  0  0  0  0  0
    5.9774  -16.4532   25.8044 N   0  0  0  0  0  0  0  0  0  0  0  0
    5.9756  -17.7143   25.4054 C   0  0  0  0  0  0  0  0  0  0  0  0
    7.2202  -18.1422   25.1920 N   0  0  0  0  0  0  0  0  0  0  0  0
   11.5619  -16.2852   24.2751 C   0  0  0  0  0  0  0  0  0  0  0  0
   12.3228  -16.0774   25.4320 O   0  0  0  0  0  0  0  0  0  0  0  0
   12.1684  -16.5817   23.2330 O   0  0  0  0  0  0  0  0  0  0  0  0
  1  2  1  0
  2  3  1  0
  3 11  1  0
  4  3  2  0
  6  7  2  0
  6  5  1  0
  8  6  1  0
  9  8  1  0
 10  9  1  1
 10 12  1  0
 11 10  1  0
 12 13  2  0
 12 14  1  0
 14 15  1  0
 15 16  1  1
 16 17  1  0
 17 18  2  0
 18 19  1  0
 20 19  1  0
 21 17  1  0
 21 20  2  0
 22 15  1  0
 22 23  1  0
 24 22  2  0
M  END
$$$$
