GQH.pdb
     RDKit          3D

 24 24  0  0  1  0  0  0  0  0999 V2000
    9.7828  -17.7915   17.5881 N   0  0  0  0  0  0  0  0  0  0  0  0
    9.7641  -18.4854   18.8530 C   0  0  0  0  0  0  0  0  0  0  0  0
   10.2036  -17.6269   19.9731 C   0  0  0  0  0  0  0  0  0  0  0  0
   11.3702  -17.1745   19.9514 O   0  0  0  0  0  0  0  0  0  0  0  0
    6.5601  -15.2933   24.6027 N   0  0  0  0  0  0  0  0  0  0  0  0
    7.7665  -14.5885   24.7754 C   0  0  0  0  0  0  0  0  0  0  0  0
    7.8718  -13.6486   25.6029 O   0  0  0  0  0  0  0  0  0  0  0  0
    8.9873  -14.9261   23.9783 C   0  0  0  0  0  0  0  0  0  0  0  0
    8.6964  -15.9123   22.9143 C   0  0  0  0  0  0  0  0  0  0  0  0
    9.8838  -16.3802   22.1495 C   0  0  2  0  0  0  0  0  0  0  0  0
    9.3753  -17.2868   21.0730 N   0  0  0  0  0  0  0  0  0  0  0  0
   10.8748  -17.1097   22.9536 C   0  0  0  0  0  0  0  0  0  0  0  0
   10.5606  -18.3047   23.2944 O   0  0  0  0  0  0  0  0  0  0  0  0
   12.1331  -16.6295   23.3783 N   0  0  0  0  0  0  0  0  0  0  0  0
   13.0147  -17.5289   24.1577 C   0  0  1  0  0  0  0  0  0  0  0  0
   14.4431  -17.1234   23.9546 C   0  0  0  0  0  0  0  0  0  0  0  0
   14.9574  -17.5612   22.6443 C   0  0  0  0  0  0  0  0  0  0  0  0
   14.8261  -18.7292   21.9392 C   0  0  0  0  0  0  0  0  0  0  0  0
   15.4265  -18.6126   20.7182 N   0  0  0  0  0  0  0  0  0  0  0  0
   15.9205  -17.3865   20.6704 C   0  0  0  0  0  0  0  0  0  0  0  0
   15.6599  -16.7297   21.8011 N   0  0  0  0  0  0  0  0  0  0  0  0
   12.6708  -17.3268   25.6021 C   0  0  0  0  0  0  0  0  0  0  0  0
   13.3597  -18.0848   26.5569 O   0  0  0  0  0  0  0  0  0  0  0  0
   11.8117  -16.5293   26.0112 O   0  0  0  0  0  0  0  0  0  0  0  0
  1  2  1  0
  2  3  1  0
  3 11  1  0
  4  3  2  0
  6  7  2  0
  6  5  1  0
  8  6  1  0
  9  8  1  0
 10  9  1  1
 10 12  1  0
 11 10  1  0
 12 13  2  0
 12 14  1  0
 14 15  1  0
 15 16  1  1
 16 17  1  0
 17 18  2  0
 18 19  1  0
 20 19  1  0
 21 17  1  0
 21 20  2  0
 22 15  1  0
 22 23  1  0
 24 22  2  0
M  END
$$$$
