GQH.pdb
     RDKit          3D

 24 24  0  0  1  0  0  0  0  0999 V2000
   11.7544  -17.0497   14.4701 N   0  0  0  0  0  0  0  0  0  0  0  0
   12.5463  -17.4055   15.6225 C   0  0  0  0  0  0  0  0  0  0  0  0
   11.7134  -17.7533   16.7930 C   0  0  0  0  0  0  0  0  0  0  0  0
   10.4899  -17.4944   16.7484 O   0  0  0  0  0  0  0  0  0  0  0  0
   10.0967  -22.0783   19.0953 N   0  0  0  0  0  0  0  0  0  0  0  0
   10.1214  -21.6012   20.4196 C   0  0  0  0  0  0  0  0  0  0  0  0
    9.3714  -22.0765   21.3088 O   0  0  0  0  0  0  0  0  0  0  0  0
   11.0462  -20.5000   20.8342 C   0  0  0  0  0  0  0  0  0  0  0  0
   11.8301  -19.9786   19.6928 C   0  0  0  0  0  0  0  0  0  0  0  0
   11.3071  -18.7213   19.0933 C   0  0  2  0  0  0  0  0  0  0  0  0
   12.2246  -18.3652   17.9660 N   0  0  0  0  0  0  0  0  0  0  0  0
   11.2401  -17.5866   20.0254 C   0  0  0  0  0  0  0  0  0  0  0  0
   12.3409  -16.9690   20.2480 O   0  0  0  0  0  0  0  0  0  0  0  0
   10.0889  -17.1088   20.6892 N   0  0  0  0  0  0  0  0  0  0  0  0
   10.2062  -15.9069   21.5467 C   0  0  1  0  0  0  0  0  0  0  0  0
    8.8837  -15.2038   21.6008 C   0  0  0  0  0  0  0  0  0  0  0  0
    8.6302  -14.4157   20.3811 C   0  0  0  0  0  0  0  0  0  0  0  0
    9.3514  -14.2288   19.2307 C   0  0  0  0  0  0  0  0  0  0  0  0
    8.6413  -13.4663   18.3480 N   0  0  0  0  0  0  0  0  0  0  0  0
    7.4951  -13.1879   18.9465 C   0  0  0  0  0  0  0  0  0  0  0  0
    7.4524  -13.7377   20.1604 N   0  0  0  0  0  0  0  0  0  0  0  0
   10.5372  -16.3899   22.9260 C   0  0  0  0  0  0  0  0  0  0  0  0
   10.8543  -15.4361   23.9009 O   0  0  0  0  0  0  0  0  0  0  0  0
   10.5499  -17.5845   23.2640 O   0  0  0  0  0  0  0  0  0  0  0  0
  1  2  1  0
  2  3  1  0
  3 11  1  0
  4  3  2  0
  6  7  2  0
  6  5  1  0
  8  6  1  0
  9  8  1  0
 10  9  1  1
 10 12  1  0
 11 10  1  0
 12 13  2  0
 12 14  1  0
 14 15  1  0
 15 16  1  1
 16 17  1  0
 17 18  2  0
 18 19  1  0
 20 19  1  0
 21 17  1  0
 21 20  2  0
 22 15  1  0
 22 23  1  0
 24 22  2  0
M  END
$$$$
