GQH.pdb
     RDKit          3D

 24 24  0  0  1  0  0  0  0  0999 V2000
   12.9383  -21.2144   12.4312 N   0  0  0  0  0  0  0  0  0  0  0  0
   13.0825  -22.0125   13.6246 C   0  0  0  0  0  0  0  0  0  0  0  0
   12.3634  -21.4343   14.7794 C   0  0  0  0  0  0  0  0  0  0  0  0
   12.7372  -20.3222   15.2146 O   0  0  0  0  0  0  0  0  0  0  0  0
    6.3817  -23.2765   15.8233 N   0  0  0  0  0  0  0  0  0  0  0  0
    6.8908  -22.0805   16.3642 C   0  0  0  0  0  0  0  0  0  0  0  0
    6.2438  -21.4052   17.2036 O   0  0  0  0  0  0  0  0  0  0  0  0
    8.2330  -21.5533   15.9638 C   0  0  0  0  0  0  0  0  0  0  0  0
    9.3165  -22.1046   16.8073 C   0  0  0  0  0  0  0  0  0  0  0  0
   10.6426  -21.4532   16.6318 C   0  0  2  0  0  0  0  0  0  0  0  0
   11.2715  -22.0710   15.4226 N   0  0  0  0  0  0  0  0  0  0  0  0
   11.5539  -21.6147   17.7739 C   0  0  0  0  0  0  0  0  0  0  0  0
   12.3333  -22.6316   17.7389 O   0  0  0  0  0  0  0  0  0  0  0  0
   11.6596  -20.7615   18.8943 N   0  0  0  0  0  0  0  0  0  0  0  0
   12.6673  -21.0707   19.9348 C   0  0  1  0  0  0  0  0  0  0  0  0
   13.4913  -19.8490   20.2075 C   0  0  0  0  0  0  0  0  0  0  0  0
   14.5095  -20.0935   21.2451 C   0  0  0  0  0  0  0  0  0  0  0  0
   14.4684  -20.0480   22.6143 C   0  0  0  0  0  0  0  0  0  0  0  0
   15.6665  -20.4454   23.1352 N   0  0  0  0  0  0  0  0  0  0  0  0
   16.4366  -20.7343   22.0994 C   0  0  0  0  0  0  0  0  0  0  0  0
   15.7805  -20.5368   20.9555 N   0  0  0  0  0  0  0  0  0  0  0  0
   11.9105  -21.4139   21.1817 C   0  0  0  0  0  0  0  0  0  0  0  0
   12.5255  -22.2557   22.1165 O   0  0  0  0  0  0  0  0  0  0  0  0
   10.7692  -21.0006   21.4428 O   0  0  0  0  0  0  0  0  0  0  0  0
  1  2  1  0
  2  3  1  0
  3 11  1  0
  4  3  2  0
  6  7  2  0
  6  5  1  0
  8  6  1  0
  9  8  1  0
 10  9  1  1
 10 12  1  0
 11 10  1  0
 12 13  2  0
 12 14  1  0
 14 15  1  0
 15 16  1  1
 16 17  1  0
 17 18  2  0
 18 19  1  0
 20 19  1  0
 21 17  1  0
 21 20  2  0
 22 15  1  0
 22 23  1  0
 24 22  2  0
M  END
$$$$
