GQH.pdb
     RDKit          3D

 24 24  0  0  1  0  0  0  0  0999 V2000
    8.0830  -14.1480   15.5721 N   0  0  0  0  0  0  0  0  0  0  0  0
    9.3293  -13.9055   16.2574 C   0  0  0  0  0  0  0  0  0  0  0  0
    9.7443  -15.0511   17.0942 C   0  0  0  0  0  0  0  0  0  0  0  0
    8.8537  -15.7775   17.5894 O   0  0  0  0  0  0  0  0  0  0  0  0
   11.6107  -19.5637   18.2248 N   0  0  0  0  0  0  0  0  0  0  0  0
   12.0343  -19.2235   16.9260 C   0  0  0  0  0  0  0  0  0  0  0  0
   11.8809  -20.0046   15.9535 O   0  0  0  0  0  0  0  0  0  0  0  0
   12.6908  -17.9095   16.6394 C   0  0  0  0  0  0  0  0  0  0  0  0
   12.7464  -17.0469   17.8403 C   0  0  0  0  0  0  0  0  0  0  0  0
   11.4343  -16.5057   18.2865 C   0  0  2  0  0  0  0  0  0  0  0  0
   11.0982  -15.3734   17.3675 N   0  0  0  0  0  0  0  0  0  0  0  0
   11.4207  -16.0115   19.6709 C   0  0  0  0  0  0  0  0  0  0  0  0
   12.2227  -15.0479   19.9376 O   0  0  0  0  0  0  0  0  0  0  0  0
   10.6115  -16.4857   20.7266 N   0  0  0  0  0  0  0  0  0  0  0  0
   10.6544  -15.7837   22.0301 C   0  0  1  0  0  0  0  0  0  0  0  0
    9.2556  -15.5381   22.5087 C   0  0  0  0  0  0  0  0  0  0  0  0
    8.5107  -14.6509   21.5970 C   0  0  0  0  0  0  0  0  0  0  0  0
    8.9122  -13.7156   20.6790 C   0  0  0  0  0  0  0  0  0  0  0  0
    7.8304  -13.2139   20.0136 N   0  0  0  0  0  0  0  0  0  0  0  0
    6.7747  -13.8338   20.5141 C   0  0  0  0  0  0  0  0  0  0  0  0
    7.1415  -14.6985   21.4605 N   0  0  0  0  0  0  0  0  0  0  0  0
   11.3255  -16.7095   22.9984 C   0  0  0  0  0  0  0  0  0  0  0  0
   11.6558  -16.2132   24.2654 O   0  0  0  0  0  0  0  0  0  0  0  0
   11.6104  -17.8925   22.7516 O   0  0  0  0  0  0  0  0  0  0  0  0
  1  2  1  0
  2  3  1  0
  3 11  1  0
  4  3  2  0
  6  7  2  0
  6  5  1  0
  8  6  1  0
  9  8  1  0
 10  9  1  6
 10 12  1  0
 11 10  1  0
 12 13  2  0
 12 14  1  0
 14 15  1  0
 15 16  1  1
 16 17  1  0
 17 18  2  0
 18 19  1  0
 20 19  1  0
 21 17  1  0
 21 20  2  0
 22 15  1  0
 22 23  1  0
 24 22  2  0
M  END
$$$$
