GQH.pdb
     RDKit          3D

 24 24  0  0  1  0  0  0  0  0999 V2000
    7.6534  -13.0299   17.1538 N   0  0  0  0  0  0  0  0  0  0  0  0
    8.8864  -12.5516   17.7306 C   0  0  0  0  0  0  0  0  0  0  0  0
    9.7644  -13.6537   18.1770 C   0  0  0  0  0  0  0  0  0  0  0  0
    9.3258  -14.8241   18.1146 O   0  0  0  0  0  0  0  0  0  0  0  0
   16.7244  -15.9451   18.5461 N   0  0  0  0  0  0  0  0  0  0  0  0
   15.6428  -15.0510   18.4328 C   0  0  0  0  0  0  0  0  0  0  0  0
   15.7615  -13.9368   17.8637 O   0  0  0  0  0  0  0  0  0  0  0  0
   14.2936  -15.3856   18.9871 C   0  0  0  0  0  0  0  0  0  0  0  0
   13.3243  -14.2869   18.7809 C   0  0  0  0  0  0  0  0  0  0  0  0
   11.9102  -14.6300   19.0913 C   0  0  2  0  0  0  0  0  0  0  0  0
   11.0788  -13.4582   18.6728 N   0  0  0  0  0  0  0  0  0  0  0  0
   11.6514  -14.9110   20.5108 C   0  0  0  0  0  0  0  0  0  0  0  0
   11.7996  -13.9284   21.3203 O   0  0  0  0  0  0  0  0  0  0  0  0
   11.2511  -16.1465   21.0655 N   0  0  0  0  0  0  0  0  0  0  0  0
   10.8977  -16.2030   22.5027 C   0  0  1  0  0  0  0  0  0  0  0  0
    9.5026  -16.7299   22.6512 C   0  0  0  0  0  0  0  0  0  0  0  0
    8.4991  -15.7811   22.1355 C   0  0  0  0  0  0  0  0  0  0  0  0
    8.6022  -14.5316   21.5817 C   0  0  0  0  0  0  0  0  0  0  0  0
    7.3739  -14.0924   21.1779 N   0  0  0  0  0  0  0  0  0  0  0  0
    6.5238  -15.0603   21.4776 C   0  0  0  0  0  0  0  0  0  0  0  0
    7.1587  -16.0838   22.0497 N   0  0  0  0  0  0  0  0  0  0  0  0
   11.8381  -17.1791   23.1416 C   0  0  0  0  0  0  0  0  0  0  0  0
   11.7866  -17.3316   24.5326 O   0  0  0  0  0  0  0  0  0  0  0  0
   12.6642  -17.8647   22.5177 O   0  0  0  0  0  0  0  0  0  0  0  0
  1  2  1  0
  2  3  1  0
  3 11  1  0
  4  3  2  0
  6  7  2  0
  6  5  1  0
  8  6  1  0
  9  8  1  0
 10  9  1  1
 10 12  1  0
 11 10  1  0
 12 13  2  0
 12 14  1  0
 14 15  1  0
 15 16  1  6
 16 17  1  0
 17 18  2  0
 18 19  1  0
 20 19  1  0
 21 17  1  0
 21 20  2  0
 22 15  1  0
 22 23  1  0
 24 22  2  0
M  END
$$$$
