MIV.pdb
     RDKit          3D

 24 23  0  0  1  0  0  0  0  0999 V2000
    5.7943  -21.0351   24.3109 C   0  0  0  0  0  0  0  0  0  0  0  0
    4.6673  -20.6408   22.9902 S   0  0  0  0  0  0  0  0  0  0  0  0
    4.7264  -18.9698   22.4144 C   0  0  0  0  0  0  0  0  0  0  0  0
    5.8764  -18.1788   22.9270 C   0  0  0  0  0  0  0  0  0  0  0  0
    5.8226  -16.7531   22.5032 C   0  0  2  0  0  0  0  0  0  0  0  0
    5.9456  -16.6921   21.0566 N   0  0  0  0  0  0  0  0  0  0  0  0
    6.9842  -15.9747   23.0618 C   0  0  0  0  0  0  0  0  0  0  0  0
    8.0005  -15.8363   22.3723 O   0  0  0  0  0  0  0  0  0  0  0  0
    5.8610  -11.9832   26.3201 C   0  0  0  0  0  0  0  0  0  0  0  0
    6.7055  -12.8375   25.4488 C   0  0  0  0  0  0  0  0  0  0  0  0
    7.3503  -14.0002   26.1835 C   0  0  2  0  0  0  0  0  0  0  0  0
    8.4327  -13.5633   27.1022 C   0  0  0  0  0  0  0  0  0  0  0  0
    7.9727  -14.8429   25.0557 C   0  0  2  0  0  0  0  0  0  0  0  0
    6.8159  -15.4535   24.3573 N   0  0  0  0  0  0  0  0  0  0  0  0
    8.8198  -15.9328   25.5438 C   0  0  0  0  0  0  0  0  0  0  0  0
    8.2800  -16.8415   26.2784 O   0  0  0  0  0  0  0  0  0  0  0  0
   11.6459  -17.6943   23.3581 C   0  0  0  0  0  0  0  0  0  0  0  0
   12.0602  -17.5698   24.8166 C   0  0  2  0  0  0  0  0  0  0  0  0
   12.8785  -18.7687   25.1825 C   0  0  0  0  0  0  0  0  0  0  0  0
   10.8672  -17.3658   25.6820 C   0  0  2  0  0  0  0  0  0  0  0  0
   10.1986  -16.1193   25.2987 N   0  0  0  0  0  0  0  0  0  0  0  0
   11.2641  -17.3343   27.1106 C   0  0  0  0  0  0  0  0  0  0  0  0
   11.2361  -18.4519   27.9042 O   0  0  0  0  0  0  0  0  0  0  0  0
   11.6441  -16.2452   27.6293 O   0  0  0  0  0  0  0  0  0  0  0  0
  1  2  1  0
  2  3  1  0
  4  3  1  0
  5  4  1  0
  5  6  1  6
  7  5  1  0
  7 14  1  0
  8  7  2  0
 10  9  1  0
 10 11  1  0
 11 13  1  0
 11 12  1  1
 13 14  1  1
 15 21  1  0
 15 13  1  0
 16 15  2  0
 18 17  1  6
 18 20  1  0
 18 19  1  0
 20 21  1  6
 20 22  1  0
 22 23  1  0
 24 22  2  0
M  END
$$$$
