MIV.pdb
     RDKit          3D

 24 23  0  0  1  0  0  0  0  0999 V2000
    7.2086  -19.2444   20.3452 C   0  0  0  0  0  0  0  0  0  0  0  0
    5.9882  -18.2132   19.5593 S   0  0  0  0  0  0  0  0  0  0  0  0
    6.1148  -16.4845   19.9099 C   0  0  0  0  0  0  0  0  0  0  0  0
    7.0393  -16.1449   21.0238 C   0  0  0  0  0  0  0  0  0  0  0  0
    7.0677  -14.6860   21.3172 C   0  0  2  0  0  0  0  0  0  0  0  0
    7.6548  -13.9937   20.1825 N   0  0  0  0  0  0  0  0  0  0  0  0
    7.9488  -14.3856   22.5007 C   0  0  0  0  0  0  0  0  0  0  0  0
    9.1596  -14.2166   22.3194 O   0  0  0  0  0  0  0  0  0  0  0  0
    6.0599  -11.3386   26.3718 C   0  0  0  0  0  0  0  0  0  0  0  0
    7.0108  -12.1288   25.5512 C   0  0  0  0  0  0  0  0  0  0  0  0
    7.1641  -13.5659   26.0188 C   0  0  2  0  0  0  0  0  0  0  0  0
    7.7908  -13.6639   27.3619 C   0  0  0  0  0  0  0  0  0  0  0  0
    8.1202  -14.1853   24.9835 C   0  0  2  0  0  0  0  0  0  0  0  0
    7.3072  -14.3195   23.7507 N   0  0  0  0  0  0  0  0  0  0  0  0
    8.5889  -15.5226   25.3516 C   0  0  0  0  0  0  0  0  0  0  0  0
    7.7107  -16.4430   25.5481 O   0  0  0  0  0  0  0  0  0  0  0  0
   11.1851  -17.7677   23.6359 C   0  0  0  0  0  0  0  0  0  0  0  0
   11.4500  -17.7689   25.1341 C   0  0  2  0  0  0  0  0  0  0  0  0
   11.9468  -19.1249   25.5281 C   0  0  0  0  0  0  0  0  0  0  0  0
   10.2386  -17.3298   25.8780 C   0  0  2  0  0  0  0  0  0  0  0  0
    9.9270  -15.9431   25.5204 N   0  0  0  0  0  0  0  0  0  0  0  0
   10.4531  -17.4625   27.3395 C   0  0  0  0  0  0  0  0  0  0  0  0
   10.1344  -18.6054   28.0265 O   0  0  0  0  0  0  0  0  0  0  0  0
   10.9465  -16.4958   27.9887 O   0  0  0  0  0  0  0  0  0  0  0  0
  1  2  1  0
  2  3  1  0
  4  3  1  0
  5  4  1  0
  5  6  1  6
  7  5  1  0
  7 14  1  0
  8  7  2  0
 10  9  1  0
 10 11  1  0
 11 13  1  0
 11 12  1  1
 13 14  1  6
 15 21  1  0
 15 13  1  0
 16 15  2  0
 18 17  1  6
 18 20  1  0
 18 19  1  0
 20 21  1  1
 20 22  1  0
 22 23  1  0
 24 22  2  0
M  END
$$$$
