MIV.pdb
     RDKit          3D

 24 23  0  0  1  0  0  0  0  0999 V2000
    6.2196  -10.0053   25.9600 C   0  0  0  0  0  0  0  0  0  0  0  0
    5.1552  -11.1468   26.8169 S   0  0  0  0  0  0  0  0  0  0  0  0
    4.7927  -12.6447   25.9496 C   0  0  0  0  0  0  0  0  0  0  0  0
    5.9662  -13.5299   25.7257 C   0  0  0  0  0  0  0  0  0  0  0  0
    5.6326  -14.7216   24.8986 C   0  0  2  0  0  0  0  0  0  0  0  0
    4.8282  -15.6318   25.6961 N   0  0  0  0  0  0  0  0  0  0  0  0
    6.8741  -15.4800   24.5107 C   0  0  0  0  0  0  0  0  0  0  0  0
    7.1804  -16.4946   25.1465 O   0  0  0  0  0  0  0  0  0  0  0  0
    7.9616  -13.4319   20.1622 C   0  0  0  0  0  0  0  0  0  0  0  0
    7.9895  -14.6818   20.9616 C   0  0  0  0  0  0  0  0  0  0  0  0
    9.2872  -14.8828   21.7251 C   0  0  2  0  0  0  0  0  0  0  0  0
   10.2603  -15.7243   20.9825 C   0  0  0  0  0  0  0  0  0  0  0  0
    8.8500  -15.6388   22.9928 C   0  0  2  0  0  0  0  0  0  0  0  0
    7.6054  -14.9601   23.4275 N   0  0  0  0  0  0  0  0  0  0  0  0
    9.8139  -15.5397   24.0904 C   0  0  0  0  0  0  0  0  0  0  0  0
   10.7624  -14.6752   23.9918 O   0  0  0  0  0  0  0  0  0  0  0  0
    9.2115  -14.2946   27.2673 C   0  0  0  0  0  0  0  0  0  0  0  0
   10.0203  -15.5483   27.5652 C   0  0  2  0  0  0  0  0  0  0  0  0
   10.8825  -15.2852   28.7604 C   0  0  0  0  0  0  0  0  0  0  0  0
   10.7760  -15.9803   26.3586 C   0  0  2  0  0  0  0  0  0  0  0  0
    9.8316  -16.2963   25.2834 N   0  0  0  0  0  0  0  0  0  0  0  0
   11.6279  -17.1525   26.6743 C   0  0  0  0  0  0  0  0  0  0  0  0
   11.1010  -18.3790   26.9868 O   0  0  0  0  0  0  0  0  0  0  0  0
   12.8868  -17.0319   26.6588 O   0  0  0  0  0  0  0  0  0  0  0  0
  1  2  1  0
  2  3  1  0
  4  3  1  0
  5  4  1  0
  5  6  1  1
  7  5  1  0
  7 14  1  0
  8  7  2  0
 10  9  1  0
 10 11  1  0
 11 13  1  0
 11 12  1  6
 13 14  1  1
 15 21  1  0
 15 13  1  0
 16 15  2  0
 18 17  1  6
 18 20  1  0
 18 19  1  0
 20 21  1  6
 20 22  1  0
 22 23  1  0
 24 22  2  0
M  END
$$$$
