MIV.pdb
     RDKit          3D

 24 23  0  0  1  0  0  0  0  0999 V2000
    7.7408  -19.2726   20.6221 C   0  0  0  0  0  0  0  0  0  0  0  0
    6.2307  -18.5202   21.1912 S   0  0  0  0  0  0  0  0  0  0  0  0
    6.3714  -16.8375   21.7165 C   0  0  0  0  0  0  0  0  0  0  0  0
    7.0084  -15.9307   20.7252 C   0  0  0  0  0  0  0  0  0  0  0  0
    7.0465  -14.5164   21.1873 C   0  0  2  0  0  0  0  0  0  0  0  0
    7.6364  -13.6997   20.1402 N   0  0  0  0  0  0  0  0  0  0  0  0
    7.9312  -14.3620   22.3959 C   0  0  0  0  0  0  0  0  0  0  0  0
    9.1510  -14.2446   22.2352 O   0  0  0  0  0  0  0  0  0  0  0  0
    5.8262  -11.3881   26.0038 C   0  0  0  0  0  0  0  0  0  0  0  0
    6.8234  -12.1881   25.2502 C   0  0  0  0  0  0  0  0  0  0  0  0
    7.1219  -13.5356   25.8846 C   0  0  2  0  0  0  0  0  0  0  0  0
    7.8147  -13.4084   27.1924 C   0  0  0  0  0  0  0  0  0  0  0  0
    8.0807  -14.2047   24.8832 C   0  0  2  0  0  0  0  0  0  0  0  0
    7.2823  -14.3639   23.6438 N   0  0  0  0  0  0  0  0  0  0  0  0
    8.5199  -15.5376   25.3003 C   0  0  0  0  0  0  0  0  0  0  0  0
    7.6223  -16.4340   25.5186 O   0  0  0  0  0  0  0  0  0  0  0  0
   12.5562  -16.9283   25.5641 C   0  0  0  0  0  0  0  0  0  0  0  0
   11.3887  -17.7865   25.1005 C   0  0  2  0  0  0  0  0  0  0  0  0
   11.3064  -17.7111   23.6077 C   0  0  0  0  0  0  0  0  0  0  0  0
   10.1366  -17.3830   25.7956 C   0  0  2  0  0  0  0  0  0  0  0  0
    9.8480  -15.9777   25.4961 N   0  0  0  0  0  0  0  0  0  0  0  0
   10.2655  -17.5955   27.2577 C   0  0  0  0  0  0  0  0  0  0  0  0
   10.2430  -18.8449   27.8218 O   0  0  0  0  0  0  0  0  0  0  0  0
   10.4015  -16.5987   28.0241 O   0  0  0  0  0  0  0  0  0  0  0  0
  1  2  1  0
  2  3  1  0
  4  3  1  0
  5  4  1  0
  5  6  1  6
  7  5  1  0
  7 14  1  0
  8  7  2  0
 10  9  1  0
 10 11  1  0
 11 13  1  0
 11 12  1  1
 13 14  1  6
 15 21  1  0
 15 13  1  0
 16 15  2  0
 18 17  1  1
 18 20  1  0
 18 19  1  0
 20 21  1  1
 20 22  1  0
 22 23  1  0
 24 22  2  0
M  END
$$$$
