MIV.pdb
     RDKit          3D

 24 23  0  0  1  0  0  0  0  0999 V2000
    6.5577  -12.6009   18.2828 C   0  0  0  0  0  0  0  0  0  0  0  0
    6.6726  -14.3774   18.3145 S   0  0  0  0  0  0  0  0  0  0  0  0
    6.0428  -15.1535   19.7733 C   0  0  0  0  0  0  0  0  0  0  0  0
    7.0295  -15.2894   20.8773 C   0  0  0  0  0  0  0  0  0  0  0  0
    7.4524  -13.9738   21.4300 C   0  0  2  0  0  0  0  0  0  0  0  0
    8.3709  -13.3485   20.4935 N   0  0  0  0  0  0  0  0  0  0  0  0
    8.2105  -14.1433   22.7199 C   0  0  0  0  0  0  0  0  0  0  0  0
    9.4363  -14.2959   22.6795 O   0  0  0  0  0  0  0  0  0  0  0  0
    5.9305  -11.3762   26.4257 C   0  0  0  0  0  0  0  0  0  0  0  0
    6.9734  -12.1469   25.7044 C   0  0  0  0  0  0  0  0  0  0  0  0
    7.1312  -13.5708   26.2095 C   0  0  2  0  0  0  0  0  0  0  0  0
    7.7234  -13.6299   27.5705 C   0  0  0  0  0  0  0  0  0  0  0  0
    8.1215  -14.2021   25.2143 C   0  0  2  0  0  0  0  0  0  0  0  0
    7.4436  -14.1137   23.8985 N   0  0  0  0  0  0  0  0  0  0  0  0
    8.3897  -15.6169   25.4791 C   0  0  0  0  0  0  0  0  0  0  0  0
    7.3961  -16.4351   25.4813 O   0  0  0  0  0  0  0  0  0  0  0  0
   12.1436  -17.5359   25.2294 C   0  0  0  0  0  0  0  0  0  0  0  0
   10.7938  -18.1767   24.9429 C   0  0  2  0  0  0  0  0  0  0  0  0
   10.4579  -17.9537   23.5012 C   0  0  0  0  0  0  0  0  0  0  0  0
    9.7640  -17.6683   25.8887 C   0  0  2  0  0  0  0  0  0  0  0  0
    9.6430  -16.2156   25.7376 N   0  0  0  0  0  0  0  0  0  0  0  0
   10.1209  -18.0261   27.2829 C   0  0  0  0  0  0  0  0  0  0  0  0
   10.0149  -19.3066   27.7614 O   0  0  0  0  0  0  0  0  0  0  0  0
   10.5393  -17.1292   28.0703 O   0  0  0  0  0  0  0  0  0  0  0  0
  1  2  1  0
  2  3  1  0
  4  3  1  0
  5  4  1  0
  5  6  1  6
  7  5  1  0
  7 14  1  0
  8  7  2  0
 10  9  1  0
 10 11  1  0
 11 13  1  0
 11 12  1  1
 13 14  1  6
 15 21  1  0
 15 13  1  0
 16 15  2  0
 18 17  1  1
 18 20  1  0
 18 19  1  0
 20 21  1  1
 20 22  1  0
 22 23  1  0
 24 22  2  0
M  END
$$$$
