MIV.pdb
     RDKit          3D

 24 23  0  0  1  0  0  0  0  0999 V2000
    5.1865  -20.6402   23.8789 C   0  0  0  0  0  0  0  0  0  0  0  0
    4.1979  -20.0068   22.5404 S   0  0  0  0  0  0  0  0  0  0  0  0
    4.5053  -18.3219   22.1002 C   0  0  0  0  0  0  0  0  0  0  0  0
    5.7681  -17.7595   22.6480 C   0  0  0  0  0  0  0  0  0  0  0  0
    5.9166  -16.3063   22.3626 C   0  0  2  0  0  0  0  0  0  0  0  0
    6.1935  -16.1354   20.9464 N   0  0  0  0  0  0  0  0  0  0  0  0
    7.0939  -15.7243   23.0992 C   0  0  0  0  0  0  0  0  0  0  0  0
    8.2015  -15.7191   22.5509 O   0  0  0  0  0  0  0  0  0  0  0  0
    5.8702  -11.8180   26.4623 C   0  0  0  0  0  0  0  0  0  0  0  0
    6.7443  -12.6654   25.6138 C   0  0  0  0  0  0  0  0  0  0  0  0
    7.2750  -13.8950   26.3307 C   0  0  2  0  0  0  0  0  0  0  0  0
    8.2949  -13.5598   27.3572 C   0  0  0  0  0  0  0  0  0  0  0  0
    7.9524  -14.7050   25.2105 C   0  0  2  0  0  0  0  0  0  0  0  0
    6.8327  -15.2198   24.3859 N   0  0  0  0  0  0  0  0  0  0  0  0
    8.7064  -15.8597   25.7022 C   0  0  0  0  0  0  0  0  0  0  0  0
    8.0635  -16.7897   26.3175 O   0  0  0  0  0  0  0  0  0  0  0  0
   12.3688  -19.0273   24.9887 C   0  0  0  0  0  0  0  0  0  0  0  0
   11.6935  -17.6861   24.7441 C   0  0  2  0  0  0  0  0  0  0  0  0
   12.7501  -16.6284   24.6685 C   0  0  0  0  0  0  0  0  0  0  0  0
   10.6546  -17.4293   25.7776 C   0  0  2  0  0  0  0  0  0  0  0  0
   10.0949  -16.0894   25.5790 N   0  0  0  0  0  0  0  0  0  0  0  0
   11.2330  -17.5636   27.1366 C   0  0  0  0  0  0  0  0  0  0  0  0
   11.4370  -16.4839   27.9567 O   0  0  0  0  0  0  0  0  0  0  0  0
   11.5545  -18.7080   27.5683 O   0  0  0  0  0  0  0  0  0  0  0  0
  1  2  1  0
  2  3  1  0
  4  3  1  0
  5  4  1  0
  5  6  1  6
  7  5  1  0
  7 14  1  0
  8  7  2  0
 10  9  1  0
 10 11  1  0
 11 13  1  0
 11 12  1  1
 13 14  1  6
 15 21  1  0
 15 13  1  0
 16 15  2  0
 18 17  1  1
 18 20  1  0
 18 19  1  0
 20 21  1  6
 20 22  1  0
 22 23  1  0
 24 22  2  0
M  END
$$$$
