MIV.pdb
     RDKit          3D

 24 23  0  0  1  0  0  0  0  0999 V2000
    4.1323  -19.9357   23.1142 C   0  0  0  0  0  0  0  0  0  0  0  0
    4.2704  -19.4202   21.4155 S   0  0  0  0  0  0  0  0  0  0  0  0
    4.7434  -17.7341   21.1694 C   0  0  0  0  0  0  0  0  0  0  0  0
    5.8656  -17.2741   22.0297 C   0  0  0  0  0  0  0  0  0  0  0  0
    6.1390  -15.8186   21.8811 C   0  0  2  0  0  0  0  0  0  0  0  0
    6.5847  -15.5646   20.5216 N   0  0  0  0  0  0  0  0  0  0  0  0
    7.2605  -15.3802   22.7850 C   0  0  0  0  0  0  0  0  0  0  0  0
    8.4138  -15.3553   22.3412 O   0  0  0  0  0  0  0  0  0  0  0  0
    6.2077  -11.6156   26.3100 C   0  0  0  0  0  0  0  0  0  0  0  0
    7.0025  -12.5632   25.4900 C   0  0  0  0  0  0  0  0  0  0  0  0
    7.2535  -13.8945   26.1771 C   0  0  2  0  0  0  0  0  0  0  0  0
    8.1631  -13.7701   27.3449 C   0  0  0  0  0  0  0  0  0  0  0  0
    7.9546  -14.7357   25.0951 C   0  0  2  0  0  0  0  0  0  0  0  0
    6.8972  -15.0246   24.0965 N   0  0  0  0  0  0  0  0  0  0  0  0
    8.4569  -16.0186   25.5906 C   0  0  0  0  0  0  0  0  0  0  0  0
    7.6067  -16.8695   26.0490 O   0  0  0  0  0  0  0  0  0  0  0  0
   11.0373  -18.2520   23.7382 C   0  0  0  0  0  0  0  0  0  0  0  0
   11.3265  -18.2756   25.2317 C   0  0  2  0  0  0  0  0  0  0  0  0
   11.8133  -19.6424   25.6002 C   0  0  0  0  0  0  0  0  0  0  0  0
   10.1329  -17.8317   26.0010 C   0  0  2  0  0  0  0  0  0  0  0  0
    9.8003  -16.4544   25.6265 N   0  0  0  0  0  0  0  0  0  0  0  0
   10.3890  -17.9354   27.4581 C   0  0  0  0  0  0  0  0  0  0  0  0
   10.1041  -19.0696   28.1737 O   0  0  0  0  0  0  0  0  0  0  0  0
   10.8875  -16.9511   28.0762 O   0  0  0  0  0  0  0  0  0  0  0  0
  1  2  1  0
  2  3  1  0
  4  3  1  0
  5  4  1  0
  5  6  1  6
  7  5  1  0
  7 14  1  0
  8  7  2  0
 10  9  1  0
 10 11  1  0
 11 13  1  0
 11 12  1  1
 13 14  1  6
 15 21  1  0
 15 13  1  0
 16 15  2  0
 18 17  1  6
 18 20  1  0
 18 19  1  0
 20 21  1  1
 20 22  1  0
 22 23  1  0
 24 22  2  0
M  END
$$$$
