MIV.pdb
     RDKit          3D

 24 23  0  0  1  0  0  0  0  0999 V2000
    8.5155  -11.8138   27.9577 C   0  0  0  0  0  0  0  0  0  0  0  0
    6.7936  -11.4273   27.7216 S   0  0  0  0  0  0  0  0  0  0  0  0
    5.9224  -12.4894   26.6079 C   0  0  0  0  0  0  0  0  0  0  0  0
    6.7713  -13.5030   25.9275 C   0  0  0  0  0  0  0  0  0  0  0  0
    6.0110  -14.3110   24.9353 C   0  0  2  0  0  0  0  0  0  0  0  0
    5.1075  -15.1966   25.6500 N   0  0  0  0  0  0  0  0  0  0  0  0
    6.9296  -15.1962   24.1354 C   0  0  0  0  0  0  0  0  0  0  0  0
    7.0646  -16.3783   24.4697 O   0  0  0  0  0  0  0  0  0  0  0  0
    7.5488  -12.7600   19.7527 C   0  0  0  0  0  0  0  0  0  0  0  0
    7.5274  -14.0720   20.4457 C   0  0  0  0  0  0  0  0  0  0  0  0
    8.8714  -14.4682   21.0323 C   0  0  2  0  0  0  0  0  0  0  0  0
    9.7094  -15.2308   20.0717 C   0  0  0  0  0  0  0  0  0  0  0  0
    8.4981  -15.3953   22.2031 C   0  0  2  0  0  0  0  0  0  0  0  0
    7.5776  -14.5917   23.0432 N   0  0  0  0  0  0  0  0  0  0  0  0
    9.6426  -15.7702   23.0358 C   0  0  0  0  0  0  0  0  0  0  0  0
   10.2688  -14.8384   23.6655 O   0  0  0  0  0  0  0  0  0  0  0  0
   10.1292  -18.1805   25.9368 C   0  0  0  0  0  0  0  0  0  0  0  0
   11.2200  -18.4468   24.9102 C   0  0  2  0  0  0  0  0  0  0  0  0
   12.4683  -18.8440   25.6349 C   0  0  0  0  0  0  0  0  0  0  0  0
   11.3901  -17.2718   24.0135 C   0  0  2  0  0  0  0  0  0  0  0  0
   10.1598  -17.0683   23.2435 N   0  0  0  0  0  0  0  0  0  0  0  0
   12.5500  -17.4734   23.1116 C   0  0  0  0  0  0  0  0  0  0  0  0
   13.7897  -16.9550   23.3843 O   0  0  0  0  0  0  0  0  0  0  0  0
   12.4062  -18.1449   22.0496 O   0  0  0  0  0  0  0  0  0  0  0  0
  1  2  1  0
  2  3  1  0
  4  3  1  0
  5  4  1  0
  5  6  1  1
  7  5  1  0
  7 14  1  0
  8  7  2  0
 10  9  1  0
 10 11  1  0
 11 13  1  0
 11 12  1  6
 13 14  1  1
 15 21  1  0
 15 13  1  0
 16 15  2  0
 18 17  1  1
 18 20  1  0
 18 19  1  0
 20 21  1  6
 20 22  1  0
 22 23  1  0
 24 22  2  0
M  END
$$$$
