HDR.pdb
     RDKit          3D

 30 30  0  0  1  0  0  0  0  0999 V2000
   19.4294   -8.8701  -15.6915 N   0  0  0  0  0  0  0  0  0  0  0  0
   18.6386   -9.4091  -14.6318 C   0  0  1  0  0  0  0  0  0  0  0  0
   18.9426  -10.8749  -14.4394 C   0  0  0  0  0  0  0  0  0  0  0  0
   18.5936  -11.5964  -15.6900 C   0  0  0  0  0  0  0  0  0  0  0  0
   17.3862  -12.2713  -15.9409 C   0  0  0  0  0  0  0  0  0  0  0  0
   17.4374  -12.7935  -17.1755 N   0  0  0  0  0  0  0  0  0  0  0  0
   18.6146  -12.4876  -17.7239 C   0  0  0  0  0  0  0  0  0  0  0  0
   19.3002  -11.7675  -16.8187 N   0  0  0  0  0  0  0  0  0  0  0  0
   18.8398   -8.6233  -13.3895 C   0  0  0  0  0  0  0  0  0  0  0  0
   18.4686   -9.0806  -12.3041 O   0  0  0  0  0  0  0  0  0  0  0  0
   19.4544   -7.3505  -13.4304 N   0  0  0  0  0  0  0  0  0  0  0  0
   19.6013   -6.4775  -12.3028 C   0  0  1  0  0  0  0  0  0  0  0  0
   20.4891   -5.2774  -12.6312 C   0  0  0  0  0  0  0  0  0  0  0  0
   21.8791   -5.6723  -12.9299 C   0  0  0  0  0  0  0  0  0  0  0  0
   22.4239   -6.7200  -12.4763 O   0  0  0  0  0  0  0  0  0  0  0  0
   18.3502   -6.0108  -11.7119 C   0  0  0  0  0  0  0  0  0  0  0  0
   17.4634   -5.4527  -12.4124 O   0  0  0  0  0  0  0  0  0  0  0  0
   22.6452   -4.8623  -13.7486 O   0  0  0  0  0  0  0  0  0  0  0  0
   12.0525   -9.8700   -7.3786 N   0  0  0  0  0  0  0  0  0  0  0  0
   11.6558   -8.4942   -7.4903 C   0  0  0  0  0  0  0  0  0  0  0  0
   10.4530   -8.2188   -7.1819 N   0  0  0  0  0  0  0  0  0  0  0  0
   12.5380   -7.4791   -7.9193 N   0  0  0  0  0  0  0  0  0  0  0  0
   13.9022   -7.7727   -8.2968 C   0  0  0  0  0  0  0  0  0  0  0  0
   14.6554   -6.4969   -8.6838 C   0  0  0  0  0  0  0  0  0  0  0  0
   16.0435   -6.8141   -9.1741 C   0  0  0  0  0  0  0  0  0  0  0  0
   16.7693   -5.6623   -9.7683 C   0  0  2  0  0  0  0  0  0  0  0  0
   18.0157   -6.1324  -10.3331 N   0  0  0  0  0  0  0  0  0  0  0  0
   16.9494   -4.5211   -8.8547 C   0  0  0  0  0  0  0  0  0  0  0  0
   18.0654   -4.3376   -8.2739 O   0  0  0  0  0  0  0  0  0  0  0  0
   15.9697   -3.5798   -8.5546 O   0  0  0  0  0  0  0  0  0  0  0  0
  2  3  1  0
  2  1  1  6
  3  4  1  0
  4  5  2  0
  5  6  1  0
  7  6  1  0
  8  4  1  0
  8  7  2  0
  9  2  1  0
 10  9  2  0
 11  9  1  0
 12 11  1  0
 12 13  1  6
 13 14  1  0
 14 18  1  0
 15 14  2  0
 16 27  1  0
 16 12  1  0
 17 16  2  0
 20 21  2  0
 20 19  1  0
 22 20  1  0
 23 22  1  0
 24 23  1  0
 26 25  1  1
 25 24  1  0
 26 28  1  0
 26 27  1  0
 28 30  1  0
 29 28  2  0
M  END
$$$$
