HDR.pdb
     RDKit          3D

 30 30  0  0  1  0  0  0  0  0999 V2000
   22.3603  -12.2192  -17.5165 N   0  0  0  0  0  0  0  0  0  0  0  0
   22.1295  -11.1934  -18.4826 C   0  0  1  0  0  0  0  0  0  0  0  0
   20.7893  -11.3879  -19.1490 C   0  0  0  0  0  0  0  0  0  0  0  0
   20.8024  -12.6910  -19.8618 C   0  0  0  0  0  0  0  0  0  0  0  0
   20.0460  -13.8248  -19.5175 C   0  0  0  0  0  0  0  0  0  0  0  0
   20.3204  -14.8034  -20.3931 N   0  0  0  0  0  0  0  0  0  0  0  0
   21.2128  -14.3527  -21.2766 C   0  0  0  0  0  0  0  0  0  0  0  0
   21.4942  -13.0805  -20.9445 N   0  0  0  0  0  0  0  0  0  0  0  0
   22.2578   -9.8561  -17.8529 C   0  0  0  0  0  0  0  0  0  0  0  0
   21.5969   -9.5831  -16.8460 O   0  0  0  0  0  0  0  0  0  0  0  0
   23.1311   -8.8836  -18.3922 N   0  0  0  0  0  0  0  0  0  0  0  0
   23.3655   -7.5896  -17.8213 C   0  0  1  0  0  0  0  0  0  0  0  0
   24.7752   -7.0852  -18.1284 C   0  0  0  0  0  0  0  0  0  0  0  0
   25.8187   -7.9155  -17.4966 C   0  0  0  0  0  0  0  0  0  0  0  0
   25.5905   -8.7408  -16.5654 O   0  0  0  0  0  0  0  0  0  0  0  0
   22.3912   -6.5647  -18.1854 C   0  0  0  0  0  0  0  0  0  0  0  0
   22.0797   -6.3557  -19.3886 O   0  0  0  0  0  0  0  0  0  0  0  0
   27.1259   -7.7965  -17.9328 O   0  0  0  0  0  0  0  0  0  0  0  0
   14.9381   -3.7055  -14.3338 N   0  0  0  0  0  0  0  0  0  0  0  0
   15.0879   -2.9775  -15.5628 C   0  0  0  0  0  0  0  0  0  0  0  0
   14.1074   -2.2504  -15.9201 N   0  0  0  0  0  0  0  0  0  0  0  0
   16.2552   -3.0489  -16.3534 N   0  0  0  0  0  0  0  0  0  0  0  0
   17.3517   -3.9244  -16.0056 C   0  0  0  0  0  0  0  0  0  0  0  0
   18.5256   -3.7512  -16.9732 C   0  0  0  0  0  0  0  0  0  0  0  0
   19.6295   -4.7289  -16.6675 C   0  0  0  0  0  0  0  0  0  0  0  0
   20.7557   -4.7149  -17.6359 C   0  0  2  0  0  0  0  0  0  0  0  0
   21.7180   -5.7253  -17.2527 N   0  0  0  0  0  0  0  0  0  0  0  0
   21.3668   -3.3901  -17.8380 C   0  0  0  0  0  0  0  0  0  0  0  0
   22.4029   -3.0574  -17.1807 O   0  0  0  0  0  0  0  0  0  0  0  0
   20.8974   -2.4241  -18.7225 O   0  0  0  0  0  0  0  0  0  0  0  0
  2  3  1  0
  2  1  1  1
  3  4  1  0
  4  5  2  0
  5  6  1  0
  7  6  1  0
  8  4  1  0
  8  7  2  0
  9  2  1  0
 10  9  2  0
 11  9  1  0
 12 11  1  0
 12 13  1  6
 13 14  1  0
 14 18  1  0
 15 14  2  0
 16 27  1  0
 16 12  1  0
 17 16  2  0
 20 21  2  0
 20 19  1  0
 22 20  1  0
 23 22  1  0
 24 23  1  0
 26 25  1  1
 25 24  1  0
 26 28  1  0
 26 27  1  0
 28 30  1  0
 29 28  2  0
M  END
$$$$
