HDR.pdb
     RDKit          3D

 30 30  0  0  1  0  0  0  0  0999 V2000
   15.4209  -16.0677    4.6335 N   0  0  0  0  0  0  0  0  0  0  0  0
   16.4902  -16.9904    4.4236 C   0  0  1  0  0  0  0  0  0  0  0  0
   17.8066  -16.3738    4.8299 C   0  0  0  0  0  0  0  0  0  0  0  0
   18.0685  -15.2031    3.9542 C   0  0  0  0  0  0  0  0  0  0  0  0
   18.4795  -15.2559    2.6108 C   0  0  0  0  0  0  0  0  0  0  0  0
   18.6081  -14.0013    2.1538 N   0  0  0  0  0  0  0  0  0  0  0  0
   18.3015  -13.1518    3.1359 C   0  0  0  0  0  0  0  0  0  0  0  0
   17.9792  -13.8888    4.2134 N   0  0  0  0  0  0  0  0  0  0  0  0
   16.2188  -18.2626    5.1371 C   0  0  0  0  0  0  0  0  0  0  0  0
   15.6690  -18.2439    6.2428 O   0  0  0  0  0  0  0  0  0  0  0  0
   16.5828  -19.5039    4.5661 N   0  0  0  0  0  0  0  0  0  0  0  0
   16.5322  -20.7635    5.2488 C   0  0  1  0  0  0  0  0  0  0  0  0
   16.8140  -21.9295    4.3016 C   0  0  0  0  0  0  0  0  0  0  0  0
   16.6280  -23.2401    4.9535 C   0  0  0  0  0  0  0  0  0  0  0  0
   16.2516  -23.3800    6.1532 O   0  0  0  0  0  0  0  0  0  0  0  0
   17.3955  -20.8689    6.4218 C   0  0  0  0  0  0  0  0  0  0  0  0
   18.6085  -20.5300    6.3744 O   0  0  0  0  0  0  0  0  0  0  0  0
   16.8763  -24.3913    4.2281 O   0  0  0  0  0  0  0  0  0  0  0  0
   15.9982  -18.6499   14.7890 N   0  0  0  0  0  0  0  0  0  0  0  0
   17.3653  -19.0817   14.7032 C   0  0  0  0  0  0  0  0  0  0  0  0
   18.0898  -18.8951   15.7317 N   0  0  0  0  0  0  0  0  0  0  0  0
   17.9026  -19.6853   13.5457 N   0  0  0  0  0  0  0  0  0  0  0  0
   17.1252  -19.8238   12.3348 C   0  0  0  0  0  0  0  0  0  0  0  0
   17.9236  -20.5444   11.2449 C   0  0  0  0  0  0  0  0  0  0  0  0
   17.1273  -20.6528    9.9712 C   0  0  0  0  0  0  0  0  0  0  0  0
   17.8197  -21.3636    8.8659 C   0  0  2  0  0  0  0  0  0  0  0  0
   16.9718  -21.3494    7.6935 N   0  0  0  0  0  0  0  0  0  0  0  0
   18.2922  -22.7145    9.2141 C   0  0  0  0  0  0  0  0  0  0  0  0
   17.6320  -23.7368    8.8463 O   0  0  0  0  0  0  0  0  0  0  0  0
   19.4470  -22.9911    9.9391 O   0  0  0  0  0  0  0  0  0  0  0  0
  2  3  1  0
  2  1  1  1
  3  4  1  0
  4  5  2  0
  5  6  1  0
  7  6  1  0
  8  4  1  0
  8  7  2  0
  9  2  1  0
 10  9  2  0
 11  9  1  0
 12 11  1  0
 12 13  1  6
 13 14  1  0
 14 18  1  0
 15 14  2  0
 16 27  1  0
 16 12  1  0
 17 16  2  0
 20 21  2  0
 20 19  1  0
 22 20  1  0
 23 22  1  0
 24 23  1  0
 26 25  1  1
 25 24  1  0
 26 28  1  0
 26 27  1  0
 28 30  1  0
 29 28  2  0
M  END
$$$$
