HDR.pdb
     RDKit          3D

 30 30  0  0  1  0  0  0  0  0999 V2000
   24.1688  -11.6071  -20.2159 N   0  0  0  0  0  0  0  0  0  0  0  0
   23.5466  -12.1228  -19.0388 C   0  0  1  0  0  0  0  0  0  0  0  0
   24.3540  -13.2654  -18.4724 C   0  0  0  0  0  0  0  0  0  0  0  0
   24.3710  -14.3685  -19.4671 C   0  0  0  0  0  0  0  0  0  0  0  0
   25.4869  -15.1532  -19.8064 C   0  0  0  0  0  0  0  0  0  0  0  0
   25.1142  -16.0470  -20.7347 N   0  0  0  0  0  0  0  0  0  0  0  0
   23.8195  -15.8722  -21.0053 C   0  0  0  0  0  0  0  0  0  0  0  0
   23.3854  -14.8587  -20.2357 N   0  0  0  0  0  0  0  0  0  0  0  0
   23.3362  -11.0363  -18.0505 C   0  0  0  0  0  0  0  0  0  0  0  0
   22.8112  -11.2872  -16.9612 O   0  0  0  0  0  0  0  0  0  0  0  0
   23.7306   -9.7096  -18.3395 N   0  0  0  0  0  0  0  0  0  0  0  0
   23.5507   -8.5934  -17.4580 C   0  0  1  0  0  0  0  0  0  0  0  0
   24.4115   -7.4013  -17.8754 C   0  0  0  0  0  0  0  0  0  0  0  0
   25.8533   -7.7147  -17.8533 C   0  0  0  0  0  0  0  0  0  0  0  0
   26.3861   -8.5087  -17.0250 O   0  0  0  0  0  0  0  0  0  0  0  0
   22.1681   -8.1580  -17.2818 C   0  0  0  0  0  0  0  0  0  0  0  0
   21.4631   -7.8034  -18.2645 O   0  0  0  0  0  0  0  0  0  0  0  0
   26.6845   -7.1141  -18.7815 O   0  0  0  0  0  0  0  0  0  0  0  0
   14.6624  -11.1772  -14.0401 N   0  0  0  0  0  0  0  0  0  0  0  0
   14.4789  -10.0934  -14.9644 C   0  0  0  0  0  0  0  0  0  0  0  0
   13.3482  -10.0194  -15.5420 N   0  0  0  0  0  0  0  0  0  0  0  0
   15.4881   -9.1446  -15.2363 N   0  0  0  0  0  0  0  0  0  0  0  0
   16.8851   -9.5148  -15.2687 C   0  0  0  0  0  0  0  0  0  0  0  0
   17.7736   -8.2968  -15.5367 C   0  0  0  0  0  0  0  0  0  0  0  0
   19.2243   -8.6919  -15.6228 C   0  0  0  0  0  0  0  0  0  0  0  0
   20.1607   -7.5640  -15.8620 C   0  0  2  0  0  0  0  0  0  0  0  0
   21.4984   -8.0903  -16.0269 N   0  0  0  0  0  0  0  0  0  0  0  0
   20.0882   -6.4904  -14.8563 C   0  0  0  0  0  0  0  0  0  0  0  0
   19.0434   -5.7721  -14.7627 O   0  0  0  0  0  0  0  0  0  0  0  0
   21.1005   -6.1741  -13.9557 O   0  0  0  0  0  0  0  0  0  0  0  0
  2  3  1  0
  2  1  1  6
  3  4  1  0
  4  5  2  0
  5  6  1  0
  7  6  1  0
  8  4  1  0
  8  7  2  0
  9  2  1  0
 10  9  2  0
 11  9  1  0
 12 11  1  0
 12 13  1  6
 13 14  1  0
 14 18  1  0
 15 14  2  0
 16 27  1  0
 16 12  1  0
 17 16  2  0
 20 21  2  0
 20 19  1  0
 22 20  1  0
 23 22  1  0
 24 23  1  0
 26 25  1  1
 25 24  1  0
 26 28  1  0
 26 27  1  0
 28 30  1  0
 29 28  2  0
M  END
$$$$
