FNM.pdb
     RDKit          3D

 28 28  0  0  1  0  0  0  0  0999 V2000
   25.7176  -15.8140  -18.5097 N   0  0  0  0  0  0  0  0  0  0  0  0
   25.8188  -16.0627  -17.1015 C   0  0  1  0  0  0  0  0  0  0  0  0
   25.1702  -14.9003  -16.3820 C   0  0  0  0  0  0  0  0  0  0  0  0
   25.9568  -13.6663  -16.3968 C   0  0  0  0  0  0  0  0  0  0  0  0
   25.5452  -12.5718  -17.1515 C   0  0  0  0  0  0  0  0  0  0  0  0
   26.2931  -11.4195  -17.1595 C   0  0  0  0  0  0  0  0  0  0  0  0
   27.4632  -11.2939  -16.4360 C   0  0  0  0  0  0  0  0  0  0  0  0
   27.8737  -12.3702  -15.6897 C   0  0  0  0  0  0  0  0  0  0  0  0
   27.1182  -13.5378  -15.6797 C   0  0  0  0  0  0  0  0  0  0  0  0
   25.2161  -17.3591  -16.7121 C   0  0  0  0  0  0  0  0  0  0  0  0
   24.1263  -17.6956  -17.2904 O   0  0  0  0  0  0  0  0  0  0  0  0
   25.4246  -22.9428  -15.2876 N   0  0  0  0  0  0  0  0  0  0  0  0
   25.3450  -21.7671  -14.5234 C   0  0  0  0  0  0  0  0  0  0  0  0
   24.6193  -21.8335  -13.4812 O   0  0  0  0  0  0  0  0  0  0  0  0
   25.9931  -20.4869  -14.7829 C   0  0  0  0  0  0  0  0  0  0  0  0
   25.0681  -19.4602  -15.4564 C   0  0  2  0  0  0  0  0  0  0  0  0
   25.7466  -18.2460  -15.7597 N   0  0  0  0  0  0  0  0  0  0  0  0
   23.8458  -19.2922  -14.6566 C   0  0  0  0  0  0  0  0  0  0  0  0
   23.8230  -18.4359  -13.7190 O   0  0  0  0  0  0  0  0  0  0  0  0
   20.7938  -15.2137  -12.8587 C   0  0  0  0  0  0  0  0  0  0  0  0
   19.3806  -16.2185  -13.4387 S   0  0  0  0  0  0  0  0  0  0  0  0
   19.7747  -17.9785  -13.4716 C   0  0  0  0  0  0  0  0  0  0  0  0
   21.0728  -18.3515  -14.0712 C   0  0  0  0  0  0  0  0  0  0  0  0
   21.4099  -19.7667  -14.0937 C   0  0  2  0  0  0  0  0  0  0  0  0
   22.6533  -20.0186  -14.8415 N   0  0  0  0  0  0  0  0  0  0  0  0
   20.3652  -20.6842  -14.5099 C   0  0  0  0  0  0  0  0  0  0  0  0
   20.3587  -21.2052  -15.6437 O   0  0  0  0  0  0  0  0  0  0  0  0
   19.3197  -21.0228  -13.6517 O   0  0  0  0  0  0  0  0  0  0  0  0
  2  1  1  6
  2  3  1  0
  3  4  1  0
  4  5  2  0
  5  6  1  0
  7  6  2  0
  8  7  1  0
  9  8  2  0
  9  4  1  0
 10 11  2  0
 10  2  1  0
 13 15  1  0
 13 12  1  0
 14 13  2  0
 16 15  1  1
 16 17  1  0
 17 10  1  0
 18 16  1  0
 18 25  1  0
 19 18  2  0
 21 20  1  0
 22 21  1  0
 23 22  1  0
 24 23  1  6
 24 25  1  0
 26 28  1  0
 26 24  1  0
 27 26  2  0
M  END
$$$$
