FNM.pdb
     RDKit          3D

 28 28  0  0  1  0  0  0  0  0999 V2000
   22.1260  -14.0260  -16.5512 N   0  0  0  0  0  0  0  0  0  0  0  0
   22.0380  -12.6769  -17.0277 C   0  0  1  0  0  0  0  0  0  0  0  0
   20.5860  -12.3971  -17.3488 C   0  0  0  0  0  0  0  0  0  0  0  0
   20.0522  -13.1811  -18.4634 C   0  0  0  0  0  0  0  0  0  0  0  0
   19.1532  -14.2185  -18.2345 C   0  0  0  0  0  0  0  0  0  0  0  0
   18.6607  -14.9490  -19.2885 C   0  0  0  0  0  0  0  0  0  0  0  0
   19.0255  -14.6958  -20.5967 C   0  0  0  0  0  0  0  0  0  0  0  0
   19.9118  -13.6736  -20.8282 C   0  0  0  0  0  0  0  0  0  0  0  0
   20.4115  -12.9324  -19.7629 C   0  0  0  0  0  0  0  0  0  0  0  0
   22.5881  -11.6989  -16.0601 C   0  0  0  0  0  0  0  0  0  0  0  0
   22.4401  -11.9586  -14.8166 O   0  0  0  0  0  0  0  0  0  0  0  0
   25.7203  -11.7853  -15.0065 N   0  0  0  0  0  0  0  0  0  0  0  0
   26.0945  -10.4800  -15.3652 C   0  0  0  0  0  0  0  0  0  0  0  0
   27.3382  -10.2940  -15.5545 O   0  0  0  0  0  0  0  0  0  0  0  0
   25.2296   -9.3199  -15.5452 C   0  0  0  0  0  0  0  0  0  0  0  0
   23.7354   -9.6413  -15.3796 C   0  0  2  0  0  0  0  0  0  0  0  0
   23.2583  -10.5115  -16.4003 N   0  0  0  0  0  0  0  0  0  0  0  0
   22.9713   -8.3933  -15.2360 C   0  0  0  0  0  0  0  0  0  0  0  0
   22.3339   -7.9305  -16.2322 O   0  0  0  0  0  0  0  0  0  0  0  0
   21.5633   -1.1050  -15.1922 C   0  0  0  0  0  0  0  0  0  0  0  0
   22.6168   -2.5951  -15.3058 S   0  0  0  0  0  0  0  0  0  0  0  0
   21.8852   -4.0034  -14.4483 C   0  0  0  0  0  0  0  0  0  0  0  0
   22.6721   -5.2543  -14.4463 C   0  0  0  0  0  0  0  0  0  0  0  0
   22.0284   -6.4409  -13.9037 C   0  0  2  0  0  0  0  0  0  0  0  0
   22.8758   -7.6363  -14.0521 N   0  0  0  0  0  0  0  0  0  0  0  0
   20.6734   -6.7137  -14.3462 C   0  0  0  0  0  0  0  0  0  0  0  0
   20.3884   -6.8466  -15.5537 O   0  0  0  0  0  0  0  0  0  0  0  0
   19.6284   -6.8396  -13.4316 O   0  0  0  0  0  0  0  0  0  0  0  0
  2  1  1  1
  2  3  1  0
  3  4  1  0
  4  5  2  0
  5  6  1  0
  7  6  2  0
  8  7  1  0
  9  8  2  0
  9  4  1  0
 10 11  2  0
 10  2  1  0
 13 15  1  0
 13 12  1  0
 14 13  2  0
 16 15  1  6
 16 17  1  0
 17 10  1  0
 18 16  1  0
 18 25  1  0
 19 18  2  0
 21 20  1  0
 22 21  1  0
 23 22  1  0
 24 23  1  6
 24 25  1  0
 26 28  1  0
 26 24  1  0
 27 26  2  0
M  END
$$$$
