FNM.pdb
     RDKit          3D

 28 28  0  0  1  0  0  0  0  0999 V2000
   21.7416  -12.2642  -19.0318 N   0  0  0  0  0  0  0  0  0  0  0  0
   20.5709  -11.4424  -18.9354 C   0  0  1  0  0  0  0  0  0  0  0  0
   19.5844  -12.1522  -18.0340 C   0  0  0  0  0  0  0  0  0  0  0  0
   19.0128  -13.3718  -18.6066 C   0  0  0  0  0  0  0  0  0  0  0  0
   18.1256  -13.3047  -19.6768 C   0  0  0  0  0  0  0  0  0  0  0  0
   17.5935  -14.4561  -20.2043 C   0  0  0  0  0  0  0  0  0  0  0  0
   17.9055  -15.7077  -19.7096 C   0  0  0  0  0  0  0  0  0  0  0  0
   18.7801  -15.7797  -18.6543 C   0  0  0  0  0  0  0  0  0  0  0  0
   19.3204  -14.6155  -18.1186 C   0  0  0  0  0  0  0  0  0  0  0  0
   20.8780  -10.0763  -18.4507 C   0  0  0  0  0  0  0  0  0  0  0  0
   21.7094   -9.9707  -17.4847 O   0  0  0  0  0  0  0  0  0  0  0  0
   21.4483   -4.8772  -17.6821 N   0  0  0  0  0  0  0  0  0  0  0  0
   20.6362   -5.1532  -18.7943 C   0  0  0  0  0  0  0  0  0  0  0  0
   20.2180   -4.1394  -19.4383 O   0  0  0  0  0  0  0  0  0  0  0  0
   20.2189   -6.4577  -19.2944 C   0  0  0  0  0  0  0  0  0  0  0  0
   20.7175   -7.6294  -18.4331 C   0  0  2  0  0  0  0  0  0  0  0  0
   20.3293   -8.8904  -18.9679 N   0  0  0  0  0  0  0  0  0  0  0  0
   20.3297   -7.4163  -17.0310 C   0  0  0  0  0  0  0  0  0  0  0  0
   19.1342   -7.6463  -16.6694 O   0  0  0  0  0  0  0  0  0  0  0  0
   22.8580  -10.2491  -12.2895 C   0  0  0  0  0  0  0  0  0  0  0  0
   21.6738   -9.2227  -11.3476 S   0  0  0  0  0  0  0  0  0  0  0  0
   21.0284   -7.8599  -12.3375 C   0  0  0  0  0  0  0  0  0  0  0  0
   21.3988   -7.8522  -13.7682 C   0  0  0  0  0  0  0  0  0  0  0  0
   20.7997   -6.8212  -14.6019 C   0  0  2  0  0  0  0  0  0  0  0  0
   21.1933   -6.9655  -16.0136 N   0  0  0  0  0  0  0  0  0  0  0  0
   20.9576   -5.4470  -14.1624 C   0  0  0  0  0  0  0  0  0  0  0  0
   21.9556   -4.7658  -14.4739 O   0  0  0  0  0  0  0  0  0  0  0  0
   19.9919   -4.8288  -13.3690 O   0  0  0  0  0  0  0  0  0  0  0  0
  2  1  1  1
  2  3  1  0
  3  4  1  0
  4  5  2  0
  5  6  1  0
  7  6  2  0
  8  7  1  0
  9  8  2  0
  9  4  1  0
 10 11  2  0
 10  2  1  0
 13 15  1  0
 13 12  1  0
 14 13  2  0
 16 15  1  6
 16 17  1  0
 17 10  1  0
 18 16  1  0
 18 25  1  0
 19 18  2  0
 21 20  1  0
 22 21  1  0
 23 22  1  0
 24 23  1  1
 24 25  1  0
 26 28  1  0
 26 24  1  0
 27 26  2  0
M  END
$$$$
