FNM.pdb
     RDKit          3D

 28 28  0  0  1  0  0  0  0  0999 V2000
   17.3163  -11.8202  -14.6299 N   0  0  0  0  0  0  0  0  0  0  0  0
   17.3379  -10.4343  -14.9957 C   0  0  1  0  0  0  0  0  0  0  0  0
   15.9292  -10.0391  -15.3814 C   0  0  0  0  0  0  0  0  0  0  0  0
   15.4444  -10.6596  -16.6150 C   0  0  0  0  0  0  0  0  0  0  0  0
   16.2637  -10.7420  -17.7370 C   0  0  0  0  0  0  0  0  0  0  0  0
   15.7969  -11.3244  -18.8903 C   0  0  0  0  0  0  0  0  0  0  0  0
   14.5209  -11.8444  -18.9904 C   0  0  0  0  0  0  0  0  0  0  0  0
   13.7087  -11.7660  -17.8868 C   0  0  0  0  0  0  0  0  0  0  0  0
   14.1791  -11.1771  -16.7180 C   0  0  0  0  0  0  0  0  0  0  0  0
   17.8773   -9.5736  -13.9169 C   0  0  0  0  0  0  0  0  0  0  0  0
   17.7112   -9.9706  -12.7127 O   0  0  0  0  0  0  0  0  0  0  0  0
   21.5363   -8.7153  -13.6787 N   0  0  0  0  0  0  0  0  0  0  0  0
   21.3361   -7.3272  -13.6021 C   0  0  0  0  0  0  0  0  0  0  0  0
   22.3645   -6.6083  -13.8095 O   0  0  0  0  0  0  0  0  0  0  0  0
   20.0951   -6.6178  -13.3144 C   0  0  0  0  0  0  0  0  0  0  0  0
   18.9174   -7.5530  -12.9957 C   0  0  2  0  0  0  0  0  0  0  0  0
   18.5556   -8.3584  -14.1124 N   0  0  0  0  0  0  0  0  0  0  0  0
   17.8092   -6.7781  -12.4183 C   0  0  0  0  0  0  0  0  0  0  0  0
   16.9579   -6.2333  -13.1873 O   0  0  0  0  0  0  0  0  0  0  0  0
   13.2757   -5.2309   -6.0197 C   0  0  0  0  0  0  0  0  0  0  0  0
   14.6219   -6.2014   -6.7872 S   0  0  0  0  0  0  0  0  0  0  0  0
   14.9945   -5.6314   -8.4576 C   0  0  0  0  0  0  0  0  0  0  0  0
   16.0608   -6.3575   -9.1785 C   0  0  0  0  0  0  0  0  0  0  0  0
   16.4482   -5.8418  -10.4827 C   0  0  2  0  0  0  0  0  0  0  0  0
   17.5953   -6.5778  -11.0406 N   0  0  0  0  0  0  0  0  0  0  0  0
   16.6570   -4.4093  -10.5872 C   0  0  0  0  0  0  0  0  0  0  0  0
   15.7054   -3.6022  -10.5794 O   0  0  0  0  0  0  0  0  0  0  0  0
   17.9397   -3.8746  -10.7005 O   0  0  0  0  0  0  0  0  0  0  0  0
  2  1  1  1
  2  3  1  0
  3  4  1  0
  4  5  2  0
  5  6  1  0
  7  6  2  0
  8  7  1  0
  9  8  2  0
  9  4  1  0
 10 11  2  0
 10  2  1  0
 13 15  1  0
 13 12  1  0
 14 13  2  0
 16 15  1  6
 16 17  1  0
 17 10  1  0
 18 16  1  0
 18 25  1  0
 19 18  2  0
 21 20  1  0
 22 21  1  0
 23 22  1  0
 24 23  1  1
 24 25  1  0
 26 28  1  0
 26 24  1  0
 27 26  2  0
M  END
$$$$
