FNM.pdb
     RDKit          3D

 28 28  0  0  1  0  0  0  0  0999 V2000
   24.1573  -12.4859  -17.5411 N   0  0  0  0  0  0  0  0  0  0  0  0
   24.2222  -11.5680  -16.4419 C   0  0  1  0  0  0  0  0  0  0  0  0
   25.6019  -10.9467  -16.4431 C   0  0  0  0  0  0  0  0  0  0  0  0
   26.6995  -11.9136  -16.3947 C   0  0  0  0  0  0  0  0  0  0  0  0
   26.8775  -12.7294  -15.2813 C   0  0  0  0  0  0  0  0  0  0  0  0
   27.9128  -13.6316  -15.2462 C   0  0  0  0  0  0  0  0  0  0  0  0
   28.8072  -13.7698  -16.2900 C   0  0  0  0  0  0  0  0  0  0  0  0
   28.6361  -12.9679  -17.3907 C   0  0  0  0  0  0  0  0  0  0  0  0
   27.5886  -12.0540  -17.4287 C   0  0  0  0  0  0  0  0  0  0  0  0
   23.1545  -10.5422  -16.4987 C   0  0  0  0  0  0  0  0  0  0  0  0
   22.0898  -10.8400  -17.1416 O   0  0  0  0  0  0  0  0  0  0  0  0
   19.5656   -6.8900  -15.7928 N   0  0  0  0  0  0  0  0  0  0  0  0
   19.6564   -8.2223  -15.3577 C   0  0  0  0  0  0  0  0  0  0  0  0
   18.5707   -8.7467  -14.9532 O   0  0  0  0  0  0  0  0  0  0  0  0
   20.8421   -9.0698  -15.3157 C   0  0  0  0  0  0  0  0  0  0  0  0
   22.0866   -8.4091  -15.9305 C   0  0  2  0  0  0  0  0  0  0  0  0
   23.2193   -9.2710  -15.9031 N   0  0  0  0  0  0  0  0  0  0  0  0
   22.3068   -7.0928  -15.3135 C   0  0  0  0  0  0  0  0  0  0  0  0
   22.5208   -7.0141  -14.0642 O   0  0  0  0  0  0  0  0  0  0  0  0
   26.0486   -3.5306  -19.6207 C   0  0  0  0  0  0  0  0  0  0  0  0
   24.7479   -2.8470  -18.5326 S   0  0  0  0  0  0  0  0  0  0  0  0
   24.2379   -4.0287  -17.2688 C   0  0  0  0  0  0  0  0  0  0  0  0
   23.1180   -3.6175  -16.3965 C   0  0  0  0  0  0  0  0  0  0  0  0
   22.6706   -4.5756  -15.3971 C   0  0  2  0  0  0  0  0  0  0  0  0
   22.3041   -5.8658  -16.0052 N   0  0  0  0  0  0  0  0  0  0  0  0
   21.6413   -4.1312  -14.4755 C   0  0  0  0  0  0  0  0  0  0  0  0
   21.8412   -3.2093  -13.6587 O   0  0  0  0  0  0  0  0  0  0  0  0
   20.3780   -4.7214  -14.4672 O   0  0  0  0  0  0  0  0  0  0  0  0
  2  1  1  6
  2  3  1  0
  3  4  1  0
  4  5  2  0
  5  6  1  0
  7  6  2  0
  8  7  1  0
  9  8  2  0
  9  4  1  0
 10 11  2  0
 10  2  1  0
 13 15  1  0
 13 12  1  0
 14 13  2  0
 16 15  1  1
 16 17  1  0
 17 10  1  0
 18 16  1  0
 18 25  1  0
 19 18  2  0
 21 20  1  0
 22 21  1  0
 23 22  1  0
 24 23  1  6
 24 25  1  0
 26 28  1  0
 26 24  1  0
 27 26  2  0
M  END
$$$$
