FNM.pdb
     RDKit          3D

 28 28  0  0  1  0  0  0  0  0999 V2000
   20.3524  -14.6335  -18.1379 N   0  0  0  0  0  0  0  0  0  0  0  0
   20.2537  -14.0707  -16.8232 C   0  0  1  0  0  0  0  0  0  0  0  0
   21.4700  -14.5154  -16.0407 C   0  0  0  0  0  0  0  0  0  0  0  0
   21.4768  -15.9366  -15.6914 C   0  0  0  0  0  0  0  0  0  0  0  0
   20.7988  -16.3934  -14.5651 C   0  0  0  0  0  0  0  0  0  0  0  0
   20.8143  -17.7294  -14.2458 C   0  0  0  0  0  0  0  0  0  0  0  0
   21.4882  -18.6631  -15.0092 C   0  0  0  0  0  0  0  0  0  0  0  0
   22.1584  -18.2180  -16.1213 C   0  0  0  0  0  0  0  0  0  0  0  0
   22.1439  -16.8660  -16.4468 C   0  0  0  0  0  0  0  0  0  0  0  0
   20.1224  -12.5950  -16.8487 C   0  0  0  0  0  0  0  0  0  0  0  0
   20.7601  -11.9660  -17.7615 O   0  0  0  0  0  0  0  0  0  0  0  0
   18.8740   -7.5177  -16.3065 N   0  0  0  0  0  0  0  0  0  0  0  0
   17.9628   -8.3678  -15.6586 C   0  0  0  0  0  0  0  0  0  0  0  0
   16.8834   -7.8232  -15.2642 O   0  0  0  0  0  0  0  0  0  0  0  0
   18.1083   -9.7930  -15.3869 C   0  0  0  0  0  0  0  0  0  0  0  0
   19.3585  -10.4127  -16.0319 C   0  0  2  0  0  0  0  0  0  0  0  0
   19.3541  -11.8340  -15.9512 N   0  0  0  0  0  0  0  0  0  0  0  0
   20.5666   -9.7748  -15.4884 C   0  0  0  0  0  0  0  0  0  0  0  0
   21.4963  -10.4969  -15.0119 O   0  0  0  0  0  0  0  0  0  0  0  0
   26.4066  -11.1631  -14.8616 C   0  0  0  0  0  0  0  0  0  0  0  0
   25.5305   -9.8973  -15.8481 S   0  0  0  0  0  0  0  0  0  0  0  0
   24.1195   -9.2091  -14.9595 C   0  0  0  0  0  0  0  0  0  0  0  0
   23.2025   -8.3537  -15.7414 C   0  0  0  0  0  0  0  0  0  0  0  0
   22.0716   -7.7740  -15.0329 C   0  0  2  0  0  0  0  0  0  0  0  0
   20.7978   -8.3860  -15.4470 N   0  0  0  0  0  0  0  0  0  0  0  0
   21.9695   -6.3263  -15.0313 C   0  0  0  0  0  0  0  0  0  0  0  0
   21.1153   -5.7249  -15.7137 O   0  0  0  0  0  0  0  0  0  0  0  0
   22.8286   -5.5443  -14.2601 O   0  0  0  0  0  0  0  0  0  0  0  0
  2  1  1  6
  2  3  1  0
  3  4  1  0
  4  5  2  0
  5  6  1  0
  7  6  2  0
  8  7  1  0
  9  8  2  0
  9  4  1  0
 10 11  2  0
 10  2  1  0
 13 15  1  0
 13 12  1  0
 14 13  2  0
 16 15  1  1
 16 17  1  0
 17 10  1  0
 18 16  1  0
 18 25  1  0
 19 18  2  0
 21 20  1  0
 22 21  1  0
 23 22  1  0
 24 23  1  6
 24 25  1  0
 26 28  1  0
 26 24  1  0
 27 26  2  0
M  END
$$$$
