FNM.pdb
     RDKit          3D

 28 28  0  0  1  0  0  0  0  0999 V2000
   24.0015  -35.3645  -11.0360 N   0  0  0  0  0  0  0  0  0  0  0  0
   23.7824  -34.1171  -10.3643 C   0  0  1  0  0  0  0  0  0  0  0  0
   22.4219  -33.6033  -10.7823 C   0  0  0  0  0  0  0  0  0  0  0  0
   22.3391  -33.1829  -12.1817 C   0  0  0  0  0  0  0  0  0  0  0  0
   21.8945  -34.0650  -13.1621 C   0  0  0  0  0  0  0  0  0  0  0  0
   21.8232  -33.6599  -14.4728 C   0  0  0  0  0  0  0  0  0  0  0  0
   22.1814  -32.3869  -14.8725 C   0  0  0  0  0  0  0  0  0  0  0  0
   22.6203  -31.5128  -13.9096 C   0  0  0  0  0  0  0  0  0  0  0  0
   22.6930  -31.9204  -12.5820 C   0  0  0  0  0  0  0  0  0  0  0  0
   23.8981  -34.2402   -8.8923 C   0  0  0  0  0  0  0  0  0  0  0  0
   23.6132  -35.3746   -8.3752 O   0  0  0  0  0  0  0  0  0  0  0  0
   26.9745  -34.7232   -6.8175 N   0  0  0  0  0  0  0  0  0  0  0  0
   26.7952  -33.4884   -6.1725 C   0  0  0  0  0  0  0  0  0  0  0  0
   27.8522  -32.9388   -5.7275 O   0  0  0  0  0  0  0  0  0  0  0  0
   25.5469  -32.7670   -5.9546 C   0  0  0  0  0  0  0  0  0  0  0  0
   24.3317  -33.4364   -6.6165 C   0  0  2  0  0  0  0  0  0  0  0  0
   24.2954  -33.2110   -8.0217 N   0  0  0  0  0  0  0  0  0  0  0  0
   23.1035  -33.0519   -5.9054 C   0  0  0  0  0  0  0  0  0  0  0  0
   22.6171  -31.8914   -6.0770 O   0  0  0  0  0  0  0  0  0  0  0  0
   16.1010  -35.2494   -2.9372 C   0  0  0  0  0  0  0  0  0  0  0  0
   17.7067  -35.7240   -3.6716 S   0  0  0  0  0  0  0  0  0  0  0  0
   18.8402  -34.3245   -3.7736 C   0  0  0  0  0  0  0  0  0  0  0  0
   20.1690  -34.5948   -4.3611 C   0  0  0  0  0  0  0  0  0  0  0  0
   21.1257  -33.4987   -4.3677 C   0  0  2  0  0  0  0  0  0  0  0  0
   22.3891  -33.8824   -5.0200 N   0  0  0  0  0  0  0  0  0  0  0  0
   21.3814  -32.8422   -3.0988 C   0  0  0  0  0  0  0  0  0  0  0  0
   22.3442  -33.1630   -2.3729 O   0  0  0  0  0  0  0  0  0  0  0  0
   20.5546  -31.8184   -2.6379 O   0  0  0  0  0  0  0  0  0  0  0  0
  2  1  1  6
  2  3  1  0
  3  4  1  0
  4  5  2  0
  5  6  1  0
  7  6  2  0
  8  7  1  0
  9  8  2  0
  9  4  1  0
 10 11  2  0
 10  2  1  0
 13 15  1  0
 13 12  1  0
 14 13  2  0
 16 15  1  1
 16 17  1  0
 17 10  1  0
 18 16  1  0
 18 25  1  0
 19 18  2  0
 21 20  1  0
 22 21  1  0
 23 22  1  0
 24 23  1  1
 24 25  1  0
 26 28  1  0
 26 24  1  0
 27 26  2  0
M  END
$$$$
