FNM.pdb
     RDKit          3D

 28 28  0  0  1  0  0  0  0  0999 V2000
   15.2645  -14.9403    6.2104 N   0  0  0  0  0  0  0  0  0  0  0  0
   16.3777  -15.5445    5.5391 C   0  0  1  0  0  0  0  0  0  0  0  0
   17.6357  -14.8622    6.0302 C   0  0  0  0  0  0  0  0  0  0  0  0
   18.3040  -14.0329    5.0264 C   0  0  0  0  0  0  0  0  0  0  0  0
   18.8858  -12.8197    5.3820 C   0  0  0  0  0  0  0  0  0  0  0  0
   19.5083  -12.0486    4.4306 C   0  0  0  0  0  0  0  0  0  0  0  0
   19.5850  -12.4307    3.1052 C   0  0  0  0  0  0  0  0  0  0  0  0
   19.0130  -13.6265    2.7491 C   0  0  0  0  0  0  0  0  0  0  0  0
   18.3826  -14.4090    3.7104 C   0  0  0  0  0  0  0  0  0  0  0  0
   16.4303  -17.0116    5.7405 C   0  0  0  0  0  0  0  0  0  0  0  0
   16.2353  -17.4472    6.9270 O   0  0  0  0  0  0  0  0  0  0  0  0
   16.9570  -22.2460    5.4791 N   0  0  0  0  0  0  0  0  0  0  0  0
   16.5418  -21.6799    4.2626 C   0  0  0  0  0  0  0  0  0  0  0  0
   16.1799  -22.5043    3.3645 O   0  0  0  0  0  0  0  0  0  0  0  0
   16.4772  -20.2663    3.9107 C   0  0  0  0  0  0  0  0  0  0  0  0
   16.8586  -19.3309    5.0695 C   0  0  2  0  0  0  0  0  0  0  0  0
   16.6768  -17.9597    4.7329 N   0  0  0  0  0  0  0  0  0  0  0  0
   18.2049  -19.6660    5.5564 C   0  0  0  0  0  0  0  0  0  0  0  0
   19.2202  -19.3380    4.8676 O   0  0  0  0  0  0  0  0  0  0  0  0
   23.2734  -16.5351    8.3778 C   0  0  0  0  0  0  0  0  0  0  0  0
   22.0272  -17.6886    9.0557 S   0  0  0  0  0  0  0  0  0  0  0  0
   21.4251  -18.8403    7.8047 C   0  0  0  0  0  0  0  0  0  0  0  0
   20.3284  -19.7425    8.2136 C   0  0  0  0  0  0  0  0  0  0  0  0
   19.8403  -20.6850    7.2186 C   0  0  2  0  0  0  0  0  0  0  0  0
   18.4835  -20.3403    6.7612 N   0  0  0  0  0  0  0  0  0  0  0  0
   19.9276  -22.0951    7.5509 C   0  0  0  0  0  0  0  0  0  0  0  0
   18.9356  -22.7426    7.9433 O   0  0  0  0  0  0  0  0  0  0  0  0
   21.1331  -22.7875    7.4431 O   0  0  0  0  0  0  0  0  0  0  0  0
  2  1  1  1
  2  3  1  0
  3  4  1  0
  4  5  2  0
  5  6  1  0
  7  6  2  0
  8  7  1  0
  9  8  2  0
  9  4  1  0
 10 11  2  0
 10  2  1  0
 13 15  1  0
 13 12  1  0
 14 13  2  0
 16 15  1  6
 16 17  1  0
 17 10  1  0
 18 16  1  0
 18 25  1  0
 19 18  2  0
 21 20  1  0
 22 21  1  0
 23 22  1  0
 24 23  1  1
 24 25  1  0
 26 28  1  0
 26 24  1  0
 27 26  2  0
M  END
$$$$
