FNM.pdb
     RDKit          3D

 28 28  0  0  1  0  0  0  0  0999 V2000
   14.5908  -13.2995    5.3305 N   0  0  0  0  0  0  0  0  0  0  0  0
   15.9805  -13.5904    5.5286 C   0  0  1  0  0  0  0  0  0  0  0  0
   16.6535  -12.3191    5.9978 C   0  0  0  0  0  0  0  0  0  0  0  0
   18.0907  -12.4509    6.2405 C   0  0  0  0  0  0  0  0  0  0  0  0
   19.0096  -12.1498    5.2395 C   0  0  0  0  0  0  0  0  0  0  0  0
   20.3562  -12.2797    5.4782 C   0  0  0  0  0  0  0  0  0  0  0  0
   20.8525  -12.7058    6.6950 C   0  0  0  0  0  0  0  0  0  0  0  0
   19.9507  -13.0039    7.6858 C   0  0  0  0  0  0  0  0  0  0  0  0
   18.5869  -12.8729    7.4467 C   0  0  0  0  0  0  0  0  0  0  0  0
   16.1939  -14.7102    6.4753 C   0  0  0  0  0  0  0  0  0  0  0  0
   15.1654  -15.1689    7.0814 O   0  0  0  0  0  0  0  0  0  0  0  0
   17.8797  -19.7582    4.9086 N   0  0  0  0  0  0  0  0  0  0  0  0
   17.1055  -18.8927    5.6986 C   0  0  0  0  0  0  0  0  0  0  0  0
   16.3959  -19.4492    6.5952 O   0  0  0  0  0  0  0  0  0  0  0  0
   17.0205  -17.4397    5.6120 C   0  0  0  0  0  0  0  0  0  0  0  0
   17.5397  -16.7220    6.8684 C   0  0  2  0  0  0  0  0  0  0  0  0
   17.4344  -15.3065    6.7588 N   0  0  0  0  0  0  0  0  0  0  0  0
   18.8870  -17.2095    7.1985 C   0  0  0  0  0  0  0  0  0  0  0  0
   19.1013  -18.4593    7.2701 O   0  0  0  0  0  0  0  0  0  0  0  0
   21.3014  -13.8002   12.5142 C   0  0  0  0  0  0  0  0  0  0  0  0
   20.7885  -15.5551   12.5315 S   0  0  0  0  0  0  0  0  0  0  0  0
   21.2685  -16.4115   11.0182 C   0  0  0  0  0  0  0  0  0  0  0  0
   20.4527  -16.1341    9.8176 C   0  0  0  0  0  0  0  0  0  0  0  0
   20.9641  -16.6158    8.5435 C   0  0  2  0  0  0  0  0  0  0  0  0
   20.0038  -16.3889    7.4503 N   0  0  0  0  0  0  0  0  0  0  0  0
   21.4685  -17.9763    8.5101 C   0  0  0  0  0  0  0  0  0  0  0  0
   20.7233  -18.9501    8.2789 O   0  0  0  0  0  0  0  0  0  0  0  0
   22.8167  -18.2506    8.7362 O   0  0  0  0  0  0  0  0  0  0  0  0
  2  1  1  1
  2  3  1  0
  3  4  1  0
  4  5  2  0
  5  6  1  0
  7  6  2  0
  8  7  1  0
  9  8  2  0
  9  4  1  0
 10 11  2  0
 10  2  1  0
 13 15  1  0
 13 12  1  0
 14 13  2  0
 16 15  1  6
 16 17  1  0
 17 10  1  0
 18 16  1  0
 18 25  1  0
 19 18  2  0
 21 20  1  0
 22 21  1  0
 23 22  1  0
 24 23  1  1
 24 25  1  0
 26 28  1  0
 26 24  1  0
 27 26  2  0
M  END
$$$$
