FNM.pdb
     RDKit          3D

 28 28  0  0  1  0  0  0  0  0999 V2000
   27.6111  -21.3808  -14.2925 N   0  0  0  0  0  0  0  0  0  0  0  0
   26.6802  -21.3890  -13.2024 C   0  0  1  0  0  0  0  0  0  0  0  0
   27.0614  -20.2646  -12.2644 C   0  0  0  0  0  0  0  0  0  0  0  0
   28.2987  -20.4948  -11.5174 C   0  0  0  0  0  0  0  0  0  0  0  0
   28.2696  -21.1091  -10.2689 C   0  0  0  0  0  0  0  0  0  0  0  0
   29.4372  -21.3177   -9.5758 C   0  0  0  0  0  0  0  0  0  0  0  0
   30.6687  -20.9365  -10.0726 C   0  0  0  0  0  0  0  0  0  0  0  0
   30.7032  -20.3304  -11.3036 C   0  0  0  0  0  0  0  0  0  0  0  0
   29.5225  -20.1184  -12.0073 C   0  0  0  0  0  0  0  0  0  0  0  0
   25.2750  -21.2755  -13.6585 C   0  0  0  0  0  0  0  0  0  0  0  0
   25.0131  -20.3772  -14.5303 O   0  0  0  0  0  0  0  0  0  0  0  0
   23.9088  -25.4690  -14.6986 N   0  0  0  0  0  0  0  0  0  0  0  0
   23.2306  -24.2785  -15.0075 C   0  0  0  0  0  0  0  0  0  0  0  0
   23.3577  -23.8645  -16.2032 O   0  0  0  0  0  0  0  0  0  0  0  0
   22.4028  -23.4664  -14.1235 C   0  0  0  0  0  0  0  0  0  0  0  0
   22.9611  -22.0528  -13.8927 C   0  0  2  0  0  0  0  0  0  0  0  0
   24.2101  -22.0752  -13.2099 N   0  0  0  0  0  0  0  0  0  0  0  0
   21.9355  -21.2102  -13.2603 C   0  0  0  0  0  0  0  0  0  0  0  0
   21.6774  -21.3573  -12.0255 O   0  0  0  0  0  0  0  0  0  0  0  0
   20.8541  -15.0379  -14.5595 C   0  0  0  0  0  0  0  0  0  0  0  0
   19.4634  -15.3280  -13.4084 S   0  0  0  0  0  0  0  0  0  0  0  0
   19.3011  -17.0714  -12.9746 C   0  0  0  0  0  0  0  0  0  0  0  0
   20.2773  -17.9961  -13.5879 C   0  0  0  0  0  0  0  0  0  0  0  0
   20.1369  -19.4101  -13.2754 C   0  0  2  0  0  0  0  0  0  0  0  0
   21.1860  -20.2173  -13.9208 N   0  0  0  0  0  0  0  0  0  0  0  0
   18.8292  -20.0030  -13.4871 C   0  0  0  0  0  0  0  0  0  0  0  0
   18.4868  -20.4661  -14.5941 O   0  0  0  0  0  0  0  0  0  0  0  0
   17.8969  -20.0797  -12.4531 O   0  0  0  0  0  0  0  0  0  0  0  0
  2  1  1  6
  2  3  1  0
  3  4  1  0
  4  5  2  0
  5  6  1  0
  7  6  2  0
  8  7  1  0
  9  8  2  0
  9  4  1  0
 10 11  2  0
 10  2  1  0
 13 15  1  0
 13 12  1  0
 14 13  2  0
 16 15  1  1
 16 17  1  0
 17 10  1  0
 18 16  1  0
 18 25  1  0
 19 18  2  0
 21 20  1  0
 22 21  1  0
 23 22  1  0
 24 23  1  6
 24 25  1  0
 26 28  1  0
 26 24  1  0
 27 26  2  0
M  END
$$$$
