AIQ.pdb
     RDKit          3D

 23 22  0  0  1  0  0  0  0  0999 V2000
    8.4173  -19.0546   17.4917 C   0  0  0  0  0  0  0  0  0  0  0  0
    9.0085  -17.7271   17.1545 C   0  0  2  0  0  0  0  0  0  0  0  0
   10.1571  -17.8255   16.2792 N   0  0  0  0  0  0  0  0  0  0  0  0
    9.4340  -16.9678   18.3670 C   0  0  0  0  0  0  0  0  0  0  0  0
   10.6076  -17.1251   18.7399 O   0  0  0  0  0  0  0  0  0  0  0  0
    6.8048  -12.2868   19.5007 C   0  0  0  0  0  0  0  0  0  0  0  0
    7.9313  -13.2579   19.2937 C   0  0  0  0  0  0  0  0  0  0  0  0
    7.9796  -14.2156   20.4631 C   0  0  2  0  0  0  0  0  0  0  0  0
    8.2181  -13.3680   21.6843 C   0  0  0  0  0  0  0  0  0  0  0  0
    8.9737  -15.2896   20.2214 C   0  0  2  0  0  0  0  0  0  0  0  0
    8.5536  -16.1049   19.0701 N   0  0  0  0  0  0  0  0  0  0  0  0
    9.2750  -16.1669   21.3717 C   0  0  0  0  0  0  0  0  0  0  0  0
    8.3302  -16.8959   21.8391 O   0  0  0  0  0  0  0  0  0  0  0  0
   12.3036  -20.9183   21.5970 N   0  0  0  0  0  0  0  0  0  0  0  0
   13.1206  -19.7627   21.5577 C   0  0  0  0  0  0  0  0  0  0  0  0
   14.2642  -19.8462   21.0182 O   0  0  0  0  0  0  0  0  0  0  0  0
   12.6143  -18.5009   22.1373 C   0  0  0  0  0  0  0  0  0  0  0  0
   11.2053  -18.5390   22.6055 C   0  0  0  0  0  0  0  0  0  0  0  0
   10.6986  -17.2644   23.1424 C   0  0  2  0  0  0  0  0  0  0  0  0
   10.5090  -16.2980   22.0272 N   0  0  0  0  0  0  0  0  0  0  0  0
   11.4317  -16.5981   24.1896 C   0  0  0  0  0  0  0  0  0  0  0  0
   11.6493  -17.2379   25.4336 O   0  0  0  0  0  0  0  0  0  0  0  0
   11.9441  -15.4264   24.1356 O   0  0  0  0  0  0  0  0  0  0  0  0
  2  1  1  1
  2  3  1  0
  4  5  2  0
  4  2  1  0
  7  6  1  0
  8  7  1  0
  8 10  1  0
  8  9  1  1
 10 12  1  0
 10 11  1  6
 11  4  1  0
 12 20  1  0
 13 12  2  0
 15 14  1  0
 16 15  2  0
 17 15  1  0
 18 17  1  0
 19 18  1  6
 20 19  1  0
 21 22  1  0
 21 19  1  0
 23 21  2  0
M  END
$$$$
