AIQ.pdb
     RDKit          3D

 23 22  0  0  1  0  0  0  0  0999 V2000
    6.6605  -16.6883   21.3771 C   0  0  0  0  0  0  0  0  0  0  0  0
    6.9568  -15.2266   21.4109 C   0  0  2  0  0  0  0  0  0  0  0  0
    7.6787  -14.7687   20.2429 N   0  0  0  0  0  0  0  0  0  0  0  0
    7.7527  -14.8338   22.6110 C   0  0  0  0  0  0  0  0  0  0  0  0
    8.9882  -14.8535   22.4914 O   0  0  0  0  0  0  0  0  0  0  0  0
    5.9017  -11.2201   26.2148 C   0  0  0  0  0  0  0  0  0  0  0  0
    6.8518  -11.9946   25.3474 C   0  0  0  0  0  0  0  0  0  0  0  0
    7.1122  -13.3429   25.9808 C   0  0  2  0  0  0  0  0  0  0  0  0
    7.7385  -13.0587   27.3200 C   0  0  0  0  0  0  0  0  0  0  0  0
    7.9038  -14.2064   25.0707 C   0  0  2  0  0  0  0  0  0  0  0  0
    7.1433  -14.4540   23.8351 N   0  0  0  0  0  0  0  0  0  0  0  0
    8.3712  -15.4893   25.6356 C   0  0  0  0  0  0  0  0  0  0  0  0
    7.4930  -16.3743   25.9324 O   0  0  0  0  0  0  0  0  0  0  0  0
   12.6772  -19.2221   23.6610 N   0  0  0  0  0  0  0  0  0  0  0  0
   12.3921  -19.8548   24.8951 C   0  0  0  0  0  0  0  0  0  0  0  0
   12.9201  -20.9813   25.1358 O   0  0  0  0  0  0  0  0  0  0  0  0
   11.4986  -19.1821   25.8613 C   0  0  0  0  0  0  0  0  0  0  0  0
   10.9839  -17.8566   25.4321 C   0  0  0  0  0  0  0  0  0  0  0  0
   10.0487  -17.2222   26.3768 C   0  0  2  0  0  0  0  0  0  0  0  0
    9.7007  -15.8603   25.8895 N   0  0  0  0  0  0  0  0  0  0  0  0
   10.4123  -17.1184   27.7679 C   0  0  0  0  0  0  0  0  0  0  0  0
   10.4143  -18.2654   28.5978 O   0  0  0  0  0  0  0  0  0  0  0  0
   10.7556  -16.0533   28.3893 O   0  0  0  0  0  0  0  0  0  0  0  0
  2  1  1  6
  2  3  1  0
  4  5  2  0
  4  2  1  0
  7  6  1  0
  8  7  1  0
  8 10  1  0
  8  9  1  1
 10 12  1  0
 10 11  1  6
 11  4  1  0
 12 20  1  0
 13 12  2  0
 15 14  1  0
 16 15  2  0
 17 15  1  0
 18 17  1  0
 19 18  1  6
 20 19  1  0
 21 22  1  0
 21 19  1  0
 23 21  2  0
M  END
$$$$
