AIQ.pdb
     RDKit          3D

 23 22  0  0  1  0  0  0  0  0999 V2000
    6.7365  -15.8229   20.6796 C   0  0  0  0  0  0  0  0  0  0  0  0
    6.9915  -14.3941   21.0246 C   0  0  2  0  0  0  0  0  0  0  0  0
    7.7040  -13.6801   19.9865 N   0  0  0  0  0  0  0  0  0  0  0  0
    7.7722  -14.2432   22.2878 C   0  0  0  0  0  0  0  0  0  0  0  0
    9.0070  -14.1821   22.1760 O   0  0  0  0  0  0  0  0  0  0  0  0
    5.6461  -11.4366   26.3298 C   0  0  0  0  0  0  0  0  0  0  0  0
    6.6439  -12.0072   25.3636 C   0  0  0  0  0  0  0  0  0  0  0  0
    7.0675  -13.3778   25.8421 C   0  0  2  0  0  0  0  0  0  0  0  0
    7.7193  -13.1666   27.1827 C   0  0  0  0  0  0  0  0  0  0  0  0
    7.9026  -14.0557   24.8205 C   0  0  2  0  0  0  0  0  0  0  0  0
    7.1496  -14.1714   23.5611 N   0  0  0  0  0  0  0  0  0  0  0  0
    8.4488  -15.3754   25.1994 C   0  0  0  0  0  0  0  0  0  0  0  0
    7.6263  -16.3434   25.3694 O   0  0  0  0  0  0  0  0  0  0  0  0
   12.7082  -19.3274   23.0206 N   0  0  0  0  0  0  0  0  0  0  0  0
   12.1920  -18.0384   22.7442 C   0  0  0  0  0  0  0  0  0  0  0  0
   12.6879  -17.3796   21.7820 O   0  0  0  0  0  0  0  0  0  0  0  0
   11.0924  -17.5076   23.5770 C   0  0  0  0  0  0  0  0  0  0  0  0
   11.3401  -17.5273   25.0413 C   0  0  0  0  0  0  0  0  0  0  0  0
   10.2156  -17.0496   25.8641 C   0  0  2  0  0  0  0  0  0  0  0  0
    9.7999  -15.6992   25.3980 N   0  0  0  0  0  0  0  0  0  0  0  0
   10.3601  -17.0013   27.2976 C   0  0  0  0  0  0  0  0  0  0  0  0
   10.5699  -18.1888   28.0392 O   0  0  0  0  0  0  0  0  0  0  0  0
   10.3203  -15.9548   28.0335 O   0  0  0  0  0  0  0  0  0  0  0  0
  2  1  1  6
  2  3  1  0
  4  5  2  0
  4  2  1  0
  7  6  1  0
  8  7  1  0
  8 10  1  0
  8  9  1  1
 10 12  1  0
 10 11  1  6
 11  4  1  0
 12 20  1  0
 13 12  2  0
 15 14  1  0
 16 15  2  0
 17 15  1  0
 18 17  1  0
 19 18  1  6
 20 19  1  0
 21 22  1  0
 21 19  1  0
 23 21  2  0
M  END
$$$$
