AIQ.pdb
     RDKit          3D

 23 22  0  0  1  0  0  0  0  0999 V2000
    6.3762  -16.1417   21.0654 C   0  0  0  0  0  0  0  0  0  0  0  0
    6.9488  -14.7680   21.1687 C   0  0  2  0  0  0  0  0  0  0  0  0
    7.7970  -14.4231   20.0476 N   0  0  0  0  0  0  0  0  0  0  0  0
    7.7517  -14.5770   22.4123 C   0  0  0  0  0  0  0  0  0  0  0  0
    8.9824  -14.6996   22.3057 O   0  0  0  0  0  0  0  0  0  0  0  0
    5.8920  -11.2740   26.3094 C   0  0  0  0  0  0  0  0  0  0  0  0
    6.8467  -11.9604   25.3755 C   0  0  0  0  0  0  0  0  0  0  0  0
    7.1349  -13.3504   25.8968 C   0  0  2  0  0  0  0  0  0  0  0  0
    7.7795  -13.1632   27.2444 C   0  0  0  0  0  0  0  0  0  0  0  0
    7.9224  -14.1286   24.9096 C   0  0  2  0  0  0  0  0  0  0  0  0
    7.1539  -14.2701   23.6623 N   0  0  0  0  0  0  0  0  0  0  0  0
    8.3972  -15.4544   25.3573 C   0  0  0  0  0  0  0  0  0  0  0  0
    7.5406  -16.4031   25.4501 O   0  0  0  0  0  0  0  0  0  0  0  0
   12.8060  -18.6808   22.9863 N   0  0  0  0  0  0  0  0  0  0  0  0
   12.6086  -19.4641   24.1491 C   0  0  0  0  0  0  0  0  0  0  0  0
   13.2746  -20.5341   24.2803 O   0  0  0  0  0  0  0  0  0  0  0  0
   11.6429  -19.0081   25.1708 C   0  0  0  0  0  0  0  0  0  0  0  0
   11.1177  -17.6324   24.9773 C   0  0  0  0  0  0  0  0  0  0  0  0
   10.1004  -17.2164   25.9579 C   0  0  2  0  0  0  0  0  0  0  0  0
    9.7127  -15.8034   25.6999 N   0  0  0  0  0  0  0  0  0  0  0  0
   10.3798  -17.3520   27.3657 C   0  0  0  0  0  0  0  0  0  0  0  0
   10.4329  -18.6321   27.9679 O   0  0  0  0  0  0  0  0  0  0  0  0
   10.6001  -16.4018   28.1946 O   0  0  0  0  0  0  0  0  0  0  0  0
  2  1  1  6
  2  3  1  0
  4  5  2  0
  4  2  1  0
  7  6  1  0
  8  7  1  0
  8 10  1  0
  8  9  1  1
 10 12  1  0
 10 11  1  6
 11  4  1  0
 12 20  1  0
 13 12  2  0
 15 14  1  0
 16 15  2  0
 17 15  1  0
 18 17  1  0
 19 18  1  6
 20 19  1  0
 21 22  1  0
 21 19  1  0
 23 21  2  0
M  END
$$$$
