AIQ.pdb
     RDKit          3D

 23 22  0  0  1  0  0  0  0  0999 V2000
    6.4337  -15.0588   20.4735 C   0  0  0  0  0  0  0  0  0  0  0  0
    7.1004  -13.7943   20.9001 C   0  0  2  0  0  0  0  0  0  0  0  0
    8.0865  -13.3264   19.9494 N   0  0  0  0  0  0  0  0  0  0  0  0
    7.7810  -13.9264   22.2219 C   0  0  0  0  0  0  0  0  0  0  0  0
    8.9798  -14.2483   22.2020 O   0  0  0  0  0  0  0  0  0  0  0  0
    5.7922  -11.0969   26.4198 C   0  0  0  0  0  0  0  0  0  0  0  0
    6.7530  -11.7171   25.4466 C   0  0  0  0  0  0  0  0  0  0  0  0
    6.9458  -13.1741   25.8028 C   0  0  2  0  0  0  0  0  0  0  0  0
    7.5260  -13.1888   27.1920 C   0  0  0  0  0  0  0  0  0  0  0  0
    7.7466  -13.8669   24.7639 C   0  0  2  0  0  0  0  0  0  0  0  0
    7.1061  -13.6989   23.4494 N   0  0  0  0  0  0  0  0  0  0  0  0
    8.0247  -15.2981   25.0051 C   0  0  0  0  0  0  0  0  0  0  0  0
    7.0508  -16.1262   24.9151 O   0  0  0  0  0  0  0  0  0  0  0  0
   11.9599  -18.2709   21.8231 N   0  0  0  0  0  0  0  0  0  0  0  0
   12.1175  -17.4476   22.9641 C   0  0  0  0  0  0  0  0  0  0  0  0
   12.7654  -16.3650   22.8465 O   0  0  0  0  0  0  0  0  0  0  0  0
   11.5187  -17.8707   24.2474 C   0  0  0  0  0  0  0  0  0  0  0  0
   10.0340  -17.9037   24.2737 C   0  0  0  0  0  0  0  0  0  0  0  0
    9.4256  -17.3396   25.4908 C   0  0  2  0  0  0  0  0  0  0  0  0
    9.2651  -15.8695   25.3283 N   0  0  0  0  0  0  0  0  0  0  0  0
   10.0478  -17.5815   26.7685 C   0  0  0  0  0  0  0  0  0  0  0  0
   10.4588  -16.4998   27.5840 O   0  0  0  0  0  0  0  0  0  0  0  0
   10.2922  -18.7228   27.2941 O   0  0  0  0  0  0  0  0  0  0  0  0
  2  1  1  6
  2  3  1  0
  4  5  2  0
  4  2  1  0
  7  6  1  0
  8  7  1  0
  8 10  1  0
  8  9  1  1
 10 12  1  0
 10 11  1  6
 11  4  1  0
 12 20  1  0
 13 12  2  0
 15 14  1  0
 16 15  2  0
 17 15  1  0
 18 17  1  0
 19 18  1  6
 20 19  1  0
 21 22  1  0
 21 19  1  0
 23 21  2  0
M  END
$$$$
