AIQ.pdb
     RDKit          3D

 23 22  0  0  1  0  0  0  0  0999 V2000
    6.4468  -16.4189   21.0135 C   0  0  0  0  0  0  0  0  0  0  0  0
    6.8135  -14.9768   21.1207 C   0  0  2  0  0  0  0  0  0  0  0  0
    7.5318  -14.4884   19.9629 N   0  0  0  0  0  0  0  0  0  0  0  0
    7.6522  -14.6895   22.3214 C   0  0  0  0  0  0  0  0  0  0  0  0
    8.8820  -14.7768   22.1762 O   0  0  0  0  0  0  0  0  0  0  0  0
    5.7891  -11.2424   26.0545 C   0  0  0  0  0  0  0  0  0  0  0  0
    6.7134  -11.9666   25.1186 C   0  0  0  0  0  0  0  0  0  0  0  0
    7.1257  -13.2785   25.7479 C   0  0  2  0  0  0  0  0  0  0  0  0
    7.8462  -12.9205   27.0204 C   0  0  0  0  0  0  0  0  0  0  0  0
    7.8937  -14.1045   24.7844 C   0  0  2  0  0  0  0  0  0  0  0  0
    7.0881  -14.3330   23.5739 N   0  0  0  0  0  0  0  0  0  0  0  0
    8.4038  -15.3936   25.2960 C   0  0  0  0  0  0  0  0  0  0  0  0
    7.5569  -16.3233   25.5426 O   0  0  0  0  0  0  0  0  0  0  0  0
   13.5228  -18.4594   23.7100 N   0  0  0  0  0  0  0  0  0  0  0  0
   13.1032  -19.2381   24.8154 C   0  0  0  0  0  0  0  0  0  0  0  0
   13.7411  -20.2986   25.0876 O   0  0  0  0  0  0  0  0  0  0  0  0
   11.9457  -18.7885   25.6169 C   0  0  0  0  0  0  0  0  0  0  0  0
   11.3164  -17.5211   25.1658 C   0  0  0  0  0  0  0  0  0  0  0  0
   10.1417  -17.1020   25.9496 C   0  0  2  0  0  0  0  0  0  0  0  0
    9.7439  -15.7258   25.5478 N   0  0  0  0  0  0  0  0  0  0  0  0
   10.2012  -17.1463   27.3892 C   0  0  0  0  0  0  0  0  0  0  0  0
   10.2009  -18.3871   28.0707 O   0  0  0  0  0  0  0  0  0  0  0  0
   10.2577  -16.1426   28.1817 O   0  0  0  0  0  0  0  0  0  0  0  0
  2  1  1  6
  2  3  1  0
  4  5  2  0
  4  2  1  0
  7  6  1  0
  8  7  1  0
  8 10  1  0
  8  9  1  1
 10 12  1  0
 10 11  1  6
 11  4  1  0
 12 20  1  0
 13 12  2  0
 15 14  1  0
 16 15  2  0
 17 15  1  0
 18 17  1  0
 19 18  1  6
 20 19  1  0
 21 22  1  0
 21 19  1  0
 23 21  2  0
M  END
$$$$
