AIQ.pdb
     RDKit          3D

 23 22  0  0  1  0  0  0  0  0999 V2000
    6.7003  -16.7304   21.6314 C   0  0  0  0  0  0  0  0  0  0  0  0
    6.8301  -15.2463   21.7106 C   0  0  2  0  0  0  0  0  0  0  0  0
    7.3484  -14.6583   20.4937 N   0  0  0  0  0  0  0  0  0  0  0  0
    7.7155  -14.8103   22.8303 C   0  0  0  0  0  0  0  0  0  0  0  0
    8.9092  -14.6128   22.5526 O   0  0  0  0  0  0  0  0  0  0  0  0
    5.7441  -11.5611   26.5760 C   0  0  0  0  0  0  0  0  0  0  0  0
    6.7007  -12.2042   25.6136 C   0  0  0  0  0  0  0  0  0  0  0  0
    7.2930  -13.4386   26.2559 C   0  0  2  0  0  0  0  0  0  0  0  0
    8.0411  -12.9566   27.4703 C   0  0  0  0  0  0  0  0  0  0  0  0
    8.0920  -14.2101   25.2726 C   0  0  2  0  0  0  0  0  0  0  0  0
    7.2328  -14.6259   24.1521 N   0  0  0  0  0  0  0  0  0  0  0  0
    8.8220  -15.3800   25.8036 C   0  0  0  0  0  0  0  0  0  0  0  0
    8.1397  -16.3956   26.1850 O   0  0  0  0  0  0  0  0  0  0  0  0
   12.2981  -18.3936   22.4126 N   0  0  0  0  0  0  0  0  0  0  0  0
   12.8907  -17.7124   23.5032 C   0  0  0  0  0  0  0  0  0  0  0  0
   14.1149  -17.9201   23.7555 O   0  0  0  0  0  0  0  0  0  0  0  0
   12.0695  -16.7802   24.3038 C   0  0  0  0  0  0  0  0  0  0  0  0
   12.1050  -17.0046   25.7716 C   0  0  0  0  0  0  0  0  0  0  0  0
   10.8287  -16.7593   26.4646 C   0  0  2  0  0  0  0  0  0  0  0  0
   10.2126  -15.5107   25.9403 N   0  0  0  0  0  0  0  0  0  0  0  0
   10.8081  -16.6958   27.9046 C   0  0  0  0  0  0  0  0  0  0  0  0
   11.0738  -17.8508   28.6789 O   0  0  0  0  0  0  0  0  0  0  0  0
   10.5644  -15.6621   28.6193 O   0  0  0  0  0  0  0  0  0  0  0  0
  2  1  1  6
  2  3  1  0
  4  5  2  0
  4  2  1  0
  7  6  1  0
  8  7  1  0
  8 10  1  0
  8  9  1  1
 10 12  1  0
 10 11  1  6
 11  4  1  0
 12 20  1  0
 13 12  2  0
 15 14  1  0
 16 15  2  0
 17 15  1  0
 18 17  1  0
 19 18  1  6
 20 19  1  0
 21 22  1  0
 21 19  1  0
 23 21  2  0
M  END
$$$$
