AIQ.pdb
     RDKit          3D

 23 22  0  0  1  0  0  0  0  0999 V2000
    6.5835  -16.3832   21.0901 C   0  0  0  0  0  0  0  0  0  0  0  0
    7.0212  -14.9638   21.2290 C   0  0  2  0  0  0  0  0  0  0  0  0
    7.7505  -14.4815   20.0754 N   0  0  0  0  0  0  0  0  0  0  0  0
    7.8855  -14.7482   22.4266 C   0  0  0  0  0  0  0  0  0  0  0  0
    9.1021  -14.9459   22.2790 O   0  0  0  0  0  0  0  0  0  0  0  0
    5.8725  -11.7245   26.3468 C   0  0  0  0  0  0  0  0  0  0  0  0
    6.9376  -12.2646   25.4365 C   0  0  0  0  0  0  0  0  0  0  0  0
    7.4232  -13.5912   25.9763 C   0  0  2  0  0  0  0  0  0  0  0  0
    8.2229  -13.2696   27.2107 C   0  0  0  0  0  0  0  0  0  0  0  0
    8.1405  -14.3545   24.9260 C   0  0  2  0  0  0  0  0  0  0  0  0
    7.3588  -14.3377   23.6789 N   0  0  0  0  0  0  0  0  0  0  0  0
    8.5057  -15.7449   25.2683 C   0  0  0  0  0  0  0  0  0  0  0  0
    8.1022  -16.6833   24.4944 O   0  0  0  0  0  0  0  0  0  0  0  0
   13.9058  -15.6575   24.1490 N   0  0  0  0  0  0  0  0  0  0  0  0
   13.2204  -16.7645   23.5931 C   0  0  0  0  0  0  0  0  0  0  0  0
   13.7680  -17.4041   22.6462 O   0  0  0  0  0  0  0  0  0  0  0  0
   11.8986  -17.1417   24.1363 C   0  0  0  0  0  0  0  0  0  0  0  0
   11.3939  -16.2767   25.2332 C   0  0  0  0  0  0  0  0  0  0  0  0
   10.5138  -16.9558   26.1996 C   0  0  2  0  0  0  0  0  0  0  0  0
    9.2645  -16.1664   26.3711 N   0  0  0  0  0  0  0  0  0  0  0  0
   11.0203  -17.2788   27.5100 C   0  0  0  0  0  0  0  0  0  0  0  0
   10.8508  -16.3774   28.5884 O   0  0  0  0  0  0  0  0  0  0  0  0
   11.6442  -18.3451   27.8452 O   0  0  0  0  0  0  0  0  0  0  0  0
  2  1  1  6
  2  3  1  0
  4  5  2  0
  4  2  1  0
  7  6  1  0
  8  7  1  0
  8 10  1  0
  8  9  1  1
 10 12  1  0
 10 11  1  6
 11  4  1  0
 12 20  1  0
 13 12  2  0
 15 14  1  0
 16 15  2  0
 17 15  1  0
 18 17  1  0
 19 18  1  1
 20 19  1  0
 21 22  1  0
 21 19  1  0
 23 21  2  0
M  END
$$$$
