VPK.pdb
     RDKit          3D

 24 24  0  0  1  0  0  0  0  0999 V2000
    8.1021  -13.1929   27.0277 C   0  0  0  0  0  0  0  0  0  0  0  0
    7.2248  -12.4955   26.0167 C   0  0  2  0  0  0  0  0  0  0  0  0
    6.5750  -11.2920   26.6775 C   0  0  0  0  0  0  0  0  0  0  0  0
    6.2132  -13.4155   25.3734 C   0  0  2  0  0  0  0  0  0  0  0  0
    5.3306  -13.8555   26.4301 N   0  0  0  0  0  0  0  0  0  0  0  0
    6.7808  -14.5121   24.6086 C   0  0  0  0  0  0  0  0  0  0  0  0
    6.6344  -15.6828   25.1060 O   0  0  0  0  0  0  0  0  0  0  0  0
    7.4674  -14.3903   23.3866 N   0  0  0  0  0  0  0  0  0  0  0  0
    7.5846  -13.1194   22.6800 C   0  0  0  0  0  0  0  0  0  0  0  0
    7.3897  -13.5686   21.2465 C   0  0  0  0  0  0  0  0  0  0  0  0
    8.1971  -14.8391   21.1851 C   0  0  0  0  0  0  0  0  0  0  0  0
    8.1193  -15.3953   22.6262 C   0  0  1  0  0  0  0  0  0  0  0  0
    9.4838  -15.7706   23.0229 C   0  0  0  0  0  0  0  0  0  0  0  0
   10.2891  -14.8845   23.4941 O   0  0  0  0  0  0  0  0  0  0  0  0
   10.0611  -17.0688   22.9504 N   0  0  0  0  0  0  0  0  0  0  0  0
   11.4313  -17.3177   23.3862 C   0  0  1  0  0  0  0  0  0  0  0  0
   11.5468  -18.5580   24.2036 C   0  0  0  0  0  0  0  0  0  0  0  0
   10.7017  -18.4371   25.4415 C   0  0  0  0  0  0  0  0  0  0  0  0
   10.8077  -19.6583   26.3419 C   0  0  0  0  0  0  0  0  0  0  0  0
   10.1785  -19.3730   27.6965 C   0  0  0  0  0  0  0  0  0  0  0  0
   10.1331  -20.6281   28.4491 N   0  0  0  0  0  0  0  0  0  0  0  0
   12.4485  -17.1697   22.3800 C   0  0  0  0  0  0  0  0  0  0  0  0
   13.7956  -16.9345   22.5443 O   0  0  0  0  0  0  0  0  0  0  0  0
   12.0730  -17.2660   21.1515 O   0  0  0  0  0  0  0  0  0  0  0  0
  2  3  1  1
  2  1  1  0
  4  2  1  0
  4  5  1  1
  6  4  1  0
  7  6  2  0
  8  6  1  0
  9 10  1  0
  9  8  1  0
 10 11  1  0
 12 11  1  0
 12  8  1  0
 12 13  1  1
 14 13  2  0
 15 13  1  0
 16 17  1  6
 16 15  1  0
 18 17  1  0
 19 20  1  0
 19 18  1  0
 20 21  1  0
 22 23  1  0
 22 16  1  0
 24 22  2  0
M  END
$$$$
