VPK.pdb
     RDKit          3D

 24 24  0  0  1  0  0  0  0  0999 V2000
    7.5861  -15.7768   21.6266 C   0  0  0  0  0  0  0  0  0  0  0  0
    6.9801  -14.4000   21.5024 C   0  0  2  0  0  0  0  0  0  0  0  0
    6.5072  -14.1988   20.0730 C   0  0  0  0  0  0  0  0  0  0  0  0
    7.9074  -13.2992   21.9627 C   0  0  2  0  0  0  0  0  0  0  0  0
    8.9505  -13.2003   20.9670 N   0  0  0  0  0  0  0  0  0  0  0  0
    8.4188  -13.4531   23.3134 C   0  0  0  0  0  0  0  0  0  0  0  0
    9.6575  -13.7605   23.4167 O   0  0  0  0  0  0  0  0  0  0  0  0
    7.6726  -13.2945   24.4956 N   0  0  0  0  0  0  0  0  0  0  0  0
    6.2932  -12.8198   24.4906 C   0  0  0  0  0  0  0  0  0  0  0  0
    6.3012  -11.9007   25.6948 C   0  0  0  0  0  0  0  0  0  0  0  0
    7.0981  -12.6851   26.7044 C   0  0  0  0  0  0  0  0  0  0  0  0
    8.0716  -13.5187   25.8386 C   0  0  1  0  0  0  0  0  0  0  0  0
    8.0276  -14.8996   26.3398 C   0  0  0  0  0  0  0  0  0  0  0  0
    7.0654  -15.6829   25.9988 O   0  0  0  0  0  0  0  0  0  0  0  0
    8.9730  -15.5184   27.2042 N   0  0  0  0  0  0  0  0  0  0  0  0
    9.1384  -16.9679   27.2378 C   0  0  1  0  0  0  0  0  0  0  0  0
    9.3618  -17.5418   25.8811 C   0  0  0  0  0  0  0  0  0  0  0  0
   10.7643  -17.2490   25.4248 C   0  0  0  0  0  0  0  0  0  0  0  0
   11.0056  -17.6592   23.9802 C   0  0  0  0  0  0  0  0  0  0  0  0
   12.4632  -17.4432   23.6053 C   0  0  0  0  0  0  0  0  0  0  0  0
   12.6208  -17.7731   22.1875 N   0  0  0  0  0  0  0  0  0  0  0  0
   10.0205  -17.4772   28.2535 C   0  0  0  0  0  0  0  0  0  0  0  0
   10.2439  -18.7847   28.6245 O   0  0  0  0  0  0  0  0  0  0  0  0
   10.7045  -16.6127   28.9200 O   0  0  0  0  0  0  0  0  0  0  0  0
  2  3  1  6
  2  1  1  0
  4  2  1  0
  4  5  1  6
  6  4  1  0
  7  6  2  0
  8  6  1  0
  9 10  1  0
  9  8  1  0
 10 11  1  0
 12 11  1  0
 12  8  1  0
 12 13  1  1
 14 13  2  0
 15 13  1  0
 16 17  1  6
 16 15  1  0
 18 17  1  0
 19 20  1  0
 19 18  1  0
 20 21  1  0
 22 23  1  0
 22 16  1  0
 24 22  2  0
M  END
$$$$
