VPK.pdb
     RDKit          3D

 24 24  0  0  1  0  0  0  0  0999 V2000
    8.2485  -13.0938   27.0808 C   0  0  0  0  0  0  0  0  0  0  0  0
    7.2939  -12.4518   26.1037 C   0  0  2  0  0  0  0  0  0  0  0  0
    6.5906  -11.2949   26.7924 C   0  0  0  0  0  0  0  0  0  0  0  0
    6.3225  -13.4335   25.4905 C   0  0  2  0  0  0  0  0  0  0  0  0
    5.5067  -13.9326   26.5742 N   0  0  0  0  0  0  0  0  0  0  0  0
    6.9334  -14.4890   24.7015 C   0  0  0  0  0  0  0  0  0  0  0  0
    6.8241  -15.6769   25.1665 O   0  0  0  0  0  0  0  0  0  0  0  0
    7.6242  -14.3108   23.4888 N   0  0  0  0  0  0  0  0  0  0  0  0
    7.8189  -12.9964   22.8869 C   0  0  0  0  0  0  0  0  0  0  0  0
    7.5941  -13.3145   21.4229 C   0  0  0  0  0  0  0  0  0  0  0  0
    8.3208  -14.6233   21.2533 C   0  0  0  0  0  0  0  0  0  0  0  0
    8.2110  -15.2890   22.6450 C   0  0  1  0  0  0  0  0  0  0  0  0
    9.5502  -15.7790   23.0008 C   0  0  0  0  0  0  0  0  0  0  0  0
   10.3634  -15.0266   23.6551 O   0  0  0  0  0  0  0  0  0  0  0  0
   10.0931  -17.0585   22.6974 N   0  0  0  0  0  0  0  0  0  0  0  0
   11.2696  -17.5701   23.3928 C   0  0  1  0  0  0  0  0  0  0  0  0
   11.0153  -18.8899   24.0357 C   0  0  0  0  0  0  0  0  0  0  0  0
   12.2025  -19.2937   24.8654 C   0  0  0  0  0  0  0  0  0  0  0  0
   11.9776  -20.6017   25.6082 C   0  0  0  0  0  0  0  0  0  0  0  0
   13.1473  -20.8914   26.5356 C   0  0  0  0  0  0  0  0  0  0  0  0
   12.8142  -22.0754   27.3298 N   0  0  0  0  0  0  0  0  0  0  0  0
   12.5120  -17.4870   22.6727 C   0  0  0  0  0  0  0  0  0  0  0  0
   12.7332  -17.6090   21.3187 O   0  0  0  0  0  0  0  0  0  0  0  0
   13.5756  -17.2702   23.3663 O   0  0  0  0  0  0  0  0  0  0  0  0
  2  3  1  1
  2  1  1  0
  4  2  1  0
  4  5  1  1
  6  4  1  0
  7  6  2  0
  8  6  1  0
  9 10  1  0
  9  8  1  0
 10 11  1  0
 12 11  1  0
 12  8  1  0
 12 13  1  1
 14 13  2  0
 15 13  1  0
 16 17  1  6
 16 15  1  0
 18 17  1  0
 19 20  1  0
 19 18  1  0
 20 21  1  0
 22 23  1  0
 22 16  1  0
 24 22  2  0
M  END
$$$$
