VPK.pdb
     RDKit          3D

 24 24  0  0  1  0  0  0  0  0999 V2000
    6.9067  -15.8773   20.4995 C   0  0  0  0  0  0  0  0  0  0  0  0
    7.4691  -15.7031   21.8893 C   0  0  2  0  0  0  0  0  0  0  0  0
    6.4394  -16.1800   22.8991 C   0  0  0  0  0  0  0  0  0  0  0  0
    7.9389  -14.2940   22.1675 C   0  0  2  0  0  0  0  0  0  0  0  0
    8.8262  -13.9373   21.0838 N   0  0  0  0  0  0  0  0  0  0  0  0
    8.5286  -14.0921   23.4795 C   0  0  0  0  0  0  0  0  0  0  0  0
    9.7766  -14.3580   23.5847 O   0  0  0  0  0  0  0  0  0  0  0  0
    7.8474  -13.6363   24.6232 N   0  0  0  0  0  0  0  0  0  0  0  0
    6.4642  -13.1751   24.5762 C   0  0  0  0  0  0  0  0  0  0  0  0
    6.5281  -11.9800   25.5049 C   0  0  0  0  0  0  0  0  0  0  0  0
    7.3894  -12.4838   26.6337 C   0  0  0  0  0  0  0  0  0  0  0  0
    8.3232  -13.5125   25.9541 C   0  0  1  0  0  0  0  0  0  0  0  0
    8.3239  -14.7205   26.7912 C   0  0  0  0  0  0  0  0  0  0  0  0
    7.6695  -15.7653   26.4227 O   0  0  0  0  0  0  0  0  0  0  0  0
    8.9999  -14.8924   28.0311 N   0  0  0  0  0  0  0  0  0  0  0  0
    9.9812  -15.9555   28.2217 C   0  0  1  0  0  0  0  0  0  0  0  0
   10.9580  -16.0295   27.0991 C   0  0  0  0  0  0  0  0  0  0  0  0
   11.8798  -17.2006   27.2975 C   0  0  0  0  0  0  0  0  0  0  0  0
   12.0179  -18.0532   26.0455 C   0  0  0  0  0  0  0  0  0  0  0  0
   13.0170  -19.1757   26.2774 C   0  0  0  0  0  0  0  0  0  0  0  0
   13.1423  -19.9361   25.0324 N   0  0  0  0  0  0  0  0  0  0  0  0
   10.5702  -16.0408   29.5313 C   0  0  0  0  0  0  0  0  0  0  0  0
   10.7971  -15.0325   30.4416 O   0  0  0  0  0  0  0  0  0  0  0  0
   10.9444  -17.2078   29.9283 O   0  0  0  0  0  0  0  0  0  0  0  0
  2  3  1  1
  2  1  1  0
  4  2  1  0
  4  5  1  6
  6  4  1  0
  7  6  2  0
  8  6  1  0
  9 10  1  0
  9  8  1  0
 10 11  1  0
 12 11  1  0
 12  8  1  0
 12 13  1  1
 14 13  2  0
 15 13  1  0
 16 17  1  6
 16 15  1  0
 18 17  1  0
 19 20  1  0
 19 18  1  0
 20 21  1  0
 22 23  1  0
 22 16  1  0
 24 22  2  0
M  END
$$$$
