VPK.pdb
     RDKit          3D

 24 24  0  0  1  0  0  0  0  0999 V2000
    6.5576  -10.8546   26.4836 C   0  0  0  0  0  0  0  0  0  0  0  0
    7.1874  -12.1196   25.9533 C   0  0  2  0  0  0  0  0  0  0  0  0
    8.3858  -11.7497   25.0964 C   0  0  0  0  0  0  0  0  0  0  0  0
    6.2087  -13.0087   25.2217 C   0  0  2  0  0  0  0  0  0  0  0  0
    5.1055  -13.2349   26.1278 N   0  0  0  0  0  0  0  0  0  0  0  0
    6.7742  -14.2369   24.6913 C   0  0  0  0  0  0  0  0  0  0  0  0
    6.7050  -15.2649   25.4515 O   0  0  0  0  0  0  0  0  0  0  0  0
    7.3820  -14.3822   23.4307 N   0  0  0  0  0  0  0  0  0  0  0  0
    7.4234  -13.2991   22.4543 C   0  0  0  0  0  0  0  0  0  0  0  0
    7.1534  -14.0582   21.1714 C   0  0  0  0  0  0  0  0  0  0  0  0
    7.9879  -15.3011   21.3406 C   0  0  0  0  0  0  0  0  0  0  0  0
    8.0121  -15.5235   22.8710 C   0  0  1  0  0  0  0  0  0  0  0  0
    9.4074  -15.7854   23.2515 C   0  0  0  0  0  0  0  0  0  0  0  0
   10.0580  -14.9300   23.9590 O   0  0  0  0  0  0  0  0  0  0  0  0
   10.1753  -16.9358   22.9189 N   0  0  0  0  0  0  0  0  0  0  0  0
   11.2562  -17.4041   23.7802 C   0  0  1  0  0  0  0  0  0  0  0  0
   10.8098  -17.6044   25.1874 C   0  0  0  0  0  0  0  0  0  0  0  0
   10.3202  -19.0138   25.3746 C   0  0  0  0  0  0  0  0  0  0  0  0
    9.8832  -19.2947   26.8041 C   0  0  0  0  0  0  0  0  0  0  0  0
    9.4368  -20.7412   26.9463 C   0  0  0  0  0  0  0  0  0  0  0  0
    9.1635  -20.9947   28.3622 N   0  0  0  0  0  0  0  0  0  0  0  0
   12.0635  -18.4716   23.2529 C   0  0  0  0  0  0  0  0  0  0  0  0
   13.3651  -18.8006   23.5604 O   0  0  0  0  0  0  0  0  0  0  0  0
   11.5171  -19.2366   22.3722 O   0  0  0  0  0  0  0  0  0  0  0  0
  2  3  1  6
  2  1  1  0
  4  2  1  0
  4  5  1  1
  6  4  1  0
  7  6  2  0
  8  6  1  0
  9 10  1  0
  9  8  1  0
 10 11  1  0
 12 11  1  0
 12  8  1  0
 12 13  1  1
 14 13  2  0
 15 13  1  0
 16 17  1  1
 16 15  1  0
 18 17  1  0
 19 20  1  0
 19 18  1  0
 20 21  1  0
 22 23  1  0
 22 16  1  0
 24 22  2  0
M  END
$$$$
