VPK.pdb
     RDKit          3D

 24 24  0  0  1  0  0  0  0  0999 V2000
    6.7076  -14.0746   19.3307 C   0  0  0  0  0  0  0  0  0  0  0  0
    7.2098  -14.4239   20.7106 C   0  0  2  0  0  0  0  0  0  0  0  0
    6.0475  -14.9434   21.5392 C   0  0  0  0  0  0  0  0  0  0  0  0
    7.9334  -13.2820   21.3859 C   0  0  2  0  0  0  0  0  0  0  0  0
    8.9450  -12.8323   20.4565 N   0  0  0  0  0  0  0  0  0  0  0  0
    8.4624  -13.5854   22.7042 C   0  0  0  0  0  0  0  0  0  0  0  0
    9.6712  -14.0056   22.7447 O   0  0  0  0  0  0  0  0  0  0  0  0
    7.7623  -13.4569   23.9179 N   0  0  0  0  0  0  0  0  0  0  0  0
    6.4139  -12.9046   23.9869 C   0  0  0  0  0  0  0  0  0  0  0  0
    6.5121  -12.0628   25.2425 C   0  0  0  0  0  0  0  0  0  0  0  0
    7.2909  -12.9517   26.1768 C   0  0  0  0  0  0  0  0  0  0  0  0
    8.1872  -13.7852   25.2312 C   0  0  1  0  0  0  0  0  0  0  0  0
    8.0765  -15.1894   25.6508 C   0  0  0  0  0  0  0  0  0  0  0  0
    7.0036  -15.8564   25.4071 O   0  0  0  0  0  0  0  0  0  0  0  0
    9.0666  -15.9516   26.3310 N   0  0  0  0  0  0  0  0  0  0  0  0
    8.9938  -17.4075   26.3969 C   0  0  1  0  0  0  0  0  0  0  0  0
    9.1443  -18.0410   25.0567 C   0  0  0  0  0  0  0  0  0  0  0  0
   10.5343  -17.8085   24.5326 C   0  0  0  0  0  0  0  0  0  0  0  0
   10.7313  -18.3691   23.1325 C   0  0  0  0  0  0  0  0  0  0  0  0
   12.1684  -18.1664   22.6788 C   0  0  0  0  0  0  0  0  0  0  0  0
   12.2643  -18.5790   21.2773 N   0  0  0  0  0  0  0  0  0  0  0  0
    9.7639  -18.0296   27.4405 C   0  0  0  0  0  0  0  0  0  0  0  0
    9.8302  -19.3613   27.7857 O   0  0  0  0  0  0  0  0  0  0  0  0
   10.4985  -17.2571   28.1637 O   0  0  0  0  0  0  0  0  0  0  0  0
  2  3  1  1
  2  1  1  0
  4  2  1  0
  4  5  1  6
  6  4  1  0
  7  6  2  0
  8  6  1  0
  9 10  1  0
  9  8  1  0
 10 11  1  0
 12 11  1  0
 12  8  1  0
 12 13  1  1
 14 13  2  0
 15 13  1  0
 16 17  1  6
 16 15  1  0
 18 17  1  0
 19 20  1  0
 19 18  1  0
 20 21  1  0
 22 23  1  0
 22 16  1  0
 24 22  2  0
M  END
$$$$
