VPK.pdb
     RDKit          3D

 24 24  0  0  1  0  0  0  0  0999 V2000
    6.0722  -11.3740   26.9523 C   0  0  0  0  0  0  0  0  0  0  0  0
    6.9170  -12.4235   26.2719 C   0  0  2  0  0  0  0  0  0  0  0  0
    7.9599  -11.7319   25.4107 C   0  0  0  0  0  0  0  0  0  0  0  0
    6.1014  -13.4289   25.4926 C   0  0  2  0  0  0  0  0  0  0  0  0
    5.0983  -13.9347   26.4021 N   0  0  0  0  0  0  0  0  0  0  0  0
    6.8729  -14.4790   24.8508 C   0  0  0  0  0  0  0  0  0  0  0  0
    7.0180  -15.5617   25.5186 O   0  0  0  0  0  0  0  0  0  0  0  0
    7.4634  -14.4001   23.5761 N   0  0  0  0  0  0  0  0  0  0  0  0
    7.3255  -13.2248   22.7231 C   0  0  0  0  0  0  0  0  0  0  0  0
    7.1343  -13.8741   21.3679 C   0  0  0  0  0  0  0  0  0  0  0  0
    8.1414  -14.9944   21.3928 C   0  0  0  0  0  0  0  0  0  0  0  0
    8.2354  -15.3725   22.8895 C   0  0  1  0  0  0  0  0  0  0  0  0
    9.6628  -15.4691   23.2260 C   0  0  0  0  0  0  0  0  0  0  0  0
   10.2057  -14.6009   24.0051 O   0  0  0  0  0  0  0  0  0  0  0  0
   10.5750  -16.4630   22.7743 N   0  0  0  0  0  0  0  0  0  0  0  0
   11.4663  -17.1548   23.6998 C   0  0  1  0  0  0  0  0  0  0  0  0
   10.7657  -17.5845   24.9425 C   0  0  0  0  0  0  0  0  0  0  0  0
   11.7220  -18.3153   25.8438 C   0  0  0  0  0  0  0  0  0  0  0  0
   11.0674  -18.7787   27.1361 C   0  0  0  0  0  0  0  0  0  0  0  0
   12.0715  -19.5256   27.9997 C   0  0  0  0  0  0  0  0  0  0  0  0
   11.3749  -20.0036   29.1955 N   0  0  0  0  0  0  0  0  0  0  0  0
   12.3212  -18.1560   23.1204 C   0  0  0  0  0  0  0  0  0  0  0  0
   13.6945  -18.2487   23.1673 O   0  0  0  0  0  0  0  0  0  0  0  0
   11.7478  -19.1044   22.4637 O   0  0  0  0  0  0  0  0  0  0  0  0
  2  3  1  6
  2  1  1  0
  4  2  1  0
  4  5  1  1
  6  4  1  0
  7  6  2  0
  8  6  1  0
  9 10  1  0
  9  8  1  0
 10 11  1  0
 12 11  1  0
 12  8  1  0
 12 13  1  1
 14 13  2  0
 15 13  1  0
 16 17  1  1
 16 15  1  0
 18 17  1  0
 19 20  1  0
 19 18  1  0
 20 21  1  0
 22 23  1  0
 22 16  1  0
 24 22  2  0
M  END
$$$$
