VPK.pdb
     RDKit          3D

 24 24  0  0  1  0  0  0  0  0999 V2000
    7.4633  -16.2864   22.3601 C   0  0  0  0  0  0  0  0  0  0  0  0
    6.7094  -14.9979   22.1377 C   0  0  2  0  0  0  0  0  0  0  0  0
    6.0350  -15.0520   20.7776 C   0  0  0  0  0  0  0  0  0  0  0  0
    7.5723  -13.7686   22.3041 C   0  0  2  0  0  0  0  0  0  0  0  0
    8.4777  -13.7490   21.1776 N   0  0  0  0  0  0  0  0  0  0  0  0
    8.2502  -13.6641   23.5845 C   0  0  0  0  0  0  0  0  0  0  0  0
    9.5144  -13.8663   23.5723 O   0  0  0  0  0  0  0  0  0  0  0  0
    7.6368  -13.3644   24.8148 N   0  0  0  0  0  0  0  0  0  0  0  0
    6.2087  -13.0897   24.9288 C   0  0  0  0  0  0  0  0  0  0  0  0
    6.2142  -11.9477   25.9242 C   0  0  0  0  0  0  0  0  0  0  0  0
    7.2434  -12.3914   26.9310 C   0  0  0  0  0  0  0  0  0  0  0  0
    8.2263  -13.2490   26.1002 C   0  0  1  0  0  0  0  0  0  0  0  0
    8.4663  -14.4888   26.8521 C   0  0  0  0  0  0  0  0  0  0  0  0
    7.6253  -15.4604   26.7860 O   0  0  0  0  0  0  0  0  0  0  0  0
    9.5795  -14.7688   27.6924 N   0  0  0  0  0  0  0  0  0  0  0  0
    9.8032  -16.1029   28.2397 C   0  0  1  0  0  0  0  0  0  0  0  0
   10.2576  -17.0698   27.2012 C   0  0  0  0  0  0  0  0  0  0  0  0
   11.5787  -16.6298   26.6337 C   0  0  0  0  0  0  0  0  0  0  0  0
   12.0919  -17.5696   25.5536 C   0  0  0  0  0  0  0  0  0  0  0  0
   13.3925  -17.0427   24.9681 C   0  0  0  0  0  0  0  0  0  0  0  0
   13.9162  -18.0514   24.0451 N   0  0  0  0  0  0  0  0  0  0  0  0
   10.5412  -16.1617   29.4729 C   0  0  0  0  0  0  0  0  0  0  0  0
   10.9177  -17.2691   30.2002 O   0  0  0  0  0  0  0  0  0  0  0  0
   10.9108  -15.0395   29.9863 O   0  0  0  0  0  0  0  0  0  0  0  0
  2  3  1  6
  2  1  1  0
  4  2  1  0
  4  5  1  6
  6  4  1  0
  7  6  2  0
  8  6  1  0
  9 10  1  0
  9  8  1  0
 10 11  1  0
 12 11  1  0
 12  8  1  0
 12 13  1  1
 14 13  2  0
 15 13  1  0
 16 17  1  6
 16 15  1  0
 18 17  1  0
 19 20  1  0
 19 18  1  0
 20 21  1  0
 22 23  1  0
 22 16  1  0
 24 22  2  0
M  END
$$$$
