RFI.pdb
     RDKit          3D

 31 31  0  0  1  0  0  0  0  0999 V2000
   19.2916  -24.9183  -14.1638 N   0  0  0  0  0  0  0  0  0  0  0  0
   19.2234  -25.4408  -12.8421 C   0  0  0  0  0  0  0  0  0  0  0  0
   18.5000  -26.4832  -12.5733 N   0  0  0  0  0  0  0  0  0  0  0  0
   19.9833  -24.7637  -11.8454 N   0  0  0  0  0  0  0  0  0  0  0  0
   20.1825  -23.3181  -11.9447 C   0  0  0  0  0  0  0  0  0  0  0  0
   20.3048  -22.8867  -13.3792 C   0  0  0  0  0  0  0  0  0  0  0  0
   20.4638  -21.4258  -13.5587 C   0  0  0  0  0  0  0  0  0  0  0  0
   21.3430  -20.7594  -12.5620 C   0  0  2  0  0  0  0  0  0  0  0  0
   20.7278  -20.2680  -11.3780 N   0  0  0  0  0  0  0  0  0  0  0  0
   22.1423  -19.6970  -13.2620 C   0  0  0  0  0  0  0  0  0  0  0  0
   21.6226  -18.5732  -13.4889 O   0  0  0  0  0  0  0  0  0  0  0  0
   18.4679  -26.8791  -11.6105 N   0  0  0  0  0  0  0  0  0  0  0  0
   23.4751  -19.8754  -13.6969 C   0  0  2  0  0  0  0  0  0  0  0  0
   24.2695  -18.7911  -14.2899 C   0  0  0  0  0  0  0  0  0  0  0  0
   25.7158  -18.9521  -14.0193 C   0  0  0  0  0  0  0  0  0  0  0  0
   26.6287  -18.0392  -14.7005 C   0  0  0  0  0  0  0  0  0  0  0  0
   27.5654  -18.4834  -15.6228 C   0  0  0  0  0  0  0  0  0  0  0  0
   28.4230  -17.5934  -16.2368 C   0  0  0  0  0  0  0  0  0  0  0  0
   28.3757  -16.2440  -15.9544 C   0  0  0  0  0  0  0  0  0  0  0  0
   27.4529  -15.7791  -15.0409 C   0  0  0  0  0  0  0  0  0  0  0  0
   26.6024  -16.6905  -14.4372 C   0  0  0  0  0  0  0  0  0  0  0  0
   23.8673  -18.5782  -15.6895 O   0  0  0  0  0  0  0  0  0  0  0  0
   23.6166  -19.6061  -16.4094 C   0  0  0  0  0  0  0  0  0  0  0  0
   20.3753  -15.4379  -19.4022 C   0  0  0  0  0  0  0  0  0  0  0  0
   21.6417  -16.2537  -19.3068 C   0  0  2  0  0  0  0  0  0  0  0  0
   22.0971  -16.3379  -17.8753 C   0  0  0  0  0  0  0  0  0  0  0  0
   22.4256  -14.9221  -17.4234 C   0  0  2  0  0  0  0  0  0  0  0  0
   23.3421  -17.1948  -17.7269 N   0  0  0  0  0  0  0  0  0  0  0  0
   23.7187  -17.3307  -16.3400 C   0  0  0  0  0  0  0  0  0  0  0  0
   24.4069  -16.8061  -18.6471 O   0  0  0  0  0  0  0  0  0  0  0  0
   24.8078  -15.6231  -18.6786 O   0  0  0  0  0  0  0  0  0  0  0  0
  1  2  1  0
  2  3  2  0
  4  2  1  0
  4  5  1  0
  6  5  1  0
  7  6  1  0
  8  9  1  1
  8  7  1  0
 10 11  2  0
 10  8  1  0
 12 10  1  0
 13 21  1  0
 13 12  1  0
 13 14  1  1
 15 14  1  0
 16 15  2  0
 17 16  1  0
 18 19  1  0
 18 17  2  0
 19 20  2  0
 20 15  1  0
 21 28  1  0
 22 21  2  0
 23 24  1  0
 24 25  1  0
 25 26  1  1
 25 27  1  0
 27 29  1  0
 27 28  1  6
 29 30  2  0
 29 31  1  0
M  END
$$$$
