RFI.pdb
     RDKit          3D

 31 31  0  0  1  0  0  0  0  0999 V2000
   23.0014  -18.4763  -16.4218 N   0  0  0  0  0  0  0  0  0  0  0  0
   22.1646  -18.0282  -15.3618 C   0  0  0  0  0  0  0  0  0  0  0  0
   20.9566  -17.6171  -15.5938 N   0  0  0  0  0  0  0  0  0  0  0  0
   22.7210  -18.0560  -14.0507 N   0  0  0  0  0  0  0  0  0  0  0  0
   23.8794  -18.9049  -13.7737 C   0  0  0  0  0  0  0  0  0  0  0  0
   23.5292  -20.3598  -13.9141 C   0  0  0  0  0  0  0  0  0  0  0  0
   24.0412  -21.2124  -12.8174 C   0  0  0  0  0  0  0  0  0  0  0  0
   25.5189  -21.2100  -12.6535 C   0  0  2  0  0  0  0  0  0  0  0  0
   26.2671  -22.0850  -13.4880 N   0  0  0  0  0  0  0  0  0  0  0  0
   25.8404  -21.4094  -11.1994 C   0  0  0  0  0  0  0  0  0  0  0  0
   25.6423  -22.5316  -10.6648 O   0  0  0  0  0  0  0  0  0  0  0  0
   20.3457  -17.2849  -14.8184 N   0  0  0  0  0  0  0  0  0  0  0  0
   26.3644  -20.3964  -10.3648 C   0  0  2  0  0  0  0  0  0  0  0  0
   26.6961  -20.6234   -8.9517 C   0  0  0  0  0  0  0  0  0  0  0  0
   27.9665  -19.9674   -8.5684 C   0  0  0  0  0  0  0  0  0  0  0  0
   28.2907  -19.9185   -7.1460 C   0  0  0  0  0  0  0  0  0  0  0  0
   29.0151  -20.9221   -6.5189 C   0  0  0  0  0  0  0  0  0  0  0  0
   29.2906  -20.8503   -5.1685 C   0  0  0  0  0  0  0  0  0  0  0  0
   28.8569  -19.7858   -4.4058 C   0  0  0  0  0  0  0  0  0  0  0  0
   28.1350  -18.7762   -5.0073 C   0  0  0  0  0  0  0  0  0  0  0  0
   27.8706  -18.8695   -6.3637 C   0  0  0  0  0  0  0  0  0  0  0  0
   25.5203  -20.3554   -8.1080 O   0  0  0  0  0  0  0  0  0  0  0  0
   24.9355  -19.2234   -8.2282 C   0  0  0  0  0  0  0  0  0  0  0  0
   21.4271  -23.8185   -6.7465 C   0  0  0  0  0  0  0  0  0  0  0  0
   22.7017  -23.1042   -6.3673 C   0  0  2  0  0  0  0  0  0  0  0  0
   22.5862  -21.6372   -6.6809 C   0  0  0  0  0  0  0  0  0  0  0  0
   22.3782  -21.5132   -8.1836 C   0  0  1  0  0  0  0  0  0  0  0  0
   23.8449  -20.8767   -6.3019 N   0  0  0  0  0  0  0  0  0  0  0  0
   24.9489  -21.2362   -7.1597 C   0  0  0  0  0  0  0  0  0  0  0  0
   24.1102  -20.9055   -4.8665 O   0  0  0  0  0  0  0  0  0  0  0  0
   25.2056  -21.3285   -4.4394 O   0  0  0  0  0  0  0  0  0  0  0  0
  1  2  1  0
  2  3  2  0
  4  2  1  0
  4  5  1  0
  6  5  1  0
  7  6  1  0
  8  9  1  6
  8  7  1  0
 10 11  2  0
 10  8  1  0
 12 10  1  0
 13 21  1  0
 13 12  1  0
 13 14  1  6
 15 14  1  0
 16 15  2  0
 17 16  1  0
 18 19  1  0
 18 17  2  0
 19 20  2  0
 20 15  1  0
 21 28  1  0
 22 21  2  0
 23 24  1  0
 24 25  1  0
 25 26  1  1
 25 27  1  0
 27 29  1  0
 27 28  1  6
 29 30  2  0
 29 31  1  0
M  END
$$$$
