RFI.pdb
     RDKit          3D

 31 31  0  0  1  0  0  0  0  0999 V2000
   29.9146  -18.9861  -19.5400 N   0  0  0  0  0  0  0  0  0  0  0  0
   29.7166  -17.5790  -19.6130 C   0  0  0  0  0  0  0  0  0  0  0  0
   29.9289  -16.9319  -20.7168 N   0  0  0  0  0  0  0  0  0  0  0  0
   29.2787  -16.9308  -18.4224 N   0  0  0  0  0  0  0  0  0  0  0  0
   28.6344  -17.7128  -17.3676 C   0  0  0  0  0  0  0  0  0  0  0  0
   27.4666  -18.4897  -17.9074 C   0  0  0  0  0  0  0  0  0  0  0  0
   26.7587  -19.2999  -16.8904 C   0  0  0  0  0  0  0  0  0  0  0  0
   27.5712  -20.3752  -16.2627 C   0  0  2  0  0  0  0  0  0  0  0  0
   27.9587  -21.4645  -17.0903 N   0  0  0  0  0  0  0  0  0  0  0  0
   26.8725  -20.8382  -15.0157 C   0  0  0  0  0  0  0  0  0  0  0  0
   25.8909  -21.6211  -15.1046 O   0  0  0  0  0  0  0  0  0  0  0  0
   29.8189  -15.8971  -20.7607 N   0  0  0  0  0  0  0  0  0  0  0  0
   27.2502  -20.4451  -13.7118 C   0  0  2  0  0  0  0  0  0  0  0  0
   26.4806  -20.8144  -12.5161 C   0  0  0  0  0  0  0  0  0  0  0  0
   27.2336  -20.5511  -11.2693 C   0  0  0  0  0  0  0  0  0  0  0  0
   26.4780  -20.5478  -10.0203 C   0  0  0  0  0  0  0  0  0  0  0  0
   25.9684  -19.3810   -9.4687 C   0  0  0  0  0  0  0  0  0  0  0  0
   25.2713  -19.4134   -8.2780 C   0  0  0  0  0  0  0  0  0  0  0  0
   25.0613  -20.5986   -7.6043 C   0  0  0  0  0  0  0  0  0  0  0  0
   25.5585  -21.7712   -8.1333 C   0  0  0  0  0  0  0  0  0  0  0  0
   26.2548  -21.7146   -9.3293 C   0  0  0  0  0  0  0  0  0  0  0  0
   25.1167  -20.2686  -12.6053 O   0  0  0  0  0  0  0  0  0  0  0  0
   24.9788  -19.0336  -12.9114 C   0  0  0  0  0  0  0  0  0  0  0  0
   20.2109  -19.8366  -15.4107 C   0  0  0  0  0  0  0  0  0  0  0  0
   20.7123  -19.7635  -13.9889 C   0  0  2  0  0  0  0  0  0  0  0  0
   22.0310  -20.4775  -13.8673 C   0  0  0  0  0  0  0  0  0  0  0  0
   21.7783  -21.9458  -14.1787 C   0  0  2  0  0  0  0  0  0  0  0  0
   22.6047  -20.3717  -12.4651 N   0  0  0  0  0  0  0  0  0  0  0  0
   23.9122  -20.9788  -12.3901 C   0  0  0  0  0  0  0  0  0  0  0  0
   21.6508  -20.7703  -11.4342 O   0  0  0  0  0  0  0  0  0  0  0  0
   21.8886  -21.7589  -10.7080 O   0  0  0  0  0  0  0  0  0  0  0  0
  1  2  1  0
  2  3  2  0
  4  2  1  0
  4  5  1  0
  6  5  1  0
  7  6  1  0
  8  9  1  6
  8  7  1  0
 10 11  2  0
 10  8  1  0
 12 10  1  0
 13 21  1  0
 13 12  1  0
 13 14  1  1
 15 14  1  0
 16 15  2  0
 17 16  1  0
 18 19  1  0
 18 17  2  0
 19 20  2  0
 20 15  1  0
 21 28  1  0
 22 21  2  0
 23 24  1  0
 24 25  1  0
 25 26  1  6
 25 27  1  0
 27 29  1  0
 27 28  1  1
 29 30  2  0
 29 31  1  0
M  END
$$$$
