RFI.pdb
     RDKit          3D

 31 31  0  0  1  0  0  0  0  0999 V2000
   19.7627  -31.7322  -11.9524 N   0  0  0  0  0  0  0  0  0  0  0  0
   21.1120  -31.2827  -11.9085 C   0  0  0  0  0  0  0  0  0  0  0  0
   21.3942  -30.0438  -11.6481 N   0  0  0  0  0  0  0  0  0  0  0  0
   22.1204  -32.2562  -12.1631 N   0  0  0  0  0  0  0  0  0  0  0  0
   21.7382  -33.6451  -12.4162 C   0  0  0  0  0  0  0  0  0  0  0  0
   22.9499  -34.5101  -12.6221 C   0  0  0  0  0  0  0  0  0  0  0  0
   24.2262  -33.7611  -12.6638 C   0  0  0  0  0  0  0  0  0  0  0  0
   25.3202  -34.3316  -11.8343 C   0  0  2  0  0  0  0  0  0  0  0  0
   25.7788  -35.6350  -12.1702 N   0  0  0  0  0  0  0  0  0  0  0  0
   24.9278  -34.2300  -10.3874 C   0  0  0  0  0  0  0  0  0  0  0  0
   24.7290  -35.2784   -9.7198 O   0  0  0  0  0  0  0  0  0  0  0  0
   22.3823  -29.7176  -11.6033 N   0  0  0  0  0  0  0  0  0  0  0  0
   24.7607  -33.0048   -9.7032 C   0  0  2  0  0  0  0  0  0  0  0  0
   24.6561  -32.9193   -8.2402 C   0  0  0  0  0  0  0  0  0  0  0  0
   25.5731  -31.9026   -7.6777 C   0  0  0  0  0  0  0  0  0  0  0  0
   26.7193  -32.3862   -6.9141 C   0  0  0  0  0  0  0  0  0  0  0  0
   27.9115  -32.7508   -7.5232 C   0  0  0  0  0  0  0  0  0  0  0  0
   28.9700  -33.2182   -6.7710 C   0  0  0  0  0  0  0  0  0  0  0  0
   28.8759  -33.3366   -5.4000 C   0  0  0  0  0  0  0  0  0  0  0  0
   27.7007  -32.9802   -4.7723 C   0  0  0  0  0  0  0  0  0  0  0  0
   26.6518  -32.5136   -5.5473 C   0  0  0  0  0  0  0  0  0  0  0  0
   23.2421  -32.8444   -7.8389 O   0  0  0  0  0  0  0  0  0  0  0  0
   22.4804  -32.0243   -8.4594 C   0  0  0  0  0  0  0  0  0  0  0  0
   18.1802  -34.2200   -7.5477 C   0  0  0  0  0  0  0  0  0  0  0  0
   19.0051  -34.6078   -6.3445 C   0  0  2  0  0  0  0  0  0  0  0  0
   20.4539  -34.7364   -6.7294 C   0  0  0  0  0  0  0  0  0  0  0  0
   21.0480  -35.8512   -5.8803 C   0  0  2  0  0  0  0  0  0  0  0  0
   21.2269  -33.4574   -6.4592 N   0  0  0  0  0  0  0  0  0  0  0  0
   22.6167  -33.6024   -6.8212 C   0  0  0  0  0  0  0  0  0  0  0  0
   20.9620  -32.9083   -5.1326 O   0  0  0  0  0  0  0  0  0  0  0  0
   19.8128  -32.5201   -4.8324 O   0  0  0  0  0  0  0  0  0  0  0  0
  1  2  1  0
  2  3  2  0
  4  2  1  0
  4  5  1  0
  6  5  1  0
  7  6  1  0
  8  9  1  6
  8  7  1  0
 10 11  2  0
 10  8  1  0
 12 10  1  0
 13 21  1  0
 13 12  1  0
 13 14  1  6
 15 14  1  0
 16 15  2  0
 17 16  1  0
 18 19  1  0
 18 17  2  0
 19 20  2  0
 20 15  1  0
 21 28  1  0
 22 21  2  0
 23 24  1  0
 24 25  1  0
 25 26  1  6
 25 27  1  0
 27 29  1  0
 27 28  1  1
 29 30  2  0
 29 31  1  0
M  END
$$$$
