RFI.pdb
     RDKit          3D

 31 31  0  0  1  0  0  0  0  0999 V2000
   31.4162  -24.9313  -15.1809 N   0  0  0  0  0  0  0  0  0  0  0  0
   31.0110  -25.6664  -16.3298 C   0  0  0  0  0  0  0  0  0  0  0  0
   31.3413  -26.9121  -16.4754 N   0  0  0  0  0  0  0  0  0  0  0  0
   30.2337  -24.9665  -17.2970 N   0  0  0  0  0  0  0  0  0  0  0  0
   29.5200  -23.7501  -16.9094 C   0  0  0  0  0  0  0  0  0  0  0  0
   30.0467  -23.2047  -15.6117 C   0  0  0  0  0  0  0  0  0  0  0  0
   29.3263  -22.0070  -15.1237 C   0  0  0  0  0  0  0  0  0  0  0  0
   27.8942  -21.9286  -15.5156 C   0  0  2  0  0  0  0  0  0  0  0  0
   27.6054  -21.5089  -16.8431 N   0  0  0  0  0  0  0  0  0  0  0  0
   27.1620  -21.1048  -14.4944 C   0  0  0  0  0  0  0  0  0  0  0  0
   27.4392  -19.8840  -14.3626 O   0  0  0  0  0  0  0  0  0  0  0  0
   31.0760  -27.4398  -17.3333 N   0  0  0  0  0  0  0  0  0  0  0  0
   26.1550  -21.6185  -13.6464 C   0  0  2  0  0  0  0  0  0  0  0  0
   25.3789  -20.7717  -12.7304 C   0  0  0  0  0  0  0  0  0  0  0  0
   23.9811  -20.5989  -13.1857 C   0  0  0  0  0  0  0  0  0  0  0  0
   23.7708  -19.8842  -14.4410 C   0  0  0  0  0  0  0  0  0  0  0  0
   23.6400  -20.5452  -15.6540 C   0  0  0  0  0  0  0  0  0  0  0  0
   23.4571  -19.8362  -16.8238 C   0  0  0  0  0  0  0  0  0  0  0  0
   23.3992  -18.4580  -16.8232 C   0  0  0  0  0  0  0  0  0  0  0  0
   23.5268  -17.7791  -15.6294 C   0  0  0  0  0  0  0  0  0  0  0  0
   23.7094  -18.5115  -14.4680 C   0  0  0  0  0  0  0  0  0  0  0  0
   25.5834  -21.2117  -11.3409 O   0  0  0  0  0  0  0  0  0  0  0  0
   25.5590  -22.4673  -11.0947 C   0  0  0  0  0  0  0  0  0  0  0  0
   28.9135  -19.2613   -7.4136 C   0  0  0  0  0  0  0  0  0  0  0  0
   28.0734  -20.1482   -8.3002 C   0  0  2  0  0  0  0  0  0  0  0  0
   26.6185  -20.0083   -7.9433 C   0  0  0  0  0  0  0  0  0  0  0  0
   26.4543  -20.5133   -6.5169 C   0  0  2  0  0  0  0  0  0  0  0  0
   25.7300  -20.8362   -8.8554 N   0  0  0  0  0  0  0  0  0  0  0  0
   25.8153  -20.3781  -10.2216 C   0  0  0  0  0  0  0  0  0  0  0  0
   24.3835  -21.0149   -8.3200 O   0  0  0  0  0  0  0  0  0  0  0  0
   24.1892  -21.7846   -7.3551 O   0  0  0  0  0  0  0  0  0  0  0  0
  1  2  1  0
  2  3  2  0
  4  2  1  0
  4  5  1  0
  6  5  1  0
  7  6  1  0
  8  9  1  6
  8  7  1  0
 10 11  2  0
 10  8  1  0
 12 10  1  0
 13 21  1  0
 13 12  1  0
 13 14  1  1
 15 14  1  0
 16 15  2  0
 17 16  1  0
 18 19  1  0
 18 17  2  0
 19 20  2  0
 20 15  1  0
 21 28  1  0
 22 21  2  0
 23 24  1  0
 24 25  1  0
 25 26  1  6
 25 27  1  0
 27 29  1  0
 27 28  1  6
 29 30  2  0
 29 31  1  0
M  END
$$$$
