RFI.pdb
     RDKit          3D

 31 31  0  0  1  0  0  0  0  0999 V2000
   25.4391  -21.4892  -21.4146 N   0  0  0  0  0  0  0  0  0  0  0  0
   25.8836  -20.1671  -21.1335 C   0  0  0  0  0  0  0  0  0  0  0  0
   25.7487  -19.2181  -22.0072 N   0  0  0  0  0  0  0  0  0  0  0  0
   26.4768  -19.9483  -19.8569 N   0  0  0  0  0  0  0  0  0  0  0  0
   26.3089  -20.9455  -18.8002 C   0  0  0  0  0  0  0  0  0  0  0  0
   24.8973  -20.9542  -18.2845 C   0  0  0  0  0  0  0  0  0  0  0  0
   24.6639  -21.9126  -17.1805 C   0  0  0  0  0  0  0  0  0  0  0  0
   25.8755  -22.2905  -16.4060 C   0  0  2  0  0  0  0  0  0  0  0  0
   26.5500  -23.4807  -16.7937 N   0  0  0  0  0  0  0  0  0  0  0  0
   25.5287  -22.2924  -14.9440 C   0  0  0  0  0  0  0  0  0  0  0  0
   24.5941  -23.0242  -14.5255 O   0  0  0  0  0  0  0  0  0  0  0  0
   26.0699  -18.2493  -21.7996 N   0  0  0  0  0  0  0  0  0  0  0  0
   26.1970  -21.5073  -13.9774 C   0  0  2  0  0  0  0  0  0  0  0  0
   25.7447  -21.4084  -12.5831 C   0  0  0  0  0  0  0  0  0  0  0  0
   26.7764  -20.8090  -11.7071 C   0  0  0  0  0  0  0  0  0  0  0  0
   26.4160  -20.5781  -10.3115 C   0  0  0  0  0  0  0  0  0  0  0  0
   26.3523  -21.6092   -9.3852 C   0  0  0  0  0  0  0  0  0  0  0  0
   25.9932  -21.3565   -8.0768 C   0  0  0  0  0  0  0  0  0  0  0  0
   25.6886  -20.0797   -7.6527 C   0  0  0  0  0  0  0  0  0  0  0  0
   25.7450  -19.0387   -8.5557 C   0  0  0  0  0  0  0  0  0  0  0  0
   26.1079  -19.3160   -9.8633 C   0  0  0  0  0  0  0  0  0  0  0  0
   24.3956  -20.8225  -12.5305 O   0  0  0  0  0  0  0  0  0  0  0  0
   24.2292  -19.6449  -13.0033 C   0  0  0  0  0  0  0  0  0  0  0  0
   20.4211  -21.5453  -15.2711 C   0  0  0  0  0  0  0  0  0  0  0  0
   21.4468  -21.0354  -14.2881 C   0  0  2  0  0  0  0  0  0  0  0  0
   20.9592  -21.2374  -12.8792 C   0  0  0  0  0  0  0  0  0  0  0  0
   19.6829  -20.4229  -12.7234 C   0  0  2  0  0  0  0  0  0  0  0  0
   21.9708  -20.7530  -11.8552 N   0  0  0  0  0  0  0  0  0  0  0  0
   23.2334  -21.4361  -12.0069 C   0  0  0  0  0  0  0  0  0  0  0  0
   21.4244  -20.7047  -10.5022 O   0  0  0  0  0  0  0  0  0  0  0  0
   20.5592  -19.8535  -10.2051 O   0  0  0  0  0  0  0  0  0  0  0  0
  1  2  1  0
  2  3  2  0
  4  2  1  0
  4  5  1  0
  6  5  1  0
  7  6  1  0
  8  9  1  6
  8  7  1  0
 10 11  2  0
 10  8  1  0
 12 10  1  0
 13 21  1  0
 13 12  1  0
 13 14  1  1
 15 14  1  0
 16 15  2  0
 17 16  1  0
 18 19  1  0
 18 17  2  0
 19 20  2  0
 20 15  1  0
 21 28  1  0
 22 21  2  0
 23 24  1  0
 24 25  1  0
 25 26  1  1
 25 27  1  0
 27 29  1  0
 27 28  1  6
 29 30  2  0
 29 31  1  0
M  END
$$$$
