RFI.pdb
     RDKit          3D

 31 31  0  0  1  0  0  0  0  0999 V2000
   29.2413  -22.4474  -16.5854 N   0  0  0  0  0  0  0  0  0  0  0  0
   29.8176  -21.4689  -17.4427 C   0  0  0  0  0  0  0  0  0  0  0  0
   30.0854  -21.7424  -18.6819 N   0  0  0  0  0  0  0  0  0  0  0  0
   30.0802  -20.1908  -16.8709 N   0  0  0  0  0  0  0  0  0  0  0  0
   29.5486  -19.8669  -15.5474 C   0  0  0  0  0  0  0  0  0  0  0  0
   28.1651  -20.4263  -15.3689 C   0  0  0  0  0  0  0  0  0  0  0  0
   27.5613  -20.1335  -14.0492 C   0  0  0  0  0  0  0  0  0  0  0  0
   28.1993  -20.8223  -12.8964 C   0  0  2  0  0  0  0  0  0  0  0  0
   28.9585  -21.9915  -13.1766 N   0  0  0  0  0  0  0  0  0  0  0  0
   27.1528  -21.0704  -11.8471 C   0  0  0  0  0  0  0  0  0  0  0  0
   26.6006  -22.1989  -11.7713 O   0  0  0  0  0  0  0  0  0  0  0  0
   30.5074  -21.0261  -19.3093 N   0  0  0  0  0  0  0  0  0  0  0  0
   26.7321  -20.0977  -10.9121 C   0  0  1  0  0  0  0  0  0  0  0  0
   25.5464  -20.2725  -10.0625 C   0  0  0  0  0  0  0  0  0  0  0  0
   25.6326  -19.4734   -8.8195 C   0  0  0  0  0  0  0  0  0  0  0  0
   26.6437  -19.8650   -7.8422 C   0  0  0  0  0  0  0  0  0  0  0  0
   27.9947  -19.6165   -8.0376 C   0  0  0  0  0  0  0  0  0  0  0  0
   28.9248  -20.0144   -7.0987 C   0  0  0  0  0  0  0  0  0  0  0  0
   28.5424  -20.6671   -5.9452 C   0  0  0  0  0  0  0  0  0  0  0  0
   27.2048  -20.9250   -5.7293 C   0  0  0  0  0  0  0  0  0  0  0  0
   26.2894  -20.5164   -6.6851 C   0  0  0  0  0  0  0  0  0  0  0  0
   24.3229  -20.1315  -10.8684 O   0  0  0  0  0  0  0  0  0  0  0  0
   24.2216  -19.1163  -11.6408 C   0  0  0  0  0  0  0  0  0  0  0  0
   21.7627  -24.2009  -13.5053 C   0  0  0  0  0  0  0  0  0  0  0  0
   21.8052  -23.2354  -12.3458 C   0  0  2  0  0  0  0  0  0  0  0  0
   22.0105  -21.8319  -12.8477 C   0  0  0  0  0  0  0  0  0  0  0  0
   23.3489  -21.8042  -13.5720 C   0  0  1  0  0  0  0  0  0  0  0  0
   22.0539  -20.8252  -11.7114 N   0  0  0  0  0  0  0  0  0  0  0  0
   23.2225  -21.0205  -10.8868 C   0  0  0  0  0  0  0  0  0  0  0  0
   20.7802  -20.7162  -11.0061 O   0  0  0  0  0  0  0  0  0  0  0  0
   20.3072  -21.7065  -10.4087 O   0  0  0  0  0  0  0  0  0  0  0  0
  1  2  1  0
  2  3  2  0
  4  2  1  0
  4  5  1  0
  6  5  1  0
  7  6  1  0
  8  9  1  6
  8  7  1  0
 10 11  2  0
 10  8  1  0
 12 10  1  0
 13 21  1  0
 13 12  1  0
 13 14  1  6
 15 14  1  0
 16 15  2  0
 17 16  1  0
 18 19  1  0
 18 17  2  0
 19 20  2  0
 20 15  1  0
 21 28  1  0
 22 21  2  0
 23 24  1  0
 24 25  1  0
 25 26  1  6
 25 27  1  0
 27 29  1  0
 27 28  1  1
 29 30  2  0
 29 31  1  0
M  END
$$$$
