RFI.pdb
     RDKit          3D

 31 31  0  0  1  0  0  0  0  0999 V2000
   24.2001  -26.2487  -14.9577 N   0  0  0  0  0  0  0  0  0  0  0  0
   22.9402  -26.0914  -15.5999 C   0  0  0  0  0  0  0  0  0  0  0  0
   22.3103  -27.1127  -16.0923 N   0  0  0  0  0  0  0  0  0  0  0  0
   22.4177  -24.7680  -15.6707 N   0  0  0  0  0  0  0  0  0  0  0  0
   23.1401  -23.6694  -15.0300 C   0  0  0  0  0  0  0  0  0  0  0  0
   23.9441  -22.8926  -16.0345 C   0  0  0  0  0  0  0  0  0  0  0  0
   25.3404  -22.6311  -15.6177 C   0  0  0  0  0  0  0  0  0  0  0  0
   25.5294  -21.4292  -14.7632 C   0  0  2  0  0  0  0  0  0  0  0  0
   25.9188  -20.2251  -15.4115 N   0  0  0  0  0  0  0  0  0  0  0  0
   26.4557  -21.7841  -13.6346 C   0  0  0  0  0  0  0  0  0  0  0  0
   26.4577  -22.9555  -13.1740 O   0  0  0  0  0  0  0  0  0  0  0  0
   21.3805  -26.9998  -16.5479 N   0  0  0  0  0  0  0  0  0  0  0  0
   27.3507  -20.8689  -13.0358 C   0  0  1  0  0  0  0  0  0  0  0  0
   28.1739  -21.2107  -11.8679 C   0  0  0  0  0  0  0  0  0  0  0  0
   29.5385  -20.6460  -11.9673 C   0  0  0  0  0  0  0  0  0  0  0  0
   30.4979  -21.0317  -10.9370 C   0  0  0  0  0  0  0  0  0  0  0  0
   31.1732  -22.2432  -10.9732 C   0  0  0  0  0  0  0  0  0  0  0  0
   32.0626  -22.5815   -9.9736 C   0  0  0  0  0  0  0  0  0  0  0  0
   32.3058  -21.7314   -8.9149 C   0  0  0  0  0  0  0  0  0  0  0  0
   31.6461  -20.5215   -8.8574 C   0  0  0  0  0  0  0  0  0  0  0  0
   30.7582  -20.2032   -9.8717 C   0  0  0  0  0  0  0  0  0  0  0  0
   27.4258  -20.9459  -10.6284 O   0  0  0  0  0  0  0  0  0  0  0  0
   26.6151  -19.9559  -10.6115 C   0  0  0  0  0  0  0  0  0  0  0  0
   27.8609  -19.7053   -4.9461 C   0  0  0  0  0  0  0  0  0  0  0  0
   26.9801  -20.4888   -5.8888 C   0  0  2  0  0  0  0  0  0  0  0  0
   27.6535  -20.6343   -7.2264 C   0  0  0  0  0  0  0  0  0  0  0  0
   27.9386  -19.2308   -7.7419 C   0  0  2  0  0  0  0  0  0  0  0  0
   26.7670  -21.3486   -8.2316 N   0  0  0  0  0  0  0  0  0  0  0  0
   27.5028  -21.6879   -9.4263 C   0  0  0  0  0  0  0  0  0  0  0  0
   25.4879  -20.6745   -8.4341 O   0  0  0  0  0  0  0  0  0  0  0  0
   24.4946  -20.9944   -7.7468 O   0  0  0  0  0  0  0  0  0  0  0  0
  1  2  1  0
  2  3  2  0
  4  2  1  0
  4  5  1  0
  6  5  1  0
  7  6  1  0
  8  9  1  6
  8  7  1  0
 10 11  2  0
 10  8  1  0
 12 10  1  0
 13 21  1  0
 13 12  1  0
 13 14  1  1
 15 14  1  0
 16 15  2  0
 17 16  1  0
 18 19  1  0
 18 17  2  0
 19 20  2  0
 20 15  1  0
 21 28  1  0
 22 21  2  0
 23 24  1  0
 24 25  1  0
 25 26  1  6
 25 27  1  0
 27 29  1  0
 27 28  1  6
 29 30  2  0
 29 31  1  0
M  END
$$$$
