GIF.pdb
     RDKit          3D

 24 24  0  0  1  0  0  0  0  0999 V2000
    5.3192  -19.4082   21.0775 N   0  0  0  0  0  0  0  0  0  0  0  0
    5.2750  -18.1572   21.7836 C   0  0  0  0  0  0  0  0  0  0  0  0
    6.5922  -17.4332   21.6833 C   0  0  0  0  0  0  0  0  0  0  0  0
    7.6300  -18.0394   21.3405 O   0  0  0  0  0  0  0  0  0  0  0  0
    7.1443  -12.3635   19.6813 C   0  0  0  0  0  0  0  0  0  0  0  0
    7.3966  -13.7414   20.1736 C   0  0  0  0  0  0  0  0  0  0  0  0
    7.7547  -13.8917   21.6108 C   0  0  2  0  0  0  0  0  0  0  0  0
    9.0853  -13.1360   21.7823 C   0  0  0  0  0  0  0  0  0  0  0  0
    7.8813  -15.2941   22.0421 C   0  0  2  0  0  0  0  0  0  0  0  0
    6.6664  -16.0336   21.9822 N   0  0  0  0  0  0  0  0  0  0  0  0
    8.5322  -15.4991   23.3400 C   0  0  0  0  0  0  0  0  0  0  0  0
    9.7074  -15.1203   23.6036 O   0  0  0  0  0  0  0  0  0  0  0  0
    7.8292  -16.1601   24.3805 N   0  0  0  0  0  0  0  0  0  0  0  0
    8.3571  -16.2298   25.7292 C   0  0  1  0  0  0  0  0  0  0  0  0
    7.4360  -15.6987   26.7748 C   0  0  0  0  0  0  0  0  0  0  0  0
    7.2553  -14.2423   26.7749 C   0  0  0  0  0  0  0  0  0  0  0  0
    8.3062  -13.3648   26.9885 C   0  0  0  0  0  0  0  0  0  0  0  0
    8.1254  -11.9960   26.9794 C   0  0  0  0  0  0  0  0  0  0  0  0
    6.8903  -11.4477   26.7571 C   0  0  0  0  0  0  0  0  0  0  0  0
    5.8288  -12.3020   26.5418 C   0  0  0  0  0  0  0  0  0  0  0  0
    6.0197  -13.6831   26.5525 C   0  0  0  0  0  0  0  0  0  0  0  0
    8.8145  -17.6196   26.0376 C   0  0  0  0  0  0  0  0  0  0  0  0
    8.5501  -18.5673   25.2710 O   0  0  0  0  0  0  0  0  0  0  0  0
    9.5392  -17.8617   27.1848 O   0  0  0  0  0  0  0  0  0  0  0  0
  2  1  1  0
  3  2  1  0
  3  4  2  0
  6  7  1  0
  6  5  1  0
  7  8  1  6
  9 10  1  1
  9  7  1  0
 10  3  1  0
 11  9  1  0
 12 11  2  0
 13 11  1  0
 14 13  1  0
 14 15  1  1
 15 16  1  0
 16 17  2  0
 17 18  1  0
 19 18  2  0
 20 19  1  0
 21 16  1  0
 21 20  2  0
 22 14  1  0
 22 24  1  0
 23 22  2  0
M  END
$$$$
