GIF.pdb
     RDKit          3D

 24 24  0  0  1  0  0  0  0  0999 V2000
    6.1496  -20.0203   21.7293 N   0  0  0  0  0  0  0  0  0  0  0  0
    5.8287  -18.7278   22.2700 C   0  0  0  0  0  0  0  0  0  0  0  0
    6.9678  -17.7619   22.0735 C   0  0  0  0  0  0  0  0  0  0  0  0
    8.1515  -18.1630   22.0645 O   0  0  0  0  0  0  0  0  0  0  0  0
    8.0937  -12.0930   19.7854 C   0  0  0  0  0  0  0  0  0  0  0  0
    8.4103  -13.2656   20.6395 C   0  0  0  0  0  0  0  0  0  0  0  0
    7.3079  -14.2320   20.8982 C   0  0  2  0  0  0  0  0  0  0  0  0
    6.1957  -13.4119   21.5776 C   0  0  0  0  0  0  0  0  0  0  0  0
    7.7114  -15.3747   21.7351 C   0  0  2  0  0  0  0  0  0  0  0  0
    6.7015  -16.3653   21.8940 N   0  0  0  0  0  0  0  0  0  0  0  0
    8.2884  -15.0301   23.0384 C   0  0  0  0  0  0  0  0  0  0  0  0
    8.4278  -13.8459   23.4534 O   0  0  0  0  0  0  0  0  0  0  0  0
    8.7277  -16.0634   23.9062 N   0  0  0  0  0  0  0  0  0  0  0  0
    9.2548  -15.7748   25.2257 C   0  0  1  0  0  0  0  0  0  0  0  0
    8.2105  -15.5733   26.2710 C   0  0  0  0  0  0  0  0  0  0  0  0
    7.6546  -14.2176   26.3537 C   0  0  0  0  0  0  0  0  0  0  0  0
    6.2974  -13.9643   26.2350 C   0  0  0  0  0  0  0  0  0  0  0  0
    5.7850  -12.6851   26.3214 C   0  0  0  0  0  0  0  0  0  0  0  0
    6.6049  -11.6080   26.5295 C   0  0  0  0  0  0  0  0  0  0  0  0
    7.9598  -11.8359   26.6508 C   0  0  0  0  0  0  0  0  0  0  0  0
    8.4694  -13.1307   26.5625 C   0  0  0  0  0  0  0  0  0  0  0  0
   10.2553  -16.8119   25.6245 C   0  0  0  0  0  0  0  0  0  0  0  0
   10.9792  -16.6533   26.6278 O   0  0  0  0  0  0  0  0  0  0  0  0
   10.3831  -17.9618   24.8752 O   0  0  0  0  0  0  0  0  0  0  0  0
  2  1  1  0
  3  2  1  0
  3  4  2  0
  6  7  1  0
  6  5  1  0
  7  8  1  1
  9 10  1  1
  9  7  1  0
 10  3  1  0
 11  9  1  0
 12 11  2  0
 13 11  1  0
 14 13  1  0
 14 15  1  1
 15 16  1  0
 16 17  2  0
 17 18  1  0
 19 18  2  0
 20 19  1  0
 21 16  1  0
 21 20  2  0
 22 14  1  0
 22 24  1  0
 23 22  2  0
M  END
$$$$
