GIF.pdb
     RDKit          3D

 24 24  0  0  1  0  0  0  0  0999 V2000
    4.5509  -18.6445   20.9668 N   0  0  0  0  0  0  0  0  0  0  0  0
    4.7098  -17.4700   21.7798 C   0  0  0  0  0  0  0  0  0  0  0  0
    6.1277  -16.9643   21.7273 C   0  0  0  0  0  0  0  0  0  0  0  0
    7.0755  -17.7432   21.4887 O   0  0  0  0  0  0  0  0  0  0  0  0
    7.2553  -12.5158   19.1885 C   0  0  0  0  0  0  0  0  0  0  0  0
    7.3685  -13.8086   19.9100 C   0  0  0  0  0  0  0  0  0  0  0  0
    7.8868  -13.7622   21.3048 C   0  0  2  0  0  0  0  0  0  0  0  0
    9.3767  -13.3948   21.1758 C   0  0  0  0  0  0  0  0  0  0  0  0
    7.7137  -15.0269   22.0393 C   0  0  2  0  0  0  0  0  0  0  0  0
    6.4032  -15.5761   21.9522 N   0  0  0  0  0  0  0  0  0  0  0  0
    8.1621  -15.0126   23.4354 C   0  0  0  0  0  0  0  0  0  0  0  0
    8.5620  -13.9752   24.0337 O   0  0  0  0  0  0  0  0  0  0  0  0
    8.1612  -16.2178   24.1846 N   0  0  0  0  0  0  0  0  0  0  0  0
    8.5688  -16.2480   25.5758 C   0  0  1  0  0  0  0  0  0  0  0  0
    7.4918  -15.8741   26.5371 C   0  0  0  0  0  0  0  0  0  0  0  0
    7.1997  -14.4389   26.6296 C   0  0  0  0  0  0  0  0  0  0  0  0
    5.9338  -13.9237   26.4010 C   0  0  0  0  0  0  0  0  0  0  0  0
    5.6692  -12.5720   26.4977 C   0  0  0  0  0  0  0  0  0  0  0  0
    6.6557  -11.6805   26.8261 C   0  0  0  0  0  0  0  0  0  0  0  0
    7.9240  -12.1706   27.0582 C   0  0  0  0  0  0  0  0  0  0  0  0
    8.1831  -13.5369   26.9586 C   0  0  0  0  0  0  0  0  0  0  0  0
    9.1845  -17.5692   25.9088 C   0  0  0  0  0  0  0  0  0  0  0  0
    9.1112  -18.5296   25.1163 O   0  0  0  0  0  0  0  0  0  0  0  0
    9.8439  -17.7329   27.1082 O   0  0  0  0  0  0  0  0  0  0  0  0
  2  1  1  0
  3  2  1  0
  3  4  2  0
  6  7  1  0
  6  5  1  0
  7  8  1  6
  9 10  1  1
  9  7  1  0
 10  3  1  0
 11  9  1  0
 12 11  2  0
 13 11  1  0
 14 13  1  0
 14 15  1  1
 15 16  1  0
 16 17  2  0
 17 18  1  0
 19 18  2  0
 20 19  1  0
 21 16  1  0
 21 20  2  0
 22 14  1  0
 22 24  1  0
 23 22  2  0
M  END
$$$$
