GIF.pdb
     RDKit          3D

 24 24  0  0  1  0  0  0  0  0999 V2000
   11.5453  -17.7778   18.0350 N   0  0  0  0  0  0  0  0  0  0  0  0
   10.3858  -17.9993   18.8549 C   0  0  0  0  0  0  0  0  0  0  0  0
   10.3653  -17.0550   20.0283 C   0  0  0  0  0  0  0  0  0  0  0  0
   11.4163  -16.7815   20.6469 O   0  0  0  0  0  0  0  0  0  0  0  0
    6.7192  -12.9287   20.1085 C   0  0  0  0  0  0  0  0  0  0  0  0
    7.9227  -13.7573   20.3723 C   0  0  0  0  0  0  0  0  0  0  0  0
    7.8614  -14.6908   21.5304 C   0  0  2  0  0  0  0  0  0  0  0  0
    7.8116  -13.7910   22.7790 C   0  0  0  0  0  0  0  0  0  0  0  0
    8.9982  -15.6249   21.5941 C   0  0  2  0  0  0  0  0  0  0  0  0
    9.1318  -16.4584   20.4479 N   0  0  0  0  0  0  0  0  0  0  0  0
    9.0851  -16.4309   22.8160 C   0  0  0  0  0  0  0  0  0  0  0  0
    8.5412  -17.5623   22.9509 O   0  0  0  0  0  0  0  0  0  0  0  0
    9.8128  -15.9387   23.9305 N   0  0  0  0  0  0  0  0  0  0  0  0
   10.1893  -16.8015   25.0333 C   0  0  1  0  0  0  0  0  0  0  0  0
   11.1073  -16.1657   26.0217 C   0  0  0  0  0  0  0  0  0  0  0  0
   10.4951  -15.1533   26.8901 C   0  0  0  0  0  0  0  0  0  0  0  0
   10.7637  -15.0807   28.2476 C   0  0  0  0  0  0  0  0  0  0  0  0
   10.1871  -14.1193   29.0537 C   0  0  0  0  0  0  0  0  0  0  0  0
    9.3202  -13.1925   28.5387 C   0  0  0  0  0  0  0  0  0  0  0  0
    9.0378  -13.2453   27.1895 C   0  0  0  0  0  0  0  0  0  0  0  0
    9.6243  -14.2192   26.3823 C   0  0  0  0  0  0  0  0  0  0  0  0
    8.9715  -17.3735   25.6854 C   0  0  0  0  0  0  0  0  0  0  0  0
    9.0679  -18.2397   26.5776 O   0  0  0  0  0  0  0  0  0  0  0  0
    7.7216  -16.9400   25.2982 O   0  0  0  0  0  0  0  0  0  0  0  0
  2  1  1  0
  3  2  1  0
  3  4  2  0
  6  7  1  0
  6  5  1  0
  7  8  1  1
  9 10  1  6
  9  7  1  0
 10  3  1  0
 11  9  1  0
 12 11  2  0
 13 11  1  0
 14 13  1  0
 14 15  1  1
 15 16  1  0
 16 17  2  0
 17 18  1  0
 19 18  2  0
 20 19  1  0
 21 16  1  0
 21 20  2  0
 22 14  1  0
 22 24  1  0
 23 22  2  0
M  END
$$$$
