GIF.pdb
     RDKit          3D

 24 24  0  0  1  0  0  0  0  0999 V2000
    5.5610  -19.9648   22.1074 N   0  0  0  0  0  0  0  0  0  0  0  0
    5.4304  -18.5822   22.4774 C   0  0  0  0  0  0  0  0  0  0  0  0
    6.6669  -17.8050   22.1084 C   0  0  0  0  0  0  0  0  0  0  0  0
    7.7424  -18.3932   21.8649 O   0  0  0  0  0  0  0  0  0  0  0  0
    8.3213  -12.1466   20.0663 C   0  0  0  0  0  0  0  0  0  0  0  0
    8.5800  -13.4820   20.6617 C   0  0  0  0  0  0  0  0  0  0  0  0
    7.3962  -14.2596   21.1201 C   0  0  2  0  0  0  0  0  0  0  0  0
    6.6723  -13.3473   22.1275 C   0  0  0  0  0  0  0  0  0  0  0  0
    7.7429  -15.5543   21.7303 C   0  0  2  0  0  0  0  0  0  0  0  0
    6.6196  -16.3747   22.0330 N   0  0  0  0  0  0  0  0  0  0  0  0
    8.6432  -15.4867   22.8858 C   0  0  0  0  0  0  0  0  0  0  0  0
    9.8026  -14.9885   22.8441 O   0  0  0  0  0  0  0  0  0  0  0  0
    8.2186  -16.0045   24.1370 N   0  0  0  0  0  0  0  0  0  0  0  0
    9.0065  -15.8243   25.3408 C   0  0  1  0  0  0  0  0  0  0  0  0
    8.2072  -15.4630   26.5467 C   0  0  0  0  0  0  0  0  0  0  0  0
    7.5881  -14.1327   26.5174 C   0  0  0  0  0  0  0  0  0  0  0  0
    8.3326  -12.9667   26.5969 C   0  0  0  0  0  0  0  0  0  0  0  0
    7.7396  -11.7202   26.5613 C   0  0  0  0  0  0  0  0  0  0  0  0
    6.3816  -11.5868   26.4452 C   0  0  0  0  0  0  0  0  0  0  0  0
    5.6199  -12.7340   26.3645 C   0  0  0  0  0  0  0  0  0  0  0  0
    6.2263  -13.9889   26.4010 C   0  0  0  0  0  0  0  0  0  0  0  0
    9.8729  -17.0194   25.5790 C   0  0  0  0  0  0  0  0  0  0  0  0
   10.6885  -17.0432   26.5224 O   0  0  0  0  0  0  0  0  0  0  0  0
    9.7723  -18.1132   24.7464 O   0  0  0  0  0  0  0  0  0  0  0  0
  2  1  1  0
  3  2  1  0
  3  4  2  0
  6  7  1  0
  6  5  1  0
  7  8  1  1
  9 10  1  1
  9  7  1  0
 10  3  1  0
 11  9  1  0
 12 11  2  0
 13 11  1  0
 14 13  1  0
 14 15  1  1
 15 16  1  0
 16 17  2  0
 17 18  1  0
 19 18  2  0
 20 19  1  0
 21 16  1  0
 21 20  2  0
 22 14  1  0
 22 24  1  0
 23 22  2  0
M  END
$$$$
