GIF.pdb
     RDKit          3D

 24 24  0  0  1  0  0  0  0  0999 V2000
   12.9351  -17.4901   19.3335 N   0  0  0  0  0  0  0  0  0  0  0  0
   11.5113  -17.2981   19.2933 C   0  0  0  0  0  0  0  0  0  0  0  0
   11.0656  -16.3344   20.3618 C   0  0  0  0  0  0  0  0  0  0  0  0
   11.8267  -15.4276   20.7622 O   0  0  0  0  0  0  0  0  0  0  0  0
    6.8949  -13.9616   19.2689 C   0  0  0  0  0  0  0  0  0  0  0  0
    8.0472  -14.0296   20.2029 C   0  0  0  0  0  0  0  0  0  0  0  0
    7.9121  -14.9309   21.3800 C   0  0  2  0  0  0  0  0  0  0  0  0
    7.2685  -14.0701   22.4828 C   0  0  0  0  0  0  0  0  0  0  0  0
    9.1912  -15.5037   21.8324 C   0  0  2  0  0  0  0  0  0  0  0  0
    9.7560  -16.4506   20.9319 N   0  0  0  0  0  0  0  0  0  0  0  0
    9.1946  -16.0417   23.1965 C   0  0  0  0  0  0  0  0  0  0  0  0
    9.1433  -17.2743   23.4653 O   0  0  0  0  0  0  0  0  0  0  0  0
    9.2559  -15.1525   24.3009 N   0  0  0  0  0  0  0  0  0  0  0  0
    9.3741  -15.6383   25.6619 C   0  0  1  0  0  0  0  0  0  0  0  0
    9.4797  -14.5619   26.6886 C   0  0  0  0  0  0  0  0  0  0  0  0
    8.4221  -13.5454   26.6473 C   0  0  0  0  0  0  0  0  0  0  0  0
    8.3356  -12.6064   25.6320 C   0  0  0  0  0  0  0  0  0  0  0  0
    7.3318  -11.6588   25.5999 C   0  0  0  0  0  0  0  0  0  0  0  0
    6.3747  -11.6097   26.5784 C   0  0  0  0  0  0  0  0  0  0  0  0
    6.4406  -12.5348   27.5994 C   0  0  0  0  0  0  0  0  0  0  0  0
    7.4574  -13.4885   27.6246 C   0  0  0  0  0  0  0  0  0  0  0  0
    8.2713  -16.6002   25.9685 C   0  0  0  0  0  0  0  0  0  0  0  0
    8.2870  -17.2835   27.0119 O   0  0  0  0  0  0  0  0  0  0  0  0
    7.2196  -16.7372   25.0881 O   0  0  0  0  0  0  0  0  0  0  0  0
  2  1  1  0
  3  2  1  0
  3  4  2  0
  6  7  1  0
  6  5  1  0
  7  8  1  1
  9 10  1  6
  9  7  1  0
 10  3  1  0
 11  9  1  0
 12 11  2  0
 13 11  1  0
 14 13  1  0
 14 15  1  1
 15 16  1  0
 16 17  2  0
 17 18  1  0
 19 18  2  0
 20 19  1  0
 21 16  1  0
 21 20  2  0
 22 14  1  0
 22 24  1  0
 23 22  2  0
M  END
$$$$
