GIF.pdb
     RDKit          3D

 24 24  0  0  1  0  0  0  0  0999 V2000
    5.5728  -19.9856   21.9018 N   0  0  0  0  0  0  0  0  0  0  0  0
    5.5070  -18.5934   22.2530 C   0  0  0  0  0  0  0  0  0  0  0  0
    6.8407  -17.9222   22.0532 C   0  0  0  0  0  0  0  0  0  0  0  0
    7.8491  -18.5872   21.7322 O   0  0  0  0  0  0  0  0  0  0  0  0
    7.5625  -12.0413   21.3918 C   0  0  0  0  0  0  0  0  0  0  0  0
    7.6059  -13.3635   22.0661 C   0  0  0  0  0  0  0  0  0  0  0  0
    7.9826  -14.5371   21.2312 C   0  0  2  0  0  0  0  0  0  0  0  0
    6.8467  -14.6891   20.2026 C   0  0  0  0  0  0  0  0  0  0  0  0
    8.1663  -15.7759   22.0061 C   0  0  2  0  0  0  0  0  0  0  0  0
    6.9649  -16.5057   22.2308 N   0  0  0  0  0  0  0  0  0  0  0  0
    8.9098  -15.6307   23.2616 C   0  0  0  0  0  0  0  0  0  0  0  0
   10.0515  -15.0979   23.3438 O   0  0  0  0  0  0  0  0  0  0  0  0
    8.3428  -16.1083   24.4717 N   0  0  0  0  0  0  0  0  0  0  0  0
    9.0636  -16.0391   25.7279 C   0  0  1  0  0  0  0  0  0  0  0  0
    8.2799  -15.4494   26.8512 C   0  0  0  0  0  0  0  0  0  0  0  0
    7.9033  -14.0406   26.6859 C   0  0  0  0  0  0  0  0  0  0  0  0
    8.8175  -13.0081   26.8212 C   0  0  0  0  0  0  0  0  0  0  0  0
    8.4531  -11.6865   26.6565 C   0  0  0  0  0  0  0  0  0  0  0  0
    7.1634  -11.3419   26.3505 C   0  0  0  0  0  0  0  0  0  0  0  0
    6.2358  -12.3532   26.2107 C   0  0  0  0  0  0  0  0  0  0  0  0
    6.6118  -13.6853   26.3786 C   0  0  0  0  0  0  0  0  0  0  0  0
    9.6267  -17.3790   26.0790 C   0  0  0  0  0  0  0  0  0  0  0  0
    9.3467  -18.3898   25.4041 O   0  0  0  0  0  0  0  0  0  0  0  0
   10.4681  -17.5037   27.1637 O   0  0  0  0  0  0  0  0  0  0  0  0
  2  1  1  0
  3  2  1  0
  3  4  2  0
  6  7  1  0
  6  5  1  0
  7  8  1  6
  9 10  1  1
  9  7  1  0
 10  3  1  0
 11  9  1  0
 12 11  2  0
 13 11  1  0
 14 13  1  0
 14 15  1  1
 15 16  1  0
 16 17  2  0
 17 18  1  0
 19 18  2  0
 20 19  1  0
 21 16  1  0
 21 20  2  0
 22 14  1  0
 22 24  1  0
 23 22  2  0
M  END
$$$$
