DKV.pdb
     RDKit          3D

 25 24  0  0  1  0  0  0  0  0999 V2000
    7.3814  -17.0033   19.2510 N   0  0  0  0  0  0  0  0  0  0  0  0
    8.4395  -16.6792   20.1613 C   0  0  1  0  0  0  0  0  0  0  0  0
    9.2133  -15.4539   19.7501 C   0  0  0  0  0  0  0  0  0  0  0  0
   10.0553  -15.7717   18.5666 C   0  0  0  0  0  0  0  0  0  0  0  0
   10.5593  -16.8985   18.3890 O   0  0  0  0  0  0  0  0  0  0  0  0
    7.8864  -16.4924   21.5228 C   0  0  0  0  0  0  0  0  0  0  0  0
    6.8727  -15.7629   21.6872 O   0  0  0  0  0  0  0  0  0  0  0  0
   10.3043  -14.7687   17.6029 O   0  0  0  0  0  0  0  0  0  0  0  0
    8.4453  -17.1037   22.6781 N   0  0  0  0  0  0  0  0  0  0  0  0
    7.7866  -16.9161   23.9617 C   0  0  1  0  0  0  0  0  0  0  0  0
    7.9565  -18.2249   24.7044 C   0  0  0  0  0  0  0  0  0  0  0  0
    7.3742  -18.2433   26.0721 C   0  0  0  0  0  0  0  0  0  0  0  0
    7.5511  -19.5745   26.7701 C   0  0  0  0  0  0  0  0  0  0  0  0
    6.8677  -19.5455   28.1189 C   0  0  0  0  0  0  0  0  0  0  0  0
    7.0952  -20.7831   28.8532 N   0  0  0  0  0  0  0  0  0  0  0  0
    8.4259  -15.8265   24.7112 C   0  0  0  0  0  0  0  0  0  0  0  0
    9.6856  -15.7491   24.7479 O   0  0  0  0  0  0  0  0  0  0  0  0
    6.0198  -12.9087   26.8248 C   0  0  0  0  0  0  0  0  0  0  0  0
    7.3070  -12.6344   26.1227 C   0  0  2  0  0  0  0  0  0  0  0  0
    7.0105  -12.1392   24.7123 C   0  0  0  0  0  0  0  0  0  0  0  0
    8.2939  -13.7623   26.1340 C   0  0  2  0  0  0  0  0  0  0  0  0
    7.6790  -14.8522   25.3985 N   0  0  0  0  0  0  0  0  0  0  0  0
    8.7511  -14.2115   27.4280 C   0  0  0  0  0  0  0  0  0  0  0  0
    9.5534  -13.4790   28.3041 O   0  0  0  0  0  0  0  0  0  0  0  0
    8.4179  -15.3541   27.8331 O   0  0  0  0  0  0  0  0  0  0  0  0
  2  1  1  6
  2  3  1  0
  3  4  1  0
  4  8  1  0
  5  4  2  0
  6  9  1  0
  6  2  1  0
  7  6  2  0
 10  9  1  0
 10 11  1  1
 11 12  1  0
 12 13  1  0
 13 14  1  0
 14 15  1  0
 16 10  1  0
 17 16  2  0
 19 18  1  6
 19 20  1  0
 19 21  1  0
 21 22  1  1
 21 23  1  0
 22 16  1  0
 23 24  1  0
 25 23  2  0
M  END
$$$$
