DKV.pdb
     RDKit          3D

 25 24  0  0  1  0  0  0  0  0999 V2000
    8.0012  -18.0275   19.8171 N   0  0  0  0  0  0  0  0  0  0  0  0
    8.5067  -16.7711   20.2852 C   0  0  1  0  0  0  0  0  0  0  0  0
    8.3157  -15.6545   19.2922 C   0  0  0  0  0  0  0  0  0  0  0  0
    9.1639  -15.9023   18.0965 C   0  0  0  0  0  0  0  0  0  0  0  0
   10.1792  -16.6254   18.1364 O   0  0  0  0  0  0  0  0  0  0  0  0
    7.8575  -16.4196   21.5696 C   0  0  0  0  0  0  0  0  0  0  0  0
    6.8585  -15.6523   21.5716 O   0  0  0  0  0  0  0  0  0  0  0  0
    8.8204  -15.2997   16.8654 O   0  0  0  0  0  0  0  0  0  0  0  0
    8.3061  -16.9109   22.8258 N   0  0  0  0  0  0  0  0  0  0  0  0
    7.5258  -16.6127   24.0171 C   0  0  1  0  0  0  0  0  0  0  0  0
    7.4667  -17.9064   24.8023 C   0  0  0  0  0  0  0  0  0  0  0  0
    6.6867  -18.9924   24.1525 C   0  0  0  0  0  0  0  0  0  0  0  0
    6.6228  -20.2529   24.9878 C   0  0  0  0  0  0  0  0  0  0  0  0
    5.8973  -21.3404   24.2273 C   0  0  0  0  0  0  0  0  0  0  0  0
    5.8878  -22.5911   24.9743 N   0  0  0  0  0  0  0  0  0  0  0  0
    8.1862  -15.5708   24.8145 C   0  0  0  0  0  0  0  0  0  0  0  0
    9.4443  -15.5697   24.9215 O   0  0  0  0  0  0  0  0  0  0  0  0
    5.8965  -12.4109   26.7982 C   0  0  0  0  0  0  0  0  0  0  0  0
    7.2699  -12.3279   26.2221 C   0  0  2  0  0  0  0  0  0  0  0  0
    7.1791  -11.8273   24.7856 C   0  0  0  0  0  0  0  0  0  0  0  0
    8.0882  -13.5780   26.3384 C   0  0  2  0  0  0  0  0  0  0  0  0
    7.4616  -14.5600   25.4722 N   0  0  0  0  0  0  0  0  0  0  0  0
    8.2730  -14.1114   27.6675 C   0  0  0  0  0  0  0  0  0  0  0  0
    9.0392  -13.5268   28.6769 O   0  0  0  0  0  0  0  0  0  0  0  0
    7.7110  -15.1924   27.9778 O   0  0  0  0  0  0  0  0  0  0  0  0
  2  1  1  6
  2  3  1  0
  3  4  1  0
  4  8  1  0
  5  4  2  0
  6  9  1  0
  6  2  1  0
  7  6  2  0
 10  9  1  0
 10 11  1  1
 11 12  1  0
 12 13  1  0
 13 14  1  0
 14 15  1  0
 16 10  1  0
 17 16  2  0
 19 18  1  6
 19 20  1  0
 19 21  1  0
 21 22  1  6
 21 23  1  0
 22 16  1  0
 23 24  1  0
 25 23  2  0
M  END
$$$$
