DKV.pdb
     RDKit          3D

 25 24  0  0  1  0  0  0  0  0999 V2000
    7.3158  -19.2863   20.0674 N   0  0  0  0  0  0  0  0  0  0  0  0
    6.9030  -17.9691   20.4522 C   0  0  1  0  0  0  0  0  0  0  0  0
    5.4063  -17.7983   20.4487 C   0  0  0  0  0  0  0  0  0  0  0  0
    4.8536  -18.2836   19.1566 C   0  0  0  0  0  0  0  0  0  0  0  0
    5.5608  -18.8464   18.2973 O   0  0  0  0  0  0  0  0  0  0  0  0
    7.4435  -17.6490   21.7938 C   0  0  0  0  0  0  0  0  0  0  0  0
    6.7957  -17.9836   22.8210 O   0  0  0  0  0  0  0  0  0  0  0  0
    3.4800  -18.1034   18.8782 O   0  0  0  0  0  0  0  0  0  0  0  0
    8.6783  -16.9731   21.9919 N   0  0  0  0  0  0  0  0  0  0  0  0
    9.2020  -16.8464   23.3434 C   0  0  1  0  0  0  0  0  0  0  0  0
   10.6884  -17.1151   23.2335 C   0  0  0  0  0  0  0  0  0  0  0  0
   11.4179  -17.1110   24.5287 C   0  0  0  0  0  0  0  0  0  0  0  0
   12.9052  -17.3410   24.3682 C   0  0  0  0  0  0  0  0  0  0  0  0
   13.5668  -17.4110   25.7264 C   0  0  0  0  0  0  0  0  0  0  0  0
   15.0014  -17.6331   25.6044 N   0  0  0  0  0  0  0  0  0  0  0  0
    8.9735  -15.4891   23.8562 C   0  0  0  0  0  0  0  0  0  0  0  0
    9.3728  -14.4941   23.1893 O   0  0  0  0  0  0  0  0  0  0  0  0
    6.5028  -13.0319   24.2192 C   0  0  0  0  0  0  0  0  0  0  0  0
    6.9097  -13.4269   25.5988 C   0  0  2  0  0  0  0  0  0  0  0  0
    6.6384  -12.2677   26.5503 C   0  0  0  0  0  0  0  0  0  0  0  0
    8.3072  -13.9529   25.7268 C   0  0  2  0  0  0  0  0  0  0  0  0
    8.3173  -15.2513   25.0778 N   0  0  0  0  0  0  0  0  0  0  0  0
    8.8463  -14.0444   27.0633 C   0  0  0  0  0  0  0  0  0  0  0  0
    9.2174  -15.2246   27.7093 O   0  0  0  0  0  0  0  0  0  0  0  0
    9.0092  -12.9922   27.7319 O   0  0  0  0  0  0  0  0  0  0  0  0
  2  1  1  1
  2  3  1  0
  3  4  1  0
  4  8  1  0
  5  4  2  0
  6  9  1  0
  6  2  1  0
  7  6  2  0
 10  9  1  0
 10 11  1  6
 11 12  1  0
 12 13  1  0
 13 14  1  0
 14 15  1  0
 16 10  1  0
 17 16  2  0
 19 18  1  6
 19 20  1  0
 19 21  1  0
 21 22  1  1
 21 23  1  0
 22 16  1  0
 23 24  1  0
 25 23  2  0
M  END
$$$$
