DKV.pdb
     RDKit          3D

 25 24  0  0  1  0  0  0  0  0999 V2000
   10.2672  -16.9547   19.4552 N   0  0  0  0  0  0  0  0  0  0  0  0
   10.9651  -17.2243   20.6773 C   0  0  1  0  0  0  0  0  0  0  0  0
   12.3156  -16.5602   20.7412 C   0  0  0  0  0  0  0  0  0  0  0  0
   13.2702  -17.2896   19.8653 C   0  0  0  0  0  0  0  0  0  0  0  0
   12.9718  -18.3593   19.2976 O   0  0  0  0  0  0  0  0  0  0  0  0
   10.1378  -16.7957   21.8290 C   0  0  0  0  0  0  0  0  0  0  0  0
    9.6699  -15.6266   21.8573 O   0  0  0  0  0  0  0  0  0  0  0  0
   14.5666  -16.7649   19.6635 O   0  0  0  0  0  0  0  0  0  0  0  0
    9.8345  -17.6473   22.9261 N   0  0  0  0  0  0  0  0  0  0  0  0
    8.9405  -17.1625   23.9667 C   0  0  1  0  0  0  0  0  0  0  0  0
    8.0403  -18.3309   24.3103 C   0  0  0  0  0  0  0  0  0  0  0  0
    7.0032  -18.6370   23.2902 C   0  0  0  0  0  0  0  0  0  0  0  0
    6.0823  -19.7640   23.7059 C   0  0  0  0  0  0  0  0  0  0  0  0
    5.0683  -20.0312   22.6161 C   0  0  0  0  0  0  0  0  0  0  0  0
    4.0788  -21.0111   23.0439 N   0  0  0  0  0  0  0  0  0  0  0  0
    9.7072  -16.7537   25.1511 C   0  0  0  0  0  0  0  0  0  0  0  0
   10.8072  -17.3177   25.4082 O   0  0  0  0  0  0  0  0  0  0  0  0
   10.1252  -13.2240   28.6439 C   0  0  0  0  0  0  0  0  0  0  0  0
    9.3966  -13.9737   27.5799 C   0  0  2  0  0  0  0  0  0  0  0  0
    7.9582  -14.2041   28.0276 C   0  0  0  0  0  0  0  0  0  0  0  0
   10.0590  -15.2372   27.1207 C   0  0  2  0  0  0  0  0  0  0  0  0
    9.2576  -15.7440   26.0216 N   0  0  0  0  0  0  0  0  0  0  0  0
   10.2660  -16.2608   28.1180 C   0  0  0  0  0  0  0  0  0  0  0  0
   11.3314  -16.3129   29.0180 O   0  0  0  0  0  0  0  0  0  0  0  0
    9.4364  -17.2007   28.2130 O   0  0  0  0  0  0  0  0  0  0  0  0
  2  1  1  6
  2  3  1  0
  3  4  1  0
  4  8  1  0
  5  4  2  0
  6  9  1  0
  6  2  1  0
  7  6  2  0
 10  9  1  0
 10 11  1  1
 11 12  1  0
 12 13  1  0
 13 14  1  0
 14 15  1  0
 16 10  1  0
 17 16  2  0
 19 18  1  1
 19 20  1  0
 19 21  1  0
 21 22  1  6
 21 23  1  0
 22 16  1  0
 23 24  1  0
 25 23  2  0
M  END
$$$$
