DKV.pdb
     RDKit          3D

 25 24  0  0  1  0  0  0  0  0999 V2000
    8.1527  -17.2634   19.2341 N   0  0  0  0  0  0  0  0  0  0  0  0
    9.0509  -17.0063   20.3206 C   0  0  1  0  0  0  0  0  0  0  0  0
   10.1064  -15.9865   19.9813 C   0  0  0  0  0  0  0  0  0  0  0  0
   11.2941  -16.6726   19.4075 C   0  0  0  0  0  0  0  0  0  0  0  0
   11.2040  -17.4951   18.4745 O   0  0  0  0  0  0  0  0  0  0  0  0
    8.2837  -16.5616   21.5073 C   0  0  0  0  0  0  0  0  0  0  0  0
    7.5436  -15.5458   21.4241 O   0  0  0  0  0  0  0  0  0  0  0  0
   12.5765  -16.3944   19.9318 O   0  0  0  0  0  0  0  0  0  0  0  0
    8.3352  -17.2313   22.7602 N   0  0  0  0  0  0  0  0  0  0  0  0
    7.4678  -16.7775   23.8366 C   0  0  1  0  0  0  0  0  0  0  0  0
    7.2515  -17.9849   24.7249 C   0  0  0  0  0  0  0  0  0  0  0  0
    6.4905  -19.0938   24.0916 C   0  0  0  0  0  0  0  0  0  0  0  0
    6.3672  -20.3094   24.9849 C   0  0  0  0  0  0  0  0  0  0  0  0
    5.5235  -21.3655   24.3067 C   0  0  0  0  0  0  0  0  0  0  0  0
    6.0160  -22.7046   24.6012 N   0  0  0  0  0  0  0  0  0  0  0  0
    8.1167  -15.7027   24.5989 C   0  0  0  0  0  0  0  0  0  0  0  0
    9.3717  -15.7054   24.7375 O   0  0  0  0  0  0  0  0  0  0  0  0
    7.5631  -11.1688   26.5281 C   0  0  0  0  0  0  0  0  0  0  0  0
    7.0760  -12.4141   25.8671 C   0  0  2  0  0  0  0  0  0  0  0  0
    5.6859  -12.7483   26.3947 C   0  0  0  0  0  0  0  0  0  0  0  0
    8.0095  -13.5842   25.9418 C   0  0  2  0  0  0  0  0  0  0  0  0
    7.3844  -14.6558   25.1882 N   0  0  0  0  0  0  0  0  0  0  0  0
    8.3799  -14.0355   27.2625 C   0  0  0  0  0  0  0  0  0  0  0  0
    8.0928  -15.2906   27.8011 O   0  0  0  0  0  0  0  0  0  0  0  0
    9.0157  -13.2590   28.0198 O   0  0  0  0  0  0  0  0  0  0  0  0
  2  1  1  6
  2  3  1  0
  3  4  1  0
  4  8  1  0
  5  4  2  0
  6  9  1  0
  6  2  1  0
  7  6  2  0
 10  9  1  0
 10 11  1  1
 11 12  1  0
 12 13  1  0
 13 14  1  0
 14 15  1  0
 16 10  1  0
 17 16  2  0
 19 18  1  1
 19 20  1  0
 19 21  1  0
 21 22  1  1
 21 23  1  0
 22 16  1  0
 23 24  1  0
 25 23  2  0
M  END
$$$$
