DKV.pdb
     RDKit          3D

 25 24  0  0  1  0  0  0  0  0999 V2000
   10.7827  -16.0720   18.7934 N   0  0  0  0  0  0  0  0  0  0  0  0
   11.2805  -15.7073   20.0866 C   0  0  1  0  0  0  0  0  0  0  0  0
   11.9515  -14.3586   20.0986 C   0  0  0  0  0  0  0  0  0  0  0  0
   13.3183  -14.4784   19.5259 C   0  0  0  0  0  0  0  0  0  0  0  0
   13.9936  -15.5224   19.6226 O   0  0  0  0  0  0  0  0  0  0  0  0
   10.1738  -15.7281   21.0712 C   0  0  0  0  0  0  0  0  0  0  0  0
    9.0837  -15.1615   20.7930 O   0  0  0  0  0  0  0  0  0  0  0  0
   13.8857  -13.3757   18.8485 O   0  0  0  0  0  0  0  0  0  0  0  0
   10.2738  -16.3661   22.3376 N   0  0  0  0  0  0  0  0  0  0  0  0
    9.0829  -16.4751   23.1663 C   0  0  1  0  0  0  0  0  0  0  0  0
    9.0568  -17.9069   23.6594 C   0  0  0  0  0  0  0  0  0  0  0  0
    7.9372  -18.2251   24.5841 C   0  0  0  0  0  0  0  0  0  0  0  0
    7.9760  -19.6521   25.0872 C   0  0  0  0  0  0  0  0  0  0  0  0
    6.7075  -19.9660   25.8486 C   0  0  0  0  0  0  0  0  0  0  0  0
    6.7141  -21.3361   26.3440 N   0  0  0  0  0  0  0  0  0  0  0  0
    9.1658  -15.5526   24.3063 C   0  0  0  0  0  0  0  0  0  0  0  0
   10.2923  -15.2761   24.8052 O   0  0  0  0  0  0  0  0  0  0  0  0
    6.5956  -12.4205   24.7168 C   0  0  0  0  0  0  0  0  0  0  0  0
    6.8116  -13.2370   25.9463 C   0  0  2  0  0  0  0  0  0  0  0  0
    6.6482  -12.3462   27.1720 C   0  0  0  0  0  0  0  0  0  0  0  0
    8.0896  -14.0191   25.9775 C   0  0  2  0  0  0  0  0  0  0  0  0
    8.0235  -14.9566   24.8713 N   0  0  0  0  0  0  0  0  0  0  0  0
    8.4018  -14.7031   27.2104 C   0  0  0  0  0  0  0  0  0  0  0  0
    9.2392  -14.2197   28.2167 O   0  0  0  0  0  0  0  0  0  0  0  0
    7.8943  -15.8322   27.4304 O   0  0  0  0  0  0  0  0  0  0  0  0
  2  1  1  6
  2  3  1  0
  3  4  1  0
  4  8  1  0
  5  4  2  0
  6  9  1  0
  6  2  1  0
  7  6  2  0
 10  9  1  0
 10 11  1  1
 11 12  1  0
 12 13  1  0
 13 14  1  0
 14 15  1  0
 16 10  1  0
 17 16  2  0
 19 18  1  6
 19 20  1  0
 19 21  1  0
 21 22  1  6
 21 23  1  0
 22 16  1  0
 23 24  1  0
 25 23  2  0
M  END
$$$$
