NPG.pdb
     RDKit          3D

 20 20  0  0  1  0  0  0  0  0999 V2000
   23.4600  -21.2747   -8.6018 N   0  0  0  0  0  0  0  0  0  0  0  0
   22.5279  -21.1361   -9.6746 C   0  0  0  0  0  0  0  0  0  0  0  0
   21.3236  -21.4263   -9.4071 O   0  0  0  0  0  0  0  0  0  0  0  0
   22.9703  -20.6768  -11.0148 C   0  0  0  0  0  0  0  0  0  0  0  0
   24.4838  -20.5889  -11.0105 C   0  0  2  0  0  0  0  0  0  0  0  0
   24.8957  -19.8422   -9.9037 N   0  0  0  0  0  0  0  0  0  0  0  0
   24.9475  -20.0772  -12.3233 C   0  0  0  0  0  0  0  0  0  0  0  0
   24.5005  -18.9385  -12.6801 O   0  0  0  0  0  0  0  0  0  0  0  0
   25.8413  -20.7807  -13.1745 N   0  0  0  0  0  0  0  0  0  0  0  0
   26.4397  -22.0527  -12.8255 C   0  0  0  0  0  0  0  0  0  0  0  0
   27.4551  -22.3543  -13.8980 C   0  0  0  0  0  0  0  0  0  0  0  0
   27.1013  -21.4621  -15.0321 C   0  0  0  0  0  0  0  0  0  0  0  0
   26.2648  -20.3461  -14.4657 C   0  0  1  0  0  0  0  0  0  0  0  0
   25.1280  -20.0249  -15.3700 C   0  0  0  0  0  0  0  0  0  0  0  0
   23.9651  -20.3419  -15.0232 O   0  0  0  0  0  0  0  0  0  0  0  0
   25.2954  -19.3731  -16.6142 N   0  0  0  0  0  0  0  0  0  0  0  0
   24.7215  -18.0785  -16.9194 C   0  0  0  0  0  0  0  0  0  0  0  0
   23.2796  -18.1684  -17.2015 C   0  0  0  0  0  0  0  0  0  0  0  0
   22.5047  -18.3468  -16.2250 O   0  0  0  0  0  0  0  0  0  0  0  0
   22.7215  -18.0712  -18.4562 O   0  0  0  0  0  0  0  0  0  0  0  0
  2  1  1  0
  3  2  2  0
  4  2  1  0
  5  4  1  0
  5  6  1  1
  7  5  1  0
  7  8  2  0
  9  7  1  0
 10  9  1  0
 11 12  1  0
 11 10  1  0
 12 13  1  0
 13  9  1  0
 13 14  1  6
 14 15  2  0
 14 16  1  0
 16 17  1  0
 17 18  1  0
 18 20  1  0
 19 18  2  0
M  END
$$$$
