NPG.pdb
     RDKit          3D

 20 20  0  0  1  0  0  0  0  0999 V2000
   21.0416  -21.2776  -13.1971 N   0  0  0  0  0  0  0  0  0  0  0  0
   22.0813  -20.4099  -13.6498 C   0  0  0  0  0  0  0  0  0  0  0  0
   21.9021  -19.1720  -13.4455 O   0  0  0  0  0  0  0  0  0  0  0  0
   23.2907  -20.9523  -14.3176 C   0  0  0  0  0  0  0  0  0  0  0  0
   23.4681  -20.2291  -15.6383 C   0  0  2  0  0  0  0  0  0  0  0  0
   22.3321  -20.4303  -16.4264 N   0  0  0  0  0  0  0  0  0  0  0  0
   24.7477  -20.6508  -16.2586 C   0  0  0  0  0  0  0  0  0  0  0  0
   24.6741  -21.5473  -17.1612 O   0  0  0  0  0  0  0  0  0  0  0  0
   26.0137  -20.1149  -15.9004 N   0  0  0  0  0  0  0  0  0  0  0  0
   26.1758  -18.9384  -15.0714 C   0  0  0  0  0  0  0  0  0  0  0  0
   27.6446  -18.6003  -15.0940 C   0  0  0  0  0  0  0  0  0  0  0  0
   28.3204  -19.8299  -15.5830 C   0  0  0  0  0  0  0  0  0  0  0  0
   27.2768  -20.6483  -16.2949 C   0  0  1  0  0  0  0  0  0  0  0  0
   27.4227  -22.0925  -15.9682 C   0  0  0  0  0  0  0  0  0  0  0  0
   26.7231  -22.5832  -15.0503 O   0  0  0  0  0  0  0  0  0  0  0  0
   28.3204  -22.9480  -16.6486 N   0  0  0  0  0  0  0  0  0  0  0  0
   28.4244  -24.3683  -16.3827 C   0  0  0  0  0  0  0  0  0  0  0  0
   29.3588  -25.0339  -17.3051 C   0  0  0  0  0  0  0  0  0  0  0  0
   29.5876  -26.2582  -17.1198 O   0  0  0  0  0  0  0  0  0  0  0  0
   29.9978  -24.4115  -18.3536 O   0  0  0  0  0  0  0  0  0  0  0  0
  2  1  1  0
  3  2  2  0
  4  2  1  0
  5  4  1  0
  5  6  1  6
  7  5  1  0
  7  8  2  0
  9  7  1  0
 10  9  1  0
 11 12  1  0
 11 10  1  0
 12 13  1  0
 13  9  1  0
 13 14  1  1
 14 15  2  0
 14 16  1  0
 16 17  1  0
 17 18  1  0
 18 20  1  0
 19 18  2  0
M  END
$$$$
