NPG.pdb
     RDKit          3D

 20 20  0  0  1  0  0  0  0  0999 V2000
   19.6268  -13.2213  -18.6442 N   0  0  0  0  0  0  0  0  0  0  0  0
   20.1420  -11.9647  -19.0849 C   0  0  0  0  0  0  0  0  0  0  0  0
   20.4178  -11.8776  -20.3188 O   0  0  0  0  0  0  0  0  0  0  0  0
   20.3334  -10.8425  -18.1325 C   0  0  0  0  0  0  0  0  0  0  0  0
   19.8955  -11.3073  -16.7575 C   0  0  2  0  0  0  0  0  0  0  0  0
   18.5118  -11.5006  -16.7589 N   0  0  0  0  0  0  0  0  0  0  0  0
   20.3973  -10.3551  -15.7368 C   0  0  0  0  0  0  0  0  0  0  0  0
   19.6173   -9.3992  -15.4183 O   0  0  0  0  0  0  0  0  0  0  0  0
   21.6719  -10.4595  -15.1180 N   0  0  0  0  0  0  0  0  0  0  0  0
   22.5994  -11.5405  -15.3802 C   0  0  0  0  0  0  0  0  0  0  0  0
   23.7283  -11.3820  -14.3940 C   0  0  0  0  0  0  0  0  0  0  0  0
   23.6167   -9.9872  -13.8943 C   0  0  0  0  0  0  0  0  0  0  0  0
   22.2087   -9.5342  -14.1739 C   0  0  1  0  0  0  0  0  0  0  0  0
   22.1919   -8.1302  -14.6656 C   0  0  0  0  0  0  0  0  0  0  0  0
   22.3744   -7.9100  -15.8868 O   0  0  0  0  0  0  0  0  0  0  0  0
   21.9781   -7.0200  -13.8155 N   0  0  0  0  0  0  0  0  0  0  0  0
   21.9261   -5.6519  -14.2890 C   0  0  0  0  0  0  0  0  0  0  0  0
   20.5517   -5.2316  -14.6071 C   0  0  0  0  0  0  0  0  0  0  0  0
   20.3667   -4.0226  -14.9071 O   0  0  0  0  0  0  0  0  0  0  0  0
   19.4577   -6.0671  -14.5991 O   0  0  0  0  0  0  0  0  0  0  0  0
  2  1  1  0
  3  2  2  0
  4  2  1  0
  5  4  1  0
  5  6  1  6
  7  5  1  0
  7  8  2  0
  9  7  1  0
 10  9  1  0
 11 12  1  0
 11 10  1  0
 12 13  1  0
 13  9  1  0
 13 14  1  6
 14 15  2  0
 14 16  1  0
 16 17  1  0
 17 18  1  0
 18 20  1  0
 19 18  2  0
M  END
$$$$
