NPG.pdb
     RDKit          3D

 20 20  0  0  1  0  0  0  0  0999 V2000
   20.5255  -32.0816   -9.1892 N   0  0  0  0  0  0  0  0  0  0  0  0
   20.5770  -32.4038   -7.7991 C   0  0  0  0  0  0  0  0  0  0  0  0
   19.7179  -31.8329   -7.0628 O   0  0  0  0  0  0  0  0  0  0  0  0
   21.5878  -33.3551   -7.2737 C   0  0  0  0  0  0  0  0  0  0  0  0
   22.4202  -33.8543   -8.4384 C   0  0  2  0  0  0  0  0  0  0  0  0
   21.6470  -34.7206   -9.2154 N   0  0  0  0  0  0  0  0  0  0  0  0
   23.6861  -34.4306   -7.9230 C   0  0  0  0  0  0  0  0  0  0  0  0
   23.5828  -35.4733   -7.1980 O   0  0  0  0  0  0  0  0  0  0  0  0
   24.9700  -33.8864   -8.1945 N   0  0  0  0  0  0  0  0  0  0  0  0
   25.1879  -32.7604   -9.0789 C   0  0  0  0  0  0  0  0  0  0  0  0
   26.6809  -32.6278   -9.2399 C   0  0  0  0  0  0  0  0  0  0  0  0
   27.2649  -33.4065   -8.1174 C   0  0  0  0  0  0  0  0  0  0  0  0
   26.1990  -34.3587   -7.6451 C   0  0  1  0  0  0  0  0  0  0  0  0
   26.1776  -34.4349   -6.1594 C   0  0  0  0  0  0  0  0  0  0  0  0
   25.4129  -33.6727   -5.5212 O   0  0  0  0  0  0  0  0  0  0  0  0
   26.9851  -35.3335   -5.4236 N   0  0  0  0  0  0  0  0  0  0  0  0
   26.9451  -35.4416   -3.9795 C   0  0  0  0  0  0  0  0  0  0  0  0
   27.7626  -34.4056   -3.3273 C   0  0  0  0  0  0  0  0  0  0  0  0
   27.1590  -33.5027   -2.6899 O   0  0  0  0  0  0  0  0  0  0  0  0
   29.1377  -34.3561   -3.3663 O   0  0  0  0  0  0  0  0  0  0  0  0
  2  1  1  0
  3  2  2  0
  4  2  1  0
  5  4  1  0
  5  6  1  1
  7  5  1  0
  7  8  2  0
  9  7  1  0
 10  9  1  0
 11 12  1  0
 11 10  1  0
 12 13  1  0
 13  9  1  0
 13 14  1  1
 14 15  2  0
 14 16  1  0
 16 17  1  0
 17 18  1  0
 18 20  1  0
 19 18  2  0
M  END
$$$$
