NPG.pdb
     RDKit          3D

 20 20  0  0  1  0  0  0  0  0999 V2000
   21.3526  -12.4212  -15.9688 N   0  0  0  0  0  0  0  0  0  0  0  0
   20.4349  -11.6177  -15.2266 C   0  0  0  0  0  0  0  0  0  0  0  0
   19.3396  -12.1711  -14.9101 O   0  0  0  0  0  0  0  0  0  0  0  0
   20.7694  -10.2189  -14.8601 C   0  0  0  0  0  0  0  0  0  0  0  0
   22.1843   -9.9324  -15.3232 C   0  0  2  0  0  0  0  0  0  0  0  0
   23.0750  -10.7151  -14.5841 N   0  0  0  0  0  0  0  0  0  0  0  0
   22.4316   -8.4711  -15.2642 C   0  0  0  0  0  0  0  0  0  0  0  0
   22.6725   -7.9808  -14.1130 O   0  0  0  0  0  0  0  0  0  0  0  0
   22.4117   -7.6199  -16.4016 N   0  0  0  0  0  0  0  0  0  0  0  0
   22.1757   -8.0954  -17.7491 C   0  0  0  0  0  0  0  0  0  0  0  0
   22.4268   -6.9242  -18.6642 C   0  0  0  0  0  0  0  0  0  0  0  0
   22.3826   -5.7265  -17.7861 C   0  0  0  0  0  0  0  0  0  0  0  0
   22.6140   -6.2079  -16.3787 C   0  0  1  0  0  0  0  0  0  0  0  0
   21.7110   -5.5091  -15.4248 C   0  0  0  0  0  0  0  0  0  0  0  0
   20.7148   -6.1202  -14.9699 O   0  0  0  0  0  0  0  0  0  0  0  0
   21.9227   -4.1762  -15.0013 N   0  0  0  0  0  0  0  0  0  0  0  0
   20.9811   -3.4413  -14.1815 C   0  0  0  0  0  0  0  0  0  0  0  0
   21.4414   -2.0696  -13.9102 C   0  0  0  0  0  0  0  0  0  0  0  0
   21.4262   -1.6757  -12.7142 O   0  0  0  0  0  0  0  0  0  0  0  0
   21.8861   -1.1903  -14.8715 O   0  0  0  0  0  0  0  0  0  0  0  0
  2  1  1  0
  3  2  2  0
  4  2  1  0
  5  4  1  0
  5  6  1  1
  7  5  1  0
  7  8  2  0
  9  7  1  0
 10  9  1  0
 11 12  1  0
 11 10  1  0
 12 13  1  0
 13  9  1  0
 13 14  1  1
 14 15  2  0
 14 16  1  0
 16 17  1  0
 17 18  1  0
 18 20  1  0
 19 18  2  0
M  END
$$$$
