NPG.pdb
     RDKit          3D

 20 20  0  0  1  0  0  0  0  0999 V2000
   16.5302  -11.0050  -18.0767 N   0  0  0  0  0  0  0  0  0  0  0  0
   16.3314   -9.7303  -17.4648 C   0  0  0  0  0  0  0  0  0  0  0  0
   15.4249   -9.0042  -17.9720 O   0  0  0  0  0  0  0  0  0  0  0  0
   17.1522   -9.3054  -16.3035 C   0  0  0  0  0  0  0  0  0  0  0  0
   18.1219  -10.4232  -15.9735 C   0  0  2  0  0  0  0  0  0  0  0  0
   17.4541  -11.4064  -15.2392 N   0  0  0  0  0  0  0  0  0  0  0  0
   19.3215   -9.8511  -15.3149 C   0  0  0  0  0  0  0  0  0  0  0  0
   19.2028   -9.5445  -14.0838 O   0  0  0  0  0  0  0  0  0  0  0  0
   20.5598   -9.6363  -15.9775 N   0  0  0  0  0  0  0  0  0  0  0  0
   20.8360  -10.1008  -17.3213 C   0  0  0  0  0  0  0  0  0  0  0  0
   22.3003   -9.8422  -17.5688 C   0  0  0  0  0  0  0  0  0  0  0  0
   22.7049   -8.8626  -16.5276 C   0  0  0  0  0  0  0  0  0  0  0  0
   21.6808   -8.9462  -15.4275 C   0  0  1  0  0  0  0  0  0  0  0  0
   21.3347   -7.5903  -14.9221 C   0  0  0  0  0  0  0  0  0  0  0  0
   20.5078   -6.8952  -15.5593 O   0  0  0  0  0  0  0  0  0  0  0  0
   21.8977   -7.0409  -13.7465 N   0  0  0  0  0  0  0  0  0  0  0  0
   21.4781   -5.7765  -13.1774 C   0  0  0  0  0  0  0  0  0  0  0  0
   22.0145   -4.6299  -13.9288 C   0  0  0  0  0  0  0  0  0  0  0  0
   21.6910   -3.4763  -13.5411 O   0  0  0  0  0  0  0  0  0  0  0  0
   22.8433   -4.7318  -15.0232 O   0  0  0  0  0  0  0  0  0  0  0  0
  2  1  1  0
  3  2  2  0
  4  2  1  0
  5  4  1  0
  5  6  1  1
  7  5  1  0
  7  8  2  0
  9  7  1  0
 10  9  1  0
 11 12  1  0
 11 10  1  0
 12 13  1  0
 13  9  1  0
 13 14  1  6
 14 15  2  0
 14 16  1  0
 16 17  1  0
 17 18  1  0
 18 20  1  0
 19 18  2  0
M  END
$$$$
