NPG.pdb
     RDKit          3D

 20 20  0  0  1  0  0  0  0  0999 V2000
   15.2388  -27.9350   -5.1728 N   0  0  0  0  0  0  0  0  0  0  0  0
   16.0973  -27.7311   -6.2953 C   0  0  0  0  0  0  0  0  0  0  0  0
   16.9706  -28.6267   -6.4987 O   0  0  0  0  0  0  0  0  0  0  0  0
   15.9538  -26.5314   -7.1573 C   0  0  0  0  0  0  0  0  0  0  0  0
   17.1555  -25.6358   -6.9279 C   0  0  2  0  0  0  0  0  0  0  0  0
   17.1245  -25.1554   -5.6164 N   0  0  0  0  0  0  0  0  0  0  0  0
   17.1949  -24.5914   -7.9805 C   0  0  0  0  0  0  0  0  0  0  0  0
   16.4933  -23.5482   -7.7732 O   0  0  0  0  0  0  0  0  0  0  0  0
   17.9578  -24.7010   -9.1739 N   0  0  0  0  0  0  0  0  0  0  0  0
   18.8979  -25.7741   -9.4235 C   0  0  0  0  0  0  0  0  0  0  0  0
   19.6244  -25.4168  -10.6951 C   0  0  0  0  0  0  0  0  0  0  0  0
   18.7850  -24.3773  -11.3450 C   0  0  0  0  0  0  0  0  0  0  0  0
   17.9058  -23.7921  -10.2724 C   0  0  1  0  0  0  0  0  0  0  0  0
   16.5240  -23.5758  -10.7799 C   0  0  0  0  0  0  0  0  0  0  0  0
   15.8249  -24.5708  -11.0866 O   0  0  0  0  0  0  0  0  0  0  0  0
   15.9541  -22.2906  -10.9350 N   0  0  0  0  0  0  0  0  0  0  0  0
   16.1279  -21.4796  -12.1228 C   0  0  0  0  0  0  0  0  0  0  0  0
   15.5543  -22.1222  -13.3165 C   0  0  0  0  0  0  0  0  0  0  0  0
   14.6389  -21.5083  -13.9257 O   0  0  0  0  0  0  0  0  0  0  0  0
   15.9487  -23.3447  -13.8113 O   0  0  0  0  0  0  0  0  0  0  0  0
  2  1  1  0
  3  2  2  0
  4  2  1  0
  5  4  1  0
  5  6  1  1
  7  5  1  0
  7  8  2  0
  9  7  1  0
 10  9  1  0
 11 12  1  0
 11 10  1  0
 12 13  1  0
 13  9  1  0
 13 14  1  6
 14 15  2  0
 14 16  1  0
 16 17  1  0
 17 18  1  0
 18 20  1  0
 19 18  2  0
M  END
$$$$
