STK.pdb
     RDKit          3D

 23 22  0  0  1  0  0  0  0  0999 V2000
    8.6886  -18.0766   16.5575 O   0  0  0  0  0  0  0  0  0  0  0  0
    8.7023  -17.2638   15.4321 C   0  0  0  0  0  0  0  0  0  0  0  0
    7.9662  -15.9495   15.7150 C   0  0  2  0  0  0  0  0  0  0  0  0
    7.9863  -15.1267   14.5219 N   0  0  0  0  0  0  0  0  0  0  0  0
    8.5995  -15.2368   16.8547 C   0  0  0  0  0  0  0  0  0  0  0  0
    9.2048  -14.1473   16.6903 O   0  0  0  0  0  0  0  0  0  0  0  0
    7.7738  -12.9957   18.2702 C   0  0  0  0  0  0  0  0  0  0  0  0
    7.8141  -13.8568   19.4912 C   0  0  1  0  0  0  0  0  0  0  0  0
    6.6072  -14.4085   19.8300 O   0  0  0  0  0  0  0  0  0  0  0  0
    8.8656  -14.9702   19.3655 C   0  0  2  0  0  0  0  0  0  0  0  0
    8.5511  -15.7499   18.1767 N   0  0  0  0  0  0  0  0  0  0  0  0
    8.9413  -15.8142   20.5674 C   0  0  0  0  0  0  0  0  0  0  0  0
    8.1891  -16.8169   20.6485 O   0  0  0  0  0  0  0  0  0  0  0  0
    9.8262  -15.5426   21.6327 N   0  0  0  0  0  0  0  0  0  0  0  0
    9.9282  -16.3575   22.8380 C   0  0  1  0  0  0  0  0  0  0  0  0
   11.2136  -17.0782   22.9302 C   0  0  0  0  0  0  0  0  0  0  0  0
   11.2589  -18.4876   22.4820 C   0  0  0  0  0  0  0  0  0  0  0  0
   12.5879  -19.1785   22.5468 C   0  0  0  0  0  0  0  0  0  0  0  0
   12.4635  -20.6403   22.1969 C   0  0  0  0  0  0  0  0  0  0  0  0
   13.7194  -21.3372   22.2842 N   0  0  0  0  0  0  0  0  0  0  0  0
    9.5507  -15.6370   24.0432 C   0  0  0  0  0  0  0  0  0  0  0  0
    9.4564  -14.3807   24.0109 O   0  0  0  0  0  0  0  0  0  0  0  0
    9.2814  -16.2732   25.2638 O   0  0  0  0  0  0  0  0  0  0  0  0
  2  1  1  0
  3  4  1  6
  3  2  1  0
  5  6  2  0
  5  3  1  0
  8  7  1  6
  8 10  1  0
  9  8  1  0
 10 11  1  6
 10 12  1  0
 11  5  1  0
 12 14  1  0
 13 12  2  0
 14 15  1  0
 15 21  1  0
 15 16  1  1
 16 17  1  0
 18 17  1  0
 19 18  1  0
 20 19  1  0
 21 22  2  0
 21 23  1  0
M  END
$$$$
