STK.pdb
     RDKit          3D

 23 22  0  0  1  0  0  0  0  0999 V2000
    8.5294  -18.7319   17.0878 O   0  0  0  0  0  0  0  0  0  0  0  0
    7.4785  -17.9332   16.6577 C   0  0  0  0  0  0  0  0  0  0  0  0
    7.9718  -16.5097   16.3756 C   0  0  2  0  0  0  0  0  0  0  0  0
    8.8124  -16.5229   15.1948 N   0  0  0  0  0  0  0  0  0  0  0  0
    8.7187  -15.9796   17.5456 C   0  0  0  0  0  0  0  0  0  0  0  0
    9.9756  -15.9581   17.5646 O   0  0  0  0  0  0  0  0  0  0  0  0
    7.5905  -12.7227   19.5198 C   0  0  0  0  0  0  0  0  0  0  0  0
    7.8279  -13.8506   20.4714 C   0  0  1  0  0  0  0  0  0  0  0  0
    6.6841  -14.4348   20.9471 O   0  0  0  0  0  0  0  0  0  0  0  0
    8.7332  -14.9297   19.8572 C   0  0  2  0  0  0  0  0  0  0  0  0
    8.0516  -15.4748   18.6916 N   0  0  0  0  0  0  0  0  0  0  0  0
    9.0925  -15.9811   20.8205 C   0  0  0  0  0  0  0  0  0  0  0  0
    8.5080  -17.0906   20.7481 O   0  0  0  0  0  0  0  0  0  0  0  0
   10.0686  -15.7932   21.8222 N   0  0  0  0  0  0  0  0  0  0  0  0
   10.4819  -16.8270   22.7644 C   0  0  1  0  0  0  0  0  0  0  0  0
   11.9301  -17.1081   22.7012 C   0  0  0  0  0  0  0  0  0  0  0  0
   12.4602  -18.2313   23.5055 C   0  0  0  0  0  0  0  0  0  0  0  0
   13.9333  -18.4953   23.4153 C   0  0  0  0  0  0  0  0  0  0  0  0
   14.3249  -19.7018   24.2313 C   0  0  0  0  0  0  0  0  0  0  0  0
   15.7315  -19.9929   24.1452 N   0  0  0  0  0  0  0  0  0  0  0  0
    9.9657  -16.6103   24.1064 C   0  0  0  0  0  0  0  0  0  0  0  0
    9.5215  -15.4745   24.4241 O   0  0  0  0  0  0  0  0  0  0  0  0
    9.9346  -17.6129   25.0867 O   0  0  0  0  0  0  0  0  0  0  0  0
  2  1  1  0
  3  4  1  6
  3  2  1  0
  5  6  2  0
  5  3  1  0
  8  7  1  6
  8 10  1  0
  9  8  1  0
 10 11  1  6
 10 12  1  0
 11  5  1  0
 12 14  1  0
 13 12  2  0
 14 15  1  0
 15 21  1  0
 15 16  1  1
 16 17  1  0
 18 17  1  0
 19 18  1  0
 20 19  1  0
 21 22  2  0
 21 23  1  0
M  END
$$$$
