STK.pdb
     RDKit          3D

 23 22  0  0  1  0  0  0  0  0999 V2000
    8.7848  -19.0826   20.2492 O   0  0  0  0  0  0  0  0  0  0  0  0
    8.6645  -18.7860   18.8984 C   0  0  0  0  0  0  0  0  0  0  0  0
    9.5543  -17.5927   18.5335 C   0  0  2  0  0  0  0  0  0  0  0  0
   10.8913  -18.0688   18.2387 N   0  0  0  0  0  0  0  0  0  0  0  0
    9.5813  -16.6081   19.6460 C   0  0  0  0  0  0  0  0  0  0  0  0
   10.5671  -16.5237   20.4215 O   0  0  0  0  0  0  0  0  0  0  0  0
    7.8469  -12.8999   19.2929 C   0  0  0  0  0  0  0  0  0  0  0  0
    7.4555  -13.6365   20.5332 C   0  0  1  0  0  0  0  0  0  0  0  0
    6.2186  -14.2215   20.4727 O   0  0  0  0  0  0  0  0  0  0  0  0
    8.5010  -14.6948   20.9181 C   0  0  2  0  0  0  0  0  0  0  0  0
    8.5003  -15.7205   19.8845 N   0  0  0  0  0  0  0  0  0  0  0  0
    8.2631  -15.2648   22.2527 C   0  0  0  0  0  0  0  0  0  0  0  0
    7.5445  -16.2903   22.3511 O   0  0  0  0  0  0  0  0  0  0  0  0
    8.8112  -14.7057   23.4268 N   0  0  0  0  0  0  0  0  0  0  0  0
    8.4670  -15.1398   24.7761 C   0  0  1  0  0  0  0  0  0  0  0  0
    9.5710  -15.8607   25.4407 C   0  0  0  0  0  0  0  0  0  0  0  0
    9.9778  -17.1741   24.8940 C   0  0  0  0  0  0  0  0  0  0  0  0
   11.0831  -17.8936   25.6070 C   0  0  0  0  0  0  0  0  0  0  0  0
   11.4638  -19.1637   24.8880 C   0  0  0  0  0  0  0  0  0  0  0  0
   12.5303  -19.8713   25.5455 N   0  0  0  0  0  0  0  0  0  0  0  0
    7.8659  -14.0843   25.5753 C   0  0  0  0  0  0  0  0  0  0  0  0
    7.9553  -12.8876   25.1904 O   0  0  0  0  0  0  0  0  0  0  0  0
    7.1798  -14.3271   26.7742 O   0  0  0  0  0  0  0  0  0  0  0  0
  2  1  1  0
  3  4  1  1
  3  2  1  0
  5  6  2  0
  5  3  1  0
  8  7  1  6
  8 10  1  0
  9  8  1  0
 10 11  1  6
 10 12  1  0
 11  5  1  0
 12 14  1  0
 13 12  2  0
 14 15  1  0
 15 21  1  0
 15 16  1  1
 16 17  1  0
 18 17  1  0
 19 18  1  0
 20 19  1  0
 21 22  2  0
 21 23  1  0
M  END
$$$$
