STK.pdb
     RDKit          3D

 23 22  0  0  1  0  0  0  0  0999 V2000
    7.7083  -13.3691   20.8645 O   0  0  0  0  0  0  0  0  0  0  0  0
    7.2548  -13.1958   19.5639 C   0  0  0  0  0  0  0  0  0  0  0  0
    8.4384  -13.1041   18.5945 C   0  0  2  0  0  0  0  0  0  0  0  0
    7.9363  -13.0178   17.2375 N   0  0  0  0  0  0  0  0  0  0  0  0
    9.3279  -14.2839   18.7509 C   0  0  0  0  0  0  0  0  0  0  0  0
    9.0029  -15.4126   18.3027 O   0  0  0  0  0  0  0  0  0  0  0  0
   12.2758  -15.1553   17.2701 C   0  0  0  0  0  0  0  0  0  0  0  0
   12.6805  -15.1698   18.7089 C   0  0  1  0  0  0  0  0  0  0  0  0
   13.4123  -14.0795   19.0979 O   0  0  0  0  0  0  0  0  0  0  0  0
   11.4665  -15.3260   19.6378 C   0  0  2  0  0  0  0  0  0  0  0  0
   10.5809  -14.1928   19.4106 N   0  0  0  0  0  0  0  0  0  0  0  0
   11.8493  -15.4442   21.0528 C   0  0  0  0  0  0  0  0  0  0  0  0
   12.2543  -14.4193   21.6556 O   0  0  0  0  0  0  0  0  0  0  0  0
   11.7787  -16.6632   21.7603 N   0  0  0  0  0  0  0  0  0  0  0  0
   12.2001  -16.8288   23.1467 C   0  0  1  0  0  0  0  0  0  0  0  0
   11.5583  -17.9859   23.8020 C   0  0  0  0  0  0  0  0  0  0  0  0
   10.1041  -18.1805   23.6100 C   0  0  0  0  0  0  0  0  0  0  0  0
    9.4831  -19.3679   24.2825 C   0  0  0  0  0  0  0  0  0  0  0  0
    7.9782  -19.3243   24.1921 C   0  0  0  0  0  0  0  0  0  0  0  0
    7.3519  -20.4160   24.8895 N   0  0  0  0  0  0  0  0  0  0  0  0
   13.6432  -16.7634   23.3124 C   0  0  0  0  0  0  0  0  0  0  0  0
   14.1315  -16.6857   24.4717 O   0  0  0  0  0  0  0  0  0  0  0  0
   14.5400  -16.7811   22.2343 O   0  0  0  0  0  0  0  0  0  0  0  0
  2  1  1  0
  3  4  1  6
  3  2  1  0
  5  6  2  0
  5  3  1  0
  8  7  1  6
  8 10  1  0
  9  8  1  0
 10 11  1  1
 10 12  1  0
 11  5  1  0
 12 14  1  0
 13 12  2  0
 14 15  1  0
 15 21  1  0
 15 16  1  6
 16 17  1  0
 18 17  1  0
 19 18  1  0
 20 19  1  0
 21 22  2  0
 21 23  1  0
M  END
$$$$
