STK.pdb
     RDKit          3D

 23 22  0  0  1  0  0  0  0  0999 V2000
    8.7704  -19.0029   18.5991 O   0  0  0  0  0  0  0  0  0  0  0  0
    7.7675  -18.3264   17.9182 C   0  0  0  0  0  0  0  0  0  0  0  0
    8.2838  -16.9736   17.4154 C   0  0  2  0  0  0  0  0  0  0  0  0
    9.2812  -17.1973   16.3878 N   0  0  0  0  0  0  0  0  0  0  0  0
    8.8555  -16.1878   18.5394 C   0  0  0  0  0  0  0  0  0  0  0  0
   10.0063  -15.6868   18.4689 O   0  0  0  0  0  0  0  0  0  0  0  0
    7.3499  -13.1363   20.0717 C   0  0  0  0  0  0  0  0  0  0  0  0
    7.5375  -14.1177   21.1833 C   0  0  1  0  0  0  0  0  0  0  0  0
    6.3910  -14.7642   21.5617 O   0  0  0  0  0  0  0  0  0  0  0  0
    8.6198  -15.1554   20.8469 C   0  0  2  0  0  0  0  0  0  0  0  0
    8.1327  -15.9667   19.7402 N   0  0  0  0  0  0  0  0  0  0  0  0
    8.9912  -15.9804   22.0062 C   0  0  0  0  0  0  0  0  0  0  0  0
    8.4322  -17.0952   22.1570 O   0  0  0  0  0  0  0  0  0  0  0  0
    9.9515  -15.5697   22.9553 N   0  0  0  0  0  0  0  0  0  0  0  0
   10.3084  -16.3391   24.1419 C   0  0  1  0  0  0  0  0  0  0  0  0
   11.7670  -16.3991   24.3633 C   0  0  0  0  0  0  0  0  0  0  0  0
   12.4572  -17.6872   24.1311 C   0  0  0  0  0  0  0  0  0  0  0  0
   13.9428  -17.7076   24.3322 C   0  0  0  0  0  0  0  0  0  0  0  0
   14.5427  -19.0068   23.8557 C   0  0  0  0  0  0  0  0  0  0  0  0
   15.9814  -18.9788   23.8448 N   0  0  0  0  0  0  0  0  0  0  0  0
    9.5334  -15.9658   25.3141 C   0  0  0  0  0  0  0  0  0  0  0  0
    8.9788  -14.8349   25.3566 O   0  0  0  0  0  0  0  0  0  0  0  0
    9.3657  -16.8089   26.4223 O   0  0  0  0  0  0  0  0  0  0  0  0
  2  1  1  0
  3  4  1  6
  3  2  1  0
  5  6  2  0
  5  3  1  0
  8  7  1  6
  8 10  1  0
  9  8  1  0
 10 11  1  6
 10 12  1  0
 11  5  1  0
 12 14  1  0
 13 12  2  0
 14 15  1  0
 15 21  1  0
 15 16  1  1
 16 17  1  0
 18 17  1  0
 19 18  1  0
 20 19  1  0
 21 22  2  0
 21 23  1  0
M  END
$$$$
