STK.pdb
     RDKit          3D

 23 22  0  0  1  0  0  0  0  0999 V2000
   -6.0492  -26.0527   22.4747 O   0  0  0  0  0  0  0  0  0  0  0  0
   -4.7225  -25.8549   22.1171 C   0  0  0  0  0  0  0  0  0  0  0  0
   -4.5086  -26.2150   20.6427 C   0  0  2  0  0  0  0  0  0  0  0  0
   -5.5082  -27.1844   20.2400 N   0  0  0  0  0  0  0  0  0  0  0  0
   -3.1401  -26.7553   20.4352 C   0  0  0  0  0  0  0  0  0  0  0  0
   -2.9343  -27.9902   20.3217 O   0  0  0  0  0  0  0  0  0  0  0  0
   -0.6905  -25.1718   17.8126 C   0  0  0  0  0  0  0  0  0  0  0  0
   -0.0076  -25.2934   19.1366 C   0  0  1  0  0  0  0  0  0  0  0  0
    0.0748  -24.1190   19.8364 O   0  0  0  0  0  0  0  0  0  0  0  0
   -0.6662  -26.3661   20.0179 C   0  0  2  0  0  0  0  0  0  0  0  0
   -2.0059  -25.9065   20.3558 N   0  0  0  0  0  0  0  0  0  0  0  0
    0.1243  -26.6739   21.2191 C   0  0  0  0  0  0  0  0  0  0  0  0
   -0.2499  -26.2065   22.3234 O   0  0  0  0  0  0  0  0  0  0  0  0
    1.2860  -27.4741   21.1804 N   0  0  0  0  0  0  0  0  0  0  0  0
    2.1221  -27.7573   22.3414 C   0  0  1  0  0  0  0  0  0  0  0  0
    2.8407  -29.0419   22.2252 C   0  0  0  0  0  0  0  0  0  0  0  0
    3.7598  -29.4305   23.3178 C   0  0  0  0  0  0  0  0  0  0  0  0
    4.5120  -30.7162   23.1475 C   0  0  0  0  0  0  0  0  0  0  0  0
    5.4432  -30.9643   24.3078 C   0  0  0  0  0  0  0  0  0  0  0  0
    6.2252  -32.1607   24.1413 N   0  0  0  0  0  0  0  0  0  0  0  0
    2.9559  -26.6306   22.7282 C   0  0  0  0  0  0  0  0  0  0  0  0
    3.4153  -25.8649   21.8388 O   0  0  0  0  0  0  0  0  0  0  0  0
    3.2851  -26.3425   24.0607 O   0  0  0  0  0  0  0  0  0  0  0  0
  2  1  1  0
  3  4  1  1
  3  2  1  0
  5  6  2  0
  5  3  1  0
  8  7  1  6
  8 10  1  0
  9  8  1  0
 10 11  1  1
 10 12  1  0
 11  5  1  0
 12 14  1  0
 13 12  2  0
 14 15  1  0
 15 21  1  0
 15 16  1  6
 16 17  1  0
 18 17  1  0
 19 18  1  0
 20 19  1  0
 21 22  2  0
 21 23  1  0
M  END
$$$$
