STK.pdb
     RDKit          3D

 23 22  0  0  1  0  0  0  0  0999 V2000
    1.4505  -18.7789   22.0218 O   0  0  0  0  0  0  0  0  0  0  0  0
    2.7633  -18.9377   22.4447 C   0  0  0  0  0  0  0  0  0  0  0  0
    3.7346  -18.5489   21.3246 C   0  0  2  0  0  0  0  0  0  0  0  0
    3.7222  -19.5793   20.3053 N   0  0  0  0  0  0  0  0  0  0  0  0
    5.1050  -18.3655   21.8687 C   0  0  0  0  0  0  0  0  0  0  0  0
    5.8028  -19.3471   22.2294 O   0  0  0  0  0  0  0  0  0  0  0  0
    7.5422  -15.4964   20.4653 C   0  0  0  0  0  0  0  0  0  0  0  0
    7.5196  -15.4983   21.9598 C   0  0  1  0  0  0  0  0  0  0  0  0
    6.7834  -14.4841   22.5121 O   0  0  0  0  0  0  0  0  0  0  0  0
    7.0313  -16.8442   22.5178 C   0  0  2  0  0  0  0  0  0  0  0  0
    5.6884  -17.0794   22.0064 N   0  0  0  0  0  0  0  0  0  0  0  0
    7.0724  -16.8951   23.9869 C   0  0  0  0  0  0  0  0  0  0  0  0
    6.1268  -16.3815   24.6348 O   0  0  0  0  0  0  0  0  0  0  0  0
    8.1317  -17.4991   24.6973 N   0  0  0  0  0  0  0  0  0  0  0  0
    8.2958  -17.4181   26.1443 C   0  0  1  0  0  0  0  0  0  0  0  0
    8.4071  -18.7465   26.7793 C   0  0  0  0  0  0  0  0  0  0  0  0
    7.3262  -19.7284   26.5409 C   0  0  0  0  0  0  0  0  0  0  0  0
    7.5543  -21.1239   27.0392 C   0  0  0  0  0  0  0  0  0  0  0  0
    6.4454  -22.0493   26.6047 C   0  0  0  0  0  0  0  0  0  0  0  0
    6.6119  -23.3858   27.1114 N   0  0  0  0  0  0  0  0  0  0  0  0
    9.3199  -16.4675   26.5466 C   0  0  0  0  0  0  0  0  0  0  0  0
    9.4904  -16.2205   27.7706 O   0  0  0  0  0  0  0  0  0  0  0  0
   10.1441  -15.7960   25.6318 O   0  0  0  0  0  0  0  0  0  0  0  0
  2  1  1  0
  3  4  1  6
  3  2  1  0
  5  6  2  0
  5  3  1  0
  8  7  1  6
  8 10  1  0
  9  8  1  0
 10 11  1  1
 10 12  1  0
 11  5  1  0
 12 14  1  0
 13 12  2  0
 14 15  1  0
 15 21  1  0
 15 16  1  6
 16 17  1  0
 18 17  1  0
 19 18  1  0
 20 19  1  0
 21 22  2  0
 21 23  1  0
M  END
$$$$
