STK.pdb
     RDKit          3D

 23 22  0  0  1  0  0  0  0  0999 V2000
   12.3140  -13.8856   17.1594 O   0  0  0  0  0  0  0  0  0  0  0  0
   11.5253  -13.5450   18.2499 C   0  0  0  0  0  0  0  0  0  0  0  0
   10.1056  -14.0951   18.0734 C   0  0  2  0  0  0  0  0  0  0  0  0
    9.3737  -13.2389   17.1612 N   0  0  0  0  0  0  0  0  0  0  0  0
    9.4148  -14.1752   19.3864 C   0  0  0  0  0  0  0  0  0  0  0  0
    8.8413  -13.1744   19.8863 O   0  0  0  0  0  0  0  0  0  0  0  0
    6.5752  -16.3543   20.2105 C   0  0  0  0  0  0  0  0  0  0  0  0
    7.6407  -16.6935   21.2023 C   0  0  1  0  0  0  0  0  0  0  0  0
    8.3278  -17.8436   20.9179 O   0  0  0  0  0  0  0  0  0  0  0  0
    8.6364  -15.5371   21.3828 C   0  0  2  0  0  0  0  0  0  0  0  0
    9.3699  -15.3799   20.1348 N   0  0  0  0  0  0  0  0  0  0  0  0
    9.5399  -15.7424   22.5247 C   0  0  0  0  0  0  0  0  0  0  0  0
   10.6866  -16.2081   22.3103 O   0  0  0  0  0  0  0  0  0  0  0  0
    9.1699  -15.4360   23.8517 N   0  0  0  0  0  0  0  0  0  0  0  0
    9.9780  -15.7623   25.0212 C   0  0  1  0  0  0  0  0  0  0  0  0
    9.5511  -15.0296   26.2299 C   0  0  0  0  0  0  0  0  0  0  0  0
   10.2411  -15.3228   27.5056 C   0  0  0  0  0  0  0  0  0  0  0  0
    9.8270  -14.5196   28.7020 C   0  0  0  0  0  0  0  0  0  0  0  0
   10.5811  -14.9463   29.9365 C   0  0  0  0  0  0  0  0  0  0  0  0
   10.1627  -14.2314   31.1131 N   0  0  0  0  0  0  0  0  0  0  0  0
   10.1496  -17.1937   25.2105 C   0  0  0  0  0  0  0  0  0  0  0  0
   11.2562  -17.6370   25.6193 O   0  0  0  0  0  0  0  0  0  0  0  0
    9.1340  -18.1274   24.9579 O   0  0  0  0  0  0  0  0  0  0  0  0
  2  1  1  0
  3  4  1  6
  3  2  1  0
  5  6  2  0
  5  3  1  0
  8  7  1  6
  8 10  1  0
  9  8  1  0
 10 11  1  6
 10 12  1  0
 11  5  1  0
 12 14  1  0
 13 12  2  0
 14 15  1  0
 15 21  1  0
 15 16  1  1
 16 17  1  0
 18 17  1  0
 19 18  1  0
 20 19  1  0
 21 22  2  0
 21 23  1  0
M  END
$$$$
