MII.pdb
     RDKit          3D

 25 24  0  0  1  0  0  0  0  0999 V2000
    8.4630  -11.5804   19.4868 C   0  0  0  0  0  0  0  0  0  0  0  0
    7.8103  -12.4846   18.0691 S   0  0  0  0  0  0  0  0  0  0  0  0
    7.9977  -14.2882   18.3074 C   0  0  0  0  0  0  0  0  0  0  0  0
    7.7892  -14.6349   19.7870 C   0  0  0  0  0  0  0  0  0  0  0  0
    7.9423  -16.1531   19.8921 C   0  0  2  0  0  0  0  0  0  0  0  0
    6.8342  -16.7307   19.1971 N   0  0  0  0  0  0  0  0  0  0  0  0
    8.0202  -16.5668   21.3158 C   0  0  0  0  0  0  0  0  0  0  0  0
    6.9342  -16.7248   21.9259 O   0  0  0  0  0  0  0  0  0  0  0  0
   10.8368  -20.5918   23.3018 C   0  0  0  0  0  0  0  0  0  0  0  0
    9.7623  -19.5352   22.9336 C   0  0  0  0  0  0  0  0  0  0  0  0
   10.1252  -18.3004   23.7065 C   0  0  2  0  0  0  0  0  0  0  0  0
   10.1651  -18.7069   25.1640 C   0  0  0  0  0  0  0  0  0  0  0  0
    9.2059  -17.1702   23.4358 C   0  0  2  0  0  0  0  0  0  0  0  0
    9.2179  -16.7926   22.0239 N   0  0  0  0  0  0  0  0  0  0  0  0
    9.5162  -15.9710   24.2582 C   0  0  0  0  0  0  0  0  0  0  0  0
   10.5869  -15.3380   24.1502 O   0  0  0  0  0  0  0  0  0  0  0  0
    5.6761  -12.6553   26.9920 C   0  0  0  0  0  0  0  0  0  0  0  0
    6.7472  -13.7097   26.8783 C   0  0  0  0  0  0  0  0  0  0  0  0
    7.9088  -13.2552   26.0215 C   0  0  2  0  0  0  0  0  0  0  0  0
    7.5138  -12.8726   24.6314 C   0  0  0  0  0  0  0  0  0  0  0  0
    8.9348  -14.3754   26.0458 C   0  0  2  0  0  0  0  0  0  0  0  0
    8.5805  -15.4805   25.2295 N   0  0  0  0  0  0  0  0  0  0  0  0
    9.2417  -14.7665   27.4550 C   0  0  0  0  0  0  0  0  0  0  0  0
    8.9571  -15.9996   27.9904 O   0  0  0  0  0  0  0  0  0  0  0  0
    9.7933  -13.9061   28.1835 O   0  0  0  0  0  0  0  0  0  0  0  0
  1  2  1  0
  3  2  1  0
  3  4  1  0
  5  4  1  0
  5  6  1  1
  7  5  1  0
  8  7  2  0
 10  9  1  0
 11 13  1  0
 11 10  1  0
 11 12  1  1
 13 14  1  6
 14  7  1  0
 15 22  1  0
 15 13  1  0
 16 15  2  0
 18 19  1  0
 18 17  1  0
 19 20  1  6
 21 22  1  6
 21 19  1  0
 23 21  1  0
 23 24  1  0
 25 23  2  0
M  END
$$$$
