MII.pdb
     RDKit          3D

 25 24  0  0  1  0  0  0  0  0999 V2000
    7.3180  -18.2892   28.8540 C   0  0  0  0  0  0  0  0  0  0  0  0
    6.8645  -19.9800   28.4191 S   0  0  0  0  0  0  0  0  0  0  0  0
    6.3075  -20.0754   26.6797 C   0  0  0  0  0  0  0  0  0  0  0  0
    7.2809  -19.2970   25.7855 C   0  0  0  0  0  0  0  0  0  0  0  0
    6.5895  -19.1567   24.4284 C   0  0  2  0  0  0  0  0  0  0  0  0
    6.4809  -20.4728   23.8803 N   0  0  0  0  0  0  0  0  0  0  0  0
    7.3454  -18.2209   23.5583 C   0  0  0  0  0  0  0  0  0  0  0  0
    8.1903  -18.7226   22.7765 O   0  0  0  0  0  0  0  0  0  0  0  0
    6.0638  -13.7928   20.7230 C   0  0  0  0  0  0  0  0  0  0  0  0
    6.7764  -15.1052   21.1431 C   0  0  0  0  0  0  0  0  0  0  0  0
    7.6084  -14.7501   22.3413 C   0  0  2  0  0  0  0  0  0  0  0  0
    8.6355  -13.7461   21.8639 C   0  0  0  0  0  0  0  0  0  0  0  0
    8.2064  -15.9404   22.9905 C   0  0  2  0  0  0  0  0  0  0  0  0
    7.1821  -16.8209   23.5488 N   0  0  0  0  0  0  0  0  0  0  0  0
    9.1715  -15.5823   24.0633 C   0  0  0  0  0  0  0  0  0  0  0  0
   10.3216  -15.1604   23.8223 O   0  0  0  0  0  0  0  0  0  0  0  0
    7.3053  -12.5606   27.7018 C   0  0  0  0  0  0  0  0  0  0  0  0
    8.0599  -13.4680   26.7641 C   0  0  0  0  0  0  0  0  0  0  0  0
    9.0263  -14.3725   27.4975 C   0  0  2  0  0  0  0  0  0  0  0  0
   10.0065  -13.6344   28.3515 C   0  0  0  0  0  0  0  0  0  0  0  0
    9.7055  -15.2320   26.4448 C   0  0  2  0  0  0  0  0  0  0  0  0
    8.8155  -15.7085   25.4478 N   0  0  0  0  0  0  0  0  0  0  0  0
   10.4905  -16.3244   27.0955 C   0  0  0  0  0  0  0  0  0  0  0  0
   11.6505  -16.1213   27.8036 O   0  0  0  0  0  0  0  0  0  0  0  0
   10.0521  -17.4948   26.9804 O   0  0  0  0  0  0  0  0  0  0  0  0
  1  2  1  0
  3  2  1  0
  3  4  1  0
  5  4  1  0
  5  6  1  6
  7  5  1  0
  8  7  2  0
 10  9  1  0
 11 13  1  0
 11 10  1  0
 11 12  1  6
 13 14  1  1
 14  7  1  0
 15 22  1  0
 15 13  1  0
 16 15  2  0
 18 19  1  0
 18 17  1  0
 19 20  1  6
 21 22  1  6
 21 19  1  0
 23 21  1  0
 23 24  1  0
 25 23  2  0
M  END
$$$$
