MII.pdb
     RDKit          3D

 25 24  0  0  1  0  0  0  0  0999 V2000
    8.0060  -20.8269   27.6491 C   0  0  0  0  0  0  0  0  0  0  0  0
    6.3239  -21.2506   27.1544 S   0  0  0  0  0  0  0  0  0  0  0  0
    5.7384  -20.1378   25.8263 C   0  0  0  0  0  0  0  0  0  0  0  0
    6.7214  -18.9717   25.6630 C   0  0  0  0  0  0  0  0  0  0  0  0
    6.0957  -18.0313   24.6317 C   0  0  2  0  0  0  0  0  0  0  0  0
    6.0809  -18.7330   23.3859 N   0  0  0  0  0  0  0  0  0  0  0  0
    6.8488  -16.7532   24.5746 C   0  0  0  0  0  0  0  0  0  0  0  0
    7.7658  -16.6671   23.7212 O   0  0  0  0  0  0  0  0  0  0  0  0
    5.3464  -11.7824   26.4531 C   0  0  0  0  0  0  0  0  0  0  0  0
    6.1055  -12.7370   25.4944 C   0  0  0  0  0  0  0  0  0  0  0  0
    7.1132  -13.4521   26.3470 C   0  0  2  0  0  0  0  0  0  0  0  0
    8.1737  -12.4313   26.6994 C   0  0  0  0  0  0  0  0  0  0  0  0
    7.6577  -14.6628   25.6883 C   0  0  2  0  0  0  0  0  0  0  0  0
    6.6080  -15.6394   25.4043 N   0  0  0  0  0  0  0  0  0  0  0  0
    8.7234  -15.3198   26.4903 C   0  0  0  0  0  0  0  0  0  0  0  0
    8.4818  -15.9713   27.5276 O   0  0  0  0  0  0  0  0  0  0  0  0
   12.9844  -17.0278   23.6527 C   0  0  0  0  0  0  0  0  0  0  0  0
   11.8402  -16.7570   24.5958 C   0  0  0  0  0  0  0  0  0  0  0  0
   12.3162  -16.2819   25.9514 C   0  0  2  0  0  0  0  0  0  0  0  0
   13.2539  -17.2326   26.6237 C   0  0  0  0  0  0  0  0  0  0  0  0
   11.0729  -16.0091   26.7807 C   0  0  2  0  0  0  0  0  0  0  0  0
   10.1012  -15.2318   26.0988 N   0  0  0  0  0  0  0  0  0  0  0  0
   11.4508  -15.4360   28.1080 C   0  0  0  0  0  0  0  0  0  0  0  0
   11.9375  -16.1792   29.1564 O   0  0  0  0  0  0  0  0  0  0  0  0
   11.3101  -14.1982   28.2611 O   0  0  0  0  0  0  0  0  0  0  0  0
  1  2  1  0
  3  2  1  0
  3  4  1  0
  5  4  1  0
  5  6  1  6
  7  5  1  0
  8  7  2  0
 10  9  1  0
 11 13  1  0
 11 10  1  0
 11 12  1  6
 13 14  1  1
 14  7  1  0
 15 22  1  0
 15 13  1  0
 16 15  2  0
 18 19  1  0
 18 17  1  0
 19 20  1  1
 21 22  1  6
 21 19  1  0
 23 21  1  0
 23 24  1  0
 25 23  2  0
M  END
$$$$
