MII.pdb
     RDKit          3D

 25 24  0  0  1  0  0  0  0  0999 V2000
    7.8983  -11.4480   20.2392 C   0  0  0  0  0  0  0  0  0  0  0  0
    7.8394  -12.2115   18.6060 S   0  0  0  0  0  0  0  0  0  0  0  0
    7.9800  -14.0305   18.7347 C   0  0  0  0  0  0  0  0  0  0  0  0
    7.6125  -14.4745   20.1562 C   0  0  0  0  0  0  0  0  0  0  0  0
    7.8359  -15.9870   20.1987 C   0  0  2  0  0  0  0  0  0  0  0  0
    6.8139  -16.5799   19.3934 N   0  0  0  0  0  0  0  0  0  0  0  0
    7.8293  -16.4706   21.6023 C   0  0  0  0  0  0  0  0  0  0  0  0
    6.7208  -16.5019   22.1915 O   0  0  0  0  0  0  0  0  0  0  0  0
   10.1251  -20.8885   23.4545 C   0  0  0  0  0  0  0  0  0  0  0  0
    9.1679  -19.7107   23.1333 C   0  0  0  0  0  0  0  0  0  0  0  0
    9.6565  -18.5541   23.9563 C   0  0  2  0  0  0  0  0  0  0  0  0
    9.6165  -19.0111   25.3987 C   0  0  0  0  0  0  0  0  0  0  0  0
    8.8825  -17.3147   23.7101 C   0  0  2  0  0  0  0  0  0  0  0  0
    8.9706  -16.8934   22.3133 N   0  0  0  0  0  0  0  0  0  0  0  0
    9.3128  -16.1892   24.5812 C   0  0  0  0  0  0  0  0  0  0  0  0
   10.4257  -15.6350   24.4662 O   0  0  0  0  0  0  0  0  0  0  0  0
    6.5075  -11.9328   25.5028 C   0  0  0  0  0  0  0  0  0  0  0  0
    7.5039  -13.0588   25.3958 C   0  0  0  0  0  0  0  0  0  0  0  0
    7.9380  -13.5694   26.7525 C   0  0  2  0  0  0  0  0  0  0  0  0
    8.4891  -12.5041   27.6450 C   0  0  0  0  0  0  0  0  0  0  0  0
    8.9345  -14.6882   26.5003 C   0  0  2  0  0  0  0  0  0  0  0  0
    8.4511  -15.6821   25.6105 N   0  0  0  0  0  0  0  0  0  0  0  0
    9.4191  -15.2523   27.7965 C   0  0  0  0  0  0  0  0  0  0  0  0
   10.4646  -14.7305   28.5195 O   0  0  0  0  0  0  0  0  0  0  0  0
    8.8256  -16.2651   28.2406 O   0  0  0  0  0  0  0  0  0  0  0  0
  1  2  1  0
  3  2  1  0
  3  4  1  0
  5  4  1  0
  5  6  1  6
  7  5  1  0
  8  7  2  0
 10  9  1  0
 11 13  1  0
 11 10  1  0
 11 12  1  1
 13 14  1  6
 14  7  1  0
 15 22  1  0
 15 13  1  0
 16 15  2  0
 18 19  1  0
 18 17  1  0
 19 20  1  1
 21 22  1  6
 21 19  1  0
 23 21  1  0
 23 24  1  0
 25 23  2  0
M  END
$$$$
