MII.pdb
     RDKit          3D

 25 24  0  0  1  0  0  0  0  0999 V2000
    8.1179  -12.0381   20.0739 C   0  0  0  0  0  0  0  0  0  0  0  0
    8.2169  -13.0233   18.5663 S   0  0  0  0  0  0  0  0  0  0  0  0
    7.8870  -14.7870   18.9208 C   0  0  0  0  0  0  0  0  0  0  0  0
    7.2818  -14.9241   20.3236 C   0  0  0  0  0  0  0  0  0  0  0  0
    7.1298  -16.4252   20.5745 C   0  0  2  0  0  0  0  0  0  0  0  0
    6.0876  -16.8866   19.7111 N   0  0  0  0  0  0  0  0  0  0  0  0
    6.8571  -16.6835   22.0108 C   0  0  0  0  0  0  0  0  0  0  0  0
    5.8513  -16.1232   22.5120 O   0  0  0  0  0  0  0  0  0  0  0  0
    6.4518  -21.2737   24.5319 C   0  0  0  0  0  0  0  0  0  0  0  0
    6.2322  -19.8013   24.0954 C   0  0  0  0  0  0  0  0  0  0  0  0
    7.3466  -19.0195   24.7285 C   0  0  2  0  0  0  0  0  0  0  0  0
    7.1748  -19.1687   26.2249 C   0  0  0  0  0  0  0  0  0  0  0  0
    7.3778  -17.6082   24.2777 C   0  0  2  0  0  0  0  0  0  0  0  0
    7.6417  -17.5068   22.8436 N   0  0  0  0  0  0  0  0  0  0  0  0
    8.3835  -16.7954   25.0117 C   0  0  0  0  0  0  0  0  0  0  0  0
    9.6134  -16.9417   24.8543 O   0  0  0  0  0  0  0  0  0  0  0  0
    7.0493  -11.8038   27.4296 C   0  0  0  0  0  0  0  0  0  0  0  0
    7.4507  -13.2563   27.3974 C   0  0  0  0  0  0  0  0  0  0  0  0
    8.6552  -13.4975   26.5138 C   0  0  2  0  0  0  0  0  0  0  0  0
    8.4738  -13.0168   25.1098 C   0  0  0  0  0  0  0  0  0  0  0  0
    8.9580  -14.9847   26.5834 C   0  0  2  0  0  0  0  0  0  0  0  0
    7.9757  -15.7890   25.9499 N   0  0  0  0  0  0  0  0  0  0  0  0
    9.2238  -15.3937   27.9959 C   0  0  0  0  0  0  0  0  0  0  0  0
   10.3033  -14.9656   28.7305 O   0  0  0  0  0  0  0  0  0  0  0  0
    8.4026  -16.1769   28.5321 O   0  0  0  0  0  0  0  0  0  0  0  0
  1  2  1  0
  3  2  1  0
  3  4  1  0
  5  4  1  0
  5  6  1  6
  7  5  1  0
  8  7  2  0
 10  9  1  0
 11 13  1  0
 11 10  1  0
 11 12  1  1
 13 14  1  6
 14  7  1  0
 15 22  1  0
 15 13  1  0
 16 15  2  0
 18 19  1  0
 18 17  1  0
 19 20  1  6
 21 22  1  1
 21 19  1  0
 23 21  1  0
 23 24  1  0
 25 23  2  0
M  END
$$$$
