MII.pdb
     RDKit          3D

 25 24  0  0  1  0  0  0  0  0999 V2000
    6.8996  -20.6054   20.8917 C   0  0  0  0  0  0  0  0  0  0  0  0
    8.2904  -20.0562   19.8830 S   0  0  0  0  0  0  0  0  0  0  0  0
    8.3389  -18.2306   19.7834 C   0  0  0  0  0  0  0  0  0  0  0  0
    8.9461  -17.6622   21.0722 C   0  0  0  0  0  0  0  0  0  0  0  0
    8.7449  -16.1476   21.0031 C   0  0  2  0  0  0  0  0  0  0  0  0
    9.6254  -15.6581   19.9883 N   0  0  0  0  0  0  0  0  0  0  0  0
    8.9861  -15.5336   22.3331 C   0  0  0  0  0  0  0  0  0  0  0  0
   10.1588  -15.1648   22.5889 O   0  0  0  0  0  0  0  0  0  0  0  0
    5.2973  -12.5150   25.2043 C   0  0  0  0  0  0  0  0  0  0  0  0
    6.5597  -12.9855   24.4352 C   0  0  0  0  0  0  0  0  0  0  0  0
    7.1259  -14.1199   25.2393 C   0  0  2  0  0  0  0  0  0  0  0  0
    7.3917  -13.5693   26.6238 C   0  0  0  0  0  0  0  0  0  0  0  0
    8.3222  -14.7232   24.6063 C   0  0  2  0  0  0  0  0  0  0  0  0
    7.9989  -15.3373   23.3200 N   0  0  0  0  0  0  0  0  0  0  0  0
    8.9781  -15.7373   25.4735 C   0  0  0  0  0  0  0  0  0  0  0  0
    8.9044  -16.9637   25.2511 O   0  0  0  0  0  0  0  0  0  0  0  0
   11.0857  -14.4394   30.5712 C   0  0  0  0  0  0  0  0  0  0  0  0
   10.3873  -15.0882   29.4037 C   0  0  0  0  0  0  0  0  0  0  0  0
   11.3619  -15.7135   28.4295 C   0  0  2  0  0  0  0  0  0  0  0  0
   12.4069  -14.7650   27.9361 C   0  0  0  0  0  0  0  0  0  0  0  0
   10.5340  -16.3035   27.3005 C   0  0  2  0  0  0  0  0  0  0  0  0
    9.7383  -15.3424   26.6248 N   0  0  0  0  0  0  0  0  0  0  0  0
    9.7436  -17.4718   27.7934 C   0  0  0  0  0  0  0  0  0  0  0  0
    8.3704  -17.5131   27.8257 O   0  0  0  0  0  0  0  0  0  0  0  0
   10.3860  -18.4704   28.2002 O   0  0  0  0  0  0  0  0  0  0  0  0
  1  2  1  0
  3  2  1  0
  3  4  1  0
  5  4  1  0
  5  6  1  6
  7  5  1  0
  8  7  2  0
 10  9  1  0
 11 13  1  0
 11 10  1  0
 11 12  1  1
 13 14  1  6
 14  7  1  0
 15 22  1  0
 15 13  1  0
 16 15  2  0
 18 19  1  0
 18 17  1  0
 19 20  1  6
 21 22  1  1
 21 19  1  0
 23 21  1  0
 23 24  1  0
 25 23  2  0
M  END
$$$$
