DIE.pdb
     RDKit          3D

 26 25  0  0  1  0  0  0  0  0999 V2000
    7.5693  -14.4229   20.2815 N   0  0  0  0  0  0  0  0  0  0  0  0
    7.3282  -15.3082   21.3712 C   0  0  1  0  0  0  0  0  0  0  0  0
    7.8221  -16.7009   21.0207 C   0  0  0  0  0  0  0  0  0  0  0  0
    7.1746  -17.2561   19.8381 C   0  0  0  0  0  0  0  0  0  0  0  0
    7.8009  -17.4628   18.7806 O   0  0  0  0  0  0  0  0  0  0  0  0
    8.0061  -14.9416   22.6348 C   0  0  0  0  0  0  0  0  0  0  0  0
    9.2756  -14.8688   22.5833 O   0  0  0  0  0  0  0  0  0  0  0  0
    5.8278  -17.5641   19.8851 O   0  0  0  0  0  0  0  0  0  0  0  0
    5.9710  -11.4066   26.1595 C   0  0  0  0  0  0  0  0  0  0  0  0
    6.9999  -12.1595   25.3090 C   0  0  0  0  0  0  0  0  0  0  0  0
    7.3823  -13.4372   25.9807 C   0  0  2  0  0  0  0  0  0  0  0  0
    8.1025  -13.1284   27.2670 C   0  0  0  0  0  0  0  0  0  0  0  0
    8.1338  -14.3452   25.0725 C   0  0  2  0  0  0  0  0  0  0  0  0
    7.3646  -14.6709   23.8712 N   0  0  0  0  0  0  0  0  0  0  0  0
    8.5651  -15.6295   25.7078 C   0  0  0  0  0  0  0  0  0  0  0  0
    7.7733  -16.5393   26.0311 O   0  0  0  0  0  0  0  0  0  0  0  0
    9.9376  -15.8707   25.9751 N   0  0  0  0  0  0  0  0  0  0  0  0
   10.4561  -17.1668   26.4324 C   0  0  1  0  0  0  0  0  0  0  0  0
   11.7721  -17.4651   25.7871 C   0  0  0  0  0  0  0  0  0  0  0  0
   12.4111  -18.6853   26.3979 C   0  0  0  0  0  0  0  0  0  0  0  0
   13.7491  -18.9396   25.7379 C   0  0  0  0  0  0  0  0  0  0  0  0
   14.2085  -18.1759   24.8616 O   0  0  0  0  0  0  0  0  0  0  0  0
   10.4558  -17.1450   27.9031 C   0  0  0  0  0  0  0  0  0  0  0  0
   10.4502  -18.3364   28.6623 O   0  0  0  0  0  0  0  0  0  0  0  0
   14.4732  -20.0421   26.1172 O   0  0  0  0  0  0  0  0  0  0  0  0
   10.4602  -16.0935   28.5776 O   0  0  0  0  0  0  0  0  0  0  0  0
  2  1  1  6
  2  3  1  0
  3  4  1  0
  4  8  1  0
  5  4  2  0
  6  7  2  0
  6  2  1  0
  9 10  1  0
 10 11  1  0
 11 13  1  0
 11 12  1  1
 13 14  1  6
 14  6  1  0
 15 13  1  0
 16 15  2  0
 17 15  1  0
 18 17  1  0
 18 19  1  6
 20 19  1  0
 20 21  1  0
 21 22  2  0
 23 24  1  0
 23 18  1  0
 25 21  1  0
 26 23  2  0
M  END
$$$$
