DIE.pdb
     RDKit          3D

 26 25  0  0  1  0  0  0  0  0999 V2000
    8.2297  -14.9314   20.6522 N   0  0  0  0  0  0  0  0  0  0  0  0
    7.5909  -15.4495   21.8154 C   0  0  1  0  0  0  0  0  0  0  0  0
    7.6437  -16.9671   21.7978 C   0  0  0  0  0  0  0  0  0  0  0  0
    6.9957  -17.5480   20.6279 C   0  0  0  0  0  0  0  0  0  0  0  0
    6.6633  -16.8545   19.6472 O   0  0  0  0  0  0  0  0  0  0  0  0
    8.2006  -15.0354   23.0989 C   0  0  0  0  0  0  0  0  0  0  0  0
    9.4715  -14.9706   23.1148 O   0  0  0  0  0  0  0  0  0  0  0  0
    6.7403  -18.9063   20.5997 O   0  0  0  0  0  0  0  0  0  0  0  0
    5.7155  -11.5103   26.4154 C   0  0  0  0  0  0  0  0  0  0  0  0
    6.7807  -12.2271   25.5785 C   0  0  0  0  0  0  0  0  0  0  0  0
    7.3279  -13.3919   26.3359 C   0  0  2  0  0  0  0  0  0  0  0  0
    8.0006  -12.8997   27.5904 C   0  0  0  0  0  0  0  0  0  0  0  0
    8.1930  -14.2559   25.4878 C   0  0  2  0  0  0  0  0  0  0  0  0
    7.4938  -14.7124   24.2862 N   0  0  0  0  0  0  0  0  0  0  0  0
    8.7368  -15.4593   26.1916 C   0  0  0  0  0  0  0  0  0  0  0  0
    8.0744  -16.4982   26.3942 O   0  0  0  0  0  0  0  0  0  0  0  0
   10.0723  -15.4658   26.6708 N   0  0  0  0  0  0  0  0  0  0  0  0
   10.6936  -16.6302   27.3158 C   0  0  1  0  0  0  0  0  0  0  0  0
   11.8971  -17.0777   26.5486 C   0  0  0  0  0  0  0  0  0  0  0  0
   11.4989  -17.8502   25.3177 C   0  0  0  0  0  0  0  0  0  0  0  0
   12.7407  -18.3227   24.5933 C   0  0  0  0  0  0  0  0  0  0  0  0
   13.0628  -19.5298   24.5539 O   0  0  0  0  0  0  0  0  0  0  0  0
   10.9284  -16.2779   28.7244 C   0  0  0  0  0  0  0  0  0  0  0  0
   10.9097  -14.9360   29.1661 O   0  0  0  0  0  0  0  0  0  0  0  0
   13.5313  -17.3940   23.9639 O   0  0  0  0  0  0  0  0  0  0  0  0
   11.1573  -17.1207   29.6177 O   0  0  0  0  0  0  0  0  0  0  0  0
  2  1  1  6
  2  3  1  0
  3  4  1  0
  4  8  1  0
  5  4  2  0
  6  7  2  0
  6  2  1  0
  9 10  1  0
 10 11  1  0
 11 13  1  0
 11 12  1  1
 13 14  1  6
 14  6  1  0
 15 13  1  0
 16 15  2  0
 17 15  1  0
 18 17  1  0
 18 19  1  6
 20 19  1  0
 20 21  1  0
 21 22  2  0
 23 24  1  0
 23 18  1  0
 25 21  1  0
 26 23  2  0
M  END
$$$$
