DIE.pdb
     RDKit          3D

 26 25  0  0  1  0  0  0  0  0999 V2000
    8.5551  -15.1074   20.5461 N   0  0  0  0  0  0  0  0  0  0  0  0
    7.9700  -15.6732   21.7153 C   0  0  1  0  0  0  0  0  0  0  0  0
    8.1973  -17.1747   21.7285 C   0  0  0  0  0  0  0  0  0  0  0  0
    7.5834  -17.8556   20.5947 C   0  0  0  0  0  0  0  0  0  0  0  0
    8.0974  -17.8385   19.4595 O   0  0  0  0  0  0  0  0  0  0  0  0
    8.5169  -15.1670   22.9941 C   0  0  0  0  0  0  0  0  0  0  0  0
    9.7692  -14.9410   23.0120 O   0  0  0  0  0  0  0  0  0  0  0  0
    6.3974  -18.5417   20.7780 O   0  0  0  0  0  0  0  0  0  0  0  0
    5.6411  -11.8502   26.1495 C   0  0  0  0  0  0  0  0  0  0  0  0
    6.7614  -12.5135   25.3408 C   0  0  0  0  0  0  0  0  0  0  0  0
    7.4486  -13.5471   26.1711 C   0  0  2  0  0  0  0  0  0  0  0  0
    8.0705  -12.8880   27.3742 C   0  0  0  0  0  0  0  0  0  0  0  0
    8.4011  -14.3653   25.3728 C   0  0  2  0  0  0  0  0  0  0  0  0
    7.7698  -14.9198   24.1749 N   0  0  0  0  0  0  0  0  0  0  0  0
    9.0258  -15.4941   26.1310 C   0  0  0  0  0  0  0  0  0  0  0  0
    8.3705  -16.4155   26.6609 O   0  0  0  0  0  0  0  0  0  0  0  0
   10.4351  -15.5629   26.2805 N   0  0  0  0  0  0  0  0  0  0  0  0
   11.1184  -16.6377   27.0126 C   0  0  1  0  0  0  0  0  0  0  0  0
   12.5558  -16.7199   26.6075 C   0  0  0  0  0  0  0  0  0  0  0  0
   12.6926  -16.8110   25.1097 C   0  0  0  0  0  0  0  0  0  0  0  0
   14.1576  -16.8962   24.7397 C   0  0  0  0  0  0  0  0  0  0  0  0
   14.8938  -15.8862   24.7227 O   0  0  0  0  0  0  0  0  0  0  0  0
   10.8698  -16.4189   28.4457 C   0  0  0  0  0  0  0  0  0  0  0  0
   11.0994  -17.4337   29.4015 O   0  0  0  0  0  0  0  0  0  0  0  0
   14.6861  -18.1204   24.4145 O   0  0  0  0  0  0  0  0  0  0  0  0
   10.4456  -15.3421   28.9160 O   0  0  0  0  0  0  0  0  0  0  0  0
  2  1  1  6
  2  3  1  0
  3  4  1  0
  4  8  1  0
  5  4  2  0
  6  7  2  0
  6  2  1  0
  9 10  1  0
 10 11  1  0
 11 13  1  0
 11 12  1  1
 13 14  1  6
 14  6  1  0
 15 13  1  0
 16 15  2  0
 17 15  1  0
 18 17  1  0
 18 19  1  1
 20 19  1  0
 20 21  1  0
 21 22  2  0
 23 24  1  0
 23 18  1  0
 25 21  1  0
 26 23  2  0
M  END
$$$$
