DIE.pdb
     RDKit          3D

 26 25  0  0  1  0  0  0  0  0999 V2000
    9.5504  -17.8808   16.3624 N   0  0  0  0  0  0  0  0  0  0  0  0
    9.0588  -18.1364   17.6748 C   0  0  1  0  0  0  0  0  0  0  0  0
    9.5767  -19.4771   18.1654 C   0  0  0  0  0  0  0  0  0  0  0  0
    9.1348  -20.5964   17.3421 C   0  0  0  0  0  0  0  0  0  0  0  0
    7.9289  -20.8843   17.2147 O   0  0  0  0  0  0  0  0  0  0  0  0
    9.4630  -17.1449   18.6966 C   0  0  0  0  0  0  0  0  0  0  0  0
   10.6457  -16.6874   18.5895 O   0  0  0  0  0  0  0  0  0  0  0  0
   10.0756  -21.3640   16.6812 O   0  0  0  0  0  0  0  0  0  0  0  0
    6.2829  -13.0934   20.3746 C   0  0  0  0  0  0  0  0  0  0  0  0
    7.5046  -13.9079   19.9352 C   0  0  0  0  0  0  0  0  0  0  0  0
    8.0185  -14.7173   21.0801 C   0  0  2  0  0  0  0  0  0  0  0  0
    8.3770  -13.7991   22.2189 C   0  0  0  0  0  0  0  0  0  0  0  0
    9.1209  -15.6295   20.6718 C   0  0  2  0  0  0  0  0  0  0  0  0
    8.6521  -16.6755   19.7624 N   0  0  0  0  0  0  0  0  0  0  0  0
    9.8248  -16.2914   21.8143 C   0  0  0  0  0  0  0  0  0  0  0  0
    9.3494  -17.2526   22.4540 O   0  0  0  0  0  0  0  0  0  0  0  0
   11.1038  -15.8367   22.2275 N   0  0  0  0  0  0  0  0  0  0  0  0
   11.9866  -16.6052   23.1153 C   0  0  1  0  0  0  0  0  0  0  0  0
   13.4221  -16.3342   22.7941 C   0  0  0  0  0  0  0  0  0  0  0  0
   14.3369  -17.0607   23.7458 C   0  0  0  0  0  0  0  0  0  0  0  0
   15.7769  -16.7455   23.4031 C   0  0  0  0  0  0  0  0  0  0  0  0
   16.4001  -15.8166   23.9609 O   0  0  0  0  0  0  0  0  0  0  0  0
   11.5758  -16.3179   24.4980 C   0  0  0  0  0  0  0  0  0  0  0  0
   11.8452  -17.2173   25.5537 O   0  0  0  0  0  0  0  0  0  0  0  0
   16.4105  -17.5052   22.4516 O   0  0  0  0  0  0  0  0  0  0  0  0
   10.9702  -15.2789   24.8362 O   0  0  0  0  0  0  0  0  0  0  0  0
  2  1  1  6
  2  3  1  0
  3  4  1  0
  4  8  1  0
  5  4  2  0
  6  7  2  0
  6  2  1  0
  9 10  1  0
 10 11  1  0
 11 13  1  0
 11 12  1  1
 13 14  1  6
 14  6  1  0
 15 13  1  0
 16 15  2  0
 17 15  1  0
 18 17  1  0
 18 19  1  1
 20 19  1  0
 20 21  1  0
 21 22  2  0
 23 24  1  0
 23 18  1  0
 25 21  1  0
 26 23  2  0
M  END
$$$$
