DIE.pdb
     RDKit          3D

 26 25  0  0  1  0  0  0  0  0999 V2000
    8.9954  -15.3467   20.7891 N   0  0  0  0  0  0  0  0  0  0  0  0
    8.2542  -15.8053   21.9160 C   0  0  1  0  0  0  0  0  0  0  0  0
    8.4258  -17.3066   22.0675 C   0  0  0  0  0  0  0  0  0  0  0  0
    7.8281  -18.0633   20.9738 C   0  0  0  0  0  0  0  0  0  0  0  0
    7.5221  -17.5261   19.8916 O   0  0  0  0  0  0  0  0  0  0  0  0
    8.6603  -15.2161   23.2116 C   0  0  0  0  0  0  0  0  0  0  0  0
    9.9008  -14.9646   23.3430 O   0  0  0  0  0  0  0  0  0  0  0  0
    7.5917  -19.4157   21.1357 O   0  0  0  0  0  0  0  0  0  0  0  0
    5.6755  -11.7632   26.1980 C   0  0  0  0  0  0  0  0  0  0  0  0
    6.8568  -12.4489   25.5030 C   0  0  0  0  0  0  0  0  0  0  0  0
    7.3157  -13.6191   26.3092 C   0  0  2  0  0  0  0  0  0  0  0  0
    7.7897  -13.1414   27.6567 C   0  0  0  0  0  0  0  0  0  0  0  0
    8.3129  -14.4471   25.5786 C   0  0  2  0  0  0  0  0  0  0  0  0
    7.7929  -14.9165   24.2940 N   0  0  0  0  0  0  0  0  0  0  0  0
    8.8002  -15.6376   26.3430 C   0  0  0  0  0  0  0  0  0  0  0  0
    8.0788  -16.6154   26.6308 O   0  0  0  0  0  0  0  0  0  0  0  0
   10.1473  -15.7031   26.7839 N   0  0  0  0  0  0  0  0  0  0  0  0
   10.6852  -16.8178   27.5752 C   0  0  1  0  0  0  0  0  0  0  0  0
   12.0129  -17.2513   27.0400 C   0  0  0  0  0  0  0  0  0  0  0  0
   11.8880  -17.7592   25.6269 C   0  0  0  0  0  0  0  0  0  0  0  0
   13.2372  -18.2448   25.1428 C   0  0  0  0  0  0  0  0  0  0  0  0
   14.2874  -18.0218   25.7828 O   0  0  0  0  0  0  0  0  0  0  0  0
   10.6699  -16.4015   28.9859 C   0  0  0  0  0  0  0  0  0  0  0  0
   10.4514  -15.0567   29.3598 O   0  0  0  0  0  0  0  0  0  0  0  0
   13.3020  -18.9495   23.9668 O   0  0  0  0  0  0  0  0  0  0  0  0
   10.8453  -17.1890   29.9396 O   0  0  0  0  0  0  0  0  0  0  0  0
  2  1  1  6
  2  3  1  0
  3  4  1  0
  4  8  1  0
  5  4  2  0
  6  7  2  0
  6  2  1  0
  9 10  1  0
 10 11  1  0
 11 13  1  0
 11 12  1  1
 13 14  1  6
 14  6  1  0
 15 13  1  0
 16 15  2  0
 17 15  1  0
 18 17  1  0
 18 19  1  6
 20 19  1  0
 20 21  1  0
 21 22  2  0
 23 24  1  0
 23 18  1  0
 25 21  1  0
 26 23  2  0
M  END
$$$$
