DIE.pdb
     RDKit          3D

 26 25  0  0  1  0  0  0  0  0999 V2000
    9.9763  -17.5728   16.1667 N   0  0  0  0  0  0  0  0  0  0  0  0
    9.2268  -17.8060   17.3556 C   0  0  1  0  0  0  0  0  0  0  0  0
    9.5198  -19.1998   17.8826 C   0  0  0  0  0  0  0  0  0  0  0  0
    9.1814  -20.2528   16.9326 C   0  0  0  0  0  0  0  0  0  0  0  0
    8.0210  -20.4052   16.5043 O   0  0  0  0  0  0  0  0  0  0  0  0
    9.5213  -16.8785   18.4707 C   0  0  0  0  0  0  0  0  0  0  0  0
   10.7217  -16.4624   18.5450 O   0  0  0  0  0  0  0  0  0  0  0  0
   10.1719  -21.1098   16.4903 O   0  0  0  0  0  0  0  0  0  0  0  0
    6.3204  -12.7364   19.8923 C   0  0  0  0  0  0  0  0  0  0  0  0
    7.5584  -13.5886   19.5923 C   0  0  0  0  0  0  0  0  0  0  0  0
    7.8450  -14.4972   20.7423 C   0  0  2  0  0  0  0  0  0  0  0  0
    8.0479  -13.6758   21.9884 C   0  0  0  0  0  0  0  0  0  0  0  0
    8.9623  -15.4355   20.4507 C   0  0  2  0  0  0  0  0  0  0  0  0
    8.5897  -16.4274   19.4415 N   0  0  0  0  0  0  0  0  0  0  0  0
    9.4782  -16.1671   21.6497 C   0  0  0  0  0  0  0  0  0  0  0  0
    8.8902  -17.1370   22.1720 O   0  0  0  0  0  0  0  0  0  0  0  0
   10.6977  -15.7733   22.2589 N   0  0  0  0  0  0  0  0  0  0  0  0
   11.4097  -16.5950   23.2468 C   0  0  1  0  0  0  0  0  0  0  0  0
   12.8755  -16.2987   23.2201 C   0  0  0  0  0  0  0  0  0  0  0  0
   13.6009  -17.0536   24.3039 C   0  0  0  0  0  0  0  0  0  0  0  0
   15.0825  -16.7558   24.2230 C   0  0  0  0  0  0  0  0  0  0  0  0
   15.5453  -15.9240   23.4128 O   0  0  0  0  0  0  0  0  0  0  0  0
   10.7417  -16.3998   24.5425 C   0  0  0  0  0  0  0  0  0  0  0  0
    9.9011  -15.2902   24.7837 O   0  0  0  0  0  0  0  0  0  0  0  0
   15.9367  -17.4218   25.0660 O   0  0  0  0  0  0  0  0  0  0  0  0
   10.8647  -17.1837   25.5074 O   0  0  0  0  0  0  0  0  0  0  0  0
  2  1  1  6
  2  3  1  0
  3  4  1  0
  4  8  1  0
  5  4  2  0
  6  7  2  0
  6  2  1  0
  9 10  1  0
 10 11  1  0
 11 13  1  0
 11 12  1  1
 13 14  1  6
 14  6  1  0
 15 13  1  0
 16 15  2  0
 17 15  1  0
 18 17  1  0
 18 19  1  1
 20 19  1  0
 20 21  1  0
 21 22  2  0
 23 24  1  0
 23 18  1  0
 25 21  1  0
 26 23  2  0
M  END
$$$$
