DIE.pdb
     RDKit          3D

 26 25  0  0  1  0  0  0  0  0999 V2000
    7.2819  -14.7719   20.1548 N   0  0  0  0  0  0  0  0  0  0  0  0
    7.0684  -15.5048   21.3576 C   0  0  1  0  0  0  0  0  0  0  0  0
    7.4754  -16.9539   21.1554 C   0  0  0  0  0  0  0  0  0  0  0  0
    6.7598  -17.6013   20.0623 C   0  0  0  0  0  0  0  0  0  0  0  0
    5.5537  -17.9021   20.1519 O   0  0  0  0  0  0  0  0  0  0  0  0
    7.8392  -15.0244   22.5262 C   0  0  0  0  0  0  0  0  0  0  0  0
    9.0578  -14.7311   22.3054 O   0  0  0  0  0  0  0  0  0  0  0  0
    7.4329  -17.8921   18.8903 O   0  0  0  0  0  0  0  0  0  0  0  0
    5.7160  -11.8307   26.3168 C   0  0  0  0  0  0  0  0  0  0  0  0
    6.7248  -12.4216   25.3258 C   0  0  0  0  0  0  0  0  0  0  0  0
    7.4065  -13.6033   25.9332 C   0  0  2  0  0  0  0  0  0  0  0  0
    8.2174  -13.1554   27.1208 C   0  0  0  0  0  0  0  0  0  0  0  0
    8.1852  -14.3785   24.9298 C   0  0  2  0  0  0  0  0  0  0  0  0
    7.3361  -14.8690   23.8439 N   0  0  0  0  0  0  0  0  0  0  0  0
    8.9289  -15.5457   25.4986 C   0  0  0  0  0  0  0  0  0  0  0  0
    8.3704  -16.5762   25.9293 O   0  0  0  0  0  0  0  0  0  0  0  0
   10.3457  -15.5254   25.5716 N   0  0  0  0  0  0  0  0  0  0  0  0
   11.1538  -16.7017   25.9198 C   0  0  1  0  0  0  0  0  0  0  0  0
   12.4856  -16.6455   25.2413 C   0  0  0  0  0  0  0  0  0  0  0  0
   13.3813  -17.7621   25.7120 C   0  0  0  0  0  0  0  0  0  0  0  0
   14.7210  -17.6638   25.0149 C   0  0  0  0  0  0  0  0  0  0  0  0
   15.4637  -16.6675   25.1498 O   0  0  0  0  0  0  0  0  0  0  0  0
   11.1876  -16.7917   27.3875 C   0  0  0  0  0  0  0  0  0  0  0  0
   11.4523  -18.0113   28.0497 O   0  0  0  0  0  0  0  0  0  0  0  0
   15.1257  -18.7018   24.2133 O   0  0  0  0  0  0  0  0  0  0  0  0
   10.9888  -15.8172   28.1433 O   0  0  0  0  0  0  0  0  0  0  0  0
  2  1  1  6
  2  3  1  0
  3  4  1  0
  4  8  1  0
  5  4  2  0
  6  7  2  0
  6  2  1  0
  9 10  1  0
 10 11  1  0
 11 13  1  0
 11 12  1  1
 13 14  1  6
 14  6  1  0
 15 13  1  0
 16 15  2  0
 17 15  1  0
 18 17  1  0
 18 19  1  1
 20 19  1  0
 20 21  1  0
 21 22  2  0
 23 24  1  0
 23 18  1  0
 25 21  1  0
 26 23  2  0
M  END
$$$$
