DIE.pdb
     RDKit          3D

 26 25  0  0  1  0  0  0  0  0999 V2000
   10.1335  -18.0236   16.6494 N   0  0  0  0  0  0  0  0  0  0  0  0
    9.3279  -18.0998   17.8219 C   0  0  1  0  0  0  0  0  0  0  0  0
    9.5315  -19.4438   18.4988 C   0  0  0  0  0  0  0  0  0  0  0  0
    8.9210  -20.5492   17.7698 C   0  0  0  0  0  0  0  0  0  0  0  0
    8.5105  -20.4196   16.6002 O   0  0  0  0  0  0  0  0  0  0  0  0
    9.6238  -17.0769   18.8498 C   0  0  0  0  0  0  0  0  0  0  0  0
   10.8487  -16.7559   18.9777 O   0  0  0  0  0  0  0  0  0  0  0  0
    8.7910  -21.7787   18.3882 O   0  0  0  0  0  0  0  0  0  0  0  0
    6.3705  -12.8022   20.0510 C   0  0  0  0  0  0  0  0  0  0  0  0
    7.5907  -13.6768   19.7429 C   0  0  0  0  0  0  0  0  0  0  0  0
    7.9693  -14.4703   20.9500 C   0  0  2  0  0  0  0  0  0  0  0  0
    8.2585  -13.5328   22.0927 C   0  0  0  0  0  0  0  0  0  0  0  0
    9.0688  -15.4320   20.6667 C   0  0  2  0  0  0  0  0  0  0  0  0
    8.6691  -16.4406   19.6849 N   0  0  0  0  0  0  0  0  0  0  0  0
    9.5882  -16.1440   21.8759 C   0  0  0  0  0  0  0  0  0  0  0  0
    9.0129  -17.1191   22.4027 O   0  0  0  0  0  0  0  0  0  0  0  0
   10.7963  -15.7242   22.4903 N   0  0  0  0  0  0  0  0  0  0  0  0
   11.5314  -16.5385   23.4673 C   0  0  1  0  0  0  0  0  0  0  0  0
   12.9987  -16.2592   23.3882 C   0  0  0  0  0  0  0  0  0  0  0  0
   13.7604  -17.0704   24.4041 C   0  0  0  0  0  0  0  0  0  0  0  0
   15.2320  -16.7255   24.3265 C   0  0  0  0  0  0  0  0  0  0  0  0
   16.0699  -17.2290   25.1054 O   0  0  0  0  0  0  0  0  0  0  0  0
   10.9084  -16.3158   24.7809 C   0  0  0  0  0  0  0  0  0  0  0  0
   10.9636  -17.2901   25.8025 O   0  0  0  0  0  0  0  0  0  0  0  0
   15.6514  -15.8335   23.3714 O   0  0  0  0  0  0  0  0  0  0  0  0
   10.2960  -15.2705   25.0859 O   0  0  0  0  0  0  0  0  0  0  0  0
  2  1  1  6
  2  3  1  0
  3  4  1  0
  4  8  1  0
  5  4  2  0
  6  7  2  0
  6  2  1  0
  9 10  1  0
 10 11  1  0
 11 13  1  0
 11 12  1  1
 13 14  1  6
 14  6  1  0
 15 13  1  0
 16 15  2  0
 17 15  1  0
 18 17  1  0
 18 19  1  1
 20 19  1  0
 20 21  1  0
 21 22  2  0
 23 24  1  0
 23 18  1  0
 25 21  1  0
 26 23  2  0
M  END
$$$$
