DIE.pdb
     RDKit          3D

 26 25  0  0  1  0  0  0  0  0999 V2000
    8.3431  -15.2132   20.1143 N   0  0  0  0  0  0  0  0  0  0  0  0
    7.5852  -15.5126   21.2828 C   0  0  1  0  0  0  0  0  0  0  0  0
    7.3576  -17.0112   21.3776 C   0  0  0  0  0  0  0  0  0  0  0  0
    6.7673  -17.5770   20.1703 C   0  0  0  0  0  0  0  0  0  0  0  0
    5.9284  -16.9523   19.4926 O   0  0  0  0  0  0  0  0  0  0  0  0
    8.2222  -15.1159   22.5585 C   0  0  0  0  0  0  0  0  0  0  0  0
    9.4528  -15.4160   22.6818 O   0  0  0  0  0  0  0  0  0  0  0  0
    7.1450  -18.8421   19.7606 O   0  0  0  0  0  0  0  0  0  0  0  0
    5.7630  -12.2032   26.9691 C   0  0  0  0  0  0  0  0  0  0  0  0
    6.2741  -13.3049   26.0342 C   0  0  0  0  0  0  0  0  0  0  0  0
    7.6717  -13.0028   25.6036 C   0  0  2  0  0  0  0  0  0  0  0  0
    7.6885  -11.7060   24.8378 C   0  0  0  0  0  0  0  0  0  0  0  0
    8.2921  -14.1414   24.8737 C   0  0  2  0  0  0  0  0  0  0  0  0
    7.5816  -14.4418   23.6303 N   0  0  0  0  0  0  0  0  0  0  0  0
    8.3835  -15.4046   25.6707 C   0  0  0  0  0  0  0  0  0  0  0  0
    7.4298  -16.1967   25.8202 O   0  0  0  0  0  0  0  0  0  0  0  0
    9.5997  -15.7628   26.3078 N   0  0  0  0  0  0  0  0  0  0  0  0
    9.7874  -17.0217   27.0412 C   0  0  1  0  0  0  0  0  0  0  0  0
   10.6163  -17.9775   26.2435 C   0  0  0  0  0  0  0  0  0  0  0  0
   12.0665  -17.9044   26.6464 C   0  0  0  0  0  0  0  0  0  0  0  0
   12.9269  -18.4900   25.5477 C   0  0  0  0  0  0  0  0  0  0  0  0
   12.4372  -18.8972   24.4721 O   0  0  0  0  0  0  0  0  0  0  0  0
   10.3101  -16.6797   28.3728 C   0  0  0  0  0  0  0  0  0  0  0  0
   10.4437  -17.6519   29.3891 O   0  0  0  0  0  0  0  0  0  0  0  0
   14.2826  -18.5735   25.7447 O   0  0  0  0  0  0  0  0  0  0  0  0
   10.6675  -15.5279   28.6989 O   0  0  0  0  0  0  0  0  0  0  0  0
  2  1  1  6
  2  3  1  0
  3  4  1  0
  4  8  1  0
  5  4  2  0
  6  7  2  0
  6  2  1  0
  9 10  1  0
 10 11  1  0
 11 13  1  0
 11 12  1  6
 13 14  1  6
 14  6  1  0
 15 13  1  0
 16 15  2  0
 17 15  1  0
 18 17  1  0
 18 19  1  6
 20 19  1  0
 20 21  1  0
 21 22  2  0
 23 24  1  0
 23 18  1  0
 25 21  1  0
 26 23  2  0
M  END
$$$$
