DIE.pdb
     RDKit          3D

 26 25  0  0  1  0  0  0  0  0999 V2000
    9.3634  -17.8869   16.3270 N   0  0  0  0  0  0  0  0  0  0  0  0
    8.5355  -17.8962   17.4863 C   0  0  1  0  0  0  0  0  0  0  0  0
    8.4321  -19.3095   18.0325 C   0  0  0  0  0  0  0  0  0  0  0  0
    7.6253  -20.1885   17.1943 C   0  0  0  0  0  0  0  0  0  0  0  0
    6.7349  -19.7466   16.4426 O   0  0  0  0  0  0  0  0  0  0  0  0
    9.0219  -17.0609   18.6071 C   0  0  0  0  0  0  0  0  0  0  0  0
   10.2850  -17.0070   18.7524 O   0  0  0  0  0  0  0  0  0  0  0  0
    7.8500  -21.5521   17.2299 O   0  0  0  0  0  0  0  0  0  0  0  0
    6.6124  -12.3732   20.0594 C   0  0  0  0  0  0  0  0  0  0  0  0
    7.6320  -13.4569   19.6923 C   0  0  0  0  0  0  0  0  0  0  0  0
    7.9024  -14.3269   20.8755 C   0  0  2  0  0  0  0  0  0  0  0  0
    8.4033  -13.4783   22.0146 C   0  0  0  0  0  0  0  0  0  0  0  0
    8.7931  -15.4703   20.5390 C   0  0  2  0  0  0  0  0  0  0  0  0
    8.2071  -16.3318   19.5117 N   0  0  0  0  0  0  0  0  0  0  0  0
    9.1585  -16.3287   21.7090 C   0  0  0  0  0  0  0  0  0  0  0  0
    8.3257  -16.9785   22.3748 O   0  0  0  0  0  0  0  0  0  0  0  0
   10.5121  -16.4413   22.1195 N   0  0  0  0  0  0  0  0  0  0  0  0
   10.9411  -17.2321   23.2807 C   0  0  1  0  0  0  0  0  0  0  0  0
   12.1479  -18.0493   22.9448 C   0  0  0  0  0  0  0  0  0  0  0  0
   11.9241  -18.8572   21.6928 C   0  0  0  0  0  0  0  0  0  0  0  0
   13.1535  -19.6905   21.4019 C   0  0  0  0  0  0  0  0  0  0  0  0
   13.2839  -20.3236   20.3321 O   0  0  0  0  0  0  0  0  0  0  0  0
   11.0924  -16.3039   24.4116 C   0  0  0  0  0  0  0  0  0  0  0  0
   11.1176  -14.9039   24.2235 O   0  0  0  0  0  0  0  0  0  0  0  0
   14.1498  -19.7484   22.3442 O   0  0  0  0  0  0  0  0  0  0  0  0
   11.2078  -16.6755   25.5987 O   0  0  0  0  0  0  0  0  0  0  0  0
  2  1  1  6
  2  3  1  0
  3  4  1  0
  4  8  1  0
  5  4  2  0
  6  7  2  0
  6  2  1  0
  9 10  1  0
 10 11  1  0
 11 13  1  0
 11 12  1  1
 13 14  1  6
 14  6  1  0
 15 13  1  0
 16 15  2  0
 17 15  1  0
 18 17  1  0
 18 19  1  6
 20 19  1  0
 20 21  1  0
 21 22  2  0
 23 24  1  0
 23 18  1  0
 25 21  1  0
 26 23  2  0
M  END
$$$$
