EKW.pdb
     RDKit          3D

 33 34  0  0  1  0  0  0  0  0999 V2000
    9.9027  -15.3442   18.1469 N   0  0  0  0  0  0  0  0  0  0  0  0
   10.7362  -15.9255   19.2026 C   0  0  1  0  0  0  0  0  0  0  0  0
   11.9110  -15.0218   19.3741 C   0  0  0  0  0  0  0  0  0  0  0  0
   13.1901  -15.8023   19.3135 C   0  0  0  0  0  0  0  0  0  0  0  0
   14.3644  -14.9399   19.4054 C   0  0  0  0  0  0  0  0  0  0  0  0
   14.3183  -13.7176   19.5368 O   0  0  0  0  0  0  0  0  0  0  0  0
    9.9189  -16.0002   20.4424 C   0  0  0  0  0  0  0  0  0  0  0  0
    9.2499  -15.0129   20.8036 O   0  0  0  0  0  0  0  0  0  0  0  0
   15.6540  -15.5121   19.3438 O   0  0  0  0  0  0  0  0  0  0  0  0
    9.9193  -17.1924   21.1843 N   0  0  0  0  0  0  0  0  0  0  0  0
    9.0248  -17.3700   22.3028 C   0  0  1  0  0  0  0  0  0  0  0  0
    8.4317  -18.7643   22.2619 C   0  0  0  0  0  0  0  0  0  0  0  0
    7.5986  -19.1075   23.4462 C   0  0  0  0  0  0  0  0  0  0  0  0
    7.1250  -20.5425   23.2875 C   0  0  0  0  0  0  0  0  0  0  0  0
    6.2737  -20.8919   24.4843 C   0  0  0  0  0  0  0  0  0  0  0  0
    5.8586  -22.2800   24.4666 N   0  0  0  0  0  0  0  0  0  0  0  0
    9.7768  -17.0738   23.5321 C   0  0  0  0  0  0  0  0  0  0  0  0
   10.9419  -17.5109   23.6540 O   0  0  0  0  0  0  0  0  0  0  0  0
    9.2620  -16.3114   24.6089 N   0  0  0  0  0  0  0  0  0  0  0  0
   10.0481  -16.1068   25.7799 C   0  0  1  0  0  0  0  0  0  0  0  0
    9.6404  -14.8716   26.5507 C   0  0  0  0  0  0  0  0  0  0  0  0
    8.2135  -14.5946   26.2927 C   0  0  0  0  0  0  0  0  0  0  0  0
    7.1680  -15.5025   26.1857 C   0  0  0  0  0  0  0  0  0  0  0  0
    6.0239  -14.8510   25.9416 N   0  0  0  0  0  0  0  0  0  0  0  0
    6.2586  -13.5364   25.8804 C   0  0  0  0  0  0  0  0  0  0  0  0
    5.4160  -12.4541   25.6574 C   0  0  0  0  0  0  0  0  0  0  0  0
    5.9902  -11.2032   25.6616 C   0  0  0  0  0  0  0  0  0  0  0  0
    7.3348  -11.0018   25.8739 C   0  0  0  0  0  0  0  0  0  0  0  0
    8.1581  -12.0815   26.0934 C   0  0  0  0  0  0  0  0  0  0  0  0
    7.6261  -13.3631   26.0987 C   0  0  0  0  0  0  0  0  0  0  0  0
    9.9708  -17.3145   26.6203 C   0  0  0  0  0  0  0  0  0  0  0  0
    9.1497  -18.2071   26.3453 O   0  0  0  0  0  0  0  0  0  0  0  0
   10.7992  -17.4587   27.7028 O   0  0  0  0  0  0  0  0  0  0  0  0
  2  1  1  6
  2  3  1  0
  3  4  1  0
  5  4  1  0
  5  6  2  0
  7  8  2  0
  7  2  1  0
  9  5  1  0
 10  7  1  0
 11 12  1  1
 11 10  1  0
 13 12  1  0
 14 13  1  0
 15 14  1  0
 16 15  1  0
 17 11  1  0
 18 17  2  0
 19 17  1  0
 20 21  1  1
 20 19  1  0
 21 22  1  0
 22 30  1  0
 23 22  2  0
 23 24  1  0
 24 25  1  0
 25 26  2  0
 26 27  1  0
 28 27  2  0
 29 28  1  0
 30 29  2  0
 30 25  1  0
 31 33  1  0
 31 20  1  0
 32 31  2  0
M  END
$$$$
