EKW.pdb
     RDKit          3D

 33 34  0  0  1  0  0  0  0  0999 V2000
    8.6490  -12.8181   18.5714 N   0  0  0  0  0  0  0  0  0  0  0  0
    9.0408  -14.2140   18.7838 C   0  0  1  0  0  0  0  0  0  0  0  0
   10.5319  -14.2554   18.7504 C   0  0  0  0  0  0  0  0  0  0  0  0
   11.0325  -14.1067   17.3447 C   0  0  0  0  0  0  0  0  0  0  0  0
   12.4641  -14.3725   17.2406 C   0  0  0  0  0  0  0  0  0  0  0  0
   13.3219  -13.8337   17.9388 O   0  0  0  0  0  0  0  0  0  0  0  0
    8.5118  -14.6421   20.1057 C   0  0  0  0  0  0  0  0  0  0  0  0
    8.2270  -13.7864   20.9656 O   0  0  0  0  0  0  0  0  0  0  0  0
   12.9311  -15.3039   16.2874 O   0  0  0  0  0  0  0  0  0  0  0  0
    8.3433  -16.0133   20.3571 N   0  0  0  0  0  0  0  0  0  0  0  0
    7.6992  -16.4723   21.5642 C   0  0  1  0  0  0  0  0  0  0  0  0
    7.0080  -17.7950   21.2994 C   0  0  0  0  0  0  0  0  0  0  0  0
    6.4384  -18.4393   22.5137 C   0  0  0  0  0  0  0  0  0  0  0  0
    5.7180  -19.7048   22.0801 C   0  0  0  0  0  0  0  0  0  0  0  0
    5.1052  -20.3403   23.3047 C   0  0  0  0  0  0  0  0  0  0  0  0
    4.5114  -21.6279   23.0068 N   0  0  0  0  0  0  0  0  0  0  0  0
    8.7176  -16.5293   22.6243 C   0  0  0  0  0  0  0  0  0  0  0  0
    9.8114  -17.0876   22.3891 O   0  0  0  0  0  0  0  0  0  0  0  0
    8.5416  -15.9836   23.9193 N   0  0  0  0  0  0  0  0  0  0  0  0
    9.5861  -16.0810   24.8839 C   0  0  1  0  0  0  0  0  0  0  0  0
    9.5052  -15.0073   25.9454 C   0  0  0  0  0  0  0  0  0  0  0  0
    8.0855  -14.7035   26.2129 C   0  0  0  0  0  0  0  0  0  0  0  0
    7.0248  -15.5920   26.3327 C   0  0  0  0  0  0  0  0  0  0  0  0
    5.8926  -14.9181   26.5715 N   0  0  0  0  0  0  0  0  0  0  0  0
    6.1502  -13.6071   26.6177 C   0  0  0  0  0  0  0  0  0  0  0  0
    5.3279  -12.5084   26.8360 C   0  0  0  0  0  0  0  0  0  0  0  0
    5.9245  -11.2682   26.8227 C   0  0  0  0  0  0  0  0  0  0  0  0
    7.2720  -11.0924   26.6055 C   0  0  0  0  0  0  0  0  0  0  0  0
    8.0751  -12.1882   26.3907 C   0  0  0  0  0  0  0  0  0  0  0  0
    7.5200  -13.4600   26.3947 C   0  0  0  0  0  0  0  0  0  0  0  0
    9.5580  -17.4285   25.4794 C   0  0  0  0  0  0  0  0  0  0  0  0
    8.6028  -18.1888   25.2426 O   0  0  0  0  0  0  0  0  0  0  0  0
   10.5790  -17.8475   26.2921 O   0  0  0  0  0  0  0  0  0  0  0  0
  2  1  1  1
  2  3  1  0
  3  4  1  0
  5  4  1  0
  5  6  2  0
  7  8  2  0
  7  2  1  0
  9  5  1  0
 10  7  1  0
 11 12  1  6
 11 10  1  0
 13 12  1  0
 14 13  1  0
 15 14  1  0
 16 15  1  0
 17 11  1  0
 18 17  2  0
 19 17  1  0
 20 21  1  1
 20 19  1  0
 21 22  1  0
 22 30  1  0
 23 22  2  0
 23 24  1  0
 24 25  1  0
 25 26  2  0
 26 27  1  0
 28 27  2  0
 29 28  1  0
 30 29  2  0
 30 25  1  0
 31 33  1  0
 31 20  1  0
 32 31  2  0
M  END
$$$$
