EKW.pdb
     RDKit          3D

 33 34  0  0  1  0  0  0  0  0999 V2000
   11.9345  -17.5152   19.4881 N   0  0  0  0  0  0  0  0  0  0  0  0
   11.1106  -16.3038   19.4608 C   0  0  1  0  0  0  0  0  0  0  0  0
   10.3221  -16.3444   18.1948 C   0  0  0  0  0  0  0  0  0  0  0  0
   11.2139  -16.1188   17.0104 C   0  0  0  0  0  0  0  0  0  0  0  0
   10.4652  -16.0871   15.7575 C   0  0  0  0  0  0  0  0  0  0  0  0
    9.3612  -16.6053   15.5964 O   0  0  0  0  0  0  0  0  0  0  0  0
   10.2264  -16.3241   20.6559 C   0  0  0  0  0  0  0  0  0  0  0  0
    9.3750  -15.4277   20.8119 O   0  0  0  0  0  0  0  0  0  0  0  0
   11.0134  -15.4266   14.6362 O   0  0  0  0  0  0  0  0  0  0  0  0
   10.3720  -17.3626   21.5898 N   0  0  0  0  0  0  0  0  0  0  0  0
    9.4585  -17.4959   22.6991 C   0  0  1  0  0  0  0  0  0  0  0  0
    8.9305  -18.9156   22.7542 C   0  0  0  0  0  0  0  0  0  0  0  0
    9.9839  -19.9513   22.9330 C   0  0  0  0  0  0  0  0  0  0  0  0
    9.3264  -21.3158   22.8128 C   0  0  0  0  0  0  0  0  0  0  0  0
   10.3773  -22.3687   23.0699 C   0  0  0  0  0  0  0  0  0  0  0  0
    9.7909  -23.6721   23.3078 N   0  0  0  0  0  0  0  0  0  0  0  0
   10.1648  -17.0707   23.9175 C   0  0  0  0  0  0  0  0  0  0  0  0
   11.4074  -17.1964   23.9768 O   0  0  0  0  0  0  0  0  0  0  0  0
    9.5215  -16.5169   25.0512 N   0  0  0  0  0  0  0  0  0  0  0  0
   10.2623  -16.2687   26.2431 C   0  0  1  0  0  0  0  0  0  0  0  0
    9.7416  -15.0805   27.0197 C   0  0  0  0  0  0  0  0  0  0  0  0
    8.3734  -14.7697   26.5605 C   0  0  0  0  0  0  0  0  0  0  0  0
    7.2986  -15.6371   26.4150 C   0  0  0  0  0  0  0  0  0  0  0  0
    6.2302  -14.9652   25.9676 N   0  0  0  0  0  0  0  0  0  0  0  0
    6.5443  -13.6759   25.8061 C   0  0  0  0  0  0  0  0  0  0  0  0
    5.7966  -12.5871   25.3743 C   0  0  0  0  0  0  0  0  0  0  0  0
    6.4358  -11.3692   25.3258 C   0  0  0  0  0  0  0  0  0  0  0  0
    7.7549  -11.2058   25.6824 C   0  0  0  0  0  0  0  0  0  0  0  0
    8.4840  -12.2915   26.1081 C   0  0  0  0  0  0  0  0  0  0  0  0
    7.8837  -13.5409   26.1741 C   0  0  0  0  0  0  0  0  0  0  0  0
   10.2608  -17.4910   27.0659 C   0  0  0  0  0  0  0  0  0  0  0  0
   10.9386  -17.5355   28.1076 O   0  0  0  0  0  0  0  0  0  0  0  0
    9.5160  -18.5782   26.6889 O   0  0  0  0  0  0  0  0  0  0  0  0
  2  1  1  1
  2  3  1  0
  3  4  1  0
  5  4  1  0
  5  6  2  0
  7  8  2  0
  7  2  1  0
  9  5  1  0
 10  7  1  0
 11 12  1  1
 11 10  1  0
 13 12  1  0
 14 13  1  0
 15 14  1  0
 16 15  1  0
 17 11  1  0
 18 17  2  0
 19 17  1  0
 20 21  1  1
 20 19  1  0
 21 22  1  0
 22 30  1  0
 23 22  2  0
 23 24  1  0
 24 25  1  0
 25 26  2  0
 26 27  1  0
 28 27  2  0
 29 28  1  0
 30 29  2  0
 30 25  1  0
 31 33  1  0
 31 20  1  0
 32 31  2  0
M  END
$$$$
