EKW.pdb
     RDKit          3D

 33 34  0  0  1  0  0  0  0  0999 V2000
   10.7425  -17.7015   18.3257 N   0  0  0  0  0  0  0  0  0  0  0  0
   11.3779  -18.0545   19.5980 C   0  0  1  0  0  0  0  0  0  0  0  0
   12.6823  -17.3317   19.6461 C   0  0  0  0  0  0  0  0  0  0  0  0
   13.8247  -18.2974   19.5407 C   0  0  0  0  0  0  0  0  0  0  0  0
   15.1188  -17.6321   19.6586 C   0  0  0  0  0  0  0  0  0  0  0  0
   16.2011  -18.1799   19.4540 O   0  0  0  0  0  0  0  0  0  0  0  0
   10.4737  -17.6234   20.6967 C   0  0  0  0  0  0  0  0  0  0  0  0
    9.8938  -16.5227   20.6258 O   0  0  0  0  0  0  0  0  0  0  0  0
   15.1696  -16.2703   20.0291 O   0  0  0  0  0  0  0  0  0  0  0  0
   10.2918  -18.4742   21.7988 N   0  0  0  0  0  0  0  0  0  0  0  0
    9.3084  -18.1755   22.8120 C   0  0  1  0  0  0  0  0  0  0  0  0
    8.4029  -19.3748   23.0096 C   0  0  0  0  0  0  0  0  0  0  0  0
    7.5035  -19.6563   21.8580 C   0  0  0  0  0  0  0  0  0  0  0  0
    6.8034  -20.9789   22.1207 C   0  0  0  0  0  0  0  0  0  0  0  0
    5.9160  -21.2845   20.9383 C   0  0  0  0  0  0  0  0  0  0  0  0
    5.2450  -22.5608   21.0806 N   0  0  0  0  0  0  0  0  0  0  0  0
   10.0258  -17.7588   24.0268 C   0  0  0  0  0  0  0  0  0  0  0  0
   11.1090  -18.3130   24.3152 O   0  0  0  0  0  0  0  0  0  0  0  0
    9.5654  -16.7522   24.9103 N   0  0  0  0  0  0  0  0  0  0  0  0
   10.2383  -16.5229   26.1454 C   0  0  1  0  0  0  0  0  0  0  0  0
    9.9088  -15.1772   26.7510 C   0  0  0  0  0  0  0  0  0  0  0  0
    8.4887  -14.8691   26.4909 C   0  0  0  0  0  0  0  0  0  0  0  0
    7.3918  -15.7134   26.6047 C   0  0  0  0  0  0  0  0  0  0  0  0
    6.2747  -15.0538   26.2731 N   0  0  0  0  0  0  0  0  0  0  0  0
    6.5771  -13.7950   25.9400 C   0  0  0  0  0  0  0  0  0  0  0  0
    5.7850  -12.7287   25.5319 C   0  0  0  0  0  0  0  0  0  0  0  0
    6.4255  -11.5402   25.2643 C   0  0  0  0  0  0  0  0  0  0  0  0
    7.7874  -11.3845   25.3860 C   0  0  0  0  0  0  0  0  0  0  0  0
    8.5602  -12.4478   25.7908 C   0  0  0  0  0  0  0  0  0  0  0  0
    7.9605  -13.6670   26.0725 C   0  0  0  0  0  0  0  0  0  0  0  0
    9.9169  -17.6224   27.0721 C   0  0  0  0  0  0  0  0  0  0  0  0
   10.4704  -17.6747   28.1845 O   0  0  0  0  0  0  0  0  0  0  0  0
    9.0113  -18.5870   26.7140 O   0  0  0  0  0  0  0  0  0  0  0  0
  2  1  1  6
  2  3  1  0
  3  4  1  0
  5  4  1  0
  5  6  2  0
  7  8  2  0
  7  2  1  0
  9  5  1  0
 10  7  1  0
 11 12  1  1
 11 10  1  0
 13 12  1  0
 14 13  1  0
 15 14  1  0
 16 15  1  0
 17 11  1  0
 18 17  2  0
 19 17  1  0
 20 21  1  1
 20 19  1  0
 21 22  1  0
 22 30  1  0
 23 22  2  0
 23 24  1  0
 24 25  1  0
 25 26  2  0
 26 27  1  0
 28 27  2  0
 29 28  1  0
 30 29  2  0
 30 25  1  0
 31 33  1  0
 31 20  1  0
 32 31  2  0
M  END
$$$$
