EKW.pdb
     RDKit          3D

 33 34  0  0  1  0  0  0  0  0999 V2000
    8.9610  -13.2155   18.8010 N   0  0  0  0  0  0  0  0  0  0  0  0
    7.9906  -14.2982   18.9826 C   0  0  1  0  0  0  0  0  0  0  0  0
    7.5872  -14.7517   17.6195 C   0  0  0  0  0  0  0  0  0  0  0  0
    8.4416  -14.1012   16.5728 C   0  0  0  0  0  0  0  0  0  0  0  0
    8.0762  -14.5251   15.2245 C   0  0  0  0  0  0  0  0  0  0  0  0
    8.8537  -15.0492   14.4280 O   0  0  0  0  0  0  0  0  0  0  0  0
    8.6563  -15.3868   19.7457 C   0  0  0  0  0  0  0  0  0  0  0  0
    8.0401  -16.4437   19.9824 O   0  0  0  0  0  0  0  0  0  0  0  0
    6.7521  -14.3374   14.7712 O   0  0  0  0  0  0  0  0  0  0  0  0
    9.9762  -15.1975   20.1859 N   0  0  0  0  0  0  0  0  0  0  0  0
   10.6685  -16.2296   20.9195 C   0  0  1  0  0  0  0  0  0  0  0  0
   12.0141  -16.4952   20.2744 C   0  0  0  0  0  0  0  0  0  0  0  0
   11.9328  -17.1627   18.9469 C   0  0  0  0  0  0  0  0  0  0  0  0
   13.3455  -17.3092   18.4073 C   0  0  0  0  0  0  0  0  0  0  0  0
   13.2786  -18.0966   17.1211 C   0  0  0  0  0  0  0  0  0  0  0  0
   14.5865  -18.2660   16.5212 N   0  0  0  0  0  0  0  0  0  0  0  0
   10.7507  -15.8046   22.3256 C   0  0  0  0  0  0  0  0  0  0  0  0
   11.2084  -14.6724   22.5942 O   0  0  0  0  0  0  0  0  0  0  0  0
   10.3382  -16.6053   23.4184 N   0  0  0  0  0  0  0  0  0  0  0  0
    9.4978  -16.0559   24.4298 C   0  0  1  0  0  0  0  0  0  0  0  0
    8.3270  -15.2847   23.8636 C   0  0  0  0  0  0  0  0  0  0  0  0
    7.4336  -14.8884   24.9700 C   0  0  0  0  0  0  0  0  0  0  0  0
    6.3997  -15.6180   25.5424 C   0  0  0  0  0  0  0  0  0  0  0  0
    5.8260  -14.9033   26.5188 N   0  0  0  0  0  0  0  0  0  0  0  0
    6.4350  -13.7182   26.6268 C   0  0  0  0  0  0  0  0  0  0  0  0
    6.2191  -12.6394   27.4756 C   0  0  0  0  0  0  0  0  0  0  0  0
    7.0444  -11.5486   27.3231 C   0  0  0  0  0  0  0  0  0  0  0  0
    8.0467  -11.4991   26.3814 C   0  0  0  0  0  0  0  0  0  0  0  0
    8.2500  -12.5735   25.5471 C   0  0  0  0  0  0  0  0  0  0  0  0
    7.4435  -13.6969   25.6623 C   0  0  0  0  0  0  0  0  0  0  0  0
    9.0469  -17.1441   25.3149 C   0  0  0  0  0  0  0  0  0  0  0  0
    8.6843  -18.2284   24.8256 O   0  0  0  0  0  0  0  0  0  0  0  0
    9.0255  -16.9671   26.6739 O   0  0  0  0  0  0  0  0  0  0  0  0
  2  1  1  6
  2  3  1  0
  3  4  1  0
  5  4  1  0
  5  6  2  0
  7  8  2  0
  7  2  1  0
  9  5  1  0
 10  7  1  0
 11 12  1  6
 11 10  1  0
 13 12  1  0
 14 13  1  0
 15 14  1  0
 16 15  1  0
 17 11  1  0
 18 17  2  0
 19 17  1  0
 20 21  1  6
 20 19  1  0
 21 22  1  0
 22 30  1  0
 23 22  2  0
 23 24  1  0
 24 25  1  0
 25 26  2  0
 26 27  1  0
 28 27  2  0
 29 28  1  0
 30 29  2  0
 30 25  1  0
 31 33  1  0
 31 20  1  0
 32 31  2  0
M  END
$$$$
