EKW.pdb
     RDKit          3D

 33 34  0  0  1  0  0  0  0  0999 V2000
   11.9967  -17.3406   16.9638 N   0  0  0  0  0  0  0  0  0  0  0  0
   12.2720  -18.0002   18.2429 C   0  0  1  0  0  0  0  0  0  0  0  0
   13.6296  -17.5574   18.6755 C   0  0  0  0  0  0  0  0  0  0  0  0
   14.6877  -18.4263   18.0638 C   0  0  0  0  0  0  0  0  0  0  0  0
   16.0312  -18.0207   18.4657 C   0  0  0  0  0  0  0  0  0  0  0  0
   16.7387  -18.6484   19.2525 O   0  0  0  0  0  0  0  0  0  0  0  0
   11.2254  -17.5778   19.2107 C   0  0  0  0  0  0  0  0  0  0  0  0
   10.8498  -16.3899   19.2376 O   0  0  0  0  0  0  0  0  0  0  0  0
   16.5877  -16.8358   17.9360 O   0  0  0  0  0  0  0  0  0  0  0  0
   10.6788  -18.5357   20.0798 N   0  0  0  0  0  0  0  0  0  0  0  0
    9.5634  -18.2098   20.9357 C   0  0  1  0  0  0  0  0  0  0  0  0
    8.5742  -19.3582   20.9398 C   0  0  0  0  0  0  0  0  0  0  0  0
    7.6175  -19.3430   19.8002 C   0  0  0  0  0  0  0  0  0  0  0  0
    6.6818  -20.5299   19.9564 C   0  0  0  0  0  0  0  0  0  0  0  0
    5.7208  -20.5277   18.7921 C   0  0  0  0  0  0  0  0  0  0  0  0
    6.4101  -20.6218   17.5212 N   0  0  0  0  0  0  0  0  0  0  0  0
   10.0985  -17.8741   22.2644 C   0  0  0  0  0  0  0  0  0  0  0  0
   11.1699  -18.3980   22.6399 O   0  0  0  0  0  0  0  0  0  0  0  0
    9.4715  -16.9797   23.1658 N   0  0  0  0  0  0  0  0  0  0  0  0
    9.9079  -16.9075   24.5205 C   0  0  1  0  0  0  0  0  0  0  0  0
    8.8948  -16.2470   25.4279 C   0  0  0  0  0  0  0  0  0  0  0  0
    9.3872  -16.3042   26.8185 C   0  0  0  0  0  0  0  0  0  0  0  0
    9.5597  -17.4230   27.6232 C   0  0  0  0  0  0  0  0  0  0  0  0
   10.0225  -17.0519   28.8236 N   0  0  0  0  0  0  0  0  0  0  0  0
   10.1691  -15.7236   28.8588 C   0  0  0  0  0  0  0  0  0  0  0  0
   10.6131  -14.8665   29.8584 C   0  0  0  0  0  0  0  0  0  0  0  0
   10.6467  -13.5231   29.5611 C   0  0  0  0  0  0  0  0  0  0  0  0
   10.2639  -13.0213   28.3382 C   0  0  0  0  0  0  0  0  0  0  0  0
    9.8263  -13.8803   27.3572 C   0  0  0  0  0  0  0  0  0  0  0  0
    9.7746  -15.2439   27.6090 C   0  0  0  0  0  0  0  0  0  0  0  0
   10.2403  -18.2657   24.9850 C   0  0  0  0  0  0  0  0  0  0  0  0
    9.4106  -19.1830   24.8564 O   0  0  0  0  0  0  0  0  0  0  0  0
   11.4589  -18.5226   25.5575 O   0  0  0  0  0  0  0  0  0  0  0  0
  2  1  1  6
  2  3  1  0
  3  4  1  0
  5  4  1  0
  5  6  2  0
  7  8  2  0
  7  2  1  0
  9  5  1  0
 10  7  1  0
 11 12  1  1
 11 10  1  0
 13 12  1  0
 14 13  1  0
 15 14  1  0
 16 15  1  0
 17 11  1  0
 18 17  2  0
 19 17  1  0
 20 21  1  1
 20 19  1  0
 21 22  1  0
 22 30  1  0
 23 22  2  0
 23 24  1  0
 24 25  1  0
 25 26  2  0
 26 27  1  0
 28 27  2  0
 29 28  1  0
 30 29  2  0
 30 25  1  0
 31 33  1  0
 31 20  1  0
 32 31  2  0
M  END
$$$$
