EKW.pdb
     RDKit          3D

 33 34  0  0  1  0  0  0  0  0999 V2000
   10.6813  -18.9116   19.6387 N   0  0  0  0  0  0  0  0  0  0  0  0
   11.8062  -17.9749   19.7048 C   0  0  1  0  0  0  0  0  0  0  0  0
   12.0927  -17.5422   18.3059 C   0  0  0  0  0  0  0  0  0  0  0  0
   13.3079  -18.2427   17.7755 C   0  0  0  0  0  0  0  0  0  0  0  0
   13.6093  -17.8546   16.4008 C   0  0  0  0  0  0  0  0  0  0  0  0
   14.7281  -17.5374   15.9994 O   0  0  0  0  0  0  0  0  0  0  0  0
   11.3977  -16.8281   20.5584 C   0  0  0  0  0  0  0  0  0  0  0  0
   12.2385  -15.9683   20.8846 O   0  0  0  0  0  0  0  0  0  0  0  0
   12.5731  -17.8309   15.4418 O   0  0  0  0  0  0  0  0  0  0  0  0
   10.0615  -16.7392   20.9810 N   0  0  0  0  0  0  0  0  0  0  0  0
    9.6040  -15.6152   21.7622 C   0  0  1  0  0  0  0  0  0  0  0  0
    8.3153  -15.0780   21.1723 C   0  0  0  0  0  0  0  0  0  0  0  0
    8.5113  -14.1039   20.0646 C   0  0  0  0  0  0  0  0  0  0  0  0
    7.1487  -13.7852   19.4726 C   0  0  0  0  0  0  0  0  0  0  0  0
    7.3616  -13.0811   18.1543 C   0  0  0  0  0  0  0  0  0  0  0  0
    7.0024  -13.9196   17.0286 N   0  0  0  0  0  0  0  0  0  0  0  0
    9.4854  -16.0573   23.1603 C   0  0  0  0  0  0  0  0  0  0  0  0
    9.1327  -17.2326   23.4000 O   0  0  0  0  0  0  0  0  0  0  0  0
    9.7491  -15.2266   24.2767 N   0  0  0  0  0  0  0  0  0  0  0  0
    9.6653  -15.7562   25.5971 C   0  0  1  0  0  0  0  0  0  0  0  0
    8.3037  -16.3336   25.9114 C   0  0  0  0  0  0  0  0  0  0  0  0
    7.3015  -15.2506   25.8664 C   0  0  0  0  0  0  0  0  0  0  0  0
    5.9654  -15.3317   25.4960 C   0  0  0  0  0  0  0  0  0  0  0  0
    5.3953  -14.1233   25.5852 N   0  0  0  0  0  0  0  0  0  0  0  0
    6.2975  -13.2295   26.0026 C   0  0  0  0  0  0  0  0  0  0  0  0
    6.2038  -11.8657   26.2523 C   0  0  0  0  0  0  0  0  0  0  0  0
    7.3449  -11.2293   26.6850 C   0  0  0  0  0  0  0  0  0  0  0  0
    8.5393  -11.8869   26.8710 C   0  0  0  0  0  0  0  0  0  0  0  0
    8.6188  -13.2369   26.6202 C   0  0  0  0  0  0  0  0  0  0  0  0
    7.4951  -13.9232   26.1821 C   0  0  0  0  0  0  0  0  0  0  0  0
   10.7287  -16.7605   25.7740 C   0  0  0  0  0  0  0  0  0  0  0  0
   11.4868  -17.0313   24.8260 O   0  0  0  0  0  0  0  0  0  0  0  0
   10.8863  -17.3971   26.9776 O   0  0  0  0  0  0  0  0  0  0  0  0
  2  1  1  6
  2  3  1  0
  3  4  1  0
  5  4  1  0
  5  6  2  0
  7  8  2  0
  7  2  1  0
  9  5  1  0
 10  7  1  0
 11 12  1  6
 11 10  1  0
 13 12  1  0
 14 13  1  0
 15 14  1  0
 16 15  1  0
 17 11  1  0
 18 17  2  0
 19 17  1  0
 20 21  1  6
 20 19  1  0
 21 22  1  0
 22 30  1  0
 23 22  2  0
 23 24  1  0
 24 25  1  0
 25 26  2  0
 26 27  1  0
 28 27  2  0
 29 28  1  0
 30 29  2  0
 30 25  1  0
 31 33  1  0
 31 20  1  0
 32 31  2  0
M  END
$$$$
