IFV.pdb
     RDKit          3D

 27 27  0  0  1  0  0  0  0  0999 V2000
   22.4776  -20.9367  -14.0571 C   0  0  0  0  0  0  0  0  0  0  0  0
   23.9425  -20.8140  -13.7413 C   0  0  0  0  0  0  0  0  0  0  0  0
   24.2851  -21.0785  -12.3079 C   0  0  2  0  0  0  0  0  0  0  0  0
   23.5354  -20.1771  -11.3540 C   0  0  0  0  0  0  0  0  0  0  0  0
   25.7586  -20.8708  -12.0807 C   0  0  2  0  0  0  0  0  0  0  0  0
   26.4826  -21.7774  -12.9464 N   0  0  0  0  0  0  0  0  0  0  0  0
   26.1736  -21.0842  -10.6970 C   0  0  0  0  0  0  0  0  0  0  0  0
   26.1205  -22.2384  -10.2059 O   0  0  0  0  0  0  0  0  0  0  0  0
   26.6470  -20.0506   -9.8420 N   0  0  0  0  0  0  0  0  0  0  0  0
   27.0520  -20.3114   -8.4829 C   0  0  1  0  0  0  0  0  0  0  0  0
   28.0737  -19.2540   -8.1248 C   0  0  0  0  0  0  0  0  0  0  0  0
   28.5392  -19.3727   -6.7352 C   0  0  0  0  0  0  0  0  0  0  0  0
   28.1570  -18.4270   -5.8110 C   0  0  0  0  0  0  0  0  0  0  0  0
   28.6021  -18.5580   -4.5183 C   0  0  0  0  0  0  0  0  0  0  0  0
   29.4179  -19.6236   -4.1640 C   0  0  0  0  0  0  0  0  0  0  0  0
   29.7932  -20.5688   -5.1119 C   0  0  0  0  0  0  0  0  0  0  0  0
   29.3538  -20.4499   -6.4139 C   0  0  0  0  0  0  0  0  0  0  0  0
   25.8862  -20.2868   -7.5766 C   0  0  0  0  0  0  0  0  0  0  0  0
   25.0039  -19.4048   -7.7403 O   0  0  0  0  0  0  0  0  0  0  0  0
   22.5244  -22.2989   -4.7597 C   0  0  0  0  0  0  0  0  0  0  0  0
   23.7059  -22.3692   -5.7128 C   0  0  1  0  0  0  0  0  0  0  0  0
   23.1728  -22.5612   -7.0943 C   0  0  0  0  0  0  0  0  0  0  0  0
   24.5908  -21.1515   -5.5829 C   0  0  2  0  0  0  0  0  0  0  0  0
   25.6928  -21.2031   -6.5214 N   0  0  0  0  0  0  0  0  0  0  0  0
   25.0208  -20.9023   -4.2074 C   0  0  0  0  0  0  0  0  0  0  0  0
   26.3309  -21.0980   -3.7456 O   0  0  0  0  0  0  0  0  0  0  0  0
   24.1998  -20.4863   -3.3505 O   0  0  0  0  0  0  0  0  0  0  0  0
  1  2  1  0
  3  5  1  0
  3  2  1  0
  3  4  1  1
  5  6  1  6
  7  8  2  0
  7  5  1  0
  9  7  1  0
 10  9  1  0
 10 11  1  1
 11 12  1  0
 12 17  2  0
 12 13  1  0
 13 14  2  0
 14 15  1  0
 16 15  2  0
 17 16  1  0
 18 19  2  0
 18 10  1  0
 21 20  1  1
 22 21  1  0
 23 21  1  0
 23 24  1  6
 24 18  1  0
 25 23  1  0
 26 25  1  0
 27 25  2  0
M  END
$$$$
