IFV.pdb
     RDKit          3D

 27 27  0  0  1  0  0  0  0  0999 V2000
   25.3334  -20.8458  -14.8273 C   0  0  0  0  0  0  0  0  0  0  0  0
   24.5819  -21.2465  -13.5882 C   0  0  0  0  0  0  0  0  0  0  0  0
   25.4172  -21.2726  -12.3459 C   0  0  2  0  0  0  0  0  0  0  0  0
   25.6921  -22.6766  -11.8583 C   0  0  0  0  0  0  0  0  0  0  0  0
   24.7230  -20.5250  -11.2391 C   0  0  2  0  0  0  0  0  0  0  0  0
   23.9632  -19.4438  -11.8299 N   0  0  0  0  0  0  0  0  0  0  0  0
   25.6354  -19.9859  -10.2344 C   0  0  0  0  0  0  0  0  0  0  0  0
   26.2814  -18.9386  -10.4835 O   0  0  0  0  0  0  0  0  0  0  0  0
   25.8508  -20.5776   -8.9589 N   0  0  0  0  0  0  0  0  0  0  0  0
   26.8538  -20.0829   -8.0488 C   0  0  1  0  0  0  0  0  0  0  0  0
   26.1653  -19.8729   -6.7176 C   0  0  0  0  0  0  0  0  0  0  0  0
   27.1074  -19.4994   -5.6524 C   0  0  0  0  0  0  0  0  0  0  0  0
   27.5152  -20.4516   -4.7460 C   0  0  0  0  0  0  0  0  0  0  0  0
   28.3968  -20.0815   -3.7600 C   0  0  0  0  0  0  0  0  0  0  0  0
   28.8589  -18.7745   -3.6895 C   0  0  0  0  0  0  0  0  0  0  0  0
   28.4354  -17.8269   -4.6143 C   0  0  0  0  0  0  0  0  0  0  0  0
   27.5502  -18.1843   -5.6099 C   0  0  0  0  0  0  0  0  0  0  0  0
   27.9809  -21.0319   -7.9476 C   0  0  0  0  0  0  0  0  0  0  0  0
   27.7425  -22.2672   -7.9644 O   0  0  0  0  0  0  0  0  0  0  0  0
   32.6122  -22.3044   -8.7180 C   0  0  0  0  0  0  0  0  0  0  0  0
   31.3810  -21.4312   -8.8940 C   0  0  1  0  0  0  0  0  0  0  0  0
   30.7393  -21.7956  -10.1921 C   0  0  0  0  0  0  0  0  0  0  0  0
   30.4450  -21.5559   -7.7145 C   0  0  2  0  0  0  0  0  0  0  0  0
   29.3307  -20.6380   -7.8316 N   0  0  0  0  0  0  0  0  0  0  0  0
   31.1328  -21.4609   -6.4273 C   0  0  0  0  0  0  0  0  0  0  0  0
   31.6777  -22.5583   -5.7442 O   0  0  0  0  0  0  0  0  0  0  0  0
   31.2678  -20.3469   -5.8597 O   0  0  0  0  0  0  0  0  0  0  0  0
  1  2  1  0
  3  5  1  0
  3  2  1  0
  3  4  1  1
  5  6  1  6
  7  8  2  0
  7  5  1  0
  9  7  1  0
 10  9  1  0
 10 11  1  1
 11 12  1  0
 12 17  2  0
 12 13  1  0
 13 14  2  0
 14 15  1  0
 16 15  2  0
 17 16  1  0
 18 19  2  0
 18 10  1  0
 21 20  1  1
 22 21  1  0
 23 21  1  0
 23 24  1  6
 24 18  1  0
 25 23  1  0
 26 25  1  0
 27 25  2  0
M  END
$$$$
