IFV.pdb
     RDKit          3D

 27 27  0  0  1  0  0  0  0  0999 V2000
   28.7159  -20.6484  -19.9508 C   0  0  0  0  0  0  0  0  0  0  0  0
   28.8357  -21.6120  -18.8029 C   0  0  0  0  0  0  0  0  0  0  0  0
   27.7734  -21.4575  -17.7592 C   0  0  2  0  0  0  0  0  0  0  0  0
   27.7503  -20.0737  -17.1519 C   0  0  0  0  0  0  0  0  0  0  0  0
   27.9919  -22.4483  -16.6471 C   0  0  2  0  0  0  0  0  0  0  0  0
   27.8877  -23.7815  -17.2012 N   0  0  0  0  0  0  0  0  0  0  0  0
   27.0480  -22.3059  -15.5420 C   0  0  0  0  0  0  0  0  0  0  0  0
   25.8565  -22.6709  -15.6947 O   0  0  0  0  0  0  0  0  0  0  0  0
   27.3904  -21.7690  -14.2700 N   0  0  0  0  0  0  0  0  0  0  0  0
   26.3999  -21.5414  -13.2471 C   0  0  1  0  0  0  0  0  0  0  0  0
   27.1559  -21.2820  -11.9619 C   0  0  0  0  0  0  0  0  0  0  0  0
   26.2645  -20.9135  -10.8523 C   0  0  0  0  0  0  0  0  0  0  0  0
   25.0490  -21.5462  -10.7228 C   0  0  0  0  0  0  0  0  0  0  0  0
   24.2326  -21.1876   -9.6781 C   0  0  0  0  0  0  0  0  0  0  0  0
   24.6349  -20.2087   -8.7802 C   0  0  0  0  0  0  0  0  0  0  0  0
   25.8665  -19.5809   -8.9277 C   0  0  0  0  0  0  0  0  0  0  0  0
   26.6967  -19.9308   -9.9721 C   0  0  0  0  0  0  0  0  0  0  0  0
   25.5215  -20.4119  -13.6125 C   0  0  0  0  0  0  0  0  0  0  0  0
   26.0360  -19.2854  -13.8352 O   0  0  0  0  0  0  0  0  0  0  0  0
   22.2234  -18.0868  -15.9327 C   0  0  0  0  0  0  0  0  0  0  0  0
   23.2168  -19.1756  -15.5625 C   0  0  1  0  0  0  0  0  0  0  0  0
   24.5486  -18.7928  -16.1184 C   0  0  0  0  0  0  0  0  0  0  0  0
   23.2430  -19.4121  -14.0705 C   0  0  2  0  0  0  0  0  0  0  0  0
   24.1194  -20.5142  -13.7307 N   0  0  0  0  0  0  0  0  0  0  0  0
   21.9072  -19.5422  -13.4893 C   0  0  0  0  0  0  0  0  0  0  0  0
   21.1867  -20.7446  -13.4360 O   0  0  0  0  0  0  0  0  0  0  0  0
   21.3291  -18.5407  -12.9950 O   0  0  0  0  0  0  0  0  0  0  0  0
  1  2  1  0
  3  5  1  0
  3  2  1  0
  3  4  1  1
  5  6  1  6
  7  8  2  0
  7  5  1  0
  9  7  1  0
 10  9  1  0
 10 11  1  1
 11 12  1  0
 12 17  2  0
 12 13  1  0
 13 14  2  0
 14 15  1  0
 16 15  2  0
 17 16  1  0
 18 19  2  0
 18 10  1  0
 21 20  1  1
 22 21  1  0
 23 21  1  0
 23 24  1  6
 24 18  1  0
 25 23  1  0
 26 25  1  0
 27 25  2  0
M  END
$$$$
