IFV.pdb
     RDKit          3D

 27 27  0  0  1  0  0  0  0  0999 V2000
   25.8891  -18.4457  -20.0752 C   0  0  0  0  0  0  0  0  0  0  0  0
   25.4899  -17.9327  -18.7194 C   0  0  0  0  0  0  0  0  0  0  0  0
   25.5567  -18.9590  -17.6313 C   0  0  2  0  0  0  0  0  0  0  0  0
   24.6936  -20.1666  -17.9159 C   0  0  0  0  0  0  0  0  0  0  0  0
   25.1020  -18.3612  -16.3267 C   0  0  2  0  0  0  0  0  0  0  0  0
   25.7322  -17.0666  -16.1775 N   0  0  0  0  0  0  0  0  0  0  0  0
   25.4104  -19.1891  -15.1640 C   0  0  0  0  0  0  0  0  0  0  0  0
   24.9323  -20.3473  -15.0845 O   0  0  0  0  0  0  0  0  0  0  0  0
   26.2363  -18.7668  -14.0856 N   0  0  0  0  0  0  0  0  0  0  0  0
   26.4172  -19.5722  -12.9034 C   0  0  1  0  0  0  0  0  0  0  0  0
   27.6481  -19.0410  -12.2012 C   0  0  0  0  0  0  0  0  0  0  0  0
   27.7384  -19.4975  -10.8066 C   0  0  0  0  0  0  0  0  0  0  0  0
   28.3400  -20.7036  -10.5276 C   0  0  0  0  0  0  0  0  0  0  0  0
   28.4149  -21.1101   -9.2178 C   0  0  0  0  0  0  0  0  0  0  0  0
   27.8924  -20.3146   -8.2076 C   0  0  0  0  0  0  0  0  0  0  0  0
   27.2883  -19.0993   -8.5093 C   0  0  0  0  0  0  0  0  0  0  0  0
   27.2060  -18.6784   -9.8202 C   0  0  0  0  0  0  0  0  0  0  0  0
   25.2183  -19.5139  -12.0430 C   0  0  0  0  0  0  0  0  0  0  0  0
   24.6574  -18.4039  -11.8517 O   0  0  0  0  0  0  0  0  0  0  0  0
   21.9758  -20.2201  -12.4565 C   0  0  0  0  0  0  0  0  0  0  0  0
   22.2510  -21.0466  -11.2114 C   0  0  1  0  0  0  0  0  0  0  0  0
   22.2903  -22.4844  -11.6120 C   0  0  0  0  0  0  0  0  0  0  0  0
   23.5123  -20.5902  -10.5159 C   0  0  2  0  0  0  0  0  0  0  0  0
   24.6503  -20.6399  -11.4107 N   0  0  0  0  0  0  0  0  0  0  0  0
   23.7485  -21.2825   -9.2495 C   0  0  0  0  0  0  0  0  0  0  0  0
   22.8802  -21.2269   -8.1492 O   0  0  0  0  0  0  0  0  0  0  0  0
   24.7810  -21.9828   -9.0911 O   0  0  0  0  0  0  0  0  0  0  0  0
  1  2  1  0
  3  5  1  0
  3  2  1  0
  3  4  1  6
  5  6  1  1
  7  8  2  0
  7  5  1  0
  9  7  1  0
 10  9  1  0
 10 11  1  1
 11 12  1  0
 12 17  2  0
 12 13  1  0
 13 14  2  0
 14 15  1  0
 16 15  2  0
 17 16  1  0
 18 19  2  0
 18 10  1  0
 21 20  1  6
 22 21  1  0
 23 21  1  0
 23 24  1  6
 24 18  1  0
 25 23  1  0
 26 25  1  0
 27 25  2  0
M  END
$$$$
