IFV.pdb
     RDKit          3D

 27 27  0  0  1  0  0  0  0  0999 V2000
   28.7609  -18.8266  -18.9592 C   0  0  0  0  0  0  0  0  0  0  0  0
   27.8354  -19.9938  -19.1637 C   0  0  0  0  0  0  0  0  0  0  0  0
   27.0034  -20.3338  -17.9662 C   0  0  2  0  0  0  0  0  0  0  0  0
   26.2807  -19.1336  -17.3993 C   0  0  0  0  0  0  0  0  0  0  0  0
   27.8713  -20.9087  -16.8788 C   0  0  2  0  0  0  0  0  0  0  0  0
   28.4972  -22.1110  -17.3868 N   0  0  0  0  0  0  0  0  0  0  0  0
   27.1432  -21.2207  -15.6519 C   0  0  0  0  0  0  0  0  0  0  0  0
   26.2583  -22.1111  -15.6668 O   0  0  0  0  0  0  0  0  0  0  0  0
   27.3706  -20.5710  -14.4071 N   0  0  0  0  0  0  0  0  0  0  0  0
   26.5780  -20.8636  -13.2387 C   0  0  1  0  0  0  0  0  0  0  0  0
   27.3300  -20.2997  -12.0525 C   0  0  0  0  0  0  0  0  0  0  0  0
   26.5877  -20.4556  -10.7930 C   0  0  0  0  0  0  0  0  0  0  0  0
   26.1804  -21.7100  -10.3992 C   0  0  0  0  0  0  0  0  0  0  0  0
   25.4897  -21.8330   -9.2184 C   0  0  0  0  0  0  0  0  0  0  0  0
   25.2147  -20.7111   -8.4488 C   0  0  0  0  0  0  0  0  0  0  0  0
   25.6345  -19.4524   -8.8635 C   0  0  0  0  0  0  0  0  0  0  0  0
   26.3290  -19.3138  -10.0470 C   0  0  0  0  0  0  0  0  0  0  0  0
   25.2259  -20.2833  -13.3660 C   0  0  0  0  0  0  0  0  0  0  0  0
   25.1088  -19.0722  -13.6863 O   0  0  0  0  0  0  0  0  0  0  0  0
   20.6624  -20.1404  -14.6336 C   0  0  0  0  0  0  0  0  0  0  0  0
   22.0719  -20.7041  -14.5664 C   0  0  1  0  0  0  0  0  0  0  0  0
   22.8527  -20.1296  -15.7021 C   0  0  0  0  0  0  0  0  0  0  0  0
   22.7052  -20.4430  -13.2197 C   0  0  2  0  0  0  0  0  0  0  0  0
   24.0362  -21.0098  -13.1487 N   0  0  0  0  0  0  0  0  0  0  0  0
   21.8522  -20.8418  -12.1006 C   0  0  0  0  0  0  0  0  0  0  0  0
   21.0811  -19.9482  -11.3425 O   0  0  0  0  0  0  0  0  0  0  0  0
   21.7737  -22.0500  -11.7606 O   0  0  0  0  0  0  0  0  0  0  0  0
  1  2  1  0
  3  5  1  0
  3  2  1  0
  3  4  1  1
  5  6  1  6
  7  8  2  0
  7  5  1  0
  9  7  1  0
 10  9  1  0
 10 11  1  1
 11 12  1  0
 12 17  2  0
 12 13  1  0
 13 14  2  0
 14 15  1  0
 16 15  2  0
 17 16  1  0
 18 19  2  0
 18 10  1  0
 21 20  1  1
 22 21  1  0
 23 21  1  0
 23 24  1  6
 24 18  1  0
 25 23  1  0
 26 25  1  0
 27 25  2  0
M  END
$$$$
