IFV.pdb
     RDKit          3D

 27 27  0  0  1  0  0  0  0  0999 V2000
   23.3524  -20.2823  -14.0884 C   0  0  0  0  0  0  0  0  0  0  0  0
   24.7802  -20.5302  -13.6875 C   0  0  0  0  0  0  0  0  0  0  0  0
   24.9697  -20.7950  -12.2261 C   0  0  2  0  0  0  0  0  0  0  0  0
   24.4085  -19.6931  -11.3569 C   0  0  0  0  0  0  0  0  0  0  0  0
   26.4350  -20.9336  -11.9105 C   0  0  2  0  0  0  0  0  0  0  0  0
   26.9542  -22.0610  -12.6552 N   0  0  0  0  0  0  0  0  0  0  0  0
   26.7129  -21.1202  -10.4890 C   0  0  0  0  0  0  0  0  0  0  0  0
   26.4862  -22.2337   -9.9551 O   0  0  0  0  0  0  0  0  0  0  0  0
   27.2364  -20.1040   -9.6425 N   0  0  0  0  0  0  0  0  0  0  0  0
   27.4542  -20.3226   -8.2340 C   0  0  1  0  0  0  0  0  0  0  0  0
   28.6073  -19.4294   -7.8301 C   0  0  0  0  0  0  0  0  0  0  0  0
   28.8686  -19.4717   -6.3838 C   0  0  0  0  0  0  0  0  0  0  0  0
   29.4895  -20.5736   -5.8409 C   0  0  0  0  0  0  0  0  0  0  0  0
   29.7254  -20.5914   -4.4880 C   0  0  0  0  0  0  0  0  0  0  0  0
   29.3418  -19.5174   -3.6968 C   0  0  0  0  0  0  0  0  0  0  0  0
   28.7157  -18.4132   -4.2638 C   0  0  0  0  0  0  0  0  0  0  0  0
   28.4725  -18.3815   -5.6211 C   0  0  0  0  0  0  0  0  0  0  0  0
   26.2284  -20.0294   -7.4642 C   0  0  0  0  0  0  0  0  0  0  0  0
   25.3895  -19.2196   -7.9370 O   0  0  0  0  0  0  0  0  0  0  0  0
   22.4027  -21.9844   -6.1727 C   0  0  0  0  0  0  0  0  0  0  0  0
   23.8222  -21.7533   -6.6634 C   0  0  1  0  0  0  0  0  0  0  0  0
   23.7472  -21.2162   -8.0546 C   0  0  0  0  0  0  0  0  0  0  0  0
   24.5904  -20.8553   -5.7220 C   0  0  2  0  0  0  0  0  0  0  0  0
   25.9306  -20.6075   -6.2123 N   0  0  0  0  0  0  0  0  0  0  0  0
   24.5646  -21.3246   -4.3370 C   0  0  0  0  0  0  0  0  0  0  0  0
   25.6798  -21.8420   -3.6614 O   0  0  0  0  0  0  0  0  0  0  0  0
   23.4988  -21.2808   -3.6710 O   0  0  0  0  0  0  0  0  0  0  0  0
  1  2  1  0
  3  5  1  0
  3  2  1  0
  3  4  1  1
  5  6  1  6
  7  8  2  0
  7  5  1  0
  9  7  1  0
 10  9  1  0
 10 11  1  1
 11 12  1  0
 12 17  2  0
 12 13  1  0
 13 14  2  0
 14 15  1  0
 16 15  2  0
 17 16  1  0
 18 19  2  0
 18 10  1  0
 21 20  1  1
 22 21  1  0
 23 21  1  0
 23 24  1  6
 24 18  1  0
 25 23  1  0
 26 25  1  0
 27 25  2  0
M  END
$$$$
