IFV.pdb
     RDKit          3D

 27 27  0  0  1  0  0  0  0  0999 V2000
   18.1598  -13.3747  -21.5416 C   0  0  0  0  0  0  0  0  0  0  0  0
   19.3181  -13.0254  -20.6490 C   0  0  0  0  0  0  0  0  0  0  0  0
   19.0241  -11.9416  -19.6586 C   0  0  2  0  0  0  0  0  0  0  0  0
   18.6354  -10.6389  -20.3191 C   0  0  0  0  0  0  0  0  0  0  0  0
   20.2329  -11.6832  -18.7994 C   0  0  2  0  0  0  0  0  0  0  0  0
   20.5545  -12.9040  -18.0912 N   0  0  0  0  0  0  0  0  0  0  0  0
   20.0480  -10.5984  -17.8394 C   0  0  0  0  0  0  0  0  0  0  0  0
   19.3685  -10.7983  -16.8028 O   0  0  0  0  0  0  0  0  0  0  0  0
   20.5973   -9.2959  -17.9982 N   0  0  0  0  0  0  0  0  0  0  0  0
   20.4461   -8.2768  -16.9894 C   0  0  1  0  0  0  0  0  0  0  0  0
   21.8350   -7.9676  -16.4741 C   0  0  0  0  0  0  0  0  0  0  0  0
   22.3434   -9.0119  -15.5726 C   0  0  0  0  0  0  0  0  0  0  0  0
   23.2568   -9.9269  -16.0449 C   0  0  0  0  0  0  0  0  0  0  0  0
   23.7197  -10.8929  -15.1853 C   0  0  0  0  0  0  0  0  0  0  0  0
   23.2694  -10.9355  -13.8730 C   0  0  0  0  0  0  0  0  0  0  0  0
   22.3464  -10.0025  -13.4145 C   0  0  0  0  0  0  0  0  0  0  0  0
   21.8729   -9.0267  -14.2666 C   0  0  0  0  0  0  0  0  0  0  0  0
   19.7827   -7.0820  -17.5493 C   0  0  0  0  0  0  0  0  0  0  0  0
   20.1831   -6.6202  -18.6491 O   0  0  0  0  0  0  0  0  0  0  0  0
   16.1367   -6.7014  -18.3532 C   0  0  0  0  0  0  0  0  0  0  0  0
   16.5138   -5.5105  -17.4878 C   0  0  1  0  0  0  0  0  0  0  0  0
   15.9570   -5.7391  -16.1214 C   0  0  0  0  0  0  0  0  0  0  0  0
   18.0071   -5.2808  -17.4886 C   0  0  2  0  0  0  0  0  0  0  0  0
   18.7109   -6.4128  -16.9218 N   0  0  0  0  0  0  0  0  0  0  0  0
   18.3891   -4.0062  -16.8815 C   0  0  0  0  0  0  0  0  0  0  0  0
   18.2439   -2.7609  -17.5108 O   0  0  0  0  0  0  0  0  0  0  0  0
   18.8826   -3.9758  -15.7253 O   0  0  0  0  0  0  0  0  0  0  0  0
  1  2  1  0
  3  5  1  0
  3  2  1  0
  3  4  1  6
  5  6  1  1
  7  8  2  0
  7  5  1  0
  9  7  1  0
 10  9  1  0
 10 11  1  6
 11 12  1  0
 12 17  2  0
 12 13  1  0
 13 14  2  0
 14 15  1  0
 16 15  2  0
 17 16  1  0
 18 19  2  0
 18 10  1  0
 21 20  1  6
 22 21  1  0
 23 21  1  0
 23 24  1  1
 24 18  1  0
 25 23  1  0
 26 25  1  0
 27 25  2  0
M  END
$$$$
