IFV.pdb
     RDKit          3D

 27 27  0  0  1  0  0  0  0  0999 V2000
   27.9906  -20.5815   -8.2686 C   0  0  0  0  0  0  0  0  0  0  0  0
   27.7637  -21.0753   -9.6705 C   0  0  0  0  0  0  0  0  0  0  0  0
   26.5399  -20.5159  -10.3271 C   0  0  2  0  0  0  0  0  0  0  0  0
   25.2671  -20.8932   -9.6045 C   0  0  0  0  0  0  0  0  0  0  0  0
   26.4359  -21.0182  -11.7424 C   0  0  2  0  0  0  0  0  0  0  0  0
   27.7213  -20.8374  -12.3828 N   0  0  0  0  0  0  0  0  0  0  0  0
   25.4029  -20.3479  -12.5273 C   0  0  0  0  0  0  0  0  0  0  0  0
   25.2671  -19.1031  -12.4370 O   0  0  0  0  0  0  0  0  0  0  0  0
   24.5153  -21.0219  -13.4112 N   0  0  0  0  0  0  0  0  0  0  0  0
   23.4587  -20.3285  -14.1054 C   0  0  1  0  0  0  0  0  0  0  0  0
   23.6099  -20.6661  -15.5729 C   0  0  0  0  0  0  0  0  0  0  0  0
   22.6183  -19.9768  -16.4114 C   0  0  0  0  0  0  0  0  0  0  0  0
   22.7666  -18.6325  -16.6673 C   0  0  0  0  0  0  0  0  0  0  0  0
   21.8295  -18.0088  -17.4542 C   0  0  0  0  0  0  0  0  0  0  0  0
   20.7621  -18.7279  -17.9738 C   0  0  0  0  0  0  0  0  0  0  0  0
   20.6294  -20.0853  -17.7041 C   0  0  0  0  0  0  0  0  0  0  0  0
   21.5628  -20.7247  -16.9153 C   0  0  0  0  0  0  0  0  0  0  0  0
   22.1380  -20.7259  -13.5773 C   0  0  0  0  0  0  0  0  0  0  0  0
   21.9514  -21.9228  -13.2369 O   0  0  0  0  0  0  0  0  0  0  0  0
   18.0756  -19.9189  -11.0872 C   0  0  0  0  0  0  0  0  0  0  0  0
   19.4601  -19.5555  -11.5973 C   0  0  1  0  0  0  0  0  0  0  0  0
   20.4502  -19.9149  -10.5391 C   0  0  0  0  0  0  0  0  0  0  0  0
   19.7473  -20.2147  -12.9261 C   0  0  2  0  0  0  0  0  0  0  0  0
   21.0530  -19.8368  -13.4264 N   0  0  0  0  0  0  0  0  0  0  0  0
   18.6791  -20.0156  -13.9051 C   0  0  0  0  0  0  0  0  0  0  0  0
   17.7499  -21.0024  -14.2665 O   0  0  0  0  0  0  0  0  0  0  0  0
   18.5467  -18.9073  -14.4844 O   0  0  0  0  0  0  0  0  0  0  0  0
  1  2  1  0
  3  5  1  0
  3  2  1  0
  3  4  1  1
  5  6  1  6
  7  8  2  0
  7  5  1  0
  9  7  1  0
 10  9  1  0
 10 11  1  6
 11 12  1  0
 12 17  2  0
 12 13  1  0
 13 14  2  0
 14 15  1  0
 16 15  2  0
 17 16  1  0
 18 19  2  0
 18 10  1  0
 21 20  1  1
 22 21  1  0
 23 21  1  0
 23 24  1  6
 24 18  1  0
 25 23  1  0
 26 25  1  0
 27 25  2  0
M  END
$$$$
