VGK.pdb
     RDKit          3D

 21 20  0  0  1  0  0  0  0  0999 V2000
   28.0874  -17.0323  -19.6239 C   0  0  0  0  0  0  0  0  0  0  0  0
   27.8476  -18.2490  -18.7719 C   0  0  2  0  0  0  0  0  0  0  0  0
   26.9870  -19.2742  -19.4692 C   0  0  0  0  0  0  0  0  0  0  0  0
   27.1924  -17.7616  -17.4747 C   0  0  2  0  0  0  0  0  0  0  0  0
   28.0646  -16.7336  -16.9475 N   0  0  0  0  0  0  0  0  0  0  0  0
   27.1378  -18.9247  -16.5556 C   0  0  0  0  0  0  0  0  0  0  0  0
   26.3381  -19.8666  -16.7165 O   0  0  0  0  0  0  0  0  0  0  0  0
   28.0314  -18.9668  -15.4490 N   0  0  0  0  0  0  0  0  0  0  0  0
   28.0501  -20.0626  -14.5139 C   0  0  0  0  0  0  0  0  0  0  0  0
   26.9887  -19.8710  -13.5022 C   0  0  0  0  0  0  0  0  0  0  0  0
   26.9914  -18.8361  -12.8058 O   0  0  0  0  0  0  0  0  0  0  0  0
   25.9658  -20.8155  -13.2895 N   0  0  0  0  0  0  0  0  0  0  0  0
   25.0005  -20.5593  -12.2442 C   0  0  1  0  0  0  0  0  0  0  0  0
   23.6571  -20.9290  -12.8485 C   0  0  0  0  0  0  0  0  0  0  0  0
   22.5013  -20.7933  -11.9265 C   0  0  0  0  0  0  0  0  0  0  0  0
   21.1623  -21.1237  -12.4764 C   0  0  0  0  0  0  0  0  0  0  0  0
   20.0579  -20.7914  -11.5214 C   0  0  0  0  0  0  0  0  0  0  0  0
   18.7402  -21.0855  -11.9750 N   0  0  0  0  0  0  0  0  0  0  0  0
   25.2418  -21.4476  -11.0774 C   0  0  0  0  0  0  0  0  0  0  0  0
   25.7340  -22.5879  -11.2302 O   0  0  0  0  0  0  0  0  0  0  0  0
   24.9271  -21.0327   -9.7945 O   0  0  0  0  0  0  0  0  0  0  0  0
  2  4  1  0
  2  1  1  6
  3  2  1  0
  4  6  1  0
  4  5  1  1
  6  7  2  0
  8  6  1  0
  8  9  1  0
  9 10  1  0
 10 12  1  0
 10 11  2  0
 12 13  1  0
 13 19  1  0
 13 14  1  6
 14 15  1  0
 15 16  1  0
 16 17  1  0
 17 18  1  0
 19 21  1  0
 20 19  2  0
M  END
$$$$
