VGK.pdb
     RDKit          3D

 21 20  0  0  1  0  0  0  0  0999 V2000
   16.0425  -14.1418  -15.5379 C   0  0  0  0  0  0  0  0  0  0  0  0
   16.8369  -14.9672  -16.5134 C   0  0  2  0  0  0  0  0  0  0  0  0
   16.9412  -16.4114  -16.0877 C   0  0  0  0  0  0  0  0  0  0  0  0
   18.2209  -14.3174  -16.6222 C   0  0  2  0  0  0  0  0  0  0  0  0
   18.8417  -14.4782  -15.3243 N   0  0  0  0  0  0  0  0  0  0  0  0
   18.0009  -12.8818  -16.9236 C   0  0  0  0  0  0  0  0  0  0  0  0
   17.5965  -12.4864  -18.0339 O   0  0  0  0  0  0  0  0  0  0  0  0
   18.2613  -11.9200  -15.9078 N   0  0  0  0  0  0  0  0  0  0  0  0
   18.1279  -10.5034  -16.1343 C   0  0  0  0  0  0  0  0  0  0  0  0
   19.4229   -9.8354  -15.8817 C   0  0  0  0  0  0  0  0  0  0  0  0
   20.0658  -10.1238  -14.8523 O   0  0  0  0  0  0  0  0  0  0  0  0
   19.9661   -8.8792  -16.7614 N   0  0  0  0  0  0  0  0  0  0  0  0
   21.1755   -8.1920  -16.3676 C   0  0  1  0  0  0  0  0  0  0  0  0
   21.6733   -7.5134  -17.6320 C   0  0  0  0  0  0  0  0  0  0  0  0
   22.9076   -6.7064  -17.4606 C   0  0  0  0  0  0  0  0  0  0  0  0
   23.4933   -6.1079  -18.6868 C   0  0  0  0  0  0  0  0  0  0  0  0
   24.8591   -5.5432  -18.4470 C   0  0  0  0  0  0  0  0  0  0  0  0
   25.5336   -5.0481  -19.5997 N   0  0  0  0  0  0  0  0  0  0  0  0
   20.8770   -7.1368  -15.3645 C   0  0  0  0  0  0  0  0  0  0  0  0
   21.7603   -6.7339  -14.5750 O   0  0  0  0  0  0  0  0  0  0  0  0
   19.6139   -6.5758  -15.2814 O   0  0  0  0  0  0  0  0  0  0  0  0
  2  4  1  0
  2  1  1  1
  3  2  1  0
  4  6  1  0
  4  5  1  1
  6  7  2  0
  8  6  1  0
  8  9  1  0
  9 10  1  0
 10 12  1  0
 10 11  2  0
 12 13  1  0
 13 19  1  0
 13 14  1  6
 14 15  1  0
 15 16  1  0
 16 17  1  0
 17 18  1  0
 19 21  1  0
 20 19  2  0
M  END
$$$$
