VGK.pdb
     RDKit          3D

 21 20  0  0  1  0  0  0  0  0999 V2000
   22.1469  -21.6747  -14.9050 C   0  0  0  0  0  0  0  0  0  0  0  0
   22.7962  -21.7328  -16.2610 C   0  0  2  0  0  0  0  0  0  0  0  0
   22.3114  -22.9066  -17.0767 C   0  0  0  0  0  0  0  0  0  0  0  0
   24.3093  -21.8044  -16.0271 C   0  0  2  0  0  0  0  0  0  0  0  0
   24.5568  -23.0838  -15.3966 N   0  0  0  0  0  0  0  0  0  0  0  0
   24.6570  -20.6919  -15.1096 C   0  0  0  0  0  0  0  0  0  0  0  0
   24.5693  -19.4955  -15.4466 O   0  0  0  0  0  0  0  0  0  0  0  0
   25.1074  -21.0018  -13.7958 N   0  0  0  0  0  0  0  0  0  0  0  0
   25.4229  -19.9822  -12.8280 C   0  0  0  0  0  0  0  0  0  0  0  0
   25.7628  -20.6129  -11.5343 C   0  0  0  0  0  0  0  0  0  0  0  0
   25.5864  -21.8393  -11.3902 O   0  0  0  0  0  0  0  0  0  0  0  0
   26.2817  -19.8815  -10.4484 N   0  0  0  0  0  0  0  0  0  0  0  0
   26.3913  -20.5400   -9.1661 C   0  0  1  0  0  0  0  0  0  0  0  0
   27.0847  -19.5340   -8.2638 C   0  0  0  0  0  0  0  0  0  0  0  0
   27.3457  -20.0127   -6.8829 C   0  0  0  0  0  0  0  0  0  0  0  0
   28.0610  -19.0814   -5.9742 C   0  0  0  0  0  0  0  0  0  0  0  0
   28.3934  -19.7143   -4.6586 C   0  0  0  0  0  0  0  0  0  0  0  0
   29.0218  -18.8629   -3.7052 N   0  0  0  0  0  0  0  0  0  0  0  0
   25.0449  -20.8158   -8.6006 C   0  0  0  0  0  0  0  0  0  0  0  0
   24.0613  -20.1071   -8.9109 O   0  0  0  0  0  0  0  0  0  0  0  0
   24.8488  -21.8638   -7.7173 O   0  0  0  0  0  0  0  0  0  0  0  0
  2  4  1  0
  2  1  1  1
  3  2  1  0
  4  6  1  0
  4  5  1  1
  6  7  2  0
  8  6  1  0
  8  9  1  0
  9 10  1  0
 10 12  1  0
 10 11  2  0
 12 13  1  0
 13 19  1  0
 13 14  1  1
 14 15  1  0
 15 16  1  0
 16 17  1  0
 17 18  1  0
 19 21  1  0
 20 19  2  0
M  END
$$$$
