VGK.pdb
     RDKit          3D

 21 20  0  0  1  0  0  0  0  0999 V2000
   26.5822  -15.6082  -15.3847 C   0  0  0  0  0  0  0  0  0  0  0  0
   27.3372  -15.4856  -16.6803 C   0  0  2  0  0  0  0  0  0  0  0  0
   26.6276  -14.5975  -17.6732 C   0  0  0  0  0  0  0  0  0  0  0  0
   27.5121  -16.9059  -17.2294 C   0  0  2  0  0  0  0  0  0  0  0  0
   26.1840  -17.3690  -17.5720 N   0  0  0  0  0  0  0  0  0  0  0  0
   28.0860  -17.7244  -16.1335 C   0  0  0  0  0  0  0  0  0  0  0  0
   29.2185  -17.5084  -15.6607 O   0  0  0  0  0  0  0  0  0  0  0  0
   27.3153  -18.7960  -15.6020 N   0  0  0  0  0  0  0  0  0  0  0  0
   27.8180  -19.6724  -14.5749 C   0  0  0  0  0  0  0  0  0  0  0  0
   26.7185  -20.5165  -14.0596 C   0  0  0  0  0  0  0  0  0  0  0  0
   26.9800  -21.4297  -13.2510 O   0  0  0  0  0  0  0  0  0  0  0  0
   25.3769  -20.3318  -14.4462 N   0  0  0  0  0  0  0  0  0  0  0  0
   24.3868  -21.2662  -13.9597 C   0  0  1  0  0  0  0  0  0  0  0  0
   23.0537  -20.5648  -14.1532 C   0  0  0  0  0  0  0  0  0  0  0  0
   21.8637  -21.3850  -13.8131 C   0  0  0  0  0  0  0  0  0  0  0  0
   20.5365  -20.7374  -13.9673 C   0  0  0  0  0  0  0  0  0  0  0  0
   19.4190  -21.6098  -13.4856 C   0  0  0  0  0  0  0  0  0  0  0  0
   18.1393  -20.9889  -13.4108 N   0  0  0  0  0  0  0  0  0  0  0  0
   24.3818  -22.5026  -14.7843 C   0  0  0  0  0  0  0  0  0  0  0  0
   24.7120  -22.4704  -15.9909 O   0  0  0  0  0  0  0  0  0  0  0  0
   24.0112  -23.7185  -14.2353 O   0  0  0  0  0  0  0  0  0  0  0  0
  2  4  1  0
  2  1  1  1
  3  2  1  0
  4  6  1  0
  4  5  1  1
  6  7  2  0
  8  6  1  0
  8  9  1  0
  9 10  1  0
 10 12  1  0
 10 11  2  0
 12 13  1  0
 13 19  1  0
 13 14  1  6
 14 15  1  0
 15 16  1  0
 16 17  1  0
 17 18  1  0
 19 21  1  0
 20 19  2  0
M  END
$$$$
