VGK.pdb
     RDKit          3D

 21 20  0  0  1  0  0  0  0  0999 V2000
   25.7136  -23.3759  -15.3322 C   0  0  0  0  0  0  0  0  0  0  0  0
   24.5687  -22.4244  -15.1145 C   0  0  2  0  0  0  0  0  0  0  0  0
   24.5864  -21.2756  -16.0933 C   0  0  0  0  0  0  0  0  0  0  0  0
   24.6734  -21.9258  -13.6688 C   0  0  2  0  0  0  0  0  0  0  0  0
   24.6890  -23.1105  -12.8370 N   0  0  0  0  0  0  0  0  0  0  0  0
   23.4600  -21.1148  -13.4033 C   0  0  0  0  0  0  0  0  0  0  0  0
   23.2924  -19.9822  -13.8949 O   0  0  0  0  0  0  0  0  0  0  0  0
   22.4497  -21.6495  -12.5558 N   0  0  0  0  0  0  0  0  0  0  0  0
   21.2365  -20.9331  -12.2549 C   0  0  0  0  0  0  0  0  0  0  0  0
   20.0679  -21.7961  -12.5317 C   0  0  0  0  0  0  0  0  0  0  0  0
   20.0162  -22.4236  -13.6086 O   0  0  0  0  0  0  0  0  0  0  0  0
   19.0014  -21.9410  -11.6234 N   0  0  0  0  0  0  0  0  0  0  0  0
   17.9687  -22.9069  -11.9246 C   0  0  1  0  0  0  0  0  0  0  0  0
   17.3721  -23.2794  -10.5785 C   0  0  0  0  0  0  0  0  0  0  0  0
   18.3393  -23.8436   -9.6036 C   0  0  0  0  0  0  0  0  0  0  0  0
   17.8160  -24.1726   -8.2535 C   0  0  0  0  0  0  0  0  0  0  0  0
   18.8312  -24.8751   -7.4062 C   0  0  0  0  0  0  0  0  0  0  0  0
   18.4520  -25.1067   -6.0530 N   0  0  0  0  0  0  0  0  0  0  0  0
   16.8974  -22.2901  -12.7495 C   0  0  0  0  0  0  0  0  0  0  0  0
   16.6601  -21.0635  -12.6799 O   0  0  0  0  0  0  0  0  0  0  0  0
   16.1375  -23.0598  -13.6139 O   0  0  0  0  0  0  0  0  0  0  0  0
  2  4  1  0
  2  1  1  6
  3  2  1  0
  4  6  1  0
  4  5  1  1
  6  7  2  0
  8  6  1  0
  8  9  1  0
  9 10  1  0
 10 12  1  0
 10 11  2  0
 12 13  1  0
 13 19  1  0
 13 14  1  1
 14 15  1  0
 15 16  1  0
 16 17  1  0
 17 18  1  0
 19 21  1  0
 20 19  2  0
M  END
$$$$
