DCL.pdb
     RDKit          3D

 23 22  0  0  1  0  0  0  0  0999 V2000
   17.0818  -13.4288  -15.0493 N   0  0  0  0  0  0  0  0  0  0  0  0
   16.1432  -12.2890  -14.8560 C   0  0  1  0  0  0  0  0  0  0  0  0
   15.0337  -12.8201  -14.0119 C   0  0  0  0  0  0  0  0  0  0  0  0
   14.1244  -13.6613  -14.7705 C   0  0  0  0  0  0  0  0  0  0  0  0
   13.7007  -13.3310  -15.8910 O   0  0  0  0  0  0  0  0  0  0  0  0
   16.9441  -11.2623  -14.0979 C   0  0  0  0  0  0  0  0  0  0  0  0
   17.7952  -11.6241  -13.2722 O   0  0  0  0  0  0  0  0  0  0  0  0
   13.6743  -14.8930  -14.2801 O   0  0  0  0  0  0  0  0  0  0  0  0
   16.7548   -9.8642  -14.2999 N   0  0  0  0  0  0  0  0  0  0  0  0
   17.5021   -8.8510  -13.5848 C   0  0  1  0  0  0  0  0  0  0  0  0
   18.1417   -7.8526  -14.5279 C   0  0  0  0  0  0  0  0  0  0  0  0
   18.9458   -6.5919  -13.5190 S   0  0  0  0  0  0  0  0  0  0  0  0
   16.4876   -8.0672  -12.7888 C   0  0  0  0  0  0  0  0  0  0  0  0
   15.4321   -7.7080  -13.3887 O   0  0  0  0  0  0  0  0  0  0  0  0
   13.1660   -6.9356   -8.5389 C   0  0  0  0  0  0  0  0  0  0  0  0
   14.6212   -6.7000   -8.4182 C   0  0  1  0  0  0  0  0  0  0  0  0
   15.1011   -6.9457   -6.9714 C   0  0  0  0  0  0  0  0  0  0  0  0
   15.5483   -7.3166   -9.3637 C   0  0  0  0  0  0  0  0  0  0  0  0
   15.6542   -6.8847  -10.7730 C   0  0  2  0  0  0  0  0  0  0  0  0
   16.6635   -7.7336  -11.4577 N   0  0  0  0  0  0  0  0  0  0  0  0
   16.1157   -5.5091  -11.0037 C   0  0  0  0  0  0  0  0  0  0  0  0
   15.2871   -4.4015  -11.1402 O   0  0  0  0  0  0  0  0  0  0  0  0
   17.3791   -5.2930  -11.0953 O   0  0  0  0  0  0  0  0  0  0  0  0
  2  1  1  1
  2  3  1  0
  3  4  1  0
  4  8  1  0
  5  4  2  0
  6  2  1  0
  7  6  2  0
  9  6  1  0
 10 13  1  0
 10  9  1  0
 10 11  1  6
 12 11  1  0
 13 20  1  0
 14 13  2  0
 16 15  1  1
 16 17  1  0
 18 16  1  0
 19 18  1  1
 20 19  1  0
 21 19  1  0
 21 22  1  0
 23 21  2  0
M  END
$$$$
