DCL.pdb
     RDKit          3D

 23 22  0  0  1  0  0  0  0  0999 V2000
   24.5978  -33.9665  -11.8793 N   0  0  0  0  0  0  0  0  0  0  0  0
   25.3438  -35.1611  -11.3956 C   0  0  1  0  0  0  0  0  0  0  0  0
   26.2971  -35.5101  -12.4888 C   0  0  0  0  0  0  0  0  0  0  0  0
   25.6763  -36.3306  -13.5140 C   0  0  0  0  0  0  0  0  0  0  0  0
   26.2652  -36.6271  -14.5672 O   0  0  0  0  0  0  0  0  0  0  0  0
   26.0857  -34.6772  -10.1767 C   0  0  0  0  0  0  0  0  0  0  0  0
   27.1250  -35.2480   -9.8148 O   0  0  0  0  0  0  0  0  0  0  0  0
   24.3774  -36.8335  -13.3719 O   0  0  0  0  0  0  0  0  0  0  0  0
   25.6267  -33.5665   -9.4107 N   0  0  0  0  0  0  0  0  0  0  0  0
   26.2907  -33.1017   -8.2109 C   0  0  1  0  0  0  0  0  0  0  0  0
   25.6131  -31.8771   -7.6307 C   0  0  0  0  0  0  0  0  0  0  0  0
   23.9936  -31.7325   -8.4119 S   0  0  0  0  0  0  0  0  0  0  0  0
   26.1096  -34.1923   -7.1838 C   0  0  0  0  0  0  0  0  0  0  0  0
   25.0074  -34.8153   -7.1879 O   0  0  0  0  0  0  0  0  0  0  0  0
   28.5589  -39.1457   -5.4985 C   0  0  0  0  0  0  0  0  0  0  0  0
   27.5093  -38.1195   -5.3171 C   0  0  1  0  0  0  0  0  0  0  0  0
   26.7890  -38.3011   -3.9636 C   0  0  0  0  0  0  0  0  0  0  0  0
   27.8137  -36.7077   -5.5357 C   0  0  0  0  0  0  0  0  0  0  0  0
   26.8278  -35.6333   -5.2958 C   0  0  2  0  0  0  0  0  0  0  0  0
   27.0809  -34.5297   -6.2582 N   0  0  0  0  0  0  0  0  0  0  0  0
   26.8716  -34.9865   -3.9774 C   0  0  0  0  0  0  0  0  0  0  0  0
   26.1541  -35.4002   -2.8611 O   0  0  0  0  0  0  0  0  0  0  0  0
   27.6203  -33.9533   -3.8254 O   0  0  0  0  0  0  0  0  0  0  0  0
  2  1  1  6
  2  3  1  0
  3  4  1  0
  4  8  1  0
  5  4  2  0
  6  2  1  0
  7  6  2  0
  9  6  1  0
 10 13  1  0
 10  9  1  0
 10 11  1  1
 12 11  1  0
 13 20  1  0
 14 13  2  0
 16 15  1  1
 16 17  1  0
 18 16  1  0
 19 18  1  1
 20 19  1  0
 21 19  1  0
 21 22  1  0
 23 21  2  0
M  END
$$$$
