DCL.pdb
     RDKit          3D

 23 22  0  0  1  0  0  0  0  0999 V2000
   16.7722  -11.3208  -18.0442 N   0  0  0  0  0  0  0  0  0  0  0  0
   16.6181  -10.8402  -16.6433 C   0  0  1  0  0  0  0  0  0  0  0  0
   17.3433  -11.8309  -15.7958 C   0  0  0  0  0  0  0  0  0  0  0  0
   16.5993  -13.0692  -15.6447 C   0  0  0  0  0  0  0  0  0  0  0  0
   17.1510  -14.1810  -15.7042 O   0  0  0  0  0  0  0  0  0  0  0  0
   17.3185   -9.5064  -16.6205 C   0  0  0  0  0  0  0  0  0  0  0  0
   18.3126   -9.3144  -17.3360 O   0  0  0  0  0  0  0  0  0  0  0  0
   15.2169  -13.0784  -15.4233 O   0  0  0  0  0  0  0  0  0  0  0  0
   16.8708   -8.4378  -15.7904 N   0  0  0  0  0  0  0  0  0  0  0  0
   17.4819   -7.1251  -15.7887 C   0  0  1  0  0  0  0  0  0  0  0  0
   16.5418   -6.0672  -15.2480 C   0  0  0  0  0  0  0  0  0  0  0  0
   17.4492   -4.5090  -15.1999 S   0  0  0  0  0  0  0  0  0  0  0  0
   18.6235   -7.1968  -14.8045 C   0  0  0  0  0  0  0  0  0  0  0  0
   18.5763   -8.1085  -13.9272 O   0  0  0  0  0  0  0  0  0  0  0  0
   22.6106   -8.9974  -12.5085 C   0  0  0  0  0  0  0  0  0  0  0  0
   22.7295   -8.4061  -13.8590 C   0  0  1  0  0  0  0  0  0  0  0  0
   23.4329   -9.3812  -14.8276 C   0  0  0  0  0  0  0  0  0  0  0  0
   21.5640   -7.8110  -14.5079 C   0  0  0  0  0  0  0  0  0  0  0  0
   20.8893   -6.6049  -13.9843 C   0  0  2  0  0  0  0  0  0  0  0  0
   19.6961   -6.3232  -14.8240 N   0  0  0  0  0  0  0  0  0  0  0  0
   21.6624   -5.3560  -14.0160 C   0  0  0  0  0  0  0  0  0  0  0  0
   22.5480   -4.9402  -13.0288 O   0  0  0  0  0  0  0  0  0  0  0  0
   21.5184   -4.5706  -15.0228 O   0  0  0  0  0  0  0  0  0  0  0  0
  2  1  1  6
  2  3  1  0
  3  4  1  0
  4  8  1  0
  5  4  2  0
  6  2  1  0
  7  6  2  0
  9  6  1  0
 10 13  1  0
 10  9  1  0
 10 11  1  1
 12 11  1  0
 13 20  1  0
 14 13  2  0
 16 15  1  1
 16 17  1  0
 18 16  1  0
 19 18  1  6
 20 19  1  0
 21 19  1  0
 21 22  1  0
 23 21  2  0
M  END
$$$$
