DCL.pdb
     RDKit          3D

 23 22  0  0  1  0  0  0  0  0999 V2000
   17.6255  -12.3862  -16.2286 N   0  0  0  0  0  0  0  0  0  0  0  0
   18.1506  -11.4051  -17.2182 C   0  0  1  0  0  0  0  0  0  0  0  0
   16.9713  -10.9780  -18.0260 C   0  0  0  0  0  0  0  0  0  0  0  0
   16.5812  -11.9846  -18.9979 C   0  0  0  0  0  0  0  0  0  0  0  0
   17.4142  -12.7134  -19.5626 O   0  0  0  0  0  0  0  0  0  0  0  0
   18.6656  -10.2620  -16.3826 C   0  0  0  0  0  0  0  0  0  0  0  0
   17.9714   -9.8014  -15.4645 O   0  0  0  0  0  0  0  0  0  0  0  0
   15.2424  -12.1893  -19.3527 O   0  0  0  0  0  0  0  0  0  0  0  0
   19.9459   -9.6803  -16.6145 N   0  0  0  0  0  0  0  0  0  0  0  0
   20.4923   -8.6148  -15.8004 C   0  0  1  0  0  0  0  0  0  0  0  0
   21.9948   -8.7365  -15.6482 C   0  0  0  0  0  0  0  0  0  0  0  0
   22.3428   -9.0016  -13.8982 S   0  0  0  0  0  0  0  0  0  0  0  0
   20.2633   -7.3390  -16.5730 C   0  0  0  0  0  0  0  0  0  0  0  0
   20.4791   -7.3698  -17.8202 O   0  0  0  0  0  0  0  0  0  0  0  0
   18.2568   -3.6547  -19.5560 C   0  0  0  0  0  0  0  0  0  0  0  0
   17.7248   -3.9025  -18.1984 C   0  0  1  0  0  0  0  0  0  0  0  0
   16.1826   -3.9756  -18.2156 C   0  0  0  0  0  0  0  0  0  0  0  0
   18.2673   -4.9846  -17.3807 C   0  0  0  0  0  0  0  0  0  0  0  0
   19.6341   -4.9516  -16.8198 C   0  0  2  0  0  0  0  0  0  0  0  0
   19.8359   -6.1628  -15.9830 N   0  0  0  0  0  0  0  0  0  0  0  0
   19.9473   -3.8307  -15.9230 C   0  0  0  0  0  0  0  0  0  0  0  0
   20.5252   -2.6299  -16.3179 O   0  0  0  0  0  0  0  0  0  0  0  0
   19.6794   -3.9525  -14.6721 O   0  0  0  0  0  0  0  0  0  0  0  0
  2  1  1  1
  2  3  1  0
  3  4  1  0
  4  8  1  0
  5  4  2  0
  6  2  1  0
  7  6  2  0
  9  6  1  0
 10 13  1  0
 10  9  1  0
 10 11  1  6
 12 11  1  0
 13 20  1  0
 14 13  2  0
 16 15  1  6
 16 17  1  0
 18 16  1  0
 19 18  1  1
 20 19  1  0
 21 19  1  0
 21 22  1  0
 23 21  2  0
M  END
$$$$
