DCL.pdb
     RDKit          3D

 23 22  0  0  1  0  0  0  0  0999 V2000
   16.6833  -15.0123  -17.3050 N   0  0  0  0  0  0  0  0  0  0  0  0
   17.1970  -14.1845  -16.1788 C   0  0  1  0  0  0  0  0  0  0  0  0
   17.8774  -15.1387  -15.2556 C   0  0  0  0  0  0  0  0  0  0  0  0
   16.9290  -15.9199  -14.4810 C   0  0  0  0  0  0  0  0  0  0  0  0
   17.1272  -17.1160  -14.2085 O   0  0  0  0  0  0  0  0  0  0  0  0
   18.1975  -13.2556  -16.8162 C   0  0  0  0  0  0  0  0  0  0  0  0
   18.9471  -13.6702  -17.7124 O   0  0  0  0  0  0  0  0  0  0  0  0
   15.7367  -15.3674  -13.9978 O   0  0  0  0  0  0  0  0  0  0  0  0
   18.3151  -11.8921  -16.4183 N   0  0  0  0  0  0  0  0  0  0  0  0
   19.2161  -10.9547  -17.0554 C   0  0  1  0  0  0  0  0  0  0  0  0
   18.4654   -9.8627  -17.7898 C   0  0  0  0  0  0  0  0  0  0  0  0
   17.2018   -9.2265  -16.6707 S   0  0  0  0  0  0  0  0  0  0  0  0
   19.9553  -10.2601  -15.9381 C   0  0  0  0  0  0  0  0  0  0  0  0
   19.3847  -10.2095  -14.8090 O   0  0  0  0  0  0  0  0  0  0  0  0
   25.4329  -10.4898  -14.9458 C   0  0  0  0  0  0  0  0  0  0  0  0
   23.9687  -10.3722  -14.7728 C   0  0  1  0  0  0  0  0  0  0  0  0
   23.5309  -10.9161  -13.3957 C   0  0  0  0  0  0  0  0  0  0  0  0
   23.2937   -9.1063  -15.0477 C   0  0  0  0  0  0  0  0  0  0  0  0
   21.8262   -8.9515  -14.9667 C   0  0  2  0  0  0  0  0  0  0  0  0
   21.2054   -9.6892  -16.0974 N   0  0  0  0  0  0  0  0  0  0  0  0
   21.3039   -7.5839  -15.0912 C   0  0  0  0  0  0  0  0  0  0  0  0
   21.2485   -6.6537  -14.0599 O   0  0  0  0  0  0  0  0  0  0  0  0
   20.8533   -7.2006  -16.2319 O   0  0  0  0  0  0  0  0  0  0  0  0
  2  1  1  6
  2  3  1  0
  3  4  1  0
  4  8  1  0
  5  4  2  0
  6  2  1  0
  7  6  2  0
  9  6  1  0
 10 13  1  0
 10  9  1  0
 10 11  1  1
 12 11  1  0
 13 20  1  0
 14 13  2  0
 16 15  1  1
 16 17  1  0
 18 16  1  0
 19 18  1  6
 20 19  1  0
 21 19  1  0
 21 22  1  0
 23 21  2  0
M  END
$$$$
