DCL.pdb
     RDKit          3D

 23 22  0  0  1  0  0  0  0  0999 V2000
   22.6339  -20.6979  -13.5988 N   0  0  0  0  0  0  0  0  0  0  0  0
   22.4528  -20.3472  -12.1629 C   0  0  1  0  0  0  0  0  0  0  0  0
   21.1388  -20.9328  -11.7681 C   0  0  0  0  0  0  0  0  0  0  0  0
   20.0214  -20.2106  -12.3510 C   0  0  0  0  0  0  0  0  0  0  0  0
   19.8212  -19.0066  -12.1178 O   0  0  0  0  0  0  0  0  0  0  0  0
   23.5826  -21.0495  -11.4554 C   0  0  0  0  0  0  0  0  0  0  0  0
   23.4913  -22.2558  -11.1839 O   0  0  0  0  0  0  0  0  0  0  0  0
   19.1065  -20.8324  -13.2092 O   0  0  0  0  0  0  0  0  0  0  0  0
   24.7745  -20.3640  -11.0800 N   0  0  0  0  0  0  0  0  0  0  0  0
   25.9270  -21.0303  -10.5106 C   0  0  1  0  0  0  0  0  0  0  0  0
   27.1909  -20.7357  -11.2924 C   0  0  0  0  0  0  0  0  0  0  0  0
   27.1824  -18.9773  -11.6942 S   0  0  0  0  0  0  0  0  0  0  0  0
   26.1367  -20.4129   -9.1497 C   0  0  0  0  0  0  0  0  0  0  0  0
   25.6132  -19.2792   -8.9405 O   0  0  0  0  0  0  0  0  0  0  0  0
   27.7157  -20.2769   -3.6549 C   0  0  0  0  0  0  0  0  0  0  0  0
   28.6011  -20.6415   -4.7821 C   0  0  1  0  0  0  0  0  0  0  0  0
   29.7241  -21.5929   -4.3154 C   0  0  0  0  0  0  0  0  0  0  0  0
   28.0333  -21.1183   -6.0407 C   0  0  0  0  0  0  0  0  0  0  0  0
   27.1962  -20.2663   -6.9109 C   0  0  2  0  0  0  0  0  0  0  0  0
   26.8634  -21.0253   -8.1443 N   0  0  0  0  0  0  0  0  0  0  0  0
   27.8116  -19.0249   -7.3998 C   0  0  0  0  0  0  0  0  0  0  0  0
   28.6837  -18.9374   -8.4785 O   0  0  0  0  0  0  0  0  0  0  0  0
   27.5399  -17.9252   -6.7932 O   0  0  0  0  0  0  0  0  0  0  0  0
  2  1  1  6
  2  3  1  0
  3  4  1  0
  4  8  1  0
  5  4  2  0
  6  2  1  0
  7  6  2  0
  9  6  1  0
 10 13  1  0
 10  9  1  0
 10 11  1  6
 12 11  1  0
 13 20  1  0
 14 13  2  0
 16 15  1  1
 16 17  1  0
 18 16  1  0
 19 18  1  1
 20 19  1  0
 21 19  1  0
 21 22  1  0
 23 21  2  0
M  END
$$$$
