DCL.pdb
     RDKit          3D

 23 22  0  0  1  0  0  0  0  0999 V2000
   26.0408  -37.1984  -15.9981 N   0  0  0  0  0  0  0  0  0  0  0  0
   26.8338  -36.7859  -14.8071 C   0  0  1  0  0  0  0  0  0  0  0  0
   26.9342  -35.2995  -14.8855 C   0  0  0  0  0  0  0  0  0  0  0  0
   25.6396  -34.6747  -15.0943 C   0  0  0  0  0  0  0  0  0  0  0  0
   24.6003  -35.3417  -15.2319 O   0  0  0  0  0  0  0  0  0  0  0  0
   25.9922  -37.2011  -13.6284 C   0  0  0  0  0  0  0  0  0  0  0  0
   24.9969  -37.9205  -13.7983 O   0  0  0  0  0  0  0  0  0  0  0  0
   25.4913  -33.2837  -15.1525 O   0  0  0  0  0  0  0  0  0  0  0  0
   26.3050  -36.7887  -12.3005 N   0  0  0  0  0  0  0  0  0  0  0  0
   25.5550  -37.2185  -11.1389 C   0  0  1  0  0  0  0  0  0  0  0  0
   25.7459  -38.6954  -10.8603 C   0  0  0  0  0  0  0  0  0  0  0  0
   24.8604  -39.0785   -9.3362 S   0  0  0  0  0  0  0  0  0  0  0  0
   26.1627  -36.4997   -9.9594 C   0  0  0  0  0  0  0  0  0  0  0  0
   27.4177  -36.5828   -9.8137 O   0  0  0  0  0  0  0  0  0  0  0  0
   24.8027  -31.3060   -8.6970 C   0  0  0  0  0  0  0  0  0  0  0  0
   25.5206  -32.5850   -8.8882 C   0  0  1  0  0  0  0  0  0  0  0  0
   27.0089  -32.3378   -9.2165 C   0  0  0  0  0  0  0  0  0  0  0  0
   25.3977  -33.6537   -7.9000 C   0  0  0  0  0  0  0  0  0  0  0  0
   26.1082  -34.9431   -8.0280 C   0  0  2  0  0  0  0  0  0  0  0  0
   25.4170  -35.7694   -9.0514 N   0  0  0  0  0  0  0  0  0  0  0  0
   26.1410  -35.7946   -6.8311 C   0  0  0  0  0  0  0  0  0  0  0  0
   26.9957  -35.6183   -5.7493 O   0  0  0  0  0  0  0  0  0  0  0  0
   25.3288  -36.7880   -6.7623 O   0  0  0  0  0  0  0  0  0  0  0  0
  2  1  1  6
  2  3  1  0
  3  4  1  0
  4  8  1  0
  5  4  2  0
  6  2  1  0
  7  6  2  0
  9  6  1  0
 10 13  1  0
 10  9  1  0
 10 11  1  1
 12 11  1  0
 13 20  1  0
 14 13  2  0
 16 15  1  1
 16 17  1  0
 18 16  1  0
 19 18  1  1
 20 19  1  0
 21 19  1  0
 21 22  1  0
 23 21  2  0
M  END
$$$$
