DCL.pdb
     RDKit          3D

 23 22  0  0  1  0  0  0  0  0999 V2000
   18.8578  -12.7092  -16.0741 N   0  0  0  0  0  0  0  0  0  0  0  0
   18.7148  -11.4683  -16.8847 C   0  0  1  0  0  0  0  0  0  0  0  0
   17.3162  -11.4853  -17.4035 C   0  0  0  0  0  0  0  0  0  0  0  0
   17.1322  -12.4798  -18.4461 C   0  0  0  0  0  0  0  0  0  0  0  0
   17.8089  -12.4752  -19.4882 O   0  0  0  0  0  0  0  0  0  0  0  0
   18.9025  -10.3461  -15.8969 C   0  0  0  0  0  0  0  0  0  0  0  0
   18.2251  -10.3122  -14.8591 O   0  0  0  0  0  0  0  0  0  0  0  0
   16.1802  -13.5003  -18.3341 O   0  0  0  0  0  0  0  0  0  0  0  0
   19.8483   -9.3029  -16.1170 N   0  0  0  0  0  0  0  0  0  0  0  0
   20.0630   -8.2169  -15.1837 C   0  0  1  0  0  0  0  0  0  0  0  0
   21.5353   -8.0051  -14.8955 C   0  0  0  0  0  0  0  0  0  0  0  0
   21.9757   -9.0730  -13.5102 S   0  0  0  0  0  0  0  0  0  0  0  0
   19.6014   -6.9641  -15.8868 C   0  0  0  0  0  0  0  0  0  0  0  0
   20.0154   -6.7764  -17.0686 O   0  0  0  0  0  0  0  0  0  0  0  0
   14.4869   -5.4966  -16.1581 C   0  0  0  0  0  0  0  0  0  0  0  0
   15.9227   -5.6027  -16.4967 C   0  0  1  0  0  0  0  0  0  0  0  0
   16.1224   -5.7082  -18.0241 C   0  0  0  0  0  0  0  0  0  0  0  0
   16.8847   -4.6604  -15.9308 C   0  0  0  0  0  0  0  0  0  0  0  0
   18.3458   -4.8319  -16.0714 C   0  0  2  0  0  0  0  0  0  0  0  0
   18.7614   -6.0333  -15.3019 N   0  0  0  0  0  0  0  0  0  0  0  0
   19.1865   -3.7494  -15.5423 C   0  0  0  0  0  0  0  0  0  0  0  0
   20.0175   -3.8536  -14.4331 O   0  0  0  0  0  0  0  0  0  0  0  0
   19.1612   -2.6084  -16.1329 O   0  0  0  0  0  0  0  0  0  0  0  0
  2  1  1  1
  2  3  1  0
  3  4  1  0
  4  8  1  0
  5  4  2  0
  6  2  1  0
  7  6  2  0
  9  6  1  0
 10 13  1  0
 10  9  1  0
 10 11  1  6
 12 11  1  0
 13 20  1  0
 14 13  2  0
 16 15  1  6
 16 17  1  0
 18 16  1  0
 19 18  1  1
 20 19  1  0
 21 19  1  0
 21 22  1  0
 23 21  2  0
M  END
$$$$
