DCL.pdb
     RDKit          3D

 23 22  0  0  1  0  0  0  0  0999 V2000
   18.4494  -15.0660  -19.0491 N   0  0  0  0  0  0  0  0  0  0  0  0
   18.4911  -14.3212  -17.7603 C   0  0  1  0  0  0  0  0  0  0  0  0
   19.2686  -15.1825  -16.8226 C   0  0  0  0  0  0  0  0  0  0  0  0
   18.5244  -16.3635  -16.4210 C   0  0  0  0  0  0  0  0  0  0  0  0
   17.3596  -16.2950  -15.9939 O   0  0  0  0  0  0  0  0  0  0  0  0
   19.2498  -13.0584  -18.0763 C   0  0  0  0  0  0  0  0  0  0  0  0
   20.0342  -13.0284  -19.0359 O   0  0  0  0  0  0  0  0  0  0  0  0
   19.0798  -17.6467  -16.4930 O   0  0  0  0  0  0  0  0  0  0  0  0
   19.0952  -11.8752  -17.2969 N   0  0  0  0  0  0  0  0  0  0  0  0
   19.6673  -10.5987  -17.6707 C   0  0  1  0  0  0  0  0  0  0  0  0
   18.6449   -9.4825  -17.6050 C   0  0  0  0  0  0  0  0  0  0  0  0
   17.7153   -9.6884  -16.0729 S   0  0  0  0  0  0  0  0  0  0  0  0
   20.6929  -10.2742  -16.6124 C   0  0  0  0  0  0  0  0  0  0  0  0
   20.4479  -10.6575  -15.4308 O   0  0  0  0  0  0  0  0  0  0  0  0
   25.5104  -10.6099  -14.4059 C   0  0  0  0  0  0  0  0  0  0  0  0
   25.3865   -9.5746  -15.4549 C   0  0  1  0  0  0  0  0  0  0  0  0
   26.6677   -9.5040  -16.3136 C   0  0  0  0  0  0  0  0  0  0  0  0
   24.2061   -9.5341  -16.3143 C   0  0  0  0  0  0  0  0  0  0  0  0
   22.8397   -9.3465  -15.7835 C   0  0  2  0  0  0  0  0  0  0  0  0
   21.8649   -9.5889  -16.8785 N   0  0  0  0  0  0  0  0  0  0  0  0
   22.5078   -8.0035  -15.2886 C   0  0  0  0  0  0  0  0  0  0  0  0
   22.5628   -7.6072  -13.9575 O   0  0  0  0  0  0  0  0  0  0  0  0
   22.1295   -7.1138  -16.1351 O   0  0  0  0  0  0  0  0  0  0  0  0
  2  1  1  6
  2  3  1  0
  3  4  1  0
  4  8  1  0
  5  4  2  0
  6  2  1  0
  7  6  2  0
  9  6  1  0
 10 13  1  0
 10  9  1  0
 10 11  1  1
 12 11  1  0
 13 20  1  0
 14 13  2  0
 16 15  1  6
 16 17  1  0
 18 16  1  0
 19 18  1  6
 20 19  1  0
 21 19  1  0
 21 22  1  0
 23 21  2  0
M  END
$$$$
