DCL.pdb
     RDKit          3D

 23 22  0  0  1  0  0  0  0  0999 V2000
   21.2981  -11.9750  -19.1894 N   0  0  0  0  0  0  0  0  0  0  0  0
   20.9995  -10.5514  -19.5084 C   0  0  1  0  0  0  0  0  0  0  0  0
   19.5244  -10.4025  -19.3419 C   0  0  0  0  0  0  0  0  0  0  0  0
   18.7929  -10.8731  -20.5052 C   0  0  0  0  0  0  0  0  0  0  0  0
   19.3678  -11.3670  -21.4899 O   0  0  0  0  0  0  0  0  0  0  0  0
   21.7361   -9.7641  -18.4559 C   0  0  0  0  0  0  0  0  0  0  0  0
   21.7378  -10.1512  -17.2781 O   0  0  0  0  0  0  0  0  0  0  0  0
   17.3971  -10.7958  -20.5814 O   0  0  0  0  0  0  0  0  0  0  0  0
   22.4439   -8.5681  -18.7718 N   0  0  0  0  0  0  0  0  0  0  0  0
   23.2405   -7.8394  -17.8068 C   0  0  1  0  0  0  0  0  0  0  0  0
   24.0241   -6.7172  -18.4564 C   0  0  0  0  0  0  0  0  0  0  0  0
   25.3451   -7.4696  -19.4273 S   0  0  0  0  0  0  0  0  0  0  0  0
   22.2597   -7.1666  -16.8780 C   0  0  0  0  0  0  0  0  0  0  0  0
   21.1523   -6.8006  -17.3706 O   0  0  0  0  0  0  0  0  0  0  0  0
   19.5224   -8.2206  -11.8196 C   0  0  0  0  0  0  0  0  0  0  0  0
   19.9845   -7.1321  -12.7079 C   0  0  1  0  0  0  0  0  0  0  0  0
   20.3971   -5.8899  -11.8888 C   0  0  0  0  0  0  0  0  0  0  0  0
   20.9778   -7.3992  -13.7451 C   0  0  0  0  0  0  0  0  0  0  0  0
   21.4615   -6.3557  -14.6731 C   0  0  2  0  0  0  0  0  0  0  0  0
   22.5192   -6.9397  -15.5382 N   0  0  0  0  0  0  0  0  0  0  0  0
   22.0958   -5.1793  -14.0629 C   0  0  0  0  0  0  0  0  0  0  0  0
   23.4266   -5.1044  -13.6688 O   0  0  0  0  0  0  0  0  0  0  0  0
   21.3806   -4.1304  -13.8642 O   0  0  0  0  0  0  0  0  0  0  0  0
  2  1  1  1
  2  3  1  0
  3  4  1  0
  4  8  1  0
  5  4  2  0
  6  2  1  0
  7  6  2  0
  9  6  1  0
 10 13  1  0
 10  9  1  0
 10 11  1  6
 12 11  1  0
 13 20  1  0
 14 13  2  0
 16 15  1  1
 16 17  1  0
 18 16  1  0
 19 18  1  1
 20 19  1  0
 21 19  1  0
 21 22  1  0
 23 21  2  0
M  END
$$$$
