DCL.pdb
     RDKit          3D

 23 22  0  0  1  0  0  0  0  0999 V2000
   25.9177  -21.4195  -17.2685 N   0  0  0  0  0  0  0  0  0  0  0  0
   26.6718  -22.5282  -16.6208 C   0  0  1  0  0  0  0  0  0  0  0  0
   27.7752  -22.8699  -17.5649 C   0  0  0  0  0  0  0  0  0  0  0  0
   27.2750  -23.2634  -18.8706 C   0  0  0  0  0  0  0  0  0  0  0  0
   26.0616  -23.2669  -19.1379 O   0  0  0  0  0  0  0  0  0  0  0  0
   27.2223  -21.9239  -15.3550 C   0  0  0  0  0  0  0  0  0  0  0  0
   28.3166  -22.3014  -14.9112 O   0  0  0  0  0  0  0  0  0  0  0  0
   28.1343  -23.6614  -19.9018 O   0  0  0  0  0  0  0  0  0  0  0  0
   26.5168  -20.9154  -14.6364 N   0  0  0  0  0  0  0  0  0  0  0  0
   27.0392  -20.2768  -13.4465 C   0  0  1  0  0  0  0  0  0  0  0  0
   26.7503  -18.7896  -13.4328 C   0  0  0  0  0  0  0  0  0  0  0  0
   27.6587  -18.0481  -14.8035 S   0  0  0  0  0  0  0  0  0  0  0  0
   26.2630  -20.8531  -12.2878 C   0  0  0  0  0  0  0  0  0  0  0  0
   25.1247  -21.3465  -12.5407 O   0  0  0  0  0  0  0  0  0  0  0  0
   26.0187  -19.6115   -7.0411 C   0  0  0  0  0  0  0  0  0  0  0  0
   27.0328  -20.2710   -7.8922 C   0  0  1  0  0  0  0  0  0  0  0  0
   28.3423  -20.5049   -7.1083 C   0  0  0  0  0  0  0  0  0  0  0  0
   26.6878  -21.4666   -8.6571 C   0  0  0  0  0  0  0  0  0  0  0  0
   25.8901  -21.4151   -9.9000 C   0  0  2  0  0  0  0  0  0  0  0  0
   26.7376  -20.8624  -10.9884 N   0  0  0  0  0  0  0  0  0  0  0  0
   24.7049  -20.5469   -9.8823 C   0  0  0  0  0  0  0  0  0  0  0  0
   24.6541  -19.2550  -10.3924 O   0  0  0  0  0  0  0  0  0  0  0  0
   23.6234  -20.9959   -9.3533 O   0  0  0  0  0  0  0  0  0  0  0  0
  2  1  1  6
  2  3  1  0
  3  4  1  0
  4  8  1  0
  5  4  2  0
  6  2  1  0
  7  6  2  0
  9  6  1  0
 10 13  1  0
 10  9  1  0
 10 11  1  6
 12 11  1  0
 13 20  1  0
 14 13  2  0
 16 15  1  1
 16 17  1  0
 18 16  1  0
 19 18  1  1
 20 19  1  0
 21 19  1  0
 21 22  1  0
 23 21  2  0
M  END
$$$$
