DCL.pdb
     RDKit          3D

 23 22  0  0  1  0  0  0  0  0999 V2000
   25.0709  -19.6554  -16.1446 N   0  0  0  0  0  0  0  0  0  0  0  0
   24.0937  -19.0447  -17.0878 C   0  0  1  0  0  0  0  0  0  0  0  0
   23.0898  -20.1106  -17.3732 C   0  0  0  0  0  0  0  0  0  0  0  0
   23.6329  -21.1611  -18.2166 C   0  0  0  0  0  0  0  0  0  0  0  0
   24.2800  -20.9104  -19.2473 O   0  0  0  0  0  0  0  0  0  0  0  0
   23.4669  -17.9182  -16.3079 C   0  0  0  0  0  0  0  0  0  0  0  0
   23.0347  -18.1199  -15.1635 O   0  0  0  0  0  0  0  0  0  0  0  0
   23.4566  -22.5167  -17.9142 O   0  0  0  0  0  0  0  0  0  0  0  0
   23.3507  -16.6047  -16.8489 N   0  0  0  0  0  0  0  0  0  0  0  0
   22.8141  -15.4848  -16.1043 C   0  0  1  0  0  0  0  0  0  0  0  0
   23.5790  -14.2065  -16.3809 C   0  0  0  0  0  0  0  0  0  0  0  0
   24.4366  -13.7483  -14.8616 S   0  0  0  0  0  0  0  0  0  0  0  0
   21.4239  -15.2521  -16.6432 C   0  0  0  0  0  0  0  0  0  0  0  0
   21.2895  -15.2093  -17.9015 O   0  0  0  0  0  0  0  0  0  0  0  0
   16.5247  -17.9405  -17.2133 C   0  0  0  0  0  0  0  0  0  0  0  0
   17.1914  -16.6245  -17.3203 C   0  0  1  0  0  0  0  0  0  0  0  0
   16.1607  -15.4771  -17.2489 C   0  0  0  0  0  0  0  0  0  0  0  0
   18.3452  -16.3128  -16.4806 C   0  0  0  0  0  0  0  0  0  0  0  0
   18.9665  -14.9724  -16.4454 C   0  0  2  0  0  0  0  0  0  0  0  0
   20.3152  -15.0875  -15.8323 N   0  0  0  0  0  0  0  0  0  0  0  0
   18.2824  -13.9543  -15.6365 C   0  0  0  0  0  0  0  0  0  0  0  0
   17.4831  -12.9365  -16.1436 O   0  0  0  0  0  0  0  0  0  0  0  0
   18.4262  -13.9864  -14.3600 O   0  0  0  0  0  0  0  0  0  0  0  0
  2  1  1  1
  2  3  1  0
  3  4  1  0
  4  8  1  0
  5  4  2  0
  6  2  1  0
  7  6  2  0
  9  6  1  0
 10 13  1  0
 10  9  1  0
 10 11  1  6
 12 11  1  0
 13 20  1  0
 14 13  2  0
 16 15  1  1
 16 17  1  0
 18 16  1  0
 19 18  1  1
 20 19  1  0
 21 19  1  0
 21 22  1  0
 23 21  2  0
M  END
$$$$
