TVY.pdb
     RDKit          3D

 27 27  0  0  1  0  0  0  0  0999 V2000
    5.6622  -18.0016   23.0798 C   0  0  0  0  0  0  0  0  0  0  0  0
    5.8508  -18.9086   21.8630 C   0  0  1  0  0  0  0  0  0  0  0  0
    4.7565  -19.7734   21.8567 O   0  0  0  0  0  0  0  0  0  0  0  0
    5.7876  -18.0936   20.5997 C   0  0  2  0  0  0  0  0  0  0  0  0
    5.8039  -18.9988   19.4669 N   0  0  0  0  0  0  0  0  0  0  0  0
    6.8978  -17.1130   20.5013 C   0  0  0  0  0  0  0  0  0  0  0  0
    8.0573  -17.4966   20.2013 O   0  0  0  0  0  0  0  0  0  0  0  0
    8.6497  -12.4791   20.2943 C   0  0  0  0  0  0  0  0  0  0  0  0
    7.4442  -13.4109   20.3119 C   0  0  1  0  0  0  0  0  0  0  0  0
    6.7347  -13.4135   19.0004 C   0  0  0  0  0  0  0  0  0  0  0  0
    7.8348  -14.7932   20.7891 C   0  0  2  0  0  0  0  0  0  0  0  0
    6.7281  -15.7192   20.7325 N   0  0  0  0  0  0  0  0  0  0  0  0
    8.4647  -14.6998   22.1066 C   0  0  0  0  0  0  0  0  0  0  0  0
    8.0031  -14.0534   23.0800 O   0  0  0  0  0  0  0  0  0  0  0  0
    6.5825  -12.1985   27.8271 O   0  0  0  0  0  0  0  0  0  0  0  0
    7.2815  -13.1062   27.0497 C   0  0  0  0  0  0  0  0  0  0  0  0
    8.6309  -13.3361   27.2260 C   0  0  0  0  0  0  0  0  0  0  0  0
    9.3214  -14.2341   26.4568 C   0  0  0  0  0  0  0  0  0  0  0  0
    8.6837  -14.9592   25.4553 C   0  0  0  0  0  0  0  0  0  0  0  0
    9.4272  -15.9090   24.6312 C   0  0  0  0  0  0  0  0  0  0  0  0
   10.3584  -15.2871   23.6210 C   0  0  2  0  0  0  0  0  0  0  0  0
    9.6919  -15.3910   22.3064 N   0  0  0  0  0  0  0  0  0  0  0  0
   11.6137  -16.0730   23.5951 C   0  0  0  0  0  0  0  0  0  0  0  0
   12.5130  -15.8942   24.4769 O   0  0  0  0  0  0  0  0  0  0  0  0
    7.3363  -14.7206   25.2887 C   0  0  0  0  0  0  0  0  0  0  0  0
    6.6426  -13.8138   26.0668 C   0  0  0  0  0  0  0  0  0  0  0  0
   11.8855  -17.0307   22.6357 O   0  0  0  0  0  0  0  0  0  0  0  0
  2  1  1  1
  2  4  1  0
  3  2  1  0
  4  6  1  0
  4  5  1  6
  6  7  2  0
  9 11  1  0
  9  8  1  6
 10  9  1  0
 11 12  1  1
 12  6  1  0
 13 14  2  0
 13 11  1  0
 15 16  1  0
 16 26  2  0
 16 17  1  0
 17 18  2  0
 18 19  1  0
 19 20  1  0
 21 20  1  1
 21 23  1  0
 21 22  1  0
 22 13  1  0
 23 27  1  0
 24 23  2  0
 25 19  2  0
 26 25  1  0
M  END
$$$$
