TVY.pdb
     RDKit          3D

 27 27  0  0  1  0  0  0  0  0999 V2000
    6.8524  -20.5905   21.1051 C   0  0  0  0  0  0  0  0  0  0  0  0
    7.6111  -19.2857   21.3509 C   0  0  1  0  0  0  0  0  0  0  0  0
    8.9592  -19.6352   21.4271 O   0  0  0  0  0  0  0  0  0  0  0  0
    7.4503  -18.3672   20.1700 C   0  0  2  0  0  0  0  0  0  0  0  0
    7.9551  -19.0422   18.9899 N   0  0  0  0  0  0  0  0  0  0  0  0
    8.1408  -17.0675   20.3643 C   0  0  0  0  0  0  0  0  0  0  0  0
    9.2881  -16.8813   19.8838 O   0  0  0  0  0  0  0  0  0  0  0  0
    8.2326  -12.2479   21.1759 C   0  0  0  0  0  0  0  0  0  0  0  0
    7.4649  -13.5369   20.9095 C   0  0  1  0  0  0  0  0  0  0  0  0
    6.9829  -13.6061   19.5002 C   0  0  0  0  0  0  0  0  0  0  0  0
    8.2729  -14.7456   21.3307 C   0  0  2  0  0  0  0  0  0  0  0  0
    7.5681  -15.9817   21.0841 N   0  0  0  0  0  0  0  0  0  0  0  0
    8.7193  -14.5819   22.7145 C   0  0  0  0  0  0  0  0  0  0  0  0
    8.4333  -13.6054   23.4516 O   0  0  0  0  0  0  0  0  0  0  0  0
    5.5447  -11.2904   26.9910 O   0  0  0  0  0  0  0  0  0  0  0  0
    6.2646  -12.4079   26.6038 C   0  0  0  0  0  0  0  0  0  0  0  0
    5.6499  -13.5427   26.1149 C   0  0  0  0  0  0  0  0  0  0  0  0
    6.3625  -14.6474   25.7320 C   0  0  0  0  0  0  0  0  0  0  0  0
    7.7507  -14.6709   25.8213 C   0  0  0  0  0  0  0  0  0  0  0  0
    8.5055  -15.8557   25.4204 C   0  0  0  0  0  0  0  0  0  0  0  0
    9.8137  -15.5752   24.7246 C   0  0  2  0  0  0  0  0  0  0  0  0
    9.5387  -15.6019   23.2731 N   0  0  0  0  0  0  0  0  0  0  0  0
   10.7651  -16.6596   25.0610 C   0  0  0  0  0  0  0  0  0  0  0  0
   11.2972  -16.7254   26.2145 O   0  0  0  0  0  0  0  0  0  0  0  0
    8.3530  -13.5319   26.3112 C   0  0  0  0  0  0  0  0  0  0  0  0
    7.6307  -12.4189   26.6966 C   0  0  0  0  0  0  0  0  0  0  0  0
   11.1290  -17.6494   24.1668 O   0  0  0  0  0  0  0  0  0  0  0  0
  2  1  1  6
  2  4  1  0
  3  2  1  0
  4  6  1  0
  4  5  1  6
  6  7  2  0
  9 11  1  0
  9  8  1  6
 10  9  1  0
 11 12  1  1
 12  6  1  0
 13 14  2  0
 13 11  1  0
 15 16  1  0
 16 26  2  0
 16 17  1  0
 17 18  2  0
 18 19  1  0
 19 20  1  0
 21 20  1  1
 21 23  1  0
 21 22  1  0
 22 13  1  0
 23 27  1  0
 24 23  2  0
 25 19  2  0
 26 25  1  0
M  END
$$$$
