TVY.pdb
     RDKit          3D

 27 27  0  0  1  0  0  0  0  0999 V2000
   10.5168  -20.3834   20.0357 C   0  0  0  0  0  0  0  0  0  0  0  0
   10.4696  -18.9804   20.6423 C   0  0  1  0  0  0  0  0  0  0  0  0
   11.6152  -18.8647   21.4294 O   0  0  0  0  0  0  0  0  0  0  0  0
   10.5653  -17.9461   19.5536 C   0  0  2  0  0  0  0  0  0  0  0  0
   11.8557  -18.0785   18.9052 N   0  0  0  0  0  0  0  0  0  0  0  0
   10.3764  -16.5653   20.0649 C   0  0  0  0  0  0  0  0  0  0  0  0
   11.3711  -15.8224   20.2659 O   0  0  0  0  0  0  0  0  0  0  0  0
    7.4900  -12.6298   20.9480 C   0  0  0  0  0  0  0  0  0  0  0  0
    7.7574  -13.9578   20.2502 C   0  0  1  0  0  0  0  0  0  0  0  0
    7.9021  -13.7827   18.7765 C   0  0  0  0  0  0  0  0  0  0  0  0
    8.9238  -14.6804   20.8893 C   0  0  2  0  0  0  0  0  0  0  0  0
    9.0983  -16.0095   20.3521 N   0  0  0  0  0  0  0  0  0  0  0  0
    8.7894  -14.6410   22.3458 C   0  0  0  0  0  0  0  0  0  0  0  0
    8.0266  -13.8675   22.9769 O   0  0  0  0  0  0  0  0  0  0  0  0
    6.2245  -10.6448   27.0928 O   0  0  0  0  0  0  0  0  0  0  0  0
    6.5971  -11.8412   26.5040 C   0  0  0  0  0  0  0  0  0  0  0  0
    6.0242  -13.0445   26.8629 C   0  0  0  0  0  0  0  0  0  0  0  0
    6.3932  -14.2272   26.2801 C   0  0  0  0  0  0  0  0  0  0  0  0
    7.3714  -14.2645   25.2915 C   0  0  0  0  0  0  0  0  0  0  0  0
    7.7681  -15.5304   24.6798 C   0  0  0  0  0  0  0  0  0  0  0  0
    9.2556  -15.7344   24.5395 C   0  0  2  0  0  0  0  0  0  0  0  0
    9.5789  -15.5444   23.1103 N   0  0  0  0  0  0  0  0  0  0  0  0
    9.5766  -17.1263   24.9315 C   0  0  0  0  0  0  0  0  0  0  0  0
    9.7551  -18.0269   24.0509 O   0  0  0  0  0  0  0  0  0  0  0  0
    7.9363  -13.0567   24.9420 C   0  0  0  0  0  0  0  0  0  0  0  0
    7.5614  -11.8649   25.5322 C   0  0  0  0  0  0  0  0  0  0  0  0
    9.7021  -17.5304   26.2477 O   0  0  0  0  0  0  0  0  0  0  0  0
  2  1  1  6
  2  4  1  0
  3  2  1  0
  4  6  1  0
  4  5  1  1
  6  7  2  0
  9 11  1  0
  9  8  1  1
 10  9  1  0
 11 12  1  6
 12  6  1  0
 13 14  2  0
 13 11  1  0
 15 16  1  0
 16 26  2  0
 16 17  1  0
 17 18  2  0
 18 19  1  0
 19 20  1  0
 21 20  1  6
 21 23  1  0
 21 22  1  0
 22 13  1  0
 23 27  1  0
 24 23  2  0
 25 19  2  0
 26 25  1  0
M  END
$$$$
