TVY.pdb
     RDKit          3D

 27 27  0  0  1  0  0  0  0  0999 V2000
    6.4019  -18.7844   23.8694 C   0  0  0  0  0  0  0  0  0  0  0  0
    6.6304  -19.5639   22.5737 C   0  0  1  0  0  0  0  0  0  0  0  0
    5.7371  -20.6345   22.6082 O   0  0  0  0  0  0  0  0  0  0  0  0
    6.2648  -18.7108   21.3893 C   0  0  2  0  0  0  0  0  0  0  0  0
    6.3147  -19.5338   20.1964 N   0  0  0  0  0  0  0  0  0  0  0  0
    7.1517  -17.5289   21.2464 C   0  0  0  0  0  0  0  0  0  0  0  0
    8.3015  -17.6554   20.7528 O   0  0  0  0  0  0  0  0  0  0  0  0
    7.9054  -12.6323   21.1750 C   0  0  0  0  0  0  0  0  0  0  0  0
    6.9935  -13.8470   21.0536 C   0  0  1  0  0  0  0  0  0  0  0  0
    6.4766  -14.0071   19.6641 C   0  0  0  0  0  0  0  0  0  0  0  0
    7.6708  -15.0889   21.5921 C   0  0  2  0  0  0  0  0  0  0  0  0
    6.7710  -16.2172   21.6458 N   0  0  0  0  0  0  0  0  0  0  0  0
    8.3173  -14.7832   22.8687 C   0  0  0  0  0  0  0  0  0  0  0  0
    7.8840  -13.9628   23.7159 O   0  0  0  0  0  0  0  0  0  0  0  0
   10.7581  -15.0210   30.9177 O   0  0  0  0  0  0  0  0  0  0  0  0
   10.3610  -15.1921   29.6024 C   0  0  0  0  0  0  0  0  0  0  0  0
   10.2451  -16.4419   29.0284 C   0  0  0  0  0  0  0  0  0  0  0  0
    9.8522  -16.6103   27.7277 C   0  0  0  0  0  0  0  0  0  0  0  0
    9.5507  -15.5163   26.9228 C   0  0  0  0  0  0  0  0  0  0  0  0
    9.1412  -15.7012   25.5328 C   0  0  0  0  0  0  0  0  0  0  0  0
   10.1444  -15.2430   24.5043 C   0  0  2  0  0  0  0  0  0  0  0  0
    9.5277  -15.4630   23.1797 N   0  0  0  0  0  0  0  0  0  0  0  0
   11.3566  -16.0859   24.6242 C   0  0  0  0  0  0  0  0  0  0  0  0
   11.3816  -17.2637   24.1444 O   0  0  0  0  0  0  0  0  0  0  0  0
    9.6705  -14.2736   27.5072 C   0  0  0  0  0  0  0  0  0  0  0  0
   10.0671  -14.1073   28.8202 C   0  0  0  0  0  0  0  0  0  0  0  0
   12.5140  -15.6597   25.2488 O   0  0  0  0  0  0  0  0  0  0  0  0
  2  1  1  1
  2  4  1  0
  3  2  1  0
  4  6  1  0
  4  5  1  6
  6  7  2  0
  9 11  1  0
  9  8  1  6
 10  9  1  0
 11 12  1  1
 12  6  1  0
 13 14  2  0
 13 11  1  0
 15 16  1  0
 16 26  2  0
 16 17  1  0
 17 18  2  0
 18 19  1  0
 19 20  1  0
 21 20  1  1
 21 23  1  0
 21 22  1  0
 22 13  1  0
 23 27  1  0
 24 23  2  0
 25 19  2  0
 26 25  1  0
M  END
$$$$
