TVY.pdb
     RDKit          3D

 27 27  0  0  1  0  0  0  0  0999 V2000
   10.7539  -19.8387   18.1483 C   0  0  0  0  0  0  0  0  0  0  0  0
   10.4515  -18.9759   19.3742 C   0  0  1  0  0  0  0  0  0  0  0  0
   11.3883  -19.3418   20.3406 O   0  0  0  0  0  0  0  0  0  0  0  0
   10.6820  -17.5245   19.0508 C   0  0  2  0  0  0  0  0  0  0  0  0
   12.0654  -17.3565   18.6495 N   0  0  0  0  0  0  0  0  0  0  0  0
   10.3561  -16.6308   20.1906 C   0  0  0  0  0  0  0  0  0  0  0  0
   11.2438  -16.3190   21.0252 O   0  0  0  0  0  0  0  0  0  0  0  0
    6.2441  -15.4313   21.1653 C   0  0  0  0  0  0  0  0  0  0  0  0
    7.4480  -14.5285   21.4044 C   0  0  1  0  0  0  0  0  0  0  0  0
    7.1950  -13.5592   22.5089 C   0  0  0  0  0  0  0  0  0  0  0  0
    8.7082  -15.3451   21.5954 C   0  0  2  0  0  0  0  0  0  0  0  0
    9.0594  -16.0860   20.4066 N   0  0  0  0  0  0  0  0  0  0  0  0
    8.5819  -16.1724   22.7956 C   0  0  0  0  0  0  0  0  0  0  0  0
    8.3507  -17.4073   22.7967 O   0  0  0  0  0  0  0  0  0  0  0  0
    5.6888  -10.8036   26.6311 O   0  0  0  0  0  0  0  0  0  0  0  0
    6.4777  -11.9405   26.5845 C   0  0  0  0  0  0  0  0  0  0  0  0
    5.9597  -13.2015   26.8001 C   0  0  0  0  0  0  0  0  0  0  0  0
    6.7405  -14.3252   26.7537 C   0  0  0  0  0  0  0  0  0  0  0  0
    8.1028  -14.2407   26.4843 C   0  0  0  0  0  0  0  0  0  0  0  0
    8.9331  -15.4421   26.4454 C   0  0  0  0  0  0  0  0  0  0  0  0
    8.6695  -16.3642   25.2817 C   0  0  2  0  0  0  0  0  0  0  0  0
    8.7315  -15.5364   24.0593 N   0  0  0  0  0  0  0  0  0  0  0  0
    7.3044  -16.9211   25.4250 C   0  0  0  0  0  0  0  0  0  0  0  0
    7.0405  -17.7751   26.3300 O   0  0  0  0  0  0  0  0  0  0  0  0
    8.6083  -12.9762   26.2710 C   0  0  0  0  0  0  0  0  0  0  0  0
    7.8174  -11.8442   26.3184 C   0  0  0  0  0  0  0  0  0  0  0  0
    6.2509  -16.5584   24.6064 O   0  0  0  0  0  0  0  0  0  0  0  0
  2  1  1  6
  2  4  1  0
  3  2  1  0
  4  6  1  0
  4  5  1  1
  6  7  2  0
  9 11  1  0
  9  8  1  1
 10  9  1  0
 11 12  1  6
 12  6  1  0
 13 14  2  0
 13 11  1  0
 15 16  1  0
 16 26  2  0
 16 17  1  0
 17 18  2  0
 18 19  1  0
 19 20  1  0
 21 20  1  1
 21 23  1  0
 21 22  1  0
 22 13  1  0
 23 27  1  0
 24 23  2  0
 25 19  2  0
 26 25  1  0
M  END
$$$$
