TVY.pdb
     RDKit          3D

 27 27  0  0  1  0  0  0  0  0999 V2000
    5.2644  -18.0404   23.6117 C   0  0  0  0  0  0  0  0  0  0  0  0
    5.2247  -18.8369   22.3067 C   0  0  1  0  0  0  0  0  0  0  0  0
    4.0654  -19.6101   22.3651 O   0  0  0  0  0  0  0  0  0  0  0  0
    5.0828  -17.9007   21.1372 C   0  0  2  0  0  0  0  0  0  0  0  0
    4.7441  -18.6802   19.9622 N   0  0  0  0  0  0  0  0  0  0  0  0
    6.3108  -17.1015   20.8983 C   0  0  0  0  0  0  0  0  0  0  0  0
    7.2807  -17.6017   20.2730 O   0  0  0  0  0  0  0  0  0  0  0  0
    8.7923  -12.8130   20.8040 C   0  0  0  0  0  0  0  0  0  0  0  0
    7.4710  -13.5614   20.9289 C   0  0  1  0  0  0  0  0  0  0  0  0
    6.5918  -13.3214   19.7487 C   0  0  0  0  0  0  0  0  0  0  0  0
    7.7047  -15.0287   21.2186 C   0  0  2  0  0  0  0  0  0  0  0  0
    6.4661  -15.7600   21.3468 N   0  0  0  0  0  0  0  0  0  0  0  0
    8.5986  -15.1674   22.3687 C   0  0  0  0  0  0  0  0  0  0  0  0
    8.4019  -14.6540   23.4983 O   0  0  0  0  0  0  0  0  0  0  0  0
    6.1759  -18.8705   26.8543 O   0  0  0  0  0  0  0  0  0  0  0  0
    7.2879  -18.5164   26.1092 C   0  0  0  0  0  0  0  0  0  0  0  0
    7.3776  -18.7778   24.7570 C   0  0  0  0  0  0  0  0  0  0  0  0
    8.4775  -18.4272   24.0208 C   0  0  0  0  0  0  0  0  0  0  0  0
    9.5613  -17.7861   24.6125 C   0  0  0  0  0  0  0  0  0  0  0  0
   10.7363  -17.4228   23.8242 C   0  0  0  0  0  0  0  0  0  0  0  0
   10.7506  -16.0037   23.3144 C   0  0  2  0  0  0  0  0  0  0  0  0
    9.7808  -15.9409   22.2014 N   0  0  0  0  0  0  0  0  0  0  0  0
   12.1063  -15.7051   22.7977 C   0  0  0  0  0  0  0  0  0  0  0  0
   12.3238  -15.6228   21.5471 O   0  0  0  0  0  0  0  0  0  0  0  0
    9.4599  -17.5309   25.9633 C   0  0  0  0  0  0  0  0  0  0  0  0
    8.3483  -17.8860   26.7032 C   0  0  0  0  0  0  0  0  0  0  0  0
   13.1993  -15.4997   23.6191 O   0  0  0  0  0  0  0  0  0  0  0  0
  2  1  1  1
  2  4  1  0
  3  2  1  0
  4  6  1  0
  4  5  1  6
  6  7  2  0
  9 11  1  0
  9  8  1  6
 10  9  1  0
 11 12  1  1
 12  6  1  0
 13 14  2  0
 13 11  1  0
 15 16  1  0
 16 26  2  0
 16 17  1  0
 17 18  2  0
 18 19  1  0
 19 20  1  0
 21 20  1  6
 21 23  1  0
 21 22  1  0
 22 13  1  0
 23 27  1  0
 24 23  2  0
 25 19  2  0
 26 25  1  0
M  END
$$$$
