TVY.pdb
     RDKit          3D

 27 27  0  0  1  0  0  0  0  0999 V2000
    9.2469  -19.5377   20.2401 C   0  0  0  0  0  0  0  0  0  0  0  0
   10.3848  -19.1574   19.2919 C   0  0  1  0  0  0  0  0  0  0  0  0
   10.4833  -20.2025   18.3734 O   0  0  0  0  0  0  0  0  0  0  0  0
   10.0207  -17.9159   18.5236 C   0  0  2  0  0  0  0  0  0  0  0  0
   11.0330  -17.6882   17.5104 N   0  0  0  0  0  0  0  0  0  0  0  0
    9.8821  -16.7264   19.4008 C   0  0  0  0  0  0  0  0  0  0  0  0
   10.8857  -16.2584   19.9970 O   0  0  0  0  0  0  0  0  0  0  0  0
    6.9495  -13.3023   21.5876 C   0  0  0  0  0  0  0  0  0  0  0  0
    7.2346  -14.2082   20.3960 C   0  0  1  0  0  0  0  0  0  0  0  0
    7.2955  -13.4352   19.1224 C   0  0  0  0  0  0  0  0  0  0  0  0
    8.4612  -15.0598   20.6441 C   0  0  2  0  0  0  0  0  0  0  0  0
    8.6442  -16.0590   19.6176 N   0  0  0  0  0  0  0  0  0  0  0  0
    8.4169  -15.6037   22.0018 C   0  0  0  0  0  0  0  0  0  0  0  0
    7.7817  -16.6322   22.3440 O   0  0  0  0  0  0  0  0  0  0  0  0
   10.4356  -16.0406   30.6770 O   0  0  0  0  0  0  0  0  0  0  0  0
   10.3319  -15.6879   29.3422 C   0  0  0  0  0  0  0  0  0  0  0  0
   10.7358  -16.5317   28.3275 C   0  0  0  0  0  0  0  0  0  0  0  0
   10.6328  -16.1822   27.0077 C   0  0  0  0  0  0  0  0  0  0  0  0
   10.1112  -14.9485   26.6317 C   0  0  0  0  0  0  0  0  0  0  0  0
   10.0124  -14.5767   25.2224 C   0  0  0  0  0  0  0  0  0  0  0  0
    9.0679  -15.4200   24.4033 C   0  0  2  0  0  0  0  0  0  0  0  0
    9.1463  -14.9211   23.0147 N   0  0  0  0  0  0  0  0  0  0  0  0
    7.6935  -15.2179   24.9175 C   0  0  0  0  0  0  0  0  0  0  0  0
    6.9915  -14.2302   24.5307 O   0  0  0  0  0  0  0  0  0  0  0  0
    9.7116  -14.1145   27.6540 C   0  0  0  0  0  0  0  0  0  0  0  0
    9.8168  -14.4706   28.9848 C   0  0  0  0  0  0  0  0  0  0  0  0
    7.0954  -16.0684   25.8288 O   0  0  0  0  0  0  0  0  0  0  0  0
  2  1  1  1
  2  4  1  0
  3  2  1  0
  4  6  1  0
  4  5  1  6
  6  7  2  0
  9 11  1  0
  9  8  1  1
 10  9  1  0
 11 12  1  6
 12  6  1  0
 13 14  2  0
 13 11  1  0
 15 16  1  0
 16 26  2  0
 16 17  1  0
 17 18  2  0
 18 19  1  0
 19 20  1  0
 21 20  1  1
 21 23  1  0
 21 22  1  0
 22 13  1  0
 23 27  1  0
 24 23  2  0
 25 19  2  0
 26 25  1  0
M  END
$$$$
