TVY.pdb
     RDKit          3D

 27 27  0  0  1  0  0  0  0  0999 V2000
    3.8756  -19.1764   21.8549 C   0  0  0  0  0  0  0  0  0  0  0  0
    5.1142  -18.3035   22.0613 C   0  0  1  0  0  0  0  0  0  0  0  0
    6.0945  -19.1471   22.5835 O   0  0  0  0  0  0  0  0  0  0  0  0
    5.6145  -17.7991   20.7349 C   0  0  2  0  0  0  0  0  0  0  0  0
    5.9402  -18.9405   19.9017 N   0  0  0  0  0  0  0  0  0  0  0  0
    6.7892  -16.9024   20.8756 C   0  0  0  0  0  0  0  0  0  0  0  0
    7.9546  -17.3737   20.8353 O   0  0  0  0  0  0  0  0  0  0  0  0
    8.8179  -12.3685   20.9015 C   0  0  0  0  0  0  0  0  0  0  0  0
    7.5754  -13.2355   20.7394 C   0  0  1  0  0  0  0  0  0  0  0  0
    7.0610  -13.1994   19.3403 C   0  0  0  0  0  0  0  0  0  0  0  0
    7.8215  -14.6370   21.2557 C   0  0  2  0  0  0  0  0  0  0  0  0
    6.6772  -15.4958   21.0595 N   0  0  0  0  0  0  0  0  0  0  0  0
    8.2888  -14.5767   22.6410 C   0  0  0  0  0  0  0  0  0  0  0  0
    7.8565  -13.7807   23.5116 O   0  0  0  0  0  0  0  0  0  0  0  0
    6.0176  -11.1336   27.3619 O   0  0  0  0  0  0  0  0  0  0  0  0
    6.7014  -12.2344   26.8742 C   0  0  0  0  0  0  0  0  0  0  0  0
    6.0541  -13.2834   26.2534 C   0  0  0  0  0  0  0  0  0  0  0  0
    6.7310  -14.3715   25.7713 C   0  0  0  0  0  0  0  0  0  0  0  0
    8.1141  -14.4649   25.8890 C   0  0  0  0  0  0  0  0  0  0  0  0
    8.8304  -15.6326   25.3815 C   0  0  0  0  0  0  0  0  0  0  0  0
    9.9141  -15.3312   24.3770 C   0  0  2  0  0  0  0  0  0  0  0  0
    9.3090  -15.4853   23.0379 N   0  0  0  0  0  0  0  0  0  0  0  0
   10.9959  -16.3296   24.5414 C   0  0  0  0  0  0  0  0  0  0  0  0
   11.1376  -17.2804   23.7083 O   0  0  0  0  0  0  0  0  0  0  0  0
    8.7491  -13.4113   26.5110 C   0  0  0  0  0  0  0  0  0  0  0  0
    8.0628  -12.3147   26.9963 C   0  0  0  0  0  0  0  0  0  0  0  0
   11.9028  -16.2957   25.5844 O   0  0  0  0  0  0  0  0  0  0  0  0
  2  1  1  6
  2  4  1  0
  3  2  1  0
  4  6  1  0
  4  5  1  6
  6  7  2  0
  9 11  1  0
  9  8  1  6
 10  9  1  0
 11 12  1  1
 12  6  1  0
 13 14  2  0
 13 11  1  0
 15 16  1  0
 16 26  2  0
 16 17  1  0
 17 18  2  0
 18 19  1  0
 19 20  1  0
 21 20  1  1
 21 23  1  0
 21 22  1  0
 22 13  1  0
 23 27  1  0
 24 23  2  0
 25 19  2  0
 26 25  1  0
M  END
$$$$
