TVY.pdb
     RDKit          3D

 27 27  0  0  1  0  0  0  0  0999 V2000
    6.8339  -15.1763   18.0027 C   0  0  0  0  0  0  0  0  0  0  0  0
    7.3832  -15.1797   19.4299 C   0  0  1  0  0  0  0  0  0  0  0  0
    8.7524  -15.4182   19.3127 O   0  0  0  0  0  0  0  0  0  0  0  0
    7.2149  -13.8185   20.0488 C   0  0  2  0  0  0  0  0  0  0  0  0
    7.8211  -12.8359   19.1713 N   0  0  0  0  0  0  0  0  0  0  0  0
    7.8027  -13.7376   21.4096 C   0  0  0  0  0  0  0  0  0  0  0  0
    9.0346  -13.5312   21.5564 O   0  0  0  0  0  0  0  0  0  0  0  0
    7.2352  -13.8706   26.3858 C   0  0  0  0  0  0  0  0  0  0  0  0
    6.6035  -13.7149   25.0080 C   0  0  1  0  0  0  0  0  0  0  0  0
    5.8636  -12.4260   24.8871 C   0  0  0  0  0  0  0  0  0  0  0  0
    7.6289  -13.9267   23.9148 C   0  0  2  0  0  0  0  0  0  0  0  0
    7.0354  -13.8836   22.5990 N   0  0  0  0  0  0  0  0  0  0  0  0
    8.3905  -15.1469   24.1835 C   0  0  0  0  0  0  0  0  0  0  0  0
    8.1006  -16.2872   23.7428 O   0  0  0  0  0  0  0  0  0  0  0  0
   10.0964  -15.2858   31.4909 O   0  0  0  0  0  0  0  0  0  0  0  0
   10.4565  -15.4078   30.1596 C   0  0  0  0  0  0  0  0  0  0  0  0
   10.3676  -14.3509   29.2764 C   0  0  0  0  0  0  0  0  0  0  0  0
   10.7240  -14.4724   27.9600 C   0  0  0  0  0  0  0  0  0  0  0  0
   11.1954  -15.6793   27.4537 C   0  0  0  0  0  0  0  0  0  0  0  0
   11.5653  -15.8060   26.0461 C   0  0  0  0  0  0  0  0  0  0  0  0
   10.4426  -16.2098   25.1237 C   0  0  2  0  0  0  0  0  0  0  0  0
    9.5474  -15.0403   25.0046 N   0  0  0  0  0  0  0  0  0  0  0  0
    9.7019  -17.3295   25.7496 C   0  0  0  0  0  0  0  0  0  0  0  0
   10.2221  -18.4870   25.8372 O   0  0  0  0  0  0  0  0  0  0  0  0
   11.2794  -16.7273   28.3452 C   0  0  0  0  0  0  0  0  0  0  0  0
   10.9190  -16.6012   29.6731 C   0  0  0  0  0  0  0  0  0  0  0  0
    8.4276  -17.1953   26.2689 O   0  0  0  0  0  0  0  0  0  0  0  0
  2  1  1  6
  2  4  1  0
  3  2  1  0
  4  6  1  0
  4  5  1  6
  6  7  2  0
  9 11  1  0
  9  8  1  1
 10  9  1  0
 11 12  1  6
 12  6  1  0
 13 14  2  0
 13 11  1  0
 15 16  1  0
 16 26  2  0
 16 17  1  0
 17 18  2  0
 18 19  1  0
 19 20  1  0
 21 20  1  1
 21 23  1  0
 21 22  1  0
 22 13  1  0
 23 27  1  0
 24 23  2  0
 25 19  2  0
 26 25  1  0
M  END
$$$$
