TVY.pdb
     RDKit          3D

 27 27  0  0  1  0  0  0  0  0999 V2000
    8.3945  -19.2406   21.6814 C   0  0  0  0  0  0  0  0  0  0  0  0
    8.9458  -19.2615   20.2551 C   0  0  1  0  0  0  0  0  0  0  0  0
    8.5179  -20.4658   19.6967 O   0  0  0  0  0  0  0  0  0  0  0  0
    8.3313  -18.1487   19.4500 C   0  0  2  0  0  0  0  0  0  0  0  0
    8.6357  -18.3713   18.0497 N   0  0  0  0  0  0  0  0  0  0  0  0
    8.8039  -16.8090   19.8811 C   0  0  0  0  0  0  0  0  0  0  0  0
    9.9167  -16.3733   19.4893 O   0  0  0  0  0  0  0  0  0  0  0  0
    7.9054  -12.2586   21.5564 C   0  0  0  0  0  0  0  0  0  0  0  0
    7.4437  -13.5937   20.9854 C   0  0  1  0  0  0  0  0  0  0  0  0
    6.9569  -13.4509   19.5833 C   0  0  0  0  0  0  0  0  0  0  0  0
    8.5144  -14.6515   21.1474 C   0  0  2  0  0  0  0  0  0  0  0  0
    8.0526  -15.9573   20.7385 N   0  0  0  0  0  0  0  0  0  0  0  0
    9.0467  -14.6090   22.5097 C   0  0  0  0  0  0  0  0  0  0  0  0
    9.2201  -13.5616   23.1816 O   0  0  0  0  0  0  0  0  0  0  0  0
    5.9848  -11.1068   26.9334 O   0  0  0  0  0  0  0  0  0  0  0  0
    6.5562  -12.2994   26.5230 C   0  0  0  0  0  0  0  0  0  0  0  0
    5.8367  -13.2612   25.8433 C   0  0  0  0  0  0  0  0  0  0  0  0
    6.4025  -14.4402   25.4376 C   0  0  0  0  0  0  0  0  0  0  0  0
    7.7405  -14.7195   25.6970 C   0  0  0  0  0  0  0  0  0  0  0  0
    8.3367  -15.9830   25.2704 C   0  0  0  0  0  0  0  0  0  0  0  0
    9.6701  -15.8591   24.5769 C   0  0  2  0  0  0  0  0  0  0  0  0
    9.3956  -15.8432   23.1252 N   0  0  0  0  0  0  0  0  0  0  0  0
   10.4825  -17.0529   24.9068 C   0  0  0  0  0  0  0  0  0  0  0  0
   10.9387  -17.2266   26.0815 O   0  0  0  0  0  0  0  0  0  0  0  0
    8.4484  -13.7514   26.3767 C   0  0  0  0  0  0  0  0  0  0  0  0
    7.8742  -12.5627   26.7844 C   0  0  0  0  0  0  0  0  0  0  0  0
   10.7911  -18.0350   23.9840 O   0  0  0  0  0  0  0  0  0  0  0  0
  2  1  1  1
  2  4  1  0
  3  2  1  0
  4  6  1  0
  4  5  1  6
  6  7  2  0
  9 11  1  0
  9  8  1  6
 10  9  1  0
 11 12  1  1
 12  6  1  0
 13 14  2  0
 13 11  1  0
 15 16  1  0
 16 26  2  0
 16 17  1  0
 17 18  2  0
 18 19  1  0
 19 20  1  0
 21 20  1  1
 21 23  1  0
 21 22  1  0
 22 13  1  0
 23 27  1  0
 24 23  2  0
 25 19  2  0
 26 25  1  0
M  END
$$$$
