DCA.pdb
     RDKit          3D

 20 19  0  0  1  0  0  0  0  0999 V2000
   18.1662  -12.1703  -14.7336 N   0  0  0  0  0  0  0  0  0  0  0  0
   17.5394  -10.8405  -15.0262 C   0  0  1  0  0  0  0  0  0  0  0  0
   16.0677  -11.1064  -14.9362 C   0  0  0  0  0  0  0  0  0  0  0  0
   15.4825  -11.7480  -16.0966 C   0  0  0  0  0  0  0  0  0  0  0  0
   15.9514  -11.6660  -17.2284 O   0  0  0  0  0  0  0  0  0  0  0  0
   18.0359   -9.9239  -13.9591 C   0  0  0  0  0  0  0  0  0  0  0  0
   17.9843  -10.3074  -12.7433 O   0  0  0  0  0  0  0  0  0  0  0  0
   14.3037  -12.5188  -15.9451 O   0  0  0  0  0  0  0  0  0  0  0  0
   18.5763   -8.6389  -14.1753 N   0  0  0  0  0  0  0  0  0  0  0  0
   19.0361   -7.8316  -13.0711 C   0  0  1  0  0  0  0  0  0  0  0  0
   20.3494   -7.1418  -13.3873 C   0  0  0  0  0  0  0  0  0  0  0  0
   21.7385   -8.2866  -13.2036 S   0  0  0  0  0  0  0  0  0  0  0  0
   18.0221   -6.8269  -12.6614 C   0  0  0  0  0  0  0  0  0  0  0  0
   17.3289   -6.1755  -13.5093 O   0  0  0  0  0  0  0  0  0  0  0  0
   16.5926   -5.5397   -9.3783 C   0  0  0  0  0  0  0  0  0  0  0  0
   16.8044   -5.5261  -10.8775 C   0  0  2  0  0  0  0  0  0  0  0  0
   17.7600   -6.5280  -11.2971 N   0  0  0  0  0  0  0  0  0  0  0  0
   17.3490   -4.1958  -11.2376 C   0  0  0  0  0  0  0  0  0  0  0  0
   18.5514   -4.0918  -11.6296 O   0  0  0  0  0  0  0  0  0  0  0  0
   16.5800   -3.0695  -11.1567 O   0  0  0  0  0  0  0  0  0  0  0  0
  2  1  1  1
  3  2  1  0
  3  4  1  0
  4  5  2  0
  6  2  1  0
  6  7  2  0
  8  4  1  0
  9  6  1  0
 10  9  1  0
 10 11  1  6
 12 11  1  0
 13 10  1  0
 14 13  2  0
 16 15  1  1
 16 17  1  0
 16 18  1  0
 17 13  1  0
 18 20  1  0
 19 18  2  0
M  END
$$$$
