DCA.pdb
     RDKit          3D

 20 19  0  0  1  0  0  0  0  0999 V2000
   22.6165   -9.1752  -18.5539 N   0  0  0  0  0  0  0  0  0  0  0  0
   23.4465   -8.3276  -17.6376 C   0  0  1  0  0  0  0  0  0  0  0  0
   24.2834   -7.5025  -18.5668 C   0  0  0  0  0  0  0  0  0  0  0  0
   25.3982   -8.1981  -19.1785 C   0  0  0  0  0  0  0  0  0  0  0  0
   25.4441   -8.4958  -20.3688 O   0  0  0  0  0  0  0  0  0  0  0  0
   22.4702   -7.5177  -16.8525 C   0  0  0  0  0  0  0  0  0  0  0  0
   21.4079   -7.1056  -17.4266 O   0  0  0  0  0  0  0  0  0  0  0  0
   26.5098   -8.5672  -18.3819 O   0  0  0  0  0  0  0  0  0  0  0  0
   22.6138   -7.1591  -15.4958 N   0  0  0  0  0  0  0  0  0  0  0  0
   21.5803   -6.4220  -14.8095 C   0  0  1  0  0  0  0  0  0  0  0  0
   21.2901   -7.0037  -13.4391 C   0  0  0  0  0  0  0  0  0  0  0  0
   20.6156   -8.6767  -13.5794 S   0  0  0  0  0  0  0  0  0  0  0  0
   21.9179   -4.9809  -14.6870 C   0  0  0  0  0  0  0  0  0  0  0  0
   22.9571   -4.5760  -14.0707 O   0  0  0  0  0  0  0  0  0  0  0  0
   20.6186   -1.7351  -16.1604 C   0  0  0  0  0  0  0  0  0  0  0  0
   21.4447   -2.5567  -15.1933 C   0  0  2  0  0  0  0  0  0  0  0  0
   21.1033   -3.9615  -15.2496 N   0  0  0  0  0  0  0  0  0  0  0  0
   21.1457   -2.0680  -13.8266 C   0  0  0  0  0  0  0  0  0  0  0  0
   21.4976   -0.8978  -13.4846 O   0  0  0  0  0  0  0  0  0  0  0  0
   20.4947   -2.8548  -12.9191 O   0  0  0  0  0  0  0  0  0  0  0  0
  2  1  1  6
  3  2  1  0
  3  4  1  0
  4  5  2  0
  6  2  1  0
  6  7  2  0
  8  4  1  0
  9  6  1  0
 10  9  1  0
 10 11  1  1
 12 11  1  0
 13 10  1  0
 14 13  2  0
 16 15  1  6
 16 17  1  0
 16 18  1  0
 17 13  1  0
 18 20  1  0
 19 18  2  0
M  END
$$$$
