DCA.pdb
     RDKit          3D

 20 19  0  0  1  0  0  0  0  0999 V2000
   20.0611  -11.4245  -18.2725 N   0  0  0  0  0  0  0  0  0  0  0  0
   21.1979  -10.5040  -17.9450 C   0  0  1  0  0  0  0  0  0  0  0  0
   21.6848  -10.0396  -19.2836 C   0  0  0  0  0  0  0  0  0  0  0  0
   22.5610  -10.9621  -19.9778 C   0  0  0  0  0  0  0  0  0  0  0  0
   22.6454  -11.0309  -21.2008 O   0  0  0  0  0  0  0  0  0  0  0  0
   20.5997   -9.4094  -17.1267 C   0  0  0  0  0  0  0  0  0  0  0  0
   19.6108   -8.7561  -17.5990 O   0  0  0  0  0  0  0  0  0  0  0  0
   23.3764  -11.8451  -19.2280 O   0  0  0  0  0  0  0  0  0  0  0  0
   21.0346   -9.0218  -15.8420 N   0  0  0  0  0  0  0  0  0  0  0  0
   20.3495   -7.9856  -15.1077 C   0  0  1  0  0  0  0  0  0  0  0  0
   19.9690   -8.4427  -13.7124 C   0  0  0  0  0  0  0  0  0  0  0  0
   18.9203   -9.9155  -13.7808 S   0  0  0  0  0  0  0  0  0  0  0  0
   21.1532   -6.7391  -15.0308 C   0  0  0  0  0  0  0  0  0  0  0  0
   22.3963   -6.7478  -14.7510 O   0  0  0  0  0  0  0  0  0  0  0  0
   20.5451   -3.0474  -15.7266 C   0  0  0  0  0  0  0  0  0  0  0  0
   21.3703   -4.2411  -15.2947 C   0  0  2  0  0  0  0  0  0  0  0  0
   20.5869   -5.4569  -15.2648 N   0  0  0  0  0  0  0  0  0  0  0  0
   21.8526   -3.9740  -13.9191 C   0  0  0  0  0  0  0  0  0  0  0  0
   21.3291   -4.5850  -12.9378 O   0  0  0  0  0  0  0  0  0  0  0  0
   22.8560   -3.0779  -13.6812 O   0  0  0  0  0  0  0  0  0  0  0  0
  2  1  1  6
  3  2  1  0
  3  4  1  0
  4  5  2  0
  6  2  1  0
  6  7  2  0
  8  4  1  0
  9  6  1  0
 10  9  1  0
 10 11  1  1
 12 11  1  0
 13 10  1  0
 14 13  2  0
 16 15  1  1
 16 17  1  0
 16 18  1  0
 17 13  1  0
 18 20  1  0
 19 18  2  0
M  END
$$$$
