DCA.pdb
     RDKit          3D

 20 19  0  0  1  0  0  0  0  0999 V2000
   20.4528  -10.9252  -17.7931 N   0  0  0  0  0  0  0  0  0  0  0  0
   21.1058   -9.6089  -18.0897 C   0  0  1  0  0  0  0  0  0  0  0  0
   20.4508   -9.1580  -19.3596 C   0  0  0  0  0  0  0  0  0  0  0  0
   20.9325   -9.8003  -20.5664 C   0  0  0  0  0  0  0  0  0  0  0  0
   20.2088  -10.4128  -21.3466 O   0  0  0  0  0  0  0  0  0  0  0  0
   20.7868   -8.7353  -16.9233 C   0  0  0  0  0  0  0  0  0  0  0  0
   19.5748   -8.6422  -16.5356 O   0  0  0  0  0  0  0  0  0  0  0  0
   22.3104   -9.7332  -20.8879 O   0  0  0  0  0  0  0  0  0  0  0  0
   21.7268   -7.9855  -16.1859 N   0  0  0  0  0  0  0  0  0  0  0  0
   21.3202   -7.2019  -15.0443 C   0  0  1  0  0  0  0  0  0  0  0  0
   22.2153   -7.4488  -13.8450 C   0  0  0  0  0  0  0  0  0  0  0  0
   22.1076   -9.1722  -13.3049 S   0  0  0  0  0  0  0  0  0  0  0  0
   21.2802   -5.7505  -15.3564 C   0  0  0  0  0  0  0  0  0  0  0  0
   22.2082   -5.1692  -16.0080 O   0  0  0  0  0  0  0  0  0  0  0  0
   18.8055   -2.9009  -14.9354 C   0  0  0  0  0  0  0  0  0  0  0  0
   20.1794   -3.4892  -15.1782 C   0  0  2  0  0  0  0  0  0  0  0  0
   20.2039   -4.9173  -14.9481 N   0  0  0  0  0  0  0  0  0  0  0  0
   21.1110   -2.8551  -14.2159 C   0  0  0  0  0  0  0  0  0  0  0  0
   21.5513   -3.5232  -13.2309 O   0  0  0  0  0  0  0  0  0  0  0  0
   21.5100   -1.5571  -14.3659 O   0  0  0  0  0  0  0  0  0  0  0  0
  2  1  1  1
  3  2  1  0
  3  4  1  0
  4  5  2  0
  6  2  1  0
  6  7  2  0
  8  4  1  0
  9  6  1  0
 10  9  1  0
 10 11  1  1
 12 11  1  0
 13 10  1  0
 14 13  2  0
 16 15  1  1
 16 17  1  0
 16 18  1  0
 17 13  1  0
 18 20  1  0
 19 18  2  0
M  END
$$$$
