DCA.pdb
     RDKit          3D

 20 19  0  0  1  0  0  0  0  0999 V2000
   22.1505  -11.6414  -17.4009 N   0  0  0  0  0  0  0  0  0  0  0  0
   21.0957  -10.8154  -18.0732 C   0  0  1  0  0  0  0  0  0  0  0  0
   20.0428  -11.8116  -18.4524 C   0  0  0  0  0  0  0  0  0  0  0  0
   20.4400  -12.7810  -19.4540 C   0  0  0  0  0  0  0  0  0  0  0  0
   21.5703  -12.8446  -19.9291 O   0  0  0  0  0  0  0  0  0  0  0  0
   20.6363   -9.8411  -17.0411 C   0  0  0  0  0  0  0  0  0  0  0  0
   19.4277   -9.8956  -16.6359 O   0  0  0  0  0  0  0  0  0  0  0  0
   19.4909  -13.7192  -19.9292 O   0  0  0  0  0  0  0  0  0  0  0  0
   21.4371   -8.8404  -16.4518 N   0  0  0  0  0  0  0  0  0  0  0  0
   20.9075   -7.9741  -15.4264 C   0  0  1  0  0  0  0  0  0  0  0  0
   21.2378   -8.4813  -14.0357 C   0  0  0  0  0  0  0  0  0  0  0  0
   20.6457   -7.3292  -12.7725 S   0  0  0  0  0  0  0  0  0  0  0  0
   21.3854   -6.5767  -15.5827 C   0  0  0  0  0  0  0  0  0  0  0  0
   22.6199   -6.2687  -15.5154 O   0  0  0  0  0  0  0  0  0  0  0  0
   19.7866   -3.1854  -16.2536 C   0  0  0  0  0  0  0  0  0  0  0  0
   20.9436   -4.1319  -16.0132 C   0  0  2  0  0  0  0  0  0  0  0  0
   20.4958   -5.4936  -15.8176 N   0  0  0  0  0  0  0  0  0  0  0  0
   21.6270   -3.6930  -14.7737 C   0  0  0  0  0  0  0  0  0  0  0  0
   22.6536   -2.9507  -14.8488 O   0  0  0  0  0  0  0  0  0  0  0  0
   21.1735   -4.0719  -13.5420 O   0  0  0  0  0  0  0  0  0  0  0  0
  2  1  1  1
  3  2  1  0
  3  4  1  0
  4  5  2  0
  6  2  1  0
  6  7  2  0
  8  4  1  0
  9  6  1  0
 10  9  1  0
 10 11  1  1
 12 11  1  0
 13 10  1  0
 14 13  2  0
 16 15  1  1
 16 17  1  0
 16 18  1  0
 17 13  1  0
 18 20  1  0
 19 18  2  0
M  END
$$$$
