DCA.pdb
     RDKit          3D

 20 19  0  0  1  0  0  0  0  0999 V2000
   18.6605  -10.8670  -16.6835 N   0  0  0  0  0  0  0  0  0  0  0  0
   19.9278  -10.0685  -16.6265 C   0  0  1  0  0  0  0  0  0  0  0  0
   20.1457   -9.6337  -18.0437 C   0  0  0  0  0  0  0  0  0  0  0  0
   20.7011  -10.6436  -18.9225 C   0  0  0  0  0  0  0  0  0  0  0  0
   20.4826  -10.6897  -20.1299 O   0  0  0  0  0  0  0  0  0  0  0  0
   19.6407   -8.9330  -15.7025 C   0  0  0  0  0  0  0  0  0  0  0  0
   18.5453   -8.2922  -15.8344 O   0  0  0  0  0  0  0  0  0  0  0  0
   21.5463  -11.6452  -18.3850 O   0  0  0  0  0  0  0  0  0  0  0  0
   20.4888   -8.4926  -14.6649 N   0  0  0  0  0  0  0  0  0  0  0  0
   20.1471   -7.3408  -13.8654 C   0  0  1  0  0  0  0  0  0  0  0  0
   20.4587   -7.5626  -12.3977 C   0  0  0  0  0  0  0  0  0  0  0  0
   19.3999   -8.8548  -11.7028 S   0  0  0  0  0  0  0  0  0  0  0  0
   20.8276   -6.1120  -14.3476 C   0  0  0  0  0  0  0  0  0  0  0  0
   22.0205   -6.1264  -14.7953 O   0  0  0  0  0  0  0  0  0  0  0  0
   19.8214   -2.5426  -15.1153 C   0  0  0  0  0  0  0  0  0  0  0  0
   20.8276   -3.6367  -14.8271 C   0  0  2  0  0  0  0  0  0  0  0  0
   20.1912   -4.8414  -14.3406 N   0  0  0  0  0  0  0  0  0  0  0  0
   21.7345   -3.1384  -13.7663 C   0  0  0  0  0  0  0  0  0  0  0  0
   21.6545   -3.6156  -12.5931 O   0  0  0  0  0  0  0  0  0  0  0  0
   22.6623   -2.1694  -14.0244 O   0  0  0  0  0  0  0  0  0  0  0  0
  2  1  1  6
  3  2  1  0
  3  4  1  0
  4  5  2  0
  6  2  1  0
  6  7  2  0
  8  4  1  0
  9  6  1  0
 10  9  1  0
 10 11  1  1
 12 11  1  0
 13 10  1  0
 14 13  2  0
 16 15  1  1
 16 17  1  0
 16 18  1  0
 17 13  1  0
 18 20  1  0
 19 18  2  0
M  END
$$$$
