DCA.pdb
     RDKit          3D

 20 19  0  0  1  0  0  0  0  0999 V2000
   18.8501  -11.4695  -16.7958 N   0  0  0  0  0  0  0  0  0  0  0  0
   20.0887  -10.8816  -16.1899 C   0  0  1  0  0  0  0  0  0  0  0  0
   21.0393  -10.7731  -17.3429 C   0  0  0  0  0  0  0  0  0  0  0  0
   21.7388  -11.9955  -17.6855 C   0  0  0  0  0  0  0  0  0  0  0  0
   21.5594  -13.0660  -17.1116 O   0  0  0  0  0  0  0  0  0  0  0  0
   19.6740   -9.5561  -15.6453 C   0  0  0  0  0  0  0  0  0  0  0  0
   18.8072   -8.8709  -16.2834 O   0  0  0  0  0  0  0  0  0  0  0  0
   22.6878  -11.9827  -18.7372 O   0  0  0  0  0  0  0  0  0  0  0  0
   20.1610   -8.9757  -14.4554 N   0  0  0  0  0  0  0  0  0  0  0  0
   19.6436   -7.7160  -13.9782 C   0  0  1  0  0  0  0  0  0  0  0  0
   19.1264   -7.8227  -12.5563 C   0  0  0  0  0  0  0  0  0  0  0  0
   17.9077   -9.1523  -12.4125 S   0  0  0  0  0  0  0  0  0  0  0  0
   20.6557   -6.6329  -14.0691 C   0  0  0  0  0  0  0  0  0  0  0  0
   21.8403   -6.7698  -13.6201 O   0  0  0  0  0  0  0  0  0  0  0  0
   20.8893   -3.2741  -15.8192 C   0  0  0  0  0  0  0  0  0  0  0  0
   21.3678   -4.3497  -14.8670 C   0  0  2  0  0  0  0  0  0  0  0  0
   20.3673   -5.3746  -14.6630 N   0  0  0  0  0  0  0  0  0  0  0  0
   21.6315   -3.7018  -13.5606 C   0  0  0  0  0  0  0  0  0  0  0  0
   20.7929   -3.8233  -12.6159 O   0  0  0  0  0  0  0  0  0  0  0  0
   22.7658   -2.9707  -13.3480 O   0  0  0  0  0  0  0  0  0  0  0  0
  2  1  1  6
  3  2  1  0
  3  4  1  0
  4  5  2  0
  6  2  1  0
  6  7  2  0
  8  4  1  0
  9  6  1  0
 10  9  1  0
 10 11  1  1
 12 11  1  0
 13 10  1  0
 14 13  2  0
 16 15  1  6
 16 17  1  0
 16 18  1  0
 17 13  1  0
 18 20  1  0
 19 18  2  0
M  END
$$$$
