DCA.pdb
     RDKit          3D

 20 19  0  0  1  0  0  0  0  0999 V2000
   20.4181  -14.0673  -16.6123 N   0  0  0  0  0  0  0  0  0  0  0  0
   20.9309  -12.9437  -17.4617 C   0  0  1  0  0  0  0  0  0  0  0  0
   19.8159  -12.6822  -18.4277 C   0  0  0  0  0  0  0  0  0  0  0  0
   19.6097  -13.7104  -19.4282 C   0  0  0  0  0  0  0  0  0  0  0  0
   18.5111  -13.9917  -19.8985 O   0  0  0  0  0  0  0  0  0  0  0  0
   21.1690  -11.8109  -16.5206 C   0  0  0  0  0  0  0  0  0  0  0  0
   20.2711  -11.5243  -15.6606 O   0  0  0  0  0  0  0  0  0  0  0  0
   20.7204  -14.4473  -19.9077 O   0  0  0  0  0  0  0  0  0  0  0  0
   22.3283  -11.0079  -16.4890 N   0  0  0  0  0  0  0  0  0  0  0  0
   22.5089  -10.0049  -15.4673 C   0  0  1  0  0  0  0  0  0  0  0  0
   23.8597  -10.1300  -14.7889 C   0  0  0  0  0  0  0  0  0  0  0  0
   23.9943  -11.7043  -13.9074 S   0  0  0  0  0  0  0  0  0  0  0  0
   22.3375   -8.6313  -16.0052 C   0  0  0  0  0  0  0  0  0  0  0  0
   22.9550   -8.2254  -17.0432 O   0  0  0  0  0  0  0  0  0  0  0  0
   19.7863   -5.9379  -15.7632 C   0  0  0  0  0  0  0  0  0  0  0  0
   21.2255   -6.3690  -15.9516 C   0  0  2  0  0  0  0  0  0  0  0  0
   21.4732   -7.6817  -15.3962 N   0  0  0  0  0  0  0  0  0  0  0  0
   22.0790   -5.3977  -15.2276 C   0  0  0  0  0  0  0  0  0  0  0  0
   22.5614   -5.7044  -14.0947 O   0  0  0  0  0  0  0  0  0  0  0  0
   22.3607   -4.1699  -15.7562 O   0  0  0  0  0  0  0  0  0  0  0  0
  2  1  1  1
  3  2  1  0
  3  4  1  0
  4  5  2  0
  6  2  1  0
  6  7  2  0
  8  4  1  0
  9  6  1  0
 10  9  1  0
 10 11  1  6
 12 11  1  0
 13 10  1  0
 14 13  2  0
 16 15  1  1
 16 17  1  0
 16 18  1  0
 17 13  1  0
 18 20  1  0
 19 18  2  0
M  END
$$$$
