DCA.pdb
     RDKit          3D

 20 19  0  0  1  0  0  0  0  0999 V2000
   18.3114  -12.4576  -16.4469 N   0  0  0  0  0  0  0  0  0  0  0  0
   18.1033  -10.9934  -16.6911 C   0  0  1  0  0  0  0  0  0  0  0  0
   16.6439  -10.7856  -16.4230 C   0  0  0  0  0  0  0  0  0  0  0  0
   15.7516  -11.2334  -17.4737 C   0  0  0  0  0  0  0  0  0  0  0  0
   15.9917  -11.1052  -18.6710 O   0  0  0  0  0  0  0  0  0  0  0  0
   18.9847  -10.2976  -15.7090 C   0  0  0  0  0  0  0  0  0  0  0  0
   18.7932  -10.4918  -14.4626 O   0  0  0  0  0  0  0  0  0  0  0  0
   14.5274  -11.8569  -17.1283 O   0  0  0  0  0  0  0  0  0  0  0  0
   20.0421   -9.4243  -16.0392 N   0  0  0  0  0  0  0  0  0  0  0  0
   20.7967   -8.7499  -15.0105 C   0  0  1  0  0  0  0  0  0  0  0  0
   22.1924   -9.3260  -14.8676 C   0  0  0  0  0  0  0  0  0  0  0  0
   23.1108   -8.4728  -13.5629 S   0  0  0  0  0  0  0  0  0  0  0  0
   20.8748   -7.2867  -15.2520 C   0  0  0  0  0  0  0  0  0  0  0  0
   21.3466   -6.7998  -16.3309 O   0  0  0  0  0  0  0  0  0  0  0  0
   19.4687   -4.1502  -13.7265 C   0  0  0  0  0  0  0  0  0  0  0  0
   20.5329   -4.9067  -14.4931 C   0  0  2  0  0  0  0  0  0  0  0  0
   20.4281   -6.3360  -14.2949 N   0  0  0  0  0  0  0  0  0  0  0  0
   21.8503   -4.4687  -13.9748 C   0  0  0  0  0  0  0  0  0  0  0  0
   22.5045   -5.2264  -13.1948 O   0  0  0  0  0  0  0  0  0  0  0  0
   22.3810   -3.2581  -14.3201 O   0  0  0  0  0  0  0  0  0  0  0  0
  2  1  1  1
  3  2  1  0
  3  4  1  0
  4  5  2  0
  6  2  1  0
  6  7  2  0
  8  4  1  0
  9  6  1  0
 10  9  1  0
 10 11  1  6
 12 11  1  0
 13 10  1  0
 14 13  2  0
 16 15  1  1
 16 17  1  0
 16 18  1  0
 17 13  1  0
 18 20  1  0
 19 18  2  0
M  END
$$$$
