DCA.pdb
     RDKit          3D

 20 19  0  0  1  0  0  0  0  0999 V2000
   16.9758  -12.1947  -15.4952 N   0  0  0  0  0  0  0  0  0  0  0  0
   18.4494  -12.4189  -15.6535 C   0  0  1  0  0  0  0  0  0  0  0  0
   18.5394  -13.5928  -16.5801 C   0  0  0  0  0  0  0  0  0  0  0  0
   17.8358  -14.7821  -16.1426 C   0  0  0  0  0  0  0  0  0  0  0  0
   17.8978  -15.2280  -15.0003 O   0  0  0  0  0  0  0  0  0  0  0  0
   18.9811  -11.1591  -16.2500 C   0  0  0  0  0  0  0  0  0  0  0  0
   20.1666  -11.1524  -16.7218 O   0  0  0  0  0  0  0  0  0  0  0  0
   17.0244  -15.4889  -17.0638 O   0  0  0  0  0  0  0  0  0  0  0  0
   18.2743   -9.9423  -16.3477 N   0  0  0  0  0  0  0  0  0  0  0  0
   18.8888   -8.7711  -16.9248 C   0  0  1  0  0  0  0  0  0  0  0  0
   17.9905   -8.1146  -17.9556 C   0  0  0  0  0  0  0  0  0  0  0  0
   18.7126   -6.5637  -18.5446 S   0  0  0  0  0  0  0  0  0  0  0  0
   19.2759   -7.7821  -15.8868 C   0  0  0  0  0  0  0  0  0  0  0  0
   18.4790   -7.4215  -14.9602 O   0  0  0  0  0  0  0  0  0  0  0  0
   22.4328   -5.9218  -14.8883 C   0  0  0  0  0  0  0  0  0  0  0  0
   20.9390   -6.1692  -14.8919 C   0  0  2  0  0  0  0  0  0  0  0  0
   20.5604   -7.1747  -15.8607 N   0  0  0  0  0  0  0  0  0  0  0  0
   20.2786   -4.8978  -15.2707 C   0  0  0  0  0  0  0  0  0  0  0  0
   19.7464   -4.7808  -16.4168 O   0  0  0  0  0  0  0  0  0  0  0  0
   20.2292   -3.8401  -14.4074 O   0  0  0  0  0  0  0  0  0  0  0  0
  2  1  1  6
  3  2  1  0
  3  4  1  0
  4  5  2  0
  6  2  1  0
  6  7  2  0
  8  4  1  0
  9  6  1  0
 10  9  1  0
 10 11  1  6
 12 11  1  0
 13 10  1  0
 14 13  2  0
 16 15  1  6
 16 17  1  0
 16 18  1  0
 17 13  1  0
 18 20  1  0
 19 18  2  0
M  END
$$$$
