CMI.pdb
     RDKit          3D

 23 22  0  0  1  0  0  0  0  0999 V2000
    6.3308  -19.7789   21.8438 N   0  0  0  0  0  0  0  0  0  0  0  0
    6.2873  -18.6251   22.6788 C   0  0  1  0  0  0  0  0  0  0  0  0
    6.2209  -19.0585   24.1360 C   0  0  0  0  0  0  0  0  0  0  0  0
    5.8941  -17.6076   25.1767 S   0  0  0  0  0  0  0  0  0  0  0  0
    7.4216  -17.7106   22.5243 C   0  0  0  0  0  0  0  0  0  0  0  0
    8.5799  -18.2006   22.4823 O   0  0  0  0  0  0  0  0  0  0  0  0
    8.2888  -12.3244   19.1498 C   0  0  0  0  0  0  0  0  0  0  0  0
    6.6653  -13.0197   19.6405 S   0  0  0  0  0  0  0  0  0  0  0  0
    6.9793  -14.4185   20.7461 C   0  0  0  0  0  0  0  0  0  0  0  0
    8.3028  -14.2459   21.4876 C   0  0  0  0  0  0  0  0  0  0  0  0
    8.4859  -15.4365   22.3738 C   0  0  2  0  0  0  0  0  0  0  0  0
    7.3259  -16.2959   22.4160 N   0  0  0  0  0  0  0  0  0  0  0  0
    8.9045  -15.1197   23.7422 C   0  0  0  0  0  0  0  0  0  0  0  0
    9.9636  -14.4624   23.8915 O   0  0  0  0  0  0  0  0  0  0  0  0
    5.8954  -12.6640   26.6558 C   0  0  0  0  0  0  0  0  0  0  0  0
    7.2522  -13.1036   26.1541 C   0  0  0  0  0  0  0  0  0  0  0  0
    7.8105  -14.2384   26.9864 C   0  0  2  0  0  0  0  0  0  0  0  0
    8.5104  -13.6141   28.1714 C   0  0  0  0  0  0  0  0  0  0  0  0
    8.7030  -15.1332   26.1949 C   0  0  2  0  0  0  0  0  0  0  0  0
    8.1938  -15.5056   24.9049 N   0  0  0  0  0  0  0  0  0  0  0  0
    9.2188  -16.2962   26.9702 C   0  0  0  0  0  0  0  0  0  0  0  0
    9.8022  -16.1719   28.0732 O   0  0  0  0  0  0  0  0  0  0  0  0
    9.0788  -17.6024   26.5049 O   0  0  0  0  0  0  0  0  0  0  0  0
  2  1  1  6
  3  2  1  0
  4  3  1  0
  5  2  1  0
  6  5  2  0
  8  7  1  0
  9  8  1  0
 10  9  1  0
 11 10  1  6
 11 12  1  0
 12  5  1  0
 13 20  1  0
 13 11  1  0
 14 13  2  0
 15 16  1  0
 16 17  1  0
 17 18  1  1
 19 17  1  0
 19 20  1  6
 21 23  1  0
 21 19  1  0
 22 21  2  0
M  END
$$$$
