CMI.pdb
     RDKit          3D

 23 22  0  0  1  0  0  0  0  0999 V2000
    8.9094  -16.1452   18.8816 N   0  0  0  0  0  0  0  0  0  0  0  0
    7.9260  -16.1070   19.9120 C   0  0  1  0  0  0  0  0  0  0  0  0
    7.3461  -17.5002   20.1084 C   0  0  0  0  0  0  0  0  0  0  0  0
    8.5815  -18.5524   20.9218 S   0  0  0  0  0  0  0  0  0  0  0  0
    8.4112  -15.6260   21.2082 C   0  0  0  0  0  0  0  0  0  0  0  0
    9.6529  -15.5007   21.3698 O   0  0  0  0  0  0  0  0  0  0  0  0
    7.5449  -11.7215   27.9683 C   0  0  0  0  0  0  0  0  0  0  0  0
    6.6008  -12.4714   26.5877 S   0  0  0  0  0  0  0  0  0  0  0  0
    7.7709  -13.3970   25.5622 C   0  0  0  0  0  0  0  0  0  0  0  0
    7.0955  -13.9244   24.2985 C   0  0  0  0  0  0  0  0  0  0  0  0
    8.1153  -14.7016   23.5287 C   0  0  2  0  0  0  0  0  0  0  0  0
    7.5885  -15.2834   22.3163 N   0  0  0  0  0  0  0  0  0  0  0  0
    8.8055  -15.7369   24.3031 C   0  0  0  0  0  0  0  0  0  0  0  0
    8.2042  -16.8224   24.4930 O   0  0  0  0  0  0  0  0  0  0  0  0
   13.9857  -16.8411   23.4534 C   0  0  0  0  0  0  0  0  0  0  0  0
   12.4967  -16.8744   23.7135 C   0  0  0  0  0  0  0  0  0  0  0  0
   12.1921  -16.8606   25.1965 C   0  0  2  0  0  0  0  0  0  0  0  0
   12.7822  -18.1235   25.7803 C   0  0  0  0  0  0  0  0  0  0  0  0
   10.7329  -16.7247   25.4719 C   0  0  2  0  0  0  0  0  0  0  0  0
   10.1041  -15.5934   24.8499 N   0  0  0  0  0  0  0  0  0  0  0  0
   10.3846  -16.8586   26.9143 C   0  0  0  0  0  0  0  0  0  0  0  0
   10.1010  -15.8750   27.6385 O   0  0  0  0  0  0  0  0  0  0  0  0
   10.3549  -18.1012   27.5448 O   0  0  0  0  0  0  0  0  0  0  0  0
  2  1  1  6
  3  2  1  0
  4  3  1  0
  5  2  1  0
  6  5  2  0
  8  7  1  0
  9  8  1  0
 10  9  1  0
 11 10  1  1
 11 12  1  0
 12  5  1  0
 13 20  1  0
 13 11  1  0
 14 13  2  0
 15 16  1  0
 16 17  1  0
 17 18  1  6
 19 17  1  0
 19 20  1  1
 21 23  1  0
 21 19  1  0
 22 21  2  0
M  END
$$$$
