CMI.pdb
     RDKit          3D

 23 22  0  0  1  0  0  0  0  0999 V2000
   10.1356  -15.7209   19.7081 N   0  0  0  0  0  0  0  0  0  0  0  0
    9.4141  -16.4698   20.6821 C   0  0  1  0  0  0  0  0  0  0  0  0
   10.0368  -17.8516   20.8195 C   0  0  0  0  0  0  0  0  0  0  0  0
    8.9512  -18.8984   21.8299 S   0  0  0  0  0  0  0  0  0  0  0  0
    9.3594  -15.8579   22.0123 C   0  0  0  0  0  0  0  0  0  0  0  0
   10.3730  -15.2354   22.4233 O   0  0  0  0  0  0  0  0  0  0  0  0
    5.4704  -11.7179   25.5142 C   0  0  0  0  0  0  0  0  0  0  0  0
    7.1251  -12.4365   25.8385 S   0  0  0  0  0  0  0  0  0  0  0  0
    6.9250  -14.2298   25.9856 C   0  0  0  0  0  0  0  0  0  0  0  0
    6.8213  -14.8852   24.6105 C   0  0  0  0  0  0  0  0  0  0  0  0
    8.2095  -15.1955   24.1490 C   0  0  2  0  0  0  0  0  0  0  0  0
    8.2438  -15.9070   22.8927 N   0  0  0  0  0  0  0  0  0  0  0  0
    9.0344  -15.9053   25.1308 C   0  0  0  0  0  0  0  0  0  0  0  0
    9.3722  -17.0850   24.8657 O   0  0  0  0  0  0  0  0  0  0  0  0
   10.8345  -13.2445   29.6104 C   0  0  0  0  0  0  0  0  0  0  0  0
   11.0672  -14.0619   28.3601 C   0  0  0  0  0  0  0  0  0  0  0  0
   10.6115  -15.4943   28.5408 C   0  0  2  0  0  0  0  0  0  0  0  0
   11.7083  -16.2156   29.2896 C   0  0  0  0  0  0  0  0  0  0  0  0
   10.2730  -16.1471   27.2435 C   0  0  2  0  0  0  0  0  0  0  0  0
    9.4749  -15.3485   26.3563 N   0  0  0  0  0  0  0  0  0  0  0  0
    9.7557  -17.5363   27.3936 C   0  0  0  0  0  0  0  0  0  0  0  0
    8.5488  -17.7907   27.6197 O   0  0  0  0  0  0  0  0  0  0  0  0
   10.5968  -18.6426   27.2894 O   0  0  0  0  0  0  0  0  0  0  0  0
  2  1  1  6
  3  2  1  0
  4  3  1  0
  5  2  1  0
  6  5  2  0
  8  7  1  0
  9  8  1  0
 10  9  1  0
 11 10  1  1
 11 12  1  0
 12  5  1  0
 13 20  1  0
 13 11  1  0
 14 13  2  0
 15 16  1  0
 16 17  1  0
 17 18  1  6
 19 17  1  0
 19 20  1  1
 21 23  1  0
 21 19  1  0
 22 21  2  0
M  END
$$$$
