CMI.pdb
     RDKit          3D

 23 22  0  0  1  0  0  0  0  0999 V2000
    9.8051  -17.2520   19.5944 N   0  0  0  0  0  0  0  0  0  0  0  0
    8.8326  -17.3270   20.6330 C   0  0  1  0  0  0  0  0  0  0  0  0
    8.7546  -18.7564   21.1495 C   0  0  0  0  0  0  0  0  0  0  0  0
   10.4070  -19.2921   21.6766 S   0  0  0  0  0  0  0  0  0  0  0  0
    9.0805  -16.4410   21.7733 C   0  0  0  0  0  0  0  0  0  0  0  0
   10.2049  -15.8825   21.8599 O   0  0  0  0  0  0  0  0  0  0  0  0
    6.6166  -11.1743   26.9947 C   0  0  0  0  0  0  0  0  0  0  0  0
    6.0619  -12.3805   25.7310 S   0  0  0  0  0  0  0  0  0  0  0  0
    7.5070  -13.3449   25.2218 C   0  0  0  0  0  0  0  0  0  0  0  0
    7.1357  -14.3649   24.1480 C   0  0  0  0  0  0  0  0  0  0  0  0
    8.3732  -15.1287   23.7993 C   0  0  2  0  0  0  0  0  0  0  0  0
    8.1468  -16.1529   22.8065 N   0  0  0  0  0  0  0  0  0  0  0  0
    9.0735  -15.7124   24.9469 C   0  0  0  0  0  0  0  0  0  0  0  0
    8.5544  -16.7122   25.5009 O   0  0  0  0  0  0  0  0  0  0  0  0
    9.4096  -13.3858   29.2468 C   0  0  0  0  0  0  0  0  0  0  0  0
   10.1413  -13.8407   28.0044 C   0  0  0  0  0  0  0  0  0  0  0  0
   10.2282  -15.3506   27.9333 C   0  0  2  0  0  0  0  0  0  0  0  0
   10.9957  -15.8067   29.1526 C   0  0  0  0  0  0  0  0  0  0  0  0
   10.8396  -15.8214   26.6573 C   0  0  2  0  0  0  0  0  0  0  0  0
   10.2953  -15.2236   25.4706 N   0  0  0  0  0  0  0  0  0  0  0  0
   10.9464  -17.3043   26.5603 C   0  0  0  0  0  0  0  0  0  0  0  0
   11.8640  -17.9566   27.1126 O   0  0  0  0  0  0  0  0  0  0  0  0
   10.0197  -18.0565   25.8408 O   0  0  0  0  0  0  0  0  0  0  0  0
  2  1  1  6
  3  2  1  0
  4  3  1  0
  5  2  1  0
  6  5  2  0
  8  7  1  0
  9  8  1  0
 10  9  1  0
 11 10  1  1
 11 12  1  0
 12  5  1  0
 13 20  1  0
 13 11  1  0
 14 13  2  0
 15 16  1  0
 16 17  1  0
 17 18  1  1
 19 17  1  0
 19 20  1  6
 21 23  1  0
 21 19  1  0
 22 21  2  0
M  END
$$$$
