CMI.pdb
     RDKit          3D

 23 22  0  0  1  0  0  0  0  0999 V2000
    8.9922  -15.3998   19.3466 N   0  0  0  0  0  0  0  0  0  0  0  0
    8.1563  -15.9281   20.3725 C   0  0  1  0  0  0  0  0  0  0  0  0
    8.1486  -17.4474   20.2852 C   0  0  0  0  0  0  0  0  0  0  0  0
    7.0965  -18.1163   21.6046 S   0  0  0  0  0  0  0  0  0  0  0  0
    8.5405  -15.5497   21.7349 C   0  0  0  0  0  0  0  0  0  0  0  0
    9.7597  -15.5939   22.0437 O   0  0  0  0  0  0  0  0  0  0  0  0
    6.8973  -10.8862   26.9110 C   0  0  0  0  0  0  0  0  0  0  0  0
    6.4587  -12.6461   27.1759 S   0  0  0  0  0  0  0  0  0  0  0  0
    7.6134  -13.6506   26.2089 C   0  0  0  0  0  0  0  0  0  0  0  0
    7.0312  -13.9905   24.8389 C   0  0  0  0  0  0  0  0  0  0  0  0
    8.0867  -14.7114   24.0627 C   0  0  2  0  0  0  0  0  0  0  0  0
    7.6417  -15.1306   22.7542 N   0  0  0  0  0  0  0  0  0  0  0  0
    8.6841  -15.8535   24.7604 C   0  0  0  0  0  0  0  0  0  0  0  0
    7.9839  -16.8868   24.8951 O   0  0  0  0  0  0  0  0  0  0  0  0
   13.2486  -18.1021   23.5211 C   0  0  0  0  0  0  0  0  0  0  0  0
   11.8671  -17.6948   23.9808 C   0  0  0  0  0  0  0  0  0  0  0  0
   11.8086  -17.5312   25.4848 C   0  0  2  0  0  0  0  0  0  0  0  0
   12.1942  -18.8617   26.0890 C   0  0  0  0  0  0  0  0  0  0  0  0
   10.4752  -17.0514   25.9492 C   0  0  2  0  0  0  0  0  0  0  0  0
    9.9971  -15.8680   25.2912 N   0  0  0  0  0  0  0  0  0  0  0  0
   10.3529  -16.9775   27.4322 C   0  0  0  0  0  0  0  0  0  0  0  0
   10.5435  -17.9662   28.1794 O   0  0  0  0  0  0  0  0  0  0  0  0
   10.0154  -15.7892   28.0775 O   0  0  0  0  0  0  0  0  0  0  0  0
  2  1  1  6
  3  2  1  0
  4  3  1  0
  5  2  1  0
  6  5  2  0
  8  7  1  0
  9  8  1  0
 10  9  1  0
 11 10  1  1
 11 12  1  0
 12  5  1  0
 13 20  1  0
 13 11  1  0
 14 13  2  0
 15 16  1  0
 16 17  1  0
 17 18  1  1
 19 17  1  0
 19 20  1  6
 21 23  1  0
 21 19  1  0
 22 21  2  0
M  END
$$$$
