CMI.pdb
     RDKit          3D

 23 22  0  0  1  0  0  0  0  0999 V2000
    6.6702  -20.8305   23.7914 N   0  0  0  0  0  0  0  0  0  0  0  0
    6.1998  -19.4923   23.6563 C   0  0  1  0  0  0  0  0  0  0  0  0
    5.7292  -18.9834   25.0111 C   0  0  0  0  0  0  0  0  0  0  0  0
    7.1219  -19.0077   26.1751 S   0  0  0  0  0  0  0  0  0  0  0  0
    7.1842  -18.5444   23.1278 C   0  0  0  0  0  0  0  0  0  0  0  0
    8.3941  -18.8901   23.1109 O   0  0  0  0  0  0  0  0  0  0  0  0
    7.4805  -11.2048   20.9371 C   0  0  0  0  0  0  0  0  0  0  0  0
    7.7872  -12.8768   20.2514 S   0  0  0  0  0  0  0  0  0  0  0  0
    7.2617  -14.0840   21.4940 C   0  0  0  0  0  0  0  0  0  0  0  0
    7.4403  -15.5115   20.9825 C   0  0  0  0  0  0  0  0  0  0  0  0
    7.9045  -16.3507   22.1299 C   0  0  2  0  0  0  0  0  0  0  0  0
    6.8867  -17.2480   22.6248 N   0  0  0  0  0  0  0  0  0  0  0  0
    8.4695  -15.5934   23.2504 C   0  0  0  0  0  0  0  0  0  0  0  0
    9.4913  -14.8985   23.0293 O   0  0  0  0  0  0  0  0  0  0  0  0
    5.7273  -12.3216   26.2398 C   0  0  0  0  0  0  0  0  0  0  0  0
    6.7595  -13.0900   25.4460 C   0  0  0  0  0  0  0  0  0  0  0  0
    7.6518  -13.9154   26.3485 C   0  0  2  0  0  0  0  0  0  0  0  0
    8.3859  -12.9481   27.2481 C   0  0  0  0  0  0  0  0  0  0  0  0
    8.5731  -14.7986   25.5772 C   0  0  2  0  0  0  0  0  0  0  0  0
    7.9388  -15.5937   24.5635 N   0  0  0  0  0  0  0  0  0  0  0  0
    9.4983  -15.5890   26.4368 C   0  0  0  0  0  0  0  0  0  0  0  0
   10.2337  -15.0631   27.3057 O   0  0  0  0  0  0  0  0  0  0  0  0
    9.5975  -16.9742   26.3198 O   0  0  0  0  0  0  0  0  0  0  0  0
  2  1  1  1
  3  2  1  0
  4  3  1  0
  5  2  1  0
  6  5  2  0
  8  7  1  0
  9  8  1  0
 10  9  1  0
 11 10  1  6
 11 12  1  0
 12  5  1  0
 13 20  1  0
 13 11  1  0
 14 13  2  0
 15 16  1  0
 16 17  1  0
 17 18  1  6
 19 17  1  0
 19 20  1  1
 21 23  1  0
 21 19  1  0
 22 21  2  0
M  END
$$$$
