CMI.pdb
     RDKit          3D

 23 22  0  0  1  0  0  0  0  0999 V2000
    9.4360  -18.0021   20.1990 N   0  0  0  0  0  0  0  0  0  0  0  0
    8.9099  -18.1074   21.5190 C   0  0  1  0  0  0  0  0  0  0  0  0
    9.5770  -19.2716   22.2371 C   0  0  0  0  0  0  0  0  0  0  0  0
    8.9409  -20.8326   21.5636 S   0  0  0  0  0  0  0  0  0  0  0  0
    9.0721  -16.9072   22.3436 C   0  0  0  0  0  0  0  0  0  0  0  0
   10.1670  -16.2893   22.2865 O   0  0  0  0  0  0  0  0  0  0  0  0
    6.2695  -10.8953   26.5743 C   0  0  0  0  0  0  0  0  0  0  0  0
    5.8365  -12.5701   25.9683 S   0  0  0  0  0  0  0  0  0  0  0  0
    7.3071  -13.2619   25.1707 C   0  0  0  0  0  0  0  0  0  0  0  0
    7.0230  -14.6519   24.6064 C   0  0  0  0  0  0  0  0  0  0  0  0
    8.2709  -15.1354   23.9391 C   0  0  2  0  0  0  0  0  0  0  0  0
    8.0851  -16.3717   23.2160 N   0  0  0  0  0  0  0  0  0  0  0  0
    9.4283  -15.2637   24.8292 C   0  0  0  0  0  0  0  0  0  0  0  0
   10.0582  -14.2181   25.1224 O   0  0  0  0  0  0  0  0  0  0  0  0
   10.2107  -13.5130   28.9523 C   0  0  0  0  0  0  0  0  0  0  0  0
   10.7142  -14.2711   27.7450 C   0  0  0  0  0  0  0  0  0  0  0  0
   10.1452  -15.6731   27.6932 C   0  0  2  0  0  0  0  0  0  0  0  0
   10.4136  -16.3086   29.0378 C   0  0  0  0  0  0  0  0  0  0  0  0
   10.7002  -16.4663   26.5590 C   0  0  2  0  0  0  0  0  0  0  0  0
    9.8813  -16.4875   25.3797 N   0  0  0  0  0  0  0  0  0  0  0  0
   11.1755  -17.8211   26.9568 C   0  0  0  0  0  0  0  0  0  0  0  0
   12.0475  -18.0028   27.8395 O   0  0  0  0  0  0  0  0  0  0  0  0
   10.6698  -18.9752   26.3612 O   0  0  0  0  0  0  0  0  0  0  0  0
  2  1  1  6
  3  2  1  0
  4  3  1  0
  5  2  1  0
  6  5  2  0
  8  7  1  0
  9  8  1  0
 10  9  1  0
 11 10  1  1
 11 12  1  0
 12  5  1  0
 13 20  1  0
 13 11  1  0
 14 13  2  0
 15 16  1  0
 16 17  1  0
 17 18  1  1
 19 17  1  0
 19 20  1  6
 21 23  1  0
 21 19  1  0
 22 21  2  0
M  END
$$$$
