CMI.pdb
     RDKit          3D

 23 22  0  0  1  0  0  0  0  0999 V2000
    9.6732  -16.3606   19.3322 N   0  0  0  0  0  0  0  0  0  0  0  0
    8.9412  -16.7458   20.4924 C   0  0  1  0  0  0  0  0  0  0  0  0
    9.1560  -18.2292   20.7554 C   0  0  0  0  0  0  0  0  0  0  0  0
    8.0916  -18.7526   22.1296 S   0  0  0  0  0  0  0  0  0  0  0  0
    9.2876  -16.0098   21.7110 C   0  0  0  0  0  0  0  0  0  0  0  0
   10.4883  -15.6743   21.8829 O   0  0  0  0  0  0  0  0  0  0  0  0
    6.1957  -11.7783   25.7626 C   0  0  0  0  0  0  0  0  0  0  0  0
    5.7957  -13.5029   26.2371 S   0  0  0  0  0  0  0  0  0  0  0  0
    6.6459  -14.6023   25.0769 C   0  0  0  0  0  0  0  0  0  0  0  0
    7.6683  -13.8347   24.2421 C   0  0  0  0  0  0  0  0  0  0  0  0
    8.7439  -14.7948   23.8453 C   0  0  2  0  0  0  0  0  0  0  0  0
    8.3711  -15.6359   22.7320 N   0  0  0  0  0  0  0  0  0  0  0  0
    9.2478  -15.6319   24.9378 C   0  0  0  0  0  0  0  0  0  0  0  0
    9.4034  -16.8568   24.7109 O   0  0  0  0  0  0  0  0  0  0  0  0
   10.8067  -13.1643   29.5282 C   0  0  0  0  0  0  0  0  0  0  0  0
   11.1223  -14.0481   28.3428 C   0  0  0  0  0  0  0  0  0  0  0  0
   10.5066  -15.4227   28.4961 C   0  0  2  0  0  0  0  0  0  0  0  0
   11.4766  -16.2534   29.3041 C   0  0  0  0  0  0  0  0  0  0  0  0
   10.1729  -16.0418   27.1811 C   0  0  2  0  0  0  0  0  0  0  0  0
    9.5704  -15.1504   26.2301 N   0  0  0  0  0  0  0  0  0  0  0  0
    9.4457  -17.3367   27.3005 C   0  0  0  0  0  0  0  0  0  0  0  0
    8.1951  -17.4191   27.2628 O   0  0  0  0  0  0  0  0  0  0  0  0
   10.1257  -18.5423   27.4629 O   0  0  0  0  0  0  0  0  0  0  0  0
  2  1  1  6
  3  2  1  0
  4  3  1  0
  5  2  1  0
  6  5  2  0
  8  7  1  0
  9  8  1  0
 10  9  1  0
 11 10  1  1
 11 12  1  0
 12  5  1  0
 13 20  1  0
 13 11  1  0
 14 13  2  0
 15 16  1  0
 16 17  1  0
 17 18  1  6
 19 17  1  0
 19 20  1  6
 21 23  1  0
 21 19  1  0
 22 21  2  0
M  END
$$$$
