RQT.pdb
     RDKit          3D

 28 27  0  0  1  0  0  0  0  0999 V2000
   28.8771  -26.9014  -15.7947 N   0  0  0  0  0  0  0  0  0  0  0  0
   29.1134  -26.0706  -16.9497 C   0  0  0  0  0  0  0  0  0  0  0  0
   29.8379  -26.5053  -17.8988 N   0  0  0  0  0  0  0  0  0  0  0  0
   28.5485  -24.7756  -17.0419 N   0  0  0  0  0  0  0  0  0  0  0  0
   27.0916  -24.6662  -17.2238 C   0  0  0  0  0  0  0  0  0  0  0  0
   26.4612  -25.1359  -15.9451 C   0  0  0  0  0  0  0  0  0  0  0  0
   25.0914  -24.6433  -15.6646 C   0  0  0  0  0  0  0  0  0  0  0  0
   24.6448  -23.4271  -16.4187 C   0  0  2  0  0  0  0  0  0  0  0  0
   25.6980  -22.4663  -16.4889 N   0  0  0  0  0  0  0  0  0  0  0  0
   23.4532  -22.8854  -15.6961 C   0  0  0  0  0  0  0  0  0  0  0  0
   22.5103  -23.7015  -15.4498 O   0  0  0  0  0  0  0  0  0  0  0  0
   30.1885  -26.0150  -18.7217 N   0  0  0  0  0  0  0  0  0  0  0  0
   19.7670  -21.0488  -11.8714 C   0  0  0  0  0  0  0  0  0  0  0  0
   20.7853  -20.0745  -11.6421 O   0  0  0  0  0  0  0  0  0  0  0  0
   21.0833  -19.8608  -10.4610 C   0  0  0  0  0  0  0  0  0  0  0  0
   21.3746  -19.4279  -12.7843 C   0  0  0  0  0  0  0  0  0  0  0  0
   22.4649  -20.0688  -13.5366 C   0  0  1  0  0  0  0  0  0  0  0  0
   22.1285  -21.0899  -14.5580 N   0  0  0  0  0  0  0  0  0  0  0  0
   23.3087  -21.5618  -15.2799 C   0  0  0  0  0  0  0  0  0  0  0  0
   20.9767  -20.8223  -15.4202 O   0  0  0  0  0  0  0  0  0  0  0  0
   21.1049  -20.0325  -16.3833 C   0  0  0  0  0  0  0  0  0  0  0  0
   16.2260  -21.9484  -16.5150 C   0  0  2  0  0  0  0  0  0  0  0  0
   17.4569  -22.2095  -15.7077 O   0  0  0  0  0  0  0  0  0  0  0  0
   17.9902  -23.4298  -16.0907 C   0  0  1  0  0  0  0  0  0  0  0  0
   18.5243  -21.1466  -15.9392 N   0  0  0  0  0  0  0  0  0  0  0  0
   19.7262  -21.4344  -15.1896 C   0  0  0  0  0  0  0  0  0  0  0  0
   18.0062  -19.7949  -15.6742 O   0  0  0  0  0  0  0  0  0  0  0  0
   17.9666  -19.3465  -14.5144 O   0  0  0  0  0  0  0  0  0  0  0  0
  2  1  1  0
  3  2  2  0
  4  2  1  0
  5  6  1  0
  5  4  1  0
  6  7  1  0
  8  7  1  0
  8  9  1  1
 10  8  1  0
 10 11  2  0
 12 13  1  0
 13 14  2  0
 13 15  1  0
 15 16  1  0
 17 16  1  1
 17 18  1  0
 18 10  1  0
 19 17  1  0
 20 19  2  0
 22 21  1  1
 22 24  1  0
 23 22  1  0
 24 26  1  0
 24 25  1  1
 25 19  1  0
 26 28  1  0
 27 26  2  0
M  END
$$$$
