RQT.pdb
     RDKit          3D

 28 27  0  0  1  0  0  0  0  0999 V2000
   24.9289  -16.8833  -22.5187 N   0  0  0  0  0  0  0  0  0  0  0  0
   26.0892  -16.9182  -21.6626 C   0  0  0  0  0  0  0  0  0  0  0  0
   27.1825  -16.4111  -22.0653 N   0  0  0  0  0  0  0  0  0  0  0  0
   26.0275  -17.5097  -20.3778 N   0  0  0  0  0  0  0  0  0  0  0  0
   24.7234  -18.0008  -19.9026 C   0  0  0  0  0  0  0  0  0  0  0  0
   24.8364  -19.4942  -19.8008 C   0  0  0  0  0  0  0  0  0  0  0  0
   24.5166  -20.0920  -18.4826 C   0  0  0  0  0  0  0  0  0  0  0  0
   25.6293  -20.1465  -17.4794 C   0  0  2  0  0  0  0  0  0  0  0  0
   26.6552  -21.0373  -17.9168 N   0  0  0  0  0  0  0  0  0  0  0  0
   25.0239  -20.5962  -16.1884 C   0  0  0  0  0  0  0  0  0  0  0  0
   24.2360  -21.5924  -16.2390 O   0  0  0  0  0  0  0  0  0  0  0  0
   28.0846  -16.3595  -21.5920 N   0  0  0  0  0  0  0  0  0  0  0  0
   26.4601  -22.0243  -10.7609 C   0  0  0  0  0  0  0  0  0  0  0  0
   25.2514  -21.3832  -10.3524 O   0  0  0  0  0  0  0  0  0  0  0  0
   24.7514  -21.7804   -9.2932 C   0  0  0  0  0  0  0  0  0  0  0  0
   24.7183  -20.3432  -11.1914 C   0  0  0  0  0  0  0  0  0  0  0  0
   25.3158  -20.0502  -12.5039 C   0  0  1  0  0  0  0  0  0  0  0  0
   24.5714  -20.4238  -13.7308 N   0  0  0  0  0  0  0  0  0  0  0  0
   25.2625  -20.0034  -14.9483 C   0  0  0  0  0  0  0  0  0  0  0  0
   23.1318  -20.1610  -13.7482 O   0  0  0  0  0  0  0  0  0  0  0  0
   22.7262  -18.9776  -13.6964 C   0  0  0  0  0  0  0  0  0  0  0  0
   20.2169  -23.4714  -13.8176 C   0  0  2  0  0  0  0  0  0  0  0  0
   20.0414  -22.1632  -14.5195 O   0  0  0  0  0  0  0  0  0  0  0  0
   18.6914  -21.8525  -14.5515 C   0  0  1  0  0  0  0  0  0  0  0  0
   20.7587  -21.0295  -13.7964 N   0  0  0  0  0  0  0  0  0  0  0  0
   22.1923  -21.2115  -13.8218 C   0  0  0  0  0  0  0  0  0  0  0  0
   20.2391  -20.8459  -12.4318 O   0  0  0  0  0  0  0  0  0  0  0  0
   20.9128  -21.1908  -11.4444 O   0  0  0  0  0  0  0  0  0  0  0  0
  2  1  1  0
  3  2  2  0
  4  2  1  0
  5  6  1  0
  5  4  1  0
  6  7  1  0
  8  7  1  0
  8  9  1  6
 10  8  1  0
 10 11  2  0
 12 13  1  0
 13 14  2  0
 13 15  1  0
 15 16  1  0
 17 16  1  6
 17 18  1  0
 18 10  1  0
 19 17  1  0
 20 19  2  0
 22 21  1  6
 22 24  1  0
 23 22  1  0
 24 26  1  0
 24 25  1  6
 25 19  1  0
 26 28  1  0
 27 26  2  0
M  END
$$$$
