RQT.pdb
     RDKit          3D

 28 27  0  0  1  0  0  0  0  0999 V2000
   27.6236  -23.6354  -18.1675 N   0  0  0  0  0  0  0  0  0  0  0  0
   26.7912  -24.1604  -17.1132 C   0  0  0  0  0  0  0  0  0  0  0  0
   26.2795  -25.3173  -17.2337 N   0  0  0  0  0  0  0  0  0  0  0  0
   26.5357  -23.4045  -15.9436 N   0  0  0  0  0  0  0  0  0  0  0  0
   26.6346  -21.9382  -16.0306 C   0  0  0  0  0  0  0  0  0  0  0  0
   25.3373  -21.4521  -16.6084 C   0  0  0  0  0  0  0  0  0  0  0  0
   25.2246  -19.9927  -16.8425 C   0  0  0  0  0  0  0  0  0  0  0  0
   24.4478  -19.2056  -15.8304 C   0  0  2  0  0  0  0  0  0  0  0  0
   24.3365  -19.9334  -14.6077 N   0  0  0  0  0  0  0  0  0  0  0  0
   23.1066  -18.9338  -16.4329 C   0  0  0  0  0  0  0  0  0  0  0  0
   23.0921  -18.3981  -17.5855 O   0  0  0  0  0  0  0  0  0  0  0  0
   25.6607  -25.8203  -16.5976 N   0  0  0  0  0  0  0  0  0  0  0  0
   17.7586  -22.2247  -16.2098 C   0  0  0  0  0  0  0  0  0  0  0  0
   18.1210  -21.5321  -15.0150 O   0  0  0  0  0  0  0  0  0  0  0  0
   17.5255  -21.8685  -13.9845 C   0  0  0  0  0  0  0  0  0  0  0  0
   19.1334  -20.5136  -15.1021 C   0  0  0  0  0  0  0  0  0  0  0  0
   19.6776  -20.0983  -16.4047 C   0  0  1  0  0  0  0  0  0  0  0  0
   20.6020  -18.9400  -16.4600 N   0  0  0  0  0  0  0  0  0  0  0  0
   21.8863  -19.2246  -15.8227 C   0  0  0  0  0  0  0  0  0  0  0  0
   20.0526  -17.6266  -16.1209 O   0  0  0  0  0  0  0  0  0  0  0  0
   20.0734  -17.2450  -14.9286 C   0  0  0  0  0  0  0  0  0  0  0  0
   18.5735  -14.8079  -19.2299 C   0  0  2  0  0  0  0  0  0  0  0  0
   19.3001  -14.4912  -17.9623 O   0  0  0  0  0  0  0  0  0  0  0  0
   18.9276  -13.2252  -17.5398 C   0  0  1  0  0  0  0  0  0  0  0  0
   18.9519  -15.4705  -16.8477 N   0  0  0  0  0  0  0  0  0  0  0  0
   19.5007  -16.7821  -17.1077 C   0  0  0  0  0  0  0  0  0  0  0  0
   17.5026  -15.5072  -16.5949 O   0  0  0  0  0  0  0  0  0  0  0  0
   16.8598  -16.5626  -16.7387 O   0  0  0  0  0  0  0  0  0  0  0  0
  2  1  1  0
  3  2  2  0
  4  2  1  0
  5  6  1  0
  5  4  1  0
  6  7  1  0
  8  7  1  0
  8  9  1  1
 10  8  1  0
 10 11  2  0
 12 13  1  0
 13 14  2  0
 13 15  1  0
 15 16  1  0
 17 16  1  6
 17 18  1  0
 18 10  1  0
 19 17  1  0
 20 19  2  0
 22 21  1  6
 22 24  1  0
 23 22  1  0
 24 26  1  0
 24 25  1  6
 25 19  1  0
 26 28  1  0
 27 26  2  0
M  END
$$$$
