RQT.pdb
     RDKit          3D

 28 27  0  0  1  0  0  0  0  0999 V2000
   31.9646  -20.8212  -11.0899 N   0  0  0  0  0  0  0  0  0  0  0  0
   31.2815  -21.9915  -10.5957 C   0  0  0  0  0  0  0  0  0  0  0  0
   31.9048  -22.8190   -9.8600 N   0  0  0  0  0  0  0  0  0  0  0  0
   29.9242  -22.2318  -10.9186 N   0  0  0  0  0  0  0  0  0  0  0  0
   29.0366  -21.0700  -11.0920 C   0  0  0  0  0  0  0  0  0  0  0  0
   28.9264  -20.8286  -12.5695 C   0  0  0  0  0  0  0  0  0  0  0  0
   27.5600  -20.6154  -13.1034 C   0  0  0  0  0  0  0  0  0  0  0  0
   26.6213  -21.7824  -13.0384 C   0  0  2  0  0  0  0  0  0  0  0  0
   27.0103  -22.7910  -13.9704 N   0  0  0  0  0  0  0  0  0  0  0  0
   25.2552  -21.2538  -13.3382 C   0  0  0  0  0  0  0  0  0  0  0  0
   24.7939  -21.4792  -14.5010 O   0  0  0  0  0  0  0  0  0  0  0  0
   31.5644  -23.6691   -9.4106 N   0  0  0  0  0  0  0  0  0  0  0  0
   21.2839  -21.8657   -8.7514 C   0  0  0  0  0  0  0  0  0  0  0  0
   22.4565  -21.0518   -8.7193 O   0  0  0  0  0  0  0  0  0  0  0  0
   22.9069  -20.7834   -7.5991 C   0  0  0  0  0  0  0  0  0  0  0  0
   23.0129  -20.6142   -9.9719 C   0  0  0  0  0  0  0  0  0  0  0  0
   22.3708  -20.9665  -11.2482 C   0  0  1  0  0  0  0  0  0  0  0  0
   23.0037  -20.5272  -12.5153 N   0  0  0  0  0  0  0  0  0  0  0  0
   24.4635  -20.5390  -12.4392 C   0  0  0  0  0  0  0  0  0  0  0  0
   22.4556  -19.3334  -13.1603 O   0  0  0  0  0  0  0  0  0  0  0  0
   22.6014  -18.2192  -12.6082 C   0  0  0  0  0  0  0  0  0  0  0  0
   23.0554  -17.9737  -16.7062 C   0  0  2  0  0  0  0  0  0  0  0  0
   21.5946  -18.2451  -16.5413 O   0  0  0  0  0  0  0  0  0  0  0  0
   21.3081  -19.4870  -17.0853 C   0  0  2  0  0  0  0  0  0  0  0  0
   21.1848  -18.2787  -15.0738 N   0  0  0  0  0  0  0  0  0  0  0  0
   21.7669  -19.4111  -14.3897 C   0  0  0  0  0  0  0  0  0  0  0  0
   19.7224  -18.2199  -14.9204 O   0  0  0  0  0  0  0  0  0  0  0  0
   19.1100  -19.1235  -14.3236 O   0  0  0  0  0  0  0  0  0  0  0  0
  2  1  1  0
  3  2  2  0
  4  2  1  0
  5  6  1  0
  5  4  1  0
  6  7  1  0
  8  7  1  0
  8  9  1  6
 10  8  1  0
 10 11  2  0
 12 13  1  0
 13 14  2  0
 13 15  1  0
 15 16  1  0
 17 16  1  6
 17 18  1  0
 18 10  1  0
 19 17  1  0
 20 19  2  0
 22 21  1  6
 22 24  1  0
 23 22  1  0
 24 26  1  0
 24 25  1  1
 25 19  1  0
 26 28  1  0
 27 26  2  0
M  END
$$$$
