RQT.pdb
     RDKit          3D

 28 27  0  0  1  0  0  0  0  0999 V2000
   28.8153  -21.6821  -13.0726 N   0  0  0  0  0  0  0  0  0  0  0  0
   29.5359  -21.1907  -11.9238 C   0  0  0  0  0  0  0  0  0  0  0  0
   30.6832  -21.6645  -11.6520 N   0  0  0  0  0  0  0  0  0  0  0  0
   28.9828  -20.1862  -11.0935 N   0  0  0  0  0  0  0  0  0  0  0  0
   27.6281  -19.6995  -11.4026 C   0  0  0  0  0  0  0  0  0  0  0  0
   26.6729  -20.7618  -10.9419 C   0  0  0  0  0  0  0  0  0  0  0  0
   25.2336  -20.5073  -11.1889 C   0  0  0  0  0  0  0  0  0  0  0  0
   24.5833  -21.3119  -12.2739 C   0  0  2  0  0  0  0  0  0  0  0  0
   25.5645  -21.8206  -13.1771 N   0  0  0  0  0  0  0  0  0  0  0  0
   23.6181  -20.4030  -12.9649 C   0  0  0  0  0  0  0  0  0  0  0  0
   22.7177  -19.8665  -12.2456 O   0  0  0  0  0  0  0  0  0  0  0  0
   31.3107  -21.4371  -10.8807 N   0  0  0  0  0  0  0  0  0  0  0  0
   25.9551  -17.8202  -17.2451 C   0  0  0  0  0  0  0  0  0  0  0  0
   25.9309  -17.3459  -15.8986 O   0  0  0  0  0  0  0  0  0  0  0  0
   26.9885  -16.8736  -15.4649 C   0  0  0  0  0  0  0  0  0  0  0  0
   24.6987  -17.4535  -15.1637 C   0  0  0  0  0  0  0  0  0  0  0  0
   23.5254  -18.1212  -15.7492 C   0  0  2  0  0  0  0  0  0  0  0  0
   22.7698  -19.0966  -14.9265 N   0  0  0  0  0  0  0  0  0  0  0  0
   23.6390  -20.1082  -14.3283 C   0  0  0  0  0  0  0  0  0  0  0  0
   21.5356  -19.6398  -15.4950 O   0  0  0  0  0  0  0  0  0  0  0  0
   21.4078  -19.6932  -16.7394 C   0  0  0  0  0  0  0  0  0  0  0  0
   19.8769  -23.0324  -14.8178 C   0  0  2  0  0  0  0  0  0  0  0  0
   18.8923  -21.9584  -14.4830 O   0  0  0  0  0  0  0  0  0  0  0  0
   18.9157  -21.7437  -13.1142 C   0  0  2  0  0  0  0  0  0  0  0  0
   19.2377  -20.6388  -15.1628 N   0  0  0  0  0  0  0  0  0  0  0  0
   20.4876  -20.1041  -14.6718 C   0  0  0  0  0  0  0  0  0  0  0  0
   18.1327  -19.6725  -15.0581 O   0  0  0  0  0  0  0  0  0  0  0  0
   18.2901  -18.5902  -14.4652 O   0  0  0  0  0  0  0  0  0  0  0  0
  2  1  1  0
  3  2  2  0
  4  2  1  0
  5  6  1  0
  5  4  1  0
  6  7  1  0
  8  7  1  0
  8  9  1  6
 10  8  1  0
 10 11  2  0
 12 13  1  0
 13 14  2  0
 13 15  1  0
 15 16  1  0
 17 16  1  1
 17 18  1  0
 18 10  1  0
 19 17  1  0
 20 19  2  0
 22 21  1  1
 22 24  1  0
 23 22  1  0
 24 26  1  0
 24 25  1  6
 25 19  1  0
 26 28  1  0
 27 26  2  0
M  END
$$$$
