RQT.pdb
     RDKit          3D

 28 27  0  0  1  0  0  0  0  0999 V2000
   30.0148  -22.0899  -10.7944 N   0  0  0  0  0  0  0  0  0  0  0  0
   29.2522  -21.0626  -11.4602 C   0  0  0  0  0  0  0  0  0  0  0  0
   29.5592  -20.7203  -12.6448 N   0  0  0  0  0  0  0  0  0  0  0  0
   28.1644  -20.4291  -10.8123 N   0  0  0  0  0  0  0  0  0  0  0  0
   27.3201  -21.2415   -9.9208 C   0  0  0  0  0  0  0  0  0  0  0  0
   26.3397  -21.9653  -10.7972 C   0  0  0  0  0  0  0  0  0  0  0  0
   25.3505  -21.1260  -11.5145 C   0  0  0  0  0  0  0  0  0  0  0  0
   24.3644  -21.8431  -12.3867 C   0  0  2  0  0  0  0  0  0  0  0  0
   24.7948  -23.1812  -12.6345 N   0  0  0  0  0  0  0  0  0  0  0  0
   24.2574  -21.0560  -13.6535 C   0  0  0  0  0  0  0  0  0  0  0  0
   25.0124  -21.4072  -14.6139 O   0  0  0  0  0  0  0  0  0  0  0  0
   29.1518  -19.9945  -13.2345 N   0  0  0  0  0  0  0  0  0  0  0  0
   19.6165  -17.0072  -15.5974 C   0  0  0  0  0  0  0  0  0  0  0  0
   20.5957  -16.9490  -16.6349 O   0  0  0  0  0  0  0  0  0  0  0  0
   20.3125  -16.2529  -17.6173 C   0  0  0  0  0  0  0  0  0  0  0  0
   21.8146  -17.6929  -16.4595 C   0  0  0  0  0  0  0  0  0  0  0  0
   22.0392  -18.5016  -15.2508 C   0  0  1  0  0  0  0  0  0  0  0  0
   23.3030  -19.2669  -15.1240 N   0  0  0  0  0  0  0  0  0  0  0  0
   23.3961  -19.9763  -13.8493 C   0  0  0  0  0  0  0  0  0  0  0  0
   24.5398  -18.5890  -15.5143 O   0  0  0  0  0  0  0  0  0  0  0  0
   25.0234  -17.7167  -14.7574 C   0  0  0  0  0  0  0  0  0  0  0  0
   27.9902  -19.8607  -16.1033 C   0  0  2  0  0  0  0  0  0  0  0  0
   27.5300  -19.2622  -17.3936 O   0  0  0  0  0  0  0  0  0  0  0  0
   27.0383  -20.2735  -18.2034 C   0  0  2  0  0  0  0  0  0  0  0  0
   26.4077  -18.2527  -17.1835 N   0  0  0  0  0  0  0  0  0  0  0  0
   25.1983  -18.8970  -16.7239 C   0  0  0  0  0  0  0  0  0  0  0  0
   26.1866  -17.4337  -18.3861 O   0  0  0  0  0  0  0  0  0  0  0  0
   25.0781  -17.4216  -18.9507 O   0  0  0  0  0  0  0  0  0  0  0  0
  2  1  1  0
  3  2  2  0
  4  2  1  0
  5  6  1  0
  5  4  1  0
  6  7  1  0
  8  7  1  0
  8  9  1  6
 10  8  1  0
 10 11  2  0
 12 13  1  0
 13 14  2  0
 13 15  1  0
 15 16  1  0
 17 16  1  6
 17 18  1  0
 18 10  1  0
 19 17  1  0
 20 19  2  0
 22 21  1  6
 22 24  1  0
 23 22  1  0
 24 26  1  0
 24 25  1  6
 25 19  1  0
 26 28  1  0
 27 26  2  0
M  END
$$$$
