RQT.pdb
     RDKit          3D

 28 27  0  0  1  0  0  0  0  0999 V2000
   27.7730  -22.0265  -10.2475 N   0  0  0  0  0  0  0  0  0  0  0  0
   26.7761  -21.2751   -9.5252 C   0  0  0  0  0  0  0  0  0  0  0  0
   26.8385  -21.2044   -8.2580 N   0  0  0  0  0  0  0  0  0  0  0  0
   25.7274  -20.6135  -10.2086 N   0  0  0  0  0  0  0  0  0  0  0  0
   25.9011  -20.3376  -11.6443 C   0  0  0  0  0  0  0  0  0  0  0  0
   25.3179  -21.5078  -12.3817 C   0  0  0  0  0  0  0  0  0  0  0  0
   24.6295  -21.2063  -13.6594 C   0  0  0  0  0  0  0  0  0  0  0  0
   23.4854  -20.2397  -13.5969 C   0  0  2  0  0  0  0  0  0  0  0  0
   22.7182  -20.4474  -12.4114 N   0  0  0  0  0  0  0  0  0  0  0  0
   22.6663  -20.4612  -14.8281 C   0  0  0  0  0  0  0  0  0  0  0  0
   23.2762  -20.4059  -15.9419 O   0  0  0  0  0  0  0  0  0  0  0  0
   26.2103  -20.7366   -7.6046 N   0  0  0  0  0  0  0  0  0  0  0  0
   18.3143  -24.6373  -15.8179 C   0  0  0  0  0  0  0  0  0  0  0  0
   19.7200  -24.6604  -15.5687 O   0  0  0  0  0  0  0  0  0  0  0  0
   20.2058  -25.7579  -15.2703 C   0  0  0  0  0  0  0  0  0  0  0  0
   20.4491  -23.4252  -15.6818 C   0  0  0  0  0  0  0  0  0  0  0  0
   19.7695  -22.1793  -16.0705 C   0  0  2  0  0  0  0  0  0  0  0  0
   20.5398  -20.9121  -16.0725 N   0  0  0  0  0  0  0  0  0  0  0  0
   21.2958  -20.7208  -14.8361 C   0  0  0  0  0  0  0  0  0  0  0  0
   19.8487  -19.7077  -16.5345 O   0  0  0  0  0  0  0  0  0  0  0  0
   19.4839  -18.8529  -15.6956 C   0  0  0  0  0  0  0  0  0  0  0  0
   20.7613  -17.5254  -19.8125 C   0  0  2  0  0  0  0  0  0  0  0  0
   19.3364  -17.9778  -19.8198 O   0  0  0  0  0  0  0  0  0  0  0  0
   19.2306  -19.1036  -20.6208 C   0  0  2  0  0  0  0  0  0  0  0  0
   18.8535  -18.3570  -18.4249 N   0  0  0  0  0  0  0  0  0  0  0  0
   19.5848  -19.4895  -17.9036 C   0  0  0  0  0  0  0  0  0  0  0  0
   17.3971  -18.5667  -18.3967 O   0  0  0  0  0  0  0  0  0  0  0  0
   16.9221  -19.6865  -18.1359 O   0  0  0  0  0  0  0  0  0  0  0  0
  2  1  1  0
  3  2  2  0
  4  2  1  0
  5  6  1  0
  5  4  1  0
  6  7  1  0
  8  7  1  0
  8  9  1  1
 10  8  1  0
 10 11  2  0
 12 13  1  0
 13 14  2  0
 13 15  1  0
 15 16  1  0
 17 16  1  6
 17 18  1  0
 18 10  1  0
 19 17  1  0
 20 19  2  0
 22 21  1  6
 22 24  1  0
 23 22  1  0
 24 26  1  0
 24 25  1  1
 25 19  1  0
 26 28  1  0
 27 26  2  0
M  END
$$$$
