RQT.pdb
     RDKit          3D

 28 27  0  0  1  0  0  0  0  0999 V2000
   11.2386  -12.3665  -17.3232 N   0  0  0  0  0  0  0  0  0  0  0  0
   10.9207  -12.3342  -15.9168 C   0  0  0  0  0  0  0  0  0  0  0  0
    9.8556  -12.8883  -15.5005 N   0  0  0  0  0  0  0  0  0  0  0  0
   11.7796  -11.6934  -14.9916 N   0  0  0  0  0  0  0  0  0  0  0  0
   13.0715  -11.1853  -15.4820 C   0  0  0  0  0  0  0  0  0  0  0  0
   13.7518  -10.5366  -14.3117 C   0  0  0  0  0  0  0  0  0  0  0  0
   15.1187  -10.0143  -14.5492 C   0  0  0  0  0  0  0  0  0  0  0  0
   16.1734  -11.0205  -14.8992 C   0  0  2  0  0  0  0  0  0  0  0  0
   16.1452  -12.1152  -13.9837 N   0  0  0  0  0  0  0  0  0  0  0  0
   17.4843  -10.3027  -14.8583 C   0  0  0  0  0  0  0  0  0  0  0  0
   18.0056  -10.1226  -13.7131 O   0  0  0  0  0  0  0  0  0  0  0  0
    9.4958  -12.9651  -14.5491 N   0  0  0  0  0  0  0  0  0  0  0  0
   22.1744  -10.1809  -19.1342 C   0  0  0  0  0  0  0  0  0  0  0  0
   22.6276   -9.2920  -18.1129 O   0  0  0  0  0  0  0  0  0  0  0  0
   23.8003   -8.9087  -18.2007 C   0  0  0  0  0  0  0  0  0  0  0  0
   21.7003   -8.9185  -17.0783 C   0  0  0  0  0  0  0  0  0  0  0  0
   20.3512   -9.5038  -17.0252 C   0  0  1  0  0  0  0  0  0  0  0  0
   19.4666   -9.1658  -15.8840 N   0  0  0  0  0  0  0  0  0  0  0  0
   18.1646   -9.8236  -15.9780 C   0  0  0  0  0  0  0  0  0  0  0  0
   19.3904   -7.7590  -15.4880 O   0  0  0  0  0  0  0  0  0  0  0  0
   18.4316   -7.0620  -15.8910 C   0  0  0  0  0  0  0  0  0  0  0  0
   22.8322   -5.6825  -13.8970 C   0  0  2  0  0  0  0  0  0  0  0  0
   21.4949   -5.5076  -13.2519 O   0  0  0  0  0  0  0  0  0  0  0  0
   21.3694   -4.1916  -12.8364 C   0  0  1  0  0  0  0  0  0  0  0  0
   20.3544   -5.7960  -14.2210 N   0  0  0  0  0  0  0  0  0  0  0  0
   20.3733   -7.1720  -14.6628 C   0  0  0  0  0  0  0  0  0  0  0  0
   20.3469   -4.8446  -15.3438 O   0  0  0  0  0  0  0  0  0  0  0  0
   20.8163   -5.1652  -16.4504 O   0  0  0  0  0  0  0  0  0  0  0  0
  2  1  1  0
  3  2  2  0
  4  2  1  0
  5  6  1  0
  5  4  1  0
  6  7  1  0
  8  7  1  0
  8  9  1  1
 10  8  1  0
 10 11  2  0
 12 13  1  0
 13 14  2  0
 13 15  1  0
 15 16  1  0
 17 16  1  1
 17 18  1  0
 18 10  1  0
 19 17  1  0
 20 19  2  0
 22 21  1  1
 22 24  1  0
 23 22  1  0
 24 26  1  0
 24 25  1  1
 25 19  1  0
 26 28  1  0
 27 26  2  0
M  END
$$$$
