WLR.pdb
     RDKit          3D

 34 35  0  0  1  0  0  0  0  0999 V2000
   27.6304  -19.0614   -9.2318 N   0  0  0  0  0  0  0  0  0  0  0  0
   27.1265  -20.4000   -9.4312 C   0  0  1  0  0  0  0  0  0  0  0  0
   26.3505  -20.7958   -8.1884 C   0  0  0  0  0  0  0  0  0  0  0  0
   26.9887  -20.2948   -6.9576 C   0  0  0  0  0  0  0  0  0  0  0  0
   26.3503  -19.4539   -6.0416 C   0  0  0  0  0  0  0  0  0  0  0  0
   27.2026  -19.1394   -5.0535 N   0  0  0  0  0  0  0  0  0  0  0  0
   28.3802  -19.7363   -5.2739 C   0  0  0  0  0  0  0  0  0  0  0  0
   29.5573  -19.7309   -4.5571 C   0  0  0  0  0  0  0  0  0  0  0  0
   30.6353  -20.4551   -5.0175 C   0  0  0  0  0  0  0  0  0  0  0  0
   30.5070  -21.1659   -6.1831 C   0  0  0  0  0  0  0  0  0  0  0  0
   29.3379  -21.1740   -6.9001 C   0  0  0  0  0  0  0  0  0  0  0  0
   28.2604  -20.4583   -6.4542 C   0  0  0  0  0  0  0  0  0  0  0  0
   26.2025  -20.3472  -10.6196 C   0  0  0  0  0  0  0  0  0  0  0  0
   24.9754  -20.0954  -10.5187 O   0  0  0  0  0  0  0  0  0  0  0  0
   26.6863  -17.6790  -14.1489 C   0  0  0  0  0  0  0  0  0  0  0  0
   27.6635  -18.8589  -14.2320 C   0  0  2  0  0  0  0  0  0  0  0  0
   28.5817  -18.5842  -15.3850 C   0  0  0  0  0  0  0  0  0  0  0  0
   26.8372  -20.0825  -14.3391 C   0  0  0  0  0  0  0  0  0  0  0  0
   25.9567  -20.3717  -13.1311 C   0  0  2  0  0  0  0  0  0  0  0  0
   26.7184  -20.5900  -11.9486 N   0  0  0  0  0  0  0  0  0  0  0  0
   24.9382  -21.3961  -13.4429 C   0  0  0  0  0  0  0  0  0  0  0  0
   25.2760  -22.6280  -13.5747 O   0  0  0  0  0  0  0  0  0  0  0  0
   18.4122  -24.1807  -10.3951 N   0  0  0  0  0  0  0  0  0  0  0  0
   17.9188  -22.8584  -10.5199 C   0  0  0  0  0  0  0  0  0  0  0  0
   16.6480  -22.5900  -10.4497 N   0  0  0  0  0  0  0  0  0  0  0  0
   18.8570  -21.8211  -10.7241 N   0  0  0  0  0  0  0  0  0  0  0  0
   20.3038  -22.0984  -10.7523 C   0  0  0  0  0  0  0  0  0  0  0  0
   20.7794  -21.7599  -12.1070 C   0  0  0  0  0  0  0  0  0  0  0  0
   21.9426  -22.4700  -12.6012 C   0  0  0  0  0  0  0  0  0  0  0  0
   22.5942  -22.2738  -13.9013 C   0  0  2  0  0  0  0  0  0  0  0  0
   23.5561  -21.1363  -13.6166 N   0  0  0  0  0  0  0  0  0  0  0  0
   21.7831  -21.7964  -15.0036 C   0  0  0  0  0  0  0  0  0  0  0  0
   21.9011  -20.6077  -15.4690 O   0  0  0  0  0  0  0  0  0  0  0  0
   20.8343  -22.5860  -15.6418 O   0  0  0  0  0  0  0  0  0  0  0  0
  2  1  1  1
  2  3  1  0
  3  4  1  0
  4  5  2  0
  5  6  1  0
  7  8  2  0
  7  6  1  0
  9  8  1  0
 10  9  2  0
 11 10  1  0
 11 12  2  0
 12  4  1  0
 12  7  1  0
 13  2  1  0
 13 20  1  0
 14 13  2  0
 16 15  1  6
 16 17  1  0
 19 18  1  6
 18 16  1  0
 19 20  1  0
 19 21  1  0
 21 22  2  0
 21 31  1  0
 23 24  1  0
 24 26  1  0
 25 24  2  0
 26 27  1  0
 28 27  1  0
 29 28  1  0
 30 32  1  0
 30 29  1  1
 31 30  1  0
 32 34  1  0
 33 32  2  0
M  END
$$$$
