WLR.pdb
     RDKit          3D

 34 35  0  0  1  0  0  0  0  0999 V2000
   21.5845  -19.3358  -13.0236 N   0  0  0  0  0  0  0  0  0  0  0  0
   21.9905  -20.4107  -12.1487 C   0  0  1  0  0  0  0  0  0  0  0  0
   21.8684  -21.7114  -12.9210 C   0  0  0  0  0  0  0  0  0  0  0  0
   20.4745  -21.9924  -13.3101 C   0  0  0  0  0  0  0  0  0  0  0  0
   20.0636  -22.1849  -14.6321 C   0  0  0  0  0  0  0  0  0  0  0  0
   18.7355  -22.3769  -14.6645 N   0  0  0  0  0  0  0  0  0  0  0  0
   18.2466  -22.3207  -13.4196 C   0  0  0  0  0  0  0  0  0  0  0  0
   16.9648  -22.4597  -12.9327 C   0  0  0  0  0  0  0  0  0  0  0  0
   16.7400  -22.3624  -11.5768 C   0  0  0  0  0  0  0  0  0  0  0  0
   17.8039  -22.1287  -10.7437 C   0  0  0  0  0  0  0  0  0  0  0  0
   19.0811  -21.9892  -11.2235 C   0  0  0  0  0  0  0  0  0  0  0  0
   19.3175  -22.0828  -12.5679 C   0  0  0  0  0  0  0  0  0  0  0  0
   23.4312  -20.1603  -11.7873 C   0  0  0  0  0  0  0  0  0  0  0  0
   24.2617  -19.6718  -12.5940 O   0  0  0  0  0  0  0  0  0  0  0  0
   26.9220  -21.1042   -6.7016 C   0  0  0  0  0  0  0  0  0  0  0  0
   26.8972  -20.5889   -8.1465 C   0  0  2  0  0  0  0  0  0  0  0  0
   27.4512  -19.1959   -8.1223 C   0  0  0  0  0  0  0  0  0  0  0  0
   25.4997  -20.7222   -8.6164 C   0  0  0  0  0  0  0  0  0  0  0  0
   25.2811  -20.3911  -10.0864 C   0  0  2  0  0  0  0  0  0  0  0  0
   23.9111  -20.4830  -10.4618 N   0  0  0  0  0  0  0  0  0  0  0  0
   26.2380  -21.1167  -10.9476 C   0  0  0  0  0  0  0  0  0  0  0  0
   26.1350  -22.3870  -11.1053 O   0  0  0  0  0  0  0  0  0  0  0  0
   29.1364  -22.4177  -17.3687 N   0  0  0  0  0  0  0  0  0  0  0  0
   27.8677  -22.4445  -17.9987 C   0  0  0  0  0  0  0  0  0  0  0  0
   27.6242  -23.2114  -19.0207 N   0  0  0  0  0  0  0  0  0  0  0  0
   26.8560  -21.6050  -17.4796 N   0  0  0  0  0  0  0  0  0  0  0  0
   27.0532  -20.8643  -16.2212 C   0  0  0  0  0  0  0  0  0  0  0  0
   26.6518  -21.7660  -15.1248 C   0  0  0  0  0  0  0  0  0  0  0  0
   26.6915  -21.2341  -13.7769 C   0  0  0  0  0  0  0  0  0  0  0  0
   27.8674  -21.1700  -12.9013 C   0  0  2  0  0  0  0  0  0  0  0  0
   27.3097  -20.5147  -11.6524 N   0  0  0  0  0  0  0  0  0  0  0  0
   28.9669  -20.3142  -13.3006 C   0  0  0  0  0  0  0  0  0  0  0  0
   29.0229  -19.0784  -12.9641 O   0  0  0  0  0  0  0  0  0  0  0  0
   30.0396  -20.7657  -14.0599 O   0  0  0  0  0  0  0  0  0  0  0  0
  2  1  1  6
  2  3  1  0
  3  4  1  0
  4  5  2  0
  5  6  1  0
  7  8  2  0
  7  6  1  0
  9  8  1  0
 10  9  2  0
 11 10  1  0
 11 12  2  0
 12  4  1  0
 12  7  1  0
 13  2  1  0
 13 20  1  0
 14 13  2  0
 16 15  1  1
 16 17  1  0
 19 18  1  1
 18 16  1  0
 19 20  1  0
 19 21  1  0
 21 22  2  0
 21 31  1  0
 23 24  1  0
 24 26  1  0
 25 24  2  0
 26 27  1  0
 28 27  1  0
 29 28  1  0
 30 32  1  0
 30 29  1  6
 31 30  1  0
 32 34  1  0
 33 32  2  0
M  END
$$$$
