WLR.pdb
     RDKit          3D

 34 35  0  0  1  0  0  0  0  0999 V2000
   26.4467  -22.7180  -15.7195 N   0  0  0  0  0  0  0  0  0  0  0  0
   26.3848  -21.4602  -15.0124 C   0  0  1  0  0  0  0  0  0  0  0  0
   25.5478  -20.5016  -15.8393 C   0  0  0  0  0  0  0  0  0  0  0  0
   26.2830  -20.0018  -17.0153 C   0  0  0  0  0  0  0  0  0  0  0  0
   25.9604  -20.3422  -18.3320 C   0  0  0  0  0  0  0  0  0  0  0  0
   26.8360  -19.7661  -19.1705 N   0  0  0  0  0  0  0  0  0  0  0  0
   27.7265  -19.0567  -18.4665 C   0  0  0  0  0  0  0  0  0  0  0  0
   28.8027  -18.2907  -18.8596 C   0  0  0  0  0  0  0  0  0  0  0  0
   29.5623  -17.6481  -17.9064 C   0  0  0  0  0  0  0  0  0  0  0  0
   29.2249  -17.7890  -16.5847 C   0  0  0  0  0  0  0  0  0  0  0  0
   28.1553  -18.5505  -16.1886 C   0  0  0  0  0  0  0  0  0  0  0  0
   27.3935  -19.1944  -17.1252 C   0  0  0  0  0  0  0  0  0  0  0  0
   25.7058  -21.7315  -13.6955 C   0  0  0  0  0  0  0  0  0  0  0  0
   25.0543  -22.7817  -13.4677 O   0  0  0  0  0  0  0  0  0  0  0  0
   25.9583  -19.3621   -7.9998 C   0  0  0  0  0  0  0  0  0  0  0  0
   25.1638  -20.2878   -8.9304 C   0  0  2  0  0  0  0  0  0  0  0  0
   25.0434  -21.6091   -8.2322 C   0  0  0  0  0  0  0  0  0  0  0  0
   25.8833  -20.3017  -10.2240 C   0  0  0  0  0  0  0  0  0  0  0  0
   25.1094  -20.9134  -11.3839 C   0  0  2  0  0  0  0  0  0  0  0  0
   25.7898  -20.7627  -12.6251 N   0  0  0  0  0  0  0  0  0  0  0  0
   23.6937  -20.4898  -11.3666 C   0  0  0  0  0  0  0  0  0  0  0  0
   22.9214  -20.8460  -10.4045 O   0  0  0  0  0  0  0  0  0  0  0  0
   23.3569  -19.2959  -18.0820 N   0  0  0  0  0  0  0  0  0  0  0  0
   22.5727  -18.1181  -18.0109 C   0  0  0  0  0  0  0  0  0  0  0  0
   22.1393  -17.5157  -19.0792 N   0  0  0  0  0  0  0  0  0  0  0  0
   22.2663  -17.6064  -16.7294 N   0  0  0  0  0  0  0  0  0  0  0  0
   22.6616  -18.3285  -15.5073 C   0  0  0  0  0  0  0  0  0  0  0  0
   21.8489  -19.5584  -15.4535 C   0  0  0  0  0  0  0  0  0  0  0  0
   22.0112  -20.4136  -14.2943 C   0  0  0  0  0  0  0  0  0  0  0  0
   21.7112  -20.0584  -12.9024 C   0  0  2  0  0  0  0  0  0  0  0  0
   23.0772  -19.6869  -12.3581 N   0  0  0  0  0  0  0  0  0  0  0  0
   21.2410  -21.1069  -12.0190 C   0  0  0  0  0  0  0  0  0  0  0  0
   21.4739  -22.3461  -12.2510 O   0  0  0  0  0  0  0  0  0  0  0  0
   20.5203  -20.8516  -10.8587 O   0  0  0  0  0  0  0  0  0  0  0  0
  2  1  1  6
  2  3  1  0
  3  4  1  0
  4  5  2  0
  5  6  1  0
  7  8  2  0
  7  6  1  0
  9  8  1  0
 10  9  2  0
 11 10  1  0
 11 12  2  0
 12  4  1  0
 12  7  1  0
 13  2  1  0
 13 20  1  0
 14 13  2  0
 16 15  1  1
 16 17  1  0
 19 18  1  1
 18 16  1  0
 19 20  1  0
 19 21  1  0
 21 22  2  0
 21 31  1  0
 23 24  1  0
 24 26  1  0
 25 24  2  0
 26 27  1  0
 28 27  1  0
 29 28  1  0
 30 32  1  0
 30 29  1  6
 31 30  1  0
 32 34  1  0
 33 32  2  0
M  END
$$$$
