WLR.pdb
     RDKit          3D

 34 35  0  0  1  0  0  0  0  0999 V2000
   26.9171  -19.4328  -17.4724 N   0  0  0  0  0  0  0  0  0  0  0  0
   27.0543  -18.8685  -16.1501 C   0  0  1  0  0  0  0  0  0  0  0  0
   25.7826  -18.1019  -15.8365 C   0  0  0  0  0  0  0  0  0  0  0  0
   25.6851  -16.8541  -16.6155 C   0  0  0  0  0  0  0  0  0  0  0  0
   24.8852  -16.7122  -17.7530 C   0  0  0  0  0  0  0  0  0  0  0  0
   25.0437  -15.4797  -18.2606 N   0  0  0  0  0  0  0  0  0  0  0  0
   25.9148  -14.7965  -17.5080 C   0  0  0  0  0  0  0  0  0  0  0  0
   26.3981  -13.5097  -17.6079 C   0  0  0  0  0  0  0  0  0  0  0  0
   27.2992  -13.0491  -16.6729 C   0  0  0  0  0  0  0  0  0  0  0  0
   27.6929  -13.8882  -15.6623 C   0  0  0  0  0  0  0  0  0  0  0  0
   27.2151  -15.1696  -15.5590 C   0  0  0  0  0  0  0  0  0  0  0  0
   26.3206  -15.6394  -16.4815 C   0  0  0  0  0  0  0  0  0  0  0  0
   27.2076  -20.0232  -15.1952 C   0  0  0  0  0  0  0  0  0  0  0  0
   26.4366  -21.0156  -15.1957 O   0  0  0  0  0  0  0  0  0  0  0  0
   30.8202  -20.9873  -10.1994 C   0  0  0  0  0  0  0  0  0  0  0  0
   29.4429  -21.2218  -10.8336 C   0  0  2  0  0  0  0  0  0  0  0  0
   29.1969  -22.7006  -10.8075 C   0  0  0  0  0  0  0  0  0  0  0  0
   29.4853  -20.5956  -12.1743 C   0  0  0  0  0  0  0  0  0  0  0  0
   28.1761  -20.6470  -12.9499 C   0  0  2  0  0  0  0  0  0  0  0  0
   28.2796  -20.0219  -14.2245 N   0  0  0  0  0  0  0  0  0  0  0  0
   27.0381  -20.2189  -12.1099 C   0  0  0  0  0  0  0  0  0  0  0  0
   26.8248  -18.9713  -11.8929 O   0  0  0  0  0  0  0  0  0  0  0  0
   19.9899  -20.1446  -12.3544 N   0  0  0  0  0  0  0  0  0  0  0  0
   19.9551  -21.5524  -12.5090 C   0  0  0  0  0  0  0  0  0  0  0  0
   18.9089  -22.2536  -12.1835 N   0  0  0  0  0  0  0  0  0  0  0  0
   21.1031  -22.1865  -13.0362 N   0  0  0  0  0  0  0  0  0  0  0  0
   22.3005  -21.4099  -13.4025 C   0  0  0  0  0  0  0  0  0  0  0  0
   23.3153  -21.6702  -12.3639 C   0  0  0  0  0  0  0  0  0  0  0  0
   23.8650  -20.5235  -11.6680 C   0  0  0  0  0  0  0  0  0  0  0  0
   24.9547  -20.5426  -10.6853 C   0  0  2  0  0  0  0  0  0  0  0  0
   26.1131  -21.0968  -11.4923 N   0  0  0  0  0  0  0  0  0  0  0  0
   24.8358  -21.4423   -9.5552 C   0  0  0  0  0  0  0  0  0  0  0  0
   23.9504  -21.2745   -8.6433 O   0  0  0  0  0  0  0  0  0  0  0  0
   25.6552  -22.5511   -9.3817 O   0  0  0  0  0  0  0  0  0  0  0  0
  2  1  1  6
  2  3  1  0
  3  4  1  0
  4  5  2  0
  5  6  1  0
  7  8  2  0
  7  6  1  0
  9  8  1  0
 10  9  2  0
 11 10  1  0
 11 12  2  0
 12  4  1  0
 12  7  1  0
 13  2  1  0
 13 20  1  0
 14 13  2  0
 16 15  1  6
 16 17  1  0
 19 18  1  1
 18 16  1  0
 19 20  1  0
 19 21  1  0
 21 22  2  0
 21 31  1  0
 23 24  1  0
 24 26  1  0
 25 24  2  0
 26 27  1  0
 28 27  1  0
 29 28  1  0
 30 32  1  0
 30 29  1  6
 31 30  1  0
 32 34  1  0
 33 32  2  0
M  END
$$$$
