WLR.pdb
     RDKit          3D

 34 35  0  0  1  0  0  0  0  0999 V2000
   25.9149  -20.6149  -13.1815 N   0  0  0  0  0  0  0  0  0  0  0  0
   24.7999  -20.4258  -12.2833 C   0  0  1  0  0  0  0  0  0  0  0  0
   23.5736  -21.0480  -12.9253 C   0  0  0  0  0  0  0  0  0  0  0  0
   23.1021  -20.2674  -14.0836 C   0  0  0  0  0  0  0  0  0  0  0  0
   23.5994  -20.4285  -15.3799 C   0  0  0  0  0  0  0  0  0  0  0  0
   23.0043  -19.5482  -16.2001 N   0  0  0  0  0  0  0  0  0  0  0  0
   22.1321  -18.8094  -15.5036 C   0  0  0  0  0  0  0  0  0  0  0  0
   21.2841  -17.7923  -15.8857 C   0  0  0  0  0  0  0  0  0  0  0  0
   20.4703  -17.1985  -14.9457 C   0  0  0  0  0  0  0  0  0  0  0  0
   20.5263  -17.6381  -13.6480 C   0  0  0  0  0  0  0  0  0  0  0  0
   21.3688  -18.6495  -13.2629 C   0  0  0  0  0  0  0  0  0  0  0  0
   22.1827  -19.2468  -14.1864 C   0  0  0  0  0  0  0  0  0  0  0  0
   25.1375  -21.1525  -11.0078 C   0  0  0  0  0  0  0  0  0  0  0  0
   25.3857  -22.3838  -10.9696 O   0  0  0  0  0  0  0  0  0  0  0  0
   27.5103  -21.3166   -7.1271 C   0  0  0  0  0  0  0  0  0  0  0  0
   26.8078  -19.9792   -7.3952 C   0  0  2  0  0  0  0  0  0  0  0  0
   27.3460  -18.9965   -6.3990 C   0  0  0  0  0  0  0  0  0  0  0  0
   25.3536  -20.2460   -7.3216 C   0  0  0  0  0  0  0  0  0  0  0  0
   24.7755  -20.9937   -8.5153 C   0  0  2  0  0  0  0  0  0  0  0  0
   25.1886  -20.4306   -9.7557 N   0  0  0  0  0  0  0  0  0  0  0  0
   23.3230  -21.2152   -8.3571 C   0  0  0  0  0  0  0  0  0  0  0  0
   22.4837  -20.3335   -8.7661 O   0  0  0  0  0  0  0  0  0  0  0  0
   19.1848  -27.6829  -10.2182 N   0  0  0  0  0  0  0  0  0  0  0  0
   18.1149  -27.3407   -9.3547 C   0  0  0  0  0  0  0  0  0  0  0  0
   16.8953  -27.7308   -9.5840 N   0  0  0  0  0  0  0  0  0  0  0  0
   18.4106  -26.5537   -8.2184 N   0  0  0  0  0  0  0  0  0  0  0  0
   19.7867  -26.1071   -7.9393 C   0  0  0  0  0  0  0  0  0  0  0  0
   19.7930  -24.6367   -8.0569 C   0  0  0  0  0  0  0  0  0  0  0  0
   21.0363  -23.9507   -7.7653 C   0  0  0  0  0  0  0  0  0  0  0  0
   21.2307  -22.4983   -7.6858 C   0  0  2  0  0  0  0  0  0  0  0  0
   22.7391  -22.3652   -7.7703 N   0  0  0  0  0  0  0  0  0  0  0  0
   20.8758  -21.8313   -6.4489 C   0  0  0  0  0  0  0  0  0  0  0  0
   21.6791  -21.7776   -5.4512 O   0  0  0  0  0  0  0  0  0  0  0  0
   19.6557  -21.1947   -6.2561 O   0  0  0  0  0  0  0  0  0  0  0  0
  2  1  1  6
  2  3  1  0
  3  4  1  0
  4  5  2  0
  5  6  1  0
  7  8  2  0
  7  6  1  0
  9  8  1  0
 10  9  2  0
 11 10  1  0
 11 12  2  0
 12  4  1  0
 12  7  1  0
 13  2  1  0
 13 20  1  0
 14 13  2  0
 16 15  1  1
 16 17  1  0
 19 18  1  1
 18 16  1  0
 19 20  1  0
 19 21  1  0
 21 22  2  0
 21 31  1  0
 23 24  1  0
 24 26  1  0
 25 24  2  0
 26 27  1  0
 28 27  1  0
 29 28  1  0
 30 32  1  0
 30 29  1  1
 31 30  1  0
 32 34  1  0
 33 32  2  0
M  END
$$$$
