WLR.pdb
     RDKit          3D

 34 35  0  0  1  0  0  0  0  0999 V2000
   26.4236  -22.7902  -11.1219 N   0  0  0  0  0  0  0  0  0  0  0  0
   25.8110  -21.6279  -10.5223 C   0  0  1  0  0  0  0  0  0  0  0  0
   26.7172  -20.4382  -10.7803 C   0  0  0  0  0  0  0  0  0  0  0  0
   27.8768  -20.4213   -9.8701 C   0  0  0  0  0  0  0  0  0  0  0  0
   29.1473  -20.8823  -10.2264 C   0  0  0  0  0  0  0  0  0  0  0  0
   29.9736  -20.7753   -9.1739 N   0  0  0  0  0  0  0  0  0  0  0  0
   29.3057  -20.2621   -8.1335 C   0  0  0  0  0  0  0  0  0  0  0  0
   29.7049  -19.9582   -6.8498 C   0  0  0  0  0  0  0  0  0  0  0  0
   28.7950  -19.4200   -5.9661 C   0  0  0  0  0  0  0  0  0  0  0  0
   27.5097  -19.1999   -6.3901 C   0  0  0  0  0  0  0  0  0  0  0  0
   27.1077  -19.5012   -7.6663 C   0  0  0  0  0  0  0  0  0  0  0  0
   28.0012  -20.0368   -8.5533 C   0  0  0  0  0  0  0  0  0  0  0  0
   24.4875  -21.4257  -11.2124 C   0  0  0  0  0  0  0  0  0  0  0  0
   24.3103  -21.6691  -12.4325 O   0  0  0  0  0  0  0  0  0  0  0  0
   20.4001  -23.2193  -10.2661 C   0  0  0  0  0  0  0  0  0  0  0  0
   20.8109  -22.1906   -9.2045 C   0  0  2  0  0  0  0  0  0  0  0  0
   19.7643  -22.2293   -8.1317 C   0  0  0  0  0  0  0  0  0  0  0  0
   20.9682  -20.8986   -9.9098 C   0  0  0  0  0  0  0  0  0  0  0  0
   22.0314  -20.8861  -10.9996 C   0  0  2  0  0  0  0  0  0  0  0  0
   23.3505  -20.9333  -10.4667 N   0  0  0  0  0  0  0  0  0  0  0  0
   21.7716  -19.8205  -11.9900 C   0  0  0  0  0  0  0  0  0  0  0  0
   21.6729  -18.5962  -11.6152 O   0  0  0  0  0  0  0  0  0  0  0  0
   26.3105  -21.5470  -16.0145 N   0  0  0  0  0  0  0  0  0  0  0  0
   25.8198  -20.9178  -17.1852 C   0  0  0  0  0  0  0  0  0  0  0  0
   25.8830  -21.4910  -18.3512 N   0  0  0  0  0  0  0  0  0  0  0  0
   25.2490  -19.6316  -17.0525 N   0  0  0  0  0  0  0  0  0  0  0  0
   24.7885  -19.1348  -15.7440 C   0  0  0  0  0  0  0  0  0  0  0  0
   23.3689  -19.5148  -15.6158 C   0  0  0  0  0  0  0  0  0  0  0  0
   22.4815  -18.5674  -14.9706 C   0  0  0  0  0  0  0  0  0  0  0  0
   21.2201  -18.8814  -14.2898 C   0  0  2  0  0  0  0  0  0  0  0  0
   21.6154  -20.0307  -13.3826 N   0  0  0  0  0  0  0  0  0  0  0  0
   20.1293  -19.4065  -15.0869 C   0  0  0  0  0  0  0  0  0  0  0  0
   19.8350  -20.6542  -15.0978 O   0  0  0  0  0  0  0  0  0  0  0  0
   19.3195  -18.6046  -15.8822 O   0  0  0  0  0  0  0  0  0  0  0  0
  2  1  1  6
  2  3  1  0
  3  4  1  0
  4  5  2  0
  5  6  1  0
  7  8  2  0
  7  6  1  0
  9  8  1  0
 10  9  2  0
 11 10  1  0
 11 12  2  0
 12  4  1  0
 12  7  1  0
 13  2  1  0
 13 20  1  0
 14 13  2  0
 16 15  1  6
 16 17  1  0
 19 18  1  1
 18 16  1  0
 19 20  1  0
 19 21  1  0
 21 22  2  0
 21 31  1  0
 23 24  1  0
 24 26  1  0
 25 24  2  0
 26 27  1  0
 28 27  1  0
 29 28  1  0
 30 32  1  0
 30 29  1  6
 31 30  1  0
 32 34  1  0
 33 32  2  0
M  END
$$$$
