WLR.pdb
     RDKit          3D

 34 35  0  0  1  0  0  0  0  0999 V2000
   26.0779  -21.5117  -17.5550 N   0  0  0  0  0  0  0  0  0  0  0  0
   25.6401  -20.5432  -16.5772 C   0  0  1  0  0  0  0  0  0  0  0  0
   24.1277  -20.4481  -16.6605 C   0  0  0  0  0  0  0  0  0  0  0  0
   23.6892  -19.6337  -17.8084 C   0  0  0  0  0  0  0  0  0  0  0  0
   23.4385  -20.1588  -19.0793 C   0  0  0  0  0  0  0  0  0  0  0  0
   23.0994  -19.1648  -19.9153 N   0  0  0  0  0  0  0  0  0  0  0  0
   23.1137  -18.0015  -19.2532 C   0  0  0  0  0  0  0  0  0  0  0  0
   22.8377  -16.7138  -19.6597 C   0  0  0  0  0  0  0  0  0  0  0  0
   22.9232  -15.6823  -18.7502 C   0  0  0  0  0  0  0  0  0  0  0  0
   23.2825  -15.9665  -17.4577 C   0  0  0  0  0  0  0  0  0  0  0  0
   23.5585  -17.2461  -17.0486 C   0  0  0  0  0  0  0  0  0  0  0  0
   23.4781  -18.2791  -17.9422 C   0  0  0  0  0  0  0  0  0  0  0  0
   26.0488  -21.0696  -15.2264 C   0  0  0  0  0  0  0  0  0  0  0  0
   25.6659  -22.1815  -14.7833 O   0  0  0  0  0  0  0  0  0  0  0  0
   29.6657  -21.9173  -12.6222 C   0  0  0  0  0  0  0  0  0  0  0  0
   29.5971  -20.4328  -13.0039 C   0  0  2  0  0  0  0  0  0  0  0  0
   30.8634  -19.7975  -12.5133 C   0  0  0  0  0  0  0  0  0  0  0  0
   28.3411  -19.9070  -12.4230 C   0  0  0  0  0  0  0  0  0  0  0  0
   27.0663  -20.5234  -12.9825 C   0  0  2  0  0  0  0  0  0  0  0  0
   26.9208  -20.2871  -14.3787 N   0  0  0  0  0  0  0  0  0  0  0  0
   25.8961  -20.1885  -12.1444 C   0  0  0  0  0  0  0  0  0  0  0  0
   25.1349  -19.2026  -12.4568 O   0  0  0  0  0  0  0  0  0  0  0  0
   19.6441  -23.6760  -10.6121 N   0  0  0  0  0  0  0  0  0  0  0  0
   18.8935  -22.5003  -10.8601 C   0  0  0  0  0  0  0  0  0  0  0  0
   17.6671  -22.3682  -10.4471 N   0  0  0  0  0  0  0  0  0  0  0  0
   19.5210  -21.4565  -11.5775 N   0  0  0  0  0  0  0  0  0  0  0  0
   20.9167  -21.5787  -12.0336 C   0  0  0  0  0  0  0  0  0  0  0  0
   21.7687  -21.0348  -10.9591 C   0  0  0  0  0  0  0  0  0  0  0  0
   23.2014  -21.0372  -11.1797 C   0  0  0  0  0  0  0  0  0  0  0  0
   24.2245  -20.5322  -10.2569 C   0  0  2  0  0  0  0  0  0  0  0  0
   25.5139  -20.8870  -10.9723 N   0  0  0  0  0  0  0  0  0  0  0  0
   24.3427  -21.1665   -8.9591 C   0  0  0  0  0  0  0  0  0  0  0  0
   25.1899  -22.1022   -8.7348 O   0  0  0  0  0  0  0  0  0  0  0  0
   23.5639  -20.8045   -7.8666 O   0  0  0  0  0  0  0  0  0  0  0  0
  2  1  1  6
  2  3  1  0
  3  4  1  0
  4  5  2  0
  5  6  1  0
  7  8  2  0
  7  6  1  0
  9  8  1  0
 10  9  2  0
 11 10  1  0
 11 12  2  0
 12  4  1  0
 12  7  1  0
 13  2  1  0
 13 20  1  0
 14 13  2  0
 16 15  1  1
 16 17  1  0
 19 18  1  1
 18 16  1  0
 19 20  1  0
 19 21  1  0
 21 22  2  0
 21 31  1  0
 23 24  1  0
 24 26  1  0
 25 24  2  0
 26 27  1  0
 28 27  1  0
 29 28  1  0
 30 32  1  0
 30 29  1  6
 31 30  1  0
 32 34  1  0
 33 32  2  0
M  END
$$$$
