WLR.pdb
     RDKit          3D

 34 35  0  0  1  0  0  0  0  0999 V2000
   24.8936  -20.0582   -9.7039 N   0  0  0  0  0  0  0  0  0  0  0  0
   25.9731  -19.9665  -10.6589 C   0  0  1  0  0  0  0  0  0  0  0  0
   26.7971  -21.2366  -10.5540 C   0  0  0  0  0  0  0  0  0  0  0  0
   27.9181  -21.0895   -9.6078 C   0  0  0  0  0  0  0  0  0  0  0  0
   29.2527  -21.3314   -9.9452 C   0  0  0  0  0  0  0  0  0  0  0  0
   30.0271  -21.1539   -8.8632 N   0  0  0  0  0  0  0  0  0  0  0  0
   29.2632  -20.8038   -7.8213 C   0  0  0  0  0  0  0  0  0  0  0  0
   29.5798  -20.5094   -6.5126 C   0  0  0  0  0  0  0  0  0  0  0  0
   28.5768  -20.1636   -5.6334 C   0  0  0  0  0  0  0  0  0  0  0  0
   27.2834  -20.1213   -6.0869 C   0  0  0  0  0  0  0  0  0  0  0  0
   26.9634  -20.4138   -7.3881 C   0  0  0  0  0  0  0  0  0  0  0  0
   27.9500  -20.7595   -8.2709 C   0  0  0  0  0  0  0  0  0  0  0  0
   25.3430  -19.8734  -12.0239 C   0  0  0  0  0  0  0  0  0  0  0  0
   24.1811  -20.2851  -12.2682 O   0  0  0  0  0  0  0  0  0  0  0  0
   25.7863  -15.9738  -14.6988 C   0  0  0  0  0  0  0  0  0  0  0  0
   26.9728  -16.9447  -14.7603 C   0  0  2  0  0  0  0  0  0  0  0  0
   28.0372  -16.2809  -15.5815 C   0  0  0  0  0  0  0  0  0  0  0  0
   26.4447  -18.2207  -15.2933 C   0  0  0  0  0  0  0  0  0  0  0  0
   25.4813  -18.9539  -14.3699 C   0  0  2  0  0  0  0  0  0  0  0  0
   26.0795  -19.2882  -13.1223 N   0  0  0  0  0  0  0  0  0  0  0  0
   24.7971  -20.0574  -15.0757 C   0  0  0  0  0  0  0  0  0  0  0  0
   25.3364  -21.2212  -15.1377 O   0  0  0  0  0  0  0  0  0  0  0  0
   24.7361  -24.8889  -14.5961 N   0  0  0  0  0  0  0  0  0  0  0  0
   23.6027  -25.6909  -14.3138 C   0  0  0  0  0  0  0  0  0  0  0  0
   23.3806  -26.8103  -14.9380 N   0  0  0  0  0  0  0  0  0  0  0  0
   22.7057  -25.2381  -13.3198 N   0  0  0  0  0  0  0  0  0  0  0  0
   22.4368  -23.8012  -13.1350 C   0  0  0  0  0  0  0  0  0  0  0  0
   22.2174  -23.2294  -14.4770 C   0  0  0  0  0  0  0  0  0  0  0  0
   22.8084  -21.9351  -14.7541 C   0  0  0  0  0  0  0  0  0  0  0  0
   22.7231  -21.1921  -16.0167 C   0  0  2  0  0  0  0  0  0  0  0  0
   23.5400  -19.9491  -15.7205 N   0  0  0  0  0  0  0  0  0  0  0  0
   21.4266  -20.6867  -16.4222 C   0  0  0  0  0  0  0  0  0  0  0  0
   21.0475  -19.4925  -16.1505 O   0  0  0  0  0  0  0  0  0  0  0  0
   20.5098  -21.4454  -17.1399 O   0  0  0  0  0  0  0  0  0  0  0  0
  2  1  1  1
  2  3  1  0
  3  4  1  0
  4  5  2  0
  5  6  1  0
  7  8  2  0
  7  6  1  0
  9  8  1  0
 10  9  2  0
 11 10  1  0
 11 12  2  0
 12  4  1  0
 12  7  1  0
 13  2  1  0
 13 20  1  0
 14 13  2  0
 16 15  1  6
 16 17  1  0
 19 18  1  6
 18 16  1  0
 19 20  1  0
 19 21  1  0
 21 22  2  0
 21 31  1  0
 23 24  1  0
 24 26  1  0
 25 24  2  0
 26 27  1  0
 28 27  1  0
 29 28  1  0
 30 32  1  0
 30 29  1  1
 31 30  1  0
 32 34  1  0
 33 32  2  0
M  END
$$$$
