VFC.pdb
     RDKit          3D

 25 25  0  0  1  0  0  0  0  0999 V2000
    9.3744  -19.3087   19.0411 C   0  0  0  0  0  0  0  0  0  0  0  0
    9.6066  -18.5796   20.3624 C   0  0  2  0  0  0  0  0  0  0  0  0
    8.6524  -19.1401   21.4025 C   0  0  0  0  0  0  0  0  0  0  0  0
    9.2493  -17.1279   20.1116 C   0  0  2  0  0  0  0  0  0  0  0  0
   10.1144  -16.6340   19.0717 N   0  0  0  0  0  0  0  0  0  0  0  0
    9.4501  -16.3070   21.3453 C   0  0  0  0  0  0  0  0  0  0  0  0
   10.6321  -16.0253   21.7262 O   0  0  0  0  0  0  0  0  0  0  0  0
    8.3960  -15.8166   22.1271 N   0  0  0  0  0  0  0  0  0  0  0  0
    8.5825  -15.0715   23.3793 C   0  0  1  0  0  0  0  0  0  0  0  0
    7.2950  -14.3416   23.6230 C   0  0  0  0  0  0  0  0  0  0  0  0
    7.1712  -13.5668   24.8383 C   0  0  0  0  0  0  0  0  0  0  0  0
    6.2462  -14.0038   25.7912 C   0  0  0  0  0  0  0  0  0  0  0  0
    6.1427  -13.3101   26.9699 C   0  0  0  0  0  0  0  0  0  0  0  0
    6.9454  -12.2078   27.1867 C   0  0  0  0  0  0  0  0  0  0  0  0
    7.8560  -11.7737   26.2539 C   0  0  0  0  0  0  0  0  0  0  0  0
    7.9750  -12.4681   25.0471 C   0  0  0  0  0  0  0  0  0  0  0  0
    8.9359  -15.9420   24.4802 C   0  0  0  0  0  0  0  0  0  0  0  0
    8.0784  -16.8583   24.7735 O   0  0  0  0  0  0  0  0  0  0  0  0
   10.0873  -15.9429   25.2814 N   0  0  0  0  0  0  0  0  0  0  0  0
   10.3462  -16.9007   26.3194 C   0  0  1  0  0  0  0  0  0  0  0  0
   11.8334  -17.2415   26.2386 C   0  0  0  0  0  0  0  0  0  0  0  0
   12.3363  -17.4410   24.5122 S   0  0  0  0  0  0  0  0  0  0  0  0
   10.0225  -16.5141   27.6753 C   0  0  0  0  0  0  0  0  0  0  0  0
   10.2298  -17.3948   28.7266 O   0  0  0  0  0  0  0  0  0  0  0  0
    9.5521  -15.3935   27.9515 O   0  0  0  0  0  0  0  0  0  0  0  0
  2  3  1  1
  2  1  1  0
  4  6  1  0
  4  2  1  0
  4  5  1  6
  6  7  2  0
  8  9  1  0
  8  6  1  0
  9 10  1  1
 10 11  1  0
 11 16  2  0
 12 11  1  0
 12 13  2  0
 13 14  1  0
 14 15  2  0
 16 15  1  0
 17 18  2  0
 17  9  1  0
 19 17  1  0
 20 23  1  0
 20 19  1  0
 21 22  1  0
 20 21  1  1
 23 24  1  0
 25 23  2  0
M  END
$$$$
