VFC.pdb
     RDKit          3D

 25 25  0  0  1  0  0  0  0  0999 V2000
    9.3191  -19.3165   18.9279 C   0  0  0  0  0  0  0  0  0  0  0  0
    9.5518  -18.5962   20.2539 C   0  0  2  0  0  0  0  0  0  0  0  0
    8.6143  -19.1794   21.2966 C   0  0  0  0  0  0  0  0  0  0  0  0
    9.1721  -17.1475   20.0193 C   0  0  2  0  0  0  0  0  0  0  0  0
    9.9958  -16.6429   18.9513 N   0  0  0  0  0  0  0  0  0  0  0  0
    9.4075  -16.3273   21.2474 C   0  0  0  0  0  0  0  0  0  0  0  0
   10.6003  -16.0623   21.6060 O   0  0  0  0  0  0  0  0  0  0  0  0
    8.3752  -15.8200   22.0474 N   0  0  0  0  0  0  0  0  0  0  0  0
    8.5959  -15.0598   23.2849 C   0  0  1  0  0  0  0  0  0  0  0  0
    7.3517  -14.2508   23.5018 C   0  0  0  0  0  0  0  0  0  0  0  0
    7.2686  -13.4363   24.6943 C   0  0  0  0  0  0  0  0  0  0  0  0
    6.3445  -13.8158   25.6724 C   0  0  0  0  0  0  0  0  0  0  0  0
    6.2787  -13.0839   26.8306 C   0  0  0  0  0  0  0  0  0  0  0  0
    7.1174  -12.0006   27.0028 C   0  0  0  0  0  0  0  0  0  0  0  0
    8.0273  -11.6229   26.0451 C   0  0  0  0  0  0  0  0  0  0  0  0
    8.1081  -12.3568   24.8587 C   0  0  0  0  0  0  0  0  0  0  0  0
    8.8895  -15.9253   24.4072 C   0  0  0  0  0  0  0  0  0  0  0  0
    8.0317  -16.8582   24.6407 O   0  0  0  0  0  0  0  0  0  0  0  0
    9.9830  -15.9054   25.2855 N   0  0  0  0  0  0  0  0  0  0  0  0
   10.1885  -16.8599   26.3384 C   0  0  1  0  0  0  0  0  0  0  0  0
   11.6129  -17.3888   26.1771 C   0  0  0  0  0  0  0  0  0  0  0  0
   11.8322  -18.1017   24.5288 S   0  0  0  0  0  0  0  0  0  0  0  0
   10.0063  -16.3988   27.6974 C   0  0  0  0  0  0  0  0  0  0  0  0
   10.1777  -17.2683   28.7644 O   0  0  0  0  0  0  0  0  0  0  0  0
    9.6931  -15.2220   27.9625 O   0  0  0  0  0  0  0  0  0  0  0  0
  2  3  1  1
  2  1  1  0
  4  6  1  0
  4  2  1  0
  4  5  1  6
  6  7  2  0
  8  9  1  0
  8  6  1  0
  9 10  1  1
 10 11  1  0
 11 16  2  0
 12 11  1  0
 12 13  2  0
 13 14  1  0
 14 15  2  0
 16 15  1  0
 17 18  2  0
 17  9  1  0
 19 17  1  0
 20 23  1  0
 20 19  1  0
 21 22  1  0
 20 21  1  1
 23 24  1  0
 25 23  2  0
M  END
$$$$
