VFC.pdb
     RDKit          3D

 25 25  0  0  1  0  0  0  0  0999 V2000
   10.1497  -18.9795   20.9972 C   0  0  0  0  0  0  0  0  0  0  0  0
    8.6243  -18.9903   20.9302 C   0  0  2  0  0  0  0  0  0  0  0  0
    8.1869  -20.0678   19.9535 C   0  0  0  0  0  0  0  0  0  0  0  0
    8.2168  -17.6402   20.3743 C   0  0  2  0  0  0  0  0  0  0  0  0
    8.9190  -17.4444   19.1324 N   0  0  0  0  0  0  0  0  0  0  0  0
    8.5807  -16.5405   21.3201 C   0  0  0  0  0  0  0  0  0  0  0  0
    9.7174  -15.9756   21.2184 O   0  0  0  0  0  0  0  0  0  0  0  0
    7.7307  -16.0814   22.3349 N   0  0  0  0  0  0  0  0  0  0  0  0
    8.1108  -15.0640   23.3241 C   0  0  1  0  0  0  0  0  0  0  0  0
    6.8428  -14.3557   23.6984 C   0  0  0  0  0  0  0  0  0  0  0  0
    6.8811  -13.4346   24.8131 C   0  0  0  0  0  0  0  0  0  0  0  0
    7.6452  -12.2732   24.6651 C   0  0  0  0  0  0  0  0  0  0  0  0
    7.6613  -11.3644   25.6923 C   0  0  0  0  0  0  0  0  0  0  0  0
    6.9306  -11.6141   26.8370 C   0  0  0  0  0  0  0  0  0  0  0  0
    6.1781  -12.7537   26.9881 C   0  0  0  0  0  0  0  0  0  0  0  0
    6.1500  -13.6908   25.9519 C   0  0  0  0  0  0  0  0  0  0  0  0
    8.7732  -15.6455   24.4720 C   0  0  0  0  0  0  0  0  0  0  0  0
    8.1597  -16.6251   25.0420 O   0  0  0  0  0  0  0  0  0  0  0  0
    9.9996  -15.3038   25.0609 N   0  0  0  0  0  0  0  0  0  0  0  0
   10.7884  -16.2004   25.8583 C   0  0  1  0  0  0  0  0  0  0  0  0
   10.0264  -17.5237   25.9112 C   0  0  0  0  0  0  0  0  0  0  0  0
   10.0676  -18.2024   27.5878 S   0  0  0  0  0  0  0  0  0  0  0  0
   12.1458  -16.4532   25.4269 C   0  0  0  0  0  0  0  0  0  0  0  0
   12.6193  -15.9127   24.2405 O   0  0  0  0  0  0  0  0  0  0  0  0
   12.9333  -17.1549   26.0908 O   0  0  0  0  0  0  0  0  0  0  0  0
  2  3  1  6
  2  1  1  0
  4  6  1  0
  4  2  1  0
  4  5  1  6
  6  7  2  0
  8  9  1  0
  8  6  1  0
  9 10  1  1
 10 11  1  0
 11 16  2  0
 12 11  1  0
 12 13  2  0
 13 14  1  0
 14 15  2  0
 16 15  1  0
 17 18  2  0
 17  9  1  0
 19 17  1  0
 20 23  1  0
 20 19  1  0
 21 22  1  0
 20 21  1  6
 23 24  1  0
 25 23  2  0
M  END
$$$$
