VFC.pdb
     RDKit          3D

 25 25  0  0  1  0  0  0  0  0999 V2000
    9.1860  -19.7380   19.2736 C   0  0  0  0  0  0  0  0  0  0  0  0
    9.4667  -18.8824   20.5067 C   0  0  2  0  0  0  0  0  0  0  0  0
    8.7559  -19.4981   21.6993 C   0  0  0  0  0  0  0  0  0  0  0  0
    8.8532  -17.5248   20.2269 C   0  0  2  0  0  0  0  0  0  0  0  0
    9.4498  -17.0112   19.0210 N   0  0  0  0  0  0  0  0  0  0  0  0
    9.1236  -16.5742   21.3492 C   0  0  0  0  0  0  0  0  0  0  0  0
   10.3020  -16.1223   21.5187 O   0  0  0  0  0  0  0  0  0  0  0  0
    8.1400  -16.1389   22.2470 N   0  0  0  0  0  0  0  0  0  0  0  0
    8.4031  -15.2373   23.3765 C   0  0  1  0  0  0  0  0  0  0  0  0
    7.1074  -14.5361   23.6577 C   0  0  0  0  0  0  0  0  0  0  0  0
    7.0431  -13.6595   24.8066 C   0  0  0  0  0  0  0  0  0  0  0  0
    6.4587  -14.1644   25.9720 C   0  0  0  0  0  0  0  0  0  0  0  0
    6.4259  -13.3664   27.0871 C   0  0  0  0  0  0  0  0  0  0  0  0
    6.9650  -12.0962   27.0343 C   0  0  0  0  0  0  0  0  0  0  0  0
    7.5403  -11.5948   25.8919 C   0  0  0  0  0  0  0  0  0  0  0  0
    7.5824  -12.3936   24.7462 C   0  0  0  0  0  0  0  0  0  0  0  0
    8.9032  -15.9494   24.5330 C   0  0  0  0  0  0  0  0  0  0  0  0
    8.2293  -16.9877   24.8920 O   0  0  0  0  0  0  0  0  0  0  0  0
   10.0274  -15.6806   25.3276 N   0  0  0  0  0  0  0  0  0  0  0  0
   10.5275  -16.5653   26.3422 C   0  0  1  0  0  0  0  0  0  0  0  0
   11.9353  -16.9733   25.9110 C   0  0  0  0  0  0  0  0  0  0  0  0
   12.6443  -18.1316   27.1065 S   0  0  0  0  0  0  0  0  0  0  0  0
   10.5752  -16.0617   27.6975 C   0  0  0  0  0  0  0  0  0  0  0  0
   10.8734  -16.9103   28.7533 O   0  0  0  0  0  0  0  0  0  0  0  0
   10.3544  -14.8655   27.9691 O   0  0  0  0  0  0  0  0  0  0  0  0
  2  3  1  1
  2  1  1  0
  4  6  1  0
  4  2  1  0
  4  5  1  6
  6  7  2  0
  8  9  1  0
  8  6  1  0
  9 10  1  1
 10 11  1  0
 11 16  2  0
 12 11  1  0
 12 13  2  0
 13 14  1  0
 14 15  2  0
 16 15  1  0
 17 18  2  0
 17  9  1  0
 19 17  1  0
 20 23  1  0
 20 19  1  0
 21 22  1  0
 20 21  1  6
 23 24  1  0
 25 23  2  0
M  END
$$$$
