VFC.pdb
     RDKit          3D

 25 25  0  0  1  0  0  0  0  0999 V2000
    8.8682  -19.0824   20.7891 C   0  0  0  0  0  0  0  0  0  0  0  0
    7.8075  -18.1496   20.2092 C   0  0  2  0  0  0  0  0  0  0  0  0
    7.3970  -18.6685   18.8422 C   0  0  0  0  0  0  0  0  0  0  0  0
    8.4809  -16.8031   20.0324 C   0  0  2  0  0  0  0  0  0  0  0  0
    9.6938  -17.0112   19.2845 N   0  0  0  0  0  0  0  0  0  0  0  0
    8.8211  -16.1974   21.3567 C   0  0  0  0  0  0  0  0  0  0  0  0
    9.9676  -16.4104   21.8683 O   0  0  0  0  0  0  0  0  0  0  0  0
    7.9382  -15.3915   22.0874 N   0  0  0  0  0  0  0  0  0  0  0  0
    8.2512  -14.8168   23.4026 C   0  0  1  0  0  0  0  0  0  0  0  0
    7.0955  -13.9269   23.7518 C   0  0  0  0  0  0  0  0  0  0  0  0
    7.0836  -13.3080   25.0592 C   0  0  0  0  0  0  0  0  0  0  0  0
    5.9179  -13.4309   25.8212 C   0  0  0  0  0  0  0  0  0  0  0  0
    5.8989  -12.8897   27.0814 C   0  0  0  0  0  0  0  0  0  0  0  0
    7.0192  -12.2427   27.5640 C   0  0  0  0  0  0  0  0  0  0  0  0
    8.1674  -12.1187   26.8197 C   0  0  0  0  0  0  0  0  0  0  0  0
    8.2047  -12.6638   25.5335 C   0  0  0  0  0  0  0  0  0  0  0  0
    8.4764  -15.8399   24.4012 C   0  0  0  0  0  0  0  0  0  0  0  0
    7.4939  -16.6459   24.6157 O   0  0  0  0  0  0  0  0  0  0  0  0
    9.6184  -16.0935   25.1753 N   0  0  0  0  0  0  0  0  0  0  0  0
    9.7017  -17.1192   26.1768 C   0  0  1  0  0  0  0  0  0  0  0  0
   10.3927  -18.3143   25.5221 C   0  0  0  0  0  0  0  0  0  0  0  0
   10.6926  -19.6114   26.7472 S   0  0  0  0  0  0  0  0  0  0  0  0
   10.3883  -16.7915   27.4072 C   0  0  0  0  0  0  0  0  0  0  0  0
   10.0460  -17.4230   28.5937 O   0  0  0  0  0  0  0  0  0  0  0  0
   11.3002  -15.9432   27.4526 O   0  0  0  0  0  0  0  0  0  0  0  0
  2  3  1  6
  2  1  1  0
  4  6  1  0
  4  2  1  0
  4  5  1  6
  6  7  2  0
  8  9  1  0
  8  6  1  0
  9 10  1  1
 10 11  1  0
 11 16  2  0
 12 11  1  0
 12 13  2  0
 13 14  1  0
 14 15  2  0
 16 15  1  0
 17 18  2  0
 17  9  1  0
 19 17  1  0
 20 23  1  0
 20 19  1  0
 21 22  1  0
 20 21  1  6
 23 24  1  0
 25 23  2  0
M  END
$$$$
