VFC.pdb
     RDKit          3D

 25 25  0  0  1  0  0  0  0  0999 V2000
   10.0711  -19.4092   21.2127 C   0  0  0  0  0  0  0  0  0  0  0  0
    8.6161  -19.1574   20.8245 C   0  0  2  0  0  0  0  0  0  0  0  0
    8.2402  -20.1070   19.7005 C   0  0  0  0  0  0  0  0  0  0  0  0
    8.5599  -17.7376   20.2965 C   0  0  2  0  0  0  0  0  0  0  0  0
    9.5198  -17.6257   19.2288 N   0  0  0  0  0  0  0  0  0  0  0  0
    8.9049  -16.7541   21.3689 C   0  0  0  0  0  0  0  0  0  0  0  0
   10.1195  -16.4119   21.5395 O   0  0  0  0  0  0  0  0  0  0  0  0
    7.9547  -16.1717   22.2179 N   0  0  0  0  0  0  0  0  0  0  0  0
    8.2947  -15.3337   23.3755 C   0  0  1  0  0  0  0  0  0  0  0  0
    7.0833  -14.4923   23.6482 C   0  0  0  0  0  0  0  0  0  0  0  0
    7.1039  -13.6242   24.8051 C   0  0  0  0  0  0  0  0  0  0  0  0
    6.3379  -14.0041   25.9112 C   0  0  0  0  0  0  0  0  0  0  0  0
    6.3763  -13.2191   27.0354 C   0  0  0  0  0  0  0  0  0  0  0  0
    7.1620  -12.0838   27.0494 C   0  0  0  0  0  0  0  0  0  0  0  0
    7.9166  -11.7054   25.9654 C   0  0  0  0  0  0  0  0  0  0  0  0
    7.8897  -12.4930   24.8114 C   0  0  0  0  0  0  0  0  0  0  0  0
    8.6812  -16.1263   24.5232 C   0  0  0  0  0  0  0  0  0  0  0  0
    7.8239  -17.0038   24.9183 O   0  0  0  0  0  0  0  0  0  0  0  0
    9.8646  -16.0875   25.2752 N   0  0  0  0  0  0  0  0  0  0  0  0
   10.1735  -17.0005   26.3396 C   0  0  1  0  0  0  0  0  0  0  0  0
   11.5391  -17.6042   26.0150 C   0  0  0  0  0  0  0  0  0  0  0  0
   12.6836  -16.3096   25.4789 S   0  0  0  0  0  0  0  0  0  0  0  0
   10.1993  -16.4683   27.6845 C   0  0  0  0  0  0  0  0  0  0  0  0
   10.4463  -17.3007   28.7660 O   0  0  0  0  0  0  0  0  0  0  0  0
   10.0041  -15.2609   27.9241 O   0  0  0  0  0  0  0  0  0  0  0  0
  2  3  1  6
  2  1  1  0
  4  6  1  0
  4  2  1  0
  4  5  1  6
  6  7  2  0
  8  9  1  0
  8  6  1  0
  9 10  1  1
 10 11  1  0
 11 16  2  0
 12 11  1  0
 12 13  2  0
 13 14  1  0
 14 15  2  0
 16 15  1  0
 17 18  2  0
 17  9  1  0
 19 17  1  0
 20 23  1  0
 20 19  1  0
 21 22  1  0
 20 21  1  6
 23 24  1  0
 25 23  2  0
M  END
$$$$
