VFC.pdb
     RDKit          3D

 25 25  0  0  1  0  0  0  0  0999 V2000
    8.2833  -19.0770   18.3674 C   0  0  0  0  0  0  0  0  0  0  0  0
    8.7011  -18.4576   19.6990 C   0  0  2  0  0  0  0  0  0  0  0  0
    7.8451  -19.0527   20.8033 C   0  0  0  0  0  0  0  0  0  0  0  0
    8.3909  -16.9777   19.5917 C   0  0  2  0  0  0  0  0  0  0  0  0
    9.1418  -16.4488   18.4826 N   0  0  0  0  0  0  0  0  0  0  0  0
    8.7887  -16.2561   20.8397 C   0  0  0  0  0  0  0  0  0  0  0  0
   10.0235  -16.0840   21.0987 O   0  0  0  0  0  0  0  0  0  0  0  0
    7.8677  -15.7455   21.7638 N   0  0  0  0  0  0  0  0  0  0  0  0
    8.2481  -15.0531   23.0023 C   0  0  1  0  0  0  0  0  0  0  0  0
    7.0461  -14.2586   23.4190 C   0  0  0  0  0  0  0  0  0  0  0  0
    7.0866  -13.5823   24.6971 C   0  0  0  0  0  0  0  0  0  0  0  0
    7.9519  -12.4915   24.8233 C   0  0  0  0  0  0  0  0  0  0  0  0
    7.9751  -11.8079   26.0122 C   0  0  0  0  0  0  0  0  0  0  0  0
    7.1524  -12.2079   27.0464 C   0  0  0  0  0  0  0  0  0  0  0  0
    6.3002  -13.2791   26.9282 C   0  0  0  0  0  0  0  0  0  0  0  0
    6.2633  -13.9875   25.7243 C   0  0  0  0  0  0  0  0  0  0  0  0
    8.6771  -15.9775   24.0300 C   0  0  0  0  0  0  0  0  0  0  0  0
    7.8002  -16.8391   24.4166 O   0  0  0  0  0  0  0  0  0  0  0  0
    9.9201  -16.0826   24.6715 N   0  0  0  0  0  0  0  0  0  0  0  0
   10.2493  -17.1005   25.6293 C   0  0  1  0  0  0  0  0  0  0  0  0
   11.7056  -17.4861   25.3743 C   0  0  0  0  0  0  0  0  0  0  0  0
   12.6034  -16.0930   24.6487 S   0  0  0  0  0  0  0  0  0  0  0  0
   10.0847  -16.7734   27.0288 C   0  0  0  0  0  0  0  0  0  0  0  0
    9.7110  -15.4942   27.4132 O   0  0  0  0  0  0  0  0  0  0  0  0
   10.2684  -17.6120   27.9323 O   0  0  0  0  0  0  0  0  0  0  0  0
  2  3  1  1
  2  1  1  0
  4  6  1  0
  4  2  1  0
  4  5  1  6
  6  7  2  0
  8  9  1  0
  8  6  1  0
  9 10  1  1
 10 11  1  0
 11 16  2  0
 12 11  1  0
 12 13  2  0
 13 14  1  0
 14 15  2  0
 16 15  1  0
 17 18  2  0
 17  9  1  0
 19 17  1  0
 20 23  1  0
 20 19  1  0
 21 22  1  0
 20 21  1  1
 23 24  1  0
 25 23  2  0
M  END
$$$$
