GCV.pdb
     RDKit          3D

 18 17  0  0  1  0  0  0  0  0999 V2000
    7.5706  -17.3762   17.9280 N   0  0  0  0  0  0  0  0  0  0  0  0
    6.6945  -16.8820   18.9723 C   0  0  0  0  0  0  0  0  0  0  0  0
    7.5497  -16.3089   20.0562 C   0  0  0  0  0  0  0  0  0  0  0  0
    8.7941  -16.3765   19.9721 O   0  0  0  0  0  0  0  0  0  0  0  0
    7.0190  -15.6758   21.2056 N   0  0  0  0  0  0  0  0  0  0  0  0
    7.8815  -15.0890   22.1703 C   0  0  1  0  0  0  0  0  0  0  0  0
    7.1644  -14.2552   23.2087 C   0  0  0  0  0  0  0  0  0  0  0  0
    8.2843  -13.6458   24.4833 S   0  0  0  0  0  0  0  0  0  0  0  0
    8.5733  -16.1706   22.9110 C   0  0  0  0  0  0  0  0  0  0  0  0
    7.8740  -17.1166   23.3490 O   0  0  0  0  0  0  0  0  0  0  0  0
   12.6091  -18.7567   23.9499 C   0  0  0  0  0  0  0  0  0  0  0  0
   11.9588  -17.5996   23.2247 C   0  0  1  0  0  0  0  0  0  0  0  0
   11.7819  -17.9482   21.7614 C   0  0  0  0  0  0  0  0  0  0  0  0
   10.5815  -17.2810   23.7718 C   0  0  2  0  0  0  0  0  0  0  0  0
    9.9881  -16.1478   23.1253 N   0  0  0  0  0  0  0  0  0  0  0  0
   10.6779  -16.9957   25.2271 C   0  0  0  0  0  0  0  0  0  0  0  0
   10.5418  -18.0202   26.1387 O   0  0  0  0  0  0  0  0  0  0  0  0
   10.8817  -15.8395   25.6649 O   0  0  0  0  0  0  0  0  0  0  0  0
  1  2  1  0
  3  4  2  0
  3  2  1  0
  5  3  1  0
  6  5  1  0
  6  7  1  1
  8  7  1  0
  9  6  1  0
  9 15  1  0
 10  9  2  0
 12 11  1  1
 12 14  1  0
 13 12  1  0
 14 15  1  6
 14 16  1  0
 16 18  2  0
 16 17  1  0
M  END
$$$$
