GCV.pdb
     RDKit          3D

 18 17  0  0  1  0  0  0  0  0999 V2000
    6.3399  -20.3006   23.2961 N   0  0  0  0  0  0  0  0  0  0  0  0
    5.6308  -19.0395   23.3921 C   0  0  0  0  0  0  0  0  0  0  0  0
    6.6270  -17.9772   23.7295 C   0  0  0  0  0  0  0  0  0  0  0  0
    7.6131  -18.2498   24.4461 O   0  0  0  0  0  0  0  0  0  0  0  0
    6.5171  -16.6419   23.2725 N   0  0  0  0  0  0  0  0  0  0  0  0
    7.5278  -15.6898   23.5738 C   0  0  1  0  0  0  0  0  0  0  0  0
    7.5113  -14.4721   22.6768 C   0  0  0  0  0  0  0  0  0  0  0  0
    7.2175  -14.9025   20.9510 S   0  0  0  0  0  0  0  0  0  0  0  0
    7.3173  -15.1923   24.9541 C   0  0  0  0  0  0  0  0  0  0  0  0
    6.1436  -15.1881   25.3992 O   0  0  0  0  0  0  0  0  0  0  0  0
   10.0903  -15.6144   27.9847 C   0  0  0  0  0  0  0  0  0  0  0  0
    9.3563  -14.2920   27.9749 C   0  0  1  0  0  0  0  0  0  0  0  0
   10.2561  -13.2123   27.4102 C   0  0  0  0  0  0  0  0  0  0  0  0
    8.1153  -14.3312   27.1054 C   0  0  2  0  0  0  0  0  0  0  0  0
    8.4059  -14.7306   25.7600 N   0  0  0  0  0  0  0  0  0  0  0  0
    7.4886  -12.9841   27.0716 C   0  0  0  0  0  0  0  0  0  0  0  0
    6.9253  -12.4593   28.2147 O   0  0  0  0  0  0  0  0  0  0  0  0
    7.4519  -12.2949   26.0257 O   0  0  0  0  0  0  0  0  0  0  0  0
  1  2  1  0
  3  4  2  0
  3  2  1  0
  5  3  1  0
  6  5  1  0
  6  7  1  6
  8  7  1  0
  9  6  1  0
  9 15  1  0
 10  9  2  0
 12 11  1  6
 12 14  1  0
 13 12  1  0
 14 15  1  6
 14 16  1  0
 16 18  2  0
 16 17  1  0
M  END
$$$$
