GCV.pdb
     RDKit          3D

 18 17  0  0  1  0  0  0  0  0999 V2000
    8.7730  -15.7366   19.8166 N   0  0  0  0  0  0  0  0  0  0  0  0
    7.9358  -16.1450   20.9277 C   0  0  0  0  0  0  0  0  0  0  0  0
    8.2232  -15.2346   22.0781 C   0  0  0  0  0  0  0  0  0  0  0  0
    9.1706  -14.4234   22.0117 O   0  0  0  0  0  0  0  0  0  0  0  0
    7.4642  -15.2365   23.2729 N   0  0  0  0  0  0  0  0  0  0  0  0
    7.7873  -14.3500   24.3354 C   0  0  1  0  0  0  0  0  0  0  0  0
    6.5866  -13.8639   25.1162 C   0  0  0  0  0  0  0  0  0  0  0  0
    5.7745  -15.1985   26.0157 S   0  0  0  0  0  0  0  0  0  0  0  0
    8.6524  -15.0636   25.3046 C   0  0  0  0  0  0  0  0  0  0  0  0
    8.9176  -16.2683   25.0720 O   0  0  0  0  0  0  0  0  0  0  0  0
    9.6990  -13.5265   29.1144 C   0  0  0  0  0  0  0  0  0  0  0  0
   10.7730  -14.2286   28.3136 C   0  0  1  0  0  0  0  0  0  0  0  0
   11.5679  -15.1465   29.2190 C   0  0  0  0  0  0  0  0  0  0  0  0
   10.1938  -15.0913   27.2098 C   0  0  2  0  0  0  0  0  0  0  0  0
    9.1727  -14.4124   26.4679 N   0  0  0  0  0  0  0  0  0  0  0  0
    9.6080  -16.3242   27.7974 C   0  0  0  0  0  0  0  0  0  0  0  0
   10.4147  -17.4098   28.0620 O   0  0  0  0  0  0  0  0  0  0  0  0
    8.3876  -16.4165   28.0662 O   0  0  0  0  0  0  0  0  0  0  0  0
  1  2  1  0
  3  4  2  0
  3  2  1  0
  5  3  1  0
  6  5  1  0
  6  7  1  1
  8  7  1  0
  9  6  1  0
  9 15  1  0
 10  9  2  0
 12 11  1  1
 12 14  1  0
 13 12  1  0
 14 15  1  1
 14 16  1  0
 16 18  2  0
 16 17  1  0
M  END
$$$$
