GCV.pdb
     RDKit          3D

 18 17  0  0  1  0  0  0  0  0999 V2000
    8.8855  -15.0401   20.2004 N   0  0  0  0  0  0  0  0  0  0  0  0
    8.2481  -15.8336   21.2331 C   0  0  0  0  0  0  0  0  0  0  0  0
    8.3560  -15.0829   22.5213 C   0  0  0  0  0  0  0  0  0  0  0  0
    9.3257  -14.3215   22.7217 O   0  0  0  0  0  0  0  0  0  0  0  0
    7.3975  -15.1858   23.5579 N   0  0  0  0  0  0  0  0  0  0  0  0
    7.5696  -14.4718   24.7743 C   0  0  1  0  0  0  0  0  0  0  0  0
    6.2848  -14.2418   25.5385 C   0  0  0  0  0  0  0  0  0  0  0  0
    6.4821  -13.0191   26.8484 S   0  0  0  0  0  0  0  0  0  0  0  0
    8.4499  -15.2604   25.6689 C   0  0  0  0  0  0  0  0  0  0  0  0
    8.5415  -16.4942   25.4566 O   0  0  0  0  0  0  0  0  0  0  0  0
   11.6167  -13.4475   27.8455 C   0  0  0  0  0  0  0  0  0  0  0  0
   10.9239  -14.6459   28.4550 C   0  0  1  0  0  0  0  0  0  0  0  0
    9.9270  -14.1843   29.4978 C   0  0  0  0  0  0  0  0  0  0  0  0
   10.1482  -15.4446   27.4264 C   0  0  2  0  0  0  0  0  0  0  0  0
    9.1746  -14.6476   26.7400 N   0  0  0  0  0  0  0  0  0  0  0  0
    9.4471  -16.5708   28.0962 C   0  0  0  0  0  0  0  0  0  0  0  0
   10.1626  -17.6675   28.5259 O   0  0  0  0  0  0  0  0  0  0  0  0
    8.2090  -16.5617   28.2887 O   0  0  0  0  0  0  0  0  0  0  0  0
  1  2  1  0
  3  4  2  0
  3  2  1  0
  5  3  1  0
  6  5  1  0
  6  7  1  1
  8  7  1  0
  9  6  1  0
  9 15  1  0
 10  9  2  0
 12 11  1  6
 12 14  1  0
 13 12  1  0
 14 15  1  1
 14 16  1  0
 16 18  2  0
 16 17  1  0
M  END
$$$$
