GCV.pdb
     RDKit          3D

 18 17  0  0  1  0  0  0  0  0999 V2000
    7.3253  -17.8111   19.2407 N   0  0  0  0  0  0  0  0  0  0  0  0
    8.2631  -17.3533   20.2473 C   0  0  0  0  0  0  0  0  0  0  0  0
    7.4752  -16.8131   21.3972 C   0  0  0  0  0  0  0  0  0  0  0  0
    6.3094  -16.4021   21.2179 O   0  0  0  0  0  0  0  0  0  0  0  0
    7.9855  -16.7370   22.7153 N   0  0  0  0  0  0  0  0  0  0  0  0
    7.1506  -16.3305   23.7908 C   0  0  1  0  0  0  0  0  0  0  0  0
    6.8125  -17.4418   24.7596 C   0  0  0  0  0  0  0  0  0  0  0  0
    8.2855  -18.1646   25.5064 S   0  0  0  0  0  0  0  0  0  0  0  0
    7.8591  -15.2937   24.5783 C   0  0  0  0  0  0  0  0  0  0  0  0
    9.1083  -15.2331   24.4711 O   0  0  0  0  0  0  0  0  0  0  0  0
    6.6033  -11.4791   25.1310 C   0  0  0  0  0  0  0  0  0  0  0  0
    7.1047  -12.1368   26.3975 C   0  0  1  0  0  0  0  0  0  0  0  0
    5.9289  -12.5631   27.2519 C   0  0  0  0  0  0  0  0  0  0  0  0
    7.9182  -13.3837   26.1128 C   0  0  2  0  0  0  0  0  0  0  0  0
    7.1544  -14.3884   25.4337 N   0  0  0  0  0  0  0  0  0  0  0  0
    8.4167  -13.9551   27.3909 C   0  0  0  0  0  0  0  0  0  0  0  0
    9.2553  -13.2133   28.1946 O   0  0  0  0  0  0  0  0  0  0  0  0
    8.0985  -15.1054   27.7728 O   0  0  0  0  0  0  0  0  0  0  0  0
  1  2  1  0
  3  4  2  0
  3  2  1  0
  5  3  1  0
  6  5  1  0
  6  7  1  1
  8  7  1  0
  9  6  1  0
  9 15  1  0
 10  9  2  0
 12 11  1  6
 12 14  1  0
 13 12  1  0
 14 15  1  1
 14 16  1  0
 16 18  2  0
 16 17  1  0
M  END
$$$$
