GCV.pdb
     RDKit          3D

 18 17  0  0  1  0  0  0  0  0999 V2000
    7.5632  -17.1209   18.5701 N   0  0  0  0  0  0  0  0  0  0  0  0
    8.4914  -17.0540   19.6821 C   0  0  0  0  0  0  0  0  0  0  0  0
    7.6978  -16.8362   20.9301 C   0  0  0  0  0  0  0  0  0  0  0  0
    6.4779  -16.5778   20.8580 O   0  0  0  0  0  0  0  0  0  0  0  0
    8.2619  -16.9071   22.2264 N   0  0  0  0  0  0  0  0  0  0  0  0
    7.4499  -16.7271   23.3785 C   0  0  1  0  0  0  0  0  0  0  0  0
    7.4415  -17.9144   24.3155 C   0  0  0  0  0  0  0  0  0  0  0  0
    6.5166  -17.5815   25.8267 S   0  0  0  0  0  0  0  0  0  0  0  0
    7.9790  -15.5843   24.1602 C   0  0  0  0  0  0  0  0  0  0  0  0
    9.2255  -15.4538   24.2306 O   0  0  0  0  0  0  0  0  0  0  0  0
    5.6279  -13.0298   26.8547 C   0  0  0  0  0  0  0  0  0  0  0  0
    6.7171  -12.5152   25.9401 C   0  0  1  0  0  0  0  0  0  0  0  0
    7.4961  -11.4202   26.6388 C   0  0  0  0  0  0  0  0  0  0  0  0
    7.7125  -13.5964   25.5687 C   0  0  2  0  0  0  0  0  0  0  0  0
    7.1091  -14.6561   24.8157 N   0  0  0  0  0  0  0  0  0  0  0  0
    8.3038  -14.1739   26.8037 C   0  0  0  0  0  0  0  0  0  0  0  0
    9.1225  -13.4022   27.5997 O   0  0  0  0  0  0  0  0  0  0  0  0
    8.0829  -15.3561   27.1556 O   0  0  0  0  0  0  0  0  0  0  0  0
  1  2  1  0
  3  4  2  0
  3  2  1  0
  5  3  1  0
  6  5  1  0
  6  7  1  1
  8  7  1  0
  9  6  1  0
  9 15  1  0
 10  9  2  0
 12 11  1  1
 12 14  1  0
 13 12  1  0
 14 15  1  1
 14 16  1  0
 16 18  2  0
 16 17  1  0
M  END
$$$$
