GCV.pdb
     RDKit          3D

 18 17  0  0  1  0  0  0  0  0999 V2000
    8.0352  -15.3308   20.5192 N   0  0  0  0  0  0  0  0  0  0  0  0
    7.0093  -15.1703   21.5312 C   0  0  0  0  0  0  0  0  0  0  0  0
    7.6497  -14.5754   22.7440 C   0  0  0  0  0  0  0  0  0  0  0  0
    8.8939  -14.4917   22.8164 O   0  0  0  0  0  0  0  0  0  0  0  0
    6.9097  -14.0871   23.8475 N   0  0  0  0  0  0  0  0  0  0  0  0
    7.5747  -13.5499   24.9824 C   0  0  1  0  0  0  0  0  0  0  0  0
    6.6932  -12.6902   25.8608 C   0  0  0  0  0  0  0  0  0  0  0  0
    7.5582  -12.1102   27.3323 S   0  0  0  0  0  0  0  0  0  0  0  0
    8.0444  -14.6691   25.8332 C   0  0  0  0  0  0  0  0  0  0  0  0
    7.2208  -15.5745   26.1119 O   0  0  0  0  0  0  0  0  0  0  0  0
   10.6735  -17.1738   25.2353 C   0  0  0  0  0  0  0  0  0  0  0  0
   10.9385  -16.6004   26.6097 C   0  0  1  0  0  0  0  0  0  0  0  0
   12.0919  -15.6212   26.5412 C   0  0  0  0  0  0  0  0  0  0  0  0
    9.7455  -15.8394   27.1534 C   0  0  2  0  0  0  0  0  0  0  0  0
    9.3870  -14.7260   26.3252 N   0  0  0  0  0  0  0  0  0  0  0  0
   10.0574  -15.3322   28.5150 C   0  0  0  0  0  0  0  0  0  0  0  0
   10.3461  -16.2193   29.5294 O   0  0  0  0  0  0  0  0  0  0  0  0
   10.0683  -14.1078   28.7810 O   0  0  0  0  0  0  0  0  0  0  0  0
  1  2  1  0
  3  4  2  0
  3  2  1  0
  5  3  1  0
  6  5  1  0
  6  7  1  1
  8  7  1  0
  9  6  1  0
  9 15  1  0
 10  9  2  0
 12 11  1  6
 12 14  1  0
 13 12  1  0
 14 15  1  6
 14 16  1  0
 16 18  2  0
 16 17  1  0
M  END
$$$$
