GCV.pdb
     RDKit          3D

 18 17  0  0  1  0  0  0  0  0999 V2000
    7.7335  -15.0620   20.4381 N   0  0  0  0  0  0  0  0  0  0  0  0
    6.7485  -14.9209   21.4928 C   0  0  0  0  0  0  0  0  0  0  0  0
    7.4439  -14.3820   22.7014 C   0  0  0  0  0  0  0  0  0  0  0  0
    8.6900  -14.2971   22.7198 O   0  0  0  0  0  0  0  0  0  0  0  0
    6.7554  -13.9494   23.8601 N   0  0  0  0  0  0  0  0  0  0  0  0
    7.4728  -13.4911   24.9978 C   0  0  1  0  0  0  0  0  0  0  0  0
    6.6335  -12.6976   25.9743 C   0  0  0  0  0  0  0  0  0  0  0  0
    7.5557  -12.2513   27.4577 S   0  0  0  0  0  0  0  0  0  0  0  0
    7.9811  -14.6658   25.7453 C   0  0  0  0  0  0  0  0  0  0  0  0
    7.1553  -15.5561   26.0631 O   0  0  0  0  0  0  0  0  0  0  0  0
   10.5370  -17.1764   24.8001 C   0  0  0  0  0  0  0  0  0  0  0  0
   10.8937  -16.7010   26.1910 C   0  0  1  0  0  0  0  0  0  0  0  0
   12.0699  -15.7494   26.1198 C   0  0  0  0  0  0  0  0  0  0  0  0
    9.7553  -15.9467   26.8489 C   0  0  2  0  0  0  0  0  0  0  0  0
    9.3624  -14.7911   26.0977 N   0  0  0  0  0  0  0  0  0  0  0  0
   10.1688  -15.5072   28.2070 C   0  0  0  0  0  0  0  0  0  0  0  0
   10.4767  -16.4451   29.1687 O   0  0  0  0  0  0  0  0  0  0  0  0
   10.2497  -14.2958   28.5169 O   0  0  0  0  0  0  0  0  0  0  0  0
  1  2  1  0
  3  4  2  0
  3  2  1  0
  5  3  1  0
  6  5  1  0
  6  7  1  1
  8  7  1  0
  9  6  1  0
  9 15  1  0
 10  9  2  0
 12 11  1  6
 12 14  1  0
 13 12  1  0
 14 15  1  6
 14 16  1  0
 16 18  2  0
 16 17  1  0
M  END
$$$$
