GCV.pdb
     RDKit          3D

 18 17  0  0  1  0  0  0  0  0999 V2000
    4.7821  -20.1742   22.3638 N   0  0  0  0  0  0  0  0  0  0  0  0
    6.0566  -19.4992   22.5135 C   0  0  0  0  0  0  0  0  0  0  0  0
    6.0152  -18.7169   23.7867 C   0  0  0  0  0  0  0  0  0  0  0  0
    5.0131  -18.0242   24.0624 O   0  0  0  0  0  0  0  0  0  0  0  0
    7.0741  -18.7137   24.7261 N   0  0  0  0  0  0  0  0  0  0  0  0
    7.0106  -17.8917   25.8834 C   0  0  1  0  0  0  0  0  0  0  0  0
    7.8959  -18.3585   27.0175 C   0  0  0  0  0  0  0  0  0  0  0  0
    7.4220  -19.9889   27.6234 S   0  0  0  0  0  0  0  0  0  0  0  0
    7.4753  -16.5302   25.5265 C   0  0  0  0  0  0  0  0  0  0  0  0
    8.1810  -16.4070   24.4957 O   0  0  0  0  0  0  0  0  0  0  0  0
    7.4805  -11.6209   26.1257 C   0  0  0  0  0  0  0  0  0  0  0  0
    6.8815  -12.9592   26.4970 C   0  0  1  0  0  0  0  0  0  0  0  0
    5.4769  -13.0627   25.9397 C   0  0  0  0  0  0  0  0  0  0  0  0
    7.6702  -14.1196   25.9234 C   0  0  2  0  0  0  0  0  0  0  0  0
    7.1376  -15.3892   26.3214 N   0  0  0  0  0  0  0  0  0  0  0  0
    9.0816  -14.0367   26.3814 C   0  0  0  0  0  0  0  0  0  0  0  0
    9.9284  -13.0983   25.8321 O   0  0  0  0  0  0  0  0  0  0  0  0
    9.5394  -14.8004   27.2631 O   0  0  0  0  0  0  0  0  0  0  0  0
  1  2  1  0
  3  4  2  0
  3  2  1  0
  5  3  1  0
  6  5  1  0
  6  7  1  1
  8  7  1  0
  9  6  1  0
  9 15  1  0
 10  9  2  0
 12 11  1  6
 12 14  1  0
 13 12  1  0
 14 15  1  1
 14 16  1  0
 16 18  2  0
 16 17  1  0
M  END
$$$$
