GCV.pdb
     RDKit          3D

 18 17  0  0  1  0  0  0  0  0999 V2000
    5.5232  -19.8603   23.9912 N   0  0  0  0  0  0  0  0  0  0  0  0
    6.1949  -19.0153   24.9594 C   0  0  0  0  0  0  0  0  0  0  0  0
    6.2202  -17.6234   24.4148 C   0  0  0  0  0  0  0  0  0  0  0  0
    5.6335  -17.3604   23.3439 O   0  0  0  0  0  0  0  0  0  0  0  0
    6.8883  -16.5542   25.0583 N   0  0  0  0  0  0  0  0  0  0  0  0
    6.9265  -15.2641   24.4641 C   0  0  1  0  0  0  0  0  0  0  0  0
    7.2568  -14.1510   25.4335 C   0  0  0  0  0  0  0  0  0  0  0  0
    5.8514  -13.7182   26.4764 S   0  0  0  0  0  0  0  0  0  0  0  0
    7.9907  -15.2463   23.4324 C   0  0  0  0  0  0  0  0  0  0  0  0
    8.9490  -16.0452   23.5700 O   0  0  0  0  0  0  0  0  0  0  0  0
    6.6933  -13.8595   19.6706 C   0  0  0  0  0  0  0  0  0  0  0  0
    8.1845  -13.8910   19.9218 C   0  0  1  0  0  0  0  0  0  0  0  0
    8.6756  -12.4983   20.2587 C   0  0  0  0  0  0  0  0  0  0  0  0
    8.5503  -14.7826   21.0918 C   0  0  2  0  0  0  0  0  0  0  0  0
    7.9380  -14.3541   22.3148 N   0  0  0  0  0  0  0  0  0  0  0  0
   10.0248  -14.7800   21.2775 C   0  0  0  0  0  0  0  0  0  0  0  0
   10.8407  -15.3191   20.3065 O   0  0  0  0  0  0  0  0  0  0  0  0
   10.5643  -14.2981   22.3007 O   0  0  0  0  0  0  0  0  0  0  0  0
  1  2  1  0
  3  4  2  0
  3  2  1  0
  5  3  1  0
  6  5  1  0
  6  7  1  1
  8  7  1  0
  9  6  1  0
  9 15  1  0
 10  9  2  0
 12 11  1  1
 12 14  1  0
 13 12  1  0
 14 15  1  1
 14 16  1  0
 16 18  2  0
 16 17  1  0
M  END
$$$$
