GCV.pdb
     RDKit          3D

 18 17  0  0  1  0  0  0  0  0999 V2000
    8.3200  -13.0539   18.5692 N   0  0  0  0  0  0  0  0  0  0  0  0
    7.2578  -13.3962   19.4949 C   0  0  0  0  0  0  0  0  0  0  0  0
    7.8661  -13.5632   20.8502 C   0  0  0  0  0  0  0  0  0  0  0  0
    9.1064  -13.5141   20.9891 O   0  0  0  0  0  0  0  0  0  0  0  0
    7.0988  -13.7798   22.0199 N   0  0  0  0  0  0  0  0  0  0  0  0
    7.7316  -13.9071   23.2857 C   0  0  1  0  0  0  0  0  0  0  0  0
    6.8453  -13.5400   24.4551 C   0  0  0  0  0  0  0  0  0  0  0  0
    7.6290  -13.8934   26.0396 S   0  0  0  0  0  0  0  0  0  0  0  0
    8.1171  -15.3244   23.4850 C   0  0  0  0  0  0  0  0  0  0  0  0
    7.2287  -16.1973   23.3290 O   0  0  0  0  0  0  0  0  0  0  0  0
   10.3464  -17.4750   21.6125 C   0  0  0  0  0  0  0  0  0  0  0  0
   10.7853  -17.5943   23.0550 C   0  0  1  0  0  0  0  0  0  0  0  0
   12.0257  -16.7554   23.2828 C   0  0  0  0  0  0  0  0  0  0  0  0
    9.7295  -17.0911   24.0193 C   0  0  2  0  0  0  0  0  0  0  0  0
    9.4519  -15.6962   23.8429 N   0  0  0  0  0  0  0  0  0  0  0  0
   10.1881  -17.3068   25.4163 C   0  0  0  0  0  0  0  0  0  0  0  0
   10.3384  -18.5885   25.9002 O   0  0  0  0  0  0  0  0  0  0  0  0
   10.4480  -16.3518   26.1848 O   0  0  0  0  0  0  0  0  0  0  0  0
  1  2  1  0
  3  4  2  0
  3  2  1  0
  5  3  1  0
  6  5  1  0
  6  7  1  1
  8  7  1  0
  9  6  1  0
  9 15  1  0
 10  9  2  0
 12 11  1  6
 12 14  1  0
 13 12  1  0
 14 15  1  6
 14 16  1  0
 16 18  2  0
 16 17  1  0
M  END
$$$$
