EME.pdb
     RDKit          3D

 27 26  0  0  1  0  0  0  0  0999 V2000
   22.4854  -14.5229   10.7999 N   0  0  0  0  0  0  0  0  0  0  0  0
   22.9229  -15.5986    9.9465 C   0  0  1  0  0  0  0  0  0  0  0  0
   24.1907  -16.2300   10.4405 C   0  0  0  0  0  0  0  0  0  0  0  0
   25.3458  -15.2793   10.3724 C   0  0  0  0  0  0  0  0  0  0  0  0
   26.5736  -15.9398   10.8670 C   0  0  0  0  0  0  0  0  0  0  0  0
   26.6376  -17.1454   11.2389 O   0  0  0  0  0  0  0  0  0  0  0  0
   21.8994  -16.6753    9.8553 C   0  0  0  0  0  0  0  0  0  0  0  0
   21.3126  -17.0237   10.9012 O   0  0  0  0  0  0  0  0  0  0  0  0
   27.7445  -15.1854   10.9314 O   0  0  0  0  0  0  0  0  0  0  0  0
   16.9482  -20.9668    5.3157 C   0  0  0  0  0  0  0  0  0  0  0  0
   18.1554  -19.6448    5.4578 S   0  0  0  0  0  0  0  0  0  0  0  0
   18.8984  -19.5151    7.0876 C   0  0  0  0  0  0  0  0  0  0  0  0
   19.9629  -18.4223    7.1369 C   0  0  0  0  0  0  0  0  0  0  0  0
   20.6123  -18.3668    8.4753 C   0  0  2  0  0  0  0  0  0  0  0  0
   21.5670  -17.3166    8.6351 N   0  0  0  0  0  0  0  0  0  0  0  0
   21.2152  -19.6680    8.8901 C   0  0  0  0  0  0  0  0  0  0  0  0
   22.3565  -19.9308    8.4325 O   0  0  0  0  0  0  0  0  0  0  0  0
   20.5751  -20.5766    9.7422 N   0  0  0  0  0  0  0  0  0  0  0  0
   21.2850  -21.8038   10.1519 C   0  0  1  0  0  0  0  0  0  0  0  0
   21.5072  -21.7994   11.6110 C   0  0  0  0  0  0  0  0  0  0  0  0
   22.2307  -22.9933   12.1169 C   0  0  0  0  0  0  0  0  0  0  0  0
   22.4739  -22.9788   13.5724 C   0  0  0  0  0  0  0  0  0  0  0  0
   22.4147  -21.8639   14.1740 O   0  0  0  0  0  0  0  0  0  0  0  0
   20.7567  -22.9778    9.4823 C   0  0  0  0  0  0  0  0  0  0  0  0
   19.6125  -23.0450    8.9739 O   0  0  0  0  0  0  0  0  0  0  0  0
   22.7608  -24.1120   14.3052 O   0  0  0  0  0  0  0  0  0  0  0  0
   21.5265  -24.1545    9.3603 O   0  0  0  0  0  0  0  0  0  0  0  0
  2  1  1  1
  2  3  1  0
  4  5  1  0
  4  3  1  0
  5  6  2  0
  7  2  1  0
  8  7  2  0
  9  5  1  0
 11 12  1  0
 11 10  1  0
 12 13  1  0
 14 13  1  6
 14 16  1  0
 14 15  1  0
 15  7  1  0
 16 17  2  0
 18 16  1  0
 19 18  1  0
 19 20  1  1
 21 20  1  0
 22 21  1  0
 23 22  2  0
 24 27  1  0
 24 19  1  0
 25 24  2  0
 26 22  1  0
M  END
$$$$
