EME.pdb
     RDKit          3D

 27 26  0  0  1  0  0  0  0  0999 V2000
   28.2335  -21.5675  -15.7947 N   0  0  0  0  0  0  0  0  0  0  0  0
   27.3881  -20.4610  -15.4237 C   0  0  1  0  0  0  0  0  0  0  0  0
   26.5586  -19.9748  -16.5749 C   0  0  0  0  0  0  0  0  0  0  0  0
   26.4721  -20.9971  -17.6658 C   0  0  0  0  0  0  0  0  0  0  0  0
   26.6457  -20.3466  -18.9830 C   0  0  0  0  0  0  0  0  0  0  0  0
   26.8097  -19.1054  -19.1522 O   0  0  0  0  0  0  0  0  0  0  0  0
   26.4504  -20.8321  -14.3291 C   0  0  0  0  0  0  0  0  0  0  0  0
   25.3625  -21.3626  -14.6366 O   0  0  0  0  0  0  0  0  0  0  0  0
   26.6267  -21.1523  -20.1208 O   0  0  0  0  0  0  0  0  0  0  0  0
   24.9944  -20.9181   -6.4386 C   0  0  0  0  0  0  0  0  0  0  0  0
   26.0641  -20.4359   -7.7981 S   0  0  0  0  0  0  0  0  0  0  0  0
   25.4544  -20.9361   -9.4115 C   0  0  0  0  0  0  0  0  0  0  0  0
   26.4483  -20.5986  -10.5197 C   0  0  0  0  0  0  0  0  0  0  0  0
   25.8848  -20.9173  -11.8602 C   0  0  2  0  0  0  0  0  0  0  0  0
   26.7424  -20.6080  -12.9597 N   0  0  0  0  0  0  0  0  0  0  0  0
   24.5347  -20.3220  -12.0867 C   0  0  0  0  0  0  0  0  0  0  0  0
   24.4796  -19.0688  -12.1742 O   0  0  0  0  0  0  0  0  0  0  0  0
   23.3659  -21.0849  -12.2006 N   0  0  0  0  0  0  0  0  0  0  0  0
   22.0957  -20.4123  -12.5357 C   0  0  1  0  0  0  0  0  0  0  0  0
   21.6802  -20.7649  -13.9073 C   0  0  0  0  0  0  0  0  0  0  0  0
   20.3704  -20.1925  -14.3092 C   0  0  0  0  0  0  0  0  0  0  0  0
   19.9144  -20.6126  -15.6484 C   0  0  0  0  0  0  0  0  0  0  0  0
   20.7000  -21.3197  -16.3492 O   0  0  0  0  0  0  0  0  0  0  0  0
   21.1527  -20.4677  -11.4341 C   0  0  0  0  0  0  0  0  0  0  0  0
   20.0237  -19.9222  -11.4437 O   0  0  0  0  0  0  0  0  0  0  0  0
   18.6830  -20.2752  -16.1713 O   0  0  0  0  0  0  0  0  0  0  0  0
   21.4621  -21.1627  -10.2452 O   0  0  0  0  0  0  0  0  0  0  0  0
  2  1  1  6
  2  3  1  0
  4  5  1  0
  4  3  1  0
  5  6  2  0
  7  2  1  0
  8  7  2  0
  9  5  1  0
 11 12  1  0
 11 10  1  0
 12 13  1  0
 14 13  1  1
 14 16  1  0
 14 15  1  0
 15  7  1  0
 16 17  2  0
 18 16  1  0
 19 18  1  0
 19 20  1  6
 21 20  1  0
 22 21  1  0
 23 22  2  0
 24 27  1  0
 24 19  1  0
 25 24  2  0
 26 22  1  0
M  END
$$$$
