EME.pdb
     RDKit          3D

 27 26  0  0  1  0  0  0  0  0999 V2000
   21.1049  -13.6832  -16.9029 N   0  0  0  0  0  0  0  0  0  0  0  0
   21.2187  -12.3260  -17.3737 C   0  0  1  0  0  0  0  0  0  0  0  0
   19.8808  -11.7230  -17.6840 C   0  0  0  0  0  0  0  0  0  0  0  0
   19.1892  -12.4516  -18.7946 C   0  0  0  0  0  0  0  0  0  0  0  0
   17.8645  -11.8445  -19.0493 C   0  0  0  0  0  0  0  0  0  0  0  0
   17.6787  -10.7821  -19.7072 O   0  0  0  0  0  0  0  0  0  0  0  0
   21.8748  -11.4503  -16.3648 C   0  0  0  0  0  0  0  0  0  0  0  0
   21.5920  -11.6206  -15.1604 O   0  0  0  0  0  0  0  0  0  0  0  0
   16.7389  -12.4824  -18.5294 O   0  0  0  0  0  0  0  0  0  0  0  0
   27.8735  -12.8791  -15.1210 C   0  0  0  0  0  0  0  0  0  0  0  0
   27.2569  -11.2566  -15.5818 S   0  0  0  0  0  0  0  0  0  0  0  0
   25.4687  -11.1123  -15.5021 C   0  0  0  0  0  0  0  0  0  0  0  0
   24.9982   -9.7113  -15.8838 C   0  0  0  0  0  0  0  0  0  0  0  0
   23.5158   -9.6029  -15.8015 C   0  0  2  0  0  0  0  0  0  0  0  0
   22.8023  -10.4367  -16.7157 N   0  0  0  0  0  0  0  0  0  0  0  0
   23.0228   -8.1977  -15.9057 C   0  0  0  0  0  0  0  0  0  0  0  0
   22.7151   -7.7929  -17.0557 O   0  0  0  0  0  0  0  0  0  0  0  0
   22.8958   -7.3424  -14.8040 N   0  0  0  0  0  0  0  0  0  0  0  0
   22.2288   -6.0374  -14.9775 C   0  0  1  0  0  0  0  0  0  0  0  0
   20.9092   -6.2215  -15.6124 C   0  0  0  0  0  0  0  0  0  0  0  0
   20.1074   -4.9759  -15.7146 C   0  0  0  0  0  0  0  0  0  0  0  0
   18.7054   -5.1930  -16.1209 C   0  0  0  0  0  0  0  0  0  0  0  0
   18.4061   -5.0177  -17.3408 O   0  0  0  0  0  0  0  0  0  0  0  0
   22.3804   -5.1975  -13.8040 C   0  0  0  0  0  0  0  0  0  0  0  0
   22.7482   -5.6149  -12.6803 O   0  0  0  0  0  0  0  0  0  0  0  0
   17.7113   -5.5746  -15.2436 O   0  0  0  0  0  0  0  0  0  0  0  0
   22.1126   -3.8128  -13.8602 O   0  0  0  0  0  0  0  0  0  0  0  0
  2  1  1  1
  2  3  1  0
  4  5  1  0
  4  3  1  0
  5  6  2  0
  7  2  1  0
  8  7  2  0
  9  5  1  0
 11 12  1  0
 11 10  1  0
 12 13  1  0
 14 13  1  6
 14 16  1  0
 14 15  1  0
 15  7  1  0
 16 17  2  0
 18 16  1  0
 19 18  1  0
 19 20  1  1
 21 20  1  0
 22 21  1  0
 23 22  2  0
 24 27  1  0
 24 19  1  0
 25 24  2  0
 26 22  1  0
M  END
$$$$
