EME.pdb
     RDKit          3D

 27 26  0  0  1  0  0  0  0  0999 V2000
   19.2802  -12.5852  -18.5034 N   0  0  0  0  0  0  0  0  0  0  0  0
   20.2134  -11.4943  -18.6300 C   0  0  1  0  0  0  0  0  0  0  0  0
   19.7571  -10.4757  -19.6320 C   0  0  0  0  0  0  0  0  0  0  0  0
   19.9899  -10.9383  -21.0371 C   0  0  0  0  0  0  0  0  0  0  0  0
   19.5749   -9.8864  -21.9908 C   0  0  0  0  0  0  0  0  0  0  0  0
   20.3283   -9.3785  -22.8685 O   0  0  0  0  0  0  0  0  0  0  0  0
   20.4051  -10.7855  -17.3353 C   0  0  0  0  0  0  0  0  0  0  0  0
   19.3949  -10.3509  -16.7437 O   0  0  0  0  0  0  0  0  0  0  0  0
   18.2637   -9.4172  -21.9212 O   0  0  0  0  0  0  0  0  0  0  0  0
   22.0118   -9.5266  -10.7353 C   0  0  0  0  0  0  0  0  0  0  0  0
   21.8992  -10.1489  -12.4161 S   0  0  0  0  0  0  0  0  0  0  0  0
   23.3043   -9.7119  -13.4455 C   0  0  0  0  0  0  0  0  0  0  0  0
   23.2003  -10.3336  -14.8356 C   0  0  0  0  0  0  0  0  0  0  0  0
   21.9410   -9.9215  -15.5140 C   0  0  2  0  0  0  0  0  0  0  0  0
   21.6818  -10.5859  -16.7515 N   0  0  0  0  0  0  0  0  0  0  0  0
   21.8292   -8.4442  -15.6982 C   0  0  0  0  0  0  0  0  0  0  0  0
   22.4976   -7.9419  -16.6373 O   0  0  0  0  0  0  0  0  0  0  0  0
   21.0329   -7.6252  -14.8880 N   0  0  0  0  0  0  0  0  0  0  0  0
   21.0435   -6.1658  -15.1067 C   0  0  1  0  0  0  0  0  0  0  0  0
   19.7086   -5.7066  -15.5373 C   0  0  0  0  0  0  0  0  0  0  0  0
   19.5709   -4.2301  -15.6114 C   0  0  0  0  0  0  0  0  0  0  0  0
   18.5702   -3.7664  -16.5919 C   0  0  0  0  0  0  0  0  0  0  0  0
   18.5825   -4.2901  -17.7470 O   0  0  0  0  0  0  0  0  0  0  0  0
   21.7677   -5.4717  -14.0581 C   0  0  0  0  0  0  0  0  0  0  0  0
   22.1302   -4.2732  -14.1254 O   0  0  0  0  0  0  0  0  0  0  0  0
   17.6284   -2.7969  -16.3147 O   0  0  0  0  0  0  0  0  0  0  0  0
   22.1196   -6.1281  -12.8592 O   0  0  0  0  0  0  0  0  0  0  0  0
  2  1  1  1
  2  3  1  0
  4  5  1  0
  4  3  1  0
  5  6  2  0
  7  2  1  0
  8  7  2  0
  9  5  1  0
 11 12  1  0
 11 10  1  0
 12 13  1  0
 14 13  1  6
 14 16  1  0
 14 15  1  0
 15  7  1  0
 16 17  2  0
 18 16  1  0
 19 18  1  0
 19 20  1  1
 21 20  1  0
 22 21  1  0
 23 22  2  0
 24 27  1  0
 24 19  1  0
 25 24  2  0
 26 22  1  0
M  END
$$$$
