EME.pdb
     RDKit          3D

 27 26  0  0  1  0  0  0  0  0999 V2000
   30.6726  -33.5051    6.7851 N   0  0  0  0  0  0  0  0  0  0  0  0
   29.3210  -33.5609    6.2882 C   0  0  1  0  0  0  0  0  0  0  0  0
   28.6098  -34.8062    6.7278 C   0  0  0  0  0  0  0  0  0  0  0  0
   28.9357  -35.9709    5.8449 C   0  0  0  0  0  0  0  0  0  0  0  0
   28.0829  -35.9433    4.6365 C   0  0  0  0  0  0  0  0  0  0  0  0
   26.9077  -36.4032    4.5793 O   0  0  0  0  0  0  0  0  0  0  0  0
   28.5161  -32.4018    6.7614 C   0  0  0  0  0  0  0  0  0  0  0  0
   28.6368  -32.0444    7.9519 O   0  0  0  0  0  0  0  0  0  0  0  0
   28.6060  -35.3731    3.4765 O   0  0  0  0  0  0  0  0  0  0  0  0
   25.3568  -25.6282    5.8224 C   0  0  0  0  0  0  0  0  0  0  0  0
   26.2292  -27.0944    5.2619 S   0  0  0  0  0  0  0  0  0  0  0  0
   25.4025  -28.6328    5.6802 C   0  0  0  0  0  0  0  0  0  0  0  0
   26.1805  -29.8460    5.1774 C   0  0  0  0  0  0  0  0  0  0  0  0
   26.8078  -30.5858    6.3066 C   0  0  2  0  0  0  0  0  0  0  0  0
   27.6232  -31.6925    5.9186 N   0  0  0  0  0  0  0  0  0  0  0  0
   25.8250  -31.0187    7.3436 C   0  0  0  0  0  0  0  0  0  0  0  0
   25.3639  -32.1831    7.2308 O   0  0  0  0  0  0  0  0  0  0  0  0
   25.4116  -30.2003    8.4021 N   0  0  0  0  0  0  0  0  0  0  0  0
   24.4330  -30.7210    9.3764 C   0  0  1  0  0  0  0  0  0  0  0  0
   25.0861  -31.6781   10.2906 C   0  0  0  0  0  0  0  0  0  0  0  0
   24.1981  -32.1929   11.3635 C   0  0  0  0  0  0  0  0  0  0  0  0
   24.9129  -32.6423   12.5738 C   0  0  0  0  0  0  0  0  0  0  0  0
   24.4600  -32.2786   13.7012 O   0  0  0  0  0  0  0  0  0  0  0  0
   23.5742  -29.6693    9.8882 C   0  0  0  0  0  0  0  0  0  0  0  0
   23.8873  -28.4555    9.9199 O   0  0  0  0  0  0  0  0  0  0  0  0
   26.0427  -33.4334   12.5383 O   0  0  0  0  0  0  0  0  0  0  0  0
   22.2912  -29.9611   10.3990 O   0  0  0  0  0  0  0  0  0  0  0  0
  2  1  1  1
  2  3  1  0
  4  5  1  0
  4  3  1  0
  5  6  2  0
  7  2  1  0
  8  7  2  0
  9  5  1  0
 11 12  1  0
 11 10  1  0
 12 13  1  0
 14 13  1  6
 14 16  1  0
 14 15  1  0
 15  7  1  0
 16 17  2  0
 18 16  1  0
 19 18  1  0
 19 20  1  1
 21 20  1  0
 22 21  1  0
 23 22  2  0
 24 27  1  0
 24 19  1  0
 25 24  2  0
 26 22  1  0
M  END
$$$$
