EME.pdb
     RDKit          3D

 27 26  0  0  1  0  0  0  0  0999 V2000
   28.5355  -20.5951  -15.0421 N   0  0  0  0  0  0  0  0  0  0  0  0
   27.1891  -20.6991  -15.5452 C   0  0  1  0  0  0  0  0  0  0  0  0
   27.0721  -21.7232  -16.6349 C   0  0  0  0  0  0  0  0  0  0  0  0
   28.0598  -21.4783  -17.7334 C   0  0  0  0  0  0  0  0  0  0  0  0
   27.6010  -20.3594  -18.5854 C   0  0  0  0  0  0  0  0  0  0  0  0
   26.4067  -19.9526  -18.6507 O   0  0  0  0  0  0  0  0  0  0  0  0
   26.2325  -21.0843  -14.4721 C   0  0  0  0  0  0  0  0  0  0  0  0
   25.1822  -21.6750  -14.8000 O   0  0  0  0  0  0  0  0  0  0  0  0
   28.5459  -19.7047  -19.3746 O   0  0  0  0  0  0  0  0  0  0  0  0
   26.4980  -19.2301   -7.7877 C   0  0  0  0  0  0  0  0  0  0  0  0
   25.7126  -20.8373   -7.9450 S   0  0  0  0  0  0  0  0  0  0  0  0
   25.0839  -21.1776   -9.5924 C   0  0  0  0  0  0  0  0  0  0  0  0
   26.1166  -20.8532  -10.6685 C   0  0  0  0  0  0  0  0  0  0  0  0
   25.5516  -21.0532  -12.0311 C   0  0  2  0  0  0  0  0  0  0  0  0
   26.4657  -20.8084  -13.1009 N   0  0  0  0  0  0  0  0  0  0  0  0
   24.2873  -20.2931  -12.2603 C   0  0  0  0  0  0  0  0  0  0  0  0
   24.4058  -19.1297  -12.7224 O   0  0  0  0  0  0  0  0  0  0  0  0
   23.0159  -20.8128  -11.9869 N   0  0  0  0  0  0  0  0  0  0  0  0
   21.8443  -20.2622  -12.6955 C   0  0  1  0  0  0  0  0  0  0  0  0
   22.0078  -20.4275  -14.1530 C   0  0  0  0  0  0  0  0  0  0  0  0
   20.8353  -19.9828  -14.9481 C   0  0  0  0  0  0  0  0  0  0  0  0
   20.9796  -20.1894  -16.4021 C   0  0  0  0  0  0  0  0  0  0  0  0
   20.1148  -20.9076  -16.9893 O   0  0  0  0  0  0  0  0  0  0  0  0
   20.6017  -20.6244  -12.0394 C   0  0  0  0  0  0  0  0  0  0  0  0
   19.4784  -20.1625  -12.3511 O   0  0  0  0  0  0  0  0  0  0  0  0
   22.0032  -19.6428  -17.1486 O   0  0  0  0  0  0  0  0  0  0  0  0
   20.5840  -21.5500  -10.9739 O   0  0  0  0  0  0  0  0  0  0  0  0
  2  1  1  1
  2  3  1  0
  4  5  1  0
  4  3  1  0
  5  6  2  0
  7  2  1  0
  8  7  2  0
  9  5  1  0
 11 12  1  0
 11 10  1  0
 12 13  1  0
 14 13  1  1
 14 16  1  0
 14 15  1  0
 15  7  1  0
 16 17  2  0
 18 16  1  0
 19 18  1  0
 19 20  1  6
 21 20  1  0
 22 21  1  0
 23 22  2  0
 24 27  1  0
 24 19  1  0
 25 24  2  0
 26 22  1  0
M  END
$$$$
