EME.pdb
     RDKit          3D

 27 26  0  0  1  0  0  0  0  0999 V2000
   21.1499  -16.2631  -16.1204 N   0  0  0  0  0  0  0  0  0  0  0  0
   21.5454  -15.0971  -16.8693 C   0  0  1  0  0  0  0  0  0  0  0  0
   20.4309  -14.5718  -17.7247 C   0  0  0  0  0  0  0  0  0  0  0  0
   20.0184  -15.5642  -18.7676 C   0  0  0  0  0  0  0  0  0  0  0  0
   19.3833  -14.8659  -19.9066 C   0  0  0  0  0  0  0  0  0  0  0  0
   18.1395  -14.6819  -20.0298 O   0  0  0  0  0  0  0  0  0  0  0  0
   21.9730  -13.9896  -15.9716 C   0  0  0  0  0  0  0  0  0  0  0  0
   21.3661  -13.8362  -14.8910 O   0  0  0  0  0  0  0  0  0  0  0  0
   20.2078  -14.3755  -20.9185 O   0  0  0  0  0  0  0  0  0  0  0  0
   28.4209  -14.1343  -14.4642 C   0  0  0  0  0  0  0  0  0  0  0  0
   27.4741  -12.7599  -15.1273 S   0  0  0  0  0  0  0  0  0  0  0  0
   25.6962  -12.9998  -15.0468 C   0  0  0  0  0  0  0  0  0  0  0  0
   24.9380  -11.7605  -15.5147 C   0  0  0  0  0  0  0  0  0  0  0  0
   23.4683  -11.9968  -15.5069 C   0  0  2  0  0  0  0  0  0  0  0  0
   23.0357  -13.1077  -16.2936 N   0  0  0  0  0  0  0  0  0  0  0  0
   22.6761  -10.7830  -15.8643 C   0  0  0  0  0  0  0  0  0  0  0  0
   22.2776  -10.7012  -17.0540 O   0  0  0  0  0  0  0  0  0  0  0  0
   22.3718   -9.7656  -14.9513 N   0  0  0  0  0  0  0  0  0  0  0  0
   21.4102   -8.7146  -15.3370 C   0  0  1  0  0  0  0  0  0  0  0  0
   20.1665   -9.3255  -15.8453 C   0  0  0  0  0  0  0  0  0  0  0  0
   19.1004   -8.3453  -16.1728 C   0  0  0  0  0  0  0  0  0  0  0  0
   17.8210   -8.9590  -16.5782 C   0  0  0  0  0  0  0  0  0  0  0  0
   17.2673   -9.7666  -15.7723 O   0  0  0  0  0  0  0  0  0  0  0  0
   21.3685   -7.6416  -14.3610 C   0  0  0  0  0  0  0  0  0  0  0  0
   21.7968   -7.7390  -13.1866 O   0  0  0  0  0  0  0  0  0  0  0  0
   17.2026   -8.6986  -17.7838 O   0  0  0  0  0  0  0  0  0  0  0  0
   20.8236   -6.3812  -14.6877 O   0  0  0  0  0  0  0  0  0  0  0  0
  2  1  1  1
  2  3  1  0
  4  5  1  0
  4  3  1  0
  5  6  2  0
  7  2  1  0
  8  7  2  0
  9  5  1  0
 11 12  1  0
 11 10  1  0
 12 13  1  0
 14 13  1  6
 14 16  1  0
 14 15  1  0
 15  7  1  0
 16 17  2  0
 18 16  1  0
 19 18  1  0
 19 20  1  1
 21 20  1  0
 22 21  1  0
 23 22  2  0
 24 27  1  0
 24 19  1  0
 25 24  2  0
 26 22  1  0
M  END
$$$$
