EME.pdb
     RDKit          3D

 27 26  0  0  1  0  0  0  0  0999 V2000
   26.2860  -23.6907  -16.5085 N   0  0  0  0  0  0  0  0  0  0  0  0
   26.7255  -22.5027  -15.8211 C   0  0  1  0  0  0  0  0  0  0  0  0
   26.7288  -21.3009  -16.7186 C   0  0  0  0  0  0  0  0  0  0  0  0
   25.4819  -21.2231  -17.5443 C   0  0  0  0  0  0  0  0  0  0  0  0
   25.8248  -20.9131  -18.9495 C   0  0  0  0  0  0  0  0  0  0  0  0
   25.7216  -19.7693  -19.4758 O   0  0  0  0  0  0  0  0  0  0  0  0
   25.8482  -22.1857  -14.6614 C   0  0  0  0  0  0  0  0  0  0  0  0
   24.6491  -22.5306  -14.7150 O   0  0  0  0  0  0  0  0  0  0  0  0
   26.2936  -21.9502  -19.7551 O   0  0  0  0  0  0  0  0  0  0  0  0
   23.6445  -21.0334   -7.9556 C   0  0  0  0  0  0  0  0  0  0  0  0
   24.8083  -21.3939   -9.2748 S   0  0  0  0  0  0  0  0  0  0  0  0
   25.3226  -19.9448  -10.2025 C   0  0  0  0  0  0  0  0  0  0  0  0
   26.2458  -20.3146  -11.3604 C   0  0  0  0  0  0  0  0  0  0  0  0
   25.5202  -21.1035  -12.3933 C   0  0  2  0  0  0  0  0  0  0  0  0
   26.3178  -21.5117  -13.5056 N   0  0  0  0  0  0  0  0  0  0  0  0
   24.2776  -20.4335  -12.8788 C   0  0  0  0  0  0  0  0  0  0  0  0
   24.4302  -19.3724  -13.5359 O   0  0  0  0  0  0  0  0  0  0  0  0
   22.9904  -20.9286  -12.6356 N   0  0  0  0  0  0  0  0  0  0  0  0
   21.8225  -20.1757  -13.1327 C   0  0  1  0  0  0  0  0  0  0  0  0
   21.2456  -20.8522  -14.3108 C   0  0  0  0  0  0  0  0  0  0  0  0
   20.2062  -21.8601  -13.9816 C   0  0  0  0  0  0  0  0  0  0  0  0
   20.0480  -22.9172  -14.9991 C   0  0  0  0  0  0  0  0  0  0  0  0
   19.2555  -23.8740  -14.7441 O   0  0  0  0  0  0  0  0  0  0  0  0
   20.9754  -19.7208  -12.0458 C   0  0  0  0  0  0  0  0  0  0  0  0
   20.0675  -18.8649  -12.1696 O   0  0  0  0  0  0  0  0  0  0  0  0
   20.7163  -22.9151  -16.2062 O   0  0  0  0  0  0  0  0  0  0  0  0
   21.1297  -20.2325  -10.7394 O   0  0  0  0  0  0  0  0  0  0  0  0
  2  1  1  6
  2  3  1  0
  4  5  1  0
  4  3  1  0
  5  6  2  0
  7  2  1  0
  8  7  2  0
  9  5  1  0
 11 12  1  0
 11 10  1  0
 12 13  1  0
 14 13  1  1
 14 16  1  0
 14 15  1  0
 15  7  1  0
 16 17  2  0
 18 16  1  0
 19 18  1  0
 19 20  1  6
 21 20  1  0
 22 21  1  0
 23 22  2  0
 24 27  1  0
 24 19  1  0
 25 24  2  0
 26 22  1  0
M  END
$$$$
