CAP.pdb
     RDKit          3D

 19 19  0  0  1  0  0  0  0  0999 V2000
    6.8460  -16.4621   19.9656 N   0  0  0  0  0  0  0  0  0  0  0  0
    7.6732  -15.5281   20.6656 C   0  0  1  0  0  0  0  0  0  0  0  0
    7.5244  -14.1574   20.0366 C   0  0  0  0  0  0  0  0  0  0  0  0
    8.6895  -13.0293   20.8282 S   0  0  0  0  0  0  0  0  0  0  0  0
    7.3161  -15.3968   22.0991 C   0  0  0  0  0  0  0  0  0  0  0  0
    6.2642  -14.7896   22.3928 O   0  0  0  0  0  0  0  0  0  0  0  0
    6.8744  -17.0541   24.9402 C   0  0  0  0  0  0  0  0  0  0  0  0
    7.7310  -15.8433   24.5550 C   0  0  2  0  0  0  0  0  0  0  0  0
    8.1115  -15.9278   23.1531 N   0  0  0  0  0  0  0  0  0  0  0  0
    8.8824  -15.7376   25.4474 C   0  0  0  0  0  0  0  0  0  0  0  0
    9.9378  -16.4364   25.3080 O   0  0  0  0  0  0  0  0  0  0  0  0
    8.8641  -14.8229   26.5378 N   0  0  0  0  0  0  0  0  0  0  0  0
    7.7334  -13.9128   26.8018 C   0  0  0  0  0  0  0  0  0  0  0  0
    8.4231  -12.8032   27.6137 C   0  0  0  0  0  0  0  0  0  0  0  0
    9.2820  -13.6632   28.5075 C   0  0  0  0  0  0  0  0  0  0  0  0
    9.9119  -14.6137   27.5240 C   0  0  1  0  0  0  0  0  0  0  0  0
   10.3013  -15.8913   28.1747 C   0  0  0  0  0  0  0  0  0  0  0  0
    9.5071  -16.8568   28.1088 O   0  0  0  0  0  0  0  0  0  0  0  0
   11.4933  -16.0734   28.8497 O   0  0  0  0  0  0  0  0  0  0  0  0
  2  1  1  6
  2  3  1  0
  4  3  1  0
  5  2  1  0
  6  5  2  0
  8  7  1  1
  8  9  1  0
  9  5  1  0
 10  8  1  0
 10 12  1  0
 11 10  2  0
 12 16  1  0
 13 12  1  0
 13 14  1  0
 14 15  1  0
 16 15  1  0
 16 17  1  1
 17 19  1  0
 18 17  2  0
M  END
$$$$
