CAP.pdb
     RDKit          3D

 19 19  0  0  1  0  0  0  0  0999 V2000
    7.8727  -13.2890   19.0375 N   0  0  0  0  0  0  0  0  0  0  0  0
    8.3441  -14.3231   19.9064 C   0  0  1  0  0  0  0  0  0  0  0  0
    9.8533  -14.2376   20.0143 C   0  0  0  0  0  0  0  0  0  0  0  0
   10.3323  -12.4980   20.0445 S   0  0  0  0  0  0  0  0  0  0  0  0
    7.7970  -14.2206   21.2812 C   0  0  0  0  0  0  0  0  0  0  0  0
    7.4845  -13.0892   21.7099 O   0  0  0  0  0  0  0  0  0  0  0  0
    6.4240  -16.5948   23.8714 C   0  0  0  0  0  0  0  0  0  0  0  0
    7.0284  -15.2474   23.4624 C   0  0  2  0  0  0  0  0  0  0  0  0
    7.6115  -15.3456   22.1329 N   0  0  0  0  0  0  0  0  0  0  0  0
    7.9883  -14.8007   24.4686 C   0  0  0  0  0  0  0  0  0  0  0  0
    9.1958  -15.2034   24.5060 O   0  0  0  0  0  0  0  0  0  0  0  0
    7.5956  -13.8723   25.4735 N   0  0  0  0  0  0  0  0  0  0  0  0
    6.2718  -13.2211   25.4900 C   0  0  0  0  0  0  0  0  0  0  0  0
    6.5675  -11.9589   26.3179 C   0  0  0  0  0  0  0  0  0  0  0  0
    7.4232  -12.5777   27.3953 C   0  0  0  0  0  0  0  0  0  0  0  0
    8.3946  -13.4038   26.5944 C   0  0  1  0  0  0  0  0  0  0  0  0
    8.9262  -14.5412   27.3888 C   0  0  0  0  0  0  0  0  0  0  0  0
    8.3196  -15.6351   27.3381 O   0  0  0  0  0  0  0  0  0  0  0  0
   10.0548  -14.4584   28.1818 O   0  0  0  0  0  0  0  0  0  0  0  0
  2  1  1  6
  2  3  1  0
  4  3  1  0
  5  2  1  0
  6  5  2  0
  8  7  1  1
  8  9  1  0
  9  5  1  0
 10  8  1  0
 10 12  1  0
 11 10  2  0
 12 16  1  0
 13 12  1  0
 13 14  1  0
 14 15  1  0
 16 15  1  0
 16 17  1  1
 17 19  1  0
 18 17  2  0
M  END
$$$$
