CAP.pdb
     RDKit          3D

 19 19  0  0  1  0  0  0  0  0999 V2000
    9.6820  -15.1870   20.1973 N   0  0  0  0  0  0  0  0  0  0  0  0
    9.5034  -16.1600   21.2307 C   0  0  1  0  0  0  0  0  0  0  0  0
   10.6757  -17.1203   21.2227 C   0  0  0  0  0  0  0  0  0  0  0  0
   10.4324  -18.3393   22.5310 S   0  0  0  0  0  0  0  0  0  0  0  0
    9.4327  -15.5614   22.5859 C   0  0  0  0  0  0  0  0  0  0  0  0
   10.3189  -14.7457   22.9185 O   0  0  0  0  0  0  0  0  0  0  0  0
    6.8833  -15.3859   25.3766 C   0  0  0  0  0  0  0  0  0  0  0  0
    8.3062  -15.2357   24.8282 C   0  0  2  0  0  0  0  0  0  0  0  0
    8.4069  -15.8705   23.5228 N   0  0  0  0  0  0  0  0  0  0  0  0
    9.2732  -15.7619   25.7882 C   0  0  0  0  0  0  0  0  0  0  0  0
    9.8220  -16.9047   25.6683 O   0  0  0  0  0  0  0  0  0  0  0  0
    9.6464  -14.9928   26.9263 N   0  0  0  0  0  0  0  0  0  0  0  0
    9.1877  -13.6075   27.1432 C   0  0  0  0  0  0  0  0  0  0  0  0
   10.2836  -13.0706   28.0796 C   0  0  0  0  0  0  0  0  0  0  0  0
   10.4201  -14.2640   28.9925 C   0  0  0  0  0  0  0  0  0  0  0  0
   10.5207  -15.4034   28.0131 C   0  0  1  0  0  0  0  0  0  0  0  0
   10.0647  -16.6820   28.6169 C   0  0  0  0  0  0  0  0  0  0  0  0
    8.9171  -17.0952   28.3349 O   0  0  0  0  0  0  0  0  0  0  0  0
   10.8381  -17.4416   29.4738 O   0  0  0  0  0  0  0  0  0  0  0  0
  2  1  1  6
  2  3  1  0
  4  3  1  0
  5  2  1  0
  6  5  2  0
  8  7  1  1
  8  9  1  0
  9  5  1  0
 10  8  1  0
 10 12  1  0
 11 10  2  0
 12 16  1  0
 13 12  1  0
 13 14  1  0
 14 15  1  0
 16 15  1  0
 16 17  1  1
 17 19  1  0
 18 17  2  0
M  END
$$$$
