CAP.pdb
     RDKit          3D

 19 19  0  0  1  0  0  0  0  0999 V2000
    8.2870  -15.9915   18.9114 N   0  0  0  0  0  0  0  0  0  0  0  0
    8.4470  -14.8294   19.7302 C   0  0  1  0  0  0  0  0  0  0  0  0
    8.0224  -13.6030   18.9478 C   0  0  0  0  0  0  0  0  0  0  0  0
    8.1465  -12.1599   20.0242 S   0  0  0  0  0  0  0  0  0  0  0  0
    7.6258  -14.8713   20.9646 C   0  0  0  0  0  0  0  0  0  0  0  0
    6.4053  -15.1155   20.8544 O   0  0  0  0  0  0  0  0  0  0  0  0
    6.9100  -16.2936   23.5767 C   0  0  0  0  0  0  0  0  0  0  0  0
    7.3892  -14.8411   23.4837 C   0  0  2  0  0  0  0  0  0  0  0  0
    8.1598  -14.6476   22.2648 N   0  0  0  0  0  0  0  0  0  0  0  0
    8.1346  -14.4796   24.6867 C   0  0  0  0  0  0  0  0  0  0  0  0
    9.3020  -14.9201   24.9410 O   0  0  0  0  0  0  0  0  0  0  0  0
    7.5645  -13.5965   25.6464 N   0  0  0  0  0  0  0  0  0  0  0  0
    6.2402  -12.9700   25.4722 C   0  0  0  0  0  0  0  0  0  0  0  0
    6.3700  -11.7344   26.3791 C   0  0  0  0  0  0  0  0  0  0  0  0
    7.0568  -12.3776   27.5584 C   0  0  0  0  0  0  0  0  0  0  0  0
    8.1629  -13.1559   26.8962 C   0  0  1  0  0  0  0  0  0  0  0  0
    8.5873  -14.3124   27.7267 C   0  0  0  0  0  0  0  0  0  0  0  0
    7.9764  -15.3966   27.5905 O   0  0  0  0  0  0  0  0  0  0  0  0
    9.6206  -14.2577   28.6426 O   0  0  0  0  0  0  0  0  0  0  0  0
  2  1  1  6
  2  3  1  0
  4  3  1  0
  5  2  1  0
  6  5  2  0
  8  7  1  1
  8  9  1  0
  9  5  1  0
 10  8  1  0
 10 12  1  0
 11 10  2  0
 12 16  1  0
 13 12  1  0
 13 14  1  0
 14 15  1  0
 16 15  1  0
 16 17  1  1
 17 19  1  0
 18 17  2  0
M  END
$$$$
