CAP.pdb
     RDKit          3D

 19 19  0  0  1  0  0  0  0  0999 V2000
    7.9363  -16.0505   19.0258 N   0  0  0  0  0  0  0  0  0  0  0  0
    8.3317  -14.9573   19.8594 C   0  0  1  0  0  0  0  0  0  0  0  0
    8.0774  -13.6535   19.1298 C   0  0  0  0  0  0  0  0  0  0  0  0
    8.4882  -12.2853   20.2325 S   0  0  0  0  0  0  0  0  0  0  0  0
    7.5817  -14.9010   21.1377 C   0  0  0  0  0  0  0  0  0  0  0  0
    6.3456  -14.7240   21.0903 O   0  0  0  0  0  0  0  0  0  0  0  0
    6.9909  -16.4958   23.9631 C   0  0  0  0  0  0  0  0  0  0  0  0
    7.4518  -15.0664   23.6593 C   0  0  2  0  0  0  0  0  0  0  0  0
    8.2005  -15.0386   22.4120 N   0  0  0  0  0  0  0  0  0  0  0  0
    8.2123  -14.5330   24.7866 C   0  0  0  0  0  0  0  0  0  0  0  0
    9.4440  -14.7919   24.9802 O   0  0  0  0  0  0  0  0  0  0  0  0
    7.5839  -13.6803   25.7374 N   0  0  0  0  0  0  0  0  0  0  0  0
    6.1693  -13.2734   25.6377 C   0  0  0  0  0  0  0  0  0  0  0  0
    6.1720  -11.9718   26.4574 C   0  0  0  0  0  0  0  0  0  0  0  0
    7.0346  -12.4205   27.6109 C   0  0  0  0  0  0  0  0  0  0  0  0
    8.1965  -13.0685   26.9056 C   0  0  1  0  0  0  0  0  0  0  0  0
    8.8548  -14.0872   27.7637 C   0  0  0  0  0  0  0  0  0  0  0  0
    8.4520  -15.2706   27.6951 O   0  0  0  0  0  0  0  0  0  0  0  0
    9.8886  -13.8006   28.6347 O   0  0  0  0  0  0  0  0  0  0  0  0
  2  1  1  6
  2  3  1  0
  4  3  1  0
  5  2  1  0
  6  5  2  0
  8  7  1  1
  8  9  1  0
  9  5  1  0
 10  8  1  0
 10 12  1  0
 11 10  2  0
 12 16  1  0
 13 12  1  0
 13 14  1  0
 14 15  1  0
 16 15  1  0
 16 17  1  1
 17 19  1  0
 18 17  2  0
M  END
$$$$
