CAP.pdb
     RDKit          3D

 19 19  0  0  1  0  0  0  0  0999 V2000
    7.6566  -15.2003   19.5655 N   0  0  0  0  0  0  0  0  0  0  0  0
    7.9853  -16.0361   20.6790 C   0  0  1  0  0  0  0  0  0  0  0  0
    9.4924  -16.1410   20.7989 C   0  0  0  0  0  0  0  0  0  0  0  0
   10.1834  -14.4753   20.8678 S   0  0  0  0  0  0  0  0  0  0  0  0
    7.4756  -15.5115   21.9693 C   0  0  0  0  0  0  0  0  0  0  0  0
    7.2979  -14.2793   22.0774 O   0  0  0  0  0  0  0  0  0  0  0  0
    6.1617  -16.9518   25.2277 C   0  0  0  0  0  0  0  0  0  0  0  0
    6.7310  -15.8183   24.3681 C   0  0  2  0  0  0  0  0  0  0  0  0
    7.1798  -16.3417   23.0868 N   0  0  0  0  0  0  0  0  0  0  0  0
    7.7880  -15.1189   25.0940 C   0  0  0  0  0  0  0  0  0  0  0  0
    9.0158  -15.4497   25.0258 O   0  0  0  0  0  0  0  0  0  0  0  0
    7.4730  -14.0102   25.9293 N   0  0  0  0  0  0  0  0  0  0  0  0
    6.1394  -13.3797   25.9556 C   0  0  0  0  0  0  0  0  0  0  0  0
    6.4811  -11.9742   26.4788 C   0  0  0  0  0  0  0  0  0  0  0  0
    7.4601  -12.3563   27.5613 C   0  0  0  0  0  0  0  0  0  0  0  0
    8.3682  -13.3190   26.8430 C   0  0  1  0  0  0  0  0  0  0  0  0
    9.0112  -14.2686   27.7876 C   0  0  0  0  0  0  0  0  0  0  0  0
    8.4784  -15.3887   27.9574 O   0  0  0  0  0  0  0  0  0  0  0  0
   10.1664  -13.9836   28.4904 O   0  0  0  0  0  0  0  0  0  0  0  0
  2  1  1  6
  2  3  1  0
  4  3  1  0
  5  2  1  0
  6  5  2  0
  8  7  1  1
  8  9  1  0
  9  5  1  0
 10  8  1  0
 10 12  1  0
 11 10  2  0
 12 16  1  0
 13 12  1  0
 13 14  1  0
 14 15  1  0
 16 15  1  0
 16 17  1  1
 17 19  1  0
 18 17  2  0
M  END
$$$$
