ASD.pdb
     RDKit          3D

 20 19  0  0  1  0  0  0  0  0999 V2000
   17.2523  -11.3917  -17.0201 C   0  0  0  0  0  0  0  0  0  0  0  0
   18.0521  -10.2921  -17.6838 C   0  0  2  0  0  0  0  0  0  0  0  0
   18.9141  -10.8011  -18.7227 N   0  0  0  0  0  0  0  0  0  0  0  0
   18.8026   -9.5651  -16.6370 C   0  0  0  0  0  0  0  0  0  0  0  0
   18.1439   -8.9977  -15.7263 O   0  0  0  0  0  0  0  0  0  0  0  0
   23.0040   -8.8415  -14.4150 O   0  0  0  0  0  0  0  0  0  0  0  0
   22.2374   -9.4485  -15.3804 C   0  0  0  0  0  0  0  0  0  0  0  0
   20.8456   -8.8037  -15.4880 C   0  0  2  0  0  0  0  0  0  0  0  0
   20.2046   -9.4684  -16.5954 N   0  0  0  0  0  0  0  0  0  0  0  0
   20.9975   -7.3504  -15.7319 C   0  0  0  0  0  0  0  0  0  0  0  0
   21.2764   -6.9820  -16.9007 O   0  0  0  0  0  0  0  0  0  0  0  0
   20.8411   -6.3823  -14.7094 N   0  0  0  0  0  0  0  0  0  0  0  0
   21.0588   -4.9612  -14.9020 C   0  0  1  0  0  0  0  0  0  0  0  0
   19.7485   -4.2101  -14.9718 C   0  0  0  0  0  0  0  0  0  0  0  0
   19.8905   -2.7532  -15.0803 C   0  0  0  0  0  0  0  0  0  0  0  0
   20.8939   -2.2744  -15.6531 O   0  0  0  0  0  0  0  0  0  0  0  0
   21.9508   -4.5133  -13.8171 C   0  0  0  0  0  0  0  0  0  0  0  0
   22.6078   -3.2974  -13.8335 O   0  0  0  0  0  0  0  0  0  0  0  0
   18.9526   -1.8704  -14.5711 O   0  0  0  0  0  0  0  0  0  0  0  0
   22.1272   -5.2628  -12.8313 O   0  0  0  0  0  0  0  0  0  0  0  0
  2  1  1  1
  2  3  1  0
  4  2  1  0
  4  5  2  0
  6  7  1  0
  8  7  1  6
  8  9  1  0
  9  4  1  0
 10  8  1  0
 11 10  2  0
 12 10  1  0
 13 17  1  0
 13 12  1  0
 13 14  1  1
 15 14  1  0
 15 16  2  0
 17 18  1  0
 19 15  1  0
 20 17  2  0
M  END
$$$$
