ASD.pdb
     RDKit          3D

 20 19  0  0  1  0  0  0  0  0999 V2000
   21.3407  -13.1081  -19.1644 C   0  0  0  0  0  0  0  0  0  0  0  0
   21.1581  -12.5512  -17.7694 C   0  0  2  0  0  0  0  0  0  0  0  0
   20.0447  -13.1615  -17.0842 N   0  0  0  0  0  0  0  0  0  0  0  0
   21.0196  -11.0820  -17.8687 C   0  0  0  0  0  0  0  0  0  0  0  0
   22.0012  -10.4260  -18.3064 O   0  0  0  0  0  0  0  0  0  0  0  0
   17.4872   -9.1021  -17.0566 O   0  0  0  0  0  0  0  0  0  0  0  0
   18.3423   -8.6314  -18.0238 C   0  0  0  0  0  0  0  0  0  0  0  0
   19.8094   -8.9432  -17.6844 C   0  0  2  0  0  0  0  0  0  0  0  0
   19.8613  -10.3729  -17.5054 N   0  0  0  0  0  0  0  0  0  0  0  0
   20.1898   -8.2198  -16.4488 C   0  0  0  0  0  0  0  0  0  0  0  0
   20.0962   -8.8390  -15.3592 O   0  0  0  0  0  0  0  0  0  0  0  0
   20.6467   -6.8787  -16.4570 N   0  0  0  0  0  0  0  0  0  0  0  0
   21.0456   -6.1537  -15.2656 C   0  0  1  0  0  0  0  0  0  0  0  0
   22.1183   -5.1348  -15.5770 C   0  0  0  0  0  0  0  0  0  0  0  0
   22.4847   -4.2757  -14.4447 C   0  0  0  0  0  0  0  0  0  0  0  0
   22.6426   -4.7844  -13.3131 O   0  0  0  0  0  0  0  0  0  0  0  0
   19.8197   -5.5769  -14.6844 C   0  0  0  0  0  0  0  0  0  0  0  0
   18.7056   -5.2569  -15.4372 O   0  0  0  0  0  0  0  0  0  0  0  0
   22.6664   -2.9085  -14.5713 O   0  0  0  0  0  0  0  0  0  0  0  0
   19.7770   -5.3637  -13.4526 O   0  0  0  0  0  0  0  0  0  0  0  0
  2  1  1  6
  2  3  1  0
  4  2  1  0
  4  5  2  0
  6  7  1  0
  8  7  1  1
  8  9  1  0
  9  4  1  0
 10  8  1  0
 11 10  2  0
 12 10  1  0
 13 17  1  0
 13 12  1  0
 13 14  1  6
 15 14  1  0
 15 16  2  0
 17 18  1  0
 19 15  1  0
 20 17  2  0
M  END
$$$$
