ASD.pdb
     RDKit          3D

 20 19  0  0  1  0  0  0  0  0999 V2000
   14.2303  -11.4761  -11.0986 C   0  0  0  0  0  0  0  0  0  0  0  0
   15.6784  -11.0942  -10.8822 C   0  0  2  0  0  0  0  0  0  0  0  0
   16.1434  -11.4580   -9.5659 N   0  0  0  0  0  0  0  0  0  0  0  0
   15.8233   -9.6467  -11.1492 C   0  0  0  0  0  0  0  0  0  0  0  0
   15.5564   -9.2316  -12.3076 O   0  0  0  0  0  0  0  0  0  0  0  0
   16.4102   -6.9738   -8.1608 O   0  0  0  0  0  0  0  0  0  0  0  0
   15.8079   -6.5466   -9.3197 C   0  0  0  0  0  0  0  0  0  0  0  0
   16.3316   -7.3118  -10.5464 C   0  0  2  0  0  0  0  0  0  0  0  0
   16.2399   -8.7061  -10.1909 N   0  0  0  0  0  0  0  0  0  0  0  0
   17.7298   -6.9038  -10.8170 C   0  0  0  0  0  0  0  0  0  0  0  0
   18.6064   -7.2391   -9.9812 O   0  0  0  0  0  0  0  0  0  0  0  0
   18.1021   -6.1624  -11.9655 N   0  0  0  0  0  0  0  0  0  0  0  0
   19.4524   -5.7013  -12.2269 C   0  0  1  0  0  0  0  0  0  0  0  0
   20.3119   -6.8114  -12.7881 C   0  0  0  0  0  0  0  0  0  0  0  0
   21.6414   -6.3803  -13.2363 C   0  0  0  0  0  0  0  0  0  0  0  0
   22.2445   -5.4872  -12.6015 O   0  0  0  0  0  0  0  0  0  0  0  0
   19.3404   -4.5246  -13.1078 C   0  0  0  0  0  0  0  0  0  0  0  0
   20.3286   -3.5640  -13.2134 O   0  0  0  0  0  0  0  0  0  0  0  0
   22.2692   -6.9230  -14.3452 O   0  0  0  0  0  0  0  0  0  0  0  0
   18.3056   -4.3806  -13.7957 O   0  0  0  0  0  0  0  0  0  0  0  0
  2  1  1  1
  2  3  1  0
  4  2  1  0
  4  5  2  0
  6  7  1  0
  8  7  1  1
  8  9  1  0
  9  4  1  0
 10  8  1  0
 11 10  2  0
 12 10  1  0
 13 17  1  0
 13 12  1  0
 13 14  1  6
 15 14  1  0
 15 16  2  0
 17 18  1  0
 19 15  1  0
 20 17  2  0
M  END
$$$$
