ASD.pdb
     RDKit          3D

 20 19  0  0  1  0  0  0  0  0999 V2000
   20.9922  -13.5875  -18.0054 C   0  0  0  0  0  0  0  0  0  0  0  0
   21.3160  -12.1955  -18.5026 C   0  0  2  0  0  0  0  0  0  0  0  0
   22.4121  -12.1970  -19.4407 N   0  0  0  0  0  0  0  0  0  0  0  0
   21.5802  -11.3322  -17.3311 C   0  0  0  0  0  0  0  0  0  0  0  0
   20.6464  -11.1590  -16.5044 O   0  0  0  0  0  0  0  0  0  0  0  0
   25.1770   -9.2487  -16.6356 O   0  0  0  0  0  0  0  0  0  0  0  0
   24.4802   -9.8659  -15.6248 C   0  0  0  0  0  0  0  0  0  0  0  0
   22.9681   -9.8794  -15.9041 C   0  0  2  0  0  0  0  0  0  0  0  0
   22.8078  -10.6935  -17.0833 N   0  0  0  0  0  0  0  0  0  0  0  0
   22.4995   -8.4916  -16.1257 C   0  0  0  0  0  0  0  0  0  0  0  0
   22.4613   -8.0719  -17.3097 O   0  0  0  0  0  0  0  0  0  0  0  0
   22.1008   -7.6400  -15.0659 N   0  0  0  0  0  0  0  0  0  0  0  0
   21.6960   -6.2590  -15.2477 C   0  0  1  0  0  0  0  0  0  0  0  0
   20.2570   -6.1646  -15.7021 C   0  0  0  0  0  0  0  0  0  0  0  0
   19.7272   -4.7968  -15.7555 C   0  0  0  0  0  0  0  0  0  0  0  0
   20.4604   -3.8692  -16.1633 O   0  0  0  0  0  0  0  0  0  0  0  0
   21.9723   -5.5609  -13.9791 C   0  0  0  0  0  0  0  0  0  0  0  0
   22.0837   -4.1866  -13.8825 O   0  0  0  0  0  0  0  0  0  0  0  0
   18.4353   -4.4797  -15.3702 O   0  0  0  0  0  0  0  0  0  0  0  0
   22.1141   -6.2362  -12.9358 O   0  0  0  0  0  0  0  0  0  0  0  0
  2  1  1  1
  2  3  1  0
  4  2  1  0
  4  5  2  0
  6  7  1  0
  8  7  1  6
  8  9  1  0
  9  4  1  0
 10  8  1  0
 11 10  2  0
 12 10  1  0
 13 17  1  0
 13 12  1  0
 13 14  1  1
 15 14  1  0
 15 16  2  0
 17 18  1  0
 19 15  1  0
 20 17  2  0
M  END
$$$$
