ASD.pdb
     RDKit          3D

 20 19  0  0  1  0  0  0  0  0999 V2000
   12.3415   -9.0508   -9.4579 C   0  0  0  0  0  0  0  0  0  0  0  0
   13.6378   -9.5928  -10.0195 C   0  0  2  0  0  0  0  0  0  0  0  0
   14.2773  -10.5148   -9.1126 N   0  0  0  0  0  0  0  0  0  0  0  0
   14.5096   -8.4493  -10.3657 C   0  0  0  0  0  0  0  0  0  0  0  0
   14.1020   -7.6415  -11.2413 O   0  0  0  0  0  0  0  0  0  0  0  0
   17.5752   -5.2177   -8.9131 O   0  0  0  0  0  0  0  0  0  0  0  0
   16.7607   -6.3144   -8.7641 C   0  0  0  0  0  0  0  0  0  0  0  0
   16.4929   -7.0091  -10.1096 C   0  0  2  0  0  0  0  0  0  0  0  0
   15.7641   -8.2083   -9.7784 N   0  0  0  0  0  0  0  0  0  0  0  0
   17.7846   -7.3144  -10.7678 C   0  0  0  0  0  0  0  0  0  0  0  0
   18.5078   -8.2011  -10.2481 O   0  0  0  0  0  0  0  0  0  0  0  0
   18.2210   -6.6515  -11.9414 N   0  0  0  0  0  0  0  0  0  0  0  0
   19.4413   -6.9847  -12.6513 C   0  0  1  0  0  0  0  0  0  0  0  0
   19.3306   -8.3309  -13.3304 C   0  0  0  0  0  0  0  0  0  0  0  0
   20.4933   -8.6936  -14.1495 C   0  0  0  0  0  0  0  0  0  0  0  0
   20.3309   -8.9741  -15.3574 O   0  0  0  0  0  0  0  0  0  0  0  0
   19.7196   -5.8681  -13.5727 C   0  0  0  0  0  0  0  0  0  0  0  0
   20.9804   -5.5955  -14.0692 O   0  0  0  0  0  0  0  0  0  0  0  0
   21.7807   -8.7409  -13.6410 O   0  0  0  0  0  0  0  0  0  0  0  0
   18.7761   -5.1273  -13.9273 O   0  0  0  0  0  0  0  0  0  0  0  0
  2  1  1  1
  2  3  1  0
  4  2  1  0
  4  5  2  0
  6  7  1  0
  8  7  1  1
  8  9  1  0
  9  4  1  0
 10  8  1  0
 11 10  2  0
 12 10  1  0
 13 17  1  0
 13 12  1  0
 13 14  1  6
 15 14  1  0
 15 16  2  0
 17 18  1  0
 19 15  1  0
 20 17  2  0
M  END
$$$$
