ASD.pdb
     RDKit          3D

 20 19  0  0  1  0  0  0  0  0999 V2000
   16.0127  -11.3997  -10.5112 C   0  0  0  0  0  0  0  0  0  0  0  0
   15.0099  -10.3656  -10.0479 C   0  0  2  0  0  0  0  0  0  0  0  0
   13.6650  -10.6969  -10.4515 N   0  0  0  0  0  0  0  0  0  0  0  0
   15.4382   -9.0428  -10.5521 C   0  0  0  0  0  0  0  0  0  0  0  0
   15.2393   -8.7831  -11.7680 O   0  0  0  0  0  0  0  0  0  0  0  0
   17.2204   -6.2228   -8.1412 O   0  0  0  0  0  0  0  0  0  0  0  0
   16.3834   -5.7950   -9.1436 C   0  0  0  0  0  0  0  0  0  0  0  0
   16.3728   -6.7733  -10.3299 C   0  0  2  0  0  0  0  0  0  0  0  0
   16.0527   -8.0580   -9.7589 N   0  0  0  0  0  0  0  0  0  0  0  0
   17.7067   -6.7747  -10.9745 C   0  0  0  0  0  0  0  0  0  0  0  0
   18.5929   -7.5142  -10.4775 O   0  0  0  0  0  0  0  0  0  0  0  0
   18.0083   -5.9843  -12.1110 N   0  0  0  0  0  0  0  0  0  0  0  0
   19.2802   -6.0226  -12.8074 C   0  0  1  0  0  0  0  0  0  0  0  0
   19.6091   -7.4232  -13.2720 C   0  0  0  0  0  0  0  0  0  0  0  0
   20.7717   -7.5081  -14.1640 C   0  0  0  0  0  0  0  0  0  0  0  0
   21.8547   -6.9901  -13.8132 O   0  0  0  0  0  0  0  0  0  0  0  0
   19.2029   -5.0312  -13.8957 C   0  0  0  0  0  0  0  0  0  0  0  0
   18.0106   -4.4980  -14.3478 O   0  0  0  0  0  0  0  0  0  0  0  0
   20.7260   -8.1435  -15.3938 O   0  0  0  0  0  0  0  0  0  0  0  0
   20.2615   -4.6489  -14.4416 O   0  0  0  0  0  0  0  0  0  0  0  0
  2  1  1  6
  2  3  1  0
  4  2  1  0
  4  5  2  0
  6  7  1  0
  8  7  1  1
  8  9  1  0
  9  4  1  0
 10  8  1  0
 11 10  2  0
 12 10  1  0
 13 17  1  0
 13 12  1  0
 13 14  1  6
 15 14  1  0
 15 16  2  0
 17 18  1  0
 19 15  1  0
 20 17  2  0
M  END
$$$$
