ASD.pdb
     RDKit          3D

 20 19  0  0  1  0  0  0  0  0999 V2000
   16.8044  -14.1514  -16.8767 C   0  0  0  0  0  0  0  0  0  0  0  0
   17.4396  -13.3618  -15.7531 C   0  0  2  0  0  0  0  0  0  0  0  0
   16.4608  -12.6361  -14.9806 N   0  0  0  0  0  0  0  0  0  0  0  0
   18.4694  -12.4726  -16.3329 C   0  0  0  0  0  0  0  0  0  0  0  0
   19.2383  -12.9529  -17.2066 O   0  0  0  0  0  0  0  0  0  0  0  0
   20.1453   -9.5446  -18.8395 O   0  0  0  0  0  0  0  0  0  0  0  0
   19.2743  -10.3093  -18.1013 C   0  0  0  0  0  0  0  0  0  0  0  0
   19.6620  -10.3343  -16.6135 C   0  0  2  0  0  0  0  0  0  0  0  0
   18.6431  -11.1255  -15.9696 N   0  0  0  0  0  0  0  0  0  0  0  0
   19.6927   -8.9476  -16.0929 C   0  0  0  0  0  0  0  0  0  0  0  0
   18.5917   -8.3921  -15.8503 O   0  0  0  0  0  0  0  0  0  0  0  0
   20.9001   -8.2423  -15.8645 N   0  0  0  0  0  0  0  0  0  0  0  0
   20.9632   -6.9174  -15.2776 C   0  0  1  0  0  0  0  0  0  0  0  0
   22.1952   -6.7574  -14.4159 C   0  0  0  0  0  0  0  0  0  0  0  0
   22.3561   -5.4207  -13.8314 C   0  0  0  0  0  0  0  0  0  0  0  0
   21.7191   -5.1211  -12.7976 O   0  0  0  0  0  0  0  0  0  0  0  0
   20.8777   -5.9520  -16.3885 C   0  0  0  0  0  0  0  0  0  0  0  0
   20.3291   -4.6908  -16.2519 O   0  0  0  0  0  0  0  0  0  0  0  0
   23.1918   -4.4610  -14.3781 O   0  0  0  0  0  0  0  0  0  0  0  0
   21.3200   -6.2816  -17.5112 O   0  0  0  0  0  0  0  0  0  0  0  0
  2  1  1  6
  2  3  1  0
  4  2  1  0
  4  5  2  0
  6  7  1  0
  8  7  1  6
  8  9  1  0
  9  4  1  0
 10  8  1  0
 11 10  2  0
 12 10  1  0
 13 17  1  0
 13 12  1  0
 13 14  1  6
 15 14  1  0
 15 16  2  0
 17 18  1  0
 19 15  1  0
 20 17  2  0
M  END
$$$$
