ASD.pdb
     RDKit          3D

 20 19  0  0  1  0  0  0  0  0999 V2000
   18.7853  -13.8896  -16.1406 C   0  0  0  0  0  0  0  0  0  0  0  0
   18.7913  -12.6711  -17.0378 C   0  0  2  0  0  0  0  0  0  0  0  0
   19.6786  -12.8323  -18.1639 N   0  0  0  0  0  0  0  0  0  0  0  0
   19.1344  -11.4898  -16.2167 C   0  0  0  0  0  0  0  0  0  0  0  0
   18.3624  -11.1863  -15.2694 O   0  0  0  0  0  0  0  0  0  0  0  0
   22.4499   -8.3715  -14.7315 O   0  0  0  0  0  0  0  0  0  0  0  0
   22.0565   -9.4423  -15.4976 C   0  0  0  0  0  0  0  0  0  0  0  0
   20.5248   -9.5648  -15.5574 C   0  0  2  0  0  0  0  0  0  0  0  0
   20.2680  -10.6853  -16.4276 N   0  0  0  0  0  0  0  0  0  0  0  0
   19.9544   -8.3080  -16.0957 C   0  0  0  0  0  0  0  0  0  0  0  0
   19.9829   -8.1420  -17.3412 O   0  0  0  0  0  0  0  0  0  0  0  0
   19.3890   -7.3075  -15.2671 N   0  0  0  0  0  0  0  0  0  0  0  0
   18.8647   -6.0491  -15.7627 C   0  0  1  0  0  0  0  0  0  0  0  0
   17.6262   -5.6333  -15.0018 C   0  0  0  0  0  0  0  0  0  0  0  0
   17.0594   -4.3468  -15.4238 C   0  0  0  0  0  0  0  0  0  0  0  0
   17.3183   -3.3154  -14.7654 O   0  0  0  0  0  0  0  0  0  0  0  0
   19.9659   -5.0710  -15.6984 C   0  0  0  0  0  0  0  0  0  0  0  0
   20.0397   -3.9624  -16.5206 O   0  0  0  0  0  0  0  0  0  0  0  0
   16.2395   -4.2185  -16.5327 O   0  0  0  0  0  0  0  0  0  0  0  0
   20.8809   -5.2447  -14.8634 O   0  0  0  0  0  0  0  0  0  0  0  0
  2  1  1  1
  2  3  1  0
  4  2  1  0
  4  5  2  0
  6  7  1  0
  8  7  1  6
  8  9  1  0
  9  4  1  0
 10  8  1  0
 11 10  2  0
 12 10  1  0
 13 17  1  0
 13 12  1  0
 13 14  1  1
 15 14  1  0
 15 16  2  0
 17 18  1  0
 19 15  1  0
 20 17  2  0
M  END
$$$$
