ASD.pdb
     RDKit          3D

 20 19  0  0  1  0  0  0  0  0999 V2000
   17.1297  -13.6737  -15.2646 C   0  0  0  0  0  0  0  0  0  0  0  0
   16.1499  -12.6203  -14.7958 C   0  0  2  0  0  0  0  0  0  0  0  0
   14.7803  -13.0329  -14.9838 N   0  0  0  0  0  0  0  0  0  0  0  0
   16.4566  -11.3543  -15.4961 C   0  0  0  0  0  0  0  0  0  0  0  0
   16.0708  -11.2321  -16.6885 O   0  0  0  0  0  0  0  0  0  0  0  0
   15.9735   -7.1040  -16.1387 O   0  0  0  0  0  0  0  0  0  0  0  0
   15.9336   -8.3673  -15.5994 C   0  0  0  0  0  0  0  0  0  0  0  0
   17.3118   -9.0478  -15.6462 C   0  0  2  0  0  0  0  0  0  0  0  0
   17.1513  -10.2795  -14.9140 N   0  0  0  0  0  0  0  0  0  0  0  0
   18.3170   -8.1603  -15.0164 C   0  0  0  0  0  0  0  0  0  0  0  0
   18.2484   -7.9931  -13.7728 O   0  0  0  0  0  0  0  0  0  0  0  0
   19.3329   -7.5076  -15.7575 N   0  0  0  0  0  0  0  0  0  0  0  0
   20.3540   -6.6669  -15.1619 C   0  0  1  0  0  0  0  0  0  0  0  0
   21.7406   -7.1438  -15.5305 C   0  0  0  0  0  0  0  0  0  0  0  0
   22.0739   -8.4824  -15.0290 C   0  0  0  0  0  0  0  0  0  0  0  0
   21.8339   -8.7690  -13.8355 O   0  0  0  0  0  0  0  0  0  0  0  0
   20.0649   -5.2822  -15.5771 C   0  0  0  0  0  0  0  0  0  0  0  0
   19.1092   -4.9616  -16.5227 O   0  0  0  0  0  0  0  0  0  0  0  0
   22.6501   -9.4575  -15.8260 O   0  0  0  0  0  0  0  0  0  0  0  0
   20.7102   -4.3470  -15.0540 O   0  0  0  0  0  0  0  0  0  0  0  0
  2  1  1  6
  2  3  1  0
  4  2  1  0
  4  5  2  0
  6  7  1  0
  8  7  1  1
  8  9  1  0
  9  4  1  0
 10  8  1  0
 11 10  2  0
 12 10  1  0
 13 17  1  0
 13 12  1  0
 13 14  1  6
 15 14  1  0
 15 16  2  0
 17 18  1  0
 19 15  1  0
 20 17  2  0
M  END
$$$$
