ASD.pdb
     RDKit          3D

 20 19  0  0  1  0  0  0  0  0999 V2000
   17.5789  -10.9842  -17.4121 C   0  0  0  0  0  0  0  0  0  0  0  0
   18.3736   -9.7479  -17.7718 C   0  0  2  0  0  0  0  0  0  0  0  0
   19.4836  -10.0518  -18.6418 N   0  0  0  0  0  0  0  0  0  0  0  0
   18.8051   -9.0907  -16.5190 C   0  0  0  0  0  0  0  0  0  0  0  0
   17.9137   -8.7213  -15.7101 O   0  0  0  0  0  0  0  0  0  0  0  0
   22.1178   -8.2273  -13.2223 O   0  0  0  0  0  0  0  0  0  0  0  0
   21.7046   -8.8201  -14.3911 C   0  0  0  0  0  0  0  0  0  0  0  0
   20.4619   -8.1246  -14.9714 C   0  0  2  0  0  0  0  0  0  0  0  0
   20.1475   -8.8531  -16.1753 N   0  0  0  0  0  0  0  0  0  0  0  0
   20.7828   -6.7063  -15.2545 C   0  0  0  0  0  0  0  0  0  0  0  0
   21.4225   -6.4526  -16.3061 O   0  0  0  0  0  0  0  0  0  0  0  0
   20.3986   -5.6482  -14.3941 N   0  0  0  0  0  0  0  0  0  0  0  0
   20.6770   -4.2496  -14.6593 C   0  0  1  0  0  0  0  0  0  0  0  0
   19.6552   -3.3522  -13.9985 C   0  0  0  0  0  0  0  0  0  0  0  0
   19.8736   -1.9181  -14.2225 C   0  0  0  0  0  0  0  0  0  0  0  0
   20.0140   -1.1570  -13.2401 O   0  0  0  0  0  0  0  0  0  0  0  0
   22.0643   -3.9995  -14.2281 C   0  0  0  0  0  0  0  0  0  0  0  0
   22.9543   -3.2324  -14.9559 O   0  0  0  0  0  0  0  0  0  0  0  0
   19.9323   -1.3594  -15.4885 O   0  0  0  0  0  0  0  0  0  0  0  0
   22.4634   -4.5013  -13.1540 O   0  0  0  0  0  0  0  0  0  0  0  0
  2  1  1  1
  2  3  1  0
  4  2  1  0
  4  5  2  0
  6  7  1  0
  8  7  1  6
  8  9  1  0
  9  4  1  0
 10  8  1  0
 11 10  2  0
 12 10  1  0
 13 17  1  0
 13 12  1  0
 13 14  1  1
 15 14  1  0
 15 16  2  0
 17 18  1  0
 19 15  1  0
 20 17  2  0
M  END
$$$$
