DLQ.pdb
     RDKit          3D

 26 25  0  0  1  0  0  0  0  0999 V2000
    7.8562  -16.8846   21.9200 N   0  0  0  0  0  0  0  0  0  0  0  0
    9.1877  -16.3741   22.0293 C   0  0  1  0  0  0  0  0  0  0  0  0
    9.6921  -15.6551   20.8007 C   0  0  0  0  0  0  0  0  0  0  0  0
    9.6529  -16.6251   19.6811 C   0  0  0  0  0  0  0  0  0  0  0  0
    8.9582  -17.6834   19.8071 O   0  0  0  0  0  0  0  0  0  0  0  0
    9.3109  -15.5620   23.2467 C   0  0  0  0  0  0  0  0  0  0  0  0
   10.3333  -14.8839   23.5361 O   0  0  0  0  0  0  0  0  0  0  0  0
   10.3685  -16.3782   18.5208 O   0  0  0  0  0  0  0  0  0  0  0  0
    5.3821  -12.3828   26.1433 C   0  0  0  0  0  0  0  0  0  0  0  0
    6.7251  -12.7349   25.4368 C   0  0  1  0  0  0  0  0  0  0  0  0
    7.7413  -11.8900   26.2145 C   0  0  0  0  0  0  0  0  0  0  0  0
    6.9668  -14.1843   25.6069 C   0  0  0  0  0  0  0  0  0  0  0  0
    8.3269  -14.7389   25.4407 C   0  0  2  0  0  0  0  0  0  0  0  0
    8.2435  -15.5212   24.1603 N   0  0  0  0  0  0  0  0  0  0  0  0
    8.8135  -15.6829   26.4590 C   0  0  0  0  0  0  0  0  0  0  0  0
    8.8965  -15.2845   27.6556 O   0  0  0  0  0  0  0  0  0  0  0  0
    7.5694  -21.6034   26.8110 N   0  0  0  0  0  0  0  0  0  0  0  0
    6.8951  -20.6153   27.5509 C   0  0  0  0  0  0  0  0  0  0  0  0
    5.7733  -20.8698   28.0394 O   0  0  0  0  0  0  0  0  0  0  0  0
    7.5154  -19.2891   27.7433 C   0  0  0  0  0  0  0  0  0  0  0  0
    8.8407  -19.2698   27.0304 C   0  0  0  0  0  0  0  0  0  0  0  0
    9.5750  -17.9557   27.2714 C   0  0  2  0  0  0  0  0  0  0  0  0
    9.2000  -17.0056   26.2147 N   0  0  0  0  0  0  0  0  0  0  0  0
   11.0202  -18.1815   27.1557 C   0  0  0  0  0  0  0  0  0  0  0  0
   11.7951  -18.8636   28.0943 O   0  0  0  0  0  0  0  0  0  0  0  0
   11.6349  -17.7258   26.1274 O   0  0  0  0  0  0  0  0  0  0  0  0
  2  1  1  6
  2  3  1  0
  3  4  1  0
  4  8  1  0
  5  4  2  0
  6 14  1  0
  6  2  1  0
  7  6  2  0
 10  9  1  1
 10 12  1  0
 10 11  1  0
 13 12  1  1
 13 14  1  0
 15 13  1  0
 16 15  2  0
 17 18  1  0
 18 20  1  0
 19 18  2  0
 20 21  1  0
 22 21  1  6
 22 23  1  0
 23 15  1  0
 24 22  1  0
 24 25  1  0
 26 24  2  0
M  END
$$$$
