DLQ.pdb
     RDKit          3D

 26 25  0  0  1  0  0  0  0  0999 V2000
    8.1168  -16.2439   20.9363 N   0  0  0  0  0  0  0  0  0  0  0  0
    9.4555  -16.4689   21.3867 C   0  0  1  0  0  0  0  0  0  0  0  0
   10.5284  -16.1023   20.3891 C   0  0  0  0  0  0  0  0  0  0  0  0
   10.2991  -16.9270   19.1795 C   0  0  0  0  0  0  0  0  0  0  0  0
    9.6405  -16.4302   18.2111 O   0  0  0  0  0  0  0  0  0  0  0  0
    9.6565  -15.8250   22.6913 C   0  0  0  0  0  0  0  0  0  0  0  0
   10.7826  -15.6949   23.2423 O   0  0  0  0  0  0  0  0  0  0  0  0
   10.7932  -18.2197   19.1144 O   0  0  0  0  0  0  0  0  0  0  0  0
    8.1617  -12.0490   26.4158 C   0  0  0  0  0  0  0  0  0  0  0  0
    7.1661  -13.2261   26.1921 C   0  0  1  0  0  0  0  0  0  0  0  0
    5.8095  -12.5120   26.1572 C   0  0  0  0  0  0  0  0  0  0  0  0
    7.4895  -13.8605   24.8955 C   0  0  0  0  0  0  0  0  0  0  0  0
    8.6784  -14.7291   24.7654 C   0  0  2  0  0  0  0  0  0  0  0  0
    8.5468  -15.3168   23.3885 N   0  0  0  0  0  0  0  0  0  0  0  0
    8.7975  -15.8734   25.6826 C   0  0  0  0  0  0  0  0  0  0  0  0
    7.8815  -16.7441   25.6776 O   0  0  0  0  0  0  0  0  0  0  0  0
   13.2592  -19.3680   25.3234 N   0  0  0  0  0  0  0  0  0  0  0  0
   12.7750  -19.9629   26.5024 C   0  0  0  0  0  0  0  0  0  0  0  0
   13.2735  -21.0379   26.8995 O   0  0  0  0  0  0  0  0  0  0  0  0
   11.6843  -19.3154   27.2587 C   0  0  0  0  0  0  0  0  0  0  0  0
   11.3046  -18.0389   26.5577 C   0  0  0  0  0  0  0  0  0  0  0  0
   10.1166  -17.3701   27.2399 C   0  0  2  0  0  0  0  0  0  0  0  0
    9.8537  -16.0856   26.5759 N   0  0  0  0  0  0  0  0  0  0  0  0
   10.4650  -17.0720   28.6337 C   0  0  0  0  0  0  0  0  0  0  0  0
   10.4528  -18.0038   29.6721 O   0  0  0  0  0  0  0  0  0  0  0  0
   10.8056  -15.8752   28.9416 O   0  0  0  0  0  0  0  0  0  0  0  0
  2  1  1  6
  2  3  1  0
  3  4  1  0
  4  8  1  0
  5  4  2  0
  6 14  1  0
  6  2  1  0
  7  6  2  0
 10  9  1  6
 10 12  1  0
 10 11  1  0
 13 12  1  1
 13 14  1  0
 15 13  1  0
 16 15  2  0
 17 18  1  0
 18 20  1  0
 19 18  2  0
 20 21  1  0
 22 21  1  6
 22 23  1  0
 23 15  1  0
 24 22  1  0
 24 25  1  0
 26 24  2  0
M  END
$$$$
