DLQ.pdb
     RDKit          3D

 26 25  0  0  1  0  0  0  0  0999 V2000
   10.6089  -17.8761   17.5219 N   0  0  0  0  0  0  0  0  0  0  0  0
    9.9746  -18.1594   18.7721 C   0  0  1  0  0  0  0  0  0  0  0  0
   10.3728  -19.4740   19.3996 C   0  0  0  0  0  0  0  0  0  0  0  0
   10.2363  -20.5153   18.3542 C   0  0  0  0  0  0  0  0  0  0  0  0
   11.2873  -21.0458   17.8723 O   0  0  0  0  0  0  0  0  0  0  0  0
   10.1482  -17.0237   19.6868 C   0  0  0  0  0  0  0  0  0  0  0  0
   11.2705  -16.6073   20.0817 O   0  0  0  0  0  0  0  0  0  0  0  0
    8.9802  -20.8956   17.9104 O   0  0  0  0  0  0  0  0  0  0  0  0
    6.2892  -13.0019   19.8319 C   0  0  0  0  0  0  0  0  0  0  0  0
    7.6526  -13.7476   19.7225 C   0  0  1  0  0  0  0  0  0  0  0  0
    8.6450  -12.5971   19.5155 C   0  0  0  0  0  0  0  0  0  0  0  0
    7.8901  -14.4590   20.9974 C   0  0  0  0  0  0  0  0  0  0  0  0
    9.1230  -15.2509   21.1920 C   0  0  2  0  0  0  0  0  0  0  0  0
    9.0152  -16.3442   20.1666 N   0  0  0  0  0  0  0  0  0  0  0  0
    9.3084  -15.9278   22.4852 C   0  0  0  0  0  0  0  0  0  0  0  0
    8.3442  -16.5953   22.9566 O   0  0  0  0  0  0  0  0  0  0  0  0
   10.8795  -20.7095   23.7359 N   0  0  0  0  0  0  0  0  0  0  0  0
   11.9083  -19.9125   23.2024 C   0  0  0  0  0  0  0  0  0  0  0  0
   12.8253  -20.4494   22.5446 O   0  0  0  0  0  0  0  0  0  0  0  0
   11.8975  -18.4524   23.4237 C   0  0  0  0  0  0  0  0  0  0  0  0
   10.6956  -18.1012   24.2585 C   0  0  0  0  0  0  0  0  0  0  0  0
   10.6355  -16.6026   24.5318 C   0  0  2  0  0  0  0  0  0  0  0  0
   10.4783  -15.8963   23.2527 N   0  0  0  0  0  0  0  0  0  0  0  0
   11.9105  -16.1659   25.1120 C   0  0  0  0  0  0  0  0  0  0  0  0
   12.3495  -16.4863   26.3971 O   0  0  0  0  0  0  0  0  0  0  0  0
   12.6912  -15.4349   24.4054 O   0  0  0  0  0  0  0  0  0  0  0  0
  2  1  1  6
  2  3  1  0
  3  4  1  0
  4  8  1  0
  5  4  2  0
  6 14  1  0
  6  2  1  0
  7  6  2  0
 10  9  1  1
 10 12  1  0
 10 11  1  0
 13 12  1  1
 13 14  1  0
 15 13  1  0
 16 15  2  0
 17 18  1  0
 18 20  1  0
 19 18  2  0
 20 21  1  0
 22 21  1  6
 22 23  1  0
 23 15  1  0
 24 22  1  0
 24 25  1  0
 26 24  2  0
M  END
$$$$
