DLQ.pdb
     RDKit          3D

 26 25  0  0  1  0  0  0  0  0999 V2000
    9.5364  -19.3348   19.1985 N   0  0  0  0  0  0  0  0  0  0  0  0
   10.3158  -18.5336   18.3062 C   0  0  1  0  0  0  0  0  0  0  0  0
    9.8476  -18.5485   16.8705 C   0  0  0  0  0  0  0  0  0  0  0  0
    9.9459  -19.9483   16.3943 C   0  0  0  0  0  0  0  0  0  0  0  0
    9.2119  -20.3221   15.4249 O   0  0  0  0  0  0  0  0  0  0  0  0
   10.4436  -17.1724   18.8423 C   0  0  0  0  0  0  0  0  0  0  0  0
   11.3357  -16.3582   18.4818 O   0  0  0  0  0  0  0  0  0  0  0  0
   10.8224  -20.8311   17.0042 O   0  0  0  0  0  0  0  0  0  0  0  0
    7.8931  -12.5082   20.2127 C   0  0  0  0  0  0  0  0  0  0  0  0
    7.7899  -13.7031   21.2069 C   0  0  1  0  0  0  0  0  0  0  0  0
    6.3037  -13.6941   21.5844 C   0  0  0  0  0  0  0  0  0  0  0  0
    8.1682  -14.9363   20.4829 C   0  0  0  0  0  0  0  0  0  0  0  0
    9.5885  -15.3297   20.3697 C   0  0  2  0  0  0  0  0  0  0  0  0
    9.5332  -16.7255   19.8156 N   0  0  0  0  0  0  0  0  0  0  0  0
   10.3781  -15.4184   21.6081 C   0  0  0  0  0  0  0  0  0  0  0  0
    9.9769  -14.7800   22.6224 O   0  0  0  0  0  0  0  0  0  0  0  0
   10.8135  -17.5213   27.3507 N   0  0  0  0  0  0  0  0  0  0  0  0
   10.6174  -18.0828   26.0761 C   0  0  0  0  0  0  0  0  0  0  0  0
    9.5389  -18.6580   25.8157 O   0  0  0  0  0  0  0  0  0  0  0  0
   11.6842  -17.9895   25.0592 C   0  0  0  0  0  0  0  0  0  0  0  0
   11.0978  -17.4141   23.7982 C   0  0  0  0  0  0  0  0  0  0  0  0
   12.1131  -16.5416   23.0687 C   0  0  2  0  0  0  0  0  0  0  0  0
   11.5549  -16.1596   21.7639 N   0  0  0  0  0  0  0  0  0  0  0  0
   13.3248  -17.3266   22.8066 C   0  0  0  0  0  0  0  0  0  0  0  0
   13.7445  -17.7410   21.5422 O   0  0  0  0  0  0  0  0  0  0  0  0
   14.0639  -17.6685   23.7964 O   0  0  0  0  0  0  0  0  0  0  0  0
  2  1  1  1
  2  3  1  0
  3  4  1  0
  4  8  1  0
  5  4  2  0
  6 14  1  0
  6  2  1  0
  7  6  2  0
 10  9  1  6
 10 12  1  0
 10 11  1  0
 13 12  1  1
 13 14  1  0
 15 13  1  0
 16 15  2  0
 17 18  1  0
 18 20  1  0
 19 18  2  0
 20 21  1  0
 22 21  1  6
 22 23  1  0
 23 15  1  0
 24 22  1  0
 24 25  1  0
 26 24  2  0
M  END
$$$$
