DLQ.pdb
     RDKit          3D

 26 25  0  0  1  0  0  0  0  0999 V2000
   10.1002  -18.4609   17.5703 N   0  0  0  0  0  0  0  0  0  0  0  0
   11.3748  -18.0304   18.0555 C   0  0  1  0  0  0  0  0  0  0  0  0
   12.4160  -17.8057   16.9849 C   0  0  0  0  0  0  0  0  0  0  0  0
   11.7368  -17.9603   15.6770 C   0  0  0  0  0  0  0  0  0  0  0  0
   10.5358  -18.3790   15.6524 O   0  0  0  0  0  0  0  0  0  0  0  0
   11.2060  -16.8626   18.9300 C   0  0  0  0  0  0  0  0  0  0  0  0
   12.1662  -16.2110   19.4220 O   0  0  0  0  0  0  0  0  0  0  0  0
   12.4081  -17.6562   14.5038 O   0  0  0  0  0  0  0  0  0  0  0  0
    8.6712  -12.2630   20.1534 C   0  0  0  0  0  0  0  0  0  0  0  0
    7.8010  -13.5298   20.4077 C   0  0  1  0  0  0  0  0  0  0  0  0
    6.4508  -13.1335   19.7983 C   0  0  0  0  0  0  0  0  0  0  0  0
    8.4201  -14.6639   19.6877 C   0  0  0  0  0  0  0  0  0  0  0  0
    9.6753  -15.2670   20.1833 C   0  0  2  0  0  0  0  0  0  0  0  0
    9.9102  -16.4252   19.2549 N   0  0  0  0  0  0  0  0  0  0  0  0
    9.6769  -15.8324   21.5417 C   0  0  0  0  0  0  0  0  0  0  0  0
    8.6468  -16.4493   21.9359 O   0  0  0  0  0  0  0  0  0  0  0  0
   10.7607  -20.6227   23.3577 N   0  0  0  0  0  0  0  0  0  0  0  0
   11.9182  -19.9674   22.9003 C   0  0  0  0  0  0  0  0  0  0  0  0
   12.8794  -20.6417   22.4724 O   0  0  0  0  0  0  0  0  0  0  0  0
   11.9888  -18.4926   22.9302 C   0  0  0  0  0  0  0  0  0  0  0  0
   10.6847  -17.9591   23.4589 C   0  0  0  0  0  0  0  0  0  0  0  0
   10.7745  -16.4622   23.7335 C   0  0  2  0  0  0  0  0  0  0  0  0
   10.7369  -15.7448   22.4514 N   0  0  0  0  0  0  0  0  0  0  0  0
   12.0680  -16.1624   24.3580 C   0  0  0  0  0  0  0  0  0  0  0  0
   12.3862  -16.4247   25.6909 O   0  0  0  0  0  0  0  0  0  0  0  0
   12.9848  -15.6183   23.6463 O   0  0  0  0  0  0  0  0  0  0  0  0
  2  1  1  6
  2  3  1  0
  3  4  1  0
  4  8  1  0
  5  4  2  0
  6 14  1  0
  6  2  1  0
  7  6  2  0
 10  9  1  6
 10 12  1  0
 10 11  1  0
 13 12  1  6
 13 14  1  0
 15 13  1  0
 16 15  2  0
 17 18  1  0
 18 20  1  0
 19 18  2  0
 20 21  1  0
 22 21  1  6
 22 23  1  0
 23 15  1  0
 24 22  1  0
 24 25  1  0
 26 24  2  0
M  END
$$$$
