DLQ.pdb
     RDKit          3D

 26 25  0  0  1  0  0  0  0  0999 V2000
    8.1670  -16.5367   19.9014 N   0  0  0  0  0  0  0  0  0  0  0  0
    7.9542  -16.8549   21.2795 C   0  0  1  0  0  0  0  0  0  0  0  0
    8.4558  -18.2163   21.6988 C   0  0  0  0  0  0  0  0  0  0  0  0
    7.8361  -19.2084   20.7891 C   0  0  0  0  0  0  0  0  0  0  0  0
    6.6596  -19.6226   21.0391 O   0  0  0  0  0  0  0  0  0  0  0  0
    8.4799  -15.7763   22.1262 C   0  0  0  0  0  0  0  0  0  0  0  0
    9.5022  -15.0965   21.8408 O   0  0  0  0  0  0  0  0  0  0  0  0
    8.5359  -19.6763   19.6888 O   0  0  0  0  0  0  0  0  0  0  0  0
    7.2145  -11.5271   25.4141 C   0  0  0  0  0  0  0  0  0  0  0  0
    7.1125  -12.9523   26.0347 C   0  0  1  0  0  0  0  0  0  0  0  0
    5.7956  -12.8806   26.8171 C   0  0  0  0  0  0  0  0  0  0  0  0
    7.0444  -13.9310   24.9277 C   0  0  0  0  0  0  0  0  0  0  0  0
    8.2699  -14.3190   24.1979 C   0  0  2  0  0  0  0  0  0  0  0  0
    7.8262  -15.4633   23.3306 N   0  0  0  0  0  0  0  0  0  0  0  0
    9.4065  -14.8253   24.9831 C   0  0  0  0  0  0  0  0  0  0  0  0
   10.1493  -13.9889   25.5713 O   0  0  0  0  0  0  0  0  0  0  0  0
    9.9635  -14.9899   29.8498 N   0  0  0  0  0  0  0  0  0  0  0  0
   10.9251  -16.0158   29.8158 C   0  0  0  0  0  0  0  0  0  0  0  0
   11.6575  -16.2068   30.8102 O   0  0  0  0  0  0  0  0  0  0  0  0
   11.0619  -16.8560   28.6090 C   0  0  0  0  0  0  0  0  0  0  0  0
   10.1757  -16.2954   27.5296 C   0  0  0  0  0  0  0  0  0  0  0  0
   10.6927  -16.6694   26.1451 C   0  0  2  0  0  0  0  0  0  0  0  0
    9.7435  -16.1748   25.1380 N   0  0  0  0  0  0  0  0  0  0  0  0
   10.7299  -18.1311   26.0218 C   0  0  0  0  0  0  0  0  0  0  0  0
   11.6507  -18.9591   26.6646 O   0  0  0  0  0  0  0  0  0  0  0  0
    9.8646  -18.7088   25.2732 O   0  0  0  0  0  0  0  0  0  0  0  0
  2  1  1  6
  2  3  1  0
  3  4  1  0
  4  8  1  0
  5  4  2  0
  6 14  1  0
  6  2  1  0
  7  6  2  0
 10  9  1  6
 10 12  1  0
 10 11  1  0
 13 12  1  1
 13 14  1  0
 15 13  1  0
 16 15  2  0
 17 18  1  0
 18 20  1  0
 19 18  2  0
 20 21  1  0
 22 21  1  1
 22 23  1  0
 23 15  1  0
 24 22  1  0
 24 25  1  0
 26 24  2  0
M  END
$$$$
