DLQ.pdb
     RDKit          3D

 26 25  0  0  1  0  0  0  0  0999 V2000
    7.5557  -15.8722   21.1956 N   0  0  0  0  0  0  0  0  0  0  0  0
    8.9670  -15.9091   21.4250 C   0  0  1  0  0  0  0  0  0  0  0  0
    9.7862  -15.0856   20.4599 C   0  0  0  0  0  0  0  0  0  0  0  0
    9.8661  -15.8503   19.1931 C   0  0  0  0  0  0  0  0  0  0  0  0
    9.4531  -17.0534   19.1728 O   0  0  0  0  0  0  0  0  0  0  0  0
    9.2518  -15.5804   22.8278 C   0  0  0  0  0  0  0  0  0  0  0  0
   10.4129  -15.5441   23.3169 O   0  0  0  0  0  0  0  0  0  0  0  0
   10.3885  -15.2585   18.0546 O   0  0  0  0  0  0  0  0  0  0  0  0
    5.8066  -12.2626   25.8396 C   0  0  0  0  0  0  0  0  0  0  0  0
    7.1818  -12.7926   25.3348 C   0  0  1  0  0  0  0  0  0  0  0  0
    8.1762  -12.0370   26.2246 C   0  0  0  0  0  0  0  0  0  0  0  0
    7.2265  -14.2519   25.5727 C   0  0  0  0  0  0  0  0  0  0  0  0
    8.4087  -15.0392   25.1635 C   0  0  2  0  0  0  0  0  0  0  0  0
    8.1876  -15.2868   23.6978 N   0  0  0  0  0  0  0  0  0  0  0  0
    8.5960  -16.3654   25.7727 C   0  0  0  0  0  0  0  0  0  0  0  0
    7.6932  -17.2342   25.6078 O   0  0  0  0  0  0  0  0  0  0  0  0
   11.5714  -20.6225   24.1675 N   0  0  0  0  0  0  0  0  0  0  0  0
   12.3287  -19.4907   24.5195 C   0  0  0  0  0  0  0  0  0  0  0  0
   13.4390  -19.3000   23.9787 O   0  0  0  0  0  0  0  0  0  0  0  0
   11.8080  -18.5402   25.5226 C   0  0  0  0  0  0  0  0  0  0  0  0
   10.4443  -19.0022   25.9607 C   0  0  0  0  0  0  0  0  0  0  0  0
    9.8920  -18.1113   27.0678 C   0  0  2  0  0  0  0  0  0  0  0  0
    9.7048  -16.7555   26.5324 N   0  0  0  0  0  0  0  0  0  0  0  0
   10.8795  -18.0158   28.1489 C   0  0  0  0  0  0  0  0  0  0  0  0
   11.2452  -19.0705   28.9859 O   0  0  0  0  0  0  0  0  0  0  0  0
   11.4580  -16.8912   28.3578 O   0  0  0  0  0  0  0  0  0  0  0  0
  2  1  1  6
  2  3  1  0
  3  4  1  0
  4  8  1  0
  5  4  2  0
  6 14  1  0
  6  2  1  0
  7  6  2  0
 10  9  1  1
 10 12  1  0
 10 11  1  0
 13 12  1  1
 13 14  1  0
 15 13  1  0
 16 15  2  0
 17 18  1  0
 18 20  1  0
 19 18  2  0
 20 21  1  0
 22 21  1  6
 22 23  1  0
 23 15  1  0
 24 22  1  0
 24 25  1  0
 26 24  2  0
M  END
$$$$
