DLQ.pdb
     RDKit          3D

 26 25  0  0  1  0  0  0  0  0999 V2000
    7.8370  -17.0126   22.3246 N   0  0  0  0  0  0  0  0  0  0  0  0
    9.1650  -16.4819   22.3101 C   0  0  1  0  0  0  0  0  0  0  0  0
    9.5320  -15.7306   21.0524 C   0  0  0  0  0  0  0  0  0  0  0  0
    9.4404  -16.6916   19.9281 C   0  0  0  0  0  0  0  0  0  0  0  0
    8.9062  -17.8281   20.1313 O   0  0  0  0  0  0  0  0  0  0  0  0
    9.3985  -15.6917   23.5258 C   0  0  0  0  0  0  0  0  0  0  0  0
   10.4829  -15.1018   23.7805 O   0  0  0  0  0  0  0  0  0  0  0  0
    9.9360  -16.3518   18.6798 O   0  0  0  0  0  0  0  0  0  0  0  0
    5.8045  -12.1646   25.9282 C   0  0  0  0  0  0  0  0  0  0  0  0
    7.1501  -12.7483   25.4033 C   0  0  1  0  0  0  0  0  0  0  0  0
    8.1814  -11.7601   25.9614 C   0  0  0  0  0  0  0  0  0  0  0  0
    7.3170  -14.1022   25.9752 C   0  0  0  0  0  0  0  0  0  0  0  0
    8.5794  -14.8455   25.7780 C   0  0  2  0  0  0  0  0  0  0  0  0
    8.3718  -15.5706   24.4781 N   0  0  0  0  0  0  0  0  0  0  0  0
    8.9299  -15.8791   26.7648 C   0  0  0  0  0  0  0  0  0  0  0  0
    9.0592  -15.5349   27.9739 O   0  0  0  0  0  0  0  0  0  0  0  0
    7.5273  -21.7588   26.1557 N   0  0  0  0  0  0  0  0  0  0  0  0
    6.7292  -20.6008   26.1779 C   0  0  0  0  0  0  0  0  0  0  0  0
    5.5337  -20.6698   25.8201 O   0  0  0  0  0  0  0  0  0  0  0  0
    7.3082  -19.3167   26.6213 C   0  0  0  0  0  0  0  0  0  0  0  0
    8.7249  -19.5569   27.0689 C   0  0  0  0  0  0  0  0  0  0  0  0
    9.3925  -18.2561   27.5006 C   0  0  2  0  0  0  0  0  0  0  0  0
    9.1371  -17.2330   26.4769 N   0  0  0  0  0  0  0  0  0  0  0  0
   10.8451  -18.4548   27.5591 C   0  0  0  0  0  0  0  0  0  0  0  0
   11.5108  -19.1566   28.5645 O   0  0  0  0  0  0  0  0  0  0  0  0
   11.5737  -17.9541   26.6309 O   0  0  0  0  0  0  0  0  0  0  0  0
  2  1  1  6
  2  3  1  0
  3  4  1  0
  4  8  1  0
  5  4  2  0
  6 14  1  0
  6  2  1  0
  7  6  2  0
 10  9  1  1
 10 12  1  0
 10 11  1  0
 13 12  1  1
 13 14  1  0
 15 13  1  0
 16 15  2  0
 17 18  1  0
 18 20  1  0
 19 18  2  0
 20 21  1  0
 22 21  1  6
 22 23  1  0
 23 15  1  0
 24 22  1  0
 24 25  1  0
 26 24  2  0
M  END
$$$$
