MKM.pdb
     RDKit          3D

 26 25  0  0  1  0  0  0  0  0999 V2000
   26.7745  -16.1274  -16.4523 C   0  0  0  0  0  0  0  0  0  0  0  0
   27.9838  -16.9404  -17.5285 S   0  0  0  0  0  0  0  0  0  0  0  0
   28.4487  -18.5837  -16.8495 C   0  0  0  0  0  0  0  0  0  0  0  0
   27.2252  -19.1289  -16.1917 C   0  0  0  0  0  0  0  0  0  0  0  0
   27.4127  -20.3543  -15.3657 C   0  0  2  0  0  0  0  0  0  0  0  0
   27.7853  -21.4150  -16.3328 N   0  0  0  0  0  0  0  0  0  0  0  0
   26.2311  -20.8416  -14.6483 C   0  0  0  0  0  0  0  0  0  0  0  0
   25.4363  -21.6840  -15.2035 O   0  0  0  0  0  0  0  0  0  0  0  0
   25.8323  -20.4791  -13.3341 N   0  0  0  0  0  0  0  0  0  0  0  0
   24.6064  -20.9770  -12.7252 C   0  0  1  0  0  0  0  0  0  0  0  0
   24.8033  -20.6737  -11.2353 C   0  0  0  0  0  0  0  0  0  0  0  0
   23.7225  -21.1597  -10.3503 C   0  0  0  0  0  0  0  0  0  0  0  0
   24.1492  -20.7939   -8.9146 C   0  0  0  0  0  0  0  0  0  0  0  0
   23.1734  -21.3866   -7.9209 C   0  0  0  0  0  0  0  0  0  0  0  0
   23.6391  -21.0235   -6.5951 N   0  0  0  0  0  0  0  0  0  0  0  0
   23.3854  -20.3600  -13.2309 C   0  0  0  0  0  0  0  0  0  0  0  0
   23.4674  -19.1557  -13.6545 O   0  0  0  0  0  0  0  0  0  0  0  0
   22.5267  -20.2911  -18.4649 C   0  0  0  0  0  0  0  0  0  0  0  0
   20.7505  -20.4262  -18.2410 S   0  0  0  0  0  0  0  0  0  0  0  0
   20.3169  -20.1381  -16.4990 C   0  0  0  0  0  0  0  0  0  0  0  0
   21.4227  -20.7071  -15.6078 C   0  0  0  0  0  0  0  0  0  0  0  0
   21.0974  -20.3698  -14.1646 C   0  0  2  0  0  0  0  0  0  0  0  0
   22.1122  -20.9469  -13.3071 N   0  0  0  0  0  0  0  0  0  0  0  0
   19.7798  -20.8728  -13.7656 C   0  0  0  0  0  0  0  0  0  0  0  0
   19.6393  -22.1530  -13.2153 O   0  0  0  0  0  0  0  0  0  0  0  0
   18.7595  -20.1671  -13.9101 O   0  0  0  0  0  0  0  0  0  0  0  0
  2  1  1  0
  3  2  1  0
  4  3  1  0
  4  5  1  0
  5  7  1  0
  5  6  1  6
  7  8  2  0
  9 10  1  0
  9  7  1  0
 10 11  1  1
 11 12  1  0
 12 13  1  0
 13 14  1  0
 14 15  1  0
 16 17  2  0
 16 10  1  0
 18 19  1  0
 19 20  1  0
 20 21  1  0
 22 21  1  6
 22 24  1  0
 22 23  1  0
 23 16  1  0
 24 25  1  0
 26 24  2  0
M  END
$$$$
