MKM.pdb
     RDKit          3D

 26 25  0  0  1  0  0  0  0  0999 V2000
   30.6018  -22.9550  -13.9203 C   0  0  0  0  0  0  0  0  0  0  0  0
   30.5440  -22.7001  -15.7128 S   0  0  0  0  0  0  0  0  0  0  0  0
   28.9217  -21.9953  -16.2117 C   0  0  0  0  0  0  0  0  0  0  0  0
   28.3265  -21.3966  -14.9812 C   0  0  0  0  0  0  0  0  0  0  0  0
   27.0154  -20.7101  -15.1513 C   0  0  2  0  0  0  0  0  0  0  0  0
   27.3199  -19.4930  -15.9420 N   0  0  0  0  0  0  0  0  0  0  0  0
   26.3561  -20.2549  -13.9240 C   0  0  0  0  0  0  0  0  0  0  0  0
   26.7140  -19.1557  -13.3643 O   0  0  0  0  0  0  0  0  0  0  0  0
   25.3041  -20.9161  -13.2358 N   0  0  0  0  0  0  0  0  0  0  0  0
   24.6913  -20.3668  -12.0339 C   0  0  1  0  0  0  0  0  0  0  0  0
   23.2183  -20.7686  -12.1730 C   0  0  0  0  0  0  0  0  0  0  0  0
   22.4138  -19.8979  -13.0576 C   0  0  0  0  0  0  0  0  0  0  0  0
   21.0002  -20.5126  -13.0909 C   0  0  0  0  0  0  0  0  0  0  0  0
   20.1192  -19.7260  -14.0375 C   0  0  0  0  0  0  0  0  0  0  0  0
   18.8430  -20.4137  -14.1056 N   0  0  0  0  0  0  0  0  0  0  0  0
   25.2566  -20.8643  -10.7848 C   0  0  0  0  0  0  0  0  0  0  0  0
   25.3776  -22.1314  -10.6580 O   0  0  0  0  0  0  0  0  0  0  0  0
   29.7242  -19.0967   -5.9941 C   0  0  0  0  0  0  0  0  0  0  0  0
   28.1254  -19.3564   -5.2197 S   0  0  0  0  0  0  0  0  0  0  0  0
   27.1109  -20.4687   -6.2391 C   0  0  0  0  0  0  0  0  0  0  0  0
   26.8036  -19.7837   -7.5724 C   0  0  0  0  0  0  0  0  0  0  0  0
   26.0029  -20.7440   -8.4320 C   0  0  2  0  0  0  0  0  0  0  0  0
   25.6899  -20.0986   -9.6905 N   0  0  0  0  0  0  0  0  0  0  0  0
   24.7600  -21.1627   -7.7778 C   0  0  0  0  0  0  0  0  0  0  0  0
   23.5159  -20.8654   -8.3481 O   0  0  0  0  0  0  0  0  0  0  0  0
   24.7900  -21.7921   -6.6994 O   0  0  0  0  0  0  0  0  0  0  0  0
  2  1  1  0
  3  2  1  0
  4  3  1  0
  4  5  1  0
  5  7  1  0
  5  6  1  6
  7  8  2  0
  9 10  1  0
  9  7  1  0
 10 11  1  1
 11 12  1  0
 12 13  1  0
 13 14  1  0
 14 15  1  0
 16 17  2  0
 16 10  1  0
 18 19  1  0
 19 20  1  0
 20 21  1  0
 22 21  1  1
 22 24  1  0
 22 23  1  0
 23 16  1  0
 24 25  1  0
 26 24  2  0
M  END
$$$$
