MKM.pdb
     RDKit          3D

 26 25  0  0  1  0  0  0  0  0999 V2000
   28.0543  -18.2145   -5.0587 C   0  0  0  0  0  0  0  0  0  0  0  0
   28.5025  -19.9208   -5.4700 S   0  0  0  0  0  0  0  0  0  0  0  0
   26.9999  -20.9077   -5.8517 C   0  0  0  0  0  0  0  0  0  0  0  0
   26.4452  -20.3558   -7.1224 C   0  0  0  0  0  0  0  0  0  0  0  0
   26.9265  -20.9908   -8.3811 C   0  0  2  0  0  0  0  0  0  0  0  0
   28.3707  -20.6606   -8.4490 N   0  0  0  0  0  0  0  0  0  0  0  0
   26.3285  -20.5004   -9.6262 C   0  0  0  0  0  0  0  0  0  0  0  0
   26.2405  -19.2390   -9.8512 O   0  0  0  0  0  0  0  0  0  0  0  0
   25.8051  -21.2944  -10.6813 N   0  0  0  0  0  0  0  0  0  0  0  0
   25.2159  -20.7110  -11.8787 C   0  0  1  0  0  0  0  0  0  0  0  0
   26.1393  -21.1992  -13.0009 C   0  0  0  0  0  0  0  0  0  0  0  0
   25.7390  -20.7869  -14.3638 C   0  0  0  0  0  0  0  0  0  0  0  0
   26.8056  -21.3648  -15.3154 C   0  0  0  0  0  0  0  0  0  0  0  0
   26.5692  -20.8581  -16.7218 C   0  0  0  0  0  0  0  0  0  0  0  0
   27.6015  -21.4344  -17.5636 N   0  0  0  0  0  0  0  0  0  0  0  0
   23.8334  -21.1044  -12.1265 C   0  0  0  0  0  0  0  0  0  0  0  0
   23.5269  -22.3306  -11.9288 O   0  0  0  0  0  0  0  0  0  0  0  0
   16.8408  -20.2940  -10.4208 C   0  0  0  0  0  0  0  0  0  0  0  0
   17.8195  -19.3480  -11.5915 S   0  0  0  0  0  0  0  0  0  0  0  0
   19.0425  -20.4252  -12.3974 C   0  0  0  0  0  0  0  0  0  0  0  0
   20.4457  -19.8794  -12.1252 C   0  0  0  0  0  0  0  0  0  0  0  0
   21.4573  -20.8252  -12.7453 C   0  0  2  0  0  0  0  0  0  0  0  0
   22.7858  -20.2776  -12.5629 N   0  0  0  0  0  0  0  0  0  0  0  0
   21.2099  -21.0353  -14.1746 C   0  0  0  0  0  0  0  0  0  0  0  0
   21.6236  -20.0877  -15.1193 O   0  0  0  0  0  0  0  0  0  0  0  0
   20.6252  -22.0642  -14.5741 O   0  0  0  0  0  0  0  0  0  0  0  0
  2  1  1  0
  3  2  1  0
  4  3  1  0
  4  5  1  0
  5  7  1  0
  5  6  1  6
  7  8  2  0
  9 10  1  0
  9  7  1  0
 10 11  1  6
 11 12  1  0
 12 13  1  0
 13 14  1  0
 14 15  1  0
 16 17  2  0
 16 10  1  0
 18 19  1  0
 19 20  1  0
 20 21  1  0
 22 21  1  6
 22 24  1  0
 22 23  1  0
 23 16  1  0
 24 25  1  0
 26 24  2  0
M  END
$$$$
