MKM.pdb
     RDKit          3D

 26 25  0  0  1  0  0  0  0  0999 V2000
   26.7323  -18.9888   -5.6310 C   0  0  0  0  0  0  0  0  0  0  0  0
   28.3796  -19.6147   -6.0508 S   0  0  0  0  0  0  0  0  0  0  0  0
   28.2556  -21.0029   -7.2487 C   0  0  0  0  0  0  0  0  0  0  0  0
   27.2589  -20.5838   -8.2773 C   0  0  0  0  0  0  0  0  0  0  0  0
   27.3681  -21.2454   -9.6074 C   0  0  2  0  0  0  0  0  0  0  0  0
   28.7222  -20.8946  -10.1000 N   0  0  0  0  0  0  0  0  0  0  0  0
   26.4229  -20.7990  -10.6348 C   0  0  0  0  0  0  0  0  0  0  0  0
   26.2190  -19.5458  -10.8286 O   0  0  0  0  0  0  0  0  0  0  0  0
   25.6599  -21.6296  -11.4982 N   0  0  0  0  0  0  0  0  0  0  0  0
   24.8043  -21.0893  -12.5459 C   0  0  1  0  0  0  0  0  0  0  0  0
   25.3658  -21.7243  -13.8233 C   0  0  0  0  0  0  0  0  0  0  0  0
   24.5739  -21.4723  -15.0469 C   0  0  0  0  0  0  0  0  0  0  0  0
   25.5583  -20.8881  -16.0798 C   0  0  0  0  0  0  0  0  0  0  0  0
   24.8152  -20.5127  -17.3438 C   0  0  0  0  0  0  0  0  0  0  0  0
   25.7727  -19.8779  -18.2308 N   0  0  0  0  0  0  0  0  0  0  0  0
   23.3867  -21.3935  -12.3865 C   0  0  0  0  0  0  0  0  0  0  0  0
   23.0817  -22.5423  -11.9136 O   0  0  0  0  0  0  0  0  0  0  0  0
   19.0567  -18.1260   -9.6000 C   0  0  0  0  0  0  0  0  0  0  0  0
   17.8791  -19.1653  -10.4697 S   0  0  0  0  0  0  0  0  0  0  0  0
   18.7583  -20.3906  -11.4852 C   0  0  0  0  0  0  0  0  0  0  0  0
   20.2041  -19.9309  -11.6833 C   0  0  0  0  0  0  0  0  0  0  0  0
   20.9474  -21.0040  -12.4567 C   0  0  2  0  0  0  0  0  0  0  0  0
   22.3036  -20.5557  -12.6971 N   0  0  0  0  0  0  0  0  0  0  0  0
   20.3011  -21.3069  -13.7370 C   0  0  0  0  0  0  0  0  0  0  0  0
   19.1788  -22.1429  -13.7918 O   0  0  0  0  0  0  0  0  0  0  0  0
   20.7414  -20.8239  -14.8013 O   0  0  0  0  0  0  0  0  0  0  0  0
  2  1  1  0
  3  2  1  0
  4  3  1  0
  4  5  1  0
  5  7  1  0
  5  6  1  6
  7  8  2  0
  9 10  1  0
  9  7  1  0
 10 11  1  6
 11 12  1  0
 12 13  1  0
 13 14  1  0
 14 15  1  0
 16 17  2  0
 16 10  1  0
 18 19  1  0
 19 20  1  0
 20 21  1  0
 22 21  1  6
 22 24  1  0
 22 23  1  0
 23 16  1  0
 24 25  1  0
 26 24  2  0
M  END
$$$$
