MKM.pdb
     RDKit          3D

 26 25  0  0  1  0  0  0  0  0999 V2000
   23.3932  -21.9572  -21.4276 C   0  0  0  0  0  0  0  0  0  0  0  0
   25.1535  -22.1636  -21.0533 S   0  0  0  0  0  0  0  0  0  0  0  0
   25.3753  -23.1710  -19.5323 C   0  0  0  0  0  0  0  0  0  0  0  0
   25.9141  -22.2480  -18.4907 C   0  0  0  0  0  0  0  0  0  0  0  0
   25.0761  -22.0702  -17.2721 C   0  0  2  0  0  0  0  0  0  0  0  0
   24.0351  -21.0889  -17.6626 N   0  0  0  0  0  0  0  0  0  0  0  0
   25.7505  -21.5152  -16.0951 C   0  0  0  0  0  0  0  0  0  0  0  0
   26.8564  -22.0211  -15.6819 O   0  0  0  0  0  0  0  0  0  0  0  0
   25.3088  -20.4184  -15.3079 N   0  0  0  0  0  0  0  0  0  0  0  0
   26.0442  -19.9484  -14.1417 C   0  0  1  0  0  0  0  0  0  0  0  0
   25.8222  -18.4317  -14.1716 C   0  0  0  0  0  0  0  0  0  0  0  0
   26.9952  -17.6366  -14.5956 C   0  0  0  0  0  0  0  0  0  0  0  0
   27.4014  -18.1798  -15.9802 C   0  0  0  0  0  0  0  0  0  0  0  0
   28.6398  -17.4617  -16.4716 C   0  0  0  0  0  0  0  0  0  0  0  0
   29.0126  -18.0681  -17.7364 N   0  0  0  0  0  0  0  0  0  0  0  0
   25.6005  -20.5202  -12.8754 C   0  0  0  0  0  0  0  0  0  0  0  0
   24.3430  -20.6948  -12.7180 O   0  0  0  0  0  0  0  0  0  0  0  0
   27.9697  -18.5997   -7.4248 C   0  0  0  0  0  0  0  0  0  0  0  0
   27.0443  -19.9928   -6.7721 S   0  0  0  0  0  0  0  0  0  0  0  0
   25.9947  -20.7097   -8.0721 C   0  0  0  0  0  0  0  0  0  0  0  0
   26.6480  -20.4646   -9.4338 C   0  0  0  0  0  0  0  0  0  0  0  0
   25.8152  -21.1561  -10.4971 C   0  0  2  0  0  0  0  0  0  0  0  0
   26.4090  -20.9069  -11.7946 N   0  0  0  0  0  0  0  0  0  0  0  0
   24.4265  -20.6872  -10.4996 C   0  0  0  0  0  0  0  0  0  0  0  0
   23.4597  -21.3096   -9.7000 O   0  0  0  0  0  0  0  0  0  0  0  0
   24.0822  -19.7237  -11.2159 O   0  0  0  0  0  0  0  0  0  0  0  0
  2  1  1  0
  3  2  1  0
  4  3  1  0
  4  5  1  0
  5  7  1  0
  5  6  1  6
  7  8  2  0
  9 10  1  0
  9  7  1  0
 10 11  1  1
 11 12  1  0
 12 13  1  0
 13 14  1  0
 14 15  1  0
 16 17  2  0
 16 10  1  0
 18 19  1  0
 19 20  1  0
 20 21  1  0
 22 21  1  1
 22 24  1  0
 22 23  1  0
 23 16  1  0
 24 25  1  0
 26 24  2  0
M  END
$$$$
