MKM.pdb
     RDKit          3D

 26 25  0  0  1  0  0  0  0  0999 V2000
   18.7089  -19.7682  -15.7273 C   0  0  0  0  0  0  0  0  0  0  0  0
   18.3350  -18.3903  -16.8423 S   0  0  0  0  0  0  0  0  0  0  0  0
   19.8611  -17.8132  -17.6880 C   0  0  0  0  0  0  0  0  0  0  0  0
   20.9642  -18.7022  -17.2192 C   0  0  0  0  0  0  0  0  0  0  0  0
   22.0519  -18.0467  -16.4405 C   0  0  2  0  0  0  0  0  0  0  0  0
   22.7080  -17.1254  -17.3995 N   0  0  0  0  0  0  0  0  0  0  0  0
   23.1032  -18.9278  -15.9241 C   0  0  0  0  0  0  0  0  0  0  0  0
   22.7982  -19.9656  -15.2316 O   0  0  0  0  0  0  0  0  0  0  0  0
   24.5028  -18.7697  -16.1078 N   0  0  0  0  0  0  0  0  0  0  0  0
   25.4759  -19.6683  -15.5018 C   0  0  1  0  0  0  0  0  0  0  0  0
   26.7939  -19.2674  -16.1744 C   0  0  0  0  0  0  0  0  0  0  0  0
   27.9739  -20.0552  -15.7563 C   0  0  0  0  0  0  0  0  0  0  0  0
   27.8932  -21.3876  -16.5279 C   0  0  0  0  0  0  0  0  0  0  0  0
   29.1530  -22.1937  -16.2961 C   0  0  0  0  0  0  0  0  0  0  0  0
   28.9923  -23.4514  -17.0023 N   0  0  0  0  0  0  0  0  0  0  0  0
   25.5733  -19.5649  -14.0502 C   0  0  0  0  0  0  0  0  0  0  0  0
   25.7192  -18.3954  -13.5528 O   0  0  0  0  0  0  0  0  0  0  0  0
   22.0006  -21.5968   -9.5707 C   0  0  0  0  0  0  0  0  0  0  0  0
   23.1139  -20.5942   -8.5815 S   0  0  0  0  0  0  0  0  0  0  0  0
   24.6628  -20.3018   -9.4875 C   0  0  0  0  0  0  0  0  0  0  0  0
   24.4142  -20.5094  -10.9829 C   0  0  0  0  0  0  0  0  0  0  0  0
   25.7345  -20.3568  -11.7148 C   0  0  2  0  0  0  0  0  0  0  0  0
   25.5236  -20.6188  -13.1237 N   0  0  0  0  0  0  0  0  0  0  0  0
   26.7586  -21.2694  -11.1984 C   0  0  0  0  0  0  0  0  0  0  0  0
   27.5274  -20.9230  -10.0801 O   0  0  0  0  0  0  0  0  0  0  0  0
   26.9628  -22.3723  -11.7478 O   0  0  0  0  0  0  0  0  0  0  0  0
  2  1  1  0
  3  2  1  0
  4  3  1  0
  4  5  1  0
  5  7  1  0
  5  6  1  6
  7  8  2  0
  9 10  1  0
  9  7  1  0
 10 11  1  6
 11 12  1  0
 12 13  1  0
 13 14  1  0
 14 15  1  0
 16 17  2  0
 16 10  1  0
 18 19  1  0
 19 20  1  0
 20 21  1  0
 22 21  1  1
 22 24  1  0
 22 23  1  0
 23 16  1  0
 24 25  1  0
 26 24  2  0
M  END
$$$$
