MKM.pdb
     RDKit          3D

 26 25  0  0  1  0  0  0  0  0999 V2000
   17.7783  -20.4961   -9.5822 C   0  0  0  0  0  0  0  0  0  0  0  0
   17.3563  -19.3990  -10.9606 S   0  0  0  0  0  0  0  0  0  0  0  0
   18.8074  -18.3776  -11.4388 C   0  0  0  0  0  0  0  0  0  0  0  0
   19.9971  -19.2753  -11.3642 C   0  0  0  0  0  0  0  0  0  0  0  0
   20.5558  -19.7370  -12.6657 C   0  0  2  0  0  0  0  0  0  0  0  0
   19.5812  -20.7354  -13.1684 N   0  0  0  0  0  0  0  0  0  0  0  0
   21.8547  -20.4139  -12.6118 C   0  0  0  0  0  0  0  0  0  0  0  0
   22.0022  -21.4805  -11.9116 O   0  0  0  0  0  0  0  0  0  0  0  0
   23.0427  -20.0153  -13.2806 N   0  0  0  0  0  0  0  0  0  0  0  0
   24.2810  -20.7773  -13.1927 C   0  0  1  0  0  0  0  0  0  0  0  0
   24.8474  -20.6965  -14.6150 C   0  0  0  0  0  0  0  0  0  0  0  0
   26.1138  -21.4309  -14.8261 C   0  0  0  0  0  0  0  0  0  0  0  0
   25.7216  -22.9076  -15.0335 C   0  0  0  0  0  0  0  0  0  0  0  0
   26.9430  -23.7158  -15.4149 C   0  0  0  0  0  0  0  0  0  0  0  0
   26.5301  -25.1051  -15.4915 N   0  0  0  0  0  0  0  0  0  0  0  0
   25.2370  -20.2680  -12.2159 C   0  0  0  0  0  0  0  0  0  0  0  0
   25.5397  -19.0269  -12.2817 O   0  0  0  0  0  0  0  0  0  0  0  0
   26.6458  -19.7672   -6.2305 C   0  0  0  0  0  0  0  0  0  0  0  0
   28.2921  -20.2942   -6.7153 S   0  0  0  0  0  0  0  0  0  0  0  0
   28.4225  -20.3471   -8.5280 C   0  0  0  0  0  0  0  0  0  0  0  0
   27.0681  -20.7497   -9.1151 C   0  0  0  0  0  0  0  0  0  0  0  0
   27.1021  -20.5052  -10.6122 C   0  0  2  0  0  0  0  0  0  0  0  0
   25.8710  -20.9963  -11.1965 N   0  0  0  0  0  0  0  0  0  0  0  0
   28.2423  -21.1677  -11.2521 C   0  0  0  0  0  0  0  0  0  0  0  0
   29.4573  -20.4928  -11.4248 O   0  0  0  0  0  0  0  0  0  0  0  0
   28.1489  -22.3463  -11.6545 O   0  0  0  0  0  0  0  0  0  0  0  0
  2  1  1  0
  3  2  1  0
  4  3  1  0
  4  5  1  0
  5  7  1  0
  5  6  1  1
  7  8  2  0
  9 10  1  0
  9  7  1  0
 10 11  1  6
 11 12  1  0
 12 13  1  0
 13 14  1  0
 14 15  1  0
 16 17  2  0
 16 10  1  0
 18 19  1  0
 19 20  1  0
 20 21  1  0
 22 21  1  1
 22 24  1  0
 22 23  1  0
 23 16  1  0
 24 25  1  0
 26 24  2  0
M  END
$$$$
