IVI.pdb
     RDKit          3D

 24 23  0  0  1  0  0  0  0  0999 V2000
    7.6399  -11.9780   18.8020 C   0  0  0  0  0  0  0  0  0  0  0  0
    7.8094  -13.4903   18.9065 C   0  0  0  0  0  0  0  0  0  0  0  0
    7.7516  -13.9665   20.3132 C   0  0  2  0  0  0  0  0  0  0  0  0
    8.7452  -13.2693   21.2177 C   0  0  0  0  0  0  0  0  0  0  0  0
    7.9676  -15.4501   20.3856 C   0  0  2  0  0  0  0  0  0  0  0  0
    6.9664  -16.1563   19.5816 N   0  0  0  0  0  0  0  0  0  0  0  0
    8.0788  -16.0009   21.7275 C   0  0  0  0  0  0  0  0  0  0  0  0
    7.0628  -16.1380   22.4433 O   0  0  0  0  0  0  0  0  0  0  0  0
   10.4933  -18.5784   25.1780 C   0  0  0  0  0  0  0  0  0  0  0  0
   10.3171  -18.1300   23.7659 C   0  0  1  0  0  0  0  0  0  0  0  0
    9.9154  -19.2357   22.8316 C   0  0  0  0  0  0  0  0  0  0  0  0
    9.3581  -16.9394   23.6627 C   0  0  2  0  0  0  0  0  0  0  0  0
    9.3127  -16.4179   22.3231 N   0  0  0  0  0  0  0  0  0  0  0  0
    9.7612  -15.8642   24.6069 C   0  0  0  0  0  0  0  0  0  0  0  0
   10.8090  -15.1660   24.4060 O   0  0  0  0  0  0  0  0  0  0  0  0
    6.1694  -12.5953   26.4000 C   0  0  0  0  0  0  0  0  0  0  0  0
    7.4430  -13.2902   26.0339 C   0  0  0  0  0  0  0  0  0  0  0  0
    8.1610  -13.8772   27.2302 C   0  0  2  0  0  0  0  0  0  0  0  0
    8.5080  -12.7788   28.2080 C   0  0  0  0  0  0  0  0  0  0  0  0
    9.4289  -14.6101   26.7711 C   0  0  2  0  0  0  0  0  0  0  0  0
    9.0147  -15.5637   25.7604 N   0  0  0  0  0  0  0  0  0  0  0  0
    9.9552  -15.3011   27.9841 C   0  0  0  0  0  0  0  0  0  0  0  0
   10.9817  -14.7533   28.7070 O   0  0  0  0  0  0  0  0  0  0  0  0
    9.4648  -16.3972   28.3620 O   0  0  0  0  0  0  0  0  0  0  0  0
  2  3  1  0
  2  1  1  0
  3  4  1  1
  5  3  1  0
  5  6  1  1
  5  7  1  0
  7  8  2  0
 10 11  1  6
 10 12  1  0
 10  9  1  0
 13  7  1  0
 12 13  1  6
 14 12  1  0
 14 15  2  0
 17 18  1  0
 17 16  1  0
 18 20  1  0
 18 19  1  1
 20 22  1  0
 20 21  1  6
 21 14  1  0
 22 23  1  0
 24 22  2  0
M  END
$$$$
