IVI.pdb
     RDKit          3D

 24 23  0  0  1  0  0  0  0  0999 V2000
    7.9699  -12.6430   18.3511 C   0  0  0  0  0  0  0  0  0  0  0  0
    7.7853  -14.1156   18.7034 C   0  0  0  0  0  0  0  0  0  0  0  0
    7.4139  -14.3100   20.1293 C   0  0  2  0  0  0  0  0  0  0  0  0
    8.4242  -13.7233   21.0917 C   0  0  0  0  0  0  0  0  0  0  0  0
    7.2188  -15.7660   20.4380 C   0  0  2  0  0  0  0  0  0  0  0  0
    6.2165  -16.3524   19.5442 N   0  0  0  0  0  0  0  0  0  0  0  0
    6.9563  -16.0792   21.8342 C   0  0  0  0  0  0  0  0  0  0  0  0
    5.9201  -15.6599   22.3946 O   0  0  0  0  0  0  0  0  0  0  0  0
    7.5313  -18.7215   25.9228 C   0  0  0  0  0  0  0  0  0  0  0  0
    7.6159  -18.5312   24.4455 C   0  0  1  0  0  0  0  0  0  0  0  0
    6.5994  -19.3288   23.6791 C   0  0  0  0  0  0  0  0  0  0  0  0
    7.5655  -17.0492   24.0592 C   0  0  2  0  0  0  0  0  0  0  0  0
    7.8269  -16.8643   22.6570 N   0  0  0  0  0  0  0  0  0  0  0  0
    8.5459  -16.2699   24.8600 C   0  0  0  0  0  0  0  0  0  0  0  0
    9.7772  -16.2207   24.5326 O   0  0  0  0  0  0  0  0  0  0  0  0
    6.2666  -12.2656   27.6102 C   0  0  0  0  0  0  0  0  0  0  0  0
    7.2510  -13.0645   26.8154 C   0  0  0  0  0  0  0  0  0  0  0  0
    8.2201  -13.8397   27.6822 C   0  0  2  0  0  0  0  0  0  0  0  0
    9.0882  -12.8803   28.4626 C   0  0  0  0  0  0  0  0  0  0  0  0
    9.0840  -14.7584   26.8075 C   0  0  2  0  0  0  0  0  0  0  0  0
    8.1700  -15.5527   26.0099 N   0  0  0  0  0  0  0  0  0  0  0  0
    9.8540  -15.6115   27.7589 C   0  0  0  0  0  0  0  0  0  0  0  0
    9.3040  -16.7585   28.2671 O   0  0  0  0  0  0  0  0  0  0  0  0
   11.0198  -15.2911   28.1094 O   0  0  0  0  0  0  0  0  0  0  0  0
  2  3  1  0
  2  1  1  0
  3  4  1  1
  5  3  1  0
  5  6  1  6
  5  7  1  0
  7  8  2  0
 10 11  1  6
 10 12  1  0
 10  9  1  0
 13  7  1  0
 12 13  1  6
 14 12  1  0
 14 15  2  0
 17 18  1  0
 17 16  1  0
 18 20  1  0
 18 19  1  6
 20 22  1  0
 20 21  1  6
 21 14  1  0
 22 23  1  0
 24 22  2  0
M  END
$$$$
