IVI.pdb
     RDKit          3D

 24 23  0  0  1  0  0  0  0  0999 V2000
    8.1691  -12.1467   18.6654 C   0  0  0  0  0  0  0  0  0  0  0  0
    8.1202  -13.6600   18.8509 C   0  0  0  0  0  0  0  0  0  0  0  0
    7.6823  -14.0448   20.2180 C   0  0  2  0  0  0  0  0  0  0  0  0
    8.5676  -13.4778   21.3070 C   0  0  0  0  0  0  0  0  0  0  0  0
    7.6141  -15.5378   20.3581 C   0  0  2  0  0  0  0  0  0  0  0  0
    6.7131  -16.1089   19.3534 N   0  0  0  0  0  0  0  0  0  0  0  0
    7.3215  -16.0273   21.6963 C   0  0  0  0  0  0  0  0  0  0  0  0
    6.2049  -15.8176   22.2186 O   0  0  0  0  0  0  0  0  0  0  0  0
    7.9440  -18.9202   25.5797 C   0  0  0  0  0  0  0  0  0  0  0  0
    8.1216  -18.5895   24.1357 C   0  0  1  0  0  0  0  0  0  0  0  0
    7.2485  -19.4023   23.2227 C   0  0  0  0  0  0  0  0  0  0  0  0
    7.9571  -17.0891   23.8715 C   0  0  2  0  0  0  0  0  0  0  0  0
    8.2495  -16.7634   22.5014 N   0  0  0  0  0  0  0  0  0  0  0  0
    8.8388  -16.3028   24.7739 C   0  0  0  0  0  0  0  0  0  0  0  0
   10.0827  -16.1663   24.5293 O   0  0  0  0  0  0  0  0  0  0  0  0
    6.4964  -12.1036   26.9243 C   0  0  0  0  0  0  0  0  0  0  0  0
    7.4681  -13.1025   26.3793 C   0  0  0  0  0  0  0  0  0  0  0  0
    8.2329  -13.8343   27.4615 C   0  0  2  0  0  0  0  0  0  0  0  0
    9.0233  -12.8456   28.2866 C   0  0  0  0  0  0  0  0  0  0  0  0
    9.1660  -14.8757   26.8290 C   0  0  2  0  0  0  0  0  0  0  0  0
    8.3515  -15.6743   25.9339 N   0  0  0  0  0  0  0  0  0  0  0  0
    9.6839  -15.6934   27.9643 C   0  0  0  0  0  0  0  0  0  0  0  0
   10.9504  -15.4925   28.4460 O   0  0  0  0  0  0  0  0  0  0  0  0
    8.9661  -16.5798   28.4969 O   0  0  0  0  0  0  0  0  0  0  0  0
  2  3  1  0
  2  1  1  0
  3  4  1  1
  5  3  1  0
  5  6  1  6
  5  7  1  0
  7  8  2  0
 10 11  1  6
 10 12  1  0
 10  9  1  0
 13  7  1  0
 12 13  1  6
 14 12  1  0
 14 15  2  0
 17 18  1  0
 17 16  1  0
 18 20  1  0
 18 19  1  6
 20 22  1  0
 20 21  1  6
 21 14  1  0
 22 23  1  0
 24 22  2  0
M  END
$$$$
