IVI.pdb
     RDKit          3D

 24 23  0  0  1  0  0  0  0  0999 V2000
    5.7844  -10.0557   26.6830 C   0  0  0  0  0  0  0  0  0  0  0  0
    5.2897  -11.4073   26.1776 C   0  0  0  0  0  0  0  0  0  0  0  0
    6.4069  -12.3498   25.9085 C   0  0  2  0  0  0  0  0  0  0  0  0
    7.4366  -11.7923   24.9492 C   0  0  0  0  0  0  0  0  0  0  0  0
    5.8898  -13.6563   25.3803 C   0  0  2  0  0  0  0  0  0  0  0  0
    4.9194  -14.2400   26.3104 N   0  0  0  0  0  0  0  0  0  0  0  0
    6.9075  -14.6151   24.9790 C   0  0  0  0  0  0  0  0  0  0  0  0
    7.3335  -15.4655   25.7908 O   0  0  0  0  0  0  0  0  0  0  0  0
    9.6657  -16.7643   21.4151 C   0  0  0  0  0  0  0  0  0  0  0  0
    8.7632  -15.6461   21.8165 C   0  0  1  0  0  0  0  0  0  0  0  0
    7.5147  -15.5557   20.9859 C   0  0  0  0  0  0  0  0  0  0  0  0
    8.4335  -15.6904   23.3123 C   0  0  2  0  0  0  0  0  0  0  0  0
    7.4881  -14.6675   23.6708 N   0  0  0  0  0  0  0  0  0  0  0  0
    9.6708  -15.5370   24.1220 C   0  0  0  0  0  0  0  0  0  0  0  0
   10.5383  -14.6456   23.8418 O   0  0  0  0  0  0  0  0  0  0  0  0
    9.9679  -14.1157   28.8384 C   0  0  0  0  0  0  0  0  0  0  0  0
   10.3029  -14.5650   27.4511 C   0  0  0  0  0  0  0  0  0  0  0  0
   10.8672  -15.9689   27.4046 C   0  0  2  0  0  0  0  0  0  0  0  0
   12.1008  -16.0531   28.2730 C   0  0  0  0  0  0  0  0  0  0  0  0
   11.2011  -16.3503   25.9560 C   0  0  2  0  0  0  0  0  0  0  0  0
    9.9465  -16.3595   25.2290 N   0  0  0  0  0  0  0  0  0  0  0  0
   11.7955  -17.7168   26.0270 C   0  0  0  0  0  0  0  0  0  0  0  0
   13.1547  -17.8866   26.0079 O   0  0  0  0  0  0  0  0  0  0  0  0
   11.0585  -18.7343   26.1057 O   0  0  0  0  0  0  0  0  0  0  0  0
  2  3  1  0
  2  1  1  0
  3  4  1  6
  5  3  1  0
  5  6  1  1
  5  7  1  0
  7  8  2  0
 10 11  1  6
 10 12  1  0
 10  9  1  0
 13  7  1  0
 12 13  1  1
 14 12  1  0
 14 15  2  0
 17 18  1  0
 17 16  1  0
 18 20  1  0
 18 19  1  1
 20 22  1  0
 20 21  1  6
 21 14  1  0
 22 23  1  0
 24 22  2  0
M  END
$$$$
