IVI.pdb
     RDKit          3D

 24 23  0  0  1  0  0  0  0  0999 V2000
    7.9821  -12.4264   18.3693 C   0  0  0  0  0  0  0  0  0  0  0  0
    7.9233  -13.9235   18.6558 C   0  0  0  0  0  0  0  0  0  0  0  0
    7.4565  -14.2136   20.0367 C   0  0  2  0  0  0  0  0  0  0  0  0
    8.2963  -13.5408   21.1013 C   0  0  0  0  0  0  0  0  0  0  0  0
    7.4215  -15.6926   20.2904 C   0  0  2  0  0  0  0  0  0  0  0  0
    6.5923  -16.3677   19.2884 N   0  0  0  0  0  0  0  0  0  0  0  0
    7.0698  -16.0861   21.6461 C   0  0  0  0  0  0  0  0  0  0  0  0
    5.9520  -15.7913   22.1226 O   0  0  0  0  0  0  0  0  0  0  0  0
    7.4750  -18.7411   25.7273 C   0  0  0  0  0  0  0  0  0  0  0  0
    7.6547  -18.5205   24.2627 C   0  0  1  0  0  0  0  0  0  0  0  0
    6.7076  -19.3213   23.4152 C   0  0  0  0  0  0  0  0  0  0  0  0
    7.6014  -17.0324   23.9010 C   0  0  2  0  0  0  0  0  0  0  0  0
    7.9385  -16.8167   22.5195 N   0  0  0  0  0  0  0  0  0  0  0  0
    8.5218  -16.2531   24.7702 C   0  0  0  0  0  0  0  0  0  0  0  0
    9.7863  -16.3177   24.6204 O   0  0  0  0  0  0  0  0  0  0  0  0
    6.2774  -11.8979   26.8915 C   0  0  0  0  0  0  0  0  0  0  0  0
    7.3795  -12.7463   26.3397 C   0  0  0  0  0  0  0  0  0  0  0  0
    8.0302  -13.6244   27.3870 C   0  0  2  0  0  0  0  0  0  0  0  0
    8.8544  -12.7749   28.3263 C   0  0  0  0  0  0  0  0  0  0  0  0
    8.9085  -14.6842   26.7082 C   0  0  2  0  0  0  0  0  0  0  0  0
    8.0501  -15.4116   25.7937 N   0  0  0  0  0  0  0  0  0  0  0  0
    9.3977  -15.5653   27.8083 C   0  0  0  0  0  0  0  0  0  0  0  0
    8.5808  -16.5230   28.3485 O   0  0  0  0  0  0  0  0  0  0  0  0
   10.5675  -15.4429   28.2568 O   0  0  0  0  0  0  0  0  0  0  0  0
  2  3  1  0
  2  1  1  0
  3  4  1  1
  5  3  1  0
  5  6  1  6
  5  7  1  0
  7  8  2  0
 10 11  1  6
 10 12  1  0
 10  9  1  0
 13  7  1  0
 12 13  1  6
 14 12  1  0
 14 15  2  0
 17 18  1  0
 17 16  1  0
 18 20  1  0
 18 19  1  1
 20 22  1  0
 20 21  1  6
 21 14  1  0
 22 23  1  0
 24 22  2  0
M  END
$$$$
