IVI.pdb
     RDKit          3D

 24 23  0  0  1  0  0  0  0  0999 V2000
    5.9914  -10.3416   26.9606 C   0  0  0  0  0  0  0  0  0  0  0  0
    5.4342  -11.6386   26.3824 C   0  0  0  0  0  0  0  0  0  0  0  0
    6.5024  -12.6327   26.1002 C   0  0  2  0  0  0  0  0  0  0  0  0
    7.5939  -12.0928   25.2011 C   0  0  0  0  0  0  0  0  0  0  0  0
    5.9271  -13.8788   25.4924 C   0  0  2  0  0  0  0  0  0  0  0  0
    4.9395  -14.4819   26.3915 N   0  0  0  0  0  0  0  0  0  0  0  0
    6.9009  -14.8504   25.0191 C   0  0  0  0  0  0  0  0  0  0  0  0
    7.2855  -15.7780   25.7643 O   0  0  0  0  0  0  0  0  0  0  0  0
    9.7289  -16.7655   21.3771 C   0  0  0  0  0  0  0  0  0  0  0  0
    8.7349  -15.7386   21.8056 C   0  0  1  0  0  0  0  0  0  0  0  0
    7.4565  -15.7764   21.0177 C   0  0  0  0  0  0  0  0  0  0  0  0
    8.4616  -15.8055   23.3119 C   0  0  2  0  0  0  0  0  0  0  0  0
    7.4816  -14.8309   23.7101 N   0  0  0  0  0  0  0  0  0  0  0  0
    9.7183  -15.5961   24.0779 C   0  0  0  0  0  0  0  0  0  0  0  0
   10.4983  -14.6222   23.8157 O   0  0  0  0  0  0  0  0  0  0  0  0
    9.5627  -14.5000   28.8263 C   0  0  0  0  0  0  0  0  0  0  0  0
   10.0300  -14.7974   27.4363 C   0  0  0  0  0  0  0  0  0  0  0  0
   10.8784  -16.0483   27.3531 C   0  0  2  0  0  0  0  0  0  0  0  0
   12.0810  -15.9117   28.2574 C   0  0  0  0  0  0  0  0  0  0  0  0
   11.3195  -16.2852   25.9023 C   0  0  2  0  0  0  0  0  0  0  0  0
   10.1089  -16.4535   25.1221 N   0  0  0  0  0  0  0  0  0  0  0  0
   12.1262  -17.5399   25.9273 C   0  0  0  0  0  0  0  0  0  0  0  0
   13.4945  -17.4872   25.9638 O   0  0  0  0  0  0  0  0  0  0  0  0
   11.5629  -18.6657   25.9152 O   0  0  0  0  0  0  0  0  0  0  0  0
  2  3  1  0
  2  1  1  0
  3  4  1  6
  5  3  1  0
  5  6  1  1
  5  7  1  0
  7  8  2  0
 10 11  1  6
 10 12  1  0
 10  9  1  0
 13  7  1  0
 12 13  1  1
 14 12  1  0
 14 15  2  0
 17 18  1  0
 17 16  1  0
 18 20  1  0
 18 19  1  1
 20 22  1  0
 20 21  1  6
 21 14  1  0
 22 23  1  0
 24 22  2  0
M  END
$$$$
