IVI.pdb
     RDKit          3D

 24 23  0  0  1  0  0  0  0  0999 V2000
    5.7459  -10.8494   26.1719 C   0  0  0  0  0  0  0  0  0  0  0  0
    5.3506  -12.2302   25.6582 C   0  0  0  0  0  0  0  0  0  0  0  0
    6.5193  -13.1404   25.5368 C   0  0  2  0  0  0  0  0  0  0  0  0
    7.6331  -12.5670   24.6871 C   0  0  0  0  0  0  0  0  0  0  0  0
    6.1052  -14.4726   24.9826 C   0  0  2  0  0  0  0  0  0  0  0  0
    5.0683  -15.0797   25.8216 N   0  0  0  0  0  0  0  0  0  0  0  0
    7.1920  -15.3977   24.7012 C   0  0  0  0  0  0  0  0  0  0  0  0
    7.5693  -16.2159   25.5682 O   0  0  0  0  0  0  0  0  0  0  0  0
   10.6598  -17.2326   21.6038 C   0  0  0  0  0  0  0  0  0  0  0  0
    9.4912  -16.3279   21.8091 C   0  0  1  0  0  0  0  0  0  0  0  0
    8.3575  -16.5881   20.8586 C   0  0  0  0  0  0  0  0  0  0  0  0
    9.0107  -16.3409   23.2641 C   0  0  2  0  0  0  0  0  0  0  0  0
    7.8973  -15.4507   23.4559 N   0  0  0  0  0  0  0  0  0  0  0  0
   10.1188  -15.9642   24.1807 C   0  0  0  0  0  0  0  0  0  0  0  0
   10.8333  -14.9305   23.9648 O   0  0  0  0  0  0  0  0  0  0  0  0
   10.5259  -14.3021   29.5872 C   0  0  0  0  0  0  0  0  0  0  0  0
   11.3121  -15.0212   28.5366 C   0  0  0  0  0  0  0  0  0  0  0  0
   10.4464  -15.5691   27.4222 C   0  0  2  0  0  0  0  0  0  0  0  0
    9.4274  -16.5287   27.9910 C   0  0  0  0  0  0  0  0  0  0  0  0
   11.3231  -16.2716   26.3766 C   0  0  2  0  0  0  0  0  0  0  0  0
   10.4339  -16.7213   25.3233 N   0  0  0  0  0  0  0  0  0  0  0  0
   11.9487  -17.4252   27.0863 C   0  0  0  0  0  0  0  0  0  0  0  0
   13.1360  -17.2721   27.7520 O   0  0  0  0  0  0  0  0  0  0  0  0
   11.3959  -18.5562   27.0846 O   0  0  0  0  0  0  0  0  0  0  0  0
  2  3  1  0
  2  1  1  0
  3  4  1  6
  5  3  1  0
  5  6  1  1
  5  7  1  0
  7  8  2  0
 10 11  1  6
 10 12  1  0
 10  9  1  0
 13  7  1  0
 12 13  1  6
 14 12  1  0
 14 15  2  0
 17 18  1  0
 17 16  1  0
 18 20  1  0
 18 19  1  1
 20 22  1  0
 20 21  1  6
 21 14  1  0
 22 23  1  0
 24 22  2  0
M  END
$$$$
