IVI.pdb
     RDKit          3D

 24 23  0  0  1  0  0  0  0  0999 V2000
    6.9512  -22.1906   24.6121 C   0  0  0  0  0  0  0  0  0  0  0  0
    7.5665  -21.3985   23.4628 C   0  0  0  0  0  0  0  0  0  0  0  0
    7.8193  -19.9806   23.8295 C   0  0  2  0  0  0  0  0  0  0  0  0
    6.5901  -19.2767   24.3630 C   0  0  0  0  0  0  0  0  0  0  0  0
    8.3641  -19.2140   22.6596 C   0  0  2  0  0  0  0  0  0  0  0  0
    9.5475  -19.8824   22.1116 N   0  0  0  0  0  0  0  0  0  0  0  0
    8.5960  -17.7971   22.8939 C   0  0  0  0  0  0  0  0  0  0  0  0
    9.5740  -17.4182   23.5748 O   0  0  0  0  0  0  0  0  0  0  0  0
    7.6004  -13.0150   21.9459 C   0  0  0  0  0  0  0  0  0  0  0  0
    7.5346  -14.4539   21.5569 C   0  0  1  0  0  0  0  0  0  0  0  0
    8.2390  -14.7586   20.2655 C   0  0  0  0  0  0  0  0  0  0  0  0
    8.0204  -15.3707   22.6846 C   0  0  2  0  0  0  0  0  0  0  0  0
    7.7579  -16.7529   22.3857 N   0  0  0  0  0  0  0  0  0  0  0  0
    7.3705  -15.0025   23.9699 C   0  0  0  0  0  0  0  0  0  0  0  0
    6.1623  -15.3263   24.2168 O   0  0  0  0  0  0  0  0  0  0  0  0
   10.6311  -14.2084   28.3294 C   0  0  0  0  0  0  0  0  0  0  0  0
    9.4285  -14.5866   27.5234 C   0  0  0  0  0  0  0  0  0  0  0  0
    8.5825  -13.3947   27.1293 C   0  0  2  0  0  0  0  0  0  0  0  0
    8.0359  -12.7237   28.3678 C   0  0  0  0  0  0  0  0  0  0  0  0
    7.4382  -13.8464   26.2118 C   0  0  2  0  0  0  0  0  0  0  0  0
    8.0483  -14.2844   24.9714 N   0  0  0  0  0  0  0  0  0  0  0  0
    6.5908  -12.6368   26.0008 C   0  0  0  0  0  0  0  0  0  0  0  0
    5.4005  -12.4964   26.6639 O   0  0  0  0  0  0  0  0  0  0  0  0
    6.9559  -11.7271   25.2110 O   0  0  0  0  0  0  0  0  0  0  0  0
  2  3  1  0
  2  1  1  0
  3  4  1  6
  5  3  1  0
  5  6  1  1
  5  7  1  0
  7  8  2  0
 10 11  1  6
 10 12  1  0
 10  9  1  0
 13  7  1  0
 12 13  1  6
 14 12  1  0
 14 15  2  0
 17 18  1  0
 17 16  1  0
 18 20  1  0
 18 19  1  1
 20 22  1  0
 20 21  1  6
 21 14  1  0
 22 23  1  0
 24 22  2  0
M  END
$$$$
