IVI.pdb
     RDKit          3D

 24 23  0  0  1  0  0  0  0  0999 V2000
    7.7733  -12.1734   18.0600 C   0  0  0  0  0  0  0  0  0  0  0  0
    8.0089  -13.6606   18.3039 C   0  0  0  0  0  0  0  0  0  0  0  0
    7.7478  -14.0469   19.7152 C   0  0  2  0  0  0  0  0  0  0  0  0
    8.5533  -13.2400   20.7108 C   0  0  0  0  0  0  0  0  0  0  0  0
    8.0130  -15.5089   19.9280 C   0  0  2  0  0  0  0  0  0  0  0  0
    7.1581  -16.3197   19.0567 N   0  0  0  0  0  0  0  0  0  0  0  0
    7.9665  -15.9579   21.3109 C   0  0  0  0  0  0  0  0  0  0  0  0
    6.8697  -16.1167   21.8900 O   0  0  0  0  0  0  0  0  0  0  0  0
    9.8387  -18.3879   25.1179 C   0  0  0  0  0  0  0  0  0  0  0  0
    9.8006  -18.0003   23.6776 C   0  0  1  0  0  0  0  0  0  0  0  0
    9.3095  -19.0960   22.7748 C   0  0  0  0  0  0  0  0  0  0  0  0
    9.0129  -16.7044   23.4581 C   0  0  2  0  0  0  0  0  0  0  0  0
    9.1267  -16.2460   22.0996 N   0  0  0  0  0  0  0  0  0  0  0  0
    9.4863  -15.6448   24.3871 C   0  0  0  0  0  0  0  0  0  0  0  0
   10.6311  -15.1023   24.2434 O   0  0  0  0  0  0  0  0  0  0  0  0
    5.8653  -12.4079   27.2345 C   0  0  0  0  0  0  0  0  0  0  0  0
    6.8627  -13.5164   27.1104 C   0  0  0  0  0  0  0  0  0  0  0  0
    8.1532  -13.0790   26.4511 C   0  0  2  0  0  0  0  0  0  0  0  0
    7.8762  -12.6224   25.0376 C   0  0  0  0  0  0  0  0  0  0  0  0
    9.1609  -14.2366   26.4555 C   0  0  2  0  0  0  0  0  0  0  0  0
    8.7033  -15.1897   25.4631 N   0  0  0  0  0  0  0  0  0  0  0  0
    9.1022  -14.8153   27.8293 C   0  0  0  0  0  0  0  0  0  0  0  0
    9.8170  -14.2519   28.8531 O   0  0  0  0  0  0  0  0  0  0  0  0
    8.3958  -15.8293   28.0692 O   0  0  0  0  0  0  0  0  0  0  0  0
  2  3  1  0
  2  1  1  0
  3  4  1  1
  5  3  1  0
  5  6  1  6
  5  7  1  0
  7  8  2  0
 10 11  1  6
 10 12  1  0
 10  9  1  0
 13  7  1  0
 12 13  1  6
 14 12  1  0
 14 15  2  0
 17 18  1  0
 17 16  1  0
 18 20  1  0
 18 19  1  6
 20 22  1  0
 20 21  1  6
 21 14  1  0
 22 23  1  0
 24 22  2  0
M  END
$$$$
