IVI.pdb
     RDKit          3D

 24 23  0  0  1  0  0  0  0  0999 V2000
    5.7986  -10.9033   27.0101 C   0  0  0  0  0  0  0  0  0  0  0  0
    5.3601  -12.1370   26.2274 C   0  0  0  0  0  0  0  0  0  0  0  0
    6.4914  -13.0620   25.9563 C   0  0  2  0  0  0  0  0  0  0  0  0
    7.6222  -12.4091   25.1906 C   0  0  0  0  0  0  0  0  0  0  0  0
    6.0222  -14.2779   25.2115 C   0  0  2  0  0  0  0  0  0  0  0  0
    4.8866  -14.8974   25.9001 N   0  0  0  0  0  0  0  0  0  0  0  0
    7.0561  -15.2466   24.8816 C   0  0  0  0  0  0  0  0  0  0  0  0
    7.2865  -16.2124   25.6415 O   0  0  0  0  0  0  0  0  0  0  0  0
   10.3673  -17.1579   21.6821 C   0  0  0  0  0  0  0  0  0  0  0  0
    9.3002  -16.1540   21.9640 C   0  0  1  0  0  0  0  0  0  0  0  0
    8.1095  -16.2739   21.0560 C   0  0  0  0  0  0  0  0  0  0  0  0
    8.8794  -16.1699   23.4374 C   0  0  2  0  0  0  0  0  0  0  0  0
    7.8689  -15.1817   23.7041 N   0  0  0  0  0  0  0  0  0  0  0  0
   10.0553  -15.9357   24.3162 C   0  0  0  0  0  0  0  0  0  0  0  0
   10.9509  -15.0817   24.0092 O   0  0  0  0  0  0  0  0  0  0  0  0
   10.0788  -13.7325   28.6399 C   0  0  0  0  0  0  0  0  0  0  0  0
   10.5203  -14.4459   27.4009 C   0  0  0  0  0  0  0  0  0  0  0  0
   10.9725  -15.8660   27.6660 C   0  0  2  0  0  0  0  0  0  0  0  0
   12.1005  -15.8642   28.6713 C   0  0  0  0  0  0  0  0  0  0  0  0
   11.4208  -16.5253   26.3546 C   0  0  2  0  0  0  0  0  0  0  0  0
   10.2397  -16.6375   25.5210 N   0  0  0  0  0  0  0  0  0  0  0  0
   11.9424  -17.8693   26.7382 C   0  0  0  0  0  0  0  0  0  0  0  0
   11.0839  -18.9171   26.9417 O   0  0  0  0  0  0  0  0  0  0  0  0
   13.1783  -18.0616   26.8808 O   0  0  0  0  0  0  0  0  0  0  0  0
  2  3  1  0
  2  1  1  0
  3  4  1  6
  5  3  1  0
  5  6  1  1
  5  7  1  0
  7  8  2  0
 10 11  1  6
 10 12  1  0
 10  9  1  0
 13  7  1  0
 12 13  1  6
 14 12  1  0
 14 15  2  0
 17 18  1  0
 17 16  1  0
 18 20  1  0
 18 19  1  1
 20 22  1  0
 20 21  1  6
 21 14  1  0
 22 23  1  0
 24 22  2  0
M  END
$$$$
