VVM.pdb
     RDKit          3D

 23 22  0  0  1  0  0  0  0  0999 V2000
    7.5190  -12.7010   19.7792 C   0  0  0  0  0  0  0  0  0  0  0  0
    8.7496  -13.2998   19.1340 C   0  0  2  0  0  0  0  0  0  0  0  0
    8.9488  -12.5401   17.8165 C   0  0  0  0  0  0  0  0  0  0  0  0
    8.5779  -14.7615   18.7964 C   0  0  2  0  0  0  0  0  0  0  0  0
    7.6139  -14.9612   17.7350 N   0  0  0  0  0  0  0  0  0  0  0  0
    8.2026  -15.5869   19.9563 C   0  0  0  0  0  0  0  0  0  0  0  0
    6.9764  -15.6989   20.3017 O   0  0  0  0  0  0  0  0  0  0  0  0
   10.8694  -18.2045   21.9230 C   0  0  0  0  0  0  0  0  0  0  0  0
    9.3543  -18.3987   21.8740 C   0  0  2  0  0  0  0  0  0  0  0  0
    9.0147  -19.2051   20.6684 C   0  0  0  0  0  0  0  0  0  0  0  0
    8.6702  -17.0554   21.9601 C   0  0  2  0  0  0  0  0  0  0  0  0
    9.1206  -16.3044   20.7658 N   0  0  0  0  0  0  0  0  0  0  0  0
    8.9504  -16.3021   23.1793 C   0  0  0  0  0  0  0  0  0  0  0  0
   10.0746  -15.7087   23.3228 O   0  0  0  0  0  0  0  0  0  0  0  0
    6.1966  -10.9198   26.2606 C   0  0  0  0  0  0  0  0  0  0  0  0
    5.9476  -12.4312   27.1763 S   0  0  0  0  0  0  0  0  0  0  0  0
    7.2484  -13.6234   26.9376 C   0  0  0  0  0  0  0  0  0  0  0  0
    7.2118  -14.4260   25.6918 C   0  0  0  0  0  0  0  0  0  0  0  0
    8.3236  -15.3804   25.4498 C   0  0  2  0  0  0  0  0  0  0  0  0
    8.0487  -16.1650   24.2579 N   0  0  0  0  0  0  0  0  0  0  0  0
    8.7165  -16.2043   26.5898 C   0  0  0  0  0  0  0  0  0  0  0  0
    8.2786  -17.4041   26.6521 O   0  0  0  0  0  0  0  0  0  0  0  0
    9.5255  -15.8141   27.6299 O   0  0  0  0  0  0  0  0  0  0  0  0
  2  1  1  6
  2  3  1  0
  4  2  1  0
  4  6  1  0
  4  5  1  6
  6  7  2  0
  9 11  1  0
  9  8  1  6
 10  9  1  0
 11 13  1  0
 12  6  1  0
 11 12  1  6
 13 14  2  0
 16 15  1  0
 17 18  1  0
 17 16  1  0
 19 18  1  1
 19 21  1  0
 20 19  1  0
 20 13  1  0
 21 22  2  0
 21 23  1  0
M  END
$$$$
