VVM.pdb
     RDKit          3D

 23 22  0  0  1  0  0  0  0  0999 V2000
    9.5820  -19.2151   18.6958 C   0  0  0  0  0  0  0  0  0  0  0  0
    9.9594  -19.8822   20.0003 C   0  0  2  0  0  0  0  0  0  0  0  0
    9.3888  -21.3042   19.9290 C   0  0  0  0  0  0  0  0  0  0  0  0
    9.3449  -19.2036   21.2011 C   0  0  2  0  0  0  0  0  0  0  0  0
    7.9129  -19.4073   21.2626 N   0  0  0  0  0  0  0  0  0  0  0  0
    9.6345  -17.7617   21.2668 C   0  0  0  0  0  0  0  0  0  0  0  0
   10.8418  -17.3413   21.2308 O   0  0  0  0  0  0  0  0  0  0  0  0
    6.7381  -14.4266   21.8628 C   0  0  0  0  0  0  0  0  0  0  0  0
    7.8984  -14.5418   20.8748 C   0  0  2  0  0  0  0  0  0  0  0  0
    7.3828  -15.1049   19.5957 C   0  0  0  0  0  0  0  0  0  0  0  0
    9.0261  -15.3201   21.5094 C   0  0  2  0  0  0  0  0  0  0  0  0
    8.6497  -16.7458   21.3718 N   0  0  0  0  0  0  0  0  0  0  0  0
    9.2891  -14.9885   22.9070 C   0  0  0  0  0  0  0  0  0  0  0  0
    9.9056  -13.9080   23.2049 O   0  0  0  0  0  0  0  0  0  0  0  0
    7.2160  -10.9961   26.9873 C   0  0  0  0  0  0  0  0  0  0  0  0
    6.5007  -12.6028   27.2903 S   0  0  0  0  0  0  0  0  0  0  0  0
    7.6497  -13.9426   27.0552 C   0  0  0  0  0  0  0  0  0  0  0  0
    7.7734  -14.4968   25.6858 C   0  0  0  0  0  0  0  0  0  0  0  0
    8.9523  -15.3495   25.3876 C   0  0  2  0  0  0  0  0  0  0  0  0
    8.9036  -15.7907   24.0039 N   0  0  0  0  0  0  0  0  0  0  0  0
    9.1994  -16.4451   26.3211 C   0  0  0  0  0  0  0  0  0  0  0  0
    8.9675  -17.6403   25.9305 O   0  0  0  0  0  0  0  0  0  0  0  0
    9.6643  -16.3222   27.6085 O   0  0  0  0  0  0  0  0  0  0  0  0
  2  1  1  6
  2  3  1  0
  4  2  1  0
  4  6  1  0
  4  5  1  6
  6  7  2  0
  9 11  1  0
  9  8  1  1
 10  9  1  0
 11 13  1  0
 12  6  1  0
 11 12  1  1
 13 14  2  0
 16 15  1  0
 17 18  1  0
 17 16  1  0
 19 18  1  1
 19 21  1  0
 20 19  1  0
 20 13  1  0
 21 22  2  0
 21 23  1  0
M  END
$$$$
