VVM.pdb
     RDKit          3D

 23 22  0  0  1  0  0  0  0  0999 V2000
    8.2402  -11.8325   19.7467 C   0  0  0  0  0  0  0  0  0  0  0  0
    8.4775  -13.0226   18.8430 C   0  0  2  0  0  0  0  0  0  0  0  0
    7.0914  -13.6021   18.5337 C   0  0  0  0  0  0  0  0  0  0  0  0
    9.2876  -14.1084   19.5098 C   0  0  2  0  0  0  0  0  0  0  0  0
    9.6183  -15.1771   18.5909 N   0  0  0  0  0  0  0  0  0  0  0  0
    8.6330  -14.6756   20.7004 C   0  0  0  0  0  0  0  0  0  0  0  0
    8.0995  -13.9083   21.5734 O   0  0  0  0  0  0  0  0  0  0  0  0
    8.8874  -18.7828   21.8720 C   0  0  0  0  0  0  0  0  0  0  0  0
    7.5672  -18.0158   21.9399 C   0  0  2  0  0  0  0  0  0  0  0  0
    6.7839  -18.3027   20.7058 C   0  0  0  0  0  0  0  0  0  0  0  0
    7.8455  -16.5542   22.1973 C   0  0  2  0  0  0  0  0  0  0  0  0
    8.5351  -16.0625   20.9825 N   0  0  0  0  0  0  0  0  0  0  0  0
    8.6440  -16.2830   23.3894 C   0  0  0  0  0  0  0  0  0  0  0  0
    9.9094  -16.4694   23.3700 O   0  0  0  0  0  0  0  0  0  0  0  0
    5.6260  -12.6589   26.5661 C   0  0  0  0  0  0  0  0  0  0  0  0
    7.2262  -12.0908   27.1153 S   0  0  0  0  0  0  0  0  0  0  0  0
    8.5363  -13.2530   26.7936 C   0  0  0  0  0  0  0  0  0  0  0  0
    8.1702  -14.6884   26.7377 C   0  0  0  0  0  0  0  0  0  0  0  0
    8.9208  -15.5585   25.7969 C   0  0  2  0  0  0  0  0  0  0  0  0
    8.1177  -15.8113   24.6125 N   0  0  0  0  0  0  0  0  0  0  0  0
    9.4840  -16.7789   26.3681 C   0  0  0  0  0  0  0  0  0  0  0  0
   10.5970  -16.7001   26.9927 O   0  0  0  0  0  0  0  0  0  0  0  0
    8.9302  -18.0348   26.3003 O   0  0  0  0  0  0  0  0  0  0  0  0
  2  1  1  1
  2  3  1  0
  4  2  1  0
  4  6  1  0
  4  5  1  6
  6  7  2  0
  9 11  1  0
  9  8  1  6
 10  9  1  0
 11 13  1  0
 12  6  1  0
 11 12  1  6
 13 14  2  0
 16 15  1  0
 17 18  1  0
 17 16  1  0
 19 18  1  1
 19 21  1  0
 20 19  1  0
 20 13  1  0
 21 22  2  0
 21 23  1  0
M  END
$$$$
