VVM.pdb
     RDKit          3D

 23 22  0  0  1  0  0  0  0  0999 V2000
    8.7258  -17.3694   22.1567 C   0  0  0  0  0  0  0  0  0  0  0  0
    7.4278  -16.6177   21.9584 C   0  0  2  0  0  0  0  0  0  0  0  0
    6.8370  -17.1339   20.6404 C   0  0  0  0  0  0  0  0  0  0  0  0
    7.6326  -15.1287   21.8146 C   0  0  2  0  0  0  0  0  0  0  0  0
    8.4635  -14.8054   20.6740 N   0  0  0  0  0  0  0  0  0  0  0  0
    8.1954  -14.4990   23.0206 C   0  0  0  0  0  0  0  0  0  0  0  0
    9.4611  -14.4567   23.1983 O   0  0  0  0  0  0  0  0  0  0  0  0
    7.6309  -11.9784   27.2581 C   0  0  0  0  0  0  0  0  0  0  0  0
    7.0144  -12.6225   26.0169 C   0  0  2  0  0  0  0  0  0  0  0  0
    5.7625  -13.3249   26.4150 C   0  0  0  0  0  0  0  0  0  0  0  0
    8.0452  -13.4879   25.3326 C   0  0  2  0  0  0  0  0  0  0  0  0
    7.4255  -13.9063   24.0543 N   0  0  0  0  0  0  0  0  0  0  0  0
    8.4767  -14.6516   26.1020 C   0  0  0  0  0  0  0  0  0  0  0  0
    7.7143  -15.6740   26.2009 O   0  0  0  0  0  0  0  0  0  0  0  0
   13.3387  -18.7218   25.5395 C   0  0  0  0  0  0  0  0  0  0  0  0
   13.2143  -17.0314   24.9811 S   0  0  0  0  0  0  0  0  0  0  0  0
   12.1366  -16.0332   25.9875 C   0  0  0  0  0  0  0  0  0  0  0  0
   11.0716  -16.7355   26.7425 C   0  0  0  0  0  0  0  0  0  0  0  0
   10.1309  -15.9107   27.5427 C   0  0  2  0  0  0  0  0  0  0  0  0
    9.7159  -14.7502   26.7729 N   0  0  0  0  0  0  0  0  0  0  0  0
   10.5739  -15.5649   28.8907 C   0  0  0  0  0  0  0  0  0  0  0  0
   10.8076  -16.5135   29.7157 O   0  0  0  0  0  0  0  0  0  0  0  0
   10.7681  -14.2947   29.3780 O   0  0  0  0  0  0  0  0  0  0  0  0
  2  1  1  6
  2  3  1  0
  4  2  1  0
  4  6  1  0
  4  5  1  6
  6  7  2  0
  9 11  1  0
  9  8  1  1
 10  9  1  0
 11 13  1  0
 12  6  1  0
 11 12  1  6
 13 14  2  0
 16 15  1  0
 17 18  1  0
 17 16  1  0
 19 18  1  6
 19 21  1  0
 20 19  1  0
 20 13  1  0
 21 22  2  0
 21 23  1  0
M  END
$$$$
