VVM.pdb
     RDKit          3D

 23 22  0  0  1  0  0  0  0  0999 V2000
    8.6051  -20.4969   25.0110 C   0  0  0  0  0  0  0  0  0  0  0  0
    7.2988  -19.7977   24.7044 C   0  0  2  0  0  0  0  0  0  0  0  0
    6.1896  -20.7597   25.1479 C   0  0  0  0  0  0  0  0  0  0  0  0
    7.1112  -19.5336   23.2297 C   0  0  2  0  0  0  0  0  0  0  0  0
    7.4836  -20.6775   22.4244 N   0  0  0  0  0  0  0  0  0  0  0  0
    7.8389  -18.3457   22.7535 C   0  0  0  0  0  0  0  0  0  0  0  0
    9.1118  -18.3714   22.6325 O   0  0  0  0  0  0  0  0  0  0  0  0
    8.0016  -13.8113   20.8030 C   0  0  0  0  0  0  0  0  0  0  0  0
    7.2203  -15.0693   21.1809 C   0  0  2  0  0  0  0  0  0  0  0  0
    5.8761  -14.6651   21.6796 C   0  0  0  0  0  0  0  0  0  0  0  0
    8.0368  -15.9011   22.1408 C   0  0  2  0  0  0  0  0  0  0  0  0
    7.2286  -17.1149   22.3993 N   0  0  0  0  0  0  0  0  0  0  0  0
    8.3788  -15.2326   23.3931 C   0  0  0  0  0  0  0  0  0  0  0  0
    8.4752  -13.9577   23.4343 O   0  0  0  0  0  0  0  0  0  0  0  0
    7.6013  -10.8383   26.9313 C   0  0  0  0  0  0  0  0  0  0  0  0
    6.4224  -12.0829   26.4354 S   0  0  0  0  0  0  0  0  0  0  0  0
    7.1630  -13.4516   25.5700 C   0  0  0  0  0  0  0  0  0  0  0  0
    7.7655  -14.5274   26.3929 C   0  0  0  0  0  0  0  0  0  0  0  0
    8.9616  -15.2239   25.8544 C   0  0  2  0  0  0  0  0  0  0  0  0
    8.6208  -15.9003   24.6142 N   0  0  0  0  0  0  0  0  0  0  0  0
    9.6722  -16.0888   26.7924 C   0  0  0  0  0  0  0  0  0  0  0  0
   10.2148  -15.5549   27.8198 O   0  0  0  0  0  0  0  0  0  0  0  0
    9.8247  -17.4501   26.6818 O   0  0  0  0  0  0  0  0  0  0  0  0
  2  1  1  6
  2  3  1  0
  4  2  1  0
  4  6  1  0
  4  5  1  6
  6  7  2  0
  9 11  1  0
  9  8  1  1
 10  9  1  0
 11 13  1  0
 12  6  1  0
 11 12  1  1
 13 14  2  0
 16 15  1  0
 17 18  1  0
 17 16  1  0
 19 18  1  1
 19 21  1  0
 20 19  1  0
 20 13  1  0
 21 22  2  0
 21 23  1  0
M  END
$$$$
