VVM.pdb
     RDKit          3D

 23 22  0  0  1  0  0  0  0  0999 V2000
   14.4401  -13.9586   18.8234 C   0  0  0  0  0  0  0  0  0  0  0  0
   13.3450  -14.2442   19.8276 C   0  0  2  0  0  0  0  0  0  0  0  0
   14.0534  -14.5133   21.1612 C   0  0  0  0  0  0  0  0  0  0  0  0
   12.5427  -15.4754   19.4805 C   0  0  2  0  0  0  0  0  0  0  0  0
   11.8617  -15.3361   18.2106 N   0  0  0  0  0  0  0  0  0  0  0  0
   11.5661  -15.8457   20.5182 C   0  0  0  0  0  0  0  0  0  0  0  0
   10.4843  -15.1780   20.6572 O   0  0  0  0  0  0  0  0  0  0  0  0
   11.7069  -19.4863   22.4524 C   0  0  0  0  0  0  0  0  0  0  0  0
   10.4078  -18.6897   22.3370 C   0  0  2  0  0  0  0  0  0  0  0  0
    9.7120  -19.0897   21.0820 C   0  0  0  0  0  0  0  0  0  0  0  0
   10.7072  -17.2150   22.4618 C   0  0  2  0  0  0  0  0  0  0  0  0
   11.7223  -16.9277   21.4225 N   0  0  0  0  0  0  0  0  0  0  0  0
   11.1825  -16.7954   23.7772 C   0  0  0  0  0  0  0  0  0  0  0  0
   12.4240  -16.8896   24.0709 O   0  0  0  0  0  0  0  0  0  0  0  0
    7.7886  -12.6646   27.6497 C   0  0  0  0  0  0  0  0  0  0  0  0
    9.3174  -12.8522   28.5511 S   0  0  0  0  0  0  0  0  0  0  0  0
   10.3328  -14.1852   27.9488 C   0  0  0  0  0  0  0  0  0  0  0  0
   10.0051  -14.7360   26.6121 C   0  0  0  0  0  0  0  0  0  0  0  0
   10.8409  -15.8512   26.0986 C   0  0  2  0  0  0  0  0  0  0  0  0
   10.3552  -16.2709   24.7949 N   0  0  0  0  0  0  0  0  0  0  0  0
   11.0416  -16.9715   27.0138 C   0  0  0  0  0  0  0  0  0  0  0  0
   10.2301  -17.9579   26.9540 O   0  0  0  0  0  0  0  0  0  0  0  0
   12.0348  -17.0776   27.9576 O   0  0  0  0  0  0  0  0  0  0  0  0
  2  1  1  6
  2  3  1  0
  4  2  1  0
  4  6  1  0
  4  5  1  6
  6  7  2  0
  9 11  1  0
  9  8  1  6
 10  9  1  0
 11 13  1  0
 12  6  1  0
 11 12  1  6
 13 14  2  0
 16 15  1  0
 17 18  1  0
 17 16  1  0
 19 18  1  1
 19 21  1  0
 20 19  1  0
 20 13  1  0
 21 22  2  0
 21 23  1  0
M  END
$$$$
