TVP.pdb
     RDKit          3D

 22 22  0  0  1  0  0  0  0  0999 V2000
   17.7291  -11.8041  -18.2145 C   0  0  0  0  0  0  0  0  0  0  0  0
   17.8435  -13.3095  -18.1061 C   0  0  1  0  0  0  0  0  0  0  0  0
   16.8181  -13.9452  -18.8049 O   0  0  0  0  0  0  0  0  0  0  0  0
   19.1832  -13.6868  -18.7016 C   0  0  2  0  0  0  0  0  0  0  0  0
   19.3861  -15.0979  -18.7393 N   0  0  0  0  0  0  0  0  0  0  0  0
   20.2983  -13.0652  -17.8606 C   0  0  0  0  0  0  0  0  0  0  0  0
   20.5987  -13.6749  -16.7972 O   0  0  0  0  0  0  0  0  0  0  0  0
   23.5400  -11.9214  -19.4946 C   0  0  0  0  0  0  0  0  0  0  0  0
   22.8735  -10.6852  -18.9688 C   0  0  2  0  0  0  0  0  0  0  0  0
   23.8928   -9.6418  -18.6473 C   0  0  0  0  0  0  0  0  0  0  0  0
   21.9632  -11.0658  -17.7935 C   0  0  2  0  0  0  0  0  0  0  0  0
   20.8844  -11.9141  -18.3064 N   0  0  0  0  0  0  0  0  0  0  0  0
   21.2638   -9.8343  -17.3090 C   0  0  0  0  0  0  0  0  0  0  0  0
   20.4496   -9.2745  -18.0757 O   0  0  0  0  0  0  0  0  0  0  0  0
   21.5078   -9.3303  -16.0437 N   0  0  0  0  0  0  0  0  0  0  0  0
   22.5479   -9.8059  -15.1084 C   0  0  0  0  0  0  0  0  0  0  0  0
   22.1580   -9.2905  -13.7659 C   0  0  0  0  0  0  0  0  0  0  0  0
   20.7790   -8.6755  -13.9613 C   0  0  0  0  0  0  0  0  0  0  0  0
   20.8749   -8.2039  -15.3972 C   0  0  1  0  0  0  0  0  0  0  0  0
   21.8978   -7.1020  -15.4299 C   0  0  0  0  0  0  0  0  0  0  0  0
   21.6799   -5.8608  -14.8971 O   0  0  0  0  0  0  0  0  0  0  0  0
   23.0128   -7.3351  -15.9766 O   0  0  0  0  0  0  0  0  0  0  0  0
  2  1  1  6
  2  4  1  0
  3  2  1  0
  4  6  1  0
  4  5  1  1
  6  7  2  0
  9  8  1  1
  9 11  1  0
 10  9  1  0
 11 13  1  0
 12  6  1  0
 11 12  1  6
 13 14  2  0
 13 15  1  0
 15 16  1  0
 15 19  1  0
 16 17  1  0
 17 18  1  0
 19 18  1  0
 19 20  1  1
 20 21  1  0
 22 20  2  0
M  END
$$$$
