TVP.pdb
     RDKit          3D

 22 22  0  0  1  0  0  0  0  0999 V2000
   26.2363  -24.0539  -16.2419 C   0  0  0  0  0  0  0  0  0  0  0  0
   27.4599  -23.9855  -17.1304 C   0  0  1  0  0  0  0  0  0  0  0  0
   27.2390  -24.6343  -18.3445 O   0  0  0  0  0  0  0  0  0  0  0  0
   27.7375  -22.5175  -17.3742 C   0  0  2  0  0  0  0  0  0  0  0  0
   28.8905  -22.3073  -18.1866 N   0  0  0  0  0  0  0  0  0  0  0  0
   27.9639  -21.8207  -16.0324 C   0  0  0  0  0  0  0  0  0  0  0  0
   29.1149  -21.9431  -15.5293 O   0  0  0  0  0  0  0  0  0  0  0  0
   25.3487  -18.8385  -15.5481 C   0  0  0  0  0  0  0  0  0  0  0  0
   26.4951  -18.9072  -14.5838 C   0  0  2  0  0  0  0  0  0  0  0  0
   27.6775  -18.1750  -15.1288 C   0  0  0  0  0  0  0  0  0  0  0  0
   26.7668  -20.3753  -14.2292 C   0  0  2  0  0  0  0  0  0  0  0  0
   26.9266  -21.1255  -15.4774 N   0  0  0  0  0  0  0  0  0  0  0  0
   25.5351  -20.9552  -13.6069 C   0  0  0  0  0  0  0  0  0  0  0  0
   24.7667  -21.6280  -14.3287 O   0  0  0  0  0  0  0  0  0  0  0  0
   25.2555  -20.7562  -12.2665 N   0  0  0  0  0  0  0  0  0  0  0  0
   25.9446  -19.8045  -11.3706 C   0  0  0  0  0  0  0  0  0  0  0  0
   25.6217  -20.2411   -9.9832 C   0  0  0  0  0  0  0  0  0  0  0  0
   24.8885  -21.5658  -10.1437 C   0  0  0  0  0  0  0  0  0  0  0  0
   24.2039  -21.3561  -11.4781 C   0  0  1  0  0  0  0  0  0  0  0  0
   23.1850  -20.2675  -11.2826 C   0  0  0  0  0  0  0  0  0  0  0  0
   23.3868  -18.9725  -11.6753 O   0  0  0  0  0  0  0  0  0  0  0  0
   22.0891  -20.5646  -10.7283 O   0  0  0  0  0  0  0  0  0  0  0  0
  2  1  1  1
  2  4  1  0
  3  2  1  0
  4  6  1  0
  4  5  1  6
  6  7  2  0
  9  8  1  6
  9 11  1  0
 10  9  1  0
 11 13  1  0
 12  6  1  0
 11 12  1  6
 13 14  2  0
 13 15  1  0
 15 16  1  0
 15 19  1  0
 16 17  1  0
 17 18  1  0
 19 18  1  0
 19 20  1  1
 20 21  1  0
 22 20  2  0
M  END
$$$$
