TVP.pdb
     RDKit          3D

 22 22  0  0  1  0  0  0  0  0999 V2000
   27.7841  -22.3315  -19.1064 C   0  0  0  0  0  0  0  0  0  0  0  0
   27.1560  -21.7971  -17.8371 C   0  0  1  0  0  0  0  0  0  0  0  0
   26.0502  -20.9964  -18.1196 O   0  0  0  0  0  0  0  0  0  0  0  0
   26.7262  -23.0007  -17.0257 C   0  0  2  0  0  0  0  0  0  0  0  0
   25.8722  -22.6499  -15.9389 N   0  0  0  0  0  0  0  0  0  0  0  0
   27.9665  -23.6902  -16.4567 C   0  0  0  0  0  0  0  0  0  0  0  0
   28.4726  -23.1635  -15.4275 O   0  0  0  0  0  0  0  0  0  0  0  0
   28.1085  -27.4621  -15.8514 C   0  0  0  0  0  0  0  0  0  0  0  0
   29.0509  -27.1566  -16.9772 C   0  0  2  0  0  0  0  0  0  0  0  0
   30.1307  -28.1864  -17.0452 C   0  0  0  0  0  0  0  0  0  0  0  0
   29.5576  -25.7154  -16.8320 C   0  0  2  0  0  0  0  0  0  0  0  0
   28.4357  -24.8082  -17.0868 N   0  0  0  0  0  0  0  0  0  0  0  0
   30.5203  -25.4303  -17.9420 C   0  0  0  0  0  0  0  0  0  0  0  0
   30.0605  -25.2154  -19.0850 O   0  0  0  0  0  0  0  0  0  0  0  0
   31.8840  -25.4005  -17.7093 N   0  0  0  0  0  0  0  0  0  0  0  0
   32.5576  -25.8069  -16.4587 C   0  0  0  0  0  0  0  0  0  0  0  0
   33.9203  -25.2071  -16.5141 C   0  0  0  0  0  0  0  0  0  0  0  0
   33.9098  -24.3092  -17.7437 C   0  0  0  0  0  0  0  0  0  0  0  0
   32.9373  -25.0530  -18.6350 C   0  0  1  0  0  0  0  0  0  0  0  0
   33.5885  -26.3577  -19.0025 C   0  0  0  0  0  0  0  0  0  0  0  0
   34.5204  -26.4765  -19.9972 O   0  0  0  0  0  0  0  0  0  0  0  0
   33.2580  -27.3945  -18.3604 O   0  0  0  0  0  0  0  0  0  0  0  0
  2  1  1  6
  2  4  1  0
  3  2  1  0
  4  6  1  0
  4  5  1  1
  6  7  2  0
  9  8  1  1
  9 11  1  0
 10  9  1  0
 11 13  1  0
 12  6  1  0
 11 12  1  6
 13 14  2  0
 13 15  1  0
 15 16  1  0
 15 19  1  0
 16 17  1  0
 17 18  1  0
 19 18  1  0
 19 20  1  1
 20 21  1  0
 22 20  2  0
M  END
$$$$
