TVP.pdb
     RDKit          3D

 22 22  0  0  1  0  0  0  0  0999 V2000
   26.3837  -24.5017  -16.8144 C   0  0  0  0  0  0  0  0  0  0  0  0
   27.7739  -25.0024  -17.1429 C   0  0  1  0  0  0  0  0  0  0  0  0
   27.7673  -25.7927  -18.2914 O   0  0  0  0  0  0  0  0  0  0  0  0
   28.6348  -23.7774  -17.3659 C   0  0  2  0  0  0  0  0  0  0  0  0
   30.0048  -24.1056  -17.5874 N   0  0  0  0  0  0  0  0  0  0  0  0
   28.5518  -22.8756  -16.1341 C   0  0  0  0  0  0  0  0  0  0  0  0
   29.3566  -23.1376  -15.1978 O   0  0  0  0  0  0  0  0  0  0  0  0
   28.4922  -19.1324  -16.5496 C   0  0  0  0  0  0  0  0  0  0  0  0
   27.1655  -19.4878  -15.9478 C   0  0  2  0  0  0  0  0  0  0  0  0
   26.6393  -18.3476  -15.1390 C   0  0  0  0  0  0  0  0  0  0  0  0
   27.3015  -20.8053  -15.1727 C   0  0  2  0  0  0  0  0  0  0  0  0
   27.6308  -21.8662  -16.1280 N   0  0  0  0  0  0  0  0  0  0  0  0
   25.9560  -21.1923  -14.6431 C   0  0  0  0  0  0  0  0  0  0  0  0
   25.1196  -21.6695  -15.4410 O   0  0  0  0  0  0  0  0  0  0  0  0
   25.6466  -21.0309  -13.3041 N   0  0  0  0  0  0  0  0  0  0  0  0
   26.4287  -20.2508  -12.3230 C   0  0  0  0  0  0  0  0  0  0  0  0
   25.9778  -20.7122  -10.9800 C   0  0  0  0  0  0  0  0  0  0  0  0
   25.0606  -21.8962  -11.2537 C   0  0  0  0  0  0  0  0  0  0  0  0
   24.4799  -21.5061  -12.5968 C   0  0  1  0  0  0  0  0  0  0  0  0
   23.6299  -20.2864  -12.3700 C   0  0  0  0  0  0  0  0  0  0  0  0
   22.3420  -20.3449  -11.9119 O   0  0  0  0  0  0  0  0  0  0  0  0
   24.1308  -19.1526  -12.6148 O   0  0  0  0  0  0  0  0  0  0  0  0
  2  1  1  6
  2  4  1  0
  3  2  1  0
  4  6  1  0
  4  5  1  1
  6  7  2  0
  9  8  1  1
  9 11  1  0
 10  9  1  0
 11 13  1  0
 12  6  1  0
 11 12  1  6
 13 14  2  0
 13 15  1  0
 15 16  1  0
 15 19  1  0
 16 17  1  0
 17 18  1  0
 19 18  1  0
 19 20  1  1
 20 21  1  0
 22 20  2  0
M  END
$$$$
