TVP.pdb
     RDKit          3D

 22 22  0  0  1  0  0  0  0  0999 V2000
   23.0623  -25.0816  -15.2930 C   0  0  0  0  0  0  0  0  0  0  0  0
   24.3826  -24.5418  -14.7865 C   0  0  1  0  0  0  0  0  0  0  0  0
   25.4083  -25.4693  -14.9635 O   0  0  0  0  0  0  0  0  0  0  0  0
   24.6758  -23.2909  -15.5872 C   0  0  2  0  0  0  0  0  0  0  0  0
   24.9880  -23.5751  -16.9493 N   0  0  0  0  0  0  0  0  0  0  0  0
   25.8684  -22.5651  -14.9641 C   0  0  0  0  0  0  0  0  0  0  0  0
   27.0062  -22.8809  -15.4096 O   0  0  0  0  0  0  0  0  0  0  0  0
   24.5655  -19.2319  -13.1802 C   0  0  0  0  0  0  0  0  0  0  0  0
   26.0483  -19.3246  -13.3841 C   0  0  2  0  0  0  0  0  0  0  0  0
   26.4285  -18.7439  -14.7068 C   0  0  0  0  0  0  0  0  0  0  0  0
   26.4944  -20.7784  -13.1782 C   0  0  2  0  0  0  0  0  0  0  0  0
   25.6289  -21.6413  -13.9862 N   0  0  0  0  0  0  0  0  0  0  0  0
   26.1964  -21.1771  -11.7666 C   0  0  0  0  0  0  0  0  0  0  0  0
   25.1501  -21.8241  -11.5415 O   0  0  0  0  0  0  0  0  0  0  0  0
   27.0584  -20.8429  -10.7372 N   0  0  0  0  0  0  0  0  0  0  0  0
   28.2314  -19.9510  -10.8457 C   0  0  0  0  0  0  0  0  0  0  0  0
   29.0720  -20.2325   -9.6482 C   0  0  0  0  0  0  0  0  0  0  0  0
   28.4189  -21.4332   -8.9773 C   0  0  0  0  0  0  0  0  0  0  0  0
   26.9661  -21.2126   -9.3436 C   0  0  1  0  0  0  0  0  0  0  0  0
   26.5182  -19.9660   -8.6316 C   0  0  0  0  0  0  0  0  0  0  0  0
   26.1928  -19.9375   -7.3030 O   0  0  0  0  0  0  0  0  0  0  0  0
   26.4390  -18.8929   -9.2939 O   0  0  0  0  0  0  0  0  0  0  0  0
  2  1  1  6
  2  4  1  0
  3  2  1  0
  4  6  1  0
  4  5  1  6
  6  7  2  0
  9  8  1  6
  9 11  1  0
 10  9  1  0
 11 13  1  0
 12  6  1  0
 11 12  1  6
 13 14  2  0
 13 15  1  0
 15 16  1  0
 15 19  1  0
 16 17  1  0
 17 18  1  0
 19 18  1  0
 19 20  1  1
 20 21  1  0
 22 20  2  0
M  END
$$$$
