TVP.pdb
     RDKit          3D

 22 22  0  0  1  0  0  0  0  0999 V2000
   21.3817  -14.8474  -19.9508 C   0  0  0  0  0  0  0  0  0  0  0  0
   21.5160  -13.7940  -18.8721 C   0  0  1  0  0  0  0  0  0  0  0  0
   20.2721  -13.4509  -18.3441 O   0  0  0  0  0  0  0  0  0  0  0  0
   22.3881  -14.3914  -17.7885 C   0  0  2  0  0  0  0  0  0  0  0  0
   21.8042  -15.5484  -17.1934 N   0  0  0  0  0  0  0  0  0  0  0  0
   22.6095  -13.3492  -16.6921 C   0  0  0  0  0  0  0  0  0  0  0  0
   21.8727  -13.4497  -15.6723 O   0  0  0  0  0  0  0  0  0  0  0  0
   26.2758  -12.4129  -15.8156 C   0  0  0  0  0  0  0  0  0  0  0  0
   25.5915  -11.1745  -16.3125 C   0  0  2  0  0  0  0  0  0  0  0  0
   26.2189   -9.9582  -15.7141 C   0  0  0  0  0  0  0  0  0  0  0  0
   24.0827  -11.2984  -16.0614 C   0  0  2  0  0  0  0  0  0  0  0  0
   23.5707  -12.3971  -16.8842 N   0  0  0  0  0  0  0  0  0  0  0  0
   23.4031  -10.0821  -16.6082 C   0  0  0  0  0  0  0  0  0  0  0  0
   23.4096   -9.9053  -17.8462 O   0  0  0  0  0  0  0  0  0  0  0  0
   22.7792   -9.1783  -15.7664 N   0  0  0  0  0  0  0  0  0  0  0  0
   22.8636   -9.1689  -14.2913 C   0  0  0  0  0  0  0  0  0  0  0  0
   21.7247   -8.3311  -13.8214 C   0  0  0  0  0  0  0  0  0  0  0  0
   20.9074   -8.0340  -15.0712 C   0  0  0  0  0  0  0  0  0  0  0  0
   21.9918   -8.0223  -16.1282 C   0  0  1  0  0  0  0  0  0  0  0  0
   22.8721   -6.8374  -15.8409 C   0  0  0  0  0  0  0  0  0  0  0  0
   22.5363   -5.5546  -16.1782 O   0  0  0  0  0  0  0  0  0  0  0  0
   23.9758   -7.0375  -15.2593 O   0  0  0  0  0  0  0  0  0  0  0  0
  2  1  1  6
  2  4  1  0
  3  2  1  0
  4  6  1  0
  4  5  1  1
  6  7  2  0
  9  8  1  1
  9 11  1  0
 10  9  1  0
 11 13  1  0
 12  6  1  0
 11 12  1  6
 13 14  2  0
 13 15  1  0
 15 16  1  0
 15 19  1  0
 16 17  1  0
 17 18  1  0
 19 18  1  0
 19 20  1  1
 20 21  1  0
 22 20  2  0
M  END
$$$$
