TVP.pdb
     RDKit          3D

 22 22  0  0  1  0  0  0  0  0999 V2000
   28.7137  -19.5265  -15.8332 C   0  0  0  0  0  0  0  0  0  0  0  0
   28.1171  -18.9561  -14.5644 C   0  0  1  0  0  0  0  0  0  0  0  0
   28.0734  -17.5634  -14.6089 O   0  0  0  0  0  0  0  0  0  0  0  0
   26.7130  -19.5120  -14.4572 C   0  0  2  0  0  0  0  0  0  0  0  0
   25.8471  -19.0077  -15.4718 N   0  0  0  0  0  0  0  0  0  0  0  0
   26.1271  -19.1343  -13.0966 C   0  0  0  0  0  0  0  0  0  0  0  0
   25.6933  -17.9543  -12.9861 O   0  0  0  0  0  0  0  0  0  0  0  0
   23.4503  -20.9169  -11.6453 C   0  0  0  0  0  0  0  0  0  0  0  0
   24.5289  -21.1941  -10.6410 C   0  0  2  0  0  0  0  0  0  0  0  0
   23.9399  -21.3630   -9.2788 C   0  0  0  0  0  0  0  0  0  0  0  0
   25.5995  -20.0989  -10.7376 C   0  0  2  0  0  0  0  0  0  0  0  0
   26.1118  -20.0796  -12.1100 N   0  0  0  0  0  0  0  0  0  0  0  0
   26.7789  -20.5056   -9.9106 C   0  0  0  0  0  0  0  0  0  0  0  0
   27.5315  -21.4018  -10.3516 O   0  0  0  0  0  0  0  0  0  0  0  0
   27.0333  -19.9027   -8.6914 N   0  0  0  0  0  0  0  0  0  0  0  0
   26.1264  -18.9821   -7.9752 C   0  0  0  0  0  0  0  0  0  0  0  0
   26.9711  -18.2712   -6.9747 C   0  0  0  0  0  0  0  0  0  0  0  0
   28.3997  -18.6944   -7.2880 C   0  0  0  0  0  0  0  0  0  0  0  0
   28.1744  -20.0921   -7.8258 C   0  0  1  0  0  0  0  0  0  0  0  0
   27.6695  -20.9268   -6.6813 C   0  0  0  0  0  0  0  0  0  0  0  0
   28.4593  -21.3223   -5.6364 O   0  0  0  0  0  0  0  0  0  0  0  0
   26.4563  -21.2794   -6.6860 O   0  0  0  0  0  0  0  0  0  0  0  0
  2  1  1  6
  2  4  1  0
  3  2  1  0
  4  6  1  0
  4  5  1  6
  6  7  2  0
  9  8  1  6
  9 11  1  0
 10  9  1  0
 11 13  1  0
 12  6  1  0
 11 12  1  6
 13 14  2  0
 13 15  1  0
 15 16  1  0
 15 19  1  0
 16 17  1  0
 17 18  1  0
 19 18  1  0
 19 20  1  1
 20 21  1  0
 22 20  2  0
M  END
$$$$
