TVP.pdb
     RDKit          3D

 22 22  0  0  1  0  0  0  0  0999 V2000
   22.4477  -12.5564  -20.6154 C   0  0  0  0  0  0  0  0  0  0  0  0
   21.6645  -11.9302  -19.4815 C   0  0  1  0  0  0  0  0  0  0  0  0
   20.2913  -12.0369  -19.6972 O   0  0  0  0  0  0  0  0  0  0  0  0
   22.0478  -12.6801  -18.2235 C   0  0  2  0  0  0  0  0  0  0  0  0
   21.7395  -14.0702  -18.3011 N   0  0  0  0  0  0  0  0  0  0  0  0
   21.2893  -12.0871  -17.0359 C   0  0  0  0  0  0  0  0  0  0  0  0
   20.2519  -12.7075  -16.6728 O   0  0  0  0  0  0  0  0  0  0  0  0
   22.9330  -11.1069  -13.8143 C   0  0  0  0  0  0  0  0  0  0  0  0
   22.4842   -9.8147  -14.4286 C   0  0  2  0  0  0  0  0  0  0  0  0
   22.2052   -8.8030  -13.3656 C   0  0  0  0  0  0  0  0  0  0  0  0
   21.3029  -10.0883  -15.3691 C   0  0  2  0  0  0  0  0  0  0  0  0
   21.7744  -10.9480  -16.4577 N   0  0  0  0  0  0  0  0  0  0  0  0
   20.9234   -8.8097  -16.0485 C   0  0  0  0  0  0  0  0  0  0  0  0
   21.7346   -8.3030  -16.8541 O   0  0  0  0  0  0  0  0  0  0  0  0
   19.7044   -8.2058  -15.7957 N   0  0  0  0  0  0  0  0  0  0  0  0
   18.7104   -8.6477  -14.7957 C   0  0  0  0  0  0  0  0  0  0  0  0
   17.4276   -7.9925  -15.1764 C   0  0  0  0  0  0  0  0  0  0  0  0
   17.7037   -7.3269  -16.5176 C   0  0  0  0  0  0  0  0  0  0  0  0
   19.1742   -6.9938  -16.3764 C   0  0  1  0  0  0  0  0  0  0  0  0
   19.2870   -5.9542  -15.2956 C   0  0  0  0  0  0  0  0  0  0  0  0
   19.1039   -4.6169  -15.5198 O   0  0  0  0  0  0  0  0  0  0  0  0
   19.5644   -6.3356  -14.1234 O   0  0  0  0  0  0  0  0  0  0  0  0
  2  1  1  6
  2  4  1  0
  3  2  1  0
  4  6  1  0
  4  5  1  6
  6  7  2  0
  9  8  1  1
  9 11  1  0
 10  9  1  0
 11 13  1  0
 12  6  1  0
 11 12  1  6
 13 14  2  0
 13 15  1  0
 15 16  1  0
 15 19  1  0
 16 17  1  0
 17 18  1  0
 19 18  1  0
 19 20  1  1
 20 21  1  0
 22 20  2  0
M  END
$$$$
