TVP.pdb
     RDKit          3D

 22 22  0  0  1  0  0  0  0  0999 V2000
   23.5772  -26.7385  -16.6509 C   0  0  0  0  0  0  0  0  0  0  0  0
   24.0840  -25.6812  -15.6936 C   0  0  1  0  0  0  0  0  0  0  0  0
   24.5755  -26.2551  -14.5219 O   0  0  0  0  0  0  0  0  0  0  0  0
   25.1946  -24.9434  -16.4105 C   0  0  2  0  0  0  0  0  0  0  0  0
   26.2870  -25.7954  -16.7483 N   0  0  0  0  0  0  0  0  0  0  0  0
   25.7195  -23.8274  -15.5070 C   0  0  0  0  0  0  0  0  0  0  0  0
   26.8950  -23.9717  -15.0708 O   0  0  0  0  0  0  0  0  0  0  0  0
   25.5830  -20.2650  -16.5259 C   0  0  0  0  0  0  0  0  0  0  0  0
   24.6462  -20.3552  -15.3585 C   0  0  2  0  0  0  0  0  0  0  0  0
   24.5704  -19.0423  -14.6501 C   0  0  0  0  0  0  0  0  0  0  0  0
   25.0641  -21.5330  -14.4679 C   0  0  2  0  0  0  0  0  0  0  0  0
   24.8985  -22.7691  -15.2366 N   0  0  0  0  0  0  0  0  0  0  0  0
   24.0794  -21.6618  -13.3480 C   0  0  0  0  0  0  0  0  0  0  0  0
   23.0149  -22.2819  -13.5630 O   0  0  0  0  0  0  0  0  0  0  0  0
   24.3416  -21.1130  -12.1052 N   0  0  0  0  0  0  0  0  0  0  0  0
   25.4822  -20.2359  -11.7695 C   0  0  0  0  0  0  0  0  0  0  0  0
   25.5923  -20.2580  -10.2838 C   0  0  0  0  0  0  0  0  0  0  0  0
   24.5971  -21.3160   -9.8270 C   0  0  0  0  0  0  0  0  0  0  0  0
   23.5406  -21.2023  -10.9061 C   0  0  1  0  0  0  0  0  0  0  0  0
   22.9020  -19.8493  -10.7544 C   0  0  0  0  0  0  0  0  0  0  0  0
   21.9051  -19.5875   -9.8546 O   0  0  0  0  0  0  0  0  0  0  0  0
   23.3068  -18.9088  -11.4947 O   0  0  0  0  0  0  0  0  0  0  0  0
  2  1  1  6
  2  4  1  0
  3  2  1  0
  4  6  1  0
  4  5  1  1
  6  7  2  0
  9  8  1  6
  9 11  1  0
 10  9  1  0
 11 13  1  0
 12  6  1  0
 11 12  1  6
 13 14  2  0
 13 15  1  0
 15 16  1  0
 15 19  1  0
 16 17  1  0
 17 18  1  0
 19 18  1  0
 19 20  1  1
 20 21  1  0
 22 20  2  0
M  END
$$$$
