TVP.pdb
     RDKit          3D

 22 22  0  0  1  0  0  0  0  0999 V2000
   18.7299  -10.0414  -17.8160 C   0  0  0  0  0  0  0  0  0  0  0  0
   18.6191  -11.4537  -17.2825 C   0  0  1  0  0  0  0  0  0  0  0  0
   18.0183  -12.2993  -18.2139 O   0  0  0  0  0  0  0  0  0  0  0  0
   20.0303  -11.9217  -16.9974 C   0  0  2  0  0  0  0  0  0  0  0  0
   20.0849  -13.2976  -16.6267 N   0  0  0  0  0  0  0  0  0  0  0  0
   20.6107  -11.0936  -15.8508 C   0  0  0  0  0  0  0  0  0  0  0  0
   20.1048  -11.2900  -14.7113 O   0  0  0  0  0  0  0  0  0  0  0  0
   24.1708   -9.4319  -17.0218 C   0  0  0  0  0  0  0  0  0  0  0  0
   23.8811   -9.5393  -15.5544 C   0  0  2  0  0  0  0  0  0  0  0  0
   24.3651  -10.8489  -15.0235 C   0  0  0  0  0  0  0  0  0  0  0  0
   22.3893   -9.2705  -15.3152 C   0  0  2  0  0  0  0  0  0  0  0  0
   21.6182  -10.2135  -16.1292 N   0  0  0  0  0  0  0  0  0  0  0  0
   22.0458   -7.9287  -15.8826 C   0  0  0  0  0  0  0  0  0  0  0  0
   21.7256   -7.8597  -17.0895 O   0  0  0  0  0  0  0  0  0  0  0  0
   22.0770   -6.7940  -15.0914 N   0  0  0  0  0  0  0  0  0  0  0  0
   22.5690   -6.7222  -13.7001 C   0  0  0  0  0  0  0  0  0  0  0  0
   22.0169   -5.4589  -13.1352 C   0  0  0  0  0  0  0  0  0  0  0  0
   21.0593   -4.9341  -14.1961 C   0  0  0  0  0  0  0  0  0  0  0  0
   21.7222   -5.4426  -15.4592 C   0  0  1  0  0  0  0  0  0  0  0  0
   23.0298   -4.7121  -15.5934 C   0  0  0  0  0  0  0  0  0  0  0  0
   23.1355   -3.4559  -16.1251 O   0  0  0  0  0  0  0  0  0  0  0  0
   24.0817   -5.2877  -15.1952 O   0  0  0  0  0  0  0  0  0  0  0  0
  2  1  1  6
  2  4  1  0
  3  2  1  0
  4  6  1  0
  4  5  1  1
  6  7  2  0
  9  8  1  6
  9 11  1  0
 10  9  1  0
 11 13  1  0
 12  6  1  0
 11 12  1  6
 13 14  2  0
 13 15  1  0
 15 16  1  0
 15 19  1  0
 16 17  1  0
 17 18  1  0
 19 18  1  0
 19 20  1  1
 20 21  1  0
 22 20  2  0
M  END
$$$$
