TVP.pdb
     RDKit          3D

 22 22  0  0  1  0  0  0  0  0999 V2000
   21.8058  -17.9214  -16.4056 C   0  0  0  0  0  0  0  0  0  0  0  0
   22.2346  -18.9662  -15.3977 C   0  0  1  0  0  0  0  0  0  0  0  0
   21.1510  -19.7355  -14.9762 O   0  0  0  0  0  0  0  0  0  0  0  0
   23.2521  -19.8465  -16.0917 C   0  0  2  0  0  0  0  0  0  0  0  0
   22.6664  -20.6679  -17.0996 N   0  0  0  0  0  0  0  0  0  0  0  0
   23.9152  -20.7568  -15.0578 C   0  0  0  0  0  0  0  0  0  0  0  0
   23.4074  -21.9040  -14.9198 O   0  0  0  0  0  0  0  0  0  0  0  0
   27.6384  -19.2754  -13.9999 C   0  0  0  0  0  0  0  0  0  0  0  0
   27.3080  -20.7213  -13.7786 C   0  0  2  0  0  0  0  0  0  0  0  0
   27.6373  -21.5220  -14.9958 C   0  0  0  0  0  0  0  0  0  0  0  0
   25.8490  -20.8390  -13.3179 C   0  0  2  0  0  0  0  0  0  0  0  0
   24.9918  -20.2785  -14.3654 N   0  0  0  0  0  0  0  0  0  0  0  0
   25.6401  -19.9305  -12.1468 C   0  0  0  0  0  0  0  0  0  0  0  0
   25.3784  -18.7279  -12.3686 O   0  0  0  0  0  0  0  0  0  0  0  0
   25.7295  -20.4093  -10.8517 N   0  0  0  0  0  0  0  0  0  0  0  0
   26.2541  -21.7315  -10.4520 C   0  0  0  0  0  0  0  0  0  0  0  0
   25.7604  -21.9660   -9.0659 C   0  0  0  0  0  0  0  0  0  0  0  0
   24.7994  -20.8185   -8.7867 C   0  0  0  0  0  0  0  0  0  0  0  0
   25.4158  -19.7168   -9.6232 C   0  0  1  0  0  0  0  0  0  0  0  0
   26.7457  -19.3869   -9.0034 C   0  0  0  0  0  0  0  0  0  0  0  0
   26.8809  -18.5947   -7.8961 O   0  0  0  0  0  0  0  0  0  0  0  0
   27.7887  -19.8655   -9.5321 O   0  0  0  0  0  0  0  0  0  0  0  0
  2  1  1  6
  2  4  1  0
  3  2  1  0
  4  6  1  0
  4  5  1  6
  6  7  2  0
  9  8  1  6
  9 11  1  0
 10  9  1  0
 11 13  1  0
 12  6  1  0
 11 12  1  6
 13 14  2  0
 13 15  1  0
 15 16  1  0
 15 19  1  0
 16 17  1  0
 17 18  1  0
 19 18  1  0
 19 20  1  1
 20 21  1  0
 22 20  2  0
M  END
$$$$
