WLE.pdb
     RDKit          3D

 32 33  0  0  1  0  0  0  0  0999 V2000
    6.5882  -18.5379   24.7516 N   0  0  0  0  0  0  0  0  0  0  0  0
    6.8963  -17.1547   24.4655 C   0  0  1  0  0  0  0  0  0  0  0  0
    7.8399  -16.5482   25.4527 C   0  0  0  0  0  0  0  0  0  0  0  0
    7.2666  -15.2578   25.9391 C   0  0  0  0  0  0  0  0  0  0  0  0
    5.9613  -14.9978   26.2759 C   0  0  0  0  0  0  0  0  0  0  0  0
    5.8765  -13.6990   26.6646 N   0  0  0  0  0  0  0  0  0  0  0  0
    7.0656  -13.0944   26.5990 C   0  0  0  0  0  0  0  0  0  0  0  0
    7.5082  -11.8057   26.8758 C   0  0  0  0  0  0  0  0  0  0  0  0
    8.8183  -11.4530   26.7106 C   0  0  0  0  0  0  0  0  0  0  0  0
    9.6637  -12.4491   26.2560 C   0  0  0  0  0  0  0  0  0  0  0  0
    9.2829  -13.7269   25.9697 C   0  0  0  0  0  0  0  0  0  0  0  0
    7.9552  -14.0758   26.1395 C   0  0  0  0  0  0  0  0  0  0  0  0
    7.4005  -16.9338   23.0928 C   0  0  0  0  0  0  0  0  0  0  0  0
    7.7428  -17.9420   22.4293 O   0  0  0  0  0  0  0  0  0  0  0  0
    7.5067  -12.2188   19.1410 C   0  0  0  0  0  0  0  0  0  0  0  0
    7.9118  -13.7190   19.2939 C   0  0  1  0  0  0  0  0  0  0  0  0
    9.3552  -13.7468   18.9047 C   0  0  0  0  0  0  0  0  0  0  0  0
    7.5997  -14.0542   20.7079 C   0  0  0  0  0  0  0  0  0  0  0  0
    7.8281  -15.4399   21.1739 C   0  0  2  0  0  0  0  0  0  0  0  0
    7.4948  -15.6505   22.5471 N   0  0  0  0  0  0  0  0  0  0  0  0
    9.2500  -15.8464   20.8898 C   0  0  0  0  0  0  0  0  0  0  0  0
    9.5783  -16.1763   19.7177 O   0  0  0  0  0  0  0  0  0  0  0  0
   10.2444  -15.8750   21.8880 N   0  0  0  0  0  0  0  0  0  0  0  0
   11.6206  -16.2047   21.5861 C   0  0  1  0  0  0  0  0  0  0  0  0
   12.3952  -15.0886   20.9654 C   0  0  0  0  0  0  0  0  0  0  0  0
   13.8419  -15.4484   20.7335 C   0  0  0  0  0  0  0  0  0  0  0  0
   14.4554  -14.4230   19.8617 C   0  0  0  0  0  0  0  0  0  0  0  0
   13.7126  -13.6654   19.1455 O   0  0  0  0  0  0  0  0  0  0  0  0
   12.3061  -16.7445   22.8060 C   0  0  0  0  0  0  0  0  0  0  0  0
   11.7163  -16.8463   24.0493 O   0  0  0  0  0  0  0  0  0  0  0  0
   15.8231  -14.1982   19.7476 O   0  0  0  0  0  0  0  0  0  0  0  0
   13.4983  -17.1355   22.7032 O   0  0  0  0  0  0  0  0  0  0  0  0
  2  1  1  1
  3  4  1  0
  3  2  1  0
  4  5  2  0
  6  5  1  0
  7  6  1  0
  8  7  2  0
  9  8  1  0
 10  9  2  0
 10 11  1  0
 11 12  2  0
 12  7  1  0
 12  4  1  0
 13  2  1  0
 13 14  2  0
 16 15  1  1
 16 18  1  0
 17 16  1  0
 19 18  1  1
 19 20  1  0
 19 21  1  0
 20 13  1  0
 21 23  1  0
 21 22  2  0
 23 24  1  0
 24 25  1  1
 24 29  1  0
 26 25  1  0
 27 26  1  0
 28 27  2  0
 29 32  2  0
 29 30  1  0
 31 27  1  0
M  END
$$$$
