WLE.pdb
     RDKit          3D

 32 33  0  0  1  0  0  0  0  0999 V2000
    6.2218  -17.8654   24.3841 N   0  0  0  0  0  0  0  0  0  0  0  0
    6.9743  -16.6747   24.0583 C   0  0  1  0  0  0  0  0  0  0  0  0
    7.8392  -16.2025   25.1816 C   0  0  0  0  0  0  0  0  0  0  0  0
    7.1212  -15.1235   25.9236 C   0  0  0  0  0  0  0  0  0  0  0  0
    5.8983  -15.2064   26.5422 C   0  0  0  0  0  0  0  0  0  0  0  0
    5.6211  -13.9959   27.0928 N   0  0  0  0  0  0  0  0  0  0  0  0
    6.6054  -13.1224   26.8648 C   0  0  0  0  0  0  0  0  0  0  0  0
    6.8070  -11.7883   27.2005 C   0  0  0  0  0  0  0  0  0  0  0  0
    7.9391  -11.1230   26.8213 C   0  0  0  0  0  0  0  0  0  0  0  0
    8.8589  -11.8543   26.0915 C   0  0  0  0  0  0  0  0  0  0  0  0
    8.7115  -13.1626   25.7357 C   0  0  0  0  0  0  0  0  0  0  0  0
    7.5629  -13.8287   26.1232 C   0  0  0  0  0  0  0  0  0  0  0  0
    7.7831  -16.8058   22.8271 C   0  0  0  0  0  0  0  0  0  0  0  0
    7.9592  -17.9594   22.3666 O   0  0  0  0  0  0  0  0  0  0  0  0
    8.2553  -12.3459   19.4642 C   0  0  0  0  0  0  0  0  0  0  0  0
    7.8309  -13.6353   20.2359 C   0  0  1  0  0  0  0  0  0  0  0  0
    6.5991  -14.0956   19.5243 C   0  0  0  0  0  0  0  0  0  0  0  0
    9.0148  -14.5306   20.1592 C   0  0  0  0  0  0  0  0  0  0  0  0
    9.0002  -15.7916   20.9333 C   0  0  2  0  0  0  0  0  0  0  0  0
    8.3347  -15.6888   22.1933 N   0  0  0  0  0  0  0  0  0  0  0  0
   10.4061  -16.3049   21.0998 C   0  0  0  0  0  0  0  0  0  0  0  0
   11.0313  -16.7381   20.0940 O   0  0  0  0  0  0  0  0  0  0  0  0
   11.0641  -16.3231   22.3459 N   0  0  0  0  0  0  0  0  0  0  0  0
   12.2032  -17.1796   22.5959 C   0  0  1  0  0  0  0  0  0  0  0  0
   13.5249  -16.5028   22.4343 C   0  0  0  0  0  0  0  0  0  0  0  0
   13.6010  -15.6776   21.1737 C   0  0  0  0  0  0  0  0  0  0  0  0
   14.9796  -15.1635   21.0218 C   0  0  0  0  0  0  0  0  0  0  0  0
   15.3394  -14.1050   21.6453 O   0  0  0  0  0  0  0  0  0  0  0  0
   12.0762  -17.8358   23.9385 C   0  0  0  0  0  0  0  0  0  0  0  0
   11.0493  -17.5954   24.8283 O   0  0  0  0  0  0  0  0  0  0  0  0
   15.9603  -15.7527   20.2310 O   0  0  0  0  0  0  0  0  0  0  0  0
   12.9572  -18.6638   24.2896 O   0  0  0  0  0  0  0  0  0  0  0  0
  2  1  1  1
  3  4  1  0
  3  2  1  0
  4  5  2  0
  6  5  1  0
  7  6  1  0
  8  7  2  0
  9  8  1  0
 10  9  2  0
 10 11  1  0
 11 12  2  0
 12  7  1  0
 12  4  1  0
 13  2  1  0
 13 14  2  0
 16 15  1  6
 16 18  1  0
 17 16  1  0
 19 18  1  1
 19 20  1  0
 19 21  1  0
 20 13  1  0
 21 23  1  0
 21 22  2  0
 23 24  1  0
 24 25  1  1
 24 29  1  0
 26 25  1  0
 27 26  1  0
 28 27  2  0
 29 32  2  0
 29 30  1  0
 31 27  1  0
M  END
$$$$
