WLE.pdb
     RDKit          3D

 32 33  0  0  1  0  0  0  0  0999 V2000
    6.4377  -18.2530   24.9009 N   0  0  0  0  0  0  0  0  0  0  0  0
    6.9934  -16.9428   24.6465 C   0  0  1  0  0  0  0  0  0  0  0  0
    7.7059  -16.3691   25.8280 C   0  0  0  0  0  0  0  0  0  0  0  0
    6.9723  -15.1534   26.2911 C   0  0  0  0  0  0  0  0  0  0  0  0
    5.6528  -15.0637   26.6595 C   0  0  0  0  0  0  0  0  0  0  0  0
    5.3990  -13.7760   27.0096 N   0  0  0  0  0  0  0  0  0  0  0  0
    6.4908  -13.0162   26.8886 C   0  0  0  0  0  0  0  0  0  0  0  0
    6.7577  -11.6699   27.1111 C   0  0  0  0  0  0  0  0  0  0  0  0
    8.0015  -11.1465   26.8948 C   0  0  0  0  0  0  0  0  0  0  0  0
    8.9647  -12.0322   26.4460 C   0  0  0  0  0  0  0  0  0  0  0  0
    8.7572  -13.3596   26.2118 C   0  0  0  0  0  0  0  0  0  0  0  0
    7.4955  -13.8816   26.4331 C   0  0  0  0  0  0  0  0  0  0  0  0
    7.8759  -16.8957   23.4606 C   0  0  0  0  0  0  0  0  0  0  0  0
    8.4677  -17.9523   23.1334 O   0  0  0  0  0  0  0  0  0  0  0  0
    7.8090  -12.5017   19.7825 C   0  0  0  0  0  0  0  0  0  0  0  0
    7.5304  -13.8743   20.4728 C   0  0  1  0  0  0  0  0  0  0  0  0
    6.7926  -14.6592   19.4357 C   0  0  0  0  0  0  0  0  0  0  0  0
    8.8719  -14.3837   20.8600 C   0  0  0  0  0  0  0  0  0  0  0  0
    8.9556  -15.6484   21.6235 C   0  0  2  0  0  0  0  0  0  0  0  0
    8.0491  -15.7197   22.7255 N   0  0  0  0  0  0  0  0  0  0  0  0
   10.3748  -15.8828   22.0694 C   0  0  0  0  0  0  0  0  0  0  0  0
   10.8466  -15.2018   23.0201 O   0  0  0  0  0  0  0  0  0  0  0  0
   11.2111  -16.8421   21.4641 N   0  0  0  0  0  0  0  0  0  0  0  0
   12.5921  -17.0113   21.8617 C   0  0  1  0  0  0  0  0  0  0  0  0
   12.9059  -18.3585   22.4254 C   0  0  0  0  0  0  0  0  0  0  0  0
   12.0503  -18.6982   23.6207 C   0  0  0  0  0  0  0  0  0  0  0  0
   12.3850  -20.0656   24.0746 C   0  0  0  0  0  0  0  0  0  0  0  0
   13.2008  -20.7823   23.3969 O   0  0  0  0  0  0  0  0  0  0  0  0
   13.5073  -16.6575   20.7275 C   0  0  0  0  0  0  0  0  0  0  0  0
   14.8816  -16.5867   20.8294 O   0  0  0  0  0  0  0  0  0  0  0  0
   11.8728  -20.6658   25.2199 O   0  0  0  0  0  0  0  0  0  0  0  0
   13.0022  -16.4073   19.6019 O   0  0  0  0  0  0  0  0  0  0  0  0
  2  1  1  1
  3  4  1  0
  3  2  1  0
  4  5  2  0
  6  5  1  0
  7  6  1  0
  8  7  2  0
  9  8  1  0
 10  9  2  0
 10 11  1  0
 11 12  2  0
 12  7  1  0
 12  4  1  0
 13  2  1  0
 13 14  2  0
 16 15  1  6
 16 18  1  0
 17 16  1  0
 19 18  1  1
 19 20  1  0
 19 21  1  0
 20 13  1  0
 21 23  1  0
 21 22  2  0
 23 24  1  0
 24 25  1  6
 24 29  1  0
 26 25  1  0
 27 26  1  0
 28 27  2  0
 29 32  2  0
 29 30  1  0
 31 27  1  0
M  END
$$$$
