WLE.pdb
     RDKit          3D

 32 33  0  0  1  0  0  0  0  0999 V2000
    6.1048  -18.4630   24.9381 N   0  0  0  0  0  0  0  0  0  0  0  0
    6.7341  -17.1938   24.6497 C   0  0  1  0  0  0  0  0  0  0  0  0
    7.6168  -16.7128   25.7552 C   0  0  0  0  0  0  0  0  0  0  0  0
    7.1876  -15.3388   26.1532 C   0  0  0  0  0  0  0  0  0  0  0  0
    5.9249  -14.8044   26.0812 C   0  0  0  0  0  0  0  0  0  0  0  0
    5.9802  -13.5280   26.5426 N   0  0  0  0  0  0  0  0  0  0  0  0
    7.2202  -13.1997   26.9145 C   0  0  0  0  0  0  0  0  0  0  0  0
    7.7967  -12.0472   27.4367 C   0  0  0  0  0  0  0  0  0  0  0  0
    9.1304  -11.9892   27.7294 C   0  0  0  0  0  0  0  0  0  0  0  0
    9.8594  -13.1371   27.4754 C   0  0  0  0  0  0  0  0  0  0  0  0
    9.3453  -14.2924   26.9649 C   0  0  0  0  0  0  0  0  0  0  0  0
    7.9945  -14.3429   26.6713 C   0  0  0  0  0  0  0  0  0  0  0  0
    7.4814  -17.1817   23.3735 C   0  0  0  0  0  0  0  0  0  0  0  0
    7.7882  -18.2883   22.8684 O   0  0  0  0  0  0  0  0  0  0  0  0
    7.7780  -12.5705   20.0317 C   0  0  0  0  0  0  0  0  0  0  0  0
    7.3830  -13.9057   20.7384 C   0  0  1  0  0  0  0  0  0  0  0  0
    6.3534  -14.5043   19.8344 C   0  0  0  0  0  0  0  0  0  0  0  0
    8.6596  -14.6540   20.8769 C   0  0  0  0  0  0  0  0  0  0  0  0
    8.6416  -15.9632   21.5664 C   0  0  2  0  0  0  0  0  0  0  0  0
    7.8365  -15.9841   22.7464 N   0  0  0  0  0  0  0  0  0  0  0  0
   10.0509  -16.4049   21.8603 C   0  0  0  0  0  0  0  0  0  0  0  0
   10.8210  -16.6973   20.9055 O   0  0  0  0  0  0  0  0  0  0  0  0
   10.5554  -16.5076   23.1722 N   0  0  0  0  0  0  0  0  0  0  0  0
   11.8957  -16.9823   23.4403 C   0  0  1  0  0  0  0  0  0  0  0  0
   12.9680  -15.9839   23.1500 C   0  0  0  0  0  0  0  0  0  0  0  0
   13.1348  -15.7284   21.6725 C   0  0  0  0  0  0  0  0  0  0  0  0
   14.3736  -14.9489   21.4593 C   0  0  0  0  0  0  0  0  0  0  0  0
   14.8116  -14.7568   20.2719 O   0  0  0  0  0  0  0  0  0  0  0  0
   11.9912  -17.5074   24.8419 C   0  0  0  0  0  0  0  0  0  0  0  0
   10.9622  -17.4659   25.7604 O   0  0  0  0  0  0  0  0  0  0  0  0
   15.1351  -14.3814   22.4753 O   0  0  0  0  0  0  0  0  0  0  0  0
   13.0757  -18.0239   25.2187 O   0  0  0  0  0  0  0  0  0  0  0  0
  2  1  1  1
  3  4  1  0
  3  2  1  0
  4  5  2  0
  6  5  1  0
  7  6  1  0
  8  7  2  0
  9  8  1  0
 10  9  2  0
 10 11  1  0
 11 12  2  0
 12  7  1  0
 12  4  1  0
 13  2  1  0
 13 14  2  0
 16 15  1  6
 16 18  1  0
 17 16  1  0
 19 18  1  1
 19 20  1  0
 19 21  1  0
 20 13  1  0
 21 23  1  0
 21 22  2  0
 23 24  1  0
 24 25  1  1
 24 29  1  0
 26 25  1  0
 27 26  1  0
 28 27  2  0
 29 32  2  0
 29 30  1  0
 31 27  1  0
M  END
$$$$
