WLE.pdb
     RDKit          3D

 32 33  0  0  1  0  0  0  0  0999 V2000
    9.6627  -16.4881   25.0762 N   0  0  0  0  0  0  0  0  0  0  0  0
    8.3525  -16.9997   24.7419 C   0  0  1  0  0  0  0  0  0  0  0  0
    7.3401  -16.7645   25.8155 C   0  0  0  0  0  0  0  0  0  0  0  0
    7.3679  -15.3211   26.1978 C   0  0  0  0  0  0  0  0  0  0  0  0
    6.4731  -14.3440   25.8375 C   0  0  0  0  0  0  0  0  0  0  0  0
    6.8748  -13.1754   26.4014 N   0  0  0  0  0  0  0  0  0  0  0  0
    7.9914  -13.3399   27.1156 C   0  0  0  0  0  0  0  0  0  0  0  0
    8.7902  -12.4845   27.8662 C   0  0  0  0  0  0  0  0  0  0  0  0
    9.9098  -12.9364   28.5068 C   0  0  0  0  0  0  0  0  0  0  0  0
   10.1922  -14.2828   28.3612 C   0  0  0  0  0  0  0  0  0  0  0  0
    9.4441  -15.1644   27.6381 C   0  0  0  0  0  0  0  0  0  0  0  0
    8.3126  -14.6990   26.9928 C   0  0  0  0  0  0  0  0  0  0  0  0
    7.8351  -16.4991   23.4500 C   0  0  0  0  0  0  0  0  0  0  0  0
    6.6841  -16.8596   23.1051 O   0  0  0  0  0  0  0  0  0  0  0  0
    8.5191  -12.3119   20.0932 C   0  0  0  0  0  0  0  0  0  0  0  0
    8.0366  -13.4631   21.0312 C   0  0  1  0  0  0  0  0  0  0  0  0
    6.5526  -13.2890   21.0861 C   0  0  0  0  0  0  0  0  0  0  0  0
    8.5350  -14.7085   20.3910 C   0  0  0  0  0  0  0  0  0  0  0  0
    8.7572  -15.9005   21.2391 C   0  0  2  0  0  0  0  0  0  0  0  0
    8.5954  -15.6538   22.6370 N   0  0  0  0  0  0  0  0  0  0  0  0
   10.1097  -16.4928   20.9432 C   0  0  0  0  0  0  0  0  0  0  0  0
   10.3535  -16.9356   19.7880 O   0  0  0  0  0  0  0  0  0  0  0  0
   11.1297  -16.5756   21.9122 N   0  0  0  0  0  0  0  0  0  0  0  0
   12.4419  -17.0977   21.5973 C   0  0  1  0  0  0  0  0  0  0  0  0
   13.4316  -16.0577   21.1851 C   0  0  0  0  0  0  0  0  0  0  0  0
   13.5382  -15.9236   19.6861 C   0  0  0  0  0  0  0  0  0  0  0  0
   14.6024  -14.9467   19.3684 C   0  0  0  0  0  0  0  0  0  0  0  0
   14.4061  -14.0578   18.4684 O   0  0  0  0  0  0  0  0  0  0  0  0
   12.9555  -17.9335   22.7318 C   0  0  0  0  0  0  0  0  0  0  0  0
   14.1501  -18.6239   22.7114 O   0  0  0  0  0  0  0  0  0  0  0  0
   15.8474  -14.9051   19.9867 O   0  0  0  0  0  0  0  0  0  0  0  0
   12.2617  -18.0189   23.7788 O   0  0  0  0  0  0  0  0  0  0  0  0
  2  1  1  1
  3  4  1  0
  3  2  1  0
  4  5  2  0
  6  5  1  0
  7  6  1  0
  8  7  2  0
  9  8  1  0
 10  9  2  0
 10 11  1  0
 11 12  2  0
 12  7  1  0
 12  4  1  0
 13  2  1  0
 13 14  2  0
 16 15  1  6
 16 18  1  0
 17 16  1  0
 19 18  1  6
 19 20  1  0
 19 21  1  0
 20 13  1  0
 21 23  1  0
 21 22  2  0
 23 24  1  0
 24 25  1  1
 24 29  1  0
 26 25  1  0
 27 26  1  0
 28 27  2  0
 29 32  2  0
 29 30  1  0
 31 27  1  0
M  END
$$$$
