QYQ.pdb
     RDKit          3D

 31 31  0  0  1  0  0  0  0  0999 V2000
   25.7453  -20.6880  -19.0264 N   0  0  0  0  0  0  0  0  0  0  0  0
   27.0741  -20.2155  -19.1283 C   0  0  0  0  0  0  0  0  0  0  0  0
   27.5714  -19.9097  -20.2358 O   0  0  0  0  0  0  0  0  0  0  0  0
   27.8867  -20.0815  -17.9050 C   0  0  0  0  0  0  0  0  0  0  0  0
   27.0217  -20.2720  -16.6718 C   0  0  0  0  0  0  0  0  0  0  0  0
   27.6711  -21.3736  -15.8497 C   0  0  2  0  0  0  0  0  0  0  0  0
   27.6269  -22.5740  -16.5963 N   0  0  0  0  0  0  0  0  0  0  0  0
   26.9468  -21.5287  -14.5583 C   0  0  0  0  0  0  0  0  0  0  0  0
   25.8022  -22.0941  -14.5541 O   0  0  0  0  0  0  0  0  0  0  0  0
   25.7110  -20.1594   -5.7718 O   0  0  0  0  0  0  0  0  0  0  0  0
   26.2234  -20.3512   -7.0399 C   0  0  0  0  0  0  0  0  0  0  0  0
   27.4627  -19.8600   -7.3922 C   0  0  0  0  0  0  0  0  0  0  0  0
   27.9259  -20.0842   -8.6830 C   0  0  0  0  0  0  0  0  0  0  0  0
   27.2072  -20.7711   -9.6215 C   0  0  0  0  0  0  0  0  0  0  0  0
   27.7152  -20.9979  -10.9715 C   0  0  0  0  0  0  0  0  0  0  0  0
   26.7362  -21.2455  -12.0556 C   0  0  2  0  0  0  0  0  0  0  0  0
   27.4782  -21.0741  -13.3403 N   0  0  0  0  0  0  0  0  0  0  0  0
   25.5712  -20.3862  -12.1650 C   0  0  0  0  0  0  0  0  0  0  0  0
   25.7035  -19.2214  -12.6839 O   0  0  0  0  0  0  0  0  0  0  0  0
   25.9544  -21.2574   -9.2365 C   0  0  0  0  0  0  0  0  0  0  0  0
   25.4741  -21.0504   -7.9705 C   0  0  0  0  0  0  0  0  0  0  0  0
   22.5795  -20.0190  -16.4111 N   0  0  0  0  0  0  0  0  0  0  0  0
   21.6338  -19.3729  -15.6056 C   0  0  0  0  0  0  0  0  0  0  0  0
   20.6327  -18.8376  -16.1493 O   0  0  0  0  0  0  0  0  0  0  0  0
   21.7471  -19.2818  -14.1172 C   0  0  0  0  0  0  0  0  0  0  0  0
   22.9879  -19.9375  -13.6167 C   0  0  0  0  0  0  0  0  0  0  0  0
   23.0989  -19.9637  -12.0948 C   0  0  2  0  0  0  0  0  0  0  0  0
   24.2811  -20.7744  -11.7308 N   0  0  0  0  0  0  0  0  0  0  0  0
   21.9208  -20.5169  -11.4281 C   0  0  0  0  0  0  0  0  0  0  0  0
   21.8980  -21.7071  -11.0473 O   0  0  0  0  0  0  0  0  0  0  0  0
   20.7628  -19.7871  -11.1687 O   0  0  0  0  0  0  0  0  0  0  0  0
  2  1  1  0
  2  4  1  0
  3  2  2  0
  5  4  1  0
  6  5  1  0
  6  7  1  6
  8  9  2  0
  8  6  1  0
 10 11  1  0
 11 12  2  0
 12 13  1  0
 14 15  1  0
 14 13  2  0
 16 15  1  1
 16 17  1  0
 17  8  1  0
 18 16  1  0
 19 18  2  0
 20 14  1  0
 21 20  2  0
 21 11  1  0
 23 24  2  0
 23 22  1  0
 25 23  1  0
 27 26  1  6
 26 25  1  0
 27 28  1  0
 28 18  1  0
 29 27  1  0
 30 29  2  0
 31 29  1  0
M  END
$$$$
