QYQ.pdb
     RDKit          3D

 31 31  0  0  1  0  0  0  0  0999 V2000
   31.6526  -23.9841  -17.4692 N   0  0  0  0  0  0  0  0  0  0  0  0
   31.3597  -23.0803  -18.5165 C   0  0  0  0  0  0  0  0  0  0  0  0
   32.2186  -22.7845  -19.3781 O   0  0  0  0  0  0  0  0  0  0  0  0
   30.0164  -22.4767  -18.5924 C   0  0  0  0  0  0  0  0  0  0  0  0
   29.1347  -23.0057  -17.4753 C   0  0  0  0  0  0  0  0  0  0  0  0
   27.9260  -22.0868  -17.4016 C   0  0  2  0  0  0  0  0  0  0  0  0
   28.3729  -20.7498  -17.5149 N   0  0  0  0  0  0  0  0  0  0  0  0
   27.2141  -22.2974  -16.1111 C   0  0  0  0  0  0  0  0  0  0  0  0
   26.7728  -23.4618  -15.8299 O   0  0  0  0  0  0  0  0  0  0  0  0
   24.7972  -20.3295   -7.7140 O   0  0  0  0  0  0  0  0  0  0  0  0
   25.3582  -20.4089   -8.9734 C   0  0  0  0  0  0  0  0  0  0  0  0
   26.6379  -20.8883   -9.1571 C   0  0  0  0  0  0  0  0  0  0  0  0
   27.1493  -20.9449  -10.4480 C   0  0  0  0  0  0  0  0  0  0  0  0
   26.4396  -20.5461  -11.5464 C   0  0  0  0  0  0  0  0  0  0  0  0
   26.9959  -20.6175  -12.8946 C   0  0  0  0  0  0  0  0  0  0  0  0
   26.3318  -21.5021  -13.8801 C   0  0  2  0  0  0  0  0  0  0  0  0
   27.0093  -21.2583  -15.1886 N   0  0  0  0  0  0  0  0  0  0  0  0
   24.9141  -21.3295  -14.1414 C   0  0  0  0  0  0  0  0  0  0  0  0
   24.5376  -20.4054  -14.9461 O   0  0  0  0  0  0  0  0  0  0  0  0
   25.1453  -20.0645  -11.3303 C   0  0  0  0  0  0  0  0  0  0  0  0
   24.6172  -19.9982  -10.0681 C   0  0  0  0  0  0  0  0  0  0  0  0
   20.8592  -25.8073  -15.1905 N   0  0  0  0  0  0  0  0  0  0  0  0
   20.0350  -24.6760  -15.1556 C   0  0  0  0  0  0  0  0  0  0  0  0
   18.8279  -24.7895  -15.4939 O   0  0  0  0  0  0  0  0  0  0  0  0
   20.5135  -23.3234  -14.7338 C   0  0  0  0  0  0  0  0  0  0  0  0
   21.9635  -23.3326  -14.3911 C   0  0  0  0  0  0  0  0  0  0  0  0
   22.4980  -21.9759  -13.9410 C   0  0  2  0  0  0  0  0  0  0  0  0
   23.9155  -22.1422  -13.5532 N   0  0  0  0  0  0  0  0  0  0  0  0
   21.7633  -21.3974  -12.8167 C   0  0  0  0  0  0  0  0  0  0  0  0
   22.1422  -21.5803  -11.6397 O   0  0  0  0  0  0  0  0  0  0  0  0
   20.6174  -20.6180  -12.9583 O   0  0  0  0  0  0  0  0  0  0  0  0
  2  1  1  0
  2  4  1  0
  3  2  2  0
  5  4  1  0
  6  5  1  0
  6  7  1  1
  8  9  2  0
  8  6  1  0
 10 11  1  0
 11 12  2  0
 12 13  1  0
 14 15  1  0
 14 13  2  0
 16 15  1  1
 16 17  1  0
 17  8  1  0
 18 16  1  0
 19 18  2  0
 20 14  1  0
 21 20  2  0
 21 11  1  0
 23 24  2  0
 23 22  1  0
 25 23  1  0
 27 26  1  1
 26 25  1  0
 27 28  1  0
 28 18  1  0
 29 27  1  0
 30 29  2  0
 31 29  1  0
M  END
$$$$
