QYQ.pdb
     RDKit          3D

 31 31  0  0  1  0  0  0  0  0999 V2000
   30.3371  -21.2291  -18.7697 N   0  0  0  0  0  0  0  0  0  0  0  0
   30.4353  -19.8381  -18.5349 C   0  0  0  0  0  0  0  0  0  0  0  0
   29.4138  -19.1347  -18.3646 O   0  0  0  0  0  0  0  0  0  0  0  0
   31.7676  -19.2076  -18.4905 C   0  0  0  0  0  0  0  0  0  0  0  0
   32.8553  -20.2593  -18.6167 C   0  0  0  0  0  0  0  0  0  0  0  0
   34.1827  -19.5342  -18.4650 C   0  0  2  0  0  0  0  0  0  0  0  0
   34.2948  -18.5840  -19.5067 N   0  0  0  0  0  0  0  0  0  0  0  0
   35.3001  -20.5162  -18.5244 C   0  0  0  0  0  0  0  0  0  0  0  0
   35.9656  -20.6325  -19.6075 O   0  0  0  0  0  0  0  0  0  0  0  0
   41.4901  -17.8129  -17.1001 O   0  0  0  0  0  0  0  0  0  0  0  0
   40.5781  -18.8348  -16.9234 C   0  0  0  0  0  0  0  0  0  0  0  0
   40.9534  -20.1563  -17.0407 C   0  0  0  0  0  0  0  0  0  0  0  0
   39.9916  -21.1414  -16.8518 C   0  0  0  0  0  0  0  0  0  0  0  0
   38.6874  -20.8591  -16.5543 C   0  0  0  0  0  0  0  0  0  0  0  0
   37.6939  -21.9107  -16.3567 C   0  0  0  0  0  0  0  0  0  0  0  0
   36.8097  -22.2611  -17.4926 C   0  0  2  0  0  0  0  0  0  0  0  0
   35.6500  -21.3221  -17.4287 N   0  0  0  0  0  0  0  0  0  0  0  0
   36.2279  -23.5899  -17.5510 C   0  0  0  0  0  0  0  0  0  0  0  0
   35.0827  -23.7921  -17.0115 O   0  0  0  0  0  0  0  0  0  0  0  0
   38.3354  -19.5109  -16.4416 C   0  0  0  0  0  0  0  0  0  0  0  0
   39.2639  -18.5203  -16.6229 C   0  0  0  0  0  0  0  0  0  0  0  0
   31.5539  -26.7245  -19.4450 N   0  0  0  0  0  0  0  0  0  0  0  0
   32.8194  -26.7396  -20.0440 C   0  0  0  0  0  0  0  0  0  0  0  0
   32.9128  -26.5162  -21.2792 O   0  0  0  0  0  0  0  0  0  0  0  0
   34.0823  -27.0096  -19.2899 C   0  0  0  0  0  0  0  0  0  0  0  0
   34.8376  -25.7559  -19.0108 C   0  0  0  0  0  0  0  0  0  0  0  0
   36.1672  -25.9847  -18.2974 C   0  0  2  0  0  0  0  0  0  0  0  0
   36.8626  -24.6841  -18.1862 N   0  0  0  0  0  0  0  0  0  0  0  0
   37.0450  -26.9352  -18.9788 C   0  0  0  0  0  0  0  0  0  0  0  0
   37.5856  -26.6437  -20.0674 O   0  0  0  0  0  0  0  0  0  0  0  0
   37.3438  -28.2040  -18.4873 O   0  0  0  0  0  0  0  0  0  0  0  0
  2  1  1  0
  2  4  1  0
  3  2  2  0
  5  4  1  0
  6  5  1  0
  6  7  1  6
  8  9  2  0
  8  6  1  0
 10 11  1  0
 11 12  2  0
 12 13  1  0
 14 15  1  0
 14 13  2  0
 16 15  1  1
 16 17  1  0
 17  8  1  0
 18 16  1  0
 19 18  2  0
 20 14  1  0
 21 20  2  0
 21 11  1  0
 23 24  2  0
 23 22  1  0
 25 23  1  0
 27 26  1  6
 26 25  1  0
 27 28  1  0
 28 18  1  0
 29 27  1  0
 30 29  2  0
 31 29  1  0
M  END
$$$$
