QYQ.pdb
     RDKit          3D

 31 31  0  0  1  0  0  0  0  0999 V2000
   25.1360  -24.1694  -18.7923 N   0  0  0  0  0  0  0  0  0  0  0  0
   26.4224  -23.7643  -19.2170 C   0  0  0  0  0  0  0  0  0  0  0  0
   26.7118  -23.6914  -20.4328 O   0  0  0  0  0  0  0  0  0  0  0  0
   27.4400  -23.4219  -18.2060 C   0  0  0  0  0  0  0  0  0  0  0  0
   26.8592  -23.5435  -16.8084 C   0  0  0  0  0  0  0  0  0  0  0  0
   26.4380  -22.1447  -16.3880 C   0  0  2  0  0  0  0  0  0  0  0  0
   27.5705  -21.2996  -16.4479 N   0  0  0  0  0  0  0  0  0  0  0  0
   25.8805  -22.1824  -15.0081 C   0  0  0  0  0  0  0  0  0  0  0  0
   24.8704  -22.9253  -14.7682 O   0  0  0  0  0  0  0  0  0  0  0  0
   25.3257  -20.1655   -6.2842 O   0  0  0  0  0  0  0  0  0  0  0  0
   25.7115  -20.3345   -7.5995 C   0  0  0  0  0  0  0  0  0  0  0  0
   26.7601  -19.6168   -8.1348 C   0  0  0  0  0  0  0  0  0  0  0  0
   27.1028  -19.8295   -9.4647 C   0  0  0  0  0  0  0  0  0  0  0  0
   26.4462  -20.7199  -10.2679 C   0  0  0  0  0  0  0  0  0  0  0  0
   26.8256  -20.9298  -11.6622 C   0  0  0  0  0  0  0  0  0  0  0  0
   25.7845  -21.3926  -12.6091 C   0  0  2  0  0  0  0  0  0  0  0  0
   26.4269  -21.4281  -13.9569 N   0  0  0  0  0  0  0  0  0  0  0  0
   24.5795  -20.6003  -12.7765 C   0  0  0  0  0  0  0  0  0  0  0  0
   24.6709  -19.4297  -13.2911 O   0  0  0  0  0  0  0  0  0  0  0  0
   25.3874  -21.4334   -9.6986 C   0  0  0  0  0  0  0  0  0  0  0  0
   25.0290  -21.2428   -8.3903 C   0  0  0  0  0  0  0  0  0  0  0  0
   21.2239  -20.0106  -16.8785 N   0  0  0  0  0  0  0  0  0  0  0  0
   20.3865  -19.3603  -15.9640 C   0  0  0  0  0  0  0  0  0  0  0  0
   19.3859  -18.7295  -16.3942 O   0  0  0  0  0  0  0  0  0  0  0  0
   20.6165  -19.3729  -14.4863 C   0  0  0  0  0  0  0  0  0  0  0  0
   21.8621  -20.1078  -14.1276 C   0  0  0  0  0  0  0  0  0  0  0  0
   22.1060  -20.2080  -12.6244 C   0  0  2  0  0  0  0  0  0  0  0  0
   23.2940  -21.0609  -12.4040 N   0  0  0  0  0  0  0  0  0  0  0  0
   20.9770  -20.7657  -11.8808 C   0  0  0  0  0  0  0  0  0  0  0  0
   20.8602  -21.9998  -11.7207 O   0  0  0  0  0  0  0  0  0  0  0  0
   19.9702  -19.9935  -11.3058 O   0  0  0  0  0  0  0  0  0  0  0  0
  2  1  1  0
  2  4  1  0
  3  2  2  0
  5  4  1  0
  6  5  1  0
  6  7  1  1
  8  9  2  0
  8  6  1  0
 10 11  1  0
 11 12  2  0
 12 13  1  0
 14 15  1  0
 14 13  2  0
 16 15  1  1
 16 17  1  0
 17  8  1  0
 18 16  1  0
 19 18  2  0
 20 14  1  0
 21 20  2  0
 21 11  1  0
 23 24  2  0
 23 22  1  0
 25 23  1  0
 27 26  1  6
 26 25  1  0
 27 28  1  0
 28 18  1  0
 29 27  1  0
 30 29  2  0
 31 29  1  0
M  END
$$$$
