QYQ.pdb
     RDKit          3D

 31 31  0  0  1  0  0  0  0  0999 V2000
   24.9197  -22.7413  -18.6075 N   0  0  0  0  0  0  0  0  0  0  0  0
   26.1673  -22.7627  -19.2725 C   0  0  0  0  0  0  0  0  0  0  0  0
   26.2440  -22.6194  -20.5139 O   0  0  0  0  0  0  0  0  0  0  0  0
   27.3994  -22.9576  -18.4860 C   0  0  0  0  0  0  0  0  0  0  0  0
   27.0639  -23.1680  -17.0203 C   0  0  0  0  0  0  0  0  0  0  0  0
   26.8495  -21.7881  -16.4197 C   0  0  2  0  0  0  0  0  0  0  0  0
   28.0385  -21.0398  -16.5824 N   0  0  0  0  0  0  0  0  0  0  0  0
   26.5009  -21.9174  -14.9781 C   0  0  0  0  0  0  0  0  0  0  0  0
   25.6327  -22.7847  -14.6262 O   0  0  0  0  0  0  0  0  0  0  0  0
   27.0897  -19.9721   -6.2131 O   0  0  0  0  0  0  0  0  0  0  0  0
   27.2432  -20.1261   -7.5770 C   0  0  0  0  0  0  0  0  0  0  0  0
   26.3764  -19.5268   -8.4662 C   0  0  0  0  0  0  0  0  0  0  0  0
   26.5811  -19.7177   -9.8274 C   0  0  0  0  0  0  0  0  0  0  0  0
   27.6051  -20.4741  -10.3259 C   0  0  0  0  0  0  0  0  0  0  0  0
   27.8033  -20.6584  -11.7608 C   0  0  0  0  0  0  0  0  0  0  0  0
   26.6881  -21.2252  -12.5545 C   0  0  2  0  0  0  0  0  0  0  0  0
   27.0941  -21.1176  -13.9877 N   0  0  0  0  0  0  0  0  0  0  0  0
   25.3784  -20.6038  -12.4764 C   0  0  0  0  0  0  0  0  0  0  0  0
   25.1668  -19.5151  -13.1192 O   0  0  0  0  0  0  0  0  0  0  0  0
   28.4680  -21.0695   -9.4014 C   0  0  0  0  0  0  0  0  0  0  0  0
   28.2888  -20.8976   -8.0543 C   0  0  0  0  0  0  0  0  0  0  0  0
   19.2633  -20.0362  -15.1799 N   0  0  0  0  0  0  0  0  0  0  0  0
   20.5415  -20.4118  -14.7489 C   0  0  0  0  0  0  0  0  0  0  0  0
   21.4229  -20.6740  -15.6084 O   0  0  0  0  0  0  0  0  0  0  0  0
   20.9235  -20.5205  -13.3071 C   0  0  0  0  0  0  0  0  0  0  0  0
   22.3370  -20.9620  -13.1421 C   0  0  0  0  0  0  0  0  0  0  0  0
   22.9596  -20.5477  -11.8118 C   0  0  2  0  0  0  0  0  0  0  0  0
   24.3088  -21.1474  -11.7254 N   0  0  0  0  0  0  0  0  0  0  0  0
   22.1816  -20.9600  -10.6442 C   0  0  0  0  0  0  0  0  0  0  0  0
   21.0044  -20.5706  -10.4867 O   0  0  0  0  0  0  0  0  0  0  0  0
   22.6708  -21.7953   -9.6424 O   0  0  0  0  0  0  0  0  0  0  0  0
  2  1  1  0
  2  4  1  0
  3  2  2  0
  5  4  1  0
  6  5  1  0
  6  7  1  1
  8  9  2  0
  8  6  1  0
 10 11  1  0
 11 12  2  0
 12 13  1  0
 14 15  1  0
 14 13  2  0
 16 15  1  1
 16 17  1  0
 17  8  1  0
 18 16  1  0
 19 18  2  0
 20 14  1  0
 21 20  2  0
 21 11  1  0
 23 24  2  0
 23 22  1  0
 25 23  1  0
 27 26  1  6
 26 25  1  0
 27 28  1  0
 28 18  1  0
 29 27  1  0
 30 29  2  0
 31 29  1  0
M  END
$$$$
