QYQ.pdb
     RDKit          3D

 31 31  0  0  1  0  0  0  0  0999 V2000
   18.3028  -13.5759  -17.3628 N   0  0  0  0  0  0  0  0  0  0  0  0
   19.4943  -14.2992  -17.1244 C   0  0  0  0  0  0  0  0  0  0  0  0
   19.5093  -15.5508  -17.1459 O   0  0  0  0  0  0  0  0  0  0  0  0
   20.7407  -13.5621  -16.8457 C   0  0  0  0  0  0  0  0  0  0  0  0
   20.4834  -12.0657  -16.8524 C   0  0  0  0  0  0  0  0  0  0  0  0
   21.8164  -11.3928  -16.5680 C   0  0  2  0  0  0  0  0  0  0  0  0
   22.6173  -12.2856  -15.8185 N   0  0  0  0  0  0  0  0  0  0  0  0
   21.5894  -10.1289  -15.8148 C   0  0  0  0  0  0  0  0  0  0  0  0
   20.9869  -10.1775  -14.6903 O   0  0  0  0  0  0  0  0  0  0  0  0
   22.7002   -1.3809  -14.1937 O   0  0  0  0  0  0  0  0  0  0  0  0
   22.7763   -2.7202  -14.5223 C   0  0  0  0  0  0  0  0  0  0  0  0
   23.3760   -3.1363  -15.6920 C   0  0  0  0  0  0  0  0  0  0  0  0
   23.4227   -4.4973  -15.9692 C   0  0  0  0  0  0  0  0  0  0  0  0
   22.9000   -5.4442  -15.1330 C   0  0  0  0  0  0  0  0  0  0  0  0
   22.9632   -6.8697  -15.4429 C   0  0  0  0  0  0  0  0  0  0  0  0
   21.6895   -7.6148  -15.5749 C   0  0  2  0  0  0  0  0  0  0  0  0
   22.0150   -8.8805  -16.2977 N   0  0  0  0  0  0  0  0  0  0  0  0
   20.5951   -7.0164  -16.3178 C   0  0  0  0  0  0  0  0  0  0  0  0
   20.3114   -7.4712  -17.4823 O   0  0  0  0  0  0  0  0  0  0  0  0
   22.2980   -4.9934  -13.9546 C   0  0  0  0  0  0  0  0  0  0  0  0
   22.2385   -3.6576  -13.6573 C   0  0  0  0  0  0  0  0  0  0  0  0
   15.5417   -8.2857  -17.1435 N   0  0  0  0  0  0  0  0  0  0  0  0
   15.3543   -6.9678  -17.5776 C   0  0  0  0  0  0  0  0  0  0  0  0
   14.2621   -6.6525  -18.1179 O   0  0  0  0  0  0  0  0  0  0  0  0
   16.3915   -5.9000  -17.4338 C   0  0  0  0  0  0  0  0  0  0  0  0
   17.6388   -6.4223  -16.8082 C   0  0  0  0  0  0  0  0  0  0  0  0
   18.7302   -5.3689  -16.6395 C   0  0  2  0  0  0  0  0  0  0  0  0
   19.8113   -5.9505  -15.8147 N   0  0  0  0  0  0  0  0  0  0  0  0
   18.2643   -4.1345  -16.0090 C   0  0  0  0  0  0  0  0  0  0  0  0
   17.7426   -3.2238  -16.6878 O   0  0  0  0  0  0  0  0  0  0  0  0
   18.3584   -3.8785  -14.6429 O   0  0  0  0  0  0  0  0  0  0  0  0
  2  1  1  0
  2  4  1  0
  3  2  2  0
  5  4  1  0
  6  5  1  0
  6  7  1  1
  8  9  2  0
  8  6  1  0
 10 11  1  0
 11 12  2  0
 12 13  1  0
 14 15  1  0
 14 13  2  0
 16 15  1  6
 16 17  1  0
 17  8  1  0
 18 16  1  0
 19 18  2  0
 20 14  1  0
 21 20  2  0
 21 11  1  0
 23 24  2  0
 23 22  1  0
 25 23  1  0
 27 26  1  1
 26 25  1  0
 27 28  1  0
 28 18  1  0
 29 27  1  0
 30 29  2  0
 31 29  1  0
M  END
$$$$
