QYQ.pdb
     RDKit          3D

 31 31  0  0  1  0  0  0  0  0999 V2000
   25.5514  -23.5030  -14.9323 N   0  0  0  0  0  0  0  0  0  0  0  0
   25.3954  -24.5007  -13.9425 C   0  0  0  0  0  0  0  0  0  0  0  0
   25.9273  -25.6272  -14.0665 O   0  0  0  0  0  0  0  0  0  0  0  0
   24.5903  -24.2053  -12.7428 C   0  0  0  0  0  0  0  0  0  0  0  0
   24.1150  -22.7635  -12.7663 C   0  0  0  0  0  0  0  0  0  0  0  0
   25.3093  -21.9045  -12.3832 C   0  0  2  0  0  0  0  0  0  0  0  0
   25.4435  -21.9273  -10.9755 N   0  0  0  0  0  0  0  0  0  0  0  0
   25.1030  -20.5131  -12.8708 C   0  0  0  0  0  0  0  0  0  0  0  0
   24.3207  -19.7394  -12.2234 O   0  0  0  0  0  0  0  0  0  0  0  0
   27.3557  -13.4051  -17.8693 O   0  0  0  0  0  0  0  0  0  0  0  0
   27.2417  -14.5368  -17.0860 C   0  0  0  0  0  0  0  0  0  0  0  0
   26.8686  -14.4547  -15.7611 C   0  0  0  0  0  0  0  0  0  0  0  0
   26.7706  -15.6278  -15.0226 C   0  0  0  0  0  0  0  0  0  0  0  0
   27.0278  -16.8622  -15.5512 C   0  0  0  0  0  0  0  0  0  0  0  0
   26.9152  -18.0824  -14.7572 C   0  0  0  0  0  0  0  0  0  0  0  0
   25.5601  -18.6030  -14.4617 C   0  0  2  0  0  0  0  0  0  0  0  0
   25.7396  -20.0186  -14.0210 N   0  0  0  0  0  0  0  0  0  0  0  0
   24.5746  -18.6521  -15.5267 C   0  0  0  0  0  0  0  0  0  0  0  0
   24.6495  -19.5866  -16.4012 O   0  0  0  0  0  0  0  0  0  0  0  0
   27.4040  -16.9151  -16.8965 C   0  0  0  0  0  0  0  0  0  0  0  0
   27.5082  -15.7739  -17.6469 C   0  0  0  0  0  0  0  0  0  0  0  0
   18.5571  -17.8146  -15.3447 N   0  0  0  0  0  0  0  0  0  0  0  0
   19.5910  -18.3575  -14.5722 C   0  0  0  0  0  0  0  0  0  0  0  0
   19.3156  -18.8641  -13.4534 O   0  0  0  0  0  0  0  0  0  0  0  0
   21.0220  -18.3698  -15.0066 C   0  0  0  0  0  0  0  0  0  0  0  0
   21.1927  -17.7757  -16.3624 C   0  0  0  0  0  0  0  0  0  0  0  0
   22.6423  -17.7339  -16.8376 C   0  0  2  0  0  0  0  0  0  0  0  0
   23.5195  -17.7164  -15.6469 N   0  0  0  0  0  0  0  0  0  0  0  0
   22.9544  -16.5754  -17.6738 C   0  0  0  0  0  0  0  0  0  0  0  0
   23.2976  -15.4879  -17.1622 O   0  0  0  0  0  0  0  0  0  0  0  0
   22.8984  -16.5866  -19.0657 O   0  0  0  0  0  0  0  0  0  0  0  0
  2  1  1  0
  2  4  1  0
  3  2  2  0
  5  4  1  0
  6  5  1  0
  6  7  1  1
  8  9  2  0
  8  6  1  0
 10 11  1  0
 11 12  2  0
 12 13  1  0
 14 15  1  0
 14 13  2  0
 16 15  1  6
 16 17  1  0
 17  8  1  0
 18 16  1  0
 19 18  2  0
 20 14  1  0
 21 20  2  0
 21 11  1  0
 23 24  2  0
 23 22  1  0
 25 23  1  0
 27 26  1  1
 26 25  1  0
 27 28  1  0
 28 18  1  0
 29 27  1  0
 30 29  2  0
 31 29  1  0
M  END
$$$$
