QYQ.pdb
     RDKit          3D

 31 31  0  0  1  0  0  0  0  0999 V2000
   21.7296  -29.2450  -10.3334 N   0  0  0  0  0  0  0  0  0  0  0  0
   21.4055  -29.4803  -11.6896 C   0  0  0  0  0  0  0  0  0  0  0  0
   21.2857  -28.5353  -12.5019 O   0  0  0  0  0  0  0  0  0  0  0  0
   21.2057  -30.8662  -12.1523 C   0  0  0  0  0  0  0  0  0  0  0  0
   21.5160  -31.8468  -11.0355 C   0  0  0  0  0  0  0  0  0  0  0  0
   22.9662  -32.2663  -11.2139 C   0  0  2  0  0  0  0  0  0  0  0  0
   23.0436  -33.1516  -12.3141 N   0  0  0  0  0  0  0  0  0  0  0  0
   23.4540  -32.9252   -9.9713 C   0  0  0  0  0  0  0  0  0  0  0  0
   23.2112  -34.1656   -9.7916 O   0  0  0  0  0  0  0  0  0  0  0  0
   29.0373  -34.7040   -3.3276 O   0  0  0  0  0  0  0  0  0  0  0  0
   28.3026  -34.1386   -4.3512 C   0  0  0  0  0  0  0  0  0  0  0  0
   27.5799  -32.9804   -4.1574 C   0  0  0  0  0  0  0  0  0  0  0  0
   26.8596  -32.4580   -5.2249 C   0  0  0  0  0  0  0  0  0  0  0  0
   26.8350  -33.0415   -6.4610 C   0  0  0  0  0  0  0  0  0  0  0  0
   26.0735  -32.4731   -7.5697 C   0  0  0  0  0  0  0  0  0  0  0  0
   24.6724  -32.9166   -7.7569 C   0  0  2  0  0  0  0  0  0  0  0  0
   24.1739  -32.2300   -8.9860 N   0  0  0  0  0  0  0  0  0  0  0  0
   23.6942  -32.6208   -6.7257 C   0  0  0  0  0  0  0  0  0  0  0  0
   23.3677  -31.4001   -6.5095 O   0  0  0  0  0  0  0  0  0  0  0  0
   27.5766  -34.2145   -6.6285 C   0  0  0  0  0  0  0  0  0  0  0  0
   28.2953  -34.7505   -5.5928 C   0  0  0  0  0  0  0  0  0  0  0  0
   18.4118  -35.4841   -5.3692 N   0  0  0  0  0  0  0  0  0  0  0  0
   18.6911  -34.4085   -6.2211 C   0  0  0  0  0  0  0  0  0  0  0  0
   17.8679  -34.1183   -7.1279 O   0  0  0  0  0  0  0  0  0  0  0  0
   19.9278  -33.5745   -6.1131 C   0  0  0  0  0  0  0  0  0  0  0  0
   20.8487  -34.0861   -5.0595 C   0  0  0  0  0  0  0  0  0  0  0  0
   22.1096  -33.2447   -4.8830 C   0  0  2  0  0  0  0  0  0  0  0  0
   23.0696  -33.6213   -5.9432 N   0  0  0  0  0  0  0  0  0  0  0  0
   22.7518  -33.4127   -3.5800 C   0  0  0  0  0  0  0  0  0  0  0  0
   22.1861  -33.0343   -2.5316 O   0  0  0  0  0  0  0  0  0  0  0  0
   24.0067  -33.9911   -3.4032 O   0  0  0  0  0  0  0  0  0  0  0  0
  2  1  1  0
  2  4  1  0
  3  2  2  0
  5  4  1  0
  6  5  1  0
  6  7  1  6
  8  9  2  0
  8  6  1  0
 10 11  1  0
 11 12  2  0
 12 13  1  0
 14 15  1  0
 14 13  2  0
 16 15  1  1
 16 17  1  0
 17  8  1  0
 18 16  1  0
 19 18  2  0
 20 14  1  0
 21 20  2  0
 21 11  1  0
 23 24  2  0
 23 22  1  0
 25 23  1  0
 27 26  1  1
 26 25  1  0
 27 28  1  0
 28 18  1  0
 29 27  1  0
 30 29  2  0
 31 29  1  0
M  END
$$$$
