QYQ.pdb
     RDKit          3D

 31 31  0  0  1  0  0  0  0  0999 V2000
   26.8925  -34.3618   -6.8173 N   0  0  0  0  0  0  0  0  0  0  0  0
   25.8099  -33.6593   -7.3952 C   0  0  0  0  0  0  0  0  0  0  0  0
   25.2232  -34.0935   -8.4124 O   0  0  0  0  0  0  0  0  0  0  0  0
   25.3662  -32.3919   -6.7858 C   0  0  0  0  0  0  0  0  0  0  0  0
   23.8750  -32.4340   -6.5037 C   0  0  0  0  0  0  0  0  0  0  0  0
   23.7016  -33.1654   -5.1824 C   0  0  2  0  0  0  0  0  0  0  0  0
   23.5864  -34.5495   -5.4492 N   0  0  0  0  0  0  0  0  0  0  0  0
   22.4874  -32.6598   -4.4850 C   0  0  0  0  0  0  0  0  0  0  0  0
   21.3383  -33.0538   -4.8777 O   0  0  0  0  0  0  0  0  0  0  0  0
   17.8285  -29.6760    2.5128 O   0  0  0  0  0  0  0  0  0  0  0  0
   18.7748  -30.0830    1.5930 C   0  0  0  0  0  0  0  0  0  0  0  0
   19.6285  -29.1787    0.9975 C   0  0  0  0  0  0  0  0  0  0  0  0
   20.5604  -29.6471    0.0793 C   0  0  0  0  0  0  0  0  0  0  0  0
   20.6695  -30.9667   -0.2612 C   0  0  0  0  0  0  0  0  0  0  0  0
   21.6589  -31.4373   -1.2265 C   0  0  0  0  0  0  0  0  0  0  0  0
   21.3348  -31.3333   -2.6684 C   0  0  2  0  0  0  0  0  0  0  0  0
   22.5598  -31.7622   -3.4073 N   0  0  0  0  0  0  0  0  0  0  0  0
   20.9839  -30.0378   -3.2217 C   0  0  0  0  0  0  0  0  0  0  0  0
   21.9097  -29.1727   -3.4163 O   0  0  0  0  0  0  0  0  0  0  0  0
   19.7913  -31.8608    0.3580 C   0  0  0  0  0  0  0  0  0  0  0  0
   18.8633  -31.4254    1.2667 C   0  0  0  0  0  0  0  0  0  0  0  0
   15.7795  -28.7280   -6.5647 N   0  0  0  0  0  0  0  0  0  0  0  0
   15.6755  -28.3910   -5.2097 C   0  0  0  0  0  0  0  0  0  0  0  0
   14.5341  -28.2036   -4.7132 O   0  0  0  0  0  0  0  0  0  0  0  0
   16.8585  -28.2390   -4.3076 C   0  0  0  0  0  0  0  0  0  0  0  0
   18.1396  -28.4656   -5.0340 C   0  0  0  0  0  0  0  0  0  0  0  0
   19.3775  -28.3482   -4.1493 C   0  0  2  0  0  0  0  0  0  0  0  0
   19.6593  -29.6788   -3.5684 N   0  0  0  0  0  0  0  0  0  0  0  0
   19.2359  -27.3775   -3.0647 C   0  0  0  0  0  0  0  0  0  0  0  0
   19.3655  -26.1528   -3.2780 O   0  0  0  0  0  0  0  0  0  0  0  0
   18.9526  -27.7249   -1.7457 O   0  0  0  0  0  0  0  0  0  0  0  0
  2  1  1  0
  2  4  1  0
  3  2  2  0
  5  4  1  0
  6  5  1  0
  6  7  1  6
  8  9  2  0
  8  6  1  0
 10 11  1  0
 11 12  2  0
 12 13  1  0
 14 15  1  0
 14 13  2  0
 16 15  1  1
 16 17  1  0
 17  8  1  0
 18 16  1  0
 19 18  2  0
 20 14  1  0
 21 20  2  0
 21 11  1  0
 23 24  2  0
 23 22  1  0
 25 23  1  0
 27 26  1  1
 26 25  1  0
 27 28  1  0
 28 18  1  0
 29 27  1  0
 30 29  2  0
 31 29  1  0
M  END
$$$$
