NRG.pdb
     RDKit          3D

 24 23  0  0  1  0  0  0  0  0999 V2000
   16.1942  -22.1113  -12.0484 N   0  0  0  0  0  0  0  0  0  0  0  0
   16.8210  -22.6173  -13.2247 C   0  0  0  0  0  0  0  0  0  0  0  0
   16.5863  -23.7792  -13.6003 O   0  0  0  0  0  0  0  0  0  0  0  0
   17.7423  -21.7680  -13.9910 C   0  0  0  0  0  0  0  0  0  0  0  0
   19.1376  -22.3358  -14.0538 C   0  0  2  0  0  0  0  0  0  0  0  0
   19.6934  -22.5001  -12.7143 N   0  0  0  0  0  0  0  0  0  0  0  0
   19.9956  -21.4584  -14.8770 C   0  0  0  0  0  0  0  0  0  0  0  0
   20.3564  -20.3354  -14.4714 O   0  0  0  0  0  0  0  0  0  0  0  0
   26.4718  -22.5913  -16.6541 N   0  0  0  0  0  0  0  0  0  0  0  0
   26.1913  -23.9903  -16.6968 C   0  0  0  0  0  0  0  0  0  0  0  0
   27.0277  -24.8617  -16.2411 N   0  0  0  0  0  0  0  0  0  0  0  0
   24.9798  -24.4935  -17.2458 N   0  0  0  0  0  0  0  0  0  0  0  0
   24.0421  -23.6379  -17.9268 C   0  0  0  0  0  0  0  0  0  0  0  0
   23.2310  -22.7575  -17.0185 C   0  0  0  0  0  0  0  0  0  0  0  0
   22.2477  -21.9010  -17.7831 C   0  0  0  0  0  0  0  0  0  0  0  0
   21.4157  -21.0399  -16.8994 C   0  0  2  0  0  0  0  0  0  0  0  0
   20.4590  -21.8500  -16.1861 N   0  0  0  0  0  0  0  0  0  0  0  0
   20.7458  -19.9363  -17.6463 C   0  0  0  0  0  0  0  0  0  0  0  0
   19.7614  -20.0880  -18.3752 O   0  0  0  0  0  0  0  0  0  0  0  0
   26.7951  -25.8650  -16.2185 N   0  0  0  0  0  0  0  0  0  0  0  0
   21.2786  -18.6206  -17.5080 C   0  0  0  0  0  0  0  0  0  0  0  0
   20.7052  -17.4850  -18.2045 C   0  0  0  0  0  0  0  0  0  0  0  0
   19.6673  -16.8056  -17.4142 O   0  0  0  0  0  0  0  0  0  0  0  0
   19.2816  -17.3483  -16.3503 O   0  0  0  0  0  0  0  0  0  0  0  0
  1  2  1  0
  2  3  2  0
  4  2  1  0
  5  4  1  0
  5  6  1  1
  7  5  1  0
  7  8  2  0
  9 10  1  0
 10 12  1  0
 11 10  2  0
 12 13  1  0
 13 14  1  0
 15 14  1  0
 16 15  1  6
 16 17  1  0
 17  7  1  0
 18 20  1  0
 18 16  1  0
 19 18  2  0
 21 22  1  0
 21 20  1  0
 22 24  1  0
 23 22  2  0
M  END
$$$$
