NRG.pdb
     RDKit          3D

 24 23  0  0  1  0  0  0  0  0999 V2000
   21.3623  -12.4971  -16.8575 N   0  0  0  0  0  0  0  0  0  0  0  0
   21.0436  -13.3742  -17.9354 C   0  0  0  0  0  0  0  0  0  0  0  0
   20.6245  -12.9084  -19.0094 O   0  0  0  0  0  0  0  0  0  0  0  0
   21.2096  -14.8250  -17.7773 C   0  0  0  0  0  0  0  0  0  0  0  0
   22.6055  -15.2883  -18.1085 C   0  0  2  0  0  0  0  0  0  0  0  0
   22.8159  -15.3157  -19.5525 N   0  0  0  0  0  0  0  0  0  0  0  0
   22.8417  -16.6210  -17.5155 C   0  0  0  0  0  0  0  0  0  0  0  0
   22.4495  -17.6623  -18.0790 O   0  0  0  0  0  0  0  0  0  0  0  0
   25.5119  -21.2338  -10.9759 N   0  0  0  0  0  0  0  0  0  0  0  0
   25.9227  -21.7061  -12.2588 C   0  0  0  0  0  0  0  0  0  0  0  0
   25.5161  -22.8396  -12.7240 N   0  0  0  0  0  0  0  0  0  0  0  0
   26.8018  -20.9543  -13.0860 N   0  0  0  0  0  0  0  0  0  0  0  0
   26.4618  -19.6347  -13.5529 C   0  0  0  0  0  0  0  0  0  0  0  0
   25.1588  -19.5553  -14.2972 C   0  0  0  0  0  0  0  0  0  0  0  0
   24.9365  -18.1934  -14.9143 C   0  0  0  0  0  0  0  0  0  0  0  0
   23.6493  -18.0927  -15.6544 C   0  0  2  0  0  0  0  0  0  0  0  0
   23.5337  -16.7890  -16.2605 N   0  0  0  0  0  0  0  0  0  0  0  0
   22.4712  -18.3993  -14.7925 C   0  0  0  0  0  0  0  0  0  0  0  0
   22.1504  -17.7457  -13.7960 O   0  0  0  0  0  0  0  0  0  0  0  0
   25.8119  -23.1735  -13.6526 N   0  0  0  0  0  0  0  0  0  0  0  0
   21.6640  -19.5211  -15.1445 C   0  0  0  0  0  0  0  0  0  0  0  0
   20.5140  -19.9153  -14.3534 C   0  0  0  0  0  0  0  0  0  0  0  0
   20.7933  -21.0754  -13.4935 O   0  0  0  0  0  0  0  0  0  0  0  0
   21.9500  -21.5620  -13.5112 O   0  0  0  0  0  0  0  0  0  0  0  0
  1  2  1  0
  2  3  2  0
  4  2  1  0
  5  4  1  0
  5  6  1  6
  7  5  1  0
  7  8  2  0
  9 10  1  0
 10 12  1  0
 11 10  2  0
 12 13  1  0
 13 14  1  0
 15 14  1  0
 16 15  1  1
 16 17  1  0
 17  7  1  0
 18 20  1  0
 18 16  1  0
 19 18  2  0
 21 22  1  0
 21 20  1  0
 22 24  1  0
 23 22  2  0
M  END
$$$$
