NRG.pdb
     RDKit          3D

 24 23  0  0  1  0  0  0  0  0999 V2000
   13.3338  -11.3749  -11.2886 N   0  0  0  0  0  0  0  0  0  0  0  0
   13.1271  -10.5386  -10.1525 C   0  0  0  0  0  0  0  0  0  0  0  0
   12.0578  -10.6048   -9.5213 O   0  0  0  0  0  0  0  0  0  0  0  0
   14.1749   -9.6006   -9.7289 C   0  0  0  0  0  0  0  0  0  0  0  0
   15.4462   -9.7534  -10.5250 C   0  0  2  0  0  0  0  0  0  0  0  0
   15.9845  -11.1033  -10.3920 N   0  0  0  0  0  0  0  0  0  0  0  0
   16.4335   -8.7459  -10.0847 C   0  0  0  0  0  0  0  0  0  0  0  0
   17.1458   -8.9303   -9.0776 O   0  0  0  0  0  0  0  0  0  0  0  0
   22.0258   -7.2568  -15.2884 N   0  0  0  0  0  0  0  0  0  0  0  0
   21.4509   -8.4832  -14.8378 C   0  0  0  0  0  0  0  0  0  0  0  0
   21.6805   -9.6002  -15.4430 N   0  0  0  0  0  0  0  0  0  0  0  0
   20.5948   -8.5352  -13.7034 N   0  0  0  0  0  0  0  0  0  0  0  0
   20.1015   -7.3395  -13.0694 C   0  0  0  0  0  0  0  0  0  0  0  0
   19.1715   -7.5864  -11.9152 C   0  0  0  0  0  0  0  0  0  0  0  0
   18.6283   -6.3005  -11.3352 C   0  0  0  0  0  0  0  0  0  0  0  0
   17.5713   -6.5242  -10.3119 C   0  0  2  0  0  0  0  0  0  0  0  0
   16.6254   -7.5022  -10.7907 N   0  0  0  0  0  0  0  0  0  0  0  0
   16.8908   -5.2594   -9.9099 C   0  0  0  0  0  0  0  0  0  0  0  0
   16.3491   -4.4804  -10.6992 O   0  0  0  0  0  0  0  0  0  0  0  0
   21.2430  -10.4783  -15.1286 N   0  0  0  0  0  0  0  0  0  0  0  0
   16.8652   -4.9301   -8.5224 C   0  0  0  0  0  0  0  0  0  0  0  0
   16.2337   -3.7191   -8.0342 C   0  0  0  0  0  0  0  0  0  0  0  0
   14.7707   -3.8427   -7.9478 O   0  0  0  0  0  0  0  0  0  0  0  0
   14.2404   -4.9061   -8.3518 O   0  0  0  0  0  0  0  0  0  0  0  0
  1  2  1  0
  2  3  2  0
  4  2  1  0
  5  4  1  0
  5  6  1  1
  7  5  1  0
  7  8  2  0
  9 10  1  0
 10 12  1  0
 11 10  2  0
 12 13  1  0
 13 14  1  0
 15 14  1  0
 16 15  1  6
 16 17  1  0
 17  7  1  0
 18 20  1  0
 18 16  1  0
 19 18  2  0
 21 22  1  0
 21 20  1  0
 22 24  1  0
 23 22  2  0
M  END
$$$$
