NRG.pdb
     RDKit          3D

 24 23  0  0  1  0  0  0  0  0999 V2000
   28.5246  -20.0403  -19.3738 N   0  0  0  0  0  0  0  0  0  0  0  0
   29.1650  -20.0654  -18.1003 C   0  0  0  0  0  0  0  0  0  0  0  0
   30.3813  -20.3124  -18.0236 O   0  0  0  0  0  0  0  0  0  0  0  0
   28.3896  -19.8005  -16.8813 C   0  0  0  0  0  0  0  0  0  0  0  0
   26.9275  -19.5648  -17.1641 C   0  0  2  0  0  0  0  0  0  0  0  0
   26.7310  -18.3035  -17.8716 N   0  0  0  0  0  0  0  0  0  0  0  0
   26.1661  -19.5836  -15.8978 C   0  0  0  0  0  0  0  0  0  0  0  0
   26.2599  -18.6565  -15.0688 O   0  0  0  0  0  0  0  0  0  0  0  0
   18.2764  -20.6642  -13.4363 N   0  0  0  0  0  0  0  0  0  0  0  0
   19.0060  -20.7311  -14.6615 C   0  0  0  0  0  0  0  0  0  0  0  0
   18.5318  -20.2425  -15.7583 N   0  0  0  0  0  0  0  0  0  0  0  0
   20.2882  -21.3415  -14.7356 N   0  0  0  0  0  0  0  0  0  0  0  0
   20.9593  -21.8424  -13.5635 C   0  0  0  0  0  0  0  0  0  0  0  0
   22.3108  -21.2349  -13.3137 C   0  0  0  0  0  0  0  0  0  0  0  0
   23.1610  -21.2016  -14.5631 C   0  0  0  0  0  0  0  0  0  0  0  0
   24.5166  -20.6336  -14.3298 C   0  0  2  0  0  0  0  0  0  0  0  0
   25.2793  -20.6685  -15.5535 N   0  0  0  0  0  0  0  0  0  0  0  0
   25.2378  -21.3188  -13.2185 C   0  0  0  0  0  0  0  0  0  0  0  0
   25.6526  -22.4799  -13.2710 O   0  0  0  0  0  0  0  0  0  0  0  0
   19.0510  -20.3166  -16.6449 N   0  0  0  0  0  0  0  0  0  0  0  0
   25.4618  -20.5826  -12.0177 C   0  0  0  0  0  0  0  0  0  0  0  0
   26.0650  -21.1913  -10.8476 C   0  0  0  0  0  0  0  0  0  0  0  0
   25.2641  -20.9872   -9.6309 O   0  0  0  0  0  0  0  0  0  0  0  0
   24.1310  -20.4607   -9.7482 O   0  0  0  0  0  0  0  0  0  0  0  0
  1  2  1  0
  2  3  2  0
  4  2  1  0
  5  4  1  0
  5  6  1  1
  7  5  1  0
  7  8  2  0
  9 10  1  0
 10 12  1  0
 11 10  2  0
 12 13  1  0
 13 14  1  0
 15 14  1  0
 16 15  1  6
 16 17  1  0
 17  7  1  0
 18 20  1  0
 18 16  1  0
 19 18  2  0
 21 22  1  0
 21 20  1  0
 22 24  1  0
 23 22  2  0
M  END
$$$$
