NRG.pdb
     RDKit          3D

 24 23  0  0  1  0  0  0  0  0999 V2000
   23.1563  -24.5451  -19.3667 N   0  0  0  0  0  0  0  0  0  0  0  0
   24.2531  -24.2017  -18.5232 C   0  0  0  0  0  0  0  0  0  0  0  0
   25.3099  -24.8540  -18.5853 O   0  0  0  0  0  0  0  0  0  0  0  0
   24.1350  -23.0799  -17.5825 C   0  0  0  0  0  0  0  0  0  0  0  0
   24.2123  -23.5202  -16.1426 C   0  0  2  0  0  0  0  0  0  0  0  0
   22.9899  -24.2101  -15.7429 N   0  0  0  0  0  0  0  0  0  0  0  0
   24.4646  -22.3495  -15.2768 C   0  0  0  0  0  0  0  0  0  0  0  0
   23.5759  -21.5038  -15.0516 O   0  0  0  0  0  0  0  0  0  0  0  0
   24.7949  -20.9117   -7.5838 N   0  0  0  0  0  0  0  0  0  0  0  0
   24.1025  -20.9688   -8.8308 C   0  0  0  0  0  0  0  0  0  0  0  0
   22.8348  -21.2055   -8.8900 N   0  0  0  0  0  0  0  0  0  0  0  0
   24.7743  -20.7716  -10.0686 N   0  0  0  0  0  0  0  0  0  0  0  0
   26.2067  -20.6381  -10.1419 C   0  0  0  0  0  0  0  0  0  0  0  0
   26.7305  -20.3016  -11.5095 C   0  0  0  0  0  0  0  0  0  0  0  0
   26.5308  -21.4336  -12.4912 C   0  0  0  0  0  0  0  0  0  0  0  0
   25.9467  -20.9861  -13.7847 C   0  0  2  0  0  0  0  0  0  0  0  0
   25.7440  -22.1224  -14.6497 N   0  0  0  0  0  0  0  0  0  0  0  0
   26.7714  -19.9358  -14.4492 C   0  0  0  0  0  0  0  0  0  0  0  0
   27.8982  -20.1281  -14.9145 O   0  0  0  0  0  0  0  0  0  0  0  0
   22.3397  -21.2434   -9.7927 N   0  0  0  0  0  0  0  0  0  0  0  0
   26.2203  -18.6245  -14.5528 C   0  0  0  0  0  0  0  0  0  0  0  0
   26.9935  -17.5067  -15.0592 C   0  0  0  0  0  0  0  0  0  0  0  0
   26.6815  -17.1963  -16.4626 O   0  0  0  0  0  0  0  0  0  0  0  0
   25.8678  -17.9365  -17.0669 O   0  0  0  0  0  0  0  0  0  0  0  0
  1  2  1  0
  2  3  2  0
  4  2  1  0
  5  4  1  0
  5  6  1  1
  7  5  1  0
  7  8  2  0
  9 10  1  0
 10 12  1  0
 11 10  2  0
 12 13  1  0
 13 14  1  0
 15 14  1  0
 16 15  1  1
 16 17  1  0
 17  7  1  0
 18 20  1  0
 18 16  1  0
 19 18  2  0
 21 22  1  0
 21 20  1  0
 22 24  1  0
 23 22  2  0
M  END
$$$$
