NRG.pdb
     RDKit          3D

 24 23  0  0  1  0  0  0  0  0999 V2000
   30.7573  -21.5078  -18.9761 N   0  0  0  0  0  0  0  0  0  0  0  0
   29.4987  -20.8676  -19.1727 C   0  0  0  0  0  0  0  0  0  0  0  0
   29.3230  -20.1387  -20.1646 O   0  0  0  0  0  0  0  0  0  0  0  0
   28.4118  -21.0685  -18.2053 C   0  0  0  0  0  0  0  0  0  0  0  0
   28.8250  -21.9313  -17.0401 C   0  0  2  0  0  0  0  0  0  0  0  0
   29.3110  -23.2285  -17.4995 N   0  0  0  0  0  0  0  0  0  0  0  0
   27.6866  -22.0930  -16.1119 C   0  0  0  0  0  0  0  0  0  0  0  0
   27.6682  -23.0013  -15.2574 O   0  0  0  0  0  0  0  0  0  0  0  0
   25.6629  -20.7500   -9.0653 N   0  0  0  0  0  0  0  0  0  0  0  0
   24.3683  -20.9777   -9.6218 C   0  0  0  0  0  0  0  0  0  0  0  0
   23.2919  -20.7200   -8.9574 N   0  0  0  0  0  0  0  0  0  0  0  0
   24.1998  -21.5024  -10.9328 N   0  0  0  0  0  0  0  0  0  0  0  0
   25.3088  -21.6473  -11.8406 C   0  0  0  0  0  0  0  0  0  0  0  0
   25.6761  -20.3910  -12.5788 C   0  0  0  0  0  0  0  0  0  0  0  0
   26.5100  -20.6744  -13.8073 C   0  0  0  0  0  0  0  0  0  0  0  0
   25.6935  -21.0722  -14.9861 C   0  0  2  0  0  0  0  0  0  0  0  0
   26.5420  -21.2150  -16.1437 N   0  0  0  0  0  0  0  0  0  0  0  0
   24.5708  -20.1255  -15.2470 C   0  0  0  0  0  0  0  0  0  0  0  0
   24.7053  -18.9048  -15.3694 O   0  0  0  0  0  0  0  0  0  0  0  0
   22.3600  -20.8739   -9.3687 N   0  0  0  0  0  0  0  0  0  0  0  0
   23.2568  -20.6681  -15.3622 C   0  0  0  0  0  0  0  0  0  0  0  0
   22.1103  -19.8375  -15.6771 C   0  0  0  0  0  0  0  0  0  0  0  0
   21.4668  -19.2871  -14.4746 O   0  0  0  0  0  0  0  0  0  0  0  0
   21.9432  -19.5925  -13.3544 O   0  0  0  0  0  0  0  0  0  0  0  0
  1  2  1  0
  2  3  2  0
  4  2  1  0
  5  4  1  0
  5  6  1  6
  7  5  1  0
  7  8  2  0
  9 10  1  0
 10 12  1  0
 11 10  2  0
 12 13  1  0
 13 14  1  0
 15 14  1  0
 16 15  1  1
 16 17  1  0
 17  7  1  0
 18 20  1  0
 18 16  1  0
 19 18  2  0
 21 22  1  0
 21 20  1  0
 22 24  1  0
 23 22  2  0
M  END
$$$$
