NRG.pdb
     RDKit          3D

 24 23  0  0  1  0  0  0  0  0999 V2000
   23.0074  -14.7425  -18.2049 N   0  0  0  0  0  0  0  0  0  0  0  0
   23.1716  -13.5952  -19.0352 C   0  0  0  0  0  0  0  0  0  0  0  0
   23.9974  -13.6165  -19.9646 O   0  0  0  0  0  0  0  0  0  0  0  0
   22.3671  -12.3903  -18.7930 C   0  0  0  0  0  0  0  0  0  0  0  0
   21.3946  -12.5619  -17.6538 C   0  0  2  0  0  0  0  0  0  0  0  0
   20.4291  -13.6161  -17.9480 N   0  0  0  0  0  0  0  0  0  0  0  0
   20.7106  -11.2798  -17.3857 C   0  0  0  0  0  0  0  0  0  0  0  0
   20.4825  -10.4611  -18.2987 O   0  0  0  0  0  0  0  0  0  0  0  0
   13.3626   -8.9301  -13.4097 N   0  0  0  0  0  0  0  0  0  0  0  0
   13.8522   -7.8003  -14.1318 C   0  0  0  0  0  0  0  0  0  0  0  0
   13.0887   -6.8007  -14.4221 N   0  0  0  0  0  0  0  0  0  0  0  0
   15.2029   -7.7210  -14.5698 N   0  0  0  0  0  0  0  0  0  0  0  0
   16.0578   -8.8798  -14.6073 C   0  0  0  0  0  0  0  0  0  0  0  0
   17.4417   -8.6146  -15.1295 C   0  0  0  0  0  0  0  0  0  0  0  0
   18.2383   -9.8871  -15.3059 C   0  0  0  0  0  0  0  0  0  0  0  0
   19.6082   -9.6475  -15.8358 C   0  0  2  0  0  0  0  0  0  0  0  0
   20.2728  -10.9075  -16.0622 N   0  0  0  0  0  0  0  0  0  0  0  0
   20.4139   -8.7579  -14.9503 C   0  0  0  0  0  0  0  0  0  0  0  0
   21.0008   -9.1370  -13.9330 O   0  0  0  0  0  0  0  0  0  0  0  0
   13.4518   -5.9797  -14.9274 N   0  0  0  0  0  0  0  0  0  0  0  0
   20.5115   -7.3797  -15.3039 C   0  0  0  0  0  0  0  0  0  0  0  0
   21.2571   -6.4330  -14.4969 C   0  0  0  0  0  0  0  0  0  0  0  0
   21.2415   -5.0757  -15.0631 O   0  0  0  0  0  0  0  0  0  0  0  0
   20.7233   -4.9109  -16.1943 O   0  0  0  0  0  0  0  0  0  0  0  0
  1  2  1  0
  2  3  2  0
  4  2  1  0
  5  4  1  0
  5  6  1  6
  7  5  1  0
  7  8  2  0
  9 10  1  0
 10 12  1  0
 11 10  2  0
 12 13  1  0
 13 14  1  0
 15 14  1  0
 16 15  1  1
 16 17  1  0
 17  7  1  0
 18 20  1  0
 18 16  1  0
 19 18  2  0
 21 22  1  0
 21 20  1  0
 22 24  1  0
 23 22  2  0
M  END
$$$$
