NRG.pdb
     RDKit          3D

 24 23  0  0  1  0  0  0  0  0999 V2000
   27.2126  -20.5369  -15.5961 N   0  0  0  0  0  0  0  0  0  0  0  0
   26.1378  -19.7533  -16.1092 C   0  0  0  0  0  0  0  0  0  0  0  0
   26.3792  -18.7478  -16.7998 O   0  0  0  0  0  0  0  0  0  0  0  0
   24.7481  -20.1327  -15.8222 C   0  0  0  0  0  0  0  0  0  0  0  0
   24.6496  -21.3818  -14.9837 C   0  0  2  0  0  0  0  0  0  0  0  0
   25.1050  -22.5487  -15.7326 N   0  0  0  0  0  0  0  0  0  0  0  0
   23.2579  -21.5621  -14.5207 C   0  0  0  0  0  0  0  0  0  0  0  0
   22.4487  -22.2698  -15.1532 O   0  0  0  0  0  0  0  0  0  0  0  0
   19.4059  -23.5900   -7.1502 N   0  0  0  0  0  0  0  0  0  0  0  0
   18.4422  -23.5162   -8.2007 C   0  0  0  0  0  0  0  0  0  0  0  0
   17.3785  -24.2476   -8.1949 N   0  0  0  0  0  0  0  0  0  0  0  0
   18.6073  -22.6372   -9.3063 N   0  0  0  0  0  0  0  0  0  0  0  0
   19.9107  -22.2923   -9.8137 C   0  0  0  0  0  0  0  0  0  0  0  0
   19.8996  -21.2590  -10.9047 C   0  0  0  0  0  0  0  0  0  0  0  0
   21.2871  -20.9690  -11.4298 C   0  0  0  0  0  0  0  0  0  0  0  0
   21.3929  -21.1158  -12.9069 C   0  0  2  0  0  0  0  0  0  0  0  0
   22.7627  -20.9333  -13.3202 N   0  0  0  0  0  0  0  0  0  0  0  0
   20.4758  -20.1943  -13.6380 C   0  0  0  0  0  0  0  0  0  0  0  0
   20.5485  -18.9630  -13.5950 O   0  0  0  0  0  0  0  0  0  0  0  0
   16.7003  -24.2109   -8.9695 N   0  0  0  0  0  0  0  0  0  0  0  0
   19.4487  -20.7756  -14.4387 C   0  0  0  0  0  0  0  0  0  0  0  0
   18.4987  -19.9630  -15.1741 C   0  0  0  0  0  0  0  0  0  0  0  0
   17.2014  -19.8555  -14.4894 O   0  0  0  0  0  0  0  0  0  0  0  0
   17.1639  -20.0676  -13.2530 O   0  0  0  0  0  0  0  0  0  0  0  0
  1  2  1  0
  2  3  2  0
  4  2  1  0
  5  4  1  0
  5  6  1  6
  7  5  1  0
  7  8  2  0
  9 10  1  0
 10 12  1  0
 11 10  2  0
 12 13  1  0
 13 14  1  0
 15 14  1  0
 16 15  1  1
 16 17  1  0
 17  7  1  0
 18 20  1  0
 18 16  1  0
 19 18  2  0
 21 22  1  0
 21 20  1  0
 22 24  1  0
 23 22  2  0
M  END
$$$$
