NRG.pdb
     RDKit          3D

 24 23  0  0  1  0  0  0  0  0999 V2000
   28.6223  -17.0515  -16.8707 N   0  0  0  0  0  0  0  0  0  0  0  0
   27.9042  -18.2099  -16.4523 C   0  0  0  0  0  0  0  0  0  0  0  0
   27.9773  -19.2577  -17.1180 O   0  0  0  0  0  0  0  0  0  0  0  0
   27.0795  -18.1658  -15.2377 C   0  0  0  0  0  0  0  0  0  0  0  0
   26.3532  -19.4621  -14.9827 C   0  0  2  0  0  0  0  0  0  0  0  0
   25.4662  -19.7892  -16.0945 N   0  0  0  0  0  0  0  0  0  0  0  0
   25.5988  -19.3692  -13.7155 C   0  0  0  0  0  0  0  0  0  0  0  0
   25.1435  -18.2818  -13.3080 O   0  0  0  0  0  0  0  0  0  0  0  0
   20.6072  -22.6568  -15.6261 N   0  0  0  0  0  0  0  0  0  0  0  0
   21.0854  -23.4307  -14.5260 C   0  0  0  0  0  0  0  0  0  0  0  0
   21.2810  -24.7026  -14.6285 N   0  0  0  0  0  0  0  0  0  0  0  0
   21.3666  -22.8406  -13.2631 N   0  0  0  0  0  0  0  0  0  0  0  0
   21.1934  -21.4298  -13.0291 C   0  0  0  0  0  0  0  0  0  0  0  0
   22.4768  -20.6561  -12.9169 C   0  0  0  0  0  0  0  0  0  0  0  0
   23.3220  -21.1191  -11.7524 C   0  0  0  0  0  0  0  0  0  0  0  0
   24.6182  -20.3952  -11.6496 C   0  0  2  0  0  0  0  0  0  0  0  0
   25.3498  -20.5233  -12.8860 N   0  0  0  0  0  0  0  0  0  0  0  0
   25.4327  -20.8479  -10.4851 C   0  0  0  0  0  0  0  0  0  0  0  0
   26.3562  -21.6633  -10.5579 O   0  0  0  0  0  0  0  0  0  0  0  0
   21.6115  -25.2589  -13.8269 N   0  0  0  0  0  0  0  0  0  0  0  0
   25.1228  -20.3016   -9.2046 C   0  0  0  0  0  0  0  0  0  0  0  0
   25.8885  -20.6427   -8.0209 C   0  0  0  0  0  0  0  0  0  0  0  0
   26.9091  -19.6332   -7.7006 O   0  0  0  0  0  0  0  0  0  0  0  0
   27.0739  -18.6815   -8.5019 O   0  0  0  0  0  0  0  0  0  0  0  0
  1  2  1  0
  2  3  2  0
  4  2  1  0
  5  4  1  0
  5  6  1  6
  7  5  1  0
  7  8  2  0
  9 10  1  0
 10 12  1  0
 11 10  2  0
 12 13  1  0
 13 14  1  0
 15 14  1  0
 16 15  1  6
 16 17  1  0
 17  7  1  0
 18 20  1  0
 18 16  1  0
 19 18  2  0
 21 22  1  0
 21 20  1  0
 22 24  1  0
 23 22  2  0
M  END
$$$$
