NRG.pdb
     RDKit          3D

 24 23  0  0  1  0  0  0  0  0999 V2000
   24.2285  -17.6637  -17.7120 N   0  0  0  0  0  0  0  0  0  0  0  0
   24.9112  -18.7099  -17.0250 C   0  0  0  0  0  0  0  0  0  0  0  0
   26.0816  -18.9932  -17.3347 O   0  0  0  0  0  0  0  0  0  0  0  0
   24.2332  -19.4518  -15.9538 C   0  0  0  0  0  0  0  0  0  0  0  0
   22.7900  -19.0468  -15.7919 C   0  0  2  0  0  0  0  0  0  0  0  0
   22.6850  -17.6590  -15.3525 N   0  0  0  0  0  0  0  0  0  0  0  0
   22.1223  -19.9548  -14.8362 C   0  0  0  0  0  0  0  0  0  0  0  0
   21.9997  -21.1731  -15.0739 O   0  0  0  0  0  0  0  0  0  0  0  0
   18.5226  -22.1034   -8.6844 N   0  0  0  0  0  0  0  0  0  0  0  0
   19.6226  -22.4031   -7.8253 C   0  0  0  0  0  0  0  0  0  0  0  0
   19.5559  -23.3450   -6.9451 N   0  0  0  0  0  0  0  0  0  0  0  0
   20.8439  -21.6778   -7.8938 N   0  0  0  0  0  0  0  0  0  0  0  0
   21.0598  -20.6459   -8.8756 C   0  0  0  0  0  0  0  0  0  0  0  0
   20.7895  -21.0691  -10.2919 C   0  0  0  0  0  0  0  0  0  0  0  0
   21.1083  -19.9748  -11.2848 C   0  0  0  0  0  0  0  0  0  0  0  0
   20.8897  -20.3888  -12.6974 C   0  0  2  0  0  0  0  0  0  0  0  0
   21.5790  -19.4846  -13.5849 N   0  0  0  0  0  0  0  0  0  0  0  0
   19.4426  -20.4938  -13.0428 C   0  0  0  0  0  0  0  0  0  0  0  0
   18.6365  -19.5639  -12.9492 O   0  0  0  0  0  0  0  0  0  0  0  0
   20.3518  -23.5551   -6.3256 N   0  0  0  0  0  0  0  0  0  0  0  0
   18.9605  -21.7514  -13.5119 C   0  0  0  0  0  0  0  0  0  0  0  0
   17.6512  -22.2553  -13.1439 C   0  0  0  0  0  0  0  0  0  0  0  0
   16.5805  -21.7145  -13.9949 O   0  0  0  0  0  0  0  0  0  0  0  0
   16.8990  -20.9346  -14.9252 O   0  0  0  0  0  0  0  0  0  0  0  0
  1  2  1  0
  2  3  2  0
  4  2  1  0
  5  4  1  0
  5  6  1  1
  7  5  1  0
  7  8  2  0
  9 10  1  0
 10 12  1  0
 11 10  2  0
 12 13  1  0
 13 14  1  0
 15 14  1  0
 16 15  1  1
 16 17  1  0
 17  7  1  0
 18 20  1  0
 18 16  1  0
 19 18  2  0
 21 22  1  0
 21 20  1  0
 22 24  1  0
 23 22  2  0
M  END
$$$$
