NRG.pdb
     RDKit          3D

 24 23  0  0  1  0  0  0  0  0999 V2000
   28.5133  -25.1085  -18.0957 N   0  0  0  0  0  0  0  0  0  0  0  0
   27.5454  -24.1923  -18.6021 C   0  0  0  0  0  0  0  0  0  0  0  0
   27.6546  -23.7539  -19.7606 O   0  0  0  0  0  0  0  0  0  0  0  0
   26.4219  -23.7669  -17.7571 C   0  0  0  0  0  0  0  0  0  0  0  0
   26.4838  -24.3560  -16.3707 C   0  0  2  0  0  0  0  0  0  0  0  0
   26.0586  -25.7521  -16.3789 N   0  0  0  0  0  0  0  0  0  0  0  0
   25.6482  -23.5554  -15.4518 C   0  0  0  0  0  0  0  0  0  0  0  0
   24.4396  -23.8123  -15.2812 O   0  0  0  0  0  0  0  0  0  0  0  0
   24.4066  -20.7310   -8.2160 N   0  0  0  0  0  0  0  0  0  0  0  0
   23.1593  -20.6572   -8.9063 C   0  0  0  0  0  0  0  0  0  0  0  0
   22.0372  -20.5996   -8.2707 N   0  0  0  0  0  0  0  0  0  0  0  0
   23.0904  -20.6468  -10.3267 N   0  0  0  0  0  0  0  0  0  0  0  0
   24.0310  -21.3769  -11.1375 C   0  0  0  0  0  0  0  0  0  0  0  0
   25.2188  -20.5738  -11.5871 C   0  0  0  0  0  0  0  0  0  0  0  0
   26.0683  -21.3232  -12.5879 C   0  0  0  0  0  0  0  0  0  0  0  0
   25.3321  -21.6665  -13.8349 C   0  0  2  0  0  0  0  0  0  0  0  0
   26.1811  -22.4401  -14.7074 N   0  0  0  0  0  0  0  0  0  0  0  0
   24.7924  -20.4612  -14.5279 C   0  0  0  0  0  0  0  0  0  0  0  0
   25.4558  -19.4531  -14.7869 O   0  0  0  0  0  0  0  0  0  0  0  0
   21.1388  -20.5673   -8.7739 N   0  0  0  0  0  0  0  0  0  0  0  0
   23.4201  -20.4761  -14.9161 C   0  0  0  0  0  0  0  0  0  0  0  0
   22.7981  -19.3432  -15.5742 C   0  0  0  0  0  0  0  0  0  0  0  0
   21.5212  -18.9621  -14.9516 O   0  0  0  0  0  0  0  0  0  0  0  0
   21.1255  -19.6204  -13.9590 O   0  0  0  0  0  0  0  0  0  0  0  0
  1  2  1  0
  2  3  2  0
  4  2  1  0
  5  4  1  0
  5  6  1  6
  7  5  1  0
  7  8  2  0
  9 10  1  0
 10 12  1  0
 11 10  2  0
 12 13  1  0
 13 14  1  0
 15 14  1  0
 16 15  1  1
 16 17  1  0
 17  7  1  0
 18 20  1  0
 18 16  1  0
 19 18  2  0
 21 22  1  0
 21 20  1  0
 22 24  1  0
 23 22  2  0
M  END
$$$$
