VEE.pdb
     RDKit          3D

 26 25  0  0  1  0  0  0  0  0999 V2000
    6.4736  -11.4148   26.2804 C   0  0  0  0  0  0  0  0  0  0  0  0
    7.2530  -12.6204   25.8976 C   0  0  1  0  0  0  0  0  0  0  0  0
    7.9853  -13.2575   27.0559 C   0  0  0  0  0  0  0  0  0  0  0  0
    6.3685  -13.6197   25.1792 C   0  0  2  0  0  0  0  0  0  0  0  0
    5.4394  -14.0959   26.2285 N   0  0  0  0  0  0  0  0  0  0  0  0
    7.1480  -14.7769   24.7189 C   0  0  0  0  0  0  0  0  0  0  0  0
    7.2965  -15.7619   25.4999 O   0  0  0  0  0  0  0  0  0  0  0  0
    7.7694  -14.9100   23.4488 N   0  0  0  0  0  0  0  0  0  0  0  0
    8.6118  -16.0593   23.1600 C   0  0  1  0  0  0  0  0  0  0  0  0
    8.8318  -16.0584   21.6652 C   0  0  0  0  0  0  0  0  0  0  0  0
    9.6012  -17.2350   21.1828 C   0  0  0  0  0  0  0  0  0  0  0  0
    9.7787  -17.2278   19.7337 C   0  0  0  0  0  0  0  0  0  0  0  0
    9.3300  -18.0851   18.9403 O   0  0  0  0  0  0  0  0  0  0  0  0
    9.9025  -15.9886   23.8929 C   0  0  0  0  0  0  0  0  0  0  0  0
   10.1387  -14.9668   24.5784 O   0  0  0  0  0  0  0  0  0  0  0  0
   10.5106  -16.1928   19.0960 O   0  0  0  0  0  0  0  0  0  0  0  0
   10.8716  -17.0220   23.8490 N   0  0  0  0  0  0  0  0  0  0  0  0
   11.8039  -17.3324   24.9178 C   0  0  1  0  0  0  0  0  0  0  0  0
   11.1820  -17.2643   26.2612 C   0  0  0  0  0  0  0  0  0  0  0  0
   10.5760  -18.4780   26.8345 C   0  0  0  0  0  0  0  0  0  0  0  0
   10.7399  -18.7571   28.2551 C   0  0  0  0  0  0  0  0  0  0  0  0
   11.8252  -18.9696   28.8018 O   0  0  0  0  0  0  0  0  0  0  0  0
   12.7064  -18.4478   24.6373 C   0  0  0  0  0  0  0  0  0  0  0  0
   12.3143  -19.6083   24.3307 O   0  0  0  0  0  0  0  0  0  0  0  0
    9.6250  -18.8019   29.1191 O   0  0  0  0  0  0  0  0  0  0  0  0
   14.0767  -18.2470   24.7046 O   0  0  0  0  0  0  0  0  0  0  0  0
  2  4  1  0
  2  1  1  1
  3  2  1  0
  4  6  1  0
  4  5  1  1
  6  7  2  0
  8  6  1  0
  8  9  1  0
  9 14  1  0
  9 10  1  6
 11 10  1  0
 12 16  1  0
 12 11  1  0
 13 12  2  0
 14 15  2  0
 17 18  1  0
 17 14  1  0
 18 23  1  0
 18 19  1  1
 20 19  1  0
 21 22  2  0
 21 20  1  0
 23 24  2  0
 23 26  1  0
 25 21  1  0
M  END
$$$$
