VEE.pdb
     RDKit          3D

 26 25  0  0  1  0  0  0  0  0999 V2000
    8.4283  -12.1148   25.7843 C   0  0  0  0  0  0  0  0  0  0  0  0
    7.1656  -12.5191   26.4549 C   0  0  1  0  0  0  0  0  0  0  0  0
    6.4292  -11.3670   27.0982 C   0  0  0  0  0  0  0  0  0  0  0  0
    6.2757  -13.2845   25.4961 C   0  0  2  0  0  0  0  0  0  0  0  0
    5.2256  -13.8621   26.3648 N   0  0  0  0  0  0  0  0  0  0  0  0
    7.0044  -14.4011   24.8791 C   0  0  0  0  0  0  0  0  0  0  0  0
    7.3463  -15.3809   25.6038 O   0  0  0  0  0  0  0  0  0  0  0  0
    7.3745  -14.4992   23.5115 N   0  0  0  0  0  0  0  0  0  0  0  0
    8.2222  -15.5892   23.0563 C   0  0  1  0  0  0  0  0  0  0  0  0
    8.2565  -15.4979   21.5485 C   0  0  0  0  0  0  0  0  0  0  0  0
    6.9283  -15.7097   20.9158 C   0  0  0  0  0  0  0  0  0  0  0  0
    6.9873  -15.6322   19.4590 C   0  0  0  0  0  0  0  0  0  0  0  0
    6.5114  -14.7110   18.7585 O   0  0  0  0  0  0  0  0  0  0  0  0
    9.5892  -15.4949   23.6312 C   0  0  0  0  0  0  0  0  0  0  0  0
    9.9216  -14.4270   24.1957 O   0  0  0  0  0  0  0  0  0  0  0  0
    7.6219  -16.6508   18.7018 O   0  0  0  0  0  0  0  0  0  0  0  0
   10.5270  -16.5558   23.5679 N   0  0  0  0  0  0  0  0  0  0  0  0
   11.6436  -16.7329   24.4788 C   0  0  1  0  0  0  0  0  0  0  0  0
   11.2366  -16.6884   25.9030 C   0  0  0  0  0  0  0  0  0  0  0  0
   10.8971  -17.9447   26.5926 C   0  0  0  0  0  0  0  0  0  0  0  0
   10.7486  -17.9478   28.0420 C   0  0  0  0  0  0  0  0  0  0  0  0
   11.0497  -17.0018   28.7744 O   0  0  0  0  0  0  0  0  0  0  0  0
   12.6068  -17.7555   24.0740 C   0  0  0  0  0  0  0  0  0  0  0  0
   12.3631  -18.6490   23.2156 O   0  0  0  0  0  0  0  0  0  0  0  0
   10.2327  -19.0752   28.7160 O   0  0  0  0  0  0  0  0  0  0  0  0
   13.8679  -17.7676   24.6501 O   0  0  0  0  0  0  0  0  0  0  0  0
  2  4  1  0
  2  1  1  6
  3  2  1  0
  4  6  1  0
  4  5  1  1
  6  7  2  0
  8  6  1  0
  8  9  1  0
  9 14  1  0
  9 10  1  6
 11 10  1  0
 12 16  1  0
 12 11  1  0
 13 12  2  0
 14 15  2  0
 17 18  1  0
 17 14  1  0
 18 23  1  0
 18 19  1  1
 20 19  1  0
 21 22  2  0
 21 20  1  0
 23 24  2  0
 23 26  1  0
 25 21  1  0
M  END
$$$$
