VEE.pdb
     RDKit          3D

 26 25  0  0  1  0  0  0  0  0999 V2000
    7.5878  -12.5814   18.4646 C   0  0  0  0  0  0  0  0  0  0  0  0
    8.5105  -13.2371   19.4270 C   0  0  1  0  0  0  0  0  0  0  0  0
    8.6534  -12.4875   20.7312 C   0  0  0  0  0  0  0  0  0  0  0  0
    8.1050  -14.6797   19.6541 C   0  0  2  0  0  0  0  0  0  0  0  0
    6.6921  -14.5914   20.0864 N   0  0  0  0  0  0  0  0  0  0  0  0
    8.8703  -15.2738   20.7586 C   0  0  0  0  0  0  0  0  0  0  0  0
    8.6523  -14.8699   21.9382 O   0  0  0  0  0  0  0  0  0  0  0  0
    9.8580  -16.2870   20.6366 N   0  0  0  0  0  0  0  0  0  0  0  0
   10.5635  -16.7705   21.8124 C   0  0  1  0  0  0  0  0  0  0  0  0
    9.9727  -18.1233   22.1344 C   0  0  0  0  0  0  0  0  0  0  0  0
    9.7621  -18.9743   20.9342 C   0  0  0  0  0  0  0  0  0  0  0  0
    9.2756  -20.3078   21.2760 C   0  0  0  0  0  0  0  0  0  0  0  0
    9.8497  -21.1206   22.0346 O   0  0  0  0  0  0  0  0  0  0  0  0
   12.0264  -16.8672   21.5704 C   0  0  0  0  0  0  0  0  0  0  0  0
   12.4157  -17.2668   20.4486 O   0  0  0  0  0  0  0  0  0  0  0  0
    8.0548  -20.7954   20.7417 O   0  0  0  0  0  0  0  0  0  0  0  0
   12.9938  -16.5287   22.5495 N   0  0  0  0  0  0  0  0  0  0  0  0
   14.4116  -16.3535   22.2906 C   0  0  1  0  0  0  0  0  0  0  0  0
   14.6797  -15.6082   21.0380 C   0  0  0  0  0  0  0  0  0  0  0  0
   16.0739  -15.3400   20.6465 C   0  0  0  0  0  0  0  0  0  0  0  0
   16.3476  -14.7107   19.3611 C   0  0  0  0  0  0  0  0  0  0  0  0
   16.4648  -15.3239   18.2971 O   0  0  0  0  0  0  0  0  0  0  0  0
   15.2120  -16.0229   23.4683 C   0  0  0  0  0  0  0  0  0  0  0  0
   16.4733  -15.9614   23.4654 O   0  0  0  0  0  0  0  0  0  0  0  0
   16.5000  -13.3117   19.2561 O   0  0  0  0  0  0  0  0  0  0  0  0
   14.5747  -15.7569   24.6707 O   0  0  0  0  0  0  0  0  0  0  0  0
  2  4  1  0
  2  1  1  6
  3  2  1  0
  4  6  1  0
  4  5  1  1
  6  7  2  0
  8  6  1  0
  8  9  1  0
  9 14  1  0
  9 10  1  6
 11 10  1  0
 12 16  1  0
 12 11  1  0
 13 12  2  0
 14 15  2  0
 17 18  1  0
 17 14  1  0
 18 23  1  0
 18 19  1  6
 20 19  1  0
 21 22  2  0
 21 20  1  0
 23 24  2  0
 23 26  1  0
 25 21  1  0
M  END
$$$$
