VEE.pdb
     RDKit          3D

 26 25  0  0  1  0  0  0  0  0999 V2000
    8.0071  -11.8596   25.8636 C   0  0  0  0  0  0  0  0  0  0  0  0
    6.9927  -12.5307   26.7169 C   0  0  1  0  0  0  0  0  0  0  0  0
    6.3383  -11.6051   27.7163 C   0  0  0  0  0  0  0  0  0  0  0  0
    5.9653  -13.2439   25.8609 C   0  0  2  0  0  0  0  0  0  0  0  0
    5.1113  -13.9522   26.8407 N   0  0  0  0  0  0  0  0  0  0  0  0
    6.6018  -14.2598   25.0116 C   0  0  0  0  0  0  0  0  0  0  0  0
    7.1169  -15.2776   25.5600 O   0  0  0  0  0  0  0  0  0  0  0  0
    6.7002  -14.2180   23.5954 N   0  0  0  0  0  0  0  0  0  0  0  0
    7.3961  -15.2727   22.8760 C   0  0  1  0  0  0  0  0  0  0  0  0
    7.0501  -15.0895   21.4167 C   0  0  0  0  0  0  0  0  0  0  0  0
    7.5901  -13.8319   20.8372 C   0  0  0  0  0  0  0  0  0  0  0  0
    7.9578  -13.9797   19.4319 C   0  0  0  0  0  0  0  0  0  0  0  0
    8.5728  -13.1323   18.7466 O   0  0  0  0  0  0  0  0  0  0  0  0
    8.8646  -15.2046   23.0924 C   0  0  0  0  0  0  0  0  0  0  0  0
    9.3502  -14.1335   23.5247 O   0  0  0  0  0  0  0  0  0  0  0  0
    7.6241  -15.1567   18.7130 O   0  0  0  0  0  0  0  0  0  0  0  0
    9.7336  -16.2936   22.8318 N   0  0  0  0  0  0  0  0  0  0  0  0
   10.9941  -16.5316   23.5117 C   0  0  1  0  0  0  0  0  0  0  0  0
   10.9109  -16.3038   24.9737 C   0  0  0  0  0  0  0  0  0  0  0  0
   10.1932  -17.2785   25.8127 C   0  0  0  0  0  0  0  0  0  0  0  0
   10.7826  -17.7076   27.0743 C   0  0  0  0  0  0  0  0  0  0  0  0
   11.9743  -17.5777   27.3654 O   0  0  0  0  0  0  0  0  0  0  0  0
   11.7299  -17.7045   23.0427 C   0  0  0  0  0  0  0  0  0  0  0  0
   11.2165  -18.6221   22.3435 O   0  0  0  0  0  0  0  0  0  0  0  0
    9.9944  -18.3191   28.0724 O   0  0  0  0  0  0  0  0  0  0  0  0
   13.0702  -17.8419   23.3701 O   0  0  0  0  0  0  0  0  0  0  0  0
  2  4  1  0
  2  1  1  6
  3  2  1  0
  4  6  1  0
  4  5  1  1
  6  7  2  0
  8  6  1  0
  8  9  1  0
  9 14  1  0
  9 10  1  6
 11 10  1  0
 12 16  1  0
 12 11  1  0
 13 12  2  0
 14 15  2  0
 17 18  1  0
 17 14  1  0
 18 23  1  0
 18 19  1  1
 20 19  1  0
 21 22  2  0
 21 20  1  0
 23 24  2  0
 23 26  1  0
 25 21  1  0
M  END
$$$$
