VEE.pdb
     RDKit          3D

 26 25  0  0  1  0  0  0  0  0999 V2000
    7.9199  -13.1799   21.4572 C   0  0  0  0  0  0  0  0  0  0  0  0
    7.9168  -13.1708   19.9715 C   0  0  1  0  0  0  0  0  0  0  0  0
    9.1276  -12.4954   19.3704 C   0  0  0  0  0  0  0  0  0  0  0  0
    7.7358  -14.5753   19.4314 C   0  0  2  0  0  0  0  0  0  0  0  0
    6.4147  -14.9925   19.9524 N   0  0  0  0  0  0  0  0  0  0  0  0
    8.7416  -15.4882   19.9913 C   0  0  0  0  0  0  0  0  0  0  0  0
    8.5563  -15.9635   21.1496 O   0  0  0  0  0  0  0  0  0  0  0  0
    9.9359  -15.9072   19.3469 N   0  0  0  0  0  0  0  0  0  0  0  0
   10.9095  -16.7183   20.0598 C   0  0  1  0  0  0  0  0  0  0  0  0
   11.6220  -17.5424   19.0130 C   0  0  0  0  0  0  0  0  0  0  0  0
   12.5867  -16.7557   18.2008 C   0  0  0  0  0  0  0  0  0  0  0  0
   13.2881  -17.5779   17.2191 C   0  0  0  0  0  0  0  0  0  0  0  0
   12.7567  -18.1770   16.2576 O   0  0  0  0  0  0  0  0  0  0  0  0
   11.8666  -15.8770   20.8241 C   0  0  0  0  0  0  0  0  0  0  0  0
   11.6155  -14.6554   20.9448 O   0  0  0  0  0  0  0  0  0  0  0  0
   14.6931  -17.7611   17.2952 O   0  0  0  0  0  0  0  0  0  0  0  0
   13.0444  -16.3951   21.4184 N   0  0  0  0  0  0  0  0  0  0  0  0
   13.6382  -15.9055   22.6495 C   0  0  1  0  0  0  0  0  0  0  0  0
   12.6447  -15.7204   23.7334 C   0  0  0  0  0  0  0  0  0  0  0  0
   11.6318  -16.7641   23.9651 C   0  0  0  0  0  0  0  0  0  0  0  0
   10.7173  -16.6359   25.0922 C   0  0  0  0  0  0  0  0  0  0  0  0
   10.7779  -15.7410   25.9391 O   0  0  0  0  0  0  0  0  0  0  0  0
   14.9214  -16.5153   22.9942 C   0  0  0  0  0  0  0  0  0  0  0  0
   15.2627  -17.6792   22.6428 O   0  0  0  0  0  0  0  0  0  0  0  0
    9.6712  -17.5628   25.2866 O   0  0  0  0  0  0  0  0  0  0  0  0
   15.8348  -15.7960   23.7498 O   0  0  0  0  0  0  0  0  0  0  0  0
  2  4  1  0
  2  1  1  1
  3  2  1  0
  4  6  1  0
  4  5  1  1
  6  7  2  0
  8  6  1  0
  8  9  1  0
  9 14  1  0
  9 10  1  6
 11 10  1  0
 12 16  1  0
 12 11  1  0
 13 12  2  0
 14 15  2  0
 17 18  1  0
 17 14  1  0
 18 23  1  0
 18 19  1  1
 20 19  1  0
 21 22  2  0
 21 20  1  0
 23 24  2  0
 23 26  1  0
 25 21  1  0
M  END
$$$$
