IVG.pdb
     RDKit          3D

 20 19  0  0  1  0  0  0  0  0999 V2000
    7.3207  -21.4076   26.4885 C   0  0  0  0  0  0  0  0  0  0  0  0
    6.3304  -20.3544   26.0594 C   0  0  0  0  0  0  0  0  0  0  0  0
    7.0449  -19.0951   25.6488 C   0  0  2  0  0  0  0  0  0  0  0  0
    7.9445  -18.5635   26.7326 C   0  0  0  0  0  0  0  0  0  0  0  0
    6.0363  -18.0103   25.3293 C   0  0  2  0  0  0  0  0  0  0  0  0
    5.2142  -18.5511   24.2480 N   0  0  0  0  0  0  0  0  0  0  0  0
    6.6899  -16.7545   24.9010 C   0  0  0  0  0  0  0  0  0  0  0  0
    7.1349  -16.6793   23.7376 O   0  0  0  0  0  0  0  0  0  0  0  0
    7.8217  -12.0497   26.1373 C   0  0  0  0  0  0  0  0  0  0  0  0
    7.1307  -13.3616   26.2659 C   0  0  1  0  0  0  0  0  0  0  0  0
    5.6429  -13.1387   25.9605 C   0  0  0  0  0  0  0  0  0  0  0  0
    7.6544  -14.4768   25.4348 C   0  0  2  0  0  0  0  0  0  0  0  0
    6.8237  -15.6460   25.7643 N   0  0  0  0  0  0  0  0  0  0  0  0
    9.0655  -14.8176   25.6071 C   0  0  0  0  0  0  0  0  0  0  0  0
    9.5945  -14.7431   26.7608 O   0  0  0  0  0  0  0  0  0  0  0  0
    9.9135  -15.2389   24.5516 N   0  0  0  0  0  0  0  0  0  0  0  0
   11.3144  -15.4636   24.8497 C   0  0  0  0  0  0  0  0  0  0  0  0
   12.1760  -15.3827   23.6767 C   0  0  0  0  0  0  0  0  0  0  0  0
   11.6836  -15.2805   22.5355 O   0  0  0  0  0  0  0  0  0  0  0  0
   13.5453  -15.4184   23.8185 O   0  0  0  0  0  0  0  0  0  0  0  0
  1  2  1  0
  3  2  1  0
  3  5  1  0
  3  4  1  1
  5  7  1  0
  5  6  1  6
  7  8  2  0
  7 13  1  0
 10  9  1  6
 10 11  1  0
 12 14  1  0
 12 10  1  0
 12 13  1  1
 14 15  2  0
 16 14  1  0
 16 17  1  0
 17 18  1  0
 18 20  1  0
 19 18  2  0
M  END
$$$$
