IVG.pdb
     RDKit          3D

 20 19  0  0  1  0  0  0  0  0999 V2000
   10.5143  -13.9895   29.3640 C   0  0  0  0  0  0  0  0  0  0  0  0
    9.6096  -15.0874   28.8636 C   0  0  0  0  0  0  0  0  0  0  0  0
    9.7305  -15.2305   27.3703 C   0  0  2  0  0  0  0  0  0  0  0  0
    9.7483  -13.9014   26.6636 C   0  0  0  0  0  0  0  0  0  0  0  0
    8.5500  -16.0117   26.8296 C   0  0  2  0  0  0  0  0  0  0  0  0
    8.5189  -17.2524   27.6024 N   0  0  0  0  0  0  0  0  0  0  0  0
    8.6943  -16.3065   25.3873 C   0  0  0  0  0  0  0  0  0  0  0  0
    8.9442  -17.4785   25.0392 O   0  0  0  0  0  0  0  0  0  0  0  0
    7.6806  -14.4806   20.8624 C   0  0  0  0  0  0  0  0  0  0  0  0
    7.6417  -14.5975   22.3455 C   0  0  1  0  0  0  0  0  0  0  0  0
    6.1885  -14.8753   22.7550 C   0  0  0  0  0  0  0  0  0  0  0  0
    8.5407  -15.6090   22.9598 C   0  0  2  0  0  0  0  0  0  0  0  0
    8.5581  -15.3071   24.4000 N   0  0  0  0  0  0  0  0  0  0  0  0
    9.9121  -15.6607   22.4562 C   0  0  0  0  0  0  0  0  0  0  0  0
   10.1314  -16.0527   21.2668 O   0  0  0  0  0  0  0  0  0  0  0  0
   11.0503  -15.2941   23.2183 N   0  0  0  0  0  0  0  0  0  0  0  0
   12.3518  -15.3787   22.5854 C   0  0  0  0  0  0  0  0  0  0  0  0
   13.0147  -16.6600   22.7939 C   0  0  0  0  0  0  0  0  0  0  0  0
   12.4044  -17.6094   23.3245 O   0  0  0  0  0  0  0  0  0  0  0  0
   14.3244  -16.8344   22.4057 O   0  0  0  0  0  0  0  0  0  0  0  0
  1  2  1  0
  3  2  1  0
  3  5  1  0
  3  4  1  6
  5  7  1  0
  5  6  1  1
  7  8  2  0
  7 13  1  0
 10  9  1  6
 10 11  1  0
 12 14  1  0
 12 10  1  0
 12 13  1  1
 14 15  2  0
 16 14  1  0
 16 17  1  0
 17 18  1  0
 18 20  1  0
 19 18  2  0
M  END
$$$$
