IVG.pdb
     RDKit          3D

 20 19  0  0  1  0  0  0  0  0999 V2000
    8.1010  -12.9107   28.3315 C   0  0  0  0  0  0  0  0  0  0  0  0
    7.2210  -13.8545   27.5509 C   0  0  0  0  0  0  0  0  0  0  0  0
    7.9617  -14.4037   26.3615 C   0  0  2  0  0  0  0  0  0  0  0  0
    8.4565  -13.3205   25.4404 C   0  0  0  0  0  0  0  0  0  0  0  0
    7.0458  -15.2990   25.5517 C   0  0  2  0  0  0  0  0  0  0  0  0
    6.5827  -16.3254   26.4841 N   0  0  0  0  0  0  0  0  0  0  0  0
    7.7479  -15.9208   24.4079 C   0  0  0  0  0  0  0  0  0  0  0  0
    8.2107  -17.0715   24.5451 O   0  0  0  0  0  0  0  0  0  0  0  0
    6.0703  -15.4310   20.8996 C   0  0  0  0  0  0  0  0  0  0  0  0
    7.5524  -15.3077   20.8427 C   0  0  1  0  0  0  0  0  0  0  0  0
    7.8952  -13.8131   20.7711 C   0  0  0  0  0  0  0  0  0  0  0  0
    8.3188  -15.9486   21.9429 C   0  0  2  0  0  0  0  0  0  0  0  0
    7.9082  -15.2547   23.1740 N   0  0  0  0  0  0  0  0  0  0  0  0
    9.7761  -15.9207   21.8309 C   0  0  0  0  0  0  0  0  0  0  0  0
   10.3440  -16.5126   20.8595 O   0  0  0  0  0  0  0  0  0  0  0  0
   10.6291  -15.2619   22.7522 N   0  0  0  0  0  0  0  0  0  0  0  0
   12.0601  -15.3377   22.5322 C   0  0  0  0  0  0  0  0  0  0  0  0
   12.6922  -16.4593   23.2156 C   0  0  0  0  0  0  0  0  0  0  0  0
   12.0059  -17.4104   23.6395 O   0  0  0  0  0  0  0  0  0  0  0  0
   14.0568  -16.4790   23.3999 O   0  0  0  0  0  0  0  0  0  0  0  0
  1  2  1  0
  3  2  1  0
  3  5  1  0
  3  4  1  6
  5  7  1  0
  5  6  1  1
  7  8  2  0
  7 13  1  0
 10  9  1  1
 10 11  1  0
 12 14  1  0
 12 10  1  0
 12 13  1  1
 14 15  2  0
 16 14  1  0
 16 17  1  0
 17 18  1  0
 18 20  1  0
 19 18  2  0
M  END
$$$$
