IVG.pdb
     RDKit          3D

 20 19  0  0  1  0  0  0  0  0999 V2000
    6.9205  -11.5229   27.9995 C   0  0  0  0  0  0  0  0  0  0  0  0
    6.1197  -12.4581   27.1286 C   0  0  0  0  0  0  0  0  0  0  0  0
    7.0206  -13.4719   26.4761 C   0  0  2  0  0  0  0  0  0  0  0  0
    8.1612  -12.8332   25.7294 C   0  0  0  0  0  0  0  0  0  0  0  0
    6.2330  -14.2943   25.4764 C   0  0  2  0  0  0  0  0  0  0  0  0
    5.3010  -15.0881   26.2756 N   0  0  0  0  0  0  0  0  0  0  0  0
    7.1071  -15.1783   24.6750 C   0  0  0  0  0  0  0  0  0  0  0  0
    7.4052  -16.2996   25.1345 O   0  0  0  0  0  0  0  0  0  0  0  0
    8.6927  -16.0345   20.0463 C   0  0  0  0  0  0  0  0  0  0  0  0
    8.1440  -15.2049   21.1534 C   0  0  1  0  0  0  0  0  0  0  0  0
    6.6463  -14.9995   20.8862 C   0  0  0  0  0  0  0  0  0  0  0  0
    8.3441  -15.7167   22.5343 C   0  0  2  0  0  0  0  0  0  0  0  0
    7.6101  -14.7930   23.4139 N   0  0  0  0  0  0  0  0  0  0  0  0
    9.7259  -15.8352   22.9967 C   0  0  0  0  0  0  0  0  0  0  0  0
   10.3930  -14.7858   23.2616 O   0  0  0  0  0  0  0  0  0  0  0  0
   10.3974  -17.0708   23.1783 N   0  0  0  0  0  0  0  0  0  0  0  0
   11.7616  -17.0409   23.6680 C   0  0  0  0  0  0  0  0  0  0  0  0
   12.7590  -17.0855   22.6059 C   0  0  0  0  0  0  0  0  0  0  0  0
   12.4085  -17.1531   21.4109 O   0  0  0  0  0  0  0  0  0  0  0  0
   14.1009  -17.0533   22.9132 O   0  0  0  0  0  0  0  0  0  0  0  0
  1  2  1  0
  3  2  1  0
  3  5  1  0
  3  4  1  6
  5  7  1  0
  5  6  1  1
  7  8  2  0
  7 13  1  0
 10  9  1  6
 10 11  1  0
 12 14  1  0
 12 10  1  0
 12 13  1  1
 14 15  2  0
 16 14  1  0
 16 17  1  0
 17 18  1  0
 18 20  1  0
 19 18  2  0
M  END
$$$$
