IVG.pdb
     RDKit          3D

 20 19  0  0  1  0  0  0  0  0999 V2000
    7.0692  -11.3030   27.8267 C   0  0  0  0  0  0  0  0  0  0  0  0
    6.2572  -12.3399   27.0919 C   0  0  0  0  0  0  0  0  0  0  0  0
    7.1614  -13.3245   26.4004 C   0  0  2  0  0  0  0  0  0  0  0  0
    8.1941  -12.6506   25.5368 C   0  0  0  0  0  0  0  0  0  0  0  0
    6.3453  -14.2311   25.5013 C   0  0  2  0  0  0  0  0  0  0  0  0
    5.4877  -15.0004   26.4013 N   0  0  0  0  0  0  0  0  0  0  0  0
    7.2008  -15.1374   24.7046 C   0  0  0  0  0  0  0  0  0  0  0  0
    7.6627  -16.1585   25.2533 O   0  0  0  0  0  0  0  0  0  0  0  0
    6.6654  -15.3108   20.6849 C   0  0  0  0  0  0  0  0  0  0  0  0
    8.0850  -15.3988   21.1228 C   0  0  1  0  0  0  0  0  0  0  0  0
    8.7463  -14.0422   20.8421 C   0  0  0  0  0  0  0  0  0  0  0  0
    8.3253  -15.7942   22.5351 C   0  0  2  0  0  0  0  0  0  0  0  0
    7.5074  -14.8824   23.3508 N   0  0  0  0  0  0  0  0  0  0  0  0
    9.7103  -15.7552   23.0013 C   0  0  0  0  0  0  0  0  0  0  0  0
   10.2429  -14.6398   23.2991 O   0  0  0  0  0  0  0  0  0  0  0  0
   10.5283  -16.9036   23.1516 N   0  0  0  0  0  0  0  0  0  0  0  0
   11.8715  -16.7224   23.6663 C   0  0  0  0  0  0  0  0  0  0  0  0
   12.9099  -16.9683   22.6733 C   0  0  0  0  0  0  0  0  0  0  0  0
   12.6332  -16.9785   21.4573 O   0  0  0  0  0  0  0  0  0  0  0  0
   14.2095  -17.1921   23.0700 O   0  0  0  0  0  0  0  0  0  0  0  0
  1  2  1  0
  3  2  1  0
  3  5  1  0
  3  4  1  6
  5  7  1  0
  5  6  1  1
  7  8  2  0
  7 13  1  0
 10  9  1  1
 10 11  1  0
 12 14  1  0
 12 10  1  0
 12 13  1  1
 14 15  2  0
 16 14  1  0
 16 17  1  0
 17 18  1  0
 18 20  1  0
 19 18  2  0
M  END
$$$$
