IVG.pdb
     RDKit          3D

 20 19  0  0  1  0  0  0  0  0999 V2000
    6.5639  -11.5921   27.7710 C   0  0  0  0  0  0  0  0  0  0  0  0
    5.9502  -12.7606   27.0415 C   0  0  0  0  0  0  0  0  0  0  0  0
    7.0128  -13.5560   26.3321 C   0  0  2  0  0  0  0  0  0  0  0  0
    7.8580  -12.7054   25.4217 C   0  0  0  0  0  0  0  0  0  0  0  0
    6.3695  -14.6285   25.4764 C   0  0  2  0  0  0  0  0  0  0  0  0
    5.7250  -15.5419   26.4186 N   0  0  0  0  0  0  0  0  0  0  0  0
    7.3638  -15.3525   24.6549 C   0  0  0  0  0  0  0  0  0  0  0  0
    7.8635  -16.4019   25.1092 O   0  0  0  0  0  0  0  0  0  0  0  0
    9.1089  -15.8566   20.0153 C   0  0  0  0  0  0  0  0  0  0  0  0
    8.3535  -15.2024   21.1181 C   0  0  1  0  0  0  0  0  0  0  0  0
    6.8562  -15.3686   20.8225 C   0  0  0  0  0  0  0  0  0  0  0  0
    8.6495  -15.6672   22.4983 C   0  0  2  0  0  0  0  0  0  0  0  0
    7.7607  -14.8941   23.3804 N   0  0  0  0  0  0  0  0  0  0  0  0
   10.0310  -15.5283   22.9558 C   0  0  0  0  0  0  0  0  0  0  0  0
   10.5144  -14.3694   23.1550 O   0  0  0  0  0  0  0  0  0  0  0  0
   10.8979  -16.6230   23.2022 N   0  0  0  0  0  0  0  0  0  0  0  0
   12.2614  -16.3373   23.6035 C   0  0  0  0  0  0  0  0  0  0  0  0
   13.2288  -16.5032   22.5259 C   0  0  0  0  0  0  0  0  0  0  0  0
   12.8723  -16.9540   21.4191 O   0  0  0  0  0  0  0  0  0  0  0  0
   14.5488  -16.1627   22.7208 O   0  0  0  0  0  0  0  0  0  0  0  0
  1  2  1  0
  3  2  1  0
  3  5  1  0
  3  4  1  6
  5  7  1  0
  5  6  1  1
  7  8  2  0
  7 13  1  0
 10  9  1  6
 10 11  1  0
 12 14  1  0
 12 10  1  0
 12 13  1  1
 14 15  2  0
 16 14  1  0
 16 17  1  0
 17 18  1  0
 18 20  1  0
 19 18  2  0
M  END
$$$$
