FQE.pdb
     RDKit          3D

 30 30  0  0  1  0  0  0  0  0999 V2000
   27.9321  -21.3792   -8.4219 N   0  0  0  0  0  0  0  0  0  0  0  0
   26.6800  -20.6782   -8.2181 C   0  0  1  0  0  0  0  0  0  0  0  0
   26.9997  -19.2964   -7.6474 C   0  0  0  0  0  0  0  0  0  0  0  0
   27.8452  -19.4536   -6.4470 C   0  0  0  0  0  0  0  0  0  0  0  0
   29.0606  -18.8340   -6.3724 C   0  0  0  0  0  0  0  0  0  0  0  0
   29.8292  -18.9927   -5.2503 C   0  0  0  0  0  0  0  0  0  0  0  0
   29.4129  -19.7639   -4.1842 C   0  0  0  0  0  0  0  0  0  0  0  0
   28.1862  -20.3788   -4.2797 C   0  0  0  0  0  0  0  0  0  0  0  0
   27.3987  -20.2266   -5.4092 C   0  0  0  0  0  0  0  0  0  0  0  0
   26.0130  -20.4680   -9.5140 C   0  0  0  0  0  0  0  0  0  0  0  0
   24.9950  -19.7313   -9.5856 O   0  0  0  0  0  0  0  0  0  0  0  0
   29.2558  -20.4536  -14.6819 N   0  0  0  0  0  0  0  0  0  0  0  0
   27.9964  -20.1223  -15.2556 C   0  0  0  0  0  0  0  0  0  0  0  0
   27.9606  -19.8534  -16.4839 O   0  0  0  0  0  0  0  0  0  0  0  0
   26.7633  -20.1030  -14.3932 C   0  0  0  0  0  0  0  0  0  0  0  0
   27.1702  -20.5529  -13.0350 C   0  0  0  0  0  0  0  0  0  0  0  0
   26.0684  -20.6407  -12.0351 C   0  0  2  0  0  0  0  0  0  0  0  0
   26.4759  -21.0752  -10.7290 N   0  0  0  0  0  0  0  0  0  0  0  0
   24.8808  -21.4134  -12.5292 C   0  0  0  0  0  0  0  0  0  0  0  0
   24.8992  -22.6743  -12.5681 O   0  0  0  0  0  0  0  0  0  0  0  0
   23.7472  -20.6695  -12.9473 N   0  0  0  0  0  0  0  0  0  0  0  0
   22.4916  -21.3307  -13.3548 C   0  0  1  0  0  0  0  0  0  0  0  0
   21.4211  -20.9117  -12.4087 C   0  0  0  0  0  0  0  0  0  0  0  0
   20.0564  -21.4640  -12.7018 C   0  0  0  0  0  0  0  0  0  0  0  0
   19.0563  -20.4110  -12.3604 C   0  0  0  0  0  0  0  0  0  0  0  0
   17.8679  -20.5242  -12.7065 O   0  0  0  0  0  0  0  0  0  0  0  0
   22.1865  -20.9735  -14.7457 C   0  0  0  0  0  0  0  0  0  0  0  0
   21.5607  -21.8399  -15.6025 O   0  0  0  0  0  0  0  0  0  0  0  0
   19.4566  -19.2938  -11.6492 O   0  0  0  0  0  0  0  0  0  0  0  0
   22.4951  -19.8279  -15.2266 O   0  0  0  0  0  0  0  0  0  0  0  0
  2  1  1  6
  2 10  1  0
  3  2  1  0
  3  4  1  0
  4  5  2  0
  4  9  1  0
  5  6  1  0
  6  7  2  0
  8  7  1  0
  9  8  2  0
 10 11  2  0
 13 14  2  0
 13 12  1  0
 15 13  1  0
 17 16  1  6
 16 15  1  0
 17 19  1  0
 18 10  1  0
 18 17  1  0
 19 20  2  0
 21 19  1  0
 21 22  1  0
 22 27  1  0
 23 24  1  0
 22 23  1  1
 24 25  1  0
 25 29  1  0
 25 26  2  0
 27 28  1  0
 30 27  2  0
M  END
$$$$
