FQE.pdb
     RDKit          3D

 30 30  0  0  1  0  0  0  0  0999 V2000
   21.2107  -14.1643  -17.0197 N   0  0  0  0  0  0  0  0  0  0  0  0
   21.2252  -12.7686  -17.4100 C   0  0  1  0  0  0  0  0  0  0  0  0
   19.7802  -12.2698  -17.4341 C   0  0  0  0  0  0  0  0  0  0  0  0
   19.0864  -12.8559  -18.5984 C   0  0  0  0  0  0  0  0  0  0  0  0
   18.2392  -13.9155  -18.4362 C   0  0  0  0  0  0  0  0  0  0  0  0
   17.6057  -14.4442  -19.5289 C   0  0  0  0  0  0  0  0  0  0  0  0
   17.7966  -13.9378  -20.7985 C   0  0  0  0  0  0  0  0  0  0  0  0
   18.6535  -12.8712  -20.9398 C   0  0  0  0  0  0  0  0  0  0  0  0
   19.3008  -12.3267  -19.8426 C   0  0  0  0  0  0  0  0  0  0  0  0
   21.9397  -11.9773  -16.3944 C   0  0  0  0  0  0  0  0  0  0  0  0
   21.7660  -12.2191  -15.1714 O   0  0  0  0  0  0  0  0  0  0  0  0
   27.6390  -10.1450  -15.7375 N   0  0  0  0  0  0  0  0  0  0  0  0
   27.0342  -11.4322  -15.6907 C   0  0  0  0  0  0  0  0  0  0  0  0
   27.7895  -12.4380  -15.6738 O   0  0  0  0  0  0  0  0  0  0  0  0
   25.5345  -11.5538  -15.6632 C   0  0  0  0  0  0  0  0  0  0  0  0
   24.9806  -10.1763  -15.7534 C   0  0  0  0  0  0  0  0  0  0  0  0
   23.4928  -10.0860  -15.7619 C   0  0  2  0  0  0  0  0  0  0  0  0
   22.8462  -10.9187  -16.7363 N   0  0  0  0  0  0  0  0  0  0  0  0
   22.9857   -8.6748  -15.8168 C   0  0  0  0  0  0  0  0  0  0  0  0
   22.6023   -8.1665  -16.9059 O   0  0  0  0  0  0  0  0  0  0  0  0
   22.9576   -7.9447  -14.6006 N   0  0  0  0  0  0  0  0  0  0  0  0
   22.4844   -6.5473  -14.5445 C   0  0  1  0  0  0  0  0  0  0  0  0
   22.8709   -5.8776  -15.8168 C   0  0  0  0  0  0  0  0  0  0  0  0
   22.3380   -4.4856  -15.9945 C   0  0  0  0  0  0  0  0  0  0  0  0
   22.6390   -4.0578  -17.3917 C   0  0  0  0  0  0  0  0  0  0  0  0
   21.7528   -4.0568  -18.2631 O   0  0  0  0  0  0  0  0  0  0  0  0
   21.0335   -6.5369  -14.3200 C   0  0  0  0  0  0  0  0  0  0  0  0
   20.2854   -7.6843  -14.3203 O   0  0  0  0  0  0  0  0  0  0  0  0
   23.9214   -3.6570  -17.7219 O   0  0  0  0  0  0  0  0  0  0  0  0
   20.3951   -5.4465  -14.1140 O   0  0  0  0  0  0  0  0  0  0  0  0
  2  1  1  1
  2 10  1  0
  3  2  1  0
  3  4  1  0
  4  5  2  0
  4  9  1  0
  5  6  1  0
  6  7  2  0
  8  7  1  0
  9  8  2  0
 10 11  2  0
 13 14  2  0
 13 12  1  0
 15 13  1  0
 17 16  1  6
 16 15  1  0
 17 19  1  0
 18 10  1  0
 18 17  1  0
 19 20  2  0
 21 19  1  0
 21 22  1  0
 22 27  1  0
 23 24  1  0
 22 23  1  6
 24 25  1  0
 25 29  1  0
 25 26  2  0
 27 28  1  0
 30 27  2  0
M  END
$$$$
