FQE.pdb
     RDKit          3D

 30 30  0  0  1  0  0  0  0  0999 V2000
   28.7470  -21.1023   -8.4481 N   0  0  0  0  0  0  0  0  0  0  0  0
   27.3298  -20.7997   -8.4205 C   0  0  1  0  0  0  0  0  0  0  0  0
   27.1514  -19.4327   -7.7597 C   0  0  0  0  0  0  0  0  0  0  0  0
   27.6460  -19.4998   -6.3700 C   0  0  0  0  0  0  0  0  0  0  0  0
   26.9139  -20.1337   -5.4062 C   0  0  0  0  0  0  0  0  0  0  0  0
   27.3905  -20.1847   -4.1236 C   0  0  0  0  0  0  0  0  0  0  0  0
   28.5955  -19.6122   -3.7700 C   0  0  0  0  0  0  0  0  0  0  0  0
   29.3166  -18.9791   -4.7553 C   0  0  0  0  0  0  0  0  0  0  0  0
   28.8460  -18.9202   -6.0569 C   0  0  0  0  0  0  0  0  0  0  0  0
   26.8205  -20.6852   -9.7974 C   0  0  0  0  0  0  0  0  0  0  0  0
   27.6234  -20.5320  -10.7545 O   0  0  0  0  0  0  0  0  0  0  0  0
   27.4212  -21.3144  -13.7210 N   0  0  0  0  0  0  0  0  0  0  0  0
   26.2166  -21.6702  -14.3899 C   0  0  0  0  0  0  0  0  0  0  0  0
   26.1727  -21.5301  -15.6393 O   0  0  0  0  0  0  0  0  0  0  0  0
   25.0488  -22.1952  -13.5993 C   0  0  0  0  0  0  0  0  0  0  0  0
   25.4177  -22.1084  -12.1609 C   0  0  0  0  0  0  0  0  0  0  0  0
   24.9160  -20.9011  -11.4451 C   0  0  2  0  0  0  0  0  0  0  0  0
   25.4214  -20.7407  -10.1110 N   0  0  0  0  0  0  0  0  0  0  0  0
   23.4225  -20.7638  -11.4908 C   0  0  0  0  0  0  0  0  0  0  0  0
   22.6907  -21.3721  -10.6624 O   0  0  0  0  0  0  0  0  0  0  0  0
   22.8754  -19.9277  -12.4982 N   0  0  0  0  0  0  0  0  0  0  0  0
   21.4216  -19.6961  -12.6100 C   0  0  1  0  0  0  0  0  0  0  0  0
   21.1839  -18.8130  -13.7849 C   0  0  0  0  0  0  0  0  0  0  0  0
   21.6961  -19.3388  -15.0943 C   0  0  0  0  0  0  0  0  0  0  0  0
   21.3603  -18.3385  -16.1490 C   0  0  0  0  0  0  0  0  0  0  0  0
   20.7336  -17.3024  -15.8687 O   0  0  0  0  0  0  0  0  0  0  0  0
   20.7338  -20.9879  -12.7273 C   0  0  0  0  0  0  0  0  0  0  0  0
   19.4495  -21.1747  -12.2891 O   0  0  0  0  0  0  0  0  0  0  0  0
   21.7514  -18.5671  -17.4563 O   0  0  0  0  0  0  0  0  0  0  0  0
   21.3074  -22.0078  -13.2465 O   0  0  0  0  0  0  0  0  0  0  0  0
  2  1  1  6
  2 10  1  0
  3  2  1  0
  3  4  1  0
  4  5  2  0
  4  9  1  0
  5  6  1  0
  6  7  2  0
  8  7  1  0
  9  8  2  0
 10 11  2  0
 13 14  2  0
 13 12  1  0
 15 13  1  0
 17 16  1  1
 16 15  1  0
 17 19  1  0
 18 10  1  0
 18 17  1  0
 19 20  2  0
 21 19  1  0
 21 22  1  0
 22 27  1  0
 23 24  1  0
 22 23  1  6
 24 25  1  0
 25 29  1  0
 25 26  2  0
 27 28  1  0
 30 27  2  0
M  END
$$$$
