FQE.pdb
     RDKit          3D

 30 30  0  0  1  0  0  0  0  0999 V2000
   17.3073  -13.1226    4.1748 N   0  0  0  0  0  0  0  0  0  0  0  0
   17.1940  -14.5652    4.2579 C   0  0  1  0  0  0  0  0  0  0  0  0
   18.0946  -15.1725    3.1821 C   0  0  0  0  0  0  0  0  0  0  0  0
   17.5068  -16.4471    2.7235 C   0  0  0  0  0  0  0  0  0  0  0  0
   18.1298  -17.1875    1.7589 C   0  0  0  0  0  0  0  0  0  0  0  0
   17.5681  -18.3665    1.3477 C   0  0  0  0  0  0  0  0  0  0  0  0
   16.3840  -18.8350    1.8799 C   0  0  0  0  0  0  0  0  0  0  0  0
   15.7732  -18.0745    2.8496 C   0  0  0  0  0  0  0  0  0  0  0  0
   16.3308  -16.8797    3.2747 C   0  0  0  0  0  0  0  0  0  0  0  0
   17.7021  -15.0280    5.5602 C   0  0  0  0  0  0  0  0  0  0  0  0
   18.8252  -14.6370    5.9725 O   0  0  0  0  0  0  0  0  0  0  0  0
   17.8822  -14.4883   11.2098 N   0  0  0  0  0  0  0  0  0  0  0  0
   17.6496  -15.8922   11.2227 C   0  0  0  0  0  0  0  0  0  0  0  0
   17.2027  -16.4059   12.2804 O   0  0  0  0  0  0  0  0  0  0  0  0
   17.9393  -16.7099    9.9930 C   0  0  0  0  0  0  0  0  0  0  0  0
   17.3004  -16.0153    8.8432 C   0  0  0  0  0  0  0  0  0  0  0  0
   17.5476  -16.6309    7.5084 C   0  0  2  0  0  0  0  0  0  0  0  0
   16.9639  -15.9240    6.4037 N   0  0  0  0  0  0  0  0  0  0  0  0
   17.2215  -18.0949    7.4623 C   0  0  0  0  0  0  0  0  0  0  0  0
   16.2417  -18.5192    6.7902 O   0  0  0  0  0  0  0  0  0  0  0  0
   18.0563  -18.9721    8.2017 N   0  0  0  0  0  0  0  0  0  0  0  0
   17.9065  -20.4386    8.1210 C   0  0  1  0  0  0  0  0  0  0  0  0
   18.1291  -20.8483    6.7071 C   0  0  0  0  0  0  0  0  0  0  0  0
   18.0260  -22.3227    6.4446 C   0  0  0  0  0  0  0  0  0  0  0  0
   18.2005  -22.5373    4.9786 C   0  0  0  0  0  0  0  0  0  0  0  0
   19.1669  -22.0436    4.3725 O   0  0  0  0  0  0  0  0  0  0  0  0
   18.8524  -21.0730    9.0475 C   0  0  0  0  0  0  0  0  0  0  0  0
   18.7059  -22.3681    9.4688 O   0  0  0  0  0  0  0  0  0  0  0  0
   17.2747  -23.2957    4.2844 O   0  0  0  0  0  0  0  0  0  0  0  0
   19.8644  -20.4398    9.5098 O   0  0  0  0  0  0  0  0  0  0  0  0
  2  1  1  1
  2 10  1  0
  3  2  1  0
  3  4  1  0
  4  5  2  0
  4  9  1  0
  5  6  1  0
  6  7  2  0
  8  7  1  0
  9  8  2  0
 10 11  2  0
 13 14  2  0
 13 12  1  0
 15 13  1  0
 17 16  1  1
 16 15  1  0
 17 19  1  0
 18 10  1  0
 18 17  1  0
 19 20  2  0
 21 19  1  0
 21 22  1  0
 22 27  1  0
 23 24  1  0
 22 23  1  6
 24 25  1  0
 25 29  1  0
 25 26  2  0
 27 28  1  0
 30 27  2  0
M  END
$$$$
