AMN.pdb
     RDKit          3D

 22 21  0  0  1  0  0  0  0  0999 V2000
   15.9469  -13.8486  -15.7796 C   0  0  0  0  0  0  0  0  0  0  0  0
   16.1943  -12.3593  -15.7019 C   0  0  2  0  0  0  0  0  0  0  0  0
   15.6522  -11.7551  -16.8991 N   0  0  0  0  0  0  0  0  0  0  0  0
   17.6320  -12.0404  -15.5216 C   0  0  0  0  0  0  0  0  0  0  0  0
   18.2803  -12.4837  -14.5399 O   0  0  0  0  0  0  0  0  0  0  0  0
   20.6807  -12.1669  -20.6530 C   0  0  0  0  0  0  0  0  0  0  0  0
   21.7510  -12.8348  -19.3513 S   0  0  0  0  0  0  0  0  0  0  0  0
   20.8547  -12.7139  -17.7542 C   0  0  0  0  0  0  0  0  0  0  0  0
   20.5352  -11.2488  -17.5683 C   0  0  0  0  0  0  0  0  0  0  0  0
   19.7755  -10.9692  -16.2911 C   0  0  2  0  0  0  0  0  0  0  0  0
   18.3587  -11.2227  -16.4377 N   0  0  0  0  0  0  0  0  0  0  0  0
   19.9442   -9.5219  -16.0095 C   0  0  0  0  0  0  0  0  0  0  0  0
   19.1527   -8.6985  -16.5303 O   0  0  0  0  0  0  0  0  0  0  0  0
   21.6996   -4.9466  -14.6085 N   0  0  0  0  0  0  0  0  0  0  0  0
   22.1992   -5.8265  -13.6089 C   0  0  0  0  0  0  0  0  0  0  0  0
   22.8287   -5.3024  -12.6553 O   0  0  0  0  0  0  0  0  0  0  0  0
   21.9407   -7.2591  -13.7727 C   0  0  0  0  0  0  0  0  0  0  0  0
   21.1434   -7.5948  -15.0125 C   0  0  2  0  0  0  0  0  0  0  0  0
   20.9743   -9.0219  -15.1666 N   0  0  0  0  0  0  0  0  0  0  0  0
   21.7195   -7.0433  -16.2354 C   0  0  0  0  0  0  0  0  0  0  0  0
   21.2996   -5.8206  -16.7289 O   0  0  0  0  0  0  0  0  0  0  0  0
   22.6096   -7.6514  -16.8805 O   0  0  0  0  0  0  0  0  0  0  0  0
  2  4  1  0
  2  1  1  6
  3  2  1  0
  4  5  2  0
  4 11  1  0
  7  6  1  0
  7  8  1  0
  8  9  1  0
 10  9  1  6
 10 12  1  0
 11 10  1  0
 12 19  1  0
 12 13  2  0
 14 15  1  0
 15 17  1  0
 16 15  2  0
 18 17  1  1
 18 20  1  0
 19 18  1  0
 20 21  1  0
 22 20  2  0
M  END
$$$$
