AMN.pdb
     RDKit          3D

 22 21  0  0  1  0  0  0  0  0999 V2000
   44.5320   -9.7407   -5.7261 C   0  0  0  0  0  0  0  0  0  0  0  0
   44.3467  -10.8915   -6.6887 C   0  0  2  0  0  0  0  0  0  0  0  0
   45.6580  -11.3522   -7.0892 N   0  0  0  0  0  0  0  0  0  0  0  0
   43.5107  -10.5153   -7.8551 C   0  0  0  0  0  0  0  0  0  0  0  0
   44.0197  -10.0042   -8.8848 O   0  0  0  0  0  0  0  0  0  0  0  0
   41.2057  -12.8659  -13.0928 C   0  0  0  0  0  0  0  0  0  0  0  0
   40.7418  -11.5907  -11.8908 S   0  0  0  0  0  0  0  0  0  0  0  0
   40.5964  -12.3834  -10.2417 C   0  0  0  0  0  0  0  0  0  0  0  0
   40.1751  -11.2874   -9.2908 C   0  0  0  0  0  0  0  0  0  0  0  0
   41.2824  -10.2980   -9.0050 C   0  0  2  0  0  0  0  0  0  0  0  0
   42.0970  -10.7072   -7.8815 N   0  0  0  0  0  0  0  0  0  0  0  0
   40.6213   -9.0215   -8.6366 C   0  0  0  0  0  0  0  0  0  0  0  0
   40.0921   -8.9083   -7.5041 O   0  0  0  0  0  0  0  0  0  0  0  0
   40.8642   -3.6180   -7.1787 N   0  0  0  0  0  0  0  0  0  0  0  0
   40.2329   -4.4153   -8.1730 C   0  0  0  0  0  0  0  0  0  0  0  0
   39.1873   -3.9504   -8.6932 O   0  0  0  0  0  0  0  0  0  0  0  0
   40.8492   -5.7021   -8.5054 C   0  0  0  0  0  0  0  0  0  0  0  0
   39.8852   -6.7008   -9.1043 C   0  0  2  0  0  0  0  0  0  0  0  0
   40.5603   -7.9092   -9.5202 N   0  0  0  0  0  0  0  0  0  0  0  0
   39.1229   -6.1641  -10.2279 C   0  0  0  0  0  0  0  0  0  0  0  0
   39.6251   -6.2177  -11.5162 O   0  0  0  0  0  0  0  0  0  0  0  0
   37.9931   -5.6379  -10.0700 O   0  0  0  0  0  0  0  0  0  0  0  0
  2  4  1  0
  2  1  1  1
  3  2  1  0
  4  5  2  0
  4 11  1  0
  7  6  1  0
  7  8  1  0
  8  9  1  0
 10  9  1  1
 10 12  1  0
 11 10  1  0
 12 19  1  0
 12 13  2  0
 14 15  1  0
 15 17  1  0
 16 15  2  0
 18 17  1  6
 18 20  1  0
 19 18  1  0
 20 21  1  0
 22 20  2  0
M  END
$$$$
