AMN.pdb
     RDKit          3D

 22 21  0  0  1  0  0  0  0  0999 V2000
   21.4395  -14.3200  -20.8026 C   0  0  0  0  0  0  0  0  0  0  0  0
   21.6868  -12.8398  -20.9853 C   0  0  2  0  0  0  0  0  0  0  0  0
   22.8415  -12.6842  -21.8425 N   0  0  0  0  0  0  0  0  0  0  0  0
   21.8591  -12.1379  -19.6897 C   0  0  0  0  0  0  0  0  0  0  0  0
   20.9467  -12.1320  -18.8247 O   0  0  0  0  0  0  0  0  0  0  0  0
   26.7633  -10.2280  -14.0736 C   0  0  0  0  0  0  0  0  0  0  0  0
   26.6021  -10.1795  -15.8784 S   0  0  0  0  0  0  0  0  0  0  0  0
   24.8198  -10.0294  -16.2907 C   0  0  0  0  0  0  0  0  0  0  0  0
   24.6275  -10.7913  -17.5813 C   0  0  0  0  0  0  0  0  0  0  0  0
   23.2056  -10.7341  -18.0926 C   0  0  2  0  0  0  0  0  0  0  0  0
   23.0535  -11.4358  -19.3486 N   0  0  0  0  0  0  0  0  0  0  0  0
   22.9051   -9.3022  -18.3410 C   0  0  0  0  0  0  0  0  0  0  0  0
   23.4083   -8.7334  -19.3404 O   0  0  0  0  0  0  0  0  0  0  0  0
   19.2394   -4.9621  -18.4972 N   0  0  0  0  0  0  0  0  0  0  0  0
   20.1785   -5.2845  -17.4788 C   0  0  0  0  0  0  0  0  0  0  0  0
   20.6926   -4.3212  -16.8559 O   0  0  0  0  0  0  0  0  0  0  0  0
   20.4662   -6.7014  -17.2425 C   0  0  0  0  0  0  0  0  0  0  0  0
   21.7988   -7.1515  -17.7967 C   0  0  2  0  0  0  0  0  0  0  0  0
   22.0631   -8.5383  -17.4872 N   0  0  0  0  0  0  0  0  0  0  0  0
   22.9189   -6.3341  -17.3399 C   0  0  0  0  0  0  0  0  0  0  0  0
   23.4653   -6.5185  -16.0820 O   0  0  0  0  0  0  0  0  0  0  0  0
   23.4248   -5.4407  -18.0639 O   0  0  0  0  0  0  0  0  0  0  0  0
  2  4  1  0
  2  1  1  1
  3  2  1  0
  4  5  2  0
  4 11  1  0
  7  6  1  0
  7  8  1  0
  8  9  1  0
 10  9  1  6
 10 12  1  0
 11 10  1  0
 12 19  1  0
 12 13  2  0
 14 15  1  0
 15 17  1  0
 16 15  2  0
 18 17  1  1
 18 20  1  0
 19 18  1  0
 20 21  1  0
 22 20  2  0
M  END
$$$$
