LGL.pdb
     RDKit          3D

 21 20  0  0  1  0  0  0  0  0999 V2000
   21.4979  -19.7573  -13.7836 C   0  0  0  0  0  0  0  0  0  0  0  0
   22.4954  -20.0135  -14.9015 C   0  0  2  0  0  0  0  0  0  0  0  0
   21.7862  -20.6721  -16.0617 C   0  0  0  0  0  0  0  0  0  0  0  0
   23.6688  -20.8257  -14.4126 C   0  0  0  0  0  0  0  0  0  0  0  0
   24.3137  -20.1208  -13.2700 C   0  0  2  0  0  0  0  0  0  0  0  0
   24.8869  -18.8479  -13.6519 N   0  0  0  0  0  0  0  0  0  0  0  0
   25.4239  -20.9222  -12.6641 C   0  0  0  0  0  0  0  0  0  0  0  0
   25.2751  -22.1087  -12.2737 O   0  0  0  0  0  0  0  0  0  0  0  0
   26.7195  -20.3475  -12.5073 N   0  0  0  0  0  0  0  0  0  0  0  0
   27.8487  -21.0865  -12.0129 C   0  0  0  0  0  0  0  0  0  0  0  0
   27.6818  -21.2940  -10.5406 C   0  0  0  0  0  0  0  0  0  0  0  0
   28.3574  -22.1790   -9.9682 O   0  0  0  0  0  0  0  0  0  0  0  0
   28.5439  -18.3533   -6.0044 C   0  0  0  0  0  0  0  0  0  0  0  0
   28.1653  -19.6857   -6.5868 C   0  0  1  0  0  0  0  0  0  0  0  0
   27.8505  -20.6882   -5.4907 C   0  0  0  0  0  0  0  0  0  0  0  0
   27.1644  -19.6171   -7.6450 C   0  0  0  0  0  0  0  0  0  0  0  0
   26.6087  -20.7957   -8.3173 C   0  0  2  0  0  0  0  0  0  0  0  0
   26.7838  -20.5216   -9.7711 N   0  0  0  0  0  0  0  0  0  0  0  0
   25.2635  -21.2503   -8.0433 C   0  0  0  0  0  0  0  0  0  0  0  0
   25.0929  -22.0560   -6.8839 O   0  0  0  0  0  0  0  0  0  0  0  0
   24.2097  -21.0500   -8.6655 O   0  0  0  0  0  0  0  0  0  0  0  0
  2  1  1  1
  3  2  1  0
  4  2  1  0
  5  4  1  0
  5  6  1  6
  7  5  1  0
  7  8  2  0
  9  7  1  0
 10  9  1  0
 10 11  1  0
 11 18  1  0
 12 11  2  0
 14 15  1  1
 14 13  1  0
 16 14  1  0
 17 16  1  1
 18 17  1  0
 19 20  1  0
 19 17  1  0
 21 19  2  0
M  END
$$$$
