LGL.pdb
     RDKit          3D

 21 20  0  0  1  0  0  0  0  0999 V2000
   23.2272  -21.6285  -15.6745 C   0  0  0  0  0  0  0  0  0  0  0  0
   23.1727  -21.2167  -14.2124 C   0  0  2  0  0  0  0  0  0  0  0  0
   21.7880  -20.7059  -13.8892 C   0  0  0  0  0  0  0  0  0  0  0  0
   24.2453  -20.2069  -13.8878 C   0  0  0  0  0  0  0  0  0  0  0  0
   25.5796  -20.8642  -13.9632 C   0  0  2  0  0  0  0  0  0  0  0  0
   25.4877  -22.3074  -14.0227 N   0  0  0  0  0  0  0  0  0  0  0  0
   26.4377  -20.5414  -12.7794 C   0  0  0  0  0  0  0  0  0  0  0  0
   26.4275  -19.4172  -12.2151 O   0  0  0  0  0  0  0  0  0  0  0  0
   27.3166  -21.5271  -12.2415 N   0  0  0  0  0  0  0  0  0  0  0  0
   28.1849  -21.2751  -11.1242 C   0  0  0  0  0  0  0  0  0  0  0  0
   27.3956  -21.4105   -9.8603 C   0  0  0  0  0  0  0  0  0  0  0  0
   26.5923  -22.3633   -9.7413 O   0  0  0  0  0  0  0  0  0  0  0  0
   29.2140  -18.7082   -5.3618 C   0  0  0  0  0  0  0  0  0  0  0  0
   28.6680  -19.9132   -6.0745 C   0  0  1  0  0  0  0  0  0  0  0  0
   28.8795  -21.1726   -5.2532 C   0  0  0  0  0  0  0  0  0  0  0  0
   27.3117  -19.7476   -6.5838 C   0  0  0  0  0  0  0  0  0  0  0  0
   26.6955  -20.6459   -7.5652 C   0  0  2  0  0  0  0  0  0  0  0  0
   27.5268  -20.4957   -8.7922 N   0  0  0  0  0  0  0  0  0  0  0  0
   25.2890  -20.5516   -7.8884 C   0  0  0  0  0  0  0  0  0  0  0  0
   24.4006  -21.2983   -7.0663 O   0  0  0  0  0  0  0  0  0  0  0  0
   24.7156  -19.9135   -8.7837 O   0  0  0  0  0  0  0  0  0  0  0  0
  2  1  1  6
  3  2  1  0
  4  2  1  0
  5  4  1  0
  5  6  1  1
  7  5  1  0
  7  8  2  0
  9  7  1  0
 10  9  1  0
 10 11  1  0
 11 18  1  0
 12 11  2  0
 14 15  1  1
 14 13  1  0
 16 14  1  0
 17 16  1  1
 18 17  1  0
 19 20  1  0
 19 17  1  0
 21 19  2  0
M  END
$$$$
