LGL.pdb
     RDKit          3D

 21 20  0  0  1  0  0  0  0  0999 V2000
   23.8683  -21.7102  -17.4481 C   0  0  0  0  0  0  0  0  0  0  0  0
   24.2670  -22.1800  -16.0586 C   0  0  2  0  0  0  0  0  0  0  0  0
   23.6756  -23.5471  -15.8054 C   0  0  0  0  0  0  0  0  0  0  0  0
   23.8637  -21.1782  -15.0054 C   0  0  0  0  0  0  0  0  0  0  0  0
   24.7214  -19.9663  -15.1244 C   0  0  2  0  0  0  0  0  0  0  0  0
   25.9673  -20.2303  -15.8119 N   0  0  0  0  0  0  0  0  0  0  0  0
   25.0855  -19.3969  -13.7883 C   0  0  0  0  0  0  0  0  0  0  0  0
   24.2268  -19.0342  -12.9437 O   0  0  0  0  0  0  0  0  0  0  0  0
   26.4557  -19.2447  -13.4238 N   0  0  0  0  0  0  0  0  0  0  0  0
   26.8738  -18.7606  -12.1367 C   0  0  0  0  0  0  0  0  0  0  0  0
   26.6359  -19.8309  -11.1186 C   0  0  0  0  0  0  0  0  0  0  0  0
   26.6745  -21.0308  -11.4738 O   0  0  0  0  0  0  0  0  0  0  0  0
   28.3300  -18.8939   -6.0760 C   0  0  0  0  0  0  0  0  0  0  0  0
   28.0745  -19.6374   -7.3566 C   0  0  1  0  0  0  0  0  0  0  0  0
   29.1298  -20.7050   -7.5850 C   0  0  0  0  0  0  0  0  0  0  0  0
   26.7023  -20.1034   -7.5183 C   0  0  0  0  0  0  0  0  0  0  0  0
   26.1641  -20.6286   -8.7769 C   0  0  2  0  0  0  0  0  0  0  0  0
   26.3681  -19.5321   -9.7644 N   0  0  0  0  0  0  0  0  0  0  0  0
   24.8148  -21.1429   -8.8586 C   0  0  0  0  0  0  0  0  0  0  0  0
   24.5316  -22.2996   -8.0812 O   0  0  0  0  0  0  0  0  0  0  0  0
   23.8415  -20.7338   -9.5089 O   0  0  0  0  0  0  0  0  0  0  0  0
  2  1  1  6
  3  2  1  0
  4  2  1  0
  5  4  1  0
  5  6  1  1
  7  5  1  0
  7  8  2  0
  9  7  1  0
 10  9  1  0
 10 11  1  0
 11 18  1  0
 12 11  2  0
 14 15  1  1
 14 13  1  0
 16 14  1  0
 17 16  1  1
 18 17  1  0
 19 20  1  0
 19 17  1  0
 21 19  2  0
M  END
$$$$
