LGL.pdb
     RDKit          3D

 21 20  0  0  1  0  0  0  0  0999 V2000
   18.1395  -22.3165    4.5434 C   0  0  0  0  0  0  0  0  0  0  0  0
   17.2922  -21.1019    4.8863 C   0  0  2  0  0  0  0  0  0  0  0  0
   15.8923  -21.5522    5.2334 C   0  0  0  0  0  0  0  0  0  0  0  0
   17.3070  -20.0907    3.7670 C   0  0  0  0  0  0  0  0  0  0  0  0
   15.9745  -19.4307    3.6821 C   0  0  2  0  0  0  0  0  0  0  0  0
   15.3697  -19.5618    2.3737 N   0  0  0  0  0  0  0  0  0  0  0  0
   16.0499  -17.9634    3.9704 C   0  0  0  0  0  0  0  0  0  0  0  0
   16.5021  -17.1279    3.1459 O   0  0  0  0  0  0  0  0  0  0  0  0
   15.5984  -17.4555    5.2241 N   0  0  0  0  0  0  0  0  0  0  0  0
   15.5581  -16.0520    5.5310 C   0  0  0  0  0  0  0  0  0  0  0  0
   16.8824  -15.6439    6.0955 C   0  0  0  0  0  0  0  0  0  0  0  0
   17.7114  -16.5283    6.4084 O   0  0  0  0  0  0  0  0  0  0  0  0
   21.3879  -12.6614    6.3843 C   0  0  0  0  0  0  0  0  0  0  0  0
   20.1120  -11.9077    6.6331 C   0  0  1  0  0  0  0  0  0  0  0  0
   20.1791  -10.5134    6.0356 C   0  0  0  0  0  0  0  0  0  0  0  0
   18.9010  -12.6479    6.2987 C   0  0  0  0  0  0  0  0  0  0  0  0
   18.5328  -13.9268    6.9142 C   0  0  2  0  0  0  0  0  0  0  0  0
   17.2303  -14.2886    6.2882 N   0  0  0  0  0  0  0  0  0  0  0  0
   18.4658  -14.0755    8.3512 C   0  0  0  0  0  0  0  0  0  0  0  0
   19.6344  -14.5751    8.9896 O   0  0  0  0  0  0  0  0  0  0  0  0
   17.5377  -13.8345    9.1373 O   0  0  0  0  0  0  0  0  0  0  0  0
  2  1  1  6
  3  2  1  0
  4  2  1  0
  5  4  1  0
  5  6  1  6
  7  5  1  0
  7  8  2  0
  9  7  1  0
 10  9  1  0
 10 11  1  0
 11 18  1  0
 12 11  2  0
 14 15  1  6
 14 13  1  0
 16 14  1  0
 17 16  1  1
 18 17  1  0
 19 20  1  0
 19 17  1  0
 21 19  2  0
M  END
$$$$
