LGL.pdb
     RDKit          3D

 21 20  0  0  1  0  0  0  0  0999 V2000
   16.9520  -12.5470  -17.5509 C   0  0  0  0  0  0  0  0  0  0  0  0
   18.3434  -11.9704  -17.3459 C   0  0  2  0  0  0  0  0  0  0  0  0
   19.2690  -13.0614  -16.8604 C   0  0  0  0  0  0  0  0  0  0  0  0
   18.3132  -10.7873  -16.4105 C   0  0  0  0  0  0  0  0  0  0  0  0
   17.4297   -9.7320  -16.9796 C   0  0  2  0  0  0  0  0  0  0  0  0
   17.9657   -9.1497  -18.1914 N   0  0  0  0  0  0  0  0  0  0  0  0
   17.2120   -8.5998  -16.0242 C   0  0  0  0  0  0  0  0  0  0  0  0
   16.6847   -8.7533  -14.8925 O   0  0  0  0  0  0  0  0  0  0  0  0
   17.6073   -7.2766  -16.3794 N   0  0  0  0  0  0  0  0  0  0  0  0
   17.4014   -6.1417  -15.5219 C   0  0  0  0  0  0  0  0  0  0  0  0
   18.5728   -6.0157  -14.5996 C   0  0  0  0  0  0  0  0  0  0  0  0
   18.5486   -5.1487  -13.6968 O   0  0  0  0  0  0  0  0  0  0  0  0
   21.8584   -8.6680  -11.2332 C   0  0  0  0  0  0  0  0  0  0  0  0
   22.3576   -8.5111  -12.6418 C   0  0  1  0  0  0  0  0  0  0  0  0
   23.1796   -9.7158  -13.0644 C   0  0  0  0  0  0  0  0  0  0  0  0
   21.3345   -8.1141  -13.6019 C   0  0  0  0  0  0  0  0  0  0  0  0
   20.8168   -6.7474  -13.7212 C   0  0  2  0  0  0  0  0  0  0  0  0
   19.7100   -6.8457  -14.7134 N   0  0  0  0  0  0  0  0  0  0  0  0
   21.6905   -5.6401  -14.0410 C   0  0  0  0  0  0  0  0  0  0  0  0
   22.3253   -4.9987  -12.9418 O   0  0  0  0  0  0  0  0  0  0  0  0
   21.9847   -5.1454  -15.1393 O   0  0  0  0  0  0  0  0  0  0  0  0
  2  1  1  1
  3  2  1  0
  4  2  1  0
  5  4  1  0
  5  6  1  6
  7  5  1  0
  7  8  2  0
  9  7  1  0
 10  9  1  0
 10 11  1  0
 11 18  1  0
 12 11  2  0
 14 15  1  6
 14 13  1  0
 16 14  1  0
 17 16  1  6
 18 17  1  0
 19 20  1  0
 19 17  1  0
 21 19  2  0
M  END
$$$$
