LGL.pdb
     RDKit          3D

 21 20  0  0  1  0  0  0  0  0999 V2000
   17.0818  -10.3068  -20.0798 C   0  0  0  0  0  0  0  0  0  0  0  0
   16.4572  -11.0088  -18.8850 C   0  0  2  0  0  0  0  0  0  0  0  0
   14.9646  -11.1156  -19.0933 C   0  0  0  0  0  0  0  0  0  0  0  0
   16.8063  -10.3090  -17.5951 C   0  0  0  0  0  0  0  0  0  0  0  0
   18.2877  -10.2391  -17.4580 C   0  0  2  0  0  0  0  0  0  0  0  0
   18.8875  -11.5347  -17.2202 N   0  0  0  0  0  0  0  0  0  0  0  0
   18.7105   -9.3601  -16.3220 C   0  0  0  0  0  0  0  0  0  0  0  0
   18.3212   -8.1704  -16.1978 O   0  0  0  0  0  0  0  0  0  0  0  0
   19.5920   -9.8601  -15.3189 N   0  0  0  0  0  0  0  0  0  0  0  0
   20.0548   -9.0631  -14.2159 C   0  0  0  0  0  0  0  0  0  0  0  0
   20.8193   -7.8945  -14.7532 C   0  0  0  0  0  0  0  0  0  0  0  0
   21.6203   -8.0716  -15.6989 O   0  0  0  0  0  0  0  0  0  0  0  0
   21.9911   -3.7294  -17.3351 C   0  0  0  0  0  0  0  0  0  0  0  0
   20.9302   -3.4759  -16.3016 C   0  0  1  0  0  0  0  0  0  0  0  0
   19.7655   -2.7044  -16.8963 C   0  0  0  0  0  0  0  0  0  0  0  0
   20.5426   -4.6547  -15.5357 C   0  0  0  0  0  0  0  0  0  0  0  0
   21.4843   -5.4654  -14.7574 C   0  0  2  0  0  0  0  0  0  0  0  0
   20.6673   -6.5925  -14.2271 N   0  0  0  0  0  0  0  0  0  0  0  0
   22.2871   -4.8800  -13.7065 C   0  0  0  0  0  0  0  0  0  0  0  0
   23.5615   -4.3786  -14.0901 O   0  0  0  0  0  0  0  0  0  0  0  0
   22.0436   -4.7393  -12.4988 O   0  0  0  0  0  0  0  0  0  0  0  0
  2  1  1  6
  3  2  1  0
  4  2  1  0
  5  4  1  0
  5  6  1  1
  7  5  1  0
  7  8  2  0
  9  7  1  0
 10  9  1  0
 10 11  1  0
 11 18  1  0
 12 11  2  0
 14 15  1  6
 14 13  1  0
 16 14  1  0
 17 16  1  1
 18 17  1  0
 19 20  1  0
 19 17  1  0
 21 19  2  0
M  END
$$$$
