QAS.pdb
     RDKit          3D

 21 20  0  0  1  0  0  0  0  0999 V2000
   14.8612  -11.9432  -17.6478 N   0  0  0  0  0  0  0  0  0  0  0  0
   15.6570  -13.1343  -17.7451 C   0  0  0  0  0  0  0  0  0  0  0  0
   15.1376  -14.0630  -18.4009 O   0  0  0  0  0  0  0  0  0  0  0  0
   16.9585  -13.1619  -17.0988 C   0  0  0  0  0  0  0  0  0  0  0  0
   17.4024  -11.9131  -16.4330 C   0  0  0  0  0  0  0  0  0  0  0  0
   18.7040  -11.9652  -15.7102 C   0  0  2  0  0  0  0  0  0  0  0  0
   18.7445  -13.0402  -14.7886 N   0  0  0  0  0  0  0  0  0  0  0  0
   18.8988  -10.6464  -15.0365 C   0  0  0  0  0  0  0  0  0  0  0  0
   18.1148  -10.1823  -14.1829 O   0  0  0  0  0  0  0  0  0  0  0  0
   21.7395   -8.2043  -14.8789 C   0  0  0  0  0  0  0  0  0  0  0  0
   20.2786   -8.5904  -14.8060 C   0  0  2  0  0  0  0  0  0  0  0  0
   20.0427   -9.8893  -15.3952 N   0  0  0  0  0  0  0  0  0  0  0  0
   19.4112   -7.6001  -15.4724 C   0  0  0  0  0  0  0  0  0  0  0  0
   19.0878   -7.7648  -16.6572 O   0  0  0  0  0  0  0  0  0  0  0  0
   16.5513   -5.6123  -13.6749 O   0  0  0  0  0  0  0  0  0  0  0  0
   17.3494   -4.6737  -14.3633 C   0  0  0  0  0  0  0  0  0  0  0  0
   18.1713   -5.4752  -15.3557 C   0  0  2  0  0  0  0  0  0  0  0  0
   18.9757   -6.4750  -14.7061 N   0  0  0  0  0  0  0  0  0  0  0  0
   19.0261   -4.5956  -16.1818 C   0  0  0  0  0  0  0  0  0  0  0  0
   20.2706   -4.6364  -16.0261 O   0  0  0  0  0  0  0  0  0  0  0  0
   18.5192   -3.7198  -17.1285 O   0  0  0  0  0  0  0  0  0  0  0  0
  2  1  1  0
  3  2  2  0
  4  2  1  0
  5  6  1  0
  5  4  1  0
  6  7  1  1
  8  6  1  0
  9  8  2  0
 11 10  1  6
 11 13  1  0
 11 12  1  0
 12  8  1  0
 13 18  1  0
 14 13  2  0
 16 15  1  0
 17 16  1  1
 17 19  1  0
 18 17  1  0
 19 20  2  0
 19 21  1  0
M  END
$$$$
