QAS.pdb
     RDKit          3D

 21 20  0  0  1  0  0  0  0  0999 V2000
   18.4157  -13.4985  -19.9444 N   0  0  0  0  0  0  0  0  0  0  0  0
   17.6288  -12.3170  -19.7290 C   0  0  0  0  0  0  0  0  0  0  0  0
   17.7642  -11.4282  -20.5974 O   0  0  0  0  0  0  0  0  0  0  0  0
   16.7659  -12.2533  -18.5613 C   0  0  0  0  0  0  0  0  0  0  0  0
   17.1439  -11.2879  -17.5008 C   0  0  0  0  0  0  0  0  0  0  0  0
   18.1857  -11.7302  -16.5321 C   0  0  2  0  0  0  0  0  0  0  0  0
   17.7448  -12.8348  -15.7626 N   0  0  0  0  0  0  0  0  0  0  0  0
   18.5315  -10.5569  -15.6748 C   0  0  0  0  0  0  0  0  0  0  0  0
   17.7445  -10.0438  -14.8527 O   0  0  0  0  0  0  0  0  0  0  0  0
   21.7309   -8.8012  -14.8507 C   0  0  0  0  0  0  0  0  0  0  0  0
   20.2292   -8.8604  -15.0238 C   0  0  2  0  0  0  0  0  0  0  0  0
   19.8303  -10.0047  -15.8120 N   0  0  0  0  0  0  0  0  0  0  0  0
   19.6969   -7.6377  -15.6553 C   0  0  0  0  0  0  0  0  0  0  0  0
   19.5560   -7.5927  -16.8856 O   0  0  0  0  0  0  0  0  0  0  0  0
   17.3831   -3.5277  -15.2624 O   0  0  0  0  0  0  0  0  0  0  0  0
   17.7270   -4.7259  -14.6008 C   0  0  0  0  0  0  0  0  0  0  0  0
   18.8605   -5.3347  -15.4052 C   0  0  2  0  0  0  0  0  0  0  0  0
   19.3619   -6.5406  -14.8027 N   0  0  0  0  0  0  0  0  0  0  0  0
   19.9634   -4.3685  -15.5982 C   0  0  0  0  0  0  0  0  0  0  0  0
   21.0198   -4.5114  -14.9363 O   0  0  0  0  0  0  0  0  0  0  0  0
   19.8901   -3.3030  -16.4810 O   0  0  0  0  0  0  0  0  0  0  0  0
  2  1  1  0
  3  2  2  0
  4  2  1  0
  5  6  1  0
  5  4  1  0
  6  7  1  1
  8  6  1  0
  9  8  2  0
 11 10  1  6
 11 13  1  0
 11 12  1  0
 12  8  1  0
 13 18  1  0
 14 13  2  0
 16 15  1  0
 17 16  1  1
 17 19  1  0
 18 17  1  0
 19 20  2  0
 19 21  1  0
M  END
$$$$
