QAS.pdb
     RDKit          3D

 21 20  0  0  1  0  0  0  0  0999 V2000
   24.2570  -25.1010  -14.0945 N   0  0  0  0  0  0  0  0  0  0  0  0
   23.5309  -23.8738  -14.2632 C   0  0  0  0  0  0  0  0  0  0  0  0
   23.2761  -23.5709  -15.4488 O   0  0  0  0  0  0  0  0  0  0  0  0
   23.1606  -23.1112  -13.0827 C   0  0  0  0  0  0  0  0  0  0  0  0
   23.7400  -21.7519  -12.9543 C   0  0  0  0  0  0  0  0  0  0  0  0
   25.1935  -21.6700  -12.6384 C   0  0  2  0  0  0  0  0  0  0  0  0
   25.4160  -21.5277  -11.2467 N   0  0  0  0  0  0  0  0  0  0  0  0
   25.7596  -20.5251  -13.4128 C   0  0  0  0  0  0  0  0  0  0  0  0
   25.7639  -19.3460  -13.0023 O   0  0  0  0  0  0  0  0  0  0  0  0
   28.1608  -20.2645  -16.2024 C   0  0  0  0  0  0  0  0  0  0  0  0
   26.9428  -19.7586  -15.4613 C   0  0  2  0  0  0  0  0  0  0  0  0
   26.3209  -20.8068  -14.6840 N   0  0  0  0  0  0  0  0  0  0  0  0
   25.9381  -19.1840  -16.3766 C   0  0  0  0  0  0  0  0  0  0  0  0
   24.9904  -19.8813  -16.7651 O   0  0  0  0  0  0  0  0  0  0  0  0
   24.4698  -15.4020  -18.9380 O   0  0  0  0  0  0  0  0  0  0  0  0
   25.4703  -15.8151  -18.0324 C   0  0  0  0  0  0  0  0  0  0  0  0
   25.2096  -17.2863  -17.7673 C   0  0  2  0  0  0  0  0  0  0  0  0
   26.1075  -17.8235  -16.7805 N   0  0  0  0  0  0  0  0  0  0  0  0
   25.2911  -18.0806  -19.0121 C   0  0  0  0  0  0  0  0  0  0  0  0
   24.2294  -18.4069  -19.5959 O   0  0  0  0  0  0  0  0  0  0  0  0
   26.4912  -18.4874  -19.5730 O   0  0  0  0  0  0  0  0  0  0  0  0
  2  1  1  0
  3  2  2  0
  4  2  1  0
  5  6  1  0
  5  4  1  0
  6  7  1  1
  8  6  1  0
  9  8  2  0
 11 10  1  6
 11 13  1  0
 11 12  1  0
 12  8  1  0
 13 18  1  0
 14 13  2  0
 16 15  1  0
 17 16  1  6
 17 19  1  0
 18 17  1  0
 19 20  2  0
 19 21  1  0
M  END
$$$$
