QAS.pdb
     RDKit          3D

 21 20  0  0  1  0  0  0  0  0999 V2000
   16.6916   -9.6761  -17.9950 N   0  0  0  0  0  0  0  0  0  0  0  0
   17.7128  -10.6767  -18.1267 C   0  0  0  0  0  0  0  0  0  0  0  0
   17.4349  -11.6141  -18.9054 O   0  0  0  0  0  0  0  0  0  0  0  0
   18.9458  -10.5225  -17.3729 C   0  0  0  0  0  0  0  0  0  0  0  0
   19.0609   -9.3175  -16.5158 C   0  0  0  0  0  0  0  0  0  0  0  0
   20.3005   -9.1918  -15.6992 C   0  0  2  0  0  0  0  0  0  0  0  0
   20.5384  -10.3585  -14.9320 N   0  0  0  0  0  0  0  0  0  0  0  0
   20.1525   -7.9800  -14.8386 C   0  0  0  0  0  0  0  0  0  0  0  0
   19.1749   -7.7781  -14.0888 O   0  0  0  0  0  0  0  0  0  0  0  0
   22.4200   -5.1903  -13.8138 C   0  0  0  0  0  0  0  0  0  0  0  0
   21.0652   -5.7695  -14.1569 C   0  0  2  0  0  0  0  0  0  0  0  0
   21.1879   -7.0123  -14.8848 N   0  0  0  0  0  0  0  0  0  0  0  0
   20.2478   -4.8314  -14.9500 C   0  0  0  0  0  0  0  0  0  0  0  0
   20.3233   -4.8443  -16.1867 O   0  0  0  0  0  0  0  0  0  0  0  0
   16.9480   -1.3679  -15.0486 O   0  0  0  0  0  0  0  0  0  0  0  0
   17.5990   -2.2624  -14.1723 C   0  0  0  0  0  0  0  0  0  0  0  0
   18.6986   -2.9170  -14.9877 C   0  0  2  0  0  0  0  0  0  0  0  0
   19.3903   -3.9337  -14.2417 N   0  0  0  0  0  0  0  0  0  0  0  0
   19.6625   -1.9161  -15.4938 C   0  0  0  0  0  0  0  0  0  0  0  0
   20.6619   -1.6257  -14.7928 O   0  0  0  0  0  0  0  0  0  0  0  0
   19.5180   -1.2758  -16.7141 O   0  0  0  0  0  0  0  0  0  0  0  0
  2  1  1  0
  3  2  2  0
  4  2  1  0
  5  6  1  0
  5  4  1  0
  6  7  1  1
  8  6  1  0
  9  8  2  0
 11 10  1  6
 11 13  1  0
 11 12  1  0
 12  8  1  0
 13 18  1  0
 14 13  2  0
 16 15  1  0
 17 16  1  1
 17 19  1  0
 18 17  1  0
 19 20  2  0
 19 21  1  0
M  END
$$$$
