QAS.pdb
     RDKit          3D

 21 20  0  0  1  0  0  0  0  0999 V2000
   18.7599  -11.3686  -14.2763 N   0  0  0  0  0  0  0  0  0  0  0  0
   17.6882  -12.2239  -14.7024 C   0  0  0  0  0  0  0  0  0  0  0  0
   18.0445  -13.2344  -15.3459 O   0  0  0  0  0  0  0  0  0  0  0  0
   16.3234  -11.8602  -14.3600 C   0  0  0  0  0  0  0  0  0  0  0  0
   16.1447  -10.6711  -13.4917 C   0  0  0  0  0  0  0  0  0  0  0  0
   15.5132  -10.9007  -12.1622 C   0  0  2  0  0  0  0  0  0  0  0  0
   14.4816  -11.8686  -12.2366 N   0  0  0  0  0  0  0  0  0  0  0  0
   15.0073   -9.5844  -11.6698 C   0  0  0  0  0  0  0  0  0  0  0  0
   14.4186   -8.7543  -12.3930 O   0  0  0  0  0  0  0  0  0  0  0  0
   14.4196   -8.1851   -8.2595 C   0  0  0  0  0  0  0  0  0  0  0  0
   14.6918   -8.0467   -9.7412 C   0  0  2  0  0  0  0  0  0  0  0  0
   15.2133   -9.2727  -10.3020 N   0  0  0  0  0  0  0  0  0  0  0  0
   15.6368   -6.9508  -10.0295 C   0  0  0  0  0  0  0  0  0  0  0  0
   16.8564   -7.1684  -10.0049 O   0  0  0  0  0  0  0  0  0  0  0  0
   16.6447   -2.9514  -12.1838 O   0  0  0  0  0  0  0  0  0  0  0  0
   15.6863   -3.9706  -11.9986 C   0  0  0  0  0  0  0  0  0  0  0  0
   15.9985   -4.5952  -10.6514 C   0  0  2  0  0  0  0  0  0  0  0  0
   15.0916   -5.6641  -10.3297 N   0  0  0  0  0  0  0  0  0  0  0  0
   15.9907   -3.5827   -9.5735 C   0  0  0  0  0  0  0  0  0  0  0  0
   16.9645   -2.7983   -9.4689 O   0  0  0  0  0  0  0  0  0  0  0  0
   14.9534   -3.4540   -8.6637 O   0  0  0  0  0  0  0  0  0  0  0  0
  2  1  1  0
  3  2  2  0
  4  2  1  0
  5  6  1  0
  5  4  1  0
  6  7  1  6
  8  6  1  0
  9  8  2  0
 11 10  1  1
 11 13  1  0
 11 12  1  0
 12  8  1  0
 13 18  1  0
 14 13  2  0
 16 15  1  0
 17 16  1  6
 17 19  1  0
 18 17  1  0
 19 20  2  0
 19 21  1  0
M  END
$$$$
