QAS.pdb
     RDKit          3D

 21 20  0  0  1  0  0  0  0  0999 V2000
   16.0237  -10.7253  -14.8983 N   0  0  0  0  0  0  0  0  0  0  0  0
   16.4880  -12.0838  -14.9184 C   0  0  0  0  0  0  0  0  0  0  0  0
   15.6198  -12.9416  -14.6486 O   0  0  0  0  0  0  0  0  0  0  0  0
   17.8807  -12.3433  -15.2429 C   0  0  0  0  0  0  0  0  0  0  0  0
   18.7497  -11.1610  -15.4597 C   0  0  0  0  0  0  0  0  0  0  0  0
   19.5616  -11.1459  -16.7086 C   0  0  2  0  0  0  0  0  0  0  0  0
   20.4575  -12.2419  -16.7597 N   0  0  0  0  0  0  0  0  0  0  0  0
   20.2791   -9.8370  -16.7641 C   0  0  0  0  0  0  0  0  0  0  0  0
   21.3723   -9.6220  -16.2008 O   0  0  0  0  0  0  0  0  0  0  0  0
   19.7846   -6.6695  -18.7200 C   0  0  0  0  0  0  0  0  0  0  0  0
   20.2719   -7.4724  -17.5340 C   0  0  2  0  0  0  0  0  0  0  0  0
   19.6739   -8.7881  -17.5018 N   0  0  0  0  0  0  0  0  0  0  0  0
   19.9953   -6.7917  -16.2545 C   0  0  0  0  0  0  0  0  0  0  0  0
   18.9185   -6.9884  -15.6737 O   0  0  0  0  0  0  0  0  0  0  0  0
   22.9932   -4.7456  -14.1304 O   0  0  0  0  0  0  0  0  0  0  0  0
   21.8815   -5.3607  -13.5159 C   0  0  0  0  0  0  0  0  0  0  0  0
   20.7353   -5.2279  -14.5014 C   0  0  2  0  0  0  0  0  0  0  0  0
   21.0013   -5.9201  -15.7338 N   0  0  0  0  0  0  0  0  0  0  0  0
   20.4218   -3.8088  -14.7750 C   0  0  0  0  0  0  0  0  0  0  0  0
   20.6341   -3.3496  -15.9233 O   0  0  0  0  0  0  0  0  0  0  0  0
   19.9006   -2.9512  -13.8195 O   0  0  0  0  0  0  0  0  0  0  0  0
  2  1  1  0
  3  2  2  0
  4  2  1  0
  5  6  1  0
  5  4  1  0
  6  7  1  1
  8  6  1  0
  9  8  2  0
 11 10  1  6
 11 13  1  0
 11 12  1  0
 12  8  1  0
 13 18  1  0
 14 13  2  0
 16 15  1  0
 17 16  1  1
 17 19  1  0
 18 17  1  0
 19 20  2  0
 19 21  1  0
M  END
$$$$
