QAS.pdb
     RDKit          3D

 21 20  0  0  1  0  0  0  0  0999 V2000
   26.0079  -20.0183   -6.3174 N   0  0  0  0  0  0  0  0  0  0  0  0
   27.0801  -19.4544   -7.0880 C   0  0  0  0  0  0  0  0  0  0  0  0
   28.1306  -19.2345   -6.4474 O   0  0  0  0  0  0  0  0  0  0  0  0
   26.8662  -19.1969   -8.5023 C   0  0  0  0  0  0  0  0  0  0  0  0
   25.5268  -19.5257   -9.0480 C   0  0  0  0  0  0  0  0  0  0  0  0
   25.4222  -20.7666   -9.8655 C   0  0  2  0  0  0  0  0  0  0  0  0
   26.5395  -21.6148   -9.6685 N   0  0  0  0  0  0  0  0  0  0  0  0
   25.2808  -20.3548  -11.2943 C   0  0  0  0  0  0  0  0  0  0  0  0
   24.4637  -19.4981  -11.6905 O   0  0  0  0  0  0  0  0  0  0  0  0
   27.2804  -21.1095  -14.3982 C   0  0  0  0  0  0  0  0  0  0  0  0
   26.0761  -20.5998  -13.6377 C   0  0  2  0  0  0  0  0  0  0  0  0
   26.1285  -20.9795  -12.2439 N   0  0  0  0  0  0  0  0  0  0  0  0
   24.8096  -21.0873  -14.2171 C   0  0  0  0  0  0  0  0  0  0  0  0
   24.4981  -22.2807  -14.0976 O   0  0  0  0  0  0  0  0  0  0  0  0
   21.6749  -18.6493  -14.5791 O   0  0  0  0  0  0  0  0  0  0  0  0
   21.5604  -20.0557  -14.5533 C   0  0  0  0  0  0  0  0  0  0  0  0
   22.7072  -20.5818  -15.3963 C   0  0  2  0  0  0  0  0  0  0  0  0
   23.9847  -20.1426  -14.9026 N   0  0  0  0  0  0  0  0  0  0  0  0
   22.5531  -20.1966  -16.8158 C   0  0  0  0  0  0  0  0  0  0  0  0
   23.3752  -19.3943  -17.3209 O   0  0  0  0  0  0  0  0  0  0  0  0
   21.5379  -20.6806  -17.6253 O   0  0  0  0  0  0  0  0  0  0  0  0
  2  1  1  0
  3  2  2  0
  4  2  1  0
  5  6  1  0
  5  4  1  0
  6  7  1  6
  8  6  1  0
  9  8  2  0
 11 10  1  6
 11 13  1  0
 11 12  1  0
 12  8  1  0
 13 18  1  0
 14 13  2  0
 16 15  1  0
 17 16  1  1
 17 19  1  0
 18 17  1  0
 19 20  2  0
 19 21  1  0
M  END
$$$$
