QAS.pdb
     RDKit          3D

 21 20  0  0  1  0  0  0  0  0999 V2000
   18.4727  -11.4896  -20.6687 N   0  0  0  0  0  0  0  0  0  0  0  0
   17.4237  -10.7347  -20.0432 C   0  0  0  0  0  0  0  0  0  0  0  0
   16.3994  -10.5767  -20.7420 O   0  0  0  0  0  0  0  0  0  0  0  0
   17.6287  -10.2355  -18.6938 C   0  0  0  0  0  0  0  0  0  0  0  0
   18.9449  -10.5139  -18.0693 C   0  0  0  0  0  0  0  0  0  0  0  0
   18.9272  -11.0556  -16.6817 C   0  0  2  0  0  0  0  0  0  0  0  0
   17.6589  -11.5912  -16.3486 N   0  0  0  0  0  0  0  0  0  0  0  0
   19.3237   -9.9487  -15.7604 C   0  0  0  0  0  0  0  0  0  0  0  0
   18.5331   -9.0758  -15.3461 O   0  0  0  0  0  0  0  0  0  0  0  0
   22.4585   -9.2044  -13.8137 C   0  0  0  0  0  0  0  0  0  0  0  0
   21.1314   -8.8539  -14.4498 C   0  0  2  0  0  0  0  0  0  0  0  0
   20.6769   -9.8983  -15.3399 N   0  0  0  0  0  0  0  0  0  0  0  0
   21.1956   -7.5841  -15.1986 C   0  0  0  0  0  0  0  0  0  0  0  0
   21.4108   -7.6002  -16.4188 O   0  0  0  0  0  0  0  0  0  0  0  0
   18.7881   -4.7600  -14.9519 O   0  0  0  0  0  0  0  0  0  0  0  0
   20.0318   -4.1347  -14.7196 C   0  0  0  0  0  0  0  0  0  0  0  0
   21.0868   -5.1236  -15.1796 C   0  0  2  0  0  0  0  0  0  0  0  0
   21.0030   -6.3708  -14.4681 N   0  0  0  0  0  0  0  0  0  0  0  0
   22.4473   -4.5580  -15.0520 C   0  0  0  0  0  0  0  0  0  0  0  0
   23.0999   -4.7748  -14.0024 O   0  0  0  0  0  0  0  0  0  0  0  0
   23.0448   -3.7935  -16.0412 O   0  0  0  0  0  0  0  0  0  0  0  0
  2  1  1  0
  3  2  2  0
  4  2  1  0
  5  6  1  0
  5  4  1  0
  6  7  1  1
  8  6  1  0
  9  8  2  0
 11 10  1  6
 11 13  1  0
 11 12  1  0
 12  8  1  0
 13 18  1  0
 14 13  2  0
 16 15  1  0
 17 16  1  1
 17 19  1  0
 18 17  1  0
 19 20  2  0
 19 21  1  0
M  END
$$$$
