QAS.pdb
     RDKit          3D

 21 20  0  0  1  0  0  0  0  0999 V2000
   18.2035  -14.0357  -18.3654 N   0  0  0  0  0  0  0  0  0  0  0  0
   17.9588  -14.4807  -17.0224 C   0  0  0  0  0  0  0  0  0  0  0  0
   17.6644  -15.6906  -16.9136 O   0  0  0  0  0  0  0  0  0  0  0  0
   18.0727  -13.5228  -15.9354 C   0  0  0  0  0  0  0  0  0  0  0  0
   18.3077  -12.1075  -16.3115 C   0  0  0  0  0  0  0  0  0  0  0  0
   18.3286  -11.1137  -15.2019 C   0  0  2  0  0  0  0  0  0  0  0  0
   17.0679  -11.0214  -14.5626 N   0  0  0  0  0  0  0  0  0  0  0  0
   18.7582   -9.8040  -15.7775 C   0  0  0  0  0  0  0  0  0  0  0  0
   19.7578   -9.6650  -16.5125 O   0  0  0  0  0  0  0  0  0  0  0  0
   17.2550   -6.3498  -15.8022 C   0  0  0  0  0  0  0  0  0  0  0  0
   18.3860   -7.3488  -15.9088 C   0  0  2  0  0  0  0  0  0  0  0  0
   17.9780   -8.6623  -15.4640 N   0  0  0  0  0  0  0  0  0  0  0  0
   19.5690   -6.9292  -15.1330 C   0  0  0  0  0  0  0  0  0  0  0  0
   19.6867   -7.2836  -13.9516 O   0  0  0  0  0  0  0  0  0  0  0  0
   24.0311   -5.2653  -15.2357 O   0  0  0  0  0  0  0  0  0  0  0  0
   22.8921   -5.4649  -16.0447 C   0  0  0  0  0  0  0  0  0  0  0  0
   21.7606   -5.8059  -15.0929 C   0  0  2  0  0  0  0  0  0  0  0  0
   20.5433   -6.1177  -15.7927 N   0  0  0  0  0  0  0  0  0  0  0  0
   21.5229   -4.7132  -14.1252 C   0  0  0  0  0  0  0  0  0  0  0  0
   20.7269   -3.7927  -14.4309 O   0  0  0  0  0  0  0  0  0  0  0  0
   22.1398   -4.6525  -12.8859 O   0  0  0  0  0  0  0  0  0  0  0  0
  2  1  1  0
  3  2  2  0
  4  2  1  0
  5  6  1  0
  5  4  1  0
  6  7  1  6
  8  6  1  0
  9  8  2  0
 11 10  1  1
 11 13  1  0
 11 12  1  0
 12  8  1  0
 13 18  1  0
 14 13  2  0
 16 15  1  0
 17 16  1  6
 17 19  1  0
 18 17  1  0
 19 20  2  0
 19 21  1  0
M  END
$$$$
