PSG.pdb
     RDKit          3D

 18 18  0  0  1  0  0  0  0  0999 V2000
    7.4188  -14.8743   19.6083 N   0  0  0  0  0  0  0  0  0  0  0  0
    6.6637  -14.3635   18.4619 C   0  0  0  0  0  0  0  0  0  0  0  0
    7.1890  -12.9751   18.2068 C   0  0  0  0  0  0  0  0  0  0  0  0
    8.4245  -12.8748   19.0915 C   0  0  0  0  0  0  0  0  0  0  0  0
    8.7561  -14.3172   19.3590 C   0  0  1  0  0  0  0  0  0  0  0  0
    9.5667  -14.4980   20.5809 C   0  0  0  0  0  0  0  0  0  0  0  0
   10.7832  -14.2173   20.6751 O   0  0  0  0  0  0  0  0  0  0  0  0
    8.0129  -16.5559   24.0907 O   0  0  0  0  0  0  0  0  0  0  0  0
    8.8051  -15.4211   24.1884 C   0  0  0  0  0  0  0  0  0  0  0  0
    9.6699  -15.2035   22.9866 C   0  0  2  0  0  0  0  0  0  0  0  0
    8.9772  -15.0221   21.7582 N   0  0  0  0  0  0  0  0  0  0  0  0
   10.6812  -16.2701   22.8945 C   0  0  0  0  0  0  0  0  0  0  0  0
   10.4444  -17.2586   22.1198 O   0  0  0  0  0  0  0  0  0  0  0  0
   11.8931  -16.2679   23.6078 N   0  0  0  0  0  0  0  0  0  0  0  0
   12.8546  -17.3423   23.4811 C   0  0  0  0  0  0  0  0  0  0  0  0
   14.0987  -16.9756   24.1636 C   0  0  0  0  0  0  0  0  0  0  0  0
   14.2317  -15.8520   24.6817 O   0  0  0  0  0  0  0  0  0  0  0  0
   15.1645  -17.8604   24.2559 O   0  0  0  0  0  0  0  0  0  0  0  0
  1  5  1  0
  2  1  1  0
  2  3  1  0
  3  4  1  0
  5  4  1  0
  5  6  1  1
  6  7  2  0
  8  9  1  0
 10  9  1  1
 11 10  1  0
 11  6  1  0
 12 10  1  0
 12 14  1  0
 13 12  2  0
 15 14  1  0
 15 16  1  0
 16 18  1  0
 17 16  2  0
M  END
$$$$
