PSG.pdb
     RDKit          3D

 18 18  0  0  1  0  0  0  0  0999 V2000
    7.5329  -14.9410   19.1535 N   0  0  0  0  0  0  0  0  0  0  0  0
    6.9035  -14.6092   17.8732 C   0  0  0  0  0  0  0  0  0  0  0  0
    7.3292  -13.1995   17.5567 C   0  0  0  0  0  0  0  0  0  0  0  0
    8.4127  -12.8972   18.5833 C   0  0  0  0  0  0  0  0  0  0  0  0
    8.8348  -14.2696   19.0307 C   0  0  1  0  0  0  0  0  0  0  0  0
    9.4778  -14.2622   20.3609 C   0  0  0  0  0  0  0  0  0  0  0  0
   10.6623  -13.9187   20.5760 O   0  0  0  0  0  0  0  0  0  0  0  0
    7.3617  -15.6156   23.9431 O   0  0  0  0  0  0  0  0  0  0  0  0
    8.3018  -14.5952   23.9355 C   0  0  0  0  0  0  0  0  0  0  0  0
    9.2932  -14.7185   22.8212 C   0  0  2  0  0  0  0  0  0  0  0  0
    8.7494  -14.6625   21.5086 N   0  0  0  0  0  0  0  0  0  0  0  0
   10.1270  -15.9161   23.0196 C   0  0  0  0  0  0  0  0  0  0  0  0
    9.7831  -16.9940   22.4253 O   0  0  0  0  0  0  0  0  0  0  0  0
   11.2800  -15.9466   23.8240 N   0  0  0  0  0  0  0  0  0  0  0  0
   11.9244  -17.1908   24.1865 C   0  0  0  0  0  0  0  0  0  0  0  0
   13.3444  -17.1353   23.8278 C   0  0  0  0  0  0  0  0  0  0  0  0
   14.0071  -16.0990   24.0163 O   0  0  0  0  0  0  0  0  0  0  0  0
   13.9957  -18.2269   23.2697 O   0  0  0  0  0  0  0  0  0  0  0  0
  1  5  1  0
  2  1  1  0
  2  3  1  0
  3  4  1  0
  5  4  1  0
  5  6  1  1
  6  7  2  0
  8  9  1  0
 10  9  1  1
 11 10  1  0
 11  6  1  0
 12 10  1  0
 12 14  1  0
 13 12  2  0
 15 14  1  0
 15 16  1  0
 16 18  1  0
 17 16  2  0
M  END
$$$$
