PSG.pdb
     RDKit          3D

 18 18  0  0  1  0  0  0  0  0999 V2000
    7.6887  -15.0511   18.7118 N   0  0  0  0  0  0  0  0  0  0  0  0
    7.0659  -14.6134   17.4605 C   0  0  0  0  0  0  0  0  0  0  0  0
    7.1970  -13.1131   17.4364 C   0  0  0  0  0  0  0  0  0  0  0  0
    8.1406  -12.8022   18.5907 C   0  0  0  0  0  0  0  0  0  0  0  0
    8.8225  -14.1222   18.8236 C   0  0  1  0  0  0  0  0  0  0  0  0
    9.3841  -14.2408   20.1850 C   0  0  0  0  0  0  0  0  0  0  0  0
   10.5973  -14.1143   20.4671 O   0  0  0  0  0  0  0  0  0  0  0  0
    6.9386  -15.3125   23.7077 O   0  0  0  0  0  0  0  0  0  0  0  0
    7.9626  -14.3766   23.6834 C   0  0  0  0  0  0  0  0  0  0  0  0
    8.9864  -14.6538   22.6277 C   0  0  2  0  0  0  0  0  0  0  0  0
    8.5357  -14.5161   21.2862 N   0  0  0  0  0  0  0  0  0  0  0  0
    9.6115  -15.9660   22.8650 C   0  0  0  0  0  0  0  0  0  0  0  0
    8.9764  -17.0111   22.4939 O   0  0  0  0  0  0  0  0  0  0  0  0
   10.8661  -16.1399   23.4759 N   0  0  0  0  0  0  0  0  0  0  0  0
   11.4128  -17.4549   23.7344 C   0  0  0  0  0  0  0  0  0  0  0  0
   12.7235  -17.3279   24.3777 C   0  0  0  0  0  0  0  0  0  0  0  0
   13.2098  -16.2068   24.6129 O   0  0  0  0  0  0  0  0  0  0  0  0
   13.4636  -18.4436   24.7448 O   0  0  0  0  0  0  0  0  0  0  0  0
  1  5  1  0
  2  1  1  0
  2  3  1  0
  3  4  1  0
  5  4  1  0
  5  6  1  1
  6  7  2  0
  8  9  1  0
 10  9  1  1
 11 10  1  0
 11  6  1  0
 12 10  1  0
 12 14  1  0
 13 12  2  0
 15 14  1  0
 15 16  1  0
 16 18  1  0
 17 16  2  0
M  END
$$$$
