PSG.pdb
     RDKit          3D

 18 18  0  0  1  0  0  0  0  0999 V2000
    8.8554  -13.5523   20.5954 N   0  0  0  0  0  0  0  0  0  0  0  0
    8.2821  -13.5125   19.2481 C   0  0  0  0  0  0  0  0  0  0  0  0
    7.0634  -14.3965   19.2914 C   0  0  0  0  0  0  0  0  0  0  0  0
    6.8690  -14.6921   20.7726 C   0  0  0  0  0  0  0  0  0  0  0  0
    7.6486  -13.5890   21.4339 C   0  0  1  0  0  0  0  0  0  0  0  0
    8.0550  -13.9269   22.8135 C   0  0  0  0  0  0  0  0  0  0  0  0
    9.1283  -14.4941   23.1197 O   0  0  0  0  0  0  0  0  0  0  0  0
    5.3069  -13.4715   26.1455 O   0  0  0  0  0  0  0  0  0  0  0  0
    6.6652  -13.2244   26.2824 C   0  0  0  0  0  0  0  0  0  0  0  0
    7.4970  -13.9330   25.2598 C   0  0  2  0  0  0  0  0  0  0  0  0
    7.2092  -13.6098   23.9054 N   0  0  0  0  0  0  0  0  0  0  0  0
    7.4577  -15.3858   25.4980 C   0  0  0  0  0  0  0  0  0  0  0  0
    6.5164  -16.0592   24.9560 O   0  0  0  0  0  0  0  0  0  0  0  0
    8.3937  -16.0785   26.2863 N   0  0  0  0  0  0  0  0  0  0  0  0
    8.2765  -17.4991   26.5375 C   0  0  0  0  0  0  0  0  0  0  0  0
    9.3884  -17.9454   27.3817 C   0  0  0  0  0  0  0  0  0  0  0  0
   10.2184  -17.1298   27.8226 O   0  0  0  0  0  0  0  0  0  0  0  0
    9.5545  -19.2823   27.7170 O   0  0  0  0  0  0  0  0  0  0  0  0
  1  5  1  0
  2  1  1  0
  2  3  1  0
  3  4  1  0
  5  4  1  0
  5  6  1  1
  6  7  2  0
  8  9  1  0
 10  9  1  1
 11 10  1  0
 11  6  1  0
 12 10  1  0
 12 14  1  0
 13 12  2  0
 15 14  1  0
 15 16  1  0
 16 18  1  0
 17 16  2  0
M  END
$$$$
