PSG.pdb
     RDKit          3D

 18 18  0  0  1  0  0  0  0  0999 V2000
    7.9591  -15.0945   19.1137 N   0  0  0  0  0  0  0  0  0  0  0  0
    7.6104  -14.8266   17.7165 C   0  0  0  0  0  0  0  0  0  0  0  0
    7.7338  -13.3361   17.5385 C   0  0  0  0  0  0  0  0  0  0  0  0
    8.4115  -12.8620   18.8172 C   0  0  0  0  0  0  0  0  0  0  0  0
    9.0380  -14.1233   19.3451 C   0  0  1  0  0  0  0  0  0  0  0  0
    9.3016  -14.0634   20.7976 C   0  0  0  0  0  0  0  0  0  0  0  0
   10.2256  -13.4042   21.3259 O   0  0  0  0  0  0  0  0  0  0  0  0
    6.6703  -16.0779   23.5832 O   0  0  0  0  0  0  0  0  0  0  0  0
    7.2984  -14.8738   23.8670 C   0  0  0  0  0  0  0  0  0  0  0  0
    8.5808  -14.6897   23.1180 C   0  0  2  0  0  0  0  0  0  0  0  0
    8.4824  -14.7832   21.7026 N   0  0  0  0  0  0  0  0  0  0  0  0
    9.6127  -15.5914   23.6575 C   0  0  0  0  0  0  0  0  0  0  0  0
    9.8757  -15.5260   24.9064 O   0  0  0  0  0  0  0  0  0  0  0  0
   10.3273  -16.5214   22.8817 N   0  0  0  0  0  0  0  0  0  0  0  0
   11.1899  -17.5150   23.4848 C   0  0  0  0  0  0  0  0  0  0  0  0
   12.5907  -17.1121   23.3321 C   0  0  0  0  0  0  0  0  0  0  0  0
   12.8886  -16.0667   22.7262 O   0  0  0  0  0  0  0  0  0  0  0  0
   13.6268  -17.8752   23.8531 O   0  0  0  0  0  0  0  0  0  0  0  0
  1  5  1  0
  2  1  1  0
  2  3  1  0
  3  4  1  0
  5  4  1  0
  5  6  1  1
  6  7  2  0
  8  9  1  0
 10  9  1  1
 11 10  1  0
 11  6  1  0
 12 10  1  0
 12 14  1  0
 13 12  2  0
 15 14  1  0
 15 16  1  0
 16 18  1  0
 17 16  2  0
M  END
$$$$
