PSG.pdb
     RDKit          3D

 18 18  0  0  1  0  0  0  0  0999 V2000
    7.2302  -14.8854   19.7058 N   0  0  0  0  0  0  0  0  0  0  0  0
    6.4981  -14.4437   18.5166 C   0  0  0  0  0  0  0  0  0  0  0  0
    7.0641  -13.0941   18.1607 C   0  0  0  0  0  0  0  0  0  0  0  0
    8.2955  -12.9601   19.0466 C   0  0  0  0  0  0  0  0  0  0  0  0
    8.5844  -14.3861   19.4271 C   0  0  1  0  0  0  0  0  0  0  0  0
    9.3808  -14.4946   20.6668 C   0  0  0  0  0  0  0  0  0  0  0  0
   10.6038  -14.2407   20.7506 O   0  0  0  0  0  0  0  0  0  0  0  0
    7.6210  -15.8937   24.4164 O   0  0  0  0  0  0  0  0  0  0  0  0
    8.5605  -14.8762   24.3349 C   0  0  0  0  0  0  0  0  0  0  0  0
    9.4381  -14.9827   23.1273 C   0  0  2  0  0  0  0  0  0  0  0  0
    8.7684  -14.9108   21.8751 N   0  0  0  0  0  0  0  0  0  0  0  0
   10.2885  -16.1810   23.2273 C   0  0  0  0  0  0  0  0  0  0  0  0
    9.7659  -17.3143   22.9522 O   0  0  0  0  0  0  0  0  0  0  0  0
   11.6420  -16.1546   23.6074 N   0  0  0  0  0  0  0  0  0  0  0  0
   12.4348  -17.3628   23.6897 C   0  0  0  0  0  0  0  0  0  0  0  0
   13.8169  -17.0245   24.0411 C   0  0  0  0  0  0  0  0  0  0  0  0
   14.1540  -15.8409   24.2252 O   0  0  0  0  0  0  0  0  0  0  0  0
   14.7913  -18.0035   24.1800 O   0  0  0  0  0  0  0  0  0  0  0  0
  1  5  1  0
  2  1  1  0
  2  3  1  0
  3  4  1  0
  5  4  1  0
  5  6  1  1
  6  7  2  0
  8  9  1  0
 10  9  1  1
 11 10  1  0
 11  6  1  0
 12 10  1  0
 12 14  1  0
 13 12  2  0
 15 14  1  0
 15 16  1  0
 16 18  1  0
 17 16  2  0
M  END
$$$$
