PSG.pdb
     RDKit          3D

 18 18  0  0  1  0  0  0  0  0999 V2000
    7.2582  -15.1075   19.7627 N   0  0  0  0  0  0  0  0  0  0  0  0
    6.5559  -14.8382   18.5058 C   0  0  0  0  0  0  0  0  0  0  0  0
    6.9358  -13.4347   18.1129 C   0  0  0  0  0  0  0  0  0  0  0  0
    8.0654  -13.0723   19.0679 C   0  0  0  0  0  0  0  0  0  0  0  0
    8.5380  -14.4180   19.5449 C   0  0  1  0  0  0  0  0  0  0  0  0
    9.2496  -14.3462   20.8377 C   0  0  0  0  0  0  0  0  0  0  0  0
   10.4081  -13.8959   20.9875 O   0  0  0  0  0  0  0  0  0  0  0  0
    7.2492  -15.3638   24.5559 O   0  0  0  0  0  0  0  0  0  0  0  0
    8.2765  -14.4386   24.4402 C   0  0  0  0  0  0  0  0  0  0  0  0
    9.2158  -14.7418   23.3152 C   0  0  2  0  0  0  0  0  0  0  0  0
    8.6245  -14.8053   22.0237 N   0  0  0  0  0  0  0  0  0  0  0  0
    9.9949  -15.9531   23.6227 C   0  0  0  0  0  0  0  0  0  0  0  0
    9.3633  -17.0553   23.7629 O   0  0  0  0  0  0  0  0  0  0  0  0
   11.3930  -15.9716   23.7717 N   0  0  0  0  0  0  0  0  0  0  0  0
   12.1129  -17.1929   24.0633 C   0  0  0  0  0  0  0  0  0  0  0  0
   13.5536  -16.9248   24.0843 C   0  0  0  0  0  0  0  0  0  0  0  0
   13.9896  -15.7784   23.8740 O   0  0  0  0  0  0  0  0  0  0  0  0
   14.4760  -17.9311   24.3373 O   0  0  0  0  0  0  0  0  0  0  0  0
  1  5  1  0
  2  1  1  0
  2  3  1  0
  3  4  1  0
  5  4  1  0
  5  6  1  1
  6  7  2  0
  8  9  1  0
 10  9  1  1
 11 10  1  0
 11  6  1  0
 12 10  1  0
 12 14  1  0
 13 12  2  0
 15 14  1  0
 15 16  1  0
 16 18  1  0
 17 16  2  0
M  END
$$$$
