PSG.pdb
     RDKit          3D

 18 18  0  0  1  0  0  0  0  0999 V2000
    9.2416  -14.2514   19.2297 N   0  0  0  0  0  0  0  0  0  0  0  0
    8.4072  -13.9595   18.0619 C   0  0  0  0  0  0  0  0  0  0  0  0
    6.9872  -13.9385   18.5636 C   0  0  0  0  0  0  0  0  0  0  0  0
    7.1264  -13.9696   20.0798 C   0  0  0  0  0  0  0  0  0  0  0  0
    8.5431  -13.5109   20.2901 C   0  0  1  0  0  0  0  0  0  0  0  0
    9.0933  -13.9401   21.5924 C   0  0  0  0  0  0  0  0  0  0  0  0
   10.2725  -14.3188   21.7760 O   0  0  0  0  0  0  0  0  0  0  0  0
    6.5636  -14.5728   25.1087 O   0  0  0  0  0  0  0  0  0  0  0  0
    7.8158  -13.9791   25.1739 C   0  0  0  0  0  0  0  0  0  0  0  0
    8.7078  -14.3634   24.0353 C   0  0  2  0  0  0  0  0  0  0  0  0
    8.2735  -13.9432   22.7482 N   0  0  0  0  0  0  0  0  0  0  0  0
    8.9826  -15.8096   24.0772 C   0  0  0  0  0  0  0  0  0  0  0  0
    8.2754  -16.5781   23.3407 O   0  0  0  0  0  0  0  0  0  0  0  0
    9.9769  -16.3977   24.8790 N   0  0  0  0  0  0  0  0  0  0  0  0
   10.1341  -17.8338   24.9684 C   0  0  0  0  0  0  0  0  0  0  0  0
   11.5460  -18.1883   24.7985 C   0  0  0  0  0  0  0  0  0  0  0  0
   12.3995  -17.3099   24.5786 O   0  0  0  0  0  0  0  0  0  0  0  0
   11.9785  -19.5052   24.8762 O   0  0  0  0  0  0  0  0  0  0  0  0
  1  5  1  0
  2  1  1  0
  2  3  1  0
  3  4  1  0
  5  4  1  0
  5  6  1  1
  6  7  2  0
  8  9  1  0
 10  9  1  1
 11 10  1  0
 11  6  1  0
 12 10  1  0
 12 14  1  0
 13 12  2  0
 15 14  1  0
 15 16  1  0
 16 18  1  0
 17 16  2  0
M  END
$$$$
