PSG.pdb
     RDKit          3D

 18 18  0  0  1  0  0  0  0  0999 V2000
    7.7858  -14.8881   18.7632 N   0  0  0  0  0  0  0  0  0  0  0  0
    7.1966  -14.4027   17.5132 C   0  0  0  0  0  0  0  0  0  0  0  0
    7.3860  -12.9085   17.5202 C   0  0  0  0  0  0  0  0  0  0  0  0
    8.3258  -12.6566   18.6917 C   0  0  0  0  0  0  0  0  0  0  0  0
    8.9532  -14.0064   18.9069 C   0  0  1  0  0  0  0  0  0  0  0  0
    9.4921  -14.1727   20.2725 C   0  0  0  0  0  0  0  0  0  0  0  0
   10.5909  -13.7176   20.6634 O   0  0  0  0  0  0  0  0  0  0  0  0
    7.3368  -16.4007   23.3938 O   0  0  0  0  0  0  0  0  0  0  0  0
    8.1293  -15.2816   23.6042 C   0  0  0  0  0  0  0  0  0  0  0  0
    9.2060  -15.1230   22.5770 C   0  0  2  0  0  0  0  0  0  0  0  0
    8.7557  -14.8887   21.2488 N   0  0  0  0  0  0  0  0  0  0  0  0
   10.1404  -16.2591   22.6477 C   0  0  0  0  0  0  0  0  0  0  0  0
    9.7698  -17.3750   22.1470 O   0  0  0  0  0  0  0  0  0  0  0  0
   11.4171  -16.1914   23.2333 N   0  0  0  0  0  0  0  0  0  0  0  0
   12.2898  -17.3444   23.2952 C   0  0  0  0  0  0  0  0  0  0  0  0
   13.5604  -16.9698   23.9224 C   0  0  0  0  0  0  0  0  0  0  0  0
   13.7530  -15.8072   24.3222 O   0  0  0  0  0  0  0  0  0  0  0  0
   14.5860  -17.8900   24.0916 O   0  0  0  0  0  0  0  0  0  0  0  0
  1  5  1  0
  2  1  1  0
  2  3  1  0
  3  4  1  0
  5  4  1  0
  5  6  1  1
  6  7  2  0
  8  9  1  0
 10  9  1  1
 11 10  1  0
 11  6  1  0
 12 10  1  0
 12 14  1  0
 13 12  2  0
 15 14  1  0
 15 16  1  0
 16 18  1  0
 17 16  2  0
M  END
$$$$
