RYR.pdb
     RDKit          3D

 35 35  0  0  1  0  0  0  0  0999 V2000
   10.8539  -15.4092    5.2533 N   0  0  0  0  0  0  0  0  0  0  0  0
   10.7916  -15.6135    3.8512 C   0  0  0  0  0  0  0  0  0  0  0  0
    9.8751  -15.1386    3.0978 N   0  0  0  0  0  0  0  0  0  0  0  0
   11.8428  -16.3977    3.2620 N   0  0  0  0  0  0  0  0  0  0  0  0
   13.0334  -16.7183    4.0363 C   0  0  0  0  0  0  0  0  0  0  0  0
   14.0152  -17.5506    3.2970 C   0  0  0  0  0  0  0  0  0  0  0  0
   15.3113  -17.8535    3.9901 C   0  0  0  0  0  0  0  0  0  0  0  0
   16.5251  -17.6377    3.1125 C   0  0  2  0  0  0  0  0  0  0  0  0
   17.0928  -18.9048    2.7054 N   0  0  0  0  0  0  0  0  0  0  0  0
   17.6017  -16.8603    3.8519 C   0  0  0  0  0  0  0  0  0  0  0  0
   18.5577  -17.5352    4.3128 O   0  0  0  0  0  0  0  0  0  0  0  0
    9.7812  -15.1962    2.0879 O   0  0  0  0  0  0  0  0  0  0  0  0
   21.3313   -9.4541    7.3257 C   0  0  0  0  0  0  0  0  0  0  0  0
   20.5400  -10.3535    6.5940 C   0  0  0  0  0  0  0  0  0  0  0  0
   19.2256  -10.6034    6.9122 C   0  0  0  0  0  0  0  0  0  0  0  0
   18.4824  -11.5027    6.1658 C   0  0  0  0  0  0  0  0  0  0  0  0
   19.0445  -12.1701    5.0826 C   0  0  0  0  0  0  0  0  0  0  0  0
   18.2651  -13.1702    4.3600 C   0  0  1  0  0  0  0  0  0  0  0  0
   18.5316  -14.6278    4.7373 N   0  0  0  0  0  0  0  0  0  0  0  0
   17.5527  -15.4803    4.0228 C   0  0  0  0  0  0  0  0  0  0  0  0
   18.4031  -14.9243    6.1538 O   0  0  0  0  0  0  0  0  0  0  0  0
   17.2132  -15.0672    6.6618 C   0  0  0  0  0  0  0  0  0  0  0  0
   20.3475  -11.8968    4.7919 C   0  0  0  0  0  0  0  0  0  0  0  0
   21.1180  -11.0040    5.5188 N   0  0  0  0  0  0  0  0  0  0  0  0
   21.7644  -20.3969   11.9677 C   0  0  0  0  0  0  0  0  0  0  0  0
   21.2257  -20.3656   10.6633 N   0  0  0  0  0  0  0  0  0  0  0  0
   21.3821  -21.3909    9.9007 N   0  0  0  0  0  0  0  0  0  0  0  0
   20.5128  -19.2254   10.1569 C   0  0  0  0  0  0  0  0  0  0  0  0
   20.4750  -18.0451   10.9894 C   0  0  0  0  0  0  0  0  0  0  0  0
   19.6809  -16.9026   10.4336 C   0  0  0  0  0  0  0  0  0  0  0  0
   19.9811  -16.5859    8.9946 C   0  0  1  0  0  0  0  0  0  0  0  0
   19.1479  -15.4116    8.4927 N   0  0  0  0  0  0  0  0  0  0  0  0
   19.4487  -15.0866    7.0903 C   0  0  0  0  0  0  0  0  0  0  0  0
   19.3862  -14.2194    9.3094 O   0  0  0  0  0  0  0  0  0  0  0  0
   20.2556  -13.3801    8.9556 O   0  0  0  0  0  0  0  0  0  0  0  0
  2  3  2  0
  2  1  1  0
  4  2  1  0
  5  4  1  0
  6  5  1  0
  7  8  1  0
  7  6  1  0
  8 10  1  0
  8  9  1  1
 10 11  2  0
 12 13  1  0
 13 14  2  0
 13 23  1  0
 14 15  1  0
 15 16  2  0
 16 17  1  0
 18 17  1  6
 19 10  1  0
 19 18  1  0
 20 18  1  0
 20 32  1  0
 21 20  2  0
 22 16  1  0
 23 22  2  0
 24 25  1  0
 25 27  1  0
 26 25  2  0
 27 28  1  0
 29 28  1  0
 30 29  1  0
 31 33  1  0
 31 32  1  0
 31 30  1  6
 33 35  1  0
 34 33  2  0
M  END
$$$$
