RYR.pdb
     RDKit          3D

 35 35  0  0  1  0  0  0  0  0999 V2000
   31.6145  -20.9146  -10.5246 N   0  0  0  0  0  0  0  0  0  0  0  0
   31.4328  -22.3145  -10.6617 C   0  0  0  0  0  0  0  0  0  0  0  0
   32.3799  -23.1409  -10.8924 N   0  0  0  0  0  0  0  0  0  0  0  0
   30.0919  -22.8125  -10.5166 N   0  0  0  0  0  0  0  0  0  0  0  0
   29.0285  -22.2991  -11.3682 C   0  0  0  0  0  0  0  0  0  0  0  0
   28.7168  -20.8675  -11.1299 C   0  0  0  0  0  0  0  0  0  0  0  0
   27.3210  -20.5377  -10.6885 C   0  0  0  0  0  0  0  0  0  0  0  0
   26.2602  -21.3524  -11.3963 C   0  0  2  0  0  0  0  0  0  0  0  0
   26.7855  -21.9244  -12.6171 N   0  0  0  0  0  0  0  0  0  0  0  0
   25.0638  -20.4895  -11.7627 C   0  0  0  0  0  0  0  0  0  0  0  0
   24.5444  -19.8318  -10.8250 O   0  0  0  0  0  0  0  0  0  0  0  0
   32.3386  -24.1504  -10.9984 O   0  0  0  0  0  0  0  0  0  0  0  0
   28.2026  -20.4630  -17.8030 C   0  0  0  0  0  0  0  0  0  0  0  0
   27.1930  -19.9375  -16.9815 C   0  0  0  0  0  0  0  0  0  0  0  0
   27.4192  -18.8938  -16.1149 C   0  0  0  0  0  0  0  0  0  0  0  0
   26.3948  -18.4092  -15.3187 C   0  0  0  0  0  0  0  0  0  0  0  0
   25.1203  -18.9631  -15.3767 C   0  0  0  0  0  0  0  0  0  0  0  0
   24.0783  -18.4873  -14.4725 C   0  0  1  0  0  0  0  0  0  0  0  0
   23.4664  -19.5371  -13.5442 N   0  0  0  0  0  0  0  0  0  0  0  0
   24.5538  -20.4169  -13.0553 C   0  0  0  0  0  0  0  0  0  0  0  0
   22.4701  -20.3933  -14.1648 O   0  0  0  0  0  0  0  0  0  0  0  0
   22.8638  -21.4559  -14.8051 C   0  0  0  0  0  0  0  0  0  0  0  0
   24.9290  -19.9929  -16.2484 C   0  0  0  0  0  0  0  0  0  0  0  0
   25.9320  -20.5011  -17.0574 N   0  0  0  0  0  0  0  0  0  0  0  0
   19.2866  -23.9556   -8.5535 C   0  0  0  0  0  0  0  0  0  0  0  0
   18.3037  -24.4276   -9.4499 N   0  0  0  0  0  0  0  0  0  0  0  0
   17.1570  -24.7832   -8.9852 N   0  0  0  0  0  0  0  0  0  0  0  0
   18.5422  -24.5290  -10.8633 C   0  0  0  0  0  0  0  0  0  0  0  0
   19.5868  -23.7001  -11.4194 C   0  0  0  0  0  0  0  0  0  0  0  0
   19.2619  -22.2398  -11.5001 C   0  0  0  0  0  0  0  0  0  0  0  0
   20.3538  -21.3978  -12.1000 C   0  0  1  0  0  0  0  0  0  0  0  0
   20.1869  -21.2538  -13.6088 N   0  0  0  0  0  0  0  0  0  0  0  0
   21.0685  -20.2140  -14.1605 C   0  0  0  0  0  0  0  0  0  0  0  0
   18.8020  -20.9196  -13.9483 O   0  0  0  0  0  0  0  0  0  0  0  0
   17.8792  -21.7385  -13.6967 O   0  0  0  0  0  0  0  0  0  0  0  0
  2  3  2  0
  2  1  1  0
  4  2  1  0
  5  4  1  0
  6  5  1  0
  7  8  1  0
  7  6  1  0
  8 10  1  0
  8  9  1  6
 10 11  2  0
 12 13  1  0
 13 14  2  0
 13 23  1  0
 14 15  1  0
 15 16  2  0
 16 17  1  0
 18 17  1  1
 19 10  1  0
 19 18  1  0
 20 18  1  0
 20 32  1  0
 21 20  2  0
 22 16  1  0
 23 22  2  0
 24 25  1  0
 25 27  1  0
 26 25  2  0
 27 28  1  0
 29 28  1  0
 30 29  1  0
 31 33  1  0
 31 32  1  0
 31 30  1  6
 33 35  1  0
 34 33  2  0
M  END
$$$$
