RYR.pdb
     RDKit          3D

 35 35  0  0  1  0  0  0  0  0999 V2000
   30.3649  -25.2912  -18.4577 N   0  0  0  0  0  0  0  0  0  0  0  0
   30.4461  -25.6550  -17.0893 C   0  0  0  0  0  0  0  0  0  0  0  0
   31.4547  -26.2348  -16.5605 N   0  0  0  0  0  0  0  0  0  0  0  0
   29.3152  -25.3304  -16.2630 N   0  0  0  0  0  0  0  0  0  0  0  0
   28.1281  -24.7316  -16.8562 C   0  0  0  0  0  0  0  0  0  0  0  0
   28.2259  -23.2597  -17.0216 C   0  0  0  0  0  0  0  0  0  0  0  0
   27.3835  -22.4138  -16.1123 C   0  0  0  0  0  0  0  0  0  0  0  0
   25.9886  -22.9627  -15.9046 C   0  0  2  0  0  0  0  0  0  0  0  0
   25.4652  -23.5076  -17.1385 N   0  0  0  0  0  0  0  0  0  0  0  0
   25.0380  -21.8734  -15.4355 C   0  0  0  0  0  0  0  0  0  0  0  0
   25.3895  -21.2309  -14.4131 O   0  0  0  0  0  0  0  0  0  0  0  0
   31.5695  -26.5857  -15.6140 O   0  0  0  0  0  0  0  0  0  0  0  0
   17.9760  -16.3881  -15.8580 C   0  0  0  0  0  0  0  0  0  0  0  0
   19.0597  -17.2376  -16.1302 C   0  0  0  0  0  0  0  0  0  0  0  0
   18.8888  -18.5326  -16.5604 C   0  0  0  0  0  0  0  0  0  0  0  0
   19.9867  -19.3382  -16.8129 C   0  0  0  0  0  0  0  0  0  0  0  0
   21.2809  -18.8591  -16.6387 C   0  0  0  0  0  0  0  0  0  0  0  0
   22.4195  -19.7504  -16.8359 C   0  0  1  0  0  0  0  0  0  0  0  0
   22.7870  -20.6404  -15.6482 N   0  0  0  0  0  0  0  0  0  0  0  0
   23.8407  -21.5867  -16.0839 C   0  0  0  0  0  0  0  0  0  0  0  0
   21.6913  -21.4345  -15.1192 O   0  0  0  0  0  0  0  0  0  0  0  0
   21.3570  -22.5333  -15.7317 C   0  0  0  0  0  0  0  0  0  0  0  0
   21.4152  -17.5708  -16.2153 C   0  0  0  0  0  0  0  0  0  0  0  0
   20.3382  -16.7399  -15.9534 N   0  0  0  0  0  0  0  0  0  0  0  0
   17.6844  -24.8386   -9.1113 C   0  0  0  0  0  0  0  0  0  0  0  0
   17.7295  -25.9045  -10.0357 N   0  0  0  0  0  0  0  0  0  0  0  0
   17.4692  -27.0963   -9.6244 N   0  0  0  0  0  0  0  0  0  0  0  0
   18.0612  -25.7040  -11.4193 C   0  0  0  0  0  0  0  0  0  0  0  0
   19.2027  -24.8681  -11.7120 C   0  0  0  0  0  0  0  0  0  0  0  0
   18.9575  -23.3951  -11.5909 C   0  0  0  0  0  0  0  0  0  0  0  0
   20.0909  -22.5391  -12.0845 C   0  0  1  0  0  0  0  0  0  0  0  0
   19.8776  -22.1045  -13.5304 N   0  0  0  0  0  0  0  0  0  0  0  0
   20.9101  -21.1562  -13.9751 C   0  0  0  0  0  0  0  0  0  0  0  0
   18.5650  -21.4762  -13.6954 O   0  0  0  0  0  0  0  0  0  0  0  0
   18.4204  -20.2504  -13.4468 O   0  0  0  0  0  0  0  0  0  0  0  0
  2  3  2  0
  2  1  1  0
  4  2  1  0
  5  4  1  0
  6  5  1  0
  7  8  1  0
  7  6  1  0
  8 10  1  0
  8  9  1  6
 10 11  2  0
 12 13  1  0
 13 14  2  0
 13 23  1  0
 14 15  1  0
 15 16  2  0
 16 17  1  0
 18 17  1  1
 19 10  1  0
 19 18  1  0
 20 18  1  0
 20 32  1  0
 21 20  2  0
 22 16  1  0
 23 22  2  0
 24 25  1  0
 25 27  1  0
 26 25  2  0
 27 28  1  0
 29 28  1  0
 30 29  1  0
 31 33  1  0
 31 32  1  0
 31 30  1  6
 33 35  1  0
 34 33  2  0
M  END
$$$$
