RYR.pdb
     RDKit          3D

 35 35  0  0  1  0  0  0  0  0999 V2000
   28.9575  -26.0255  -17.8716 N   0  0  0  0  0  0  0  0  0  0  0  0
   28.4900  -26.5556  -16.6420 C   0  0  0  0  0  0  0  0  0  0  0  0
   29.0998  -27.4571  -15.9723 N   0  0  0  0  0  0  0  0  0  0  0  0
   27.2566  -26.0215  -16.1318 N   0  0  0  0  0  0  0  0  0  0  0  0
   26.4733  -25.0982  -16.9404 C   0  0  0  0  0  0  0  0  0  0  0  0
   26.7239  -23.6705  -16.6207 C   0  0  0  0  0  0  0  0  0  0  0  0
   25.9006  -23.0627  -15.5231 C   0  0  0  0  0  0  0  0  0  0  0  0
   24.4117  -23.2546  -15.7142 C   0  0  2  0  0  0  0  0  0  0  0  0
   24.0241  -22.9263  -17.0690 N   0  0  0  0  0  0  0  0  0  0  0  0
   23.6212  -22.3602  -14.7732 C   0  0  0  0  0  0  0  0  0  0  0  0
   23.8870  -22.4683  -13.5487 O   0  0  0  0  0  0  0  0  0  0  0  0
   28.8309  -27.8983  -15.0976 O   0  0  0  0  0  0  0  0  0  0  0  0
   17.6873  -15.8705  -12.8897 C   0  0  0  0  0  0  0  0  0  0  0  0
   18.6410  -16.7050  -13.4932 C   0  0  0  0  0  0  0  0  0  0  0  0
   18.3659  -17.4388  -14.6234 C   0  0  0  0  0  0  0  0  0  0  0  0
   19.3357  -18.2536  -15.1836 C   0  0  0  0  0  0  0  0  0  0  0  0
   20.6037  -18.3481  -14.6198 C   0  0  0  0  0  0  0  0  0  0  0  0
   21.5830  -19.2723  -15.1824 C   0  0  1  0  0  0  0  0  0  0  0  0
   21.8178  -20.5611  -14.3940 N   0  0  0  0  0  0  0  0  0  0  0  0
   22.6527  -21.4659  -15.2185 C   0  0  0  0  0  0  0  0  0  0  0  0
   20.6111  -21.2915  -14.0460 O   0  0  0  0  0  0  0  0  0  0  0  0
   20.0768  -22.0829  -14.9306 C   0  0  0  0  0  0  0  0  0  0  0  0
   20.8446  -17.6053  -13.5030 C   0  0  0  0  0  0  0  0  0  0  0  0
   19.8967  -16.7818  -12.9180 N   0  0  0  0  0  0  0  0  0  0  0  0
   18.7647  -25.3221   -8.3830 C   0  0  0  0  0  0  0  0  0  0  0  0
   17.4303  -25.6252   -8.7296 N   0  0  0  0  0  0  0  0  0  0  0  0
   17.0155  -26.8377   -8.6061 N   0  0  0  0  0  0  0  0  0  0  0  0
   16.5213  -24.6265   -9.2203 C   0  0  0  0  0  0  0  0  0  0  0  0
   17.0248  -23.2783   -9.3474 C   0  0  0  0  0  0  0  0  0  0  0  0
   17.1934  -22.7947  -10.7554 C   0  0  0  0  0  0  0  0  0  0  0  0
   18.6240  -22.5836  -11.1673 C   0  0  1  0  0  0  0  0  0  0  0  0
   18.7271  -22.0954  -12.6081 N   0  0  0  0  0  0  0  0  0  0  0  0
   19.9144  -21.2530  -12.8172 C   0  0  0  0  0  0  0  0  0  0  0  0
   17.5379  -21.3268  -12.9822 O   0  0  0  0  0  0  0  0  0  0  0  0
   17.4726  -20.0994  -12.7088 O   0  0  0  0  0  0  0  0  0  0  0  0
  2  3  2  0
  2  1  1  0
  4  2  1  0
  5  4  1  0
  6  5  1  0
  7  8  1  0
  7  6  1  0
  8 10  1  0
  8  9  1  6
 10 11  2  0
 12 13  1  0
 13 14  2  0
 13 23  1  0
 14 15  1  0
 15 16  2  0
 16 17  1  0
 18 17  1  1
 19 10  1  0
 19 18  1  0
 20 18  1  0
 20 32  1  0
 21 20  2  0
 22 16  1  0
 23 22  2  0
 24 25  1  0
 25 27  1  0
 26 25  2  0
 27 28  1  0
 29 28  1  0
 30 29  1  0
 31 33  1  0
 31 32  1  0
 31 30  1  6
 33 35  1  0
 34 33  2  0
M  END
$$$$
