RYR.pdb
     RDKit          3D

 35 35  0  0  1  0  0  0  0  0999 V2000
   29.3627  -24.1692  -17.1911 N   0  0  0  0  0  0  0  0  0  0  0  0
   28.8428  -25.4126  -17.6327 C   0  0  0  0  0  0  0  0  0  0  0  0
   29.2784  -26.0506  -18.6506 N   0  0  0  0  0  0  0  0  0  0  0  0
   27.7663  -25.9760  -16.8641 N   0  0  0  0  0  0  0  0  0  0  0  0
   26.7007  -25.1181  -16.3658 C   0  0  0  0  0  0  0  0  0  0  0  0
   26.3805  -23.9847  -17.2693 C   0  0  0  0  0  0  0  0  0  0  0  0
   25.2636  -23.0738  -16.8511 C   0  0  0  0  0  0  0  0  0  0  0  0
   24.0017  -23.8124  -16.4614 C   0  0  2  0  0  0  0  0  0  0  0  0
   23.5134  -24.6080  -17.5669 N   0  0  0  0  0  0  0  0  0  0  0  0
   22.9019  -22.8414  -16.0640 C   0  0  0  0  0  0  0  0  0  0  0  0
   23.2067  -21.9786  -15.2013 O   0  0  0  0  0  0  0  0  0  0  0  0
   28.9598  -26.9338  -19.0386 O   0  0  0  0  0  0  0  0  0  0  0  0
   15.4529  -18.0821  -17.2303 C   0  0  0  0  0  0  0  0  0  0  0  0
   16.5763  -18.9124  -17.3677 C   0  0  0  0  0  0  0  0  0  0  0  0
   16.4691  -20.2528  -17.6560 C   0  0  0  0  0  0  0  0  0  0  0  0
   17.6044  -21.0366  -17.7783 C   0  0  0  0  0  0  0  0  0  0  0  0
   18.8726  -20.4897  -17.6136 C   0  0  0  0  0  0  0  0  0  0  0  0
   20.0494  -21.3509  -17.6700 C   0  0  1  0  0  0  0  0  0  0  0  0
   20.4980  -21.9598  -16.3411 N   0  0  0  0  0  0  0  0  0  0  0  0
   21.6226  -22.8864  -16.6095 C   0  0  0  0  0  0  0  0  0  0  0  0
   19.4756  -22.7194  -15.6423 O   0  0  0  0  0  0  0  0  0  0  0  0
   19.1568  -23.9014  -16.0844 C   0  0  0  0  0  0  0  0  0  0  0  0
   18.9438  -19.1582  -17.3325 C   0  0  0  0  0  0  0  0  0  0  0  0
   17.8281  -18.3473  -17.2030 N   0  0  0  0  0  0  0  0  0  0  0  0
   17.7143  -25.1189   -7.5866 C   0  0  0  0  0  0  0  0  0  0  0  0
   18.4925  -25.7072   -8.6068 N   0  0  0  0  0  0  0  0  0  0  0  0
   19.4538  -26.4981   -8.2783 N   0  0  0  0  0  0  0  0  0  0  0  0
   18.2505  -25.4487   -9.9993 C   0  0  0  0  0  0  0  0  0  0  0  0
   17.1467  -24.5766  -10.3287 C   0  0  0  0  0  0  0  0  0  0  0  0
   16.9544  -24.3227  -11.7927 C   0  0  0  0  0  0  0  0  0  0  0  0
   17.9781  -23.4027  -12.3982 C   0  0  1  0  0  0  0  0  0  0  0  0
   17.7553  -23.2232  -13.8959 N   0  0  0  0  0  0  0  0  0  0  0  0
   18.7534  -22.3237  -14.4940 C   0  0  0  0  0  0  0  0  0  0  0  0
   16.4207  -22.6815  -14.1610 O   0  0  0  0  0  0  0  0  0  0  0  0
   15.4874  -23.4534  -14.5055 O   0  0  0  0  0  0  0  0  0  0  0  0
  2  3  2  0
  2  1  1  0
  4  2  1  0
  5  4  1  0
  6  5  1  0
  7  8  1  0
  7  6  1  0
  8 10  1  0
  8  9  1  6
 10 11  2  0
 12 13  1  0
 13 14  2  0
 13 23  1  0
 14 15  1  0
 15 16  2  0
 16 17  1  0
 18 17  1  1
 19 10  1  0
 19 18  1  0
 20 18  1  0
 20 32  1  0
 21 20  2  0
 22 16  1  0
 23 22  2  0
 24 25  1  0
 25 27  1  0
 26 25  2  0
 27 28  1  0
 29 28  1  0
 30 29  1  0
 31 33  1  0
 31 32  1  0
 31 30  1  6
 33 35  1  0
 34 33  2  0
M  END
$$$$
