RYR.pdb
     RDKit          3D

 35 35  0  0  1  0  0  0  0  0999 V2000
   19.6744  -25.4397  -14.2395 N   0  0  0  0  0  0  0  0  0  0  0  0
   18.6281  -24.9636  -13.4089 C   0  0  0  0  0  0  0  0  0  0  0  0
   17.4942  -25.5395  -13.2836 N   0  0  0  0  0  0  0  0  0  0  0  0
   18.8871  -23.7626  -12.6623 N   0  0  0  0  0  0  0  0  0  0  0  0
   20.1847  -23.1096  -12.7610 C   0  0  0  0  0  0  0  0  0  0  0  0
   20.1669  -21.8770  -13.5879 C   0  0  0  0  0  0  0  0  0  0  0  0
   21.2685  -20.8846  -13.3565 C   0  0  0  0  0  0  0  0  0  0  0  0
   21.6262  -20.7158  -11.8958 C   0  0  2  0  0  0  0  0  0  0  0  0
   20.7571  -19.7455  -11.2660 N   0  0  0  0  0  0  0  0  0  0  0  0
   23.0582  -20.2314  -11.7373 C   0  0  0  0  0  0  0  0  0  0  0  0
   23.2235  -18.9851  -11.7060 O   0  0  0  0  0  0  0  0  0  0  0  0
   16.7149  -25.2969  -12.6786 O   0  0  0  0  0  0  0  0  0  0  0  0
   28.1238  -18.9471   -5.8831 C   0  0  0  0  0  0  0  0  0  0  0  0
   27.6800  -19.6420   -7.0190 C   0  0  0  0  0  0  0  0  0  0  0  0
   28.5387  -20.0539   -8.0111 C   0  0  0  0  0  0  0  0  0  0  0  0
   28.0571  -20.7332   -9.1178 C   0  0  0  0  0  0  0  0  0  0  0  0
   26.7013  -21.0136   -9.2511 C   0  0  0  0  0  0  0  0  0  0  0  0
   26.2077  -21.6611  -10.4622 C   0  0  2  0  0  0  0  0  0  0  0  0
   25.5722  -20.7391  -11.5033 N   0  0  0  0  0  0  0  0  0  0  0  0
   24.1407  -21.0993  -11.6324 C   0  0  0  0  0  0  0  0  0  0  0  0
   26.1560  -20.8244  -12.8309 O   0  0  0  0  0  0  0  0  0  0  0  0
   25.7197  -21.7340  -13.6534 C   0  0  0  0  0  0  0  0  0  0  0  0
   25.8783  -20.5951   -8.2487 C   0  0  0  0  0  0  0  0  0  0  0  0
   26.3281  -19.9133   -7.1299 N   0  0  0  0  0  0  0  0  0  0  0  0
   31.0609  -15.6784  -18.3223 C   0  0  0  0  0  0  0  0  0  0  0  0
   30.4941  -16.6679  -19.1543 N   0  0  0  0  0  0  0  0  0  0  0  0
   30.7450  -16.6379  -20.4167 N   0  0  0  0  0  0  0  0  0  0  0  0
   29.6426  -17.7047  -18.6397 C   0  0  0  0  0  0  0  0  0  0  0  0
   29.4512  -17.7545  -17.2085 C   0  0  0  0  0  0  0  0  0  0  0  0
   28.5664  -18.8629  -16.7255 C   0  0  0  0  0  0  0  0  0  0  0  0
   28.3421  -18.8688  -15.2387 C   0  0  2  0  0  0  0  0  0  0  0  0
   27.4891  -20.0558  -14.8044 N   0  0  0  0  0  0  0  0  0  0  0  0
   27.1790  -20.0107  -13.3675 C   0  0  0  0  0  0  0  0  0  0  0  0
   28.1709  -21.3189  -15.0951 O   0  0  0  0  0  0  0  0  0  0  0  0
   28.9708  -21.8081  -14.2546 O   0  0  0  0  0  0  0  0  0  0  0  0
  2  3  2  0
  2  1  1  0
  4  2  1  0
  5  4  1  0
  6  5  1  0
  7  8  1  0
  7  6  1  0
  8 10  1  0
  8  9  1  6
 10 11  2  0
 12 13  1  0
 13 14  2  0
 13 23  1  0
 14 15  1  0
 15 16  2  0
 16 17  1  0
 18 17  1  1
 19 10  1  0
 19 18  1  0
 20 18  1  0
 20 32  1  0
 21 20  2  0
 22 16  1  0
 23 22  2  0
 24 25  1  0
 25 27  1  0
 26 25  2  0
 27 28  1  0
 29 28  1  0
 30 29  1  0
 31 33  1  0
 31 32  1  0
 31 30  1  6
 33 35  1  0
 34 33  2  0
M  END
$$$$
