RYR.pdb
     RDKit          3D

 35 35  0  0  1  0  0  0  0  0999 V2000
   27.3859  -29.3889  -16.7783 N   0  0  0  0  0  0  0  0  0  0  0  0
   26.1504  -29.9550  -16.3725 C   0  0  0  0  0  0  0  0  0  0  0  0
   26.0411  -30.9015  -15.5209 N   0  0  0  0  0  0  0  0  0  0  0  0
   24.9597  -29.4051  -16.9614 N   0  0  0  0  0  0  0  0  0  0  0  0
   25.0626  -28.4584  -18.0628 C   0  0  0  0  0  0  0  0  0  0  0  0
   25.7422  -27.1913  -17.6940 C   0  0  0  0  0  0  0  0  0  0  0  0
   24.8666  -26.0094  -17.3965 C   0  0  0  0  0  0  0  0  0  0  0  0
   23.8951  -25.6873  -18.5112 C   0  0  2  0  0  0  0  0  0  0  0  0
   24.5798  -25.6295  -19.7845 N   0  0  0  0  0  0  0  0  0  0  0  0
   23.2259  -24.3424  -18.2800 C   0  0  0  0  0  0  0  0  0  0  0  0
   23.7651  -23.3503  -18.8337 O   0  0  0  0  0  0  0  0  0  0  0  0
   25.2066  -31.3878  -15.2061 O   0  0  0  0  0  0  0  0  0  0  0  0
   18.3783  -22.8280  -23.0421 C   0  0  0  0  0  0  0  0  0  0  0  0
   18.7778  -22.9340  -21.7007 C   0  0  0  0  0  0  0  0  0  0  0  0
   19.3002  -24.0941  -21.1786 C   0  0  0  0  0  0  0  0  0  0  0  0
   19.6774  -24.1563  -19.8474 C   0  0  0  0  0  0  0  0  0  0  0  0
   19.5379  -23.0530  -19.0120 C   0  0  0  0  0  0  0  0  0  0  0  0
   19.8692  -23.1665  -17.5953 C   0  0  2  0  0  0  0  0  0  0  0  0
   21.3369  -22.9413  -17.2305 N   0  0  0  0  0  0  0  0  0  0  0  0
   22.0817  -24.1931  -17.5024 C   0  0  0  0  0  0  0  0  0  0  0  0
   21.5735  -22.5966  -15.8391 O   0  0  0  0  0  0  0  0  0  0  0  0
   21.2686  -23.4616  -14.9154 C   0  0  0  0  0  0  0  0  0  0  0  0
   19.0207  -21.9183  -19.5616 C   0  0  0  0  0  0  0  0  0  0  0  0
   18.6333  -21.8239  -20.8882 N   0  0  0  0  0  0  0  0  0  0  0  0
   26.5333  -21.3265  -10.3658 C   0  0  0  0  0  0  0  0  0  0  0  0
   27.0961  -20.8741  -11.5787 N   0  0  0  0  0  0  0  0  0  0  0  0
   28.2094  -21.3839  -11.9765 N   0  0  0  0  0  0  0  0  0  0  0  0
   26.4702  -19.8601  -12.3816 C   0  0  0  0  0  0  0  0  0  0  0  0
   25.1818  -19.3725  -11.9460 C   0  0  0  0  0  0  0  0  0  0  0  0
   24.0288  -20.2853  -12.2322 C   0  0  0  0  0  0  0  0  0  0  0  0
   23.7125  -20.4388  -13.6941 C   0  0  1  0  0  0  0  0  0  0  0  0
   22.4468  -21.2611  -13.9113 N   0  0  0  0  0  0  0  0  0  0  0  0
   22.1172  -21.3923  -15.3385 C   0  0  0  0  0  0  0  0  0  0  0  0
   21.3069  -20.6509  -13.2234 O   0  0  0  0  0  0  0  0  0  0  0  0
   20.5963  -19.7998  -13.8201 O   0  0  0  0  0  0  0  0  0  0  0  0
  2  3  2  0
  2  1  1  0
  4  2  1  0
  5  4  1  0
  6  5  1  0
  7  8  1  0
  7  6  1  0
  8 10  1  0
  8  9  1  6
 10 11  2  0
 12 13  1  0
 13 14  2  0
 13 23  1  0
 14 15  1  0
 15 16  2  0
 16 17  1  0
 18 17  1  6
 19 10  1  0
 19 18  1  0
 20 18  1  0
 20 32  1  0
 21 20  2  0
 22 16  1  0
 23 22  2  0
 24 25  1  0
 25 27  1  0
 26 25  2  0
 27 28  1  0
 29 28  1  0
 30 29  1  0
 31 33  1  0
 31 32  1  0
 31 30  1  6
 33 35  1  0
 34 33  2  0
M  END
$$$$
