YMH.pdb
     RDKit          3D

 31 32  0  0  1  0  0  0  0  0999 V2000
    8.2040  -21.7885   16.8940 O   0  0  0  0  0  0  0  0  0  0  0  0
    8.3970  -20.9861   18.0254 C   0  0  0  0  0  0  0  0  0  0  0  0
    7.3296  -20.2226   18.4752 C   0  0  0  0  0  0  0  0  0  0  0  0
    7.4906  -19.4217   19.5888 C   0  0  0  0  0  0  0  0  0  0  0  0
    8.6771  -19.3448   20.2829 C   0  0  0  0  0  0  0  0  0  0  0  0
    8.8297  -18.4762   21.4801 C   0  0  0  0  0  0  0  0  0  0  0  0
    8.6980  -17.0196   21.1386 C   0  0  2  0  0  0  0  0  0  0  0  0
    9.4563  -16.6955   19.9456 N   0  0  0  0  0  0  0  0  0  0  0  0
    9.0861  -16.1150   22.2123 C   0  0  0  0  0  0  0  0  0  0  0  0
   10.3057  -15.7417   22.2490 O   0  0  0  0  0  0  0  0  0  0  0  0
    9.7260  -20.1226   19.8054 C   0  0  0  0  0  0  0  0  0  0  0  0
    9.5873  -20.9276   18.6977 C   0  0  0  0  0  0  0  0  0  0  0  0
    6.3101  -10.9680   27.6166 C   0  0  0  0  0  0  0  0  0  0  0  0
    6.0087  -12.2385   26.3758 S   0  0  0  0  0  0  0  0  0  0  0  0
    7.5916  -13.0178   25.8654 C   0  0  0  0  0  0  0  0  0  0  0  0
    7.3785  -13.9932   24.7700 C   0  0  0  0  0  0  0  0  0  0  0  0
    8.6051  -14.7232   24.2810 C   0  0  2  0  0  0  0  0  0  0  0  0
    8.1960  -15.6412   23.1945 N   0  0  0  0  0  0  0  0  0  0  0  0
    9.3100  -15.4935   25.3045 C   0  0  0  0  0  0  0  0  0  0  0  0
    9.7252  -14.8759   26.3306 O   0  0  0  0  0  0  0  0  0  0  0  0
    9.5758  -16.8743   25.2721 N   0  0  0  0  0  0  0  0  0  0  0  0
   10.3397  -17.4885   26.3797 C   0  0  1  0  0  0  0  0  0  0  0  0
   10.2642  -19.0069   26.2193 C   0  0  0  0  0  0  0  0  0  0  0  0
    8.9855  -19.4878   26.7709 C   0  0  0  0  0  0  0  0  0  0  0  0
    8.1669  -18.7589   27.6529 C   0  0  0  0  0  0  0  0  0  0  0  0
    7.0869  -19.4962   27.9506 N   0  0  0  0  0  0  0  0  0  0  0  0
    7.1887  -20.6561   27.2958 C   0  0  0  0  0  0  0  0  0  0  0  0
    8.3253  -20.6313   26.5997 N   0  0  0  0  0  0  0  0  0  0  0  0
   11.7424  -17.0950   26.1323 C   0  0  0  0  0  0  0  0  0  0  0  0
   12.0951  -16.7662   24.9737 O   0  0  0  0  0  0  0  0  0  0  0  0
   12.6905  -17.0671   27.1066 O   0  0  0  0  0  0  0  0  0  0  0  0
  2  1  1  0
  3  2  2  0
  4  3  1  0
  5 11  1  0
  5  4  2  0
  6  5  1  0
  7  9  1  0
  7  6  1  0
  7  8  1  6
  9 10  2  0
 11 12  2  0
 12  2  1  0
 13 14  1  0
 14 15  1  0
 16 15  1  0
 17 16  1  1
 18  9  1  0
 18 17  1  0
 19 21  1  0
 19 17  1  0
 20 19  2  0
 22 29  1  0
 22 21  1  0
 22 23  1  6
 23 24  1  0
 24 25  2  0
 24 28  1  0
 25 26  1  0
 26 27  1  0
 28 27  2  0
 29 31  1  0
 30 29  2  0
M  END
$$$$
