YMH.pdb
     RDKit          3D

 31 32  0  0  1  0  0  0  0  0999 V2000
    7.2383  -14.0755   15.3339 O   0  0  0  0  0  0  0  0  0  0  0  0
    7.7560  -14.0687   16.6351 C   0  0  0  0  0  0  0  0  0  0  0  0
    7.3447  -13.0625   17.4971 C   0  0  0  0  0  0  0  0  0  0  0  0
    7.8387  -13.0305   18.7865 C   0  0  0  0  0  0  0  0  0  0  0  0
    8.7323  -13.9633   19.2628 C   0  0  0  0  0  0  0  0  0  0  0  0
    9.2520  -13.9113   20.6549 C   0  0  0  0  0  0  0  0  0  0  0  0
    9.0301  -15.2039   21.3867 C   0  0  2  0  0  0  0  0  0  0  0  0
    7.6391  -15.6082   21.3162 N   0  0  0  0  0  0  0  0  0  0  0  0
    9.4519  -15.1832   22.7809 C   0  0  0  0  0  0  0  0  0  0  0  0
   10.7012  -15.0641   23.0112 O   0  0  0  0  0  0  0  0  0  0  0  0
    9.1235  -14.9575   18.3730 C   0  0  0  0  0  0  0  0  0  0  0  0
    8.6438  -15.0082   17.0840 C   0  0  0  0  0  0  0  0  0  0  0  0
    5.4211  -12.8553   26.9864 C   0  0  0  0  0  0  0  0  0  0  0  0
    6.9433  -11.9671   26.6141 S   0  0  0  0  0  0  0  0  0  0  0  0
    8.0345  -12.9927   25.5504 C   0  0  0  0  0  0  0  0  0  0  0  0
    8.1426  -14.3758   26.0720 C   0  0  0  0  0  0  0  0  0  0  0  0
    9.0106  -15.3205   25.2777 C   0  0  2  0  0  0  0  0  0  0  0  0
    8.5629  -15.2866   23.8674 N   0  0  0  0  0  0  0  0  0  0  0  0
    8.9933  -16.7070   25.7414 C   0  0  0  0  0  0  0  0  0  0  0  0
    8.4558  -17.5765   24.9918 O   0  0  0  0  0  0  0  0  0  0  0  0
    9.5252  -17.1872   26.9517 N   0  0  0  0  0  0  0  0  0  0  0  0
   10.4944  -18.3040   26.9214 C   0  0  1  0  0  0  0  0  0  0  0  0
   11.7519  -17.8176   26.2009 C   0  0  0  0  0  0  0  0  0  0  0  0
   11.7838  -18.3916   24.8445 C   0  0  0  0  0  0  0  0  0  0  0  0
   10.7990  -19.2419   24.3091 C   0  0  0  0  0  0  0  0  0  0  0  0
   11.1470  -19.5734   23.0572 N   0  0  0  0  0  0  0  0  0  0  0  0
   12.3064  -18.9703   22.7802 C   0  0  0  0  0  0  0  0  0  0  0  0
   12.6684  -18.2720   23.8565 N   0  0  0  0  0  0  0  0  0  0  0  0
   10.8615  -18.5216   28.3362 C   0  0  0  0  0  0  0  0  0  0  0  0
   11.6201  -19.4750   28.6365 O   0  0  0  0  0  0  0  0  0  0  0  0
   10.4170  -17.7322   29.3503 O   0  0  0  0  0  0  0  0  0  0  0  0
  2  1  1  0
  3  2  2  0
  4  3  1  0
  5 11  1  0
  5  4  2  0
  6  5  1  0
  7  9  1  0
  7  6  1  0
  7  8  1  1
  9 10  2  0
 11 12  2  0
 12  2  1  0
 13 14  1  0
 14 15  1  0
 16 15  1  0
 17 16  1  1
 18  9  1  0
 18 17  1  0
 19 21  1  0
 19 17  1  0
 20 19  2  0
 22 29  1  0
 22 21  1  0
 22 23  1  6
 23 24  1  0
 24 25  2  0
 24 28  1  0
 25 26  1  0
 26 27  1  0
 28 27  2  0
 29 31  1  0
 30 29  2  0
M  END
$$$$
