YMH.pdb
     RDKit          3D

 31 32  0  0  1  0  0  0  0  0999 V2000
    8.9812  -12.1588   17.9831 O   0  0  0  0  0  0  0  0  0  0  0  0
    8.4636  -13.3108   18.5883 C   0  0  0  0  0  0  0  0  0  0  0  0
    8.6796  -14.5306   17.9638 C   0  0  0  0  0  0  0  0  0  0  0  0
    8.1809  -15.6837   18.5377 C   0  0  0  0  0  0  0  0  0  0  0  0
    7.4698  -15.6789   19.7166 C   0  0  0  0  0  0  0  0  0  0  0  0
    6.9415  -16.9318   20.3182 C   0  0  0  0  0  0  0  0  0  0  0  0
    6.1115  -16.6623   21.5406 C   0  0  2  0  0  0  0  0  0  0  0  0
    4.9157  -15.9149   21.2017 N   0  0  0  0  0  0  0  0  0  0  0  0
    6.8224  -15.9692   22.6066 C   0  0  0  0  0  0  0  0  0  0  0  0
    6.9505  -14.7045   22.4966 O   0  0  0  0  0  0  0  0  0  0  0  0
    7.2715  -14.4400   20.3157 C   0  0  0  0  0  0  0  0  0  0  0  0
    7.7597  -13.2787   19.7612 C   0  0  0  0  0  0  0  0  0  0  0  0
    7.6190  -11.6547   28.1272 C   0  0  0  0  0  0  0  0  0  0  0  0
    6.8317  -12.6491   26.8481 S   0  0  0  0  0  0  0  0  0  0  0  0
    7.6699  -14.2769   26.7015 C   0  0  0  0  0  0  0  0  0  0  0  0
    7.1152  -15.0641   25.5749 C   0  0  0  0  0  0  0  0  0  0  0  0
    8.1018  -15.9015   24.7989 C   0  0  2  0  0  0  0  0  0  0  0  0
    7.3654  -16.6164   23.7326 N   0  0  0  0  0  0  0  0  0  0  0  0
    8.8378  -16.8807   25.5973 C   0  0  0  0  0  0  0  0  0  0  0  0
    8.1998  -17.8799   26.0460 O   0  0  0  0  0  0  0  0  0  0  0  0
   10.2057  -16.8324   25.9209 N   0  0  0  0  0  0  0  0  0  0  0  0
   10.8114  -17.9575   26.6658 C   0  0  1  0  0  0  0  0  0  0  0  0
   12.3295  -17.8597   26.5152 C   0  0  0  0  0  0  0  0  0  0  0  0
   12.7009  -18.2048   25.1319 C   0  0  0  0  0  0  0  0  0  0  0  0
   11.7999  -18.6443   24.1447 C   0  0  0  0  0  0  0  0  0  0  0  0
   12.4770  -18.8668   23.0087 N   0  0  0  0  0  0  0  0  0  0  0  0
   13.7633  -18.5873   23.2362 C   0  0  0  0  0  0  0  0  0  0  0  0
   13.8756  -18.1951   24.5054 N   0  0  0  0  0  0  0  0  0  0  0  0
   10.4970  -17.6823   28.0832 C   0  0  0  0  0  0  0  0  0  0  0  0
   10.0195  -16.5668   28.4033 O   0  0  0  0  0  0  0  0  0  0  0  0
   10.6982  -18.5859   29.0792 O   0  0  0  0  0  0  0  0  0  0  0  0
  2  1  1  0
  3  2  2  0
  4  3  1  0
  5 11  1  0
  5  4  2  0
  6  5  1  0
  7  9  1  0
  7  6  1  0
  7  8  1  6
  9 10  2  0
 11 12  2  0
 12  2  1  0
 13 14  1  0
 14 15  1  0
 16 15  1  0
 17 16  1  1
 18  9  1  0
 18 17  1  0
 19 21  1  0
 19 17  1  0
 20 19  2  0
 22 29  1  0
 22 21  1  0
 22 23  1  1
 23 24  1  0
 24 25  2  0
 24 28  1  0
 25 26  1  0
 26 27  1  0
 28 27  2  0
 29 31  1  0
 30 29  2  0
M  END
$$$$
