YMH.pdb
     RDKit          3D

 31 32  0  0  1  0  0  0  0  0999 V2000
    7.8210  -13.3849   15.6271 O   0  0  0  0  0  0  0  0  0  0  0  0
    7.8556  -13.7689   16.9734 C   0  0  0  0  0  0  0  0  0  0  0  0
    7.5487  -15.0852   17.2859 C   0  0  0  0  0  0  0  0  0  0  0  0
    7.5748  -15.4925   18.6053 C   0  0  0  0  0  0  0  0  0  0  0  0
    7.8955  -14.6416   19.6390 C   0  0  0  0  0  0  0  0  0  0  0  0
    7.9181  -15.1001   21.0533 C   0  0  0  0  0  0  0  0  0  0  0  0
    9.1743  -14.6793   21.7609 C   0  0  2  0  0  0  0  0  0  0  0  0
   10.3486  -15.1983   21.0864 N   0  0  0  0  0  0  0  0  0  0  0  0
    9.2249  -15.0563   23.1670 C   0  0  0  0  0  0  0  0  0  0  0  0
   10.3532  -15.4301   23.6310 O   0  0  0  0  0  0  0  0  0  0  0  0
    8.1977  -13.3299   19.2908 C   0  0  0  0  0  0  0  0  0  0  0  0
    8.1778  -12.9028   17.9825 C   0  0  0  0  0  0  0  0  0  0  0  0
    6.7817  -12.0975   28.1544 C   0  0  0  0  0  0  0  0  0  0  0  0
    6.1315  -11.6835   26.5264 S   0  0  0  0  0  0  0  0  0  0  0  0
    6.5485  -13.0043   25.3199 C   0  0  0  0  0  0  0  0  0  0  0  0
    6.9657  -14.2472   26.0111 C   0  0  0  0  0  0  0  0  0  0  0  0
    8.2205  -14.9068   25.4944 C   0  0  2  0  0  0  0  0  0  0  0  0
    8.1083  -15.0288   24.0237 N   0  0  0  0  0  0  0  0  0  0  0  0
    8.4944  -16.2293   26.0546 C   0  0  0  0  0  0  0  0  0  0  0  0
    8.5048  -16.3483   27.3165 O   0  0  0  0  0  0  0  0  0  0  0  0
    8.7465  -17.4062   25.3268 N   0  0  0  0  0  0  0  0  0  0  0  0
    9.1356  -18.6345   26.0530 C   0  0  1  0  0  0  0  0  0  0  0  0
    9.0996  -19.7989   25.0631 C   0  0  0  0  0  0  0  0  0  0  0  0
    7.7253  -19.9604   24.5572 C   0  0  0  0  0  0  0  0  0  0  0  0
    6.5601  -19.7029   25.3025 C   0  0  0  0  0  0  0  0  0  0  0  0
    5.4902  -19.9551   24.5343 N   0  0  0  0  0  0  0  0  0  0  0  0
    5.9292  -20.3596   23.3393 C   0  0  0  0  0  0  0  0  0  0  0  0
    7.2618  -20.3559   23.3734 N   0  0  0  0  0  0  0  0  0  0  0  0
   10.5508  -18.4212   26.4210 C   0  0  0  0  0  0  0  0  0  0  0  0
   11.1285  -17.3665   26.0625 O   0  0  0  0  0  0  0  0  0  0  0  0
   11.2762  -19.3185   27.1405 O   0  0  0  0  0  0  0  0  0  0  0  0
  2  1  1  0
  3  2  2  0
  4  3  1  0
  5 11  1  0
  5  4  2  0
  6  5  1  0
  7  9  1  0
  7  6  1  0
  7  8  1  6
  9 10  2  0
 11 12  2  0
 12  2  1  0
 13 14  1  0
 14 15  1  0
 16 15  1  0
 17 16  1  1
 18  9  1  0
 18 17  1  0
 19 21  1  0
 19 17  1  0
 20 19  2  0
 22 29  1  0
 22 21  1  0
 22 23  1  6
 23 24  1  0
 24 25  2  0
 24 28  1  0
 25 26  1  0
 26 27  1  0
 28 27  2  0
 29 31  1  0
 30 29  2  0
M  END
$$$$
