YMH.pdb
     RDKit          3D

 31 32  0  0  1  0  0  0  0  0999 V2000
    6.8568  -13.5940   15.2272 O   0  0  0  0  0  0  0  0  0  0  0  0
    7.1179  -13.9357   16.5599 C   0  0  0  0  0  0  0  0  0  0  0  0
    7.2699  -15.2788   16.8726 C   0  0  0  0  0  0  0  0  0  0  0  0
    7.5282  -15.6456   18.1789 C   0  0  0  0  0  0  0  0  0  0  0  0
    7.6434  -14.7282   19.1990 C   0  0  0  0  0  0  0  0  0  0  0  0
    7.9221  -15.1440   20.5991 C   0  0  0  0  0  0  0  0  0  0  0  0
    9.1510  -14.4784   21.1493 C   0  0  2  0  0  0  0  0  0  0  0  0
   10.2976  -14.7172   20.2940 N   0  0  0  0  0  0  0  0  0  0  0  0
    9.4829  -14.8668   22.5134 C   0  0  0  0  0  0  0  0  0  0  0  0
   10.5550  -15.5371   22.6851 O   0  0  0  0  0  0  0  0  0  0  0  0
    7.4855  -13.3914   18.8509 C   0  0  0  0  0  0  0  0  0  0  0  0
    7.2277  -13.0037   17.5557 C   0  0  0  0  0  0  0  0  0  0  0  0
    7.0346  -11.5760   27.7050 C   0  0  0  0  0  0  0  0  0  0  0  0
    6.0011  -12.8714   26.9988 S   0  0  0  0  0  0  0  0  0  0  0  0
    6.8959  -13.7324   25.6455 C   0  0  0  0  0  0  0  0  0  0  0  0
    8.3571  -13.7433   25.8932 C   0  0  0  0  0  0  0  0  0  0  0  0
    9.1721  -14.6709   25.0259 C   0  0  2  0  0  0  0  0  0  0  0  0
    8.6915  -14.5441   23.6319 N   0  0  0  0  0  0  0  0  0  0  0  0
    9.1182  -16.0797   25.4137 C   0  0  0  0  0  0  0  0  0  0  0  0
    8.1224  -16.7630   25.0288 O   0  0  0  0  0  0  0  0  0  0  0  0
   10.0757  -16.7704   26.1782 N   0  0  0  0  0  0  0  0  0  0  0  0
    9.8608  -18.2018   26.4820 C   0  0  1  0  0  0  0  0  0  0  0  0
   11.2046  -18.9186   26.3504 C   0  0  0  0  0  0  0  0  0  0  0  0
   11.5699  -19.0021   24.9256 C   0  0  0  0  0  0  0  0  0  0  0  0
   10.6589  -18.9166   23.8569 C   0  0  0  0  0  0  0  0  0  0  0  0
   11.3326  -19.0321   22.7031 N   0  0  0  0  0  0  0  0  0  0  0  0
   12.6266  -19.1864   22.9972 C   0  0  0  0  0  0  0  0  0  0  0  0
   12.7468  -19.1657   24.3247 N   0  0  0  0  0  0  0  0  0  0  0  0
    9.4914  -18.2311   27.9125 C   0  0  0  0  0  0  0  0  0  0  0  0
    9.3950  -17.1523   28.5464 O   0  0  0  0  0  0  0  0  0  0  0  0
    9.2441  -19.3815   28.5940 O   0  0  0  0  0  0  0  0  0  0  0  0
  2  1  1  0
  3  2  2  0
  4  3  1  0
  5 11  1  0
  5  4  2  0
  6  5  1  0
  7  9  1  0
  7  6  1  0
  7  8  1  6
  9 10  2  0
 11 12  2  0
 12  2  1  0
 13 14  1  0
 14 15  1  0
 16 15  1  0
 17 16  1  1
 18  9  1  0
 18 17  1  0
 19 21  1  0
 19 17  1  0
 20 19  2  0
 22 29  1  0
 22 21  1  0
 22 23  1  1
 23 24  1  0
 24 25  2  0
 24 28  1  0
 25 26  1  0
 26 27  1  0
 28 27  2  0
 29 31  1  0
 30 29  2  0
M  END
$$$$
