YMH.pdb
     RDKit          3D

 31 32  0  0  1  0  0  0  0  0999 V2000
    7.2031  -23.0498   29.3092 O   0  0  0  0  0  0  0  0  0  0  0  0
    7.4187  -22.0772   28.3249 C   0  0  0  0  0  0  0  0  0  0  0  0
    8.2068  -22.4146   27.2341 C   0  0  0  0  0  0  0  0  0  0  0  0
    8.4367  -21.4757   26.2477 C   0  0  0  0  0  0  0  0  0  0  0  0
    7.9132  -20.2033   26.2969 C   0  0  0  0  0  0  0  0  0  0  0  0
    8.1726  -19.2071   25.2241 C   0  0  0  0  0  0  0  0  0  0  0  0
    6.9403  -18.9173   24.4158 C   0  0  2  0  0  0  0  0  0  0  0  0
    6.7527  -19.9148   23.3799 N   0  0  0  0  0  0  0  0  0  0  0  0
    6.9174  -17.5916   23.8126 C   0  0  0  0  0  0  0  0  0  0  0  0
    7.3322  -17.4899   22.6103 O   0  0  0  0  0  0  0  0  0  0  0  0
    7.1284  -19.8985   27.4034 C   0  0  0  0  0  0  0  0  0  0  0  0
    6.8864  -20.8188   28.3978 C   0  0  0  0  0  0  0  0  0  0  0  0
    6.5056   -9.9586   26.2114 C   0  0  0  0  0  0  0  0  0  0  0  0
    5.9229  -11.6599   26.3148 S   0  0  0  0  0  0  0  0  0  0  0  0
    6.8123  -12.7120   25.1001 C   0  0  0  0  0  0  0  0  0  0  0  0
    6.3844  -14.1272   25.2043 C   0  0  0  0  0  0  0  0  0  0  0  0
    7.0506  -15.0952   24.2578 C   0  0  2  0  0  0  0  0  0  0  0  0
    6.4676  -16.4372   24.4809 N   0  0  0  0  0  0  0  0  0  0  0  0
    8.5034  -15.1869   24.3952 C   0  0  0  0  0  0  0  0  0  0  0  0
    9.2050  -14.2470   23.9145 O   0  0  0  0  0  0  0  0  0  0  0  0
    9.2170  -16.2247   25.0212 N   0  0  0  0  0  0  0  0  0  0  0  0
   10.6542  -16.0372   25.3155 C   0  0  1  0  0  0  0  0  0  0  0  0
   11.0051  -16.9049   26.5242 C   0  0  0  0  0  0  0  0  0  0  0  0
   10.4764  -16.2703   27.7441 C   0  0  0  0  0  0  0  0  0  0  0  0
    9.9213  -14.9788   27.8012 C   0  0  0  0  0  0  0  0  0  0  0  0
    9.5443  -14.7248   29.0628 N   0  0  0  0  0  0  0  0  0  0  0  0
    9.8368  -15.7981   29.8025 C   0  0  0  0  0  0  0  0  0  0  0  0
   10.3907  -16.7064   28.9991 N   0  0  0  0  0  0  0  0  0  0  0  0
   11.3550  -16.6135   24.1491 C   0  0  0  0  0  0  0  0  0  0  0  0
   10.6850  -17.0860   23.1992 O   0  0  0  0  0  0  0  0  0  0  0  0
   12.7099  -16.6609   24.0437 O   0  0  0  0  0  0  0  0  0  0  0  0
  2  1  1  0
  3  2  2  0
  4  3  1  0
  5 11  1  0
  5  4  2  0
  6  5  1  0
  7  9  1  0
  7  6  1  0
  7  8  1  6
  9 10  2  0
 11 12  2  0
 12  2  1  0
 13 14  1  0
 14 15  1  0
 16 15  1  0
 17 16  1  1
 18  9  1  0
 18 17  1  0
 19 21  1  0
 19 17  1  0
 20 19  2  0
 22 29  1  0
 22 21  1  0
 22 23  1  1
 23 24  1  0
 24 25  2  0
 24 28  1  0
 25 26  1  0
 26 27  1  0
 28 27  2  0
 29 31  1  0
 30 29  2  0
M  END
$$$$
