YMH.pdb
     RDKit          3D

 31 32  0  0  1  0  0  0  0  0999 V2000
    7.2417  -13.9812   15.0919 O   0  0  0  0  0  0  0  0  0  0  0  0
    7.4033  -14.3548   16.4319 C   0  0  0  0  0  0  0  0  0  0  0  0
    7.4784  -13.3505   17.3860 C   0  0  0  0  0  0  0  0  0  0  0  0
    7.6377  -13.6892   18.7155 C   0  0  0  0  0  0  0  0  0  0  0  0
    7.7266  -14.9945   19.1439 C   0  0  0  0  0  0  0  0  0  0  0  0
    7.8978  -15.3380   20.5804 C   0  0  0  0  0  0  0  0  0  0  0  0
    9.0843  -14.6450   21.1868 C   0  0  2  0  0  0  0  0  0  0  0  0
   10.2955  -14.9480   20.4488 N   0  0  0  0  0  0  0  0  0  0  0  0
    9.2964  -14.9433   22.5968 C   0  0  0  0  0  0  0  0  0  0  0  0
   10.4066  -15.4834   22.9187 O   0  0  0  0  0  0  0  0  0  0  0  0
    7.6477  -15.9757   18.1620 C   0  0  0  0  0  0  0  0  0  0  0  0
    7.4890  -15.6606   16.8316 C   0  0  0  0  0  0  0  0  0  0  0  0
    7.2403  -11.0381   27.9771 C   0  0  0  0  0  0  0  0  0  0  0  0
    6.2409  -12.0075   26.8342 S   0  0  0  0  0  0  0  0  0  0  0  0
    7.3076  -12.7797   25.5537 C   0  0  0  0  0  0  0  0  0  0  0  0
    7.5236  -14.2188   25.8349 C   0  0  0  0  0  0  0  0  0  0  0  0
    8.6152  -14.8950   25.0425 C   0  0  2  0  0  0  0  0  0  0  0  0
    8.3517  -14.6692   23.6038 N   0  0  0  0  0  0  0  0  0  0  0  0
    8.7423  -16.3329   25.2754 C   0  0  0  0  0  0  0  0  0  0  0  0
    8.4504  -17.1162   24.3225 O   0  0  0  0  0  0  0  0  0  0  0  0
    9.1677  -16.9494   26.4659 N   0  0  0  0  0  0  0  0  0  0  0  0
   10.0190  -18.1565   26.3894 C   0  0  1  0  0  0  0  0  0  0  0  0
   11.3058  -17.7800   25.6548 C   0  0  0  0  0  0  0  0  0  0  0  0
   11.2854  -18.3771   24.3081 C   0  0  0  0  0  0  0  0  0  0  0  0
   10.2361  -19.1600   23.7928 C   0  0  0  0  0  0  0  0  0  0  0  0
   10.5498  -19.5372   22.5447 N   0  0  0  0  0  0  0  0  0  0  0  0
   11.7490  -19.0271   22.2510 C   0  0  0  0  0  0  0  0  0  0  0  0
   12.1696  -18.3403   23.3133 N   0  0  0  0  0  0  0  0  0  0  0  0
   10.3878  -18.4457   27.7907 C   0  0  0  0  0  0  0  0  0  0  0  0
   11.0325  -19.4893   28.0555 O   0  0  0  0  0  0  0  0  0  0  0  0
   10.0638  -17.6299   28.8293 O   0  0  0  0  0  0  0  0  0  0  0  0
  2  1  1  0
  3  2  2  0
  4  3  1  0
  5 11  1  0
  5  4  2  0
  6  5  1  0
  7  9  1  0
  7  6  1  0
  7  8  1  6
  9 10  2  0
 11 12  2  0
 12  2  1  0
 13 14  1  0
 14 15  1  0
 16 15  1  0
 17 16  1  1
 18  9  1  0
 18 17  1  0
 19 21  1  0
 19 17  1  0
 20 19  2  0
 22 29  1  0
 22 21  1  0
 22 23  1  6
 23 24  1  0
 24 25  2  0
 24 28  1  0
 25 26  1  0
 26 27  1  0
 28 27  2  0
 29 31  1  0
 30 29  2  0
M  END
$$$$
