RGR.pdb
     RDKit          3D

 27 26  0  0  1  0  0  0  0  0999 V2000
    9.8176  -13.5105   13.6617 N   0  0  0  0  0  0  0  0  0  0  0  0
    8.6352  -13.2433   14.4075 C   0  0  0  0  0  0  0  0  0  0  0  0
    8.2556  -12.0444   14.6974 N   0  0  0  0  0  0  0  0  0  0  0  0
    7.7829  -14.3049   14.8873 N   0  0  0  0  0  0  0  0  0  0  0  0
    6.8167  -14.0645   15.9437 C   0  0  0  0  0  0  0  0  0  0  0  0
    7.3671  -13.1850   17.0077 C   0  0  0  0  0  0  0  0  0  0  0  0
    7.4824  -13.7607   18.3545 C   0  0  0  0  0  0  0  0  0  0  0  0
    8.5235  -14.7826   18.5967 C   0  0  2  0  0  0  0  0  0  0  0  0
    8.3775  -15.9867   17.8409 N   0  0  0  0  0  0  0  0  0  0  0  0
    8.5358  -15.0664   20.0682 C   0  0  0  0  0  0  0  0  0  0  0  0
    8.6541  -14.1211   20.8888 O   0  0  0  0  0  0  0  0  0  0  0  0
    7.4011  -11.8329   15.2557 N   0  0  0  0  0  0  0  0  0  0  0  0
    8.4187  -16.3749   20.6134 C   0  0  0  0  0  0  0  0  0  0  0  0
    8.4165  -16.5824   22.0474 C   0  0  0  0  0  0  0  0  0  0  0  0
    9.7451  -16.4084   22.6428 O   0  0  0  0  0  0  0  0  0  0  0  0
   10.7315  -16.1922   21.9032 N   0  0  0  0  0  0  0  0  0  0  0  0
   10.1750  -16.8947   30.6991 C   0  0  0  0  0  0  0  0  0  0  0  0
   10.1082  -15.6858   29.9825 N   0  0  0  0  0  0  0  0  0  0  0  0
   10.0025  -14.5348   30.5711 N   0  0  0  0  0  0  0  0  0  0  0  0
   10.1579  -15.7262   28.5639 C   0  0  0  0  0  0  0  0  0  0  0  0
   10.1123  -14.5005   27.7761 C   0  0  0  0  0  0  0  0  0  0  0  0
   10.1701  -14.8822   26.3276 C   0  0  0  0  0  0  0  0  0  0  0  0
   11.1660  -16.0025   26.0817 C   0  0  2  0  0  0  0  0  0  0  0  0
   11.2618  -16.3443   24.6180 N   0  0  0  0  0  0  0  0  0  0  0  0
    9.9469  -16.4787   24.0415 C   0  0  0  0  0  0  0  0  0  0  0  0
   12.0853  -17.5664   24.3931 O   0  0  0  0  0  0  0  0  0  0  0  0
   11.5672  -18.6559   24.0424 O   0  0  0  0  0  0  0  0  0  0  0  0
  2  1  1  0
  3  2  2  0
  4  2  1  0
  5  4  1  0
  6  5  1  0
  7  6  1  0
  8  7  1  0
  8  9  1  6
 10  8  1  0
 11 10  2  0
 12 10  1  0
 13 12  1  0
 14 13  1  0
 14 15  2  0
 17 16  1  0
 17 18  2  0
 19 17  1  0
 20 19  1  0
 21 20  1  0
 23 22  1  6
 22 21  1  0
 23 24  1  0
 24 14  1  0
 25 23  1  0
 26 25  2  0
 27 25  1  0
M  END
$$$$
