RGR.pdb
     RDKit          3D

 27 26  0  0  1  0  0  0  0  0999 V2000
    9.8297  -19.1754   13.9211 N   0  0  0  0  0  0  0  0  0  0  0  0
    8.4979  -18.6782   13.8510 C   0  0  0  0  0  0  0  0  0  0  0  0
    8.0385  -18.0742   12.8072 N   0  0  0  0  0  0  0  0  0  0  0  0
    7.5741  -18.8213   14.9510 N   0  0  0  0  0  0  0  0  0  0  0  0
    7.9042  -18.3165   16.2713 C   0  0  0  0  0  0  0  0  0  0  0  0
    7.9597  -16.8317   16.2984 C   0  0  0  0  0  0  0  0  0  0  0  0
    8.3125  -16.2013   17.5778 C   0  0  0  0  0  0  0  0  0  0  0  0
    7.3759  -16.3413   18.7136 C   0  0  2  0  0  0  0  0  0  0  0  0
    6.0061  -16.0753   18.4052 N   0  0  0  0  0  0  0  0  0  0  0  0
    7.8671  -15.4446   19.8094 C   0  0  0  0  0  0  0  0  0  0  0  0
    9.0402  -15.5695   20.2443 O   0  0  0  0  0  0  0  0  0  0  0  0
    7.0789  -17.6702   12.7546 N   0  0  0  0  0  0  0  0  0  0  0  0
    7.0684  -14.4309   20.4075 C   0  0  0  0  0  0  0  0  0  0  0  0
    7.6067  -13.5844   21.4531 C   0  0  0  0  0  0  0  0  0  0  0  0
    7.5384  -14.2128   22.7761 O   0  0  0  0  0  0  0  0  0  0  0  0
    6.5209  -14.8659   23.0995 N   0  0  0  0  0  0  0  0  0  0  0  0
   12.3792  -19.5925   28.1586 C   0  0  0  0  0  0  0  0  0  0  0  0
   11.8489  -18.4327   28.7528 N   0  0  0  0  0  0  0  0  0  0  0  0
   12.3119  -17.9477   29.8631 N   0  0  0  0  0  0  0  0  0  0  0  0
   10.7679  -17.7686   28.1149 C   0  0  0  0  0  0  0  0  0  0  0  0
   10.9916  -16.9106   26.9578 C   0  0  0  0  0  0  0  0  0  0  0  0
    9.6626  -16.3738   26.5192 C   0  0  0  0  0  0  0  0  0  0  0  0
    9.7822  -15.5469   25.2506 C   0  0  2  0  0  0  0  0  0  0  0  0
    8.5351  -14.7414   24.9972 N   0  0  0  0  0  0  0  0  0  0  0  0
    8.5985  -14.1011   23.7067 C   0  0  0  0  0  0  0  0  0  0  0  0
    8.2895  -13.7537   26.0865 O   0  0  0  0  0  0  0  0  0  0  0  0
    8.7858  -12.5999   26.0553 O   0  0  0  0  0  0  0  0  0  0  0  0
  2  1  1  0
  3  2  2  0
  4  2  1  0
  5  4  1  0
  6  5  1  0
  7  6  1  0
  8  7  1  0
  8  9  1  6
 10  8  1  0
 11 10  2  0
 12 10  1  0
 13 12  1  0
 14 13  1  0
 14 15  2  0
 17 16  1  0
 17 18  2  0
 19 17  1  0
 20 19  1  0
 21 20  1  0
 23 22  1  6
 22 21  1  0
 23 24  1  0
 24 14  1  0
 25 23  1  0
 26 25  2  0
 27 25  1  0
M  END
$$$$
