RGR.pdb
     RDKit          3D

 27 26  0  0  1  0  0  0  0  0999 V2000
    7.4568  -21.5144   20.8259 N   0  0  0  0  0  0  0  0  0  0  0  0
    8.6641  -21.0052   20.2699 C   0  0  0  0  0  0  0  0  0  0  0  0
    9.8223  -21.2609   20.7784 N   0  0  0  0  0  0  0  0  0  0  0  0
    8.6655  -20.1668   19.0949 N   0  0  0  0  0  0  0  0  0  0  0  0
    7.4219  -19.6819   18.5244 C   0  0  0  0  0  0  0  0  0  0  0  0
    7.6579  -18.7901   17.3593 C   0  0  0  0  0  0  0  0  0  0  0  0
    7.5008  -17.3464   17.5825 C   0  0  0  0  0  0  0  0  0  0  0  0
    8.6485  -16.4601   17.2922 C   0  0  2  0  0  0  0  0  0  0  0  0
    9.9222  -17.1076   17.2665 N   0  0  0  0  0  0  0  0  0  0  0  0
    8.6247  -15.3545   18.3037 C   0  0  0  0  0  0  0  0  0  0  0  0
    7.6409  -14.5732   18.3566 O   0  0  0  0  0  0  0  0  0  0  0  0
   10.7177  -20.9284   20.3608 N   0  0  0  0  0  0  0  0  0  0  0  0
    9.6742  -15.1245   19.2358 C   0  0  0  0  0  0  0  0  0  0  0  0
    9.5127  -14.1675   20.3117 C   0  0  0  0  0  0  0  0  0  0  0  0
    8.8196  -14.7370   21.4715 O   0  0  0  0  0  0  0  0  0  0  0  0
    7.6560  -15.1796   21.3415 N   0  0  0  0  0  0  0  0  0  0  0  0
    9.5820  -13.7162   28.1053 C   0  0  0  0  0  0  0  0  0  0  0  0
   10.0795  -14.8330   28.8014 N   0  0  0  0  0  0  0  0  0  0  0  0
   10.9578  -14.7251   29.7498 N   0  0  0  0  0  0  0  0  0  0  0  0
    9.6040  -16.1251   28.4540 C   0  0  0  0  0  0  0  0  0  0  0  0
   10.0223  -16.7712   27.2159 C   0  0  0  0  0  0  0  0  0  0  0  0
    9.0445  -16.3907   26.1453 C   0  0  0  0  0  0  0  0  0  0  0  0
    9.7369  -15.7499   24.9548 C   0  0  2  0  0  0  0  0  0  0  0  0
    8.7519  -15.3778   23.8780 N   0  0  0  0  0  0  0  0  0  0  0  0
    9.4328  -14.8012   22.7451 C   0  0  0  0  0  0  0  0  0  0  0  0
    7.6887  -14.4709   24.3970 O   0  0  0  0  0  0  0  0  0  0  0  0
    6.8425  -14.8606   25.2398 O   0  0  0  0  0  0  0  0  0  0  0  0
  2  1  1  0
  3  2  2  0
  4  2  1  0
  5  4  1  0
  6  5  1  0
  7  6  1  0
  8  7  1  0
  8  9  1  1
 10  8  1  0
 11 10  2  0
 12 10  1  0
 13 12  1  0
 14 13  1  0
 14 15  2  0
 17 16  1  0
 17 18  2  0
 19 17  1  0
 20 19  1  0
 21 20  1  0
 23 22  1  6
 22 21  1  0
 23 24  1  0
 24 14  1  0
 25 23  1  0
 26 25  2  0
 27 25  1  0
M  END
$$$$
