RGR.pdb
     RDKit          3D

 27 26  0  0  1  0  0  0  0  0999 V2000
    7.5908  -13.8682   13.4230 N   0  0  0  0  0  0  0  0  0  0  0  0
    7.8366  -14.1561   14.7951 C   0  0  0  0  0  0  0  0  0  0  0  0
    8.1798  -15.3305   15.2054 N   0  0  0  0  0  0  0  0  0  0  0  0
    7.7166  -13.1442   15.8175 N   0  0  0  0  0  0  0  0  0  0  0  0
    8.2796  -13.3506   17.1395 C   0  0  0  0  0  0  0  0  0  0  0  0
    7.4444  -14.2656   17.9602 C   0  0  0  0  0  0  0  0  0  0  0  0
    7.6915  -14.2742   19.4085 C   0  0  0  0  0  0  0  0  0  0  0  0
    9.0240  -14.6947   19.8930 C   0  0  2  0  0  0  0  0  0  0  0  0
    9.7358  -15.5741   19.0200 N   0  0  0  0  0  0  0  0  0  0  0  0
    8.8319  -15.3135   21.2443 C   0  0  0  0  0  0  0  0  0  0  0  0
    8.1802  -14.7012   22.1283 O   0  0  0  0  0  0  0  0  0  0  0  0
    8.3636  -15.5571   16.2062 N   0  0  0  0  0  0  0  0  0  0  0  0
    9.3546  -16.5869   21.6029 C   0  0  0  0  0  0  0  0  0  0  0  0
    8.9705  -17.2214   22.8475 C   0  0  0  0  0  0  0  0  0  0  0  0
    9.7227  -16.7074   23.9964 O   0  0  0  0  0  0  0  0  0  0  0  0
   10.7887  -16.0791   23.8075 N   0  0  0  0  0  0  0  0  0  0  0  0
    5.4070  -12.5557   27.0967 C   0  0  0  0  0  0  0  0  0  0  0  0
    6.4173  -11.7788   26.5010 N   0  0  0  0  0  0  0  0  0  0  0  0
    6.1556  -10.7228   25.7948 N   0  0  0  0  0  0  0  0  0  0  0  0
    7.7726  -12.1637   26.6785 C   0  0  0  0  0  0  0  0  0  0  0  0
    8.1227  -13.3327   27.4760 C   0  0  0  0  0  0  0  0  0  0  0  0
    8.9426  -14.2471   26.6166 C   0  0  0  0  0  0  0  0  0  0  0  0
    9.2711  -15.5458   27.3328 C   0  0  2  0  0  0  0  0  0  0  0  0
   10.0646  -16.4758   26.4531 N   0  0  0  0  0  0  0  0  0  0  0  0
    9.2752  -16.9029   25.3244 C   0  0  0  0  0  0  0  0  0  0  0  0
   10.5946  -17.6383   27.2213 O   0  0  0  0  0  0  0  0  0  0  0  0
    9.8303  -18.4542   27.7944 O   0  0  0  0  0  0  0  0  0  0  0  0
  2  1  1  0
  3  2  2  0
  4  2  1  0
  5  4  1  0
  6  5  1  0
  7  6  1  0
  8  7  1  0
  8  9  1  6
 10  8  1  0
 11 10  2  0
 12 10  1  0
 13 12  1  0
 14 13  1  0
 14 15  2  0
 17 16  1  0
 17 18  2  0
 19 17  1  0
 20 19  1  0
 21 20  1  0
 23 22  1  6
 22 21  1  0
 23 24  1  0
 24 14  1  0
 25 23  1  0
 26 25  2  0
 27 25  1  0
M  END
$$$$
