RGR.pdb
     RDKit          3D

 27 26  0  0  1  0  0  0  0  0999 V2000
    6.9421  -15.9933   15.3684 N   0  0  0  0  0  0  0  0  0  0  0  0
    8.1817  -16.6644   15.5654 C   0  0  0  0  0  0  0  0  0  0  0  0
    8.7502  -17.3555   14.6356 N   0  0  0  0  0  0  0  0  0  0  0  0
    8.8830  -16.6114   16.8260 N   0  0  0  0  0  0  0  0  0  0  0  0
    8.3437  -15.8639   17.9474 C   0  0  0  0  0  0  0  0  0  0  0  0
    7.9727  -14.4776   17.5616 C   0  0  0  0  0  0  0  0  0  0  0  0
    7.3972  -13.6253   18.6110 C   0  0  0  0  0  0  0  0  0  0  0  0
    8.2989  -13.0804   19.6487 C   0  0  2  0  0  0  0  0  0  0  0  0
    9.5210  -12.5252   19.1582 N   0  0  0  0  0  0  0  0  0  0  0  0
    8.5615  -14.1797   20.6329 C   0  0  0  0  0  0  0  0  0  0  0  0
    7.6060  -14.6979   21.2649 O   0  0  0  0  0  0  0  0  0  0  0  0
    9.6879  -17.7983   14.7423 N   0  0  0  0  0  0  0  0  0  0  0  0
    9.8605  -14.6904   20.9068 C   0  0  0  0  0  0  0  0  0  0  0  0
   10.0832  -15.5891   22.0213 C   0  0  0  0  0  0  0  0  0  0  0  0
   11.3080  -15.2727   22.7627 O   0  0  0  0  0  0  0  0  0  0  0  0
   12.1145  -14.4361   22.2977 N   0  0  0  0  0  0  0  0  0  0  0  0
   11.0951  -18.7663   29.8864 C   0  0  0  0  0  0  0  0  0  0  0  0
   10.6797  -18.4460   28.5810 N   0  0  0  0  0  0  0  0  0  0  0  0
   10.5114  -19.3487   27.6649 N   0  0  0  0  0  0  0  0  0  0  0  0
   10.4358  -17.0860   28.2535 C   0  0  0  0  0  0  0  0  0  0  0  0
   11.5194  -16.1110   28.2401 C   0  0  0  0  0  0  0  0  0  0  0  0
   11.6228  -15.5570   26.8511 C   0  0  0  0  0  0  0  0  0  0  0  0
   12.7976  -16.1534   26.0950 C   0  0  2  0  0  0  0  0  0  0  0  0
   12.8566  -15.6464   24.6780 N   0  0  0  0  0  0  0  0  0  0  0  0
   11.6079  -15.8913   23.9994 C   0  0  0  0  0  0  0  0  0  0  0  0
   14.0078  -16.2320   23.9336 O   0  0  0  0  0  0  0  0  0  0  0  0
   13.8531  -17.1654   23.1071 O   0  0  0  0  0  0  0  0  0  0  0  0
  2  1  1  0
  3  2  2  0
  4  2  1  0
  5  4  1  0
  6  5  1  0
  7  6  1  0
  8  7  1  0
  8  9  1  6
 10  8  1  0
 11 10  2  0
 12 10  1  0
 13 12  1  0
 14 13  1  0
 14 15  2  0
 17 16  1  0
 17 18  2  0
 19 17  1  0
 20 19  1  0
 21 20  1  0
 23 22  1  1
 22 21  1  0
 23 24  1  0
 24 14  1  0
 25 23  1  0
 26 25  2  0
 27 25  1  0
M  END
$$$$
