RGR.pdb
     RDKit          3D

 27 26  0  0  1  0  0  0  0  0999 V2000
    8.2542  -12.3269   19.4080 N   0  0  0  0  0  0  0  0  0  0  0  0
    9.4490  -13.0255   19.0763 C   0  0  0  0  0  0  0  0  0  0  0  0
   10.3977  -13.2186   19.9296 N   0  0  0  0  0  0  0  0  0  0  0  0
    9.6728  -13.5647   17.7561 N   0  0  0  0  0  0  0  0  0  0  0  0
    8.6310  -13.5183   16.7462 C   0  0  0  0  0  0  0  0  0  0  0  0
    7.4977  -14.4204   17.0781 C   0  0  0  0  0  0  0  0  0  0  0  0
    7.5538  -15.7865   16.5402 C   0  0  0  0  0  0  0  0  0  0  0  0
    8.5619  -16.7186   17.0896 C   0  0  2  0  0  0  0  0  0  0  0  0
    8.7652  -17.9094   16.3260 N   0  0  0  0  0  0  0  0  0  0  0  0
    8.1518  -17.0410   18.4945 C   0  0  0  0  0  0  0  0  0  0  0  0
    7.0604  -17.6267   18.7111 O   0  0  0  0  0  0  0  0  0  0  0  0
   11.2887  -13.7065   19.6955 N   0  0  0  0  0  0  0  0  0  0  0  0
    8.9406  -16.7180   19.6332 C   0  0  0  0  0  0  0  0  0  0  0  0
    8.4421  -16.9593   20.9722 C   0  0  0  0  0  0  0  0  0  0  0  0
    9.4853  -16.8233   21.9935 O   0  0  0  0  0  0  0  0  0  0  0  0
   10.3204  -15.8951   21.9058 N   0  0  0  0  0  0  0  0  0  0  0  0
    9.5444  -13.5216   28.3924 C   0  0  0  0  0  0  0  0  0  0  0  0
   10.2195  -14.5593   29.0607 N   0  0  0  0  0  0  0  0  0  0  0  0
   10.8237  -14.3777   30.1940 N   0  0  0  0  0  0  0  0  0  0  0  0
   10.2411  -15.8524   28.4742 C   0  0  0  0  0  0  0  0  0  0  0  0
    9.6127  -16.1014   27.1826 C   0  0  0  0  0  0  0  0  0  0  0  0
    9.8112  -17.5485   26.8457 C   0  0  0  0  0  0  0  0  0  0  0  0
    9.2413  -17.8901   25.4797 C   0  0  1  0  0  0  0  0  0  0  0  0
   10.0642  -17.2868   24.3718 N   0  0  0  0  0  0  0  0  0  0  0  0
    9.5768  -17.7188   23.0852 C   0  0  0  0  0  0  0  0  0  0  0  0
   11.5141  -17.5908   24.5378 O   0  0  0  0  0  0  0  0  0  0  0  0
   12.1252  -17.3299   25.6040 O   0  0  0  0  0  0  0  0  0  0  0  0
  2  1  1  0
  3  2  2  0
  4  2  1  0
  5  4  1  0
  6  5  1  0
  7  6  1  0
  8  7  1  0
  8  9  1  6
 10  8  1  0
 11 10  2  0
 12 10  1  0
 13 12  1  0
 14 13  1  0
 14 15  2  0
 17 16  1  0
 17 18  2  0
 19 17  1  0
 20 19  1  0
 21 20  1  0
 23 22  1  6
 22 21  1  0
 23 24  1  0
 24 14  1  0
 25 23  1  0
 26 25  2  0
 27 25  1  0
M  END
$$$$
