RGR.pdb
     RDKit          3D

 27 26  0  0  1  0  0  0  0  0999 V2000
    8.3661  -15.7461   14.8948 N   0  0  0  0  0  0  0  0  0  0  0  0
    8.0794  -14.5157   14.2391 C   0  0  0  0  0  0  0  0  0  0  0  0
    7.7911  -14.4515   12.9829 N   0  0  0  0  0  0  0  0  0  0  0  0
    8.0935  -13.2567   14.9451 N   0  0  0  0  0  0  0  0  0  0  0  0
    8.2582  -13.2130   16.3867 C   0  0  0  0  0  0  0  0  0  0  0  0
    7.4353  -14.2451   17.0695 C   0  0  0  0  0  0  0  0  0  0  0  0
    7.5098  -14.2937   18.5360 C   0  0  0  0  0  0  0  0  0  0  0  0
    8.8430  -14.3725   19.1710 C   0  0  2  0  0  0  0  0  0  0  0  0
    9.8917  -14.8420   18.3212 N   0  0  0  0  0  0  0  0  0  0  0  0
    8.7066  -15.2359   20.3883 C   0  0  0  0  0  0  0  0  0  0  0  0
    7.8825  -14.9284   21.2869 O   0  0  0  0  0  0  0  0  0  0  0  0
    7.5534  -13.5620   12.4940 N   0  0  0  0  0  0  0  0  0  0  0  0
    9.4715  -16.4163   20.5997 C   0  0  0  0  0  0  0  0  0  0  0  0
    9.3782  -17.1458   21.8481 C   0  0  0  0  0  0  0  0  0  0  0  0
   10.2017  -16.5550   22.9076 O   0  0  0  0  0  0  0  0  0  0  0  0
   10.3453  -15.3127   22.9601 N   0  0  0  0  0  0  0  0  0  0  0  0
   10.6193  -16.3170   30.0831 C   0  0  0  0  0  0  0  0  0  0  0  0
   10.2675  -14.9621   30.2235 N   0  0  0  0  0  0  0  0  0  0  0  0
   10.2600  -14.3623   31.3735 N   0  0  0  0  0  0  0  0  0  0  0  0
    9.9074  -14.2238   29.0652 C   0  0  0  0  0  0  0  0  0  0  0  0
    9.3810  -14.8930   27.8819 C   0  0  0  0  0  0  0  0  0  0  0  0
   10.5232  -15.5783   27.1945 C   0  0  0  0  0  0  0  0  0  0  0  0
   10.1015  -16.1716   25.8613 C   0  0  2  0  0  0  0  0  0  0  0  0
   11.2656  -16.8055   25.1463 N   0  0  0  0  0  0  0  0  0  0  0  0
   10.8453  -17.3552   23.8810 C   0  0  0  0  0  0  0  0  0  0  0  0
   11.9360  -17.8328   25.9934 O   0  0  0  0  0  0  0  0  0  0  0  0
   11.4846  -19.0008   26.0954 O   0  0  0  0  0  0  0  0  0  0  0  0
  2  1  1  0
  3  2  2  0
  4  2  1  0
  5  4  1  0
  6  5  1  0
  7  6  1  0
  8  7  1  0
  8  9  1  6
 10  8  1  0
 11 10  2  0
 12 10  1  0
 13 12  1  0
 14 13  1  0
 14 15  2  0
 17 16  1  0
 17 18  2  0
 19 17  1  0
 20 19  1  0
 21 20  1  0
 23 22  1  6
 22 21  1  0
 23 24  1  0
 24 14  1  0
 25 23  1  0
 26 25  2  0
 27 25  1  0
M  END
$$$$
