RGR.pdb
     RDKit          3D

 27 26  0  0  1  0  0  0  0  0999 V2000
    8.3301  -15.8653   15.1528 N   0  0  0  0  0  0  0  0  0  0  0  0
    8.0112  -14.5352   14.7592 C   0  0  0  0  0  0  0  0  0  0  0  0
    7.4814  -14.2599   13.6152 N   0  0  0  0  0  0  0  0  0  0  0  0
    8.2623  -13.4060   15.6227 N   0  0  0  0  0  0  0  0  0  0  0  0
    8.6811  -13.5995   16.9991 C   0  0  0  0  0  0  0  0  0  0  0  0
    7.6913  -13.0496   17.9615 C   0  0  0  0  0  0  0  0  0  0  0  0
    7.7402  -13.5664   19.3360 C   0  0  0  0  0  0  0  0  0  0  0  0
    8.1163  -14.9815   19.5431 C   0  0  2  0  0  0  0  0  0  0  0  0
    7.5674  -15.8989   18.5948 N   0  0  0  0  0  0  0  0  0  0  0  0
    7.7200  -15.3479   20.9412 C   0  0  0  0  0  0  0  0  0  0  0  0
    8.1809  -14.6991   21.9147 O   0  0  0  0  0  0  0  0  0  0  0  0
    7.2617  -13.2897   13.3037 N   0  0  0  0  0  0  0  0  0  0  0  0
    6.8296  -16.4139   21.2478 C   0  0  0  0  0  0  0  0  0  0  0  0
    6.4481  -16.6893   22.6182 C   0  0  0  0  0  0  0  0  0  0  0  0
    7.5745  -17.1560   23.4326 O   0  0  0  0  0  0  0  0  0  0  0  0
    8.4382  -17.9051   22.9233 N   0  0  0  0  0  0  0  0  0  0  0  0
   11.2050  -15.4449   31.7070 C   0  0  0  0  0  0  0  0  0  0  0  0
   10.8925  -14.6329   30.6015 N   0  0  0  0  0  0  0  0  0  0  0  0
   10.5932  -13.3769   30.7251 N   0  0  0  0  0  0  0  0  0  0  0  0
   10.9047  -15.2081   29.3032 C   0  0  0  0  0  0  0  0  0  0  0  0
   10.1039  -16.3870   28.9968 C   0  0  0  0  0  0  0  0  0  0  0  0
   10.2928  -16.7069   27.5446 C   0  0  0  0  0  0  0  0  0  0  0  0
    9.0980  -16.2710   26.7139 C   0  0  2  0  0  0  0  0  0  0  0  0
    8.8366  -17.2264   25.5793 N   0  0  0  0  0  0  0  0  0  0  0  0
    7.7149  -16.7813   24.7898 C   0  0  0  0  0  0  0  0  0  0  0  0
    8.6412  -18.6204   26.0703 O   0  0  0  0  0  0  0  0  0  0  0  0
    7.4953  -19.0957   26.2681 O   0  0  0  0  0  0  0  0  0  0  0  0
  2  1  1  0
  3  2  2  0
  4  2  1  0
  5  4  1  0
  6  5  1  0
  7  6  1  0
  8  7  1  0
  8  9  1  6
 10  8  1  0
 11 10  2  0
 12 10  1  0
 13 12  1  0
 14 13  1  0
 14 15  2  0
 17 16  1  0
 17 18  2  0
 19 17  1  0
 20 19  1  0
 21 20  1  0
 23 22  1  6
 22 21  1  0
 23 24  1  0
 24 14  1  0
 25 23  1  0
 26 25  2  0
 27 25  1  0
M  END
$$$$
