RGR.pdb
     RDKit          3D

 27 26  0  0  1  0  0  0  0  0999 V2000
    7.4028  -12.3836   18.3727 N   0  0  0  0  0  0  0  0  0  0  0  0
    8.5672  -13.0812   18.8011 C   0  0  0  0  0  0  0  0  0  0  0  0
    9.6709  -13.0619   18.1328 N   0  0  0  0  0  0  0  0  0  0  0  0
    8.5837  -13.8573   20.0182 N   0  0  0  0  0  0  0  0  0  0  0  0
    7.7408  -15.0300   20.1652 C   0  0  0  0  0  0  0  0  0  0  0  0
    8.1569  -16.1285   19.2550 C   0  0  0  0  0  0  0  0  0  0  0  0
    9.2240  -17.0196   19.7304 C   0  0  0  0  0  0  0  0  0  0  0  0
    9.0495  -17.6934   21.0351 C   0  0  2  0  0  0  0  0  0  0  0  0
    8.4403  -16.8953   22.0521 N   0  0  0  0  0  0  0  0  0  0  0  0
   10.3982  -18.1828   21.4678 C   0  0  0  0  0  0  0  0  0  0  0  0
   11.0199  -19.0167   20.7612 O   0  0  0  0  0  0  0  0  0  0  0  0
   10.5448  -13.5296   18.4557 N   0  0  0  0  0  0  0  0  0  0  0  0
   11.0404  -17.7525   22.6619 C   0  0  0  0  0  0  0  0  0  0  0  0
   11.7089  -18.7031   23.5273 C   0  0  0  0  0  0  0  0  0  0  0  0
   11.3066  -18.5657   24.9305 O   0  0  0  0  0  0  0  0  0  0  0  0
   11.2765  -17.4308   25.4576 N   0  0  0  0  0  0  0  0  0  0  0  0
   12.6038  -22.8081   32.5368 C   0  0  0  0  0  0  0  0  0  0  0  0
   12.2188  -23.7576   31.5726 N   0  0  0  0  0  0  0  0  0  0  0  0
   12.4284  -25.0282   31.7271 N   0  0  0  0  0  0  0  0  0  0  0  0
   11.5777  -23.3097   30.3873 C   0  0  0  0  0  0  0  0  0  0  0  0
   12.3491  -22.7672   29.2757 C   0  0  0  0  0  0  0  0  0  0  0  0
   11.8063  -21.4061   28.9599 C   0  0  0  0  0  0  0  0  0  0  0  0
   11.4965  -21.2548   27.4805 C   0  0  2  0  0  0  0  0  0  0  0  0
   11.3623  -19.8064   27.0901 N   0  0  0  0  0  0  0  0  0  0  0  0
   10.9486  -19.6885   25.7136 C   0  0  0  0  0  0  0  0  0  0  0  0
   12.6199  -19.0495   27.3502 O   0  0  0  0  0  0  0  0  0  0  0  0
   13.6485  -19.2178   26.6487 O   0  0  0  0  0  0  0  0  0  0  0  0
  2  1  1  0
  3  2  2  0
  4  2  1  0
  5  4  1  0
  6  5  1  0
  7  6  1  0
  8  7  1  0
  8  9  1  1
 10  8  1  0
 11 10  2  0
 12 10  1  0
 13 12  1  0
 14 13  1  0
 14 15  2  0
 17 16  1  0
 17 18  2  0
 19 17  1  0
 20 19  1  0
 21 20  1  0
 23 22  1  1
 22 21  1  0
 23 24  1  0
 24 14  1  0
 25 23  1  0
 26 25  2  0
 27 25  1  0
M  END
$$$$
