RGR.pdb
     RDKit          3D

 27 26  0  0  1  0  0  0  0  0999 V2000
    9.3102  -14.3025   10.3387 N   0  0  0  0  0  0  0  0  0  0  0  0
    8.7763  -13.7521   11.5378 C   0  0  0  0  0  0  0  0  0  0  0  0
    7.7979  -12.9105   11.5377 N   0  0  0  0  0  0  0  0  0  0  0  0
    9.3004  -14.1051   12.8356 N   0  0  0  0  0  0  0  0  0  0  0  0
    8.7099  -15.1819   13.6096 C   0  0  0  0  0  0  0  0  0  0  0  0
    7.7025  -14.6788   14.5793 C   0  0  0  0  0  0  0  0  0  0  0  0
    8.2134  -14.0508   15.8054 C   0  0  0  0  0  0  0  0  0  0  0  0
    8.7099  -14.9250   16.8900 C   0  0  2  0  0  0  0  0  0  0  0  0
    8.0199  -16.1688   17.0288 N   0  0  0  0  0  0  0  0  0  0  0  0
    8.6562  -14.1326   18.1609 C   0  0  0  0  0  0  0  0  0  0  0  0
    9.3303  -13.0770   18.2714 O   0  0  0  0  0  0  0  0  0  0  0  0
    7.2892  -12.6227   12.4008 N   0  0  0  0  0  0  0  0  0  0  0  0
    7.8686  -14.5084   19.2842 C   0  0  0  0  0  0  0  0  0  0  0  0
    7.8949  -13.7247   20.5026 C   0  0  0  0  0  0  0  0  0  0  0  0
    8.8149  -14.2728   21.5040 O   0  0  0  0  0  0  0  0  0  0  0  0
    9.9858  -14.5669   21.1738 N   0  0  0  0  0  0  0  0  0  0  0  0
   11.6671  -15.2338   30.4247 C   0  0  0  0  0  0  0  0  0  0  0  0
   10.6144  -14.8151   29.5906 N   0  0  0  0  0  0  0  0  0  0  0  0
   10.0771  -13.6385   29.6884 N   0  0  0  0  0  0  0  0  0  0  0  0
   10.1216  -15.7119   28.6060 C   0  0  0  0  0  0  0  0  0  0  0  0
    9.1056  -15.2914   27.6489 C   0  0  0  0  0  0  0  0  0  0  0  0
    9.7088  -15.3591   26.2782 C   0  0  0  0  0  0  0  0  0  0  0  0
    8.7250  -14.9145   25.2096 C   0  0  2  0  0  0  0  0  0  0  0  0
    9.3358  -14.9825   23.8346 N   0  0  0  0  0  0  0  0  0  0  0  0
    8.4143  -14.4814   22.8450 C   0  0  0  0  0  0  0  0  0  0  0  0
    9.7946  -16.3623   23.5059 O   0  0  0  0  0  0  0  0  0  0  0  0
   10.8878  -16.8129   23.9304 O   0  0  0  0  0  0  0  0  0  0  0  0
  2  1  1  0
  3  2  2  0
  4  2  1  0
  5  4  1  0
  6  5  1  0
  7  6  1  0
  8  7  1  0
  8  9  1  1
 10  8  1  0
 11 10  2  0
 12 10  1  0
 13 12  1  0
 14 13  1  0
 14 15  2  0
 17 16  1  0
 17 18  2  0
 19 17  1  0
 20 19  1  0
 21 20  1  0
 23 22  1  1
 22 21  1  0
 23 24  1  0
 24 14  1  0
 25 23  1  0
 26 25  2  0
 27 25  1  0
M  END
$$$$
