HSR.pdb
     RDKit          3D

 28 28  0  0  1  0  0  0  0  0999 V2000
   25.3727  -17.7068  -19.9231 N   0  0  0  0  0  0  0  0  0  0  0  0
   24.3324  -16.7957  -20.2847 C   0  0  1  0  0  0  0  0  0  0  0  0
   22.9931  -17.2537  -19.7498 C   0  0  0  0  0  0  0  0  0  0  0  0
   22.7009  -18.5827  -20.3614 C   0  0  0  0  0  0  0  0  0  0  0  0
   22.3431  -18.8030  -21.6946 C   0  0  0  0  0  0  0  0  0  0  0  0
   22.1559  -20.1136  -21.8949 N   0  0  0  0  0  0  0  0  0  0  0  0
   22.3817  -20.7367  -20.7362 C   0  0  0  0  0  0  0  0  0  0  0  0
   22.7144  -19.8018  -19.8003 N   0  0  0  0  0  0  0  0  0  0  0  0
   24.6784  -15.4343  -19.8122 C   0  0  0  0  0  0  0  0  0  0  0  0
   25.0695  -15.2017  -18.6329 O   0  0  0  0  0  0  0  0  0  0  0  0
   24.2481  -12.3753  -22.5413 O   0  0  0  0  0  0  0  0  0  0  0  0
   25.2844  -12.2669  -21.6020 C   0  0  0  0  0  0  0  0  0  0  0  0
   24.8555  -12.9758  -20.3326 C   0  0  2  0  0  0  0  0  0  0  0  0
   24.5753  -14.3446  -20.6929 N   0  0  0  0  0  0  0  0  0  0  0  0
   23.6438  -12.3415  -19.7587 C   0  0  0  0  0  0  0  0  0  0  0  0
   22.4923  -12.7408  -20.0749 O   0  0  0  0  0  0  0  0  0  0  0  0
   21.5892   -8.8742  -12.8147 N   0  0  0  0  0  0  0  0  0  0  0  0
   20.7399   -7.9654  -13.5457 C   0  0  0  0  0  0  0  0  0  0  0  0
   19.5942   -7.6597  -13.0840 N   0  0  0  0  0  0  0  0  0  0  0  0
   21.1659   -7.4041  -14.7795 N   0  0  0  0  0  0  0  0  0  0  0  0
   22.2834   -7.9727  -15.5008 C   0  0  0  0  0  0  0  0  0  0  0  0
   21.8214   -9.0007  -16.5068 C   0  0  0  0  0  0  0  0  0  0  0  0
   22.9470   -9.6561  -17.2294 C   0  0  0  0  0  0  0  0  0  0  0  0
   22.5110  -10.6183  -18.3075 C   0  0  2  0  0  0  0  0  0  0  0  0
   23.7112  -11.2514  -18.8228 N   0  0  0  0  0  0  0  0  0  0  0  0
   21.7150   -9.9879  -19.3684 C   0  0  0  0  0  0  0  0  0  0  0  0
   20.3306  -10.0876  -19.4394 O   0  0  0  0  0  0  0  0  0  0  0  0
   22.2758   -9.3202  -20.2703 O   0  0  0  0  0  0  0  0  0  0  0  0
  2  1  1  1
  2  9  1  0
  3  2  1  0
  4  3  1  0
  4  5  2  0
  6  5  1  0
  7  8  2  0
  7  6  1  0
  8  4  1  0
  9 10  2  0
 11 12  1  0
 13 12  1  6
 13 15  1  0
 14  9  1  0
 14 13  1  0
 15 16  2  0
 18 17  1  0
 19 18  2  0
 20 18  1  0
 21 20  1  0
 22 21  1  0
 23 22  1  0
 24 23  1  1
 24 26  1  0
 25 24  1  0
 25 15  1  0
 26 28  2  0
 26 27  1  0
M  END
$$$$
