HSR.pdb
     RDKit          3D

 28 28  0  0  1  0  0  0  0  0999 V2000
   25.8380  -17.0019  -18.1713 N   0  0  0  0  0  0  0  0  0  0  0  0
   25.0507  -18.1912  -18.0778 C   0  0  1  0  0  0  0  0  0  0  0  0
   25.8950  -19.4260  -18.3056 C   0  0  0  0  0  0  0  0  0  0  0  0
   26.4608  -19.3299  -19.6828 C   0  0  0  0  0  0  0  0  0  0  0  0
   25.7618  -19.5765  -20.8679 C   0  0  0  0  0  0  0  0  0  0  0  0
   26.5791  -19.3960  -21.9130 N   0  0  0  0  0  0  0  0  0  0  0  0
   27.7748  -19.0429  -21.4359 C   0  0  0  0  0  0  0  0  0  0  0  0
   27.7021  -19.0027  -20.0744 N   0  0  0  0  0  0  0  0  0  0  0  0
   24.3620  -18.2288  -16.7660 C   0  0  0  0  0  0  0  0  0  0  0  0
   24.9819  -18.3855  -15.6756 O   0  0  0  0  0  0  0  0  0  0  0  0
   20.7010  -16.6226  -16.6734 O   0  0  0  0  0  0  0  0  0  0  0  0
   21.4692  -16.6899  -15.5015 C   0  0  0  0  0  0  0  0  0  0  0  0
   22.2026  -18.0164  -15.4859 C   0  0  2  0  0  0  0  0  0  0  0  0
   22.9655  -18.0863  -16.7086 N   0  0  0  0  0  0  0  0  0  0  0  0
   21.2451  -19.1471  -15.4173 C   0  0  0  0  0  0  0  0  0  0  0  0
   20.6843  -19.5847  -16.4561 O   0  0  0  0  0  0  0  0  0  0  0  0
   17.8172  -24.1909   -9.7952 N   0  0  0  0  0  0  0  0  0  0  0  0
   17.5938  -24.9757  -10.9850 C   0  0  0  0  0  0  0  0  0  0  0  0
   16.6313  -25.8072  -11.0234 N   0  0  0  0  0  0  0  0  0  0  0  0
   18.4367  -24.8333  -12.1200 N   0  0  0  0  0  0  0  0  0  0  0  0
   19.4690  -23.8205  -12.1485 C   0  0  0  0  0  0  0  0  0  0  0  0
   18.8970  -22.4631  -12.4843 C   0  0  0  0  0  0  0  0  0  0  0  0
   19.9450  -21.4372  -12.7452 C   0  0  0  0  0  0  0  0  0  0  0  0
   19.8681  -20.8117  -14.1167 C   0  0  2  0  0  0  0  0  0  0  0  0
   20.9064  -19.7995  -14.1810 N   0  0  0  0  0  0  0  0  0  0  0  0
   18.5420  -20.2700  -14.4400 C   0  0  0  0  0  0  0  0  0  0  0  0
   18.1333  -18.9935  -14.0726 O   0  0  0  0  0  0  0  0  0  0  0  0
   17.7120  -20.9626  -15.0767 O   0  0  0  0  0  0  0  0  0  0  0  0
  2  1  1  1
  2  9  1  0
  3  2  1  0
  4  3  1  0
  4  5  2  0
  6  5  1  0
  7  8  2  0
  7  6  1  0
  8  4  1  0
  9 10  2  0
 11 12  1  0
 13 12  1  6
 13 15  1  0
 14  9  1  0
 14 13  1  0
 15 16  2  0
 18 17  1  0
 19 18  2  0
 20 18  1  0
 21 20  1  0
 22 21  1  0
 23 22  1  0
 24 23  1  1
 24 26  1  0
 25 24  1  0
 25 15  1  0
 26 28  2  0
 26 27  1  0
M  END
$$$$
