HSR.pdb
     RDKit          3D

 28 28  0  0  1  0  0  0  0  0999 V2000
   22.6872  -21.5331   -8.9131 N   0  0  0  0  0  0  0  0  0  0  0  0
   22.2704  -21.6976  -10.2704 C   0  0  1  0  0  0  0  0  0  0  0  0
   20.7942  -21.4057  -10.4289 C   0  0  0  0  0  0  0  0  0  0  0  0
   20.0500  -22.4522   -9.6694 C   0  0  0  0  0  0  0  0  0  0  0  0
   19.9642  -23.8031  -10.0179 C   0  0  0  0  0  0  0  0  0  0  0  0
   19.2179  -24.4499   -9.1137 N   0  0  0  0  0  0  0  0  0  0  0  0
   18.8247  -23.5588   -8.2010 C   0  0  0  0  0  0  0  0  0  0  0  0
   19.3328  -22.3393   -8.5405 N   0  0  0  0  0  0  0  0  0  0  0  0
   23.0993  -20.8414  -11.1515 C   0  0  0  0  0  0  0  0  0  0  0  0
   23.1432  -19.5835  -11.0334 O   0  0  0  0  0  0  0  0  0  0  0  0
   25.5819  -22.7708  -13.8021 O   0  0  0  0  0  0  0  0  0  0  0  0
   25.9512  -21.5074  -13.3172 C   0  0  0  0  0  0  0  0  0  0  0  0
   24.6921  -20.6924  -13.0976 C   0  0  2  0  0  0  0  0  0  0  0  0
   23.8749  -21.4296  -12.1645 N   0  0  0  0  0  0  0  0  0  0  0  0
   23.9607  -20.4989  -14.3733 C   0  0  0  0  0  0  0  0  0  0  0  0
   23.0761  -21.3151  -14.7429 O   0  0  0  0  0  0  0  0  0  0  0  0
   21.0026  -13.3592  -18.5310 N   0  0  0  0  0  0  0  0  0  0  0  0
   20.3878  -14.5144  -19.1384 C   0  0  0  0  0  0  0  0  0  0  0  0
   19.3504  -14.3727  -19.8615 N   0  0  0  0  0  0  0  0  0  0  0  0
   20.9261  -15.8144  -18.9401 N   0  0  0  0  0  0  0  0  0  0  0  0
   22.0337  -16.0226  -18.0334 C   0  0  0  0  0  0  0  0  0  0  0  0
   22.3541  -17.4917  -17.8867 C   0  0  0  0  0  0  0  0  0  0  0  0
   23.1500  -17.7955  -16.6648 C   0  0  0  0  0  0  0  0  0  0  0  0
   23.5281  -19.2496  -16.5206 C   0  0  2  0  0  0  0  0  0  0  0  0
   24.2143  -19.3863  -15.2489 N   0  0  0  0  0  0  0  0  0  0  0  0
   24.3268  -19.7611  -17.6418 C   0  0  0  0  0  0  0  0  0  0  0  0
   23.7660  -20.2004  -18.8350 O   0  0  0  0  0  0  0  0  0  0  0  0
   25.5770  -19.8195  -17.5552 O   0  0  0  0  0  0  0  0  0  0  0  0
  2  1  1  1
  2  9  1  0
  3  2  1  0
  4  3  1  0
  4  5  2  0
  6  5  1  0
  7  8  2  0
  7  6  1  0
  8  4  1  0
  9 10  2  0
 11 12  1  0
 13 12  1  6
 13 15  1  0
 14  9  1  0
 14 13  1  0
 15 16  2  0
 18 17  1  0
 19 18  2  0
 20 18  1  0
 21 20  1  0
 22 21  1  0
 23 22  1  0
 24 23  1  6
 24 26  1  0
 25 24  1  0
 25 15  1  0
 26 28  2  0
 26 27  1  0
M  END
$$$$
