HSR.pdb
     RDKit          3D

 28 28  0  0  1  0  0  0  0  0999 V2000
   13.5561  -25.5942   -2.8219 N   0  0  0  0  0  0  0  0  0  0  0  0
   14.5621  -24.7255   -2.2962 C   0  0  1  0  0  0  0  0  0  0  0  0
   14.9658  -23.6782   -3.3109 C   0  0  0  0  0  0  0  0  0  0  0  0
   15.6217  -24.3891   -4.4468 C   0  0  0  0  0  0  0  0  0  0  0  0
   16.8920  -24.9716   -4.4165 C   0  0  0  0  0  0  0  0  0  0  0  0
   17.1589  -25.5206   -5.6082 N   0  0  0  0  0  0  0  0  0  0  0  0
   16.1034  -25.3086   -6.3974 C   0  0  0  0  0  0  0  0  0  0  0  0
   15.1651  -24.6179   -5.6880 N   0  0  0  0  0  0  0  0  0  0  0  0
   14.0805  -24.1142   -1.0349 C   0  0  0  0  0  0  0  0  0  0  0  0
   12.9742  -23.5083   -0.9508 O   0  0  0  0  0  0  0  0  0  0  0  0
   16.6174  -24.2579    2.2650 O   0  0  0  0  0  0  0  0  0  0  0  0
   15.2402  -24.4398    2.4598 C   0  0  0  0  0  0  0  0  0  0  0  0
   14.4985  -23.6436    1.4044 C   0  0  2  0  0  0  0  0  0  0  0  0
   14.8681  -24.1996    0.1253 N   0  0  0  0  0  0  0  0  0  0  0  0
   14.8745  -22.2101    1.4649 C   0  0  0  0  0  0  0  0  0  0  0  0
   15.9275  -21.7931    0.9149 O   0  0  0  0  0  0  0  0  0  0  0  0
    9.7186  -15.2183    2.8117 N   0  0  0  0  0  0  0  0  0  0  0  0
   10.3233  -15.5686    1.5495 C   0  0  0  0  0  0  0  0  0  0  0  0
    9.7797  -15.1943    0.4616 N   0  0  0  0  0  0  0  0  0  0  0  0
   11.5228  -16.3290    1.5031 N   0  0  0  0  0  0  0  0  0  0  0  0
   12.1598  -16.7751    2.7227 C   0  0  0  0  0  0  0  0  0  0  0  0
   13.4215  -17.5529    2.4301 C   0  0  0  0  0  0  0  0  0  0  0  0
   13.2038  -19.0261    2.3980 C   0  0  0  0  0  0  0  0  0  0  0  0
   14.4640  -19.8316    2.1949 C   0  0  2  0  0  0  0  0  0  0  0  0
   14.0721  -21.2282    2.1438 N   0  0  0  0  0  0  0  0  0  0  0  0
   15.4914  -19.5788    3.2133 C   0  0  0  0  0  0  0  0  0  0  0  0
   16.2193  -18.3968    3.2800 O   0  0  0  0  0  0  0  0  0  0  0  0
   15.7521  -20.4472    4.0804 O   0  0  0  0  0  0  0  0  0  0  0  0
  2  1  1  6
  2  9  1  0
  3  2  1  0
  4  3  1  0
  4  5  2  0
  6  5  1  0
  7  8  2  0
  7  6  1  0
  8  4  1  0
  9 10  2  0
 11 12  1  0
 13 12  1  1
 13 15  1  0
 14  9  1  0
 14 13  1  0
 15 16  2  0
 18 17  1  0
 19 18  2  0
 20 18  1  0
 21 20  1  0
 22 21  1  0
 23 22  1  0
 24 23  1  1
 24 26  1  0
 25 24  1  0
 25 15  1  0
 26 28  2  0
 26 27  1  0
M  END
$$$$
