HSR.pdb
     RDKit          3D

 28 28  0  0  1  0  0  0  0  0999 V2000
   28.2384  -23.1095  -17.0605 N   0  0  0  0  0  0  0  0  0  0  0  0
   27.5960  -21.9867  -17.6685 C   0  0  1  0  0  0  0  0  0  0  0  0
   27.0012  -22.3564  -19.0098 C   0  0  0  0  0  0  0  0  0  0  0  0
   28.1337  -22.5353  -19.9643 C   0  0  0  0  0  0  0  0  0  0  0  0
   28.5745  -23.7562  -20.4831 C   0  0  0  0  0  0  0  0  0  0  0  0
   29.6088  -23.5430  -21.3063 N   0  0  0  0  0  0  0  0  0  0  0  0
   29.8429  -22.2291  -21.3307 C   0  0  0  0  0  0  0  0  0  0  0  0
   28.9423  -21.6143  -20.5113 N   0  0  0  0  0  0  0  0  0  0  0  0
   26.5747  -21.4389  -16.7447 C   0  0  0  0  0  0  0  0  0  0  0  0
   25.9491  -22.1600  -15.9161 O   0  0  0  0  0  0  0  0  0  0  0  0
   25.5508  -17.5581  -17.3732 O   0  0  0  0  0  0  0  0  0  0  0  0
   25.5167  -17.9429  -16.0246 C   0  0  0  0  0  0  0  0  0  0  0  0
   25.2638  -19.4360  -15.9594 C   0  0  2  0  0  0  0  0  0  0  0  0
   26.2743  -20.0668  -16.7737 N   0  0  0  0  0  0  0  0  0  0  0  0
   23.9134  -19.7647  -16.4774 C   0  0  0  0  0  0  0  0  0  0  0  0
   23.7202  -19.9558  -17.7068 O   0  0  0  0  0  0  0  0  0  0  0  0
   16.8669  -23.4627  -12.4579 N   0  0  0  0  0  0  0  0  0  0  0  0
   16.4236  -23.1430  -13.7931 C   0  0  0  0  0  0  0  0  0  0  0  0
   15.2793  -23.5327  -14.1904 N   0  0  0  0  0  0  0  0  0  0  0  0
   17.2498  -22.3958  -14.6752 N   0  0  0  0  0  0  0  0  0  0  0  0
   18.5746  -21.9807  -14.2693 C   0  0  0  0  0  0  0  0  0  0  0  0
   19.3083  -21.3019  -15.4022 C   0  0  0  0  0  0  0  0  0  0  0  0
   20.6563  -20.8050  -15.0089 C   0  0  0  0  0  0  0  0  0  0  0  0
   21.4553  -20.2215  -16.1487 C   0  0  2  0  0  0  0  0  0  0  0  0
   22.7642  -19.8828  -15.6205 N   0  0  0  0  0  0  0  0  0  0  0  0
   20.8028  -19.0759  -16.7956 C   0  0  0  0  0  0  0  0  0  0  0  0
   19.9446  -19.2048  -17.8811 O   0  0  0  0  0  0  0  0  0  0  0  0
   21.0054  -17.9109  -16.3766 O   0  0  0  0  0  0  0  0  0  0  0  0
  2  1  1  1
  2  9  1  0
  3  2  1  0
  4  3  1  0
  4  5  2  0
  6  5  1  0
  7  8  2  0
  7  6  1  0
  8  4  1  0
  9 10  2  0
 11 12  1  0
 13 12  1  6
 13 15  1  0
 14  9  1  0
 14 13  1  0
 15 16  2  0
 18 17  1  0
 19 18  2  0
 20 18  1  0
 21 20  1  0
 22 21  1  0
 23 22  1  0
 24 23  1  1
 24 26  1  0
 25 24  1  0
 25 15  1  0
 26 28  2  0
 26 27  1  0
M  END
$$$$
