HSR.pdb
     RDKit          3D

 28 28  0  0  1  0  0  0  0  0999 V2000
   23.2687   -9.9716  -15.2999 N   0  0  0  0  0  0  0  0  0  0  0  0
   22.0000   -9.3475  -15.5092 C   0  0  1  0  0  0  0  0  0  0  0  0
   20.9020  -10.3772  -15.6627 C   0  0  0  0  0  0  0  0  0  0  0  0
   21.1066  -11.0528  -16.9770 C   0  0  0  0  0  0  0  0  0  0  0  0
   22.0545  -10.6907  -17.9384 C   0  0  0  0  0  0  0  0  0  0  0  0
   21.9572  -11.5120  -18.9915 N   0  0  0  0  0  0  0  0  0  0  0  0
   20.9805  -12.3851  -18.7353 C   0  0  0  0  0  0  0  0  0  0  0  0
   20.4615  -12.1045  -17.5055 N   0  0  0  0  0  0  0  0  0  0  0  0
   21.7211   -8.4055  -14.3995 C   0  0  0  0  0  0  0  0  0  0  0  0
   21.7028   -8.7665  -13.1882 O   0  0  0  0  0  0  0  0  0  0  0  0
   21.1474   -4.4906  -15.4630 O   0  0  0  0  0  0  0  0  0  0  0  0
   21.7188   -4.7394  -14.2062 C   0  0  0  0  0  0  0  0  0  0  0  0
   21.1723   -6.0533  -13.6838 C   0  0  2  0  0  0  0  0  0  0  0  0
   21.4644   -7.0534  -14.6819 N   0  0  0  0  0  0  0  0  0  0  0  0
   19.7081   -5.9648  -13.4643 C   0  0  0  0  0  0  0  0  0  0  0  0
   18.8983   -6.1773  -14.4046 O   0  0  0  0  0  0  0  0  0  0  0  0
   14.3571   -7.1001   -6.4217 N   0  0  0  0  0  0  0  0  0  0  0  0
   13.5241   -6.7379   -7.5427 C   0  0  0  0  0  0  0  0  0  0  0  0
   12.2619   -6.8791   -7.4651 N   0  0  0  0  0  0  0  0  0  0  0  0
   14.0952   -6.2235   -8.7378 N   0  0  0  0  0  0  0  0  0  0  0  0
   15.4905   -6.4503   -9.0446 C   0  0  0  0  0  0  0  0  0  0  0  0
   15.8676   -5.8350  -10.3718 C   0  0  0  0  0  0  0  0  0  0  0  0
   17.3133   -5.9889  -10.6959 C   0  0  0  0  0  0  0  0  0  0  0  0
   17.7124   -5.4036  -12.0287 C   0  0  2  0  0  0  0  0  0  0  0  0
   19.1364   -5.6365  -12.1859 N   0  0  0  0  0  0  0  0  0  0  0  0
   17.3610   -3.9852  -12.1745 C   0  0  0  0  0  0  0  0  0  0  0  0
   16.1382   -3.5537  -12.6743 O   0  0  0  0  0  0  0  0  0  0  0  0
   18.1775   -3.0923  -11.8429 O   0  0  0  0  0  0  0  0  0  0  0  0
  2  1  1  1
  2  9  1  0
  3  2  1  0
  4  3  1  0
  4  5  2  0
  6  5  1  0
  7  8  2  0
  7  6  1  0
  8  4  1  0
  9 10  2  0
 11 12  1  0
 13 12  1  6
 13 15  1  0
 14  9  1  0
 14 13  1  0
 15 16  2  0
 18 17  1  0
 19 18  2  0
 20 18  1  0
 21 20  1  0
 22 21  1  0
 23 22  1  0
 24 23  1  1
 24 26  1  0
 25 24  1  0
 25 15  1  0
 26 28  2  0
 26 27  1  0
M  END
$$$$
