HSR.pdb
     RDKit          3D

 28 28  0  0  1  0  0  0  0  0999 V2000
   19.9233  -16.3830  -17.2363 N   0  0  0  0  0  0  0  0  0  0  0  0
   20.1165  -15.4811  -16.1443 C   0  0  1  0  0  0  0  0  0  0  0  0
   21.4501  -15.7163  -15.4693 C   0  0  0  0  0  0  0  0  0  0  0  0
   21.4746  -17.1375  -15.0163 C   0  0  0  0  0  0  0  0  0  0  0  0
   20.5569  -17.7283  -14.1429 C   0  0  0  0  0  0  0  0  0  0  0  0
   20.8826  -19.0137  -13.9571 N   0  0  0  0  0  0  0  0  0  0  0  0
   21.9758  -19.2633  -14.6813 C   0  0  0  0  0  0  0  0  0  0  0  0
   22.3368  -18.1177  -15.3278 N   0  0  0  0  0  0  0  0  0  0  0  0
   19.9798  -14.0852  -16.6233 C   0  0  0  0  0  0  0  0  0  0  0  0
   20.8528  -13.5243  -17.3451 O   0  0  0  0  0  0  0  0  0  0  0  0
   16.5803  -12.0087  -15.4604 O   0  0  0  0  0  0  0  0  0  0  0  0
   17.0402  -11.8743  -16.7789 C   0  0  0  0  0  0  0  0  0  0  0  0
   18.5493  -12.0171  -16.7760 C   0  0  2  0  0  0  0  0  0  0  0  0
   18.8430  -13.3374  -16.2736 N   0  0  0  0  0  0  0  0  0  0  0  0
   19.1740  -10.9904  -15.9068 C   0  0  0  0  0  0  0  0  0  0  0  0
   19.3179  -11.1881  -14.6717 O   0  0  0  0  0  0  0  0  0  0  0  0
   22.0597   -2.6524  -17.7643 N   0  0  0  0  0  0  0  0  0  0  0  0
   22.4299   -2.9101  -16.3939 C   0  0  0  0  0  0  0  0  0  0  0  0
   23.0285   -2.0118  -15.7202 N   0  0  0  0  0  0  0  0  0  0  0  0
   22.1346   -4.1583  -15.7824 N   0  0  0  0  0  0  0  0  0  0  0  0
   21.4693   -5.2045  -16.5275 C   0  0  0  0  0  0  0  0  0  0  0  0
   21.1678   -6.3966  -15.6498 C   0  0  0  0  0  0  0  0  0  0  0  0
   20.5743   -7.5380  -16.4005 C   0  0  0  0  0  0  0  0  0  0  0  0
   20.1753   -8.7066  -15.5324 C   0  0  2  0  0  0  0  0  0  0  0  0
   19.6444   -9.7296  -16.4147 N   0  0  0  0  0  0  0  0  0  0  0  0
   19.2328   -8.3484  -14.4648 C   0  0  0  0  0  0  0  0  0  0  0  0
   19.6321   -8.0579  -13.1658 O   0  0  0  0  0  0  0  0  0  0  0  0
   18.0015   -8.2919  -14.6985 O   0  0  0  0  0  0  0  0  0  0  0  0
  2  1  1  6
  2  9  1  0
  3  2  1  0
  4  3  1  0
  4  5  2  0
  6  5  1  0
  7  8  2  0
  7  6  1  0
  8  4  1  0
  9 10  2  0
 11 12  1  0
 13 12  1  1
 13 15  1  0
 14  9  1  0
 14 13  1  0
 15 16  2  0
 18 17  1  0
 19 18  2  0
 20 18  1  0
 21 20  1  0
 22 21  1  0
 23 22  1  0
 24 23  1  6
 24 26  1  0
 25 24  1  0
 25 15  1  0
 26 28  2  0
 26 27  1  0
M  END
$$$$
