WGT.pdb
     RDKit          3D

 26 27  0  0  1  0  0  0  0  0999 V2000
    7.2122  -16.9287   22.0774 N   0  0  0  0  0  0  0  0  0  0  0  0
    7.9734  -16.0670   22.9684 C   0  0  1  0  0  0  0  0  0  0  0  0
    7.4646  -16.3397   24.3709 C   0  0  0  0  0  0  0  0  0  0  0  0
    6.5252  -15.3105   24.8476 C   0  0  0  0  0  0  0  0  0  0  0  0
    5.1977  -15.4771   25.1421 C   0  0  0  0  0  0  0  0  0  0  0  0
    4.6554  -14.3122   25.5510 N   0  0  0  0  0  0  0  0  0  0  0  0
    5.6398  -13.3787   25.5221 C   0  0  0  0  0  0  0  0  0  0  0  0
    5.6063  -12.0340   25.8454 C   0  0  0  0  0  0  0  0  0  0  0  0
    6.7574  -11.2804   25.7326 C   0  0  0  0  0  0  0  0  0  0  0  0
    7.9298  -11.8532   25.3040 C   0  0  0  0  0  0  0  0  0  0  0  0
    7.9244  -13.1993   24.9902 C   0  0  0  0  0  0  0  0  0  0  0  0
    6.8085  -13.9858   25.0864 C   0  0  0  0  0  0  0  0  0  0  0  0
    9.4223  -16.2880   22.8492 C   0  0  0  0  0  0  0  0  0  0  0  0
    9.9367  -16.4022   21.7104 O   0  0  0  0  0  0  0  0  0  0  0  0
   10.2688  -16.3780   23.9806 N   0  0  0  0  0  0  0  0  0  0  0  0
   11.6789  -16.0974   23.9543 C   0  0  0  0  0  0  0  0  0  0  0  0
   12.2803  -16.3882   25.2747 C   0  0  0  0  0  0  0  0  0  0  0  0
   13.5588  -16.3641   25.4232 O   0  0  0  0  0  0  0  0  0  0  0  0
   11.9262  -14.2266   28.0203 C   0  0  0  0  0  0  0  0  0  0  0  0
   11.6484  -15.5760   28.6292 C   0  0  1  0  0  0  0  0  0  0  0  0
   10.2654  -15.6932   28.7618 O   0  0  0  0  0  0  0  0  0  0  0  0
   12.1958  -16.7000   27.7719 C   0  0  2  0  0  0  0  0  0  0  0  0
   11.5725  -16.7029   26.4556 N   0  0  0  0  0  0  0  0  0  0  0  0
   12.0897  -18.0066   28.4365 C   0  0  0  0  0  0  0  0  0  0  0  0
   12.6050  -18.2781   29.6900 O   0  0  0  0  0  0  0  0  0  0  0  0
   11.4963  -18.9386   27.8362 O   0  0  0  0  0  0  0  0  0  0  0  0
  2  1  1  6
  3  2  1  0
  4  3  1  0
  5  4  2  0
  6  7  1  0
  6  5  1  0
  7 12  2  0
  8  7  1  0
  8  9  2  0
  9 10  1  0
 10 11  2  0
 12  4  1  0
 12 11  1  0
 13 15  1  0
 13  2  1  0
 14 13  2  0
 16 15  1  0
 17 16  1  0
 18 17  2  0
 20 19  1  6
 20 22  1  0
 21 20  1  0
 22 24  1  0
 22 23  1  6
 23 17  1  0
 24 25  1  0
 26 24  2  0
M  END
$$$$
