WGT.pdb
     RDKit          3D

 26 27  0  0  1  0  0  0  0  0999 V2000
    7.8299  -17.3131   24.8120 N   0  0  0  0  0  0  0  0  0  0  0  0
    7.1273  -16.1869   24.2171 C   0  0  1  0  0  0  0  0  0  0  0  0
    8.0912  -15.0162   24.2405 C   0  0  0  0  0  0  0  0  0  0  0  0
    8.2591  -14.4418   25.5862 C   0  0  0  0  0  0  0  0  0  0  0  0
    9.0731  -14.9053   26.5860 C   0  0  0  0  0  0  0  0  0  0  0  0
    8.9673  -14.1247   27.6803 N   0  0  0  0  0  0  0  0  0  0  0  0
    8.0758  -13.1439   27.3896 C   0  0  0  0  0  0  0  0  0  0  0  0
    7.6169  -12.0943   28.1653 C   0  0  0  0  0  0  0  0  0  0  0  0
    6.6947  -11.2133   27.6374 C   0  0  0  0  0  0  0  0  0  0  0  0
    6.2317  -11.3703   26.3538 C   0  0  0  0  0  0  0  0  0  0  0  0
    6.7133  -12.4306   25.6093 C   0  0  0  0  0  0  0  0  0  0  0  0
    7.6272  -13.3288   26.0900 C   0  0  0  0  0  0  0  0  0  0  0  0
    6.6487  -16.4868   22.8594 C   0  0  0  0  0  0  0  0  0  0  0  0
    5.9220  -15.6548   22.2642 O   0  0  0  0  0  0  0  0  0  0  0  0
    6.9789  -17.6901   22.1901 N   0  0  0  0  0  0  0  0  0  0  0  0
    6.5550  -18.0093   20.8537 C   0  0  0  0  0  0  0  0  0  0  0  0
    7.2188  -17.1127   19.8814 C   0  0  0  0  0  0  0  0  0  0  0  0
    6.9762  -17.2296   18.6226 O   0  0  0  0  0  0  0  0  0  0  0  0
    6.8288  -13.6778   19.3235 C   0  0  0  0  0  0  0  0  0  0  0  0
    8.3294  -13.8079   19.3132 C   0  0  1  0  0  0  0  0  0  0  0  0
    8.7999  -13.2670   20.5091 O   0  0  0  0  0  0  0  0  0  0  0  0
    8.7646  -15.2538   19.1780 C   0  0  2  0  0  0  0  0  0  0  0  0
    8.1354  -16.0851   20.1949 N   0  0  0  0  0  0  0  0  0  0  0  0
   10.2276  -15.3948   19.1765 C   0  0  0  0  0  0  0  0  0  0  0  0
   10.9389  -16.0606   20.1570 O   0  0  0  0  0  0  0  0  0  0  0  0
   10.8788  -14.8823   18.2309 O   0  0  0  0  0  0  0  0  0  0  0  0
  2  1  1  6
  3  2  1  0
  4  3  1  0
  5  4  2  0
  6  7  1  0
  6  5  1  0
  7 12  2  0
  8  7  1  0
  8  9  2  0
  9 10  1  0
 10 11  2  0
 12  4  1  0
 12 11  1  0
 13 15  1  0
 13  2  1  0
 14 13  2  0
 16 15  1  0
 17 16  1  0
 18 17  2  0
 20 19  1  1
 20 22  1  0
 21 20  1  0
 22 24  1  0
 22 23  1  1
 23 17  1  0
 24 25  1  0
 26 24  2  0
M  END
$$$$
