WGT.pdb
     RDKit          3D

 26 27  0  0  1  0  0  0  0  0999 V2000
    7.1421  -16.7484   23.1620 N   0  0  0  0  0  0  0  0  0  0  0  0
    8.3433  -16.0400   23.5758 C   0  0  1  0  0  0  0  0  0  0  0  0
    8.1175  -15.6111   25.0130 C   0  0  0  0  0  0  0  0  0  0  0  0
    6.9382  -14.7433   25.1711 C   0  0  0  0  0  0  0  0  0  0  0  0
    5.6632  -15.1323   25.4873 C   0  0  0  0  0  0  0  0  0  0  0  0
    4.8445  -14.0626   25.5462 N   0  0  0  0  0  0  0  0  0  0  0  0
    5.5942  -12.9669   25.2657 C   0  0  0  0  0  0  0  0  0  0  0  0
    5.2361  -11.6324   25.1969 C   0  0  0  0  0  0  0  0  0  0  0  0
    6.1944  -10.6880   24.8882 C   0  0  0  0  0  0  0  0  0  0  0  0
    7.4944  -11.0619   24.6500 C   0  0  0  0  0  0  0  0  0  0  0  0
    7.8143  -12.4042   24.7278 C   0  0  0  0  0  0  0  0  0  0  0  0
    6.8988  -13.3756   25.0303 C   0  0  0  0  0  0  0  0  0  0  0  0
    9.5523  -16.8632   23.4240 C   0  0  0  0  0  0  0  0  0  0  0  0
    9.8228  -17.3604   22.3041 O   0  0  0  0  0  0  0  0  0  0  0  0
   10.4325  -17.1197   24.5031 N   0  0  0  0  0  0  0  0  0  0  0  0
   11.8555  -16.9213   24.4446 C   0  0  0  0  0  0  0  0  0  0  0  0
   12.4409  -17.0323   25.7991 C   0  0  0  0  0  0  0  0  0  0  0  0
   13.6927  -17.2948   25.9440 O   0  0  0  0  0  0  0  0  0  0  0  0
   11.7447  -15.0474   29.2991 C   0  0  0  0  0  0  0  0  0  0  0  0
   11.6193  -16.5417   29.4416 C   0  0  1  0  0  0  0  0  0  0  0  0
   10.2580  -16.8422   29.4667 O   0  0  0  0  0  0  0  0  0  0  0  0
   12.3023  -17.2715   28.3019 C   0  0  2  0  0  0  0  0  0  0  0  0
   11.7450  -16.8706   27.0175 N   0  0  0  0  0  0  0  0  0  0  0  0
   12.2783  -18.7298   28.4837 C   0  0  0  0  0  0  0  0  0  0  0  0
   12.7643  -19.3750   29.6054 O   0  0  0  0  0  0  0  0  0  0  0  0
   11.7883  -19.4404   27.5695 O   0  0  0  0  0  0  0  0  0  0  0  0
  2  1  1  1
  3  2  1  0
  4  3  1  0
  5  4  2  0
  6  7  1  0
  6  5  1  0
  7 12  2  0
  8  7  1  0
  8  9  2  0
  9 10  1  0
 10 11  2  0
 12  4  1  0
 12 11  1  0
 13 15  1  0
 13  2  1  0
 14 13  2  0
 16 15  1  0
 17 16  1  0
 18 17  2  0
 20 19  1  6
 20 22  1  0
 21 20  1  0
 22 24  1  0
 22 23  1  6
 23 17  1  0
 24 25  1  0
 26 24  2  0
M  END
$$$$
