WGT.pdb
     RDKit          3D

 26 27  0  0  1  0  0  0  0  0999 V2000
    6.6578  -18.2989   24.4901 N   0  0  0  0  0  0  0  0  0  0  0  0
    7.0979  -17.1038   23.7875 C   0  0  1  0  0  0  0  0  0  0  0  0
    7.8907  -16.2833   24.7868 C   0  0  0  0  0  0  0  0  0  0  0  0
    7.0749  -15.2571   25.4578 C   0  0  0  0  0  0  0  0  0  0  0  0
    5.9828  -15.4640   26.2586 C   0  0  0  0  0  0  0  0  0  0  0  0
    5.4905  -14.2882   26.6981 N   0  0  0  0  0  0  0  0  0  0  0  0
    6.2700  -13.3067   26.1781 C   0  0  0  0  0  0  0  0  0  0  0  0
    6.1919  -11.9329   26.3214 C   0  0  0  0  0  0  0  0  0  0  0  0
    7.1161  -11.1308   25.6826 C   0  0  0  0  0  0  0  0  0  0  0  0
    8.1076  -11.6840   24.9097 C   0  0  0  0  0  0  0  0  0  0  0  0
    8.1535  -13.0602   24.7903 C   0  0  0  0  0  0  0  0  0  0  0  0
    7.2597  -13.8951   25.4044 C   0  0  0  0  0  0  0  0  0  0  0  0
    7.8811  -17.4246   22.5849 C   0  0  0  0  0  0  0  0  0  0  0  0
    8.4587  -18.5356   22.5039 O   0  0  0  0  0  0  0  0  0  0  0  0
    8.0103  -16.5200   21.5034 N   0  0  0  0  0  0  0  0  0  0  0  0
    8.8228  -16.7652   20.3426 C   0  0  0  0  0  0  0  0  0  0  0  0
   10.2540  -16.7839   20.7180 C   0  0  0  0  0  0  0  0  0  0  0  0
   11.1625  -16.7896   19.8061 O   0  0  0  0  0  0  0  0  0  0  0  0
   12.0282  -14.9739   24.0279 C   0  0  0  0  0  0  0  0  0  0  0  0
   12.4534  -16.3945   23.7637 C   0  0  1  0  0  0  0  0  0  0  0  0
   11.7363  -17.2104   24.6379 O   0  0  0  0  0  0  0  0  0  0  0  0
   12.1914  -16.7987   22.3263 C   0  0  2  0  0  0  0  0  0  0  0  0
   10.7645  -16.7932   22.0348 N   0  0  0  0  0  0  0  0  0  0  0  0
   12.8194  -18.0839   21.9883 C   0  0  0  0  0  0  0  0  0  0  0  0
   12.1147  -19.2532   21.7725 O   0  0  0  0  0  0  0  0  0  0  0  0
   14.0718  -18.1314   21.8873 O   0  0  0  0  0  0  0  0  0  0  0  0
  2  1  1  1
  3  2  1  0
  4  3  1  0
  5  4  2  0
  6  7  1  0
  6  5  1  0
  7 12  2  0
  8  7  1  0
  8  9  2  0
  9 10  1  0
 10 11  2  0
 12  4  1  0
 12 11  1  0
 13 15  1  0
 13  2  1  0
 14 13  2  0
 16 15  1  0
 17 16  1  0
 18 17  2  0
 20 19  1  6
 20 22  1  0
 21 20  1  0
 22 24  1  0
 22 23  1  1
 23 17  1  0
 24 25  1  0
 26 24  2  0
M  END
$$$$
