WGT.pdb
     RDKit          3D

 26 27  0  0  1  0  0  0  0  0999 V2000
    7.8196  -17.3668   25.6415 N   0  0  0  0  0  0  0  0  0  0  0  0
    7.3184  -16.3476   24.7327 C   0  0  1  0  0  0  0  0  0  0  0  0
    8.2662  -15.1686   24.8418 C   0  0  0  0  0  0  0  0  0  0  0  0
    8.1969  -14.4999   26.1522 C   0  0  0  0  0  0  0  0  0  0  0  0
    8.9707  -14.7583   27.2529 C   0  0  0  0  0  0  0  0  0  0  0  0
    8.6241  -13.9484   28.2738 N   0  0  0  0  0  0  0  0  0  0  0  0
    7.6150  -13.1555   27.8328 C   0  0  0  0  0  0  0  0  0  0  0  0
    6.9095  -12.1604   28.4856 C   0  0  0  0  0  0  0  0  0  0  0  0
    5.9114  -11.4841   27.8135 C   0  0  0  0  0  0  0  0  0  0  0  0
    5.6150  -11.7905   26.5078 C   0  0  0  0  0  0  0  0  0  0  0  0
    6.3412  -12.7904   25.8889 C   0  0  0  0  0  0  0  0  0  0  0  0
    7.3390  -13.4877   26.5146 C   0  0  0  0  0  0  0  0  0  0  0  0
    7.2033  -16.8434   23.3531 C   0  0  0  0  0  0  0  0  0  0  0  0
    8.1056  -17.5794   22.8854 O   0  0  0  0  0  0  0  0  0  0  0  0
    6.1029  -16.5197   22.5229 N   0  0  0  0  0  0  0  0  0  0  0  0
    6.1055  -15.4457   21.5668 C   0  0  0  0  0  0  0  0  0  0  0  0
    7.0697  -15.7329   20.4815 C   0  0  0  0  0  0  0  0  0  0  0  0
    6.9664  -16.8159   19.7935 O   0  0  0  0  0  0  0  0  0  0  0  0
    7.2848  -12.9020   18.2686 C   0  0  0  0  0  0  0  0  0  0  0  0
    8.6494  -13.5249   18.1323 C   0  0  1  0  0  0  0  0  0  0  0  0
    9.5554  -12.6812   18.7737 O   0  0  0  0  0  0  0  0  0  0  0  0
    8.6944  -14.9123   18.7416 C   0  0  2  0  0  0  0  0  0  0  0  0
    8.1470  -14.9071   20.0912 N   0  0  0  0  0  0  0  0  0  0  0  0
   10.0428  -15.4953   18.6945 C   0  0  0  0  0  0  0  0  0  0  0  0
   10.7364  -15.7401   17.5243 O   0  0  0  0  0  0  0  0  0  0  0  0
   10.6064  -15.7919   19.7787 O   0  0  0  0  0  0  0  0  0  0  0  0
  2  1  1  1
  3  2  1  0
  4  3  1  0
  5  4  2  0
  6  7  1  0
  6  5  1  0
  7 12  2  0
  8  7  1  0
  8  9  2  0
  9 10  1  0
 10 11  2  0
 12  4  1  0
 12 11  1  0
 13 15  1  0
 13  2  1  0
 14 13  2  0
 16 15  1  0
 17 16  1  0
 18 17  2  0
 20 19  1  1
 20 22  1  0
 21 20  1  0
 22 24  1  0
 22 23  1  1
 23 17  1  0
 24 25  1  0
 26 24  2  0
M  END
$$$$
