WGT.pdb
     RDKit          3D

 26 27  0  0  1  0  0  0  0  0999 V2000
    7.6604  -17.3907   23.6864 N   0  0  0  0  0  0  0  0  0  0  0  0
    8.1372  -16.6372   22.5371 C   0  0  1  0  0  0  0  0  0  0  0  0
    7.2442  -15.4167   22.4210 C   0  0  0  0  0  0  0  0  0  0  0  0
    6.8312  -14.8850   23.7309 C   0  0  0  0  0  0  0  0  0  0  0  0
    6.2983  -15.5903   24.7775 C   0  0  0  0  0  0  0  0  0  0  0  0
    6.0422  -14.7706   25.8170 N   0  0  0  0  0  0  0  0  0  0  0  0
    6.4123  -13.5198   25.4430 C   0  0  0  0  0  0  0  0  0  0  0  0
    6.3570  -12.3255   26.1391 C   0  0  0  0  0  0  0  0  0  0  0  0
    6.8003  -11.1666   25.5341 C   0  0  0  0  0  0  0  0  0  0  0  0
    7.2934  -11.1906   24.2524 C   0  0  0  0  0  0  0  0  0  0  0  0
    7.3330  -12.4024   23.5887 C   0  0  0  0  0  0  0  0  0  0  0  0
    6.9050  -13.5761   24.1475 C   0  0  0  0  0  0  0  0  0  0  0  0
    9.5577  -16.2778   22.6605 C   0  0  0  0  0  0  0  0  0  0  0  0
   10.2194  -16.0166   21.6269 O   0  0  0  0  0  0  0  0  0  0  0  0
   10.2153  -16.2143   23.9129 N   0  0  0  0  0  0  0  0  0  0  0  0
   11.5944  -15.8425   24.0790 C   0  0  0  0  0  0  0  0  0  0  0  0
   11.9774  -15.9328   25.5055 C   0  0  0  0  0  0  0  0  0  0  0  0
   13.1748  -15.6372   25.8744 O   0  0  0  0  0  0  0  0  0  0  0  0
   10.3537  -14.2212   28.4661 C   0  0  0  0  0  0  0  0  0  0  0  0
   10.5574  -15.6624   28.8540 C   0  0  1  0  0  0  0  0  0  0  0  0
    9.3181  -16.2947   28.7621 O   0  0  0  0  0  0  0  0  0  0  0  0
   11.5691  -16.3459   27.9556 C   0  0  2  0  0  0  0  0  0  0  0  0
   11.1317  -16.3245   26.5666 N   0  0  0  0  0  0  0  0  0  0  0  0
   11.8881  -17.7057   28.4135 C   0  0  0  0  0  0  0  0  0  0  0  0
   12.3325  -18.0056   29.6875 O   0  0  0  0  0  0  0  0  0  0  0  0
   11.7514  -18.6586   27.6048 O   0  0  0  0  0  0  0  0  0  0  0  0
  2  1  1  1
  3  2  1  0
  4  3  1  0
  5  4  2  0
  6  7  1  0
  6  5  1  0
  7 12  2  0
  8  7  1  0
  8  9  2  0
  9 10  1  0
 10 11  2  0
 12  4  1  0
 12 11  1  0
 13 15  1  0
 13  2  1  0
 14 13  2  0
 16 15  1  0
 17 16  1  0
 18 17  2  0
 20 19  1  6
 20 22  1  0
 21 20  1  0
 22 24  1  0
 22 23  1  6
 23 17  1  0
 24 25  1  0
 26 24  2  0
M  END
$$$$
