WGT.pdb
     RDKit          3D

 26 27  0  0  1  0  0  0  0  0999 V2000
    8.8355  -16.5990   23.5819 N   0  0  0  0  0  0  0  0  0  0  0  0
    8.3083  -16.6287   24.9373 C   0  0  1  0  0  0  0  0  0  0  0  0
    6.9524  -15.9509   24.8876 C   0  0  0  0  0  0  0  0  0  0  0  0
    7.0338  -14.5416   24.4678 C   0  0  0  0  0  0  0  0  0  0  0  0
    7.2580  -14.0690   23.2015 C   0  0  0  0  0  0  0  0  0  0  0  0
    7.2664  -12.7206   23.1958 N   0  0  0  0  0  0  0  0  0  0  0  0
    7.0454  -12.3121   24.4709 C   0  0  0  0  0  0  0  0  0  0  0  0
    6.9599  -11.0362   24.9986 C   0  0  0  0  0  0  0  0  0  0  0  0
    6.7243  -10.8751   26.3492 C   0  0  0  0  0  0  0  0  0  0  0  0
    6.5749  -11.9671   27.1687 C   0  0  0  0  0  0  0  0  0  0  0  0
    6.6667  -13.2259   26.6054 C   0  0  0  0  0  0  0  0  0  0  0  0
    6.8989  -13.4345   25.2728 C   0  0  0  0  0  0  0  0  0  0  0  0
    8.2275  -17.9967   25.4706 C   0  0  0  0  0  0  0  0  0  0  0  0
    7.8998  -18.1726   26.6690 O   0  0  0  0  0  0  0  0  0  0  0  0
    8.5077  -19.1352   24.6769 N   0  0  0  0  0  0  0  0  0  0  0  0
    8.5392  -20.4806   25.1834 C   0  0  0  0  0  0  0  0  0  0  0  0
    9.8955  -20.8069   25.6771 C   0  0  0  0  0  0  0  0  0  0  0  0
   10.1049  -21.9037   26.3175 O   0  0  0  0  0  0  0  0  0  0  0  0
   13.0886  -20.2614   23.4867 C   0  0  0  0  0  0  0  0  0  0  0  0
   13.4244  -19.9294   24.9170 C   0  0  1  0  0  0  0  0  0  0  0  0
   13.4998  -18.5405   25.0126 O   0  0  0  0  0  0  0  0  0  0  0  0
   12.3830  -20.4710   25.8763 C   0  0  2  0  0  0  0  0  0  0  0  0
   11.0500  -20.0100   25.5136 N   0  0  0  0  0  0  0  0  0  0  0  0
   12.7096  -20.1698   27.2773 C   0  0  0  0  0  0  0  0  0  0  0  0
   11.9147  -19.4003   28.1059 O   0  0  0  0  0  0  0  0  0  0  0  0
   13.7735  -20.6358   27.7589 O   0  0  0  0  0  0  0  0  0  0  0  0
  2  1  1  6
  3  2  1  0
  4  3  1  0
  5  4  2  0
  6  7  1  0
  6  5  1  0
  7 12  2  0
  8  7  1  0
  8  9  2  0
  9 10  1  0
 10 11  2  0
 12  4  1  0
 12 11  1  0
 13 15  1  0
 13  2  1  0
 14 13  2  0
 16 15  1  0
 17 16  1  0
 18 17  2  0
 20 19  1  6
 20 22  1  0
 21 20  1  0
 22 24  1  0
 22 23  1  6
 23 17  1  0
 24 25  1  0
 26 24  2  0
M  END
$$$$
