WGT.pdb
     RDKit          3D

 26 27  0  0  1  0  0  0  0  0999 V2000
    7.5508  -17.7255   26.2558 N   0  0  0  0  0  0  0  0  0  0  0  0
    7.2254  -17.2012   24.9386 C   0  0  1  0  0  0  0  0  0  0  0  0
    6.5209  -15.8769   25.1635 C   0  0  0  0  0  0  0  0  0  0  0  0
    7.2942  -14.9562   26.0139 C   0  0  0  0  0  0  0  0  0  0  0  0
    8.4944  -15.2079   26.6248 C   0  0  0  0  0  0  0  0  0  0  0  0
    8.9033  -14.1296   27.3235 N   0  0  0  0  0  0  0  0  0  0  0  0
    7.9599  -13.1671   27.1656 C   0  0  0  0  0  0  0  0  0  0  0  0
    7.9012  -11.8811   27.6724 C   0  0  0  0  0  0  0  0  0  0  0  0
    6.8205  -11.0794   27.3646 C   0  0  0  0  0  0  0  0  0  0  0  0
    5.8081  -11.5468   26.5627 C   0  0  0  0  0  0  0  0  0  0  0  0
    5.9017  -12.8367   26.0751 C   0  0  0  0  0  0  0  0  0  0  0  0
    6.9531  -13.6676   26.3531 C   0  0  0  0  0  0  0  0  0  0  0  0
    8.4168  -17.0603   24.0882 C   0  0  0  0  0  0  0  0  0  0  0  0
    9.5565  -17.1774   24.5999 O   0  0  0  0  0  0  0  0  0  0  0  0
    8.3277  -16.7952   22.7002 N   0  0  0  0  0  0  0  0  0  0  0  0
    9.4667  -16.6491   21.8347 C   0  0  0  0  0  0  0  0  0  0  0  0
    9.0222  -16.3601   20.4532 C   0  0  0  0  0  0  0  0  0  0  0  0
    8.7406  -17.3246   19.6485 O   0  0  0  0  0  0  0  0  0  0  0  0
    6.7749  -13.1403   19.4451 C   0  0  0  0  0  0  0  0  0  0  0  0
    7.7930  -13.4639   18.3831 C   0  0  1  0  0  0  0  0  0  0  0  0
    8.8184  -12.5255   18.4933 O   0  0  0  0  0  0  0  0  0  0  0  0
    8.3404  -14.8684   18.5425 C   0  0  2  0  0  0  0  0  0  0  0  0
    8.8596  -15.0763   19.8873 N   0  0  0  0  0  0  0  0  0  0  0  0
    9.3334  -15.1972   17.5099 C   0  0  0  0  0  0  0  0  0  0  0  0
    9.0395  -15.3019   16.1634 O   0  0  0  0  0  0  0  0  0  0  0  0
   10.5233  -15.3966   17.8637 O   0  0  0  0  0  0  0  0  0  0  0  0
  2  1  1  1
  3  2  1  0
  4  3  1  0
  5  4  2  0
  6  7  1  0
  6  5  1  0
  7 12  2  0
  8  7  1  0
  8  9  2  0
  9 10  1  0
 10 11  2  0
 12  4  1  0
 12 11  1  0
 13 15  1  0
 13  2  1  0
 14 13  2  0
 16 15  1  0
 17 16  1  0
 18 17  2  0
 20 19  1  1
 20 22  1  0
 21 20  1  0
 22 24  1  0
 22 23  1  1
 23 17  1  0
 24 25  1  0
 26 24  2  0
M  END
$$$$
