WGT.pdb
     RDKit          3D

 26 27  0  0  1  0  0  0  0  0999 V2000
    7.9529  -17.8088   25.0910 N   0  0  0  0  0  0  0  0  0  0  0  0
    7.2153  -16.9650   24.1638 C   0  0  1  0  0  0  0  0  0  0  0  0
    7.8635  -15.5949   24.2186 C   0  0  0  0  0  0  0  0  0  0  0  0
    7.7732  -14.9736   25.5508 C   0  0  0  0  0  0  0  0  0  0  0  0
    8.1465  -15.5273   26.7470 C   0  0  0  0  0  0  0  0  0  0  0  0
    7.9183  -14.6646   27.7578 N   0  0  0  0  0  0  0  0  0  0  0  0
    7.3914  -13.5386   27.2138 C   0  0  0  0  0  0  0  0  0  0  0  0
    6.9844  -12.3611   27.8154 C   0  0  0  0  0  0  0  0  0  0  0  0
    6.4727  -11.3430   27.0362 C   0  0  0  0  0  0  0  0  0  0  0  0
    6.3653  -11.4899   25.6748 C   0  0  0  0  0  0  0  0  0  0  0  0
    6.7822  -12.6804   25.1098 C   0  0  0  0  0  0  0  0  0  0  0  0
    7.2955  -13.7169   25.8415 C   0  0  0  0  0  0  0  0  0  0  0  0
    7.2001  -17.5194   22.8019 C   0  0  0  0  0  0  0  0  0  0  0  0
    8.0062  -18.4321   22.4989 O   0  0  0  0  0  0  0  0  0  0  0  0
    6.3022  -17.0593   21.8084 N   0  0  0  0  0  0  0  0  0  0  0  0
    6.2608  -17.5680   20.4641 C   0  0  0  0  0  0  0  0  0  0  0  0
    7.1631  -16.7812   19.5943 C   0  0  0  0  0  0  0  0  0  0  0  0
    7.2157  -17.0207   18.3307 O   0  0  0  0  0  0  0  0  0  0  0  0
    7.2276  -13.0645   19.1467 C   0  0  0  0  0  0  0  0  0  0  0  0
    8.6652  -13.4838   19.3095 C   0  0  1  0  0  0  0  0  0  0  0  0
    9.0552  -13.1317   20.6009 O   0  0  0  0  0  0  0  0  0  0  0  0
    8.8417  -14.9733   19.0900 C   0  0  2  0  0  0  0  0  0  0  0  0
    8.0171  -15.7381   20.0154 N   0  0  0  0  0  0  0  0  0  0  0  0
   10.2536  -15.3784   19.1437 C   0  0  0  0  0  0  0  0  0  0  0  0
   11.2408  -14.8408   18.3394 O   0  0  0  0  0  0  0  0  0  0  0  0
   10.5922  -16.2660   19.9673 O   0  0  0  0  0  0  0  0  0  0  0  0
  2  1  1  1
  3  2  1  0
  4  3  1  0
  5  4  2  0
  6  7  1  0
  6  5  1  0
  7 12  2  0
  8  7  1  0
  8  9  2  0
  9 10  1  0
 10 11  2  0
 12  4  1  0
 12 11  1  0
 13 15  1  0
 13  2  1  0
 14 13  2  0
 16 15  1  0
 17 16  1  0
 18 17  2  0
 20 19  1  1
 20 22  1  0
 21 20  1  0
 22 24  1  0
 22 23  1  1
 23 17  1  0
 24 25  1  0
 26 24  2  0
M  END
$$$$
