AVP.pdb
     RDKit          3D

 20 20  0  0  1  0  0  0  0  0999 V2000
   28.5845  -19.6588  -19.7905 C   0  0  0  0  0  0  0  0  0  0  0  0
   27.7711  -20.5829  -18.9051 C   0  0  2  0  0  0  0  0  0  0  0  0
   26.3939  -20.4851  -19.3516 N   0  0  0  0  0  0  0  0  0  0  0  0
   27.8223  -20.1642  -17.4850 C   0  0  0  0  0  0  0  0  0  0  0  0
   28.9226  -20.1484  -16.8334 O   0  0  0  0  0  0  0  0  0  0  0  0
   25.0804  -17.5922  -15.8536 C   0  0  0  0  0  0  0  0  0  0  0  0
   26.4422  -17.8647  -15.2506 C   0  0  1  0  0  0  0  0  0  0  0  0
   26.4944  -17.3588  -13.8463 C   0  0  0  0  0  0  0  0  0  0  0  0
   26.7887  -19.3439  -15.3504 C   0  0  2  0  0  0  0  0  0  0  0  0
   26.6765  -19.7564  -16.7531 N   0  0  0  0  0  0  0  0  0  0  0  0
   25.8049  -20.1153  -14.5561 C   0  0  0  0  0  0  0  0  0  0  0  0
   24.6265  -20.1687  -15.0449 O   0  0  0  0  0  0  0  0  0  0  0  0
   26.1085  -20.7690  -13.3303 N   0  0  0  0  0  0  0  0  0  0  0  0
   27.3391  -20.9350  -12.6149 C   0  0  0  0  0  0  0  0  0  0  0  0
   26.8777  -20.7677  -11.1556 C   0  0  0  0  0  0  0  0  0  0  0  0
   25.7222  -21.7889  -11.1975 C   0  0  0  0  0  0  0  0  0  0  0  0
   25.0678  -21.4364  -12.5393 C   0  0  1  0  0  0  0  0  0  0  0  0
   23.8969  -20.5688  -12.3027 C   0  0  0  0  0  0  0  0  0  0  0  0
   24.0143  -19.3283  -12.4043 O   0  0  0  0  0  0  0  0  0  0  0  0
   22.6775  -21.1044  -11.9731 O   0  0  0  0  0  0  0  0  0  0  0  0
  2  1  1  6
  2  3  1  0
  4  2  1  0
  4  5  2  0
  7  6  1  1
  7  9  1  0
  8  7  1  0
  9 10  1  6
  9 11  1  0
 10  4  1  0
 11 13  1  0
 12 11  2  0
 13 14  1  0
 13 17  1  0
 14 15  1  0
 15 16  1  0
 17 16  1  0
 18 20  1  0
 17 18  1  1
 19 18  2  0
M  END
$$$$
