AVP.pdb
     RDKit          3D

 20 20  0  0  1  0  0  0  0  0999 V2000
   26.1375  -10.8505  -15.6688 C   0  0  0  0  0  0  0  0  0  0  0  0
   24.8684  -11.6458  -15.4315 C   0  0  2  0  0  0  0  0  0  0  0  0
   25.0423  -12.9211  -16.1016 N   0  0  0  0  0  0  0  0  0  0  0  0
   23.6857  -10.9765  -16.0215 C   0  0  0  0  0  0  0  0  0  0  0  0
   23.2403  -11.3036  -17.1748 O   0  0  0  0  0  0  0  0  0  0  0  0
   20.6786   -9.8719  -13.7046 C   0  0  0  0  0  0  0  0  0  0  0  0
   20.5518  -10.0642  -15.2011 C   0  0  1  0  0  0  0  0  0  0  0  0
   19.2309   -9.5539  -15.6759 C   0  0  0  0  0  0  0  0  0  0  0  0
   21.7223   -9.4164  -15.9279 C   0  0  2  0  0  0  0  0  0  0  0  0
   22.9703   -9.9413  -15.3647 N   0  0  0  0  0  0  0  0  0  0  0  0
   21.6790   -7.9555  -15.6876 C   0  0  0  0  0  0  0  0  0  0  0  0
   21.7988   -7.5966  -14.4681 O   0  0  0  0  0  0  0  0  0  0  0  0
   21.5189   -6.9843  -16.7138 N   0  0  0  0  0  0  0  0  0  0  0  0
   21.4662   -7.1016  -18.1411 C   0  0  0  0  0  0  0  0  0  0  0  0
   20.3763   -6.0750  -18.4995 C   0  0  0  0  0  0  0  0  0  0  0  0
   20.9681   -4.8818  -17.7210 C   0  0  0  0  0  0  0  0  0  0  0  0
   21.3623   -5.5585  -16.4022 C   0  0  1  0  0  0  0  0  0  0  0  0
   20.3140   -5.3148  -15.3916 C   0  0  0  0  0  0  0  0  0  0  0  0
   19.4466   -6.1889  -15.1754 O   0  0  0  0  0  0  0  0  0  0  0  0
   20.2773   -4.1407  -14.6827 O   0  0  0  0  0  0  0  0  0  0  0  0
  2  1  1  6
  2  3  1  0
  4  2  1  0
  4  5  2  0
  7  6  1  1
  7  9  1  0
  8  7  1  0
  9 10  1  1
  9 11  1  0
 10  4  1  0
 11 13  1  0
 12 11  2  0
 13 14  1  0
 13 17  1  0
 14 15  1  0
 15 16  1  0
 17 16  1  0
 18 20  1  0
 17 18  1  1
 19 18  2  0
M  END
$$$$
