AVP.pdb
     RDKit          3D

 20 20  0  0  1  0  0  0  0  0999 V2000
   14.2083  -10.6056  -14.7739 C   0  0  0  0  0  0  0  0  0  0  0  0
   14.8504  -11.3288  -15.9419 C   0  0  2  0  0  0  0  0  0  0  0  0
   14.3662  -12.6963  -15.9046 N   0  0  0  0  0  0  0  0  0  0  0  0
   16.3264  -11.3627  -15.8190 C   0  0  0  0  0  0  0  0  0  0  0  0
   16.9202  -12.2858  -15.1627 O   0  0  0  0  0  0  0  0  0  0  0  0
   18.7802  -12.1383  -18.2206 C   0  0  0  0  0  0  0  0  0  0  0  0
   19.1848  -10.7673  -17.7213 C   0  0  1  0  0  0  0  0  0  0  0  0
   18.7598   -9.7181  -18.6956 C   0  0  0  0  0  0  0  0  0  0  0  0
   18.6361  -10.5205  -16.3227 C   0  0  2  0  0  0  0  0  0  0  0  0
   17.1778  -10.3921  -16.4088 N   0  0  0  0  0  0  0  0  0  0  0  0
   19.1887   -9.2431  -15.8159 C   0  0  0  0  0  0  0  0  0  0  0  0
   18.6420   -8.1866  -16.2799 O   0  0  0  0  0  0  0  0  0  0  0  0
   20.2520   -9.1529  -14.8760 N   0  0  0  0  0  0  0  0  0  0  0  0
   20.9960  -10.1574  -14.1752 C   0  0  0  0  0  0  0  0  0  0  0  0
   22.4187   -9.5699  -14.2034 C   0  0  0  0  0  0  0  0  0  0  0  0
   22.0641   -8.1725  -13.6540 C   0  0  0  0  0  0  0  0  0  0  0  0
   20.7949   -7.8559  -14.4551 C   0  0  1  0  0  0  0  0  0  0  0  0
   21.1394   -6.9909  -15.6008 C   0  0  0  0  0  0  0  0  0  0  0  0
   21.2950   -7.4960  -16.7338 O   0  0  0  0  0  0  0  0  0  0  0  0
   21.2906   -5.6366  -15.4415 O   0  0  0  0  0  0  0  0  0  0  0  0
  2  1  1  1
  2  3  1  0
  4  2  1  0
  4  5  2  0
  7  6  1  6
  7  9  1  0
  8  7  1  0
  9 10  1  6
  9 11  1  0
 10  4  1  0
 11 13  1  0
 12 11  2  0
 13 14  1  0
 13 17  1  0
 14 15  1  0
 15 16  1  0
 17 16  1  0
 18 20  1  0
 17 18  1  6
 19 18  2  0
M  END
$$$$
