AVP.pdb
     RDKit          3D

 20 20  0  0  1  0  0  0  0  0999 V2000
   14.6890  -22.5759    3.9159 C   0  0  0  0  0  0  0  0  0  0  0  0
   15.4746  -22.3090    2.6466 C   0  0  2  0  0  0  0  0  0  0  0  0
   15.7609  -23.6014    2.0522 N   0  0  0  0  0  0  0  0  0  0  0  0
   16.7656  -21.6412    2.9331 C   0  0  0  0  0  0  0  0  0  0  0  0
   17.8014  -22.3097    3.2732 O   0  0  0  0  0  0  0  0  0  0  0  0
   19.6359  -17.6235    2.5997 C   0  0  0  0  0  0  0  0  0  0  0  0
   18.5054  -18.5178    2.1365 C   0  0  1  0  0  0  0  0  0  0  0  0
   18.7909  -19.0417    0.7673 C   0  0  0  0  0  0  0  0  0  0  0  0
   18.2513  -19.6299    3.1448 C   0  0  2  0  0  0  0  0  0  0  0  0
   16.9481  -20.2358    2.8537 N   0  0  0  0  0  0  0  0  0  0  0  0
   18.1986  -19.0365    4.5009 C   0  0  0  0  0  0  0  0  0  0  0  0
   17.1839  -18.2984    4.7374 O   0  0  0  0  0  0  0  0  0  0  0  0
   19.1860  -19.2492    5.5019 N   0  0  0  0  0  0  0  0  0  0  0  0
   20.3808  -20.0403    5.5131 C   0  0  0  0  0  0  0  0  0  0  0  0
   21.3519  -19.1297    6.2863 C   0  0  0  0  0  0  0  0  0  0  0  0
   20.4430  -18.8642    7.5043 C   0  0  0  0  0  0  0  0  0  0  0  0
   19.0988  -18.5990    6.8149 C   0  0  1  0  0  0  0  0  0  0  0  0
   18.8791  -17.1429    6.7088 C   0  0  0  0  0  0  0  0  0  0  0  0
   19.1645  -16.5490    5.6464 O   0  0  0  0  0  0  0  0  0  0  0  0
   18.3637  -16.4290    7.7611 O   0  0  0  0  0  0  0  0  0  0  0  0
  2  1  1  1
  2  3  1  0
  4  2  1  0
  4  5  2  0
  7  6  1  1
  7  9  1  0
  8  7  1  0
  9 10  1  6
  9 11  1  0
 10  4  1  0
 11 13  1  0
 12 11  2  0
 13 14  1  0
 13 17  1  0
 14 15  1  0
 15 16  1  0
 17 16  1  0
 18 20  1  0
 17 18  1  6
 19 18  2  0
M  END
$$$$
