AVP.pdb
     RDKit          3D

 20 20  0  0  1  0  0  0  0  0999 V2000
   28.0861  -23.3503  -17.8620 C   0  0  0  0  0  0  0  0  0  0  0  0
   27.8692  -21.8497  -17.8377 C   0  0  2  0  0  0  0  0  0  0  0  0
   28.9928  -21.2532  -18.5358 N   0  0  0  0  0  0  0  0  0  0  0  0
   27.8580  -21.3215  -16.4536 C   0  0  0  0  0  0  0  0  0  0  0  0
   28.9182  -21.3010  -15.7388 O   0  0  0  0  0  0  0  0  0  0  0  0
   27.8037  -18.0810  -15.2892 C   0  0  0  0  0  0  0  0  0  0  0  0
   26.5896  -18.6994  -14.6291 C   0  0  1  0  0  0  0  0  0  0  0  0
   25.3517  -18.3305  -15.3789 C   0  0  0  0  0  0  0  0  0  0  0  0
   26.7606  -20.2060  -14.4917 C   0  0  2  0  0  0  0  0  0  0  0  0
   26.6924  -20.8077  -15.8273 N   0  0  0  0  0  0  0  0  0  0  0  0
   25.6404  -20.7378  -13.6817 C   0  0  0  0  0  0  0  0  0  0  0  0
   24.5598  -20.9651  -14.3226 O   0  0  0  0  0  0  0  0  0  0  0  0
   25.7195  -20.9945  -12.2852 N   0  0  0  0  0  0  0  0  0  0  0  0
   26.8248  -20.9870  -11.3731 C   0  0  0  0  0  0  0  0  0  0  0  0
   26.1915  -20.3572  -10.1191 C   0  0  0  0  0  0  0  0  0  0  0  0
   24.9647  -21.2886  -10.0309 C   0  0  0  0  0  0  0  0  0  0  0  0
   24.5277  -21.3380  -11.5004 C   0  0  1  0  0  0  0  0  0  0  0  0
   23.4184  -20.3879  -11.7159 C   0  0  0  0  0  0  0  0  0  0  0  0
   23.6587  -19.2466  -12.1660 O   0  0  0  0  0  0  0  0  0  0  0  0
   22.1233  -20.7396  -11.4303 O   0  0  0  0  0  0  0  0  0  0  0  0
  2  1  1  1
  2  3  1  0
  4  2  1  0
  4  5  2  0
  7  6  1  6
  7  9  1  0
  8  7  1  0
  9 10  1  6
  9 11  1  0
 10  4  1  0
 11 13  1  0
 12 11  2  0
 13 14  1  0
 13 17  1  0
 14 15  1  0
 15 16  1  0
 17 16  1  0
 18 20  1  0
 17 18  1  1
 19 18  2  0
M  END
$$$$
