AVP.pdb
     RDKit          3D

 20 20  0  0  1  0  0  0  0  0999 V2000
   12.4818  -15.5623    4.1418 C   0  0  0  0  0  0  0  0  0  0  0  0
   12.5570  -16.6861    3.1263 C   0  0  2  0  0  0  0  0  0  0  0  0
   11.2116  -17.2100    2.9817 N   0  0  0  0  0  0  0  0  0  0  0  0
   13.4292  -17.7882    3.5946 C   0  0  0  0  0  0  0  0  0  0  0  0
   12.9583  -18.7770    4.2549 O   0  0  0  0  0  0  0  0  0  0  0  0
   17.4341  -18.1718    2.2253 C   0  0  0  0  0  0  0  0  0  0  0  0
   16.5509  -19.3514    2.5727 C   0  0  1  0  0  0  0  0  0  0  0  0
   17.3876  -20.5560    2.8548 C   0  0  0  0  0  0  0  0  0  0  0  0
   15.6199  -19.0052    3.7266 C   0  0  2  0  0  0  0  0  0  0  0  0
   14.8270  -17.8303    3.3508 N   0  0  0  0  0  0  0  0  0  0  0  0
   16.4409  -18.6565    4.9090 C   0  0  0  0  0  0  0  0  0  0  0  0
   17.1121  -17.5747    4.8109 O   0  0  0  0  0  0  0  0  0  0  0  0
   16.5052  -19.4414    6.0931 N   0  0  0  0  0  0  0  0  0  0  0  0
   15.8218  -20.6387    6.4845 C   0  0  0  0  0  0  0  0  0  0  0  0
   16.9371  -21.4122    7.2112 C   0  0  0  0  0  0  0  0  0  0  0  0
   17.3731  -20.2789    8.1628 C   0  0  0  0  0  0  0  0  0  0  0  0
   17.3962  -19.0827    7.2030 C   0  0  1  0  0  0  0  0  0  0  0  0
   18.7817  -18.8372    6.7561 C   0  0  0  0  0  0  0  0  0  0  0  0
   19.1807  -19.3266    5.6771 O   0  0  0  0  0  0  0  0  0  0  0  0
   19.6410  -18.0767    7.5084 O   0  0  0  0  0  0  0  0  0  0  0  0
  2  1  1  1
  2  3  1  0
  4  2  1  0
  4  5  2  0
  7  6  1  1
  7  9  1  0
  8  7  1  0
  9 10  1  6
  9 11  1  0
 10  4  1  0
 11 13  1  0
 12 11  2  0
 13 14  1  0
 13 17  1  0
 14 15  1  0
 15 16  1  0
 17 16  1  0
 18 20  1  0
 17 18  1  6
 19 18  2  0
M  END
$$$$
