AVP.pdb
     RDKit          3D

 20 20  0  0  1  0  0  0  0  0999 V2000
   20.4483  -12.0623  -20.8577 C   0  0  0  0  0  0  0  0  0  0  0  0
   21.3585  -12.8559  -19.9405 C   0  0  2  0  0  0  0  0  0  0  0  0
   21.0283  -14.2559  -20.1323 N   0  0  0  0  0  0  0  0  0  0  0  0
   21.1249  -12.5219  -18.5162 C   0  0  0  0  0  0  0  0  0  0  0  0
   20.1817  -13.0695  -17.8486 O   0  0  0  0  0  0  0  0  0  0  0  0
   23.0283  -13.1715  -15.5963 C   0  0  0  0  0  0  0  0  0  0  0  0
   22.8136  -11.6736  -15.5447 C   0  0  1  0  0  0  0  0  0  0  0  0
   24.0639  -10.9599  -15.9420 C   0  0  0  0  0  0  0  0  0  0  0  0
   21.6174  -11.2719  -16.3967 C   0  0  2  0  0  0  0  0  0  0  0  0
   21.9147  -11.5866  -17.7976 N   0  0  0  0  0  0  0  0  0  0  0  0
   21.4215   -9.8086  -16.2776 C   0  0  0  0  0  0  0  0  0  0  0  0
   22.4356   -9.0933  -16.5780 O   0  0  0  0  0  0  0  0  0  0  0  0
   20.2051   -9.1993  -15.8638 N   0  0  0  0  0  0  0  0  0  0  0  0
   18.9254   -9.7506  -15.5287 C   0  0  0  0  0  0  0  0  0  0  0  0
   18.5067   -8.8689  -14.3382 C   0  0  0  0  0  0  0  0  0  0  0  0
   18.7430   -7.5025  -15.0143 C   0  0  0  0  0  0  0  0  0  0  0  0
   20.0928   -7.7448  -15.7015 C   0  0  1  0  0  0  0  0  0  0  0  0
   21.1762   -7.1857  -14.8689 C   0  0  0  0  0  0  0  0  0  0  0  0
   21.8953   -7.9519  -14.1914 O   0  0  0  0  0  0  0  0  0  0  0  0
   21.4079   -5.8340  -14.8277 O   0  0  0  0  0  0  0  0  0  0  0  0
  2  1  1  6
  2  3  1  0
  4  2  1  0
  4  5  2  0
  7  6  1  6
  7  9  1  0
  8  7  1  0
  9 10  1  6
  9 11  1  0
 10  4  1  0
 11 13  1  0
 12 11  2  0
 13 14  1  0
 13 17  1  0
 14 15  1  0
 15 16  1  0
 17 16  1  0
 18 20  1  0
 17 18  1  1
 19 18  2  0
M  END
$$$$
