AVP.pdb
     RDKit          3D

 20 20  0  0  1  0  0  0  0  0999 V2000
   33.3015   -5.2094  -15.6225 C   0  0  0  0  0  0  0  0  0  0  0  0
   33.7126   -6.2642  -16.6314 C   0  0  2  0  0  0  0  0  0  0  0  0
   32.5361   -6.5643  -17.4260 N   0  0  0  0  0  0  0  0  0  0  0  0
   34.1477   -7.5152  -15.9677 C   0  0  0  0  0  0  0  0  0  0  0  0
   33.3111   -8.4312  -15.6568 O   0  0  0  0  0  0  0  0  0  0  0  0
   35.8192  -10.3308  -17.1500 C   0  0  0  0  0  0  0  0  0  0  0  0
   36.6891   -9.8714  -15.9991 C   0  0  1  0  0  0  0  0  0  0  0  0
   37.8749   -9.1247  -16.5157 C   0  0  0  0  0  0  0  0  0  0  0  0
   35.8764   -9.0568  -15.0021 C   0  0  2  0  0  0  0  0  0  0  0  0
   35.4998   -7.7876  -15.6326 N   0  0  0  0  0  0  0  0  0  0  0  0
   36.7280   -8.7605  -13.8270 C   0  0  0  0  0  0  0  0  0  0  0  0
   37.4787   -7.7336  -13.9387 O   0  0  0  0  0  0  0  0  0  0  0  0
   36.7392   -9.5371  -12.6358 N   0  0  0  0  0  0  0  0  0  0  0  0
   35.9846  -10.6888  -12.2385 C   0  0  0  0  0  0  0  0  0  0  0  0
   37.0482  -11.5198  -11.4981 C   0  0  0  0  0  0  0  0  0  0  0  0
   37.5443  -10.4054  -10.5535 C   0  0  0  0  0  0  0  0  0  0  0  0
   37.6432   -9.2213  -11.5234 C   0  0  1  0  0  0  0  0  0  0  0  0
   39.0433   -9.0614  -11.9635 C   0  0  0  0  0  0  0  0  0  0  0  0
   39.4171   -9.5759  -13.0399 O   0  0  0  0  0  0  0  0  0  0  0  0
   39.9436   -8.3536  -11.2078 O   0  0  0  0  0  0  0  0  0  0  0  0
  2  1  1  1
  2  3  1  0
  4  2  1  0
  4  5  2  0
  7  6  1  6
  7  9  1  0
  8  7  1  0
  9 10  1  6
  9 11  1  0
 10  4  1  0
 11 13  1  0
 12 11  2  0
 13 14  1  0
 13 17  1  0
 14 15  1  0
 15 16  1  0
 17 16  1  0
 18 20  1  0
 17 18  1  6
 19 18  2  0
M  END
$$$$
