AVP.pdb
     RDKit          3D

 20 20  0  0  1  0  0  0  0  0999 V2000
   17.1585  -14.6882  -14.8152 C   0  0  0  0  0  0  0  0  0  0  0  0
   17.4728  -14.4079  -16.2720 C   0  0  2  0  0  0  0  0  0  0  0  0
   17.8710  -15.6713  -16.8646 N   0  0  0  0  0  0  0  0  0  0  0  0
   18.6019  -13.4596  -16.4149 C   0  0  0  0  0  0  0  0  0  0  0  0
   19.8166  -13.8559  -16.3621 O   0  0  0  0  0  0  0  0  0  0  0  0
   18.1099  -10.0801  -18.5906 C   0  0  0  0  0  0  0  0  0  0  0  0
   19.4652  -10.7061  -18.3382 C   0  0  1  0  0  0  0  0  0  0  0  0
   20.5512   -9.7454  -18.6965 C   0  0  0  0  0  0  0  0  0  0  0  0
   19.5719  -11.1968  -16.9008 C   0  0  2  0  0  0  0  0  0  0  0  0
   18.4253  -12.0658  -16.6174 N   0  0  0  0  0  0  0  0  0  0  0  0
   19.5069  -10.0267  -15.9951 C   0  0  0  0  0  0  0  0  0  0  0  0
   18.3850   -9.4179  -15.9653 O   0  0  0  0  0  0  0  0  0  0  0  0
   20.5932   -9.5785  -15.1942 N   0  0  0  0  0  0  0  0  0  0  0  0
   21.9474  -10.0331  -15.0794 C   0  0  0  0  0  0  0  0  0  0  0  0
   22.7126   -8.7046  -14.9387 C   0  0  0  0  0  0  0  0  0  0  0  0
   21.8672   -8.1125  -13.7920 C   0  0  0  0  0  0  0  0  0  0  0  0
   20.4487   -8.4470  -14.2705 C   0  0  1  0  0  0  0  0  0  0  0  0
   19.8566   -7.2612  -14.9209 C   0  0  0  0  0  0  0  0  0  0  0  0
   19.8902   -7.1559  -16.1662 O   0  0  0  0  0  0  0  0  0  0  0  0
   19.2668   -6.2702  -14.1776 O   0  0  0  0  0  0  0  0  0  0  0  0
  2  1  1  1
  2  3  1  0
  4  2  1  0
  4  5  2  0
  7  6  1  1
  7  9  1  0
  8  7  1  0
  9 10  1  1
  9 11  1  0
 10  4  1  0
 11 13  1  0
 12 11  2  0
 13 14  1  0
 13 17  1  0
 14 15  1  0
 15 16  1  0
 17 16  1  0
 18 20  1  0
 17 18  1  6
 19 18  2  0
M  END
$$$$
