SNV.pdb
     RDKit          3D

 22 21  0  0  1  0  0  0  0  0999 V2000
    7.1851  -16.9592   16.8483 O   0  0  0  0  0  0  0  0  0  0  0  0
    8.5211  -16.5754   16.7631 C   0  0  0  0  0  0  0  0  0  0  0  0
    9.3630  -17.7816   17.0899 C   0  0  2  0  0  0  0  0  0  0  0  0
    9.0193  -18.8395   16.1793 N   0  0  0  0  0  0  0  0  0  0  0  0
    9.1192  -18.2773   18.4677 C   0  0  0  0  0  0  0  0  0  0  0  0
    8.5826  -19.3932   18.7151 O   0  0  0  0  0  0  0  0  0  0  0  0
   11.7183  -19.7098   23.1413 N   0  0  0  0  0  0  0  0  0  0  0  0
   10.4541  -19.4412   22.5523 C   0  0  0  0  0  0  0  0  0  0  0  0
    9.4133  -19.6027   23.2019 O   0  0  0  0  0  0  0  0  0  0  0  0
   10.4043  -18.9711   21.1667 C   0  0  0  0  0  0  0  0  0  0  0  0
    9.4352  -17.8613   20.9312 C   0  0  2  0  0  0  0  0  0  0  0  0
    9.5085  -17.4567   19.5594 N   0  0  0  0  0  0  0  0  0  0  0  0
    9.8254  -16.7286   21.8503 C   0  0  0  0  0  0  0  0  0  0  0  0
   10.9860  -16.2519   21.8125 O   0  0  0  0  0  0  0  0  0  0  0  0
    6.8229  -15.0867   24.4266 C   0  0  0  0  0  0  0  0  0  0  0  0
    7.9002  -14.2185   23.8242 C   0  0  2  0  0  0  0  0  0  0  0  0
    7.3951  -13.7953   22.4469 C   0  0  0  0  0  0  0  0  0  0  0  0
    9.1162  -15.0523   23.6207 C   0  0  2  0  0  0  0  0  0  0  0  0
    8.8787  -16.1950   22.7653 N   0  0  0  0  0  0  0  0  0  0  0  0
    9.7568  -15.5081   24.8797 C   0  0  0  0  0  0  0  0  0  0  0  0
   10.3967  -14.6554   25.7557 O   0  0  0  0  0  0  0  0  0  0  0  0
    9.7214  -16.7216   25.1715 O   0  0  0  0  0  0  0  0  0  0  0  0
  1  2  1  0
  3  4  1  6
  3  2  1  0
  3  5  1  0
  5 12  1  0
  5  6  2  0
  8  9  2  0
  8  7  1  0
 10  8  1  0
 11 10  1  6
 11 13  1  0
 12 11  1  0
 13 14  2  0
 13 19  1  0
 16 15  1  6
 16 17  1  0
 18 20  1  0
 18 16  1  0
 18 19  1  6
 20 21  1  0
 22 20  2  0
M  END
$$$$
