SNV.pdb
     RDKit          3D

 22 21  0  0  1  0  0  0  0  0999 V2000
    8.5327  -14.3941   20.1828 O   0  0  0  0  0  0  0  0  0  0  0  0
    7.6220  -15.1788   19.4797 C   0  0  0  0  0  0  0  0  0  0  0  0
    7.6222  -16.5489   20.1069 C   0  0  2  0  0  0  0  0  0  0  0  0
    6.7789  -17.4105   19.3239 N   0  0  0  0  0  0  0  0  0  0  0  0
    7.0855  -16.5308   21.4906 C   0  0  0  0  0  0  0  0  0  0  0  0
    5.8599  -16.3790   21.7539 O   0  0  0  0  0  0  0  0  0  0  0  0
    6.4235  -19.4988   25.2024 N   0  0  0  0  0  0  0  0  0  0  0  0
    7.5001  -19.1045   24.3642 C   0  0  0  0  0  0  0  0  0  0  0  0
    7.8455  -19.8155   23.4119 O   0  0  0  0  0  0  0  0  0  0  0  0
    8.1921  -17.8455   24.6458 C   0  0  0  0  0  0  0  0  0  0  0  0
    7.6130  -16.6595   23.9497 C   0  0  2  0  0  0  0  0  0  0  0  0
    7.9945  -16.6920   22.5698 N   0  0  0  0  0  0  0  0  0  0  0  0
    8.1631  -15.4310   24.6337 C   0  0  0  0  0  0  0  0  0  0  0  0
    9.2760  -14.9601   24.2938 O   0  0  0  0  0  0  0  0  0  0  0  0
    6.1210  -12.1644   25.4321 C   0  0  0  0  0  0  0  0  0  0  0  0
    6.7058  -12.7066   26.7132 C   0  0  2  0  0  0  0  0  0  0  0  0
    7.2773  -11.5092   27.4689 C   0  0  0  0  0  0  0  0  0  0  0  0
    7.8417  -13.6042   26.3679 C   0  0  2  0  0  0  0  0  0  0  0  0
    7.4223  -14.7996   25.6685 N   0  0  0  0  0  0  0  0  0  0  0  0
    8.6869  -13.9862   27.5266 C   0  0  0  0  0  0  0  0  0  0  0  0
    9.4905  -13.0929   28.2050 O   0  0  0  0  0  0  0  0  0  0  0  0
    8.6787  -15.1724   27.9163 O   0  0  0  0  0  0  0  0  0  0  0  0
  1  2  1  0
  3  4  1  6
  3  2  1  0
  3  5  1  0
  5 12  1  0
  5  6  2  0
  8  9  2  0
  8  7  1  0
 10  8  1  0
 11 10  1  1
 11 13  1  0
 12 11  1  0
 13 14  2  0
 13 19  1  0
 16 15  1  6
 16 17  1  0
 18 20  1  0
 18 16  1  0
 18 19  1  1
 20 21  1  0
 22 20  2  0
M  END
$$$$
