SNV.pdb
     RDKit          3D

 22 21  0  0  1  0  0  0  0  0999 V2000
   -0.6023  -19.9248   24.1127 O   0  0  0  0  0  0  0  0  0  0  0  0
   -0.2411  -19.8635   22.7690 C   0  0  0  0  0  0  0  0  0  0  0  0
   -0.4667  -21.2295   22.1743 C   0  0  2  0  0  0  0  0  0  0  0  0
   -1.7726  -21.6878   22.5634 N   0  0  0  0  0  0  0  0  0  0  0  0
    0.5224  -22.2226   22.6627 C   0  0  0  0  0  0  0  0  0  0  0  0
    0.2849  -23.0269   23.6067 O   0  0  0  0  0  0  0  0  0  0  0  0
    4.8272  -25.0835   22.6740 N   0  0  0  0  0  0  0  0  0  0  0  0
    4.8407  -24.3081   21.4842 C   0  0  0  0  0  0  0  0  0  0  0  0
    5.6724  -24.5367   20.5968 O   0  0  0  0  0  0  0  0  0  0  0  0
    3.8560  -23.2363   21.3267 C   0  0  0  0  0  0  0  0  0  0  0  0
    2.8432  -23.1697   22.4205 C   0  0  2  0  0  0  0  0  0  0  0  0
    1.7968  -22.2700   22.0378 N   0  0  0  0  0  0  0  0  0  0  0  0
    3.5563  -22.6751   23.6561 C   0  0  0  0  0  0  0  0  0  0  0  0
    3.7532  -21.4471   23.8263 O   0  0  0  0  0  0  0  0  0  0  0  0
    4.5740  -23.4506   28.3318 C   0  0  0  0  0  0  0  0  0  0  0  0
    3.8012  -23.7417   27.0688 C   0  0  2  0  0  0  0  0  0  0  0  0
    3.7335  -25.2619   26.9435 C   0  0  0  0  0  0  0  0  0  0  0  0
    4.5838  -23.2294   25.9109 C   0  0  2  0  0  0  0  0  0  0  0  0
    4.0095  -23.5992   24.6352 N   0  0  0  0  0  0  0  0  0  0  0  0
    6.0179  -23.6118   25.9314 C   0  0  0  0  0  0  0  0  0  0  0  0
    6.9589  -22.9802   26.7185 O   0  0  0  0  0  0  0  0  0  0  0  0
    6.4041  -24.5503   25.2042 O   0  0  0  0  0  0  0  0  0  0  0  0
  1  2  1  0
  3  4  1  1
  3  2  1  0
  3  5  1  0
  5 12  1  0
  5  6  2  0
  8  9  2  0
  8  7  1  0
 10  8  1  0
 11 10  1  6
 11 13  1  0
 12 11  1  0
 13 14  2  0
 13 19  1  0
 16 15  1  1
 16 17  1  0
 18 20  1  0
 18 16  1  0
 18 19  1  6
 20 21  1  0
 22 20  2  0
M  END
$$$$
