SNV.pdb
     RDKit          3D

 22 21  0  0  1  0  0  0  0  0999 V2000
    6.9675  -15.2061   18.7581 O   0  0  0  0  0  0  0  0  0  0  0  0
    7.1767  -13.8433   18.9545 C   0  0  0  0  0  0  0  0  0  0  0  0
    8.2633  -13.6939   19.9877 C   0  0  2  0  0  0  0  0  0  0  0  0
    9.4329  -14.3905   19.5255 N   0  0  0  0  0  0  0  0  0  0  0  0
    7.8771  -14.2816   21.2948 C   0  0  0  0  0  0  0  0  0  0  0  0
    6.8336  -13.9458   21.9215 O   0  0  0  0  0  0  0  0  0  0  0  0
    9.8574  -18.5991   21.3245 N   0  0  0  0  0  0  0  0  0  0  0  0
    8.9042  -18.1585   22.2807 C   0  0  0  0  0  0  0  0  0  0  0  0
    7.7640  -18.6395   22.2962 O   0  0  0  0  0  0  0  0  0  0  0  0
    9.2932  -17.1279   23.2450 C   0  0  0  0  0  0  0  0  0  0  0  0
    8.4990  -15.8683   23.1488 C   0  0  2  0  0  0  0  0  0  0  0  0
    8.7222  -15.2689   21.8675 N   0  0  0  0  0  0  0  0  0  0  0  0
    8.9701  -14.9606   24.2597 C   0  0  0  0  0  0  0  0  0  0  0  0
   10.1470  -14.5240   24.2663 O   0  0  0  0  0  0  0  0  0  0  0  0
    6.0625  -13.3959   26.9539 C   0  0  0  0  0  0  0  0  0  0  0  0
    7.3420  -12.6685   26.6207 C   0  0  2  0  0  0  0  0  0  0  0  0
    7.0931  -11.9359   25.3044 C   0  0  0  0  0  0  0  0  0  0  0  0
    8.4074  -13.6793   26.3784 C   0  0  2  0  0  0  0  0  0  0  0  0
    8.0817  -14.5947   25.3060 N   0  0  0  0  0  0  0  0  0  0  0  0
    8.7932  -14.4548   27.5837 C   0  0  0  0  0  0  0  0  0  0  0  0
    9.3892  -13.8867   28.6910 O   0  0  0  0  0  0  0  0  0  0  0  0
    8.5724  -15.6834   27.6087 O   0  0  0  0  0  0  0  0  0  0  0  0
  1  2  1  0
  3  4  1  6
  3  2  1  0
  3  5  1  0
  5 12  1  0
  5  6  2  0
  8  9  2  0
  8  7  1  0
 10  8  1  0
 11 10  1  6
 11 13  1  0
 12 11  1  0
 13 14  2  0
 13 19  1  0
 16 15  1  6
 16 17  1  0
 18 20  1  0
 18 16  1  0
 18 19  1  6
 20 21  1  0
 22 20  2  0
M  END
$$$$
