SNV.pdb
     RDKit          3D

 22 21  0  0  1  0  0  0  0  0999 V2000
    9.9090  -12.2421   19.5012 O   0  0  0  0  0  0  0  0  0  0  0  0
    9.8561  -13.6207   19.6915 C   0  0  0  0  0  0  0  0  0  0  0  0
    8.4230  -14.0502   19.5123 C   0  0  2  0  0  0  0  0  0  0  0  0
    7.7291  -13.0311   18.7729 N   0  0  0  0  0  0  0  0  0  0  0  0
    7.7231  -14.2194   20.8103 C   0  0  0  0  0  0  0  0  0  0  0  0
    6.8543  -13.4086   21.2371 O   0  0  0  0  0  0  0  0  0  0  0  0
    7.3168  -18.6056   21.1076 N   0  0  0  0  0  0  0  0  0  0  0  0
    6.6485  -17.8760   22.1265 C   0  0  0  0  0  0  0  0  0  0  0  0
    5.4130  -17.8847   22.1957 O   0  0  0  0  0  0  0  0  0  0  0  0
    7.4452  -17.1153   23.0909 C   0  0  0  0  0  0  0  0  0  0  0  0
    7.4300  -15.6398   22.8690 C   0  0  2  0  0  0  0  0  0  0  0  0
    8.0466  -15.3476   21.6100 N   0  0  0  0  0  0  0  0  0  0  0  0
    8.1996  -15.0120   24.0063 C   0  0  0  0  0  0  0  0  0  0  0  0
    9.4547  -15.0325   24.0108 O   0  0  0  0  0  0  0  0  0  0  0  0
    6.0115  -12.9851   27.1009 C   0  0  0  0  0  0  0  0  0  0  0  0
    7.3809  -12.5292   26.6603 C   0  0  2  0  0  0  0  0  0  0  0  0
    7.1660  -11.6141   25.4570 C   0  0  0  0  0  0  0  0  0  0  0  0
    8.1430  -13.7183   26.1905 C   0  0  2  0  0  0  0  0  0  0  0  0
    7.5057  -14.3931   25.0803 N   0  0  0  0  0  0  0  0  0  0  0  0
    8.4432  -14.7063   27.2567 C   0  0  0  0  0  0  0  0  0  0  0  0
    9.2734  -14.4381   28.3257 O   0  0  0  0  0  0  0  0  0  0  0  0
    7.9245  -15.8403   27.1940 O   0  0  0  0  0  0  0  0  0  0  0  0
  1  2  1  0
  3  4  1  6
  3  2  1  0
  3  5  1  0
  5 12  1  0
  5  6  2  0
  8  9  2  0
  8  7  1  0
 10  8  1  0
 11 10  1  1
 11 13  1  0
 12 11  1  0
 13 14  2  0
 13 19  1  0
 16 15  1  6
 16 17  1  0
 18 20  1  0
 18 16  1  0
 18 19  1  6
 20 21  1  0
 22 20  2  0
M  END
$$$$
