SNV.pdb
     RDKit          3D

 22 21  0  0  1  0  0  0  0  0999 V2000
    7.0342  -14.2684   18.4861 O   0  0  0  0  0  0  0  0  0  0  0  0
    7.3553  -12.9525   18.8101 C   0  0  0  0  0  0  0  0  0  0  0  0
    8.4534  -12.9925   19.8411 C   0  0  2  0  0  0  0  0  0  0  0  0
    9.5667  -13.7203   19.2957 N   0  0  0  0  0  0  0  0  0  0  0  0
    8.0291  -13.6847   21.0838 C   0  0  0  0  0  0  0  0  0  0  0  0
    7.0132  -13.3435   21.7517 O   0  0  0  0  0  0  0  0  0  0  0  0
    7.7548  -18.3151   21.3619 N   0  0  0  0  0  0  0  0  0  0  0  0
    8.9947  -17.6329   21.4819 C   0  0  0  0  0  0  0  0  0  0  0  0
    9.8454  -17.7174   20.5871 O   0  0  0  0  0  0  0  0  0  0  0  0
    9.2479  -16.8300   22.6797 C   0  0  0  0  0  0  0  0  0  0  0  0
    8.5004  -15.5393   22.7209 C   0  0  2  0  0  0  0  0  0  0  0  0
    8.8032  -14.7832   21.5430 N   0  0  0  0  0  0  0  0  0  0  0  0
    8.9477  -14.8067   23.9632 C   0  0  0  0  0  0  0  0  0  0  0  0
   10.1312  -14.4021   24.0697 O   0  0  0  0  0  0  0  0  0  0  0  0
    5.9808  -13.4888   26.6872 C   0  0  0  0  0  0  0  0  0  0  0  0
    7.3263  -12.8152   26.5730 C   0  0  2  0  0  0  0  0  0  0  0  0
    7.2316  -11.8575   25.3875 C   0  0  0  0  0  0  0  0  0  0  0  0
    8.3421  -13.8494   26.2356 C   0  0  2  0  0  0  0  0  0  0  0  0
    8.0292  -14.5709   25.0209 N   0  0  0  0  0  0  0  0  0  0  0  0
    8.6052  -14.8200   27.3273 C   0  0  0  0  0  0  0  0  0  0  0  0
    9.1483  -14.4621   28.5442 O   0  0  0  0  0  0  0  0  0  0  0  0
    8.3252  -16.0233   27.1474 O   0  0  0  0  0  0  0  0  0  0  0  0
  1  2  1  0
  3  4  1  6
  3  2  1  0
  3  5  1  0
  5 12  1  0
  5  6  2  0
  8  9  2  0
  8  7  1  0
 10  8  1  0
 11 10  1  6
 11 13  1  0
 12 11  1  0
 13 14  2  0
 13 19  1  0
 16 15  1  6
 16 17  1  0
 18 20  1  0
 18 16  1  0
 18 19  1  6
 20 21  1  0
 22 20  2  0
M  END
$$$$
