SNV.pdb
     RDKit          3D

 22 21  0  0  1  0  0  0  0  0999 V2000
    8.4460  -18.0038   19.0016 O   0  0  0  0  0  0  0  0  0  0  0  0
    8.1199  -16.6769   18.7321 C   0  0  0  0  0  0  0  0  0  0  0  0
    8.8391  -15.8177   19.7396 C   0  0  2  0  0  0  0  0  0  0  0  0
   10.2335  -16.1672   19.7264 N   0  0  0  0  0  0  0  0  0  0  0  0
    8.3348  -16.0321   21.1191 C   0  0  0  0  0  0  0  0  0  0  0  0
    7.1216  -15.8933   21.4401 O   0  0  0  0  0  0  0  0  0  0  0  0
   10.6367  -19.6593   22.6841 N   0  0  0  0  0  0  0  0  0  0  0  0
    9.5691  -19.0621   23.4057 C   0  0  0  0  0  0  0  0  0  0  0  0
    8.4799  -19.6408   23.5064 O   0  0  0  0  0  0  0  0  0  0  0  0
    9.7794  -17.7529   24.0264 C   0  0  0  0  0  0  0  0  0  0  0  0
    8.9034  -16.6719   23.4875 C   0  0  2  0  0  0  0  0  0  0  0  0
    9.2620  -16.4116   22.1257 N   0  0  0  0  0  0  0  0  0  0  0  0
    9.1250  -15.4508   24.3476 C   0  0  0  0  0  0  0  0  0  0  0  0
   10.2310  -14.8575   24.3342 O   0  0  0  0  0  0  0  0  0  0  0  0
    6.4972  -12.5373   24.7197 C   0  0  0  0  0  0  0  0  0  0  0  0
    6.8659  -13.0476   26.0911 C   0  0  2  0  0  0  0  0  0  0  0  0
    7.0907  -11.8159   26.9651 C   0  0  0  0  0  0  0  0  0  0  0  0
    8.1631  -13.7702   25.9901 C   0  0  2  0  0  0  0  0  0  0  0  0
    8.0801  -14.9656   25.1789 N   0  0  0  0  0  0  0  0  0  0  0  0
    8.7722  -14.1093   27.3005 C   0  0  0  0  0  0  0  0  0  0  0  0
    8.9954  -15.4050   27.7193 O   0  0  0  0  0  0  0  0  0  0  0  0
    9.1033  -13.1844   28.0711 O   0  0  0  0  0  0  0  0  0  0  0  0
  1  2  1  0
  3  4  1  1
  3  2  1  0
  3  5  1  0
  5 12  1  0
  5  6  2  0
  8  9  2  0
  8  7  1  0
 10  8  1  0
 11 10  1  1
 11 13  1  0
 12 11  1  0
 13 14  2  0
 13 19  1  0
 16 15  1  6
 16 17  1  0
 18 20  1  0
 18 16  1  0
 18 19  1  1
 20 21  1  0
 22 20  2  0
M  END
$$$$
