SNV.pdb
     RDKit          3D

 22 21  0  0  1  0  0  0  0  0999 V2000
    8.9756  -12.4034   18.0981 O   0  0  0  0  0  0  0  0  0  0  0  0
    8.3518  -12.7879   19.2824 C   0  0  0  0  0  0  0  0  0  0  0  0
    8.3066  -14.2938   19.3051 C   0  0  2  0  0  0  0  0  0  0  0  0
    7.2714  -14.7340   18.4099 N   0  0  0  0  0  0  0  0  0  0  0  0
    7.9893  -14.8238   20.6548 C   0  0  0  0  0  0  0  0  0  0  0  0
    6.8125  -14.9066   21.1049 O   0  0  0  0  0  0  0  0  0  0  0  0
   10.4916  -18.6660   21.2826 N   0  0  0  0  0  0  0  0  0  0  0  0
    9.5646  -18.1669   22.2358 C   0  0  0  0  0  0  0  0  0  0  0  0
    8.5031  -18.7657   22.4504 O   0  0  0  0  0  0  0  0  0  0  0  0
    9.8863  -16.9348   22.9582 C   0  0  0  0  0  0  0  0  0  0  0  0
    8.8888  -15.8401   22.7761 C   0  0  2  0  0  0  0  0  0  0  0  0
    9.0612  -15.2584   21.4789 N   0  0  0  0  0  0  0  0  0  0  0  0
    9.1428  -14.8228   23.8626 C   0  0  0  0  0  0  0  0  0  0  0  0
   10.1835  -14.1212   23.8443 O   0  0  0  0  0  0  0  0  0  0  0  0
    7.2328  -11.6923   26.9923 C   0  0  0  0  0  0  0  0  0  0  0  0
    7.0324  -12.7808   25.9665 C   0  0  2  0  0  0  0  0  0  0  0  0
    5.9039  -13.6662   26.4900 C   0  0  0  0  0  0  0  0  0  0  0  0
    8.2673  -13.6100   25.9144 C   0  0  2  0  0  0  0  0  0  0  0  0
    8.2029  -14.6539   24.9144 N   0  0  0  0  0  0  0  0  0  0  0  0
    8.6542  -14.2045   27.2183 C   0  0  0  0  0  0  0  0  0  0  0  0
    8.7607  -15.5640   27.4289 O   0  0  0  0  0  0  0  0  0  0  0  0
    8.8979  -13.4466   28.1801 O   0  0  0  0  0  0  0  0  0  0  0  0
  1  2  1  0
  3  4  1  6
  3  2  1  0
  3  5  1  0
  5 12  1  0
  5  6  2  0
  8  9  2  0
  8  7  1  0
 10  8  1  0
 11 10  1  1
 11 13  1  0
 12 11  1  0
 13 14  2  0
 13 19  1  0
 16 15  1  1
 16 17  1  0
 18 20  1  0
 18 16  1  0
 18 19  1  6
 20 21  1  0
 22 20  2  0
M  END
$$$$
