SNV.pdb
     RDKit          3D

 22 21  0  0  1  0  0  0  0  0999 V2000
    7.9321  -12.7613   16.1412 O   0  0  0  0  0  0  0  0  0  0  0  0
    8.5859  -13.5232   17.1064 C   0  0  0  0  0  0  0  0  0  0  0  0
    9.4961  -14.4849   16.3875 C   0  0  2  0  0  0  0  0  0  0  0  0
    8.6877  -15.3948   15.6225 N   0  0  0  0  0  0  0  0  0  0  0  0
   10.3132  -15.2915   17.3284 C   0  0  0  0  0  0  0  0  0  0  0  0
    9.9626  -16.4304   17.7458 O   0  0  0  0  0  0  0  0  0  0  0  0
   14.4085  -17.1105   16.9475 N   0  0  0  0  0  0  0  0  0  0  0  0
   14.3291  -15.6951   17.0339 C   0  0  0  0  0  0  0  0  0  0  0  0
   14.6557  -14.9894   16.0713 O   0  0  0  0  0  0  0  0  0  0  0  0
   13.8551  -15.0875   18.2787 C   0  0  0  0  0  0  0  0  0  0  0  0
   12.4549  -15.4516   18.6434 C   0  0  2  0  0  0  0  0  0  0  0  0
   11.5484  -14.7558   17.7804 N   0  0  0  0  0  0  0  0  0  0  0  0
   12.2509  -15.0442   20.0830 C   0  0  0  0  0  0  0  0  0  0  0  0
   12.7478  -13.9761   20.5167 O   0  0  0  0  0  0  0  0  0  0  0  0
    9.2088  -16.9919   22.2570 C   0  0  0  0  0  0  0  0  0  0  0  0
    9.6814  -15.5951   22.5775 C   0  0  2  0  0  0  0  0  0  0  0  0
    8.9906  -14.6655   21.5825 C   0  0  0  0  0  0  0  0  0  0  0  0
   11.1453  -15.5236   22.3180 C   0  0  2  0  0  0  0  0  0  0  0  0
   11.4935  -15.8695   20.9567 N   0  0  0  0  0  0  0  0  0  0  0  0
   11.9673  -16.3311   23.2536 C   0  0  0  0  0  0  0  0  0  0  0  0
   12.1125  -16.0254   24.5913 O   0  0  0  0  0  0  0  0  0  0  0  0
   12.5619  -17.3398   22.8203 O   0  0  0  0  0  0  0  0  0  0  0  0
  1  2  1  0
  3  4  1  1
  3  2  1  0
  3  5  1  0
  5 12  1  0
  5  6  2  0
  8  9  2  0
  8  7  1  0
 10  8  1  0
 11 10  1  6
 11 13  1  0
 12 11  1  0
 13 14  2  0
 13 19  1  0
 16 15  1  6
 16 17  1  0
 18 20  1  0
 18 16  1  0
 18 19  1  6
 20 21  1  0
 22 20  2  0
M  END
$$$$
