SNV.pdb
     RDKit          3D

 22 21  0  0  1  0  0  0  0  0999 V2000
    8.5432  -12.3174   18.6047 O   0  0  0  0  0  0  0  0  0  0  0  0
    7.9335  -12.8403   19.7424 C   0  0  0  0  0  0  0  0  0  0  0  0
    8.1941  -14.3243   19.7572 C   0  0  2  0  0  0  0  0  0  0  0  0
    7.3065  -14.9540   18.8179 N   0  0  0  0  0  0  0  0  0  0  0  0
    7.9372  -14.9242   21.0904 C   0  0  0  0  0  0  0  0  0  0  0  0
    6.7828  -15.2356   21.4965 O   0  0  0  0  0  0  0  0  0  0  0  0
    8.7188  -18.9211   22.7041 N   0  0  0  0  0  0  0  0  0  0  0  0
    9.7615  -18.0021   22.4121 C   0  0  0  0  0  0  0  0  0  0  0  0
   10.4707  -18.1568   21.4098 O   0  0  0  0  0  0  0  0  0  0  0  0
    9.9820  -16.8714   23.3156 C   0  0  0  0  0  0  0  0  0  0  0  0
    8.9437  -15.8036   23.2247 C   0  0  2  0  0  0  0  0  0  0  0  0
    9.0431  -15.1588   21.9499 N   0  0  0  0  0  0  0  0  0  0  0  0
    9.2107  -14.8282   24.3460 C   0  0  0  0  0  0  0  0  0  0  0  0
   10.3494  -14.3190   24.4863 O   0  0  0  0  0  0  0  0  0  0  0  0
    5.9429  -13.5564   26.8062 C   0  0  0  0  0  0  0  0  0  0  0  0
    7.1818  -12.7143   26.6237 C   0  0  2  0  0  0  0  0  0  0  0  0
    6.9752  -11.9130   25.3406 C   0  0  0  0  0  0  0  0  0  0  0  0
    8.3395  -13.6237   26.4046 C   0  0  2  0  0  0  0  0  0  0  0  0
    8.1720  -14.4806   25.2506 N   0  0  0  0  0  0  0  0  0  0  0  0
    8.6905  -14.4538   27.5839 C   0  0  0  0  0  0  0  0  0  0  0  0
    9.1353  -13.9239   28.7777 O   0  0  0  0  0  0  0  0  0  0  0  0
    8.5819  -15.6951   27.5037 O   0  0  0  0  0  0  0  0  0  0  0  0
  1  2  1  0
  3  4  1  6
  3  2  1  0
  3  5  1  0
  5 12  1  0
  5  6  2  0
  8  9  2  0
  8  7  1  0
 10  8  1  0
 11 10  1  6
 11 13  1  0
 12 11  1  0
 13 14  2  0
 13 19  1  0
 16 15  1  6
 16 17  1  0
 18 20  1  0
 18 16  1  0
 18 19  1  6
 20 21  1  0
 22 20  2  0
M  END
$$$$
