SNV.pdb
     RDKit          3D

 22 21  0  0  1  0  0  0  0  0999 V2000
   10.7215  -15.7853   18.7875 O   0  0  0  0  0  0  0  0  0  0  0  0
    9.7499  -15.4235   19.7175 C   0  0  0  0  0  0  0  0  0  0  0  0
    8.9103  -16.6431   19.9964 C   0  0  2  0  0  0  0  0  0  0  0  0
    8.0233  -16.8519   18.8845 N   0  0  0  0  0  0  0  0  0  0  0  0
    8.0757  -16.4814   21.2132 C   0  0  0  0  0  0  0  0  0  0  0  0
    6.8787  -16.0808   21.1813 O   0  0  0  0  0  0  0  0  0  0  0  0
    6.2057  -17.3978   25.9794 N   0  0  0  0  0  0  0  0  0  0  0  0
    7.4795  -17.9947   25.7838 C   0  0  0  0  0  0  0  0  0  0  0  0
    8.0877  -18.4996   26.7360 O   0  0  0  0  0  0  0  0  0  0  0  0
    8.0589  -18.0021   24.4393 C   0  0  0  0  0  0  0  0  0  0  0  0
    7.9509  -16.6999   23.7189 C   0  0  2  0  0  0  0  0  0  0  0  0
    8.6518  -16.7923   22.4735 N   0  0  0  0  0  0  0  0  0  0  0  0
    8.5674  -15.6476   24.6092 C   0  0  0  0  0  0  0  0  0  0  0  0
    9.8126  -15.5921   24.7576 O   0  0  0  0  0  0  0  0  0  0  0  0
    5.9834  -13.0052   26.8464 C   0  0  0  0  0  0  0  0  0  0  0  0
    7.3025  -12.5255   26.2922 C   0  0  2  0  0  0  0  0  0  0  0  0
    7.0230  -12.0345   24.8737 C   0  0  0  0  0  0  0  0  0  0  0  0
    8.2215  -13.6920   26.1915 C   0  0  2  0  0  0  0  0  0  0  0  0
    7.7393  -14.7122   25.2856 N   0  0  0  0  0  0  0  0  0  0  0  0
    8.5564  -14.3148   27.4965 C   0  0  0  0  0  0  0  0  0  0  0  0
    9.2447  -13.6568   28.4951 O   0  0  0  0  0  0  0  0  0  0  0  0
    8.2030  -15.4925   27.7131 O   0  0  0  0  0  0  0  0  0  0  0  0
  1  2  1  0
  3  4  1  6
  3  2  1  0
  3  5  1  0
  5 12  1  0
  5  6  2  0
  8  9  2  0
  8  7  1  0
 10  8  1  0
 11 10  1  1
 11 13  1  0
 12 11  1  0
 13 14  2  0
 13 19  1  0
 16 15  1  6
 16 17  1  0
 18 20  1  0
 18 16  1  0
 18 19  1  6
 20 21  1  0
 22 20  2  0
M  END
$$$$
