SNV.pdb
     RDKit          3D

 22 21  0  0  1  0  0  0  0  0999 V2000
    8.8267  -16.1602   18.8083 O   0  0  0  0  0  0  0  0  0  0  0  0
    7.9221  -15.7446   19.7822 C   0  0  0  0  0  0  0  0  0  0  0  0
    7.4857  -16.9661   20.5490 C   0  0  2  0  0  0  0  0  0  0  0  0
    6.3954  -17.5834   19.8441 N   0  0  0  0  0  0  0  0  0  0  0  0
    7.0060  -16.6289   21.9126 C   0  0  0  0  0  0  0  0  0  0  0  0
    5.9104  -16.0413   22.1335 O   0  0  0  0  0  0  0  0  0  0  0  0
    5.8986  -19.0046   23.9598 N   0  0  0  0  0  0  0  0  0  0  0  0
    6.9006  -19.1071   24.9611 C   0  0  0  0  0  0  0  0  0  0  0  0
    7.0185  -20.1444   25.6255 O   0  0  0  0  0  0  0  0  0  0  0  0
    7.7891  -17.9668   25.1927 C   0  0  0  0  0  0  0  0  0  0  0  0
    7.4540  -16.7561   24.3875 C   0  0  2  0  0  0  0  0  0  0  0  0
    7.8188  -16.9844   23.0216 N   0  0  0  0  0  0  0  0  0  0  0  0
    8.2372  -15.6044   24.9707 C   0  0  0  0  0  0  0  0  0  0  0  0
    9.4462  -15.4442   24.6737 O   0  0  0  0  0  0  0  0  0  0  0  0
    6.2213  -12.8739   27.6051 C   0  0  0  0  0  0  0  0  0  0  0  0
    7.2902  -12.3999   26.6511 C   0  0  2  0  0  0  0  0  0  0  0  0
    6.5895  -12.1094   25.3259 C   0  0  0  0  0  0  0  0  0  0  0  0
    8.2433  -13.5194   26.4200 C   0  0  2  0  0  0  0  0  0  0  0  0
    7.6083  -14.6934   25.8611 N   0  0  0  0  0  0  0  0  0  0  0  0
    9.0232  -13.9097   27.6210 C   0  0  0  0  0  0  0  0  0  0  0  0
    9.8757  -13.0499   28.2828 O   0  0  0  0  0  0  0  0  0  0  0  0
    8.9106  -15.0716   28.0641 O   0  0  0  0  0  0  0  0  0  0  0  0
  1  2  1  0
  3  4  1  6
  3  2  1  0
  3  5  1  0
  5 12  1  0
  5  6  2  0
  8  9  2  0
  8  7  1  0
 10  8  1  0
 11 10  1  1
 11 13  1  0
 12 11  1  0
 13 14  2  0
 13 19  1  0
 16 15  1  1
 16 17  1  0
 18 20  1  0
 18 16  1  0
 18 19  1  1
 20 21  1  0
 22 20  2  0
M  END
$$$$
