MHD.pdb
     RDKit          3D

 27 27  0  0  1  0  0  0  0  0999 V2000
   24.8436  -21.7221   -7.5516 C   0  0  0  0  0  0  0  0  0  0  0  0
   25.3015  -21.2688   -9.2337 S   0  0  0  0  0  0  0  0  0  0  0  0
   26.6757  -20.1335   -9.3597 C   0  0  0  0  0  0  0  0  0  0  0  0
   26.8847  -19.5924  -10.7216 C   0  0  0  0  0  0  0  0  0  0  0  0
   26.9736  -20.6014  -11.8196 C   0  0  2  0  0  0  0  0  0  0  0  0
   28.3563  -20.9429  -12.1037 N   0  0  0  0  0  0  0  0  0  0  0  0
   26.4161  -19.9263  -13.0576 C   0  0  0  0  0  0  0  0  0  0  0  0
   26.9332  -18.8272  -13.3577 O   0  0  0  0  0  0  0  0  0  0  0  0
   25.3833  -20.4819  -13.8346 N   0  0  0  0  0  0  0  0  0  0  0  0
   24.8849  -19.7128  -14.9988 C   0  0  1  0  0  0  0  0  0  0  0  0
   25.3288  -20.4345  -16.2248 C   0  0  0  0  0  0  0  0  0  0  0  0
   24.9935  -19.7547  -17.4847 C   0  0  0  0  0  0  0  0  0  0  0  0
   25.6909  -18.8590  -18.2257 C   0  0  0  0  0  0  0  0  0  0  0  0
   24.9637  -18.5927  -19.3400 N   0  0  0  0  0  0  0  0  0  0  0  0
   23.8372  -19.2988  -19.3103 C   0  0  0  0  0  0  0  0  0  0  0  0
   23.8464  -20.0035  -18.1942 N   0  0  0  0  0  0  0  0  0  0  0  0
   23.3838  -19.8171  -14.9495 C   0  0  0  0  0  0  0  0  0  0  0  0
   22.7521  -20.7977  -14.5330 O   0  0  0  0  0  0  0  0  0  0  0  0
   22.5524  -18.7250  -15.4085 N   0  0  0  0  0  0  0  0  0  0  0  0
   21.1078  -18.7655  -15.3291 C   0  0  1  0  0  0  0  0  0  0  0  0
   20.5523  -17.5716  -14.5860 C   0  0  0  0  0  0  0  0  0  0  0  0
   19.0934  -17.6207  -14.4336 C   0  0  0  0  0  0  0  0  0  0  0  0
   18.5945  -18.5226  -13.7170 O   0  0  0  0  0  0  0  0  0  0  0  0
   20.4772  -18.9738  -16.6331 C   0  0  0  0  0  0  0  0  0  0  0  0
   20.5560  -18.1189  -17.5430 O   0  0  0  0  0  0  0  0  0  0  0  0
   18.2174  -16.7307  -15.0322 O   0  0  0  0  0  0  0  0  0  0  0  0
   19.7721  -20.1344  -16.8906 O   0  0  0  0  0  0  0  0  0  0  0  0
  2  1  1  0
  3  2  1  0
  4  3  1  0
  4  5  1  0
  5  7  1  0
  5  6  1  6
  7  8  2  0
  9 10  1  0
  9  7  1  0
 11 12  1  0
 10 11  1  6
 12 13  2  0
 14 13  1  0
 15 14  1  0
 16 15  2  0
 16 12  1  0
 17 18  2  0
 17 10  1  0
 19 17  1  0
 20 24  1  0
 20 19  1  0
 20 21  1  6
 22 21  1  0
 23 22  2  0
 24 27  1  0
 25 24  2  0
 26 22  1  0
M  END
$$$$
