MHD.pdb
     RDKit          3D

 27 27  0  0  1  0  0  0  0  0999 V2000
   24.7828  -19.8420   -9.1057 C   0  0  0  0  0  0  0  0  0  0  0  0
   26.2606  -20.8172   -9.4367 S   0  0  0  0  0  0  0  0  0  0  0  0
   26.8271  -20.7742  -11.1308 C   0  0  0  0  0  0  0  0  0  0  0  0
   25.7372  -20.6597  -12.1259 C   0  0  0  0  0  0  0  0  0  0  0  0
   25.0963  -21.9428  -12.5443 C   0  0  2  0  0  0  0  0  0  0  0  0
   26.0004  -22.7366  -13.3576 N   0  0  0  0  0  0  0  0  0  0  0  0
   23.9225  -21.5594  -13.4243 C   0  0  0  0  0  0  0  0  0  0  0  0
   24.1983  -21.3001  -14.6169 O   0  0  0  0  0  0  0  0  0  0  0  0
   22.5993  -21.4929  -12.9515 N   0  0  0  0  0  0  0  0  0  0  0  0
   21.5147  -21.2286  -13.9259 C   0  0  1  0  0  0  0  0  0  0  0  0
   20.3683  -22.1062  -13.5559 C   0  0  0  0  0  0  0  0  0  0  0  0
   20.4923  -23.4955  -14.0211 C   0  0  0  0  0  0  0  0  0  0  0  0
   21.4600  -24.1083  -14.7461 C   0  0  0  0  0  0  0  0  0  0  0  0
   21.1301  -25.4208  -14.8454 N   0  0  0  0  0  0  0  0  0  0  0  0
   19.9869  -25.6378  -14.2017 C   0  0  0  0  0  0  0  0  0  0  0  0
   19.5944  -24.4814  -13.7005 N   0  0  0  0  0  0  0  0  0  0  0  0
   21.0763  -19.8095  -13.6796 C   0  0  0  0  0  0  0  0  0  0  0  0
   21.1724  -19.2127  -12.5986 O   0  0  0  0  0  0  0  0  0  0  0  0
   20.4886  -19.0234  -14.7432 N   0  0  0  0  0  0  0  0  0  0  0  0
   20.0145  -17.6718  -14.5354 C   0  0  1  0  0  0  0  0  0  0  0  0
   20.1329  -16.8359  -15.7898 C   0  0  0  0  0  0  0  0  0  0  0  0
   19.5335  -15.5037  -15.6483 C   0  0  0  0  0  0  0  0  0  0  0  0
   19.2096  -15.1096  -14.5012 O   0  0  0  0  0  0  0  0  0  0  0  0
   18.6779  -17.6283  -13.9411 C   0  0  0  0  0  0  0  0  0  0  0  0
   18.3572  -16.7467  -13.1136 O   0  0  0  0  0  0  0  0  0  0  0  0
   19.2971  -14.6399  -16.7046 O   0  0  0  0  0  0  0  0  0  0  0  0
   17.7292  -18.5726  -14.2858 O   0  0  0  0  0  0  0  0  0  0  0  0
  2  1  1  0
  3  2  1  0
  4  3  1  0
  4  5  1  0
  5  7  1  0
  5  6  1  6
  7  8  2  0
  9 10  1  0
  9  7  1  0
 11 12  1  0
 10 11  1  1
 12 13  2  0
 14 13  1  0
 15 14  1  0
 16 15  2  0
 16 12  1  0
 17 18  2  0
 17 10  1  0
 19 17  1  0
 20 24  1  0
 20 19  1  0
 20 21  1  6
 22 21  1  0
 23 22  2  0
 24 27  1  0
 25 24  2  0
 26 22  1  0
M  END
$$$$
