MHD.pdb
     RDKit          3D

 27 27  0  0  1  0  0  0  0  0999 V2000
   25.6353   -9.5190  -20.7103 C   0  0  0  0  0  0  0  0  0  0  0  0
   24.4581   -9.0719  -19.4224 S   0  0  0  0  0  0  0  0  0  0  0  0
   22.8969   -8.4376  -20.0168 C   0  0  0  0  0  0  0  0  0  0  0  0
   21.9524   -8.0618  -18.9407 C   0  0  0  0  0  0  0  0  0  0  0  0
   22.3121   -8.5207  -17.5652 C   0  0  2  0  0  0  0  0  0  0  0  0
   21.8805   -9.8893  -17.3423 N   0  0  0  0  0  0  0  0  0  0  0  0
   21.5271   -7.6429  -16.6100 C   0  0  0  0  0  0  0  0  0  0  0  0
   20.3016   -7.8827  -16.5328 O   0  0  0  0  0  0  0  0  0  0  0  0
   22.1182   -6.6180  -15.8490 N   0  0  0  0  0  0  0  0  0  0  0  0
   21.2748   -5.8874  -14.8741 C   0  0  1  0  0  0  0  0  0  0  0  0
   21.9592   -5.9694  -13.5527 C   0  0  0  0  0  0  0  0  0  0  0  0
   21.6090   -7.1573  -12.7602 C   0  0  0  0  0  0  0  0  0  0  0  0
   20.8478   -8.2372  -13.0639 C   0  0  0  0  0  0  0  0  0  0  0  0
   20.8989   -9.0864  -12.0067 N   0  0  0  0  0  0  0  0  0  0  0  0
   21.6707   -8.5635  -11.0583 C   0  0  0  0  0  0  0  0  0  0  0  0
   22.1041   -7.3992  -11.5042 N   0  0  0  0  0  0  0  0  0  0  0  0
   21.3128   -4.4431  -15.2974 C   0  0  0  0  0  0  0  0  0  0  0  0
   22.3207   -3.8458  -15.6994 O   0  0  0  0  0  0  0  0  0  0  0  0
   20.1161   -3.6301  -15.2564 N   0  0  0  0  0  0  0  0  0  0  0  0
   20.0873   -2.2697  -15.7494 C   0  0  1  0  0  0  0  0  0  0  0  0
   20.4293   -2.1979  -17.2205 C   0  0  0  0  0  0  0  0  0  0  0  0
   20.3036   -0.8435  -17.7717 C   0  0  0  0  0  0  0  0  0  0  0  0
   19.9975    0.0947  -16.9957 O   0  0  0  0  0  0  0  0  0  0  0  0
   18.8434   -1.5752  -15.4151 C   0  0  0  0  0  0  0  0  0  0  0  0
   18.7341   -0.3344  -15.5314 O   0  0  0  0  0  0  0  0  0  0  0  0
   20.5013   -0.5236  -19.1045 O   0  0  0  0  0  0  0  0  0  0  0  0
   17.7486   -2.2843  -14.9579 O   0  0  0  0  0  0  0  0  0  0  0  0
  2  1  1  0
  3  2  1  0
  4  3  1  0
  4  5  1  0
  5  7  1  0
  5  6  1  6
  7  8  2  0
  9 10  1  0
  9  7  1  0
 11 12  1  0
 10 11  1  1
 12 13  2  0
 14 13  1  0
 15 14  1  0
 16 15  2  0
 16 12  1  0
 17 18  2  0
 17 10  1  0
 19 17  1  0
 20 24  1  0
 20 19  1  0
 20 21  1  6
 22 21  1  0
 23 22  2  0
 24 27  1  0
 25 24  2  0
 26 22  1  0
M  END
$$$$
