WTP.pdb
     RDKit          3D

 29 31  0  0  1  0  0  0  0  0999 V2000
   25.1778  -21.8955  -13.3430 N   0  0  0  0  0  0  0  0  0  0  0  0
   24.9746  -21.0956  -12.1561 C   0  0  1  0  0  0  0  0  0  0  0  0
   23.5950  -21.2617  -11.5732 C   0  0  0  0  0  0  0  0  0  0  0  0
   22.5168  -20.8376  -12.4947 C   0  0  0  0  0  0  0  0  0  0  0  0
   21.2863  -21.4279  -12.6931 C   0  0  0  0  0  0  0  0  0  0  0  0
   20.6001  -20.7488  -13.6021 N   0  0  0  0  0  0  0  0  0  0  0  0
   21.3162  -19.7023  -14.0432 C   0  0  0  0  0  0  0  0  0  0  0  0
   21.0624  -18.7082  -14.9671 C   0  0  0  0  0  0  0  0  0  0  0  0
   21.9872  -17.7422  -15.2311 C   0  0  0  0  0  0  0  0  0  0  0  0
   23.1948  -17.7642  -14.5603 C   0  0  0  0  0  0  0  0  0  0  0  0
   23.4375  -18.7612  -13.6400 C   0  0  0  0  0  0  0  0  0  0  0  0
   22.5260  -19.7538  -13.3477 C   0  0  0  0  0  0  0  0  0  0  0  0
   25.9946  -21.4634  -11.1587 C   0  0  0  0  0  0  0  0  0  0  0  0
   26.2936  -22.6736  -10.9190 O   0  0  0  0  0  0  0  0  0  0  0  0
   29.5318  -20.7482  -11.0753 C   0  0  0  0  0  0  0  0  0  0  0  0
   28.9855  -20.1677   -9.7718 C   0  0  1  0  0  0  0  0  0  0  0  0
   28.7898  -18.8289   -9.9789 O   0  0  0  0  0  0  0  0  0  0  0  0
   27.6729  -20.8292   -9.4131 C   0  0  2  0  0  0  0  0  0  0  0  0
   26.6784  -20.4869  -10.4313 N   0  0  0  0  0  0  0  0  0  0  0  0
   27.2177  -20.3702   -8.0989 C   0  0  0  0  0  0  0  0  0  0  0  0
   26.0223  -19.9922   -8.0103 O   0  0  0  0  0  0  0  0  0  0  0  0
   28.0308  -20.3328   -6.9526 N   0  0  0  0  0  0  0  0  0  0  0  0
   29.4501  -20.7233   -7.0145 C   0  0  0  0  0  0  0  0  0  0  0  0
   29.7589  -21.2204   -5.6315 C   0  0  0  0  0  0  0  0  0  0  0  0
   28.4768  -21.0556   -4.8316 C   0  0  0  0  0  0  0  0  0  0  0  0
   27.8010  -19.9092   -5.5886 C   0  0  1  0  0  0  0  0  0  0  0  0
   28.5368  -18.6502   -5.2550 C   0  0  0  0  0  0  0  0  0  0  0  0
   29.2612  -18.1358   -6.1207 O   0  0  0  0  0  0  0  0  0  0  0  0
   28.4227  -18.0611   -4.0157 O   0  0  0  0  0  0  0  0  0  0  0  0
  2  1  1  6
  2  3  1  0
  2 13  1  0
  3  4  1  0
  4 12  1  0
  5  4  2  0
  5  6  1  0
  6  7  1  0
  7  8  1  0
  8  9  2  0
 10  9  1  0
 11 10  2  0
 12  7  2  0
 12 11  1  0
 13 19  1  0
 13 14  2  0
 16 15  1  6
 17 16  1  0
 18 16  1  0
 18 19  1  6
 20 18  1  0
 20 21  2  0
 22 20  1  0
 23 22  1  0
 24 25  1  0
 24 23  1  0
 25 26  1  0
 26 22  1  0
 26 27  1  6
 27 29  1  0
 28 27  2  0
M  END
$$$$
