WTP.pdb
     RDKit          3D

 29 31  0  0  1  0  0  0  0  0999 V2000
   26.9324  -21.9059   -9.6243 N   0  0  0  0  0  0  0  0  0  0  0  0
   26.2166  -20.6656   -9.4269 C   0  0  1  0  0  0  0  0  0  0  0  0
   27.0840  -19.5815   -8.8413 C   0  0  0  0  0  0  0  0  0  0  0  0
   28.1433  -20.1006   -7.9468 C   0  0  0  0  0  0  0  0  0  0  0  0
   29.1369  -21.0100   -8.2431 C   0  0  0  0  0  0  0  0  0  0  0  0
   29.8932  -21.2180   -7.1740 N   0  0  0  0  0  0  0  0  0  0  0  0
   29.4558  -20.4804   -6.1409 C   0  0  0  0  0  0  0  0  0  0  0  0
   29.8846  -20.3369   -4.8364 C   0  0  0  0  0  0  0  0  0  0  0  0
   29.2426  -19.4984   -3.9745 C   0  0  0  0  0  0  0  0  0  0  0  0
   28.1469  -18.7844   -4.4197 C   0  0  0  0  0  0  0  0  0  0  0  0
   27.7276  -18.9353   -5.7241 C   0  0  0  0  0  0  0  0  0  0  0  0
   28.3523  -19.7738   -6.6232 C   0  0  0  0  0  0  0  0  0  0  0  0
   25.6629  -20.2291  -10.7205 C   0  0  0  0  0  0  0  0  0  0  0  0
   25.1353  -19.0848  -10.8733 O   0  0  0  0  0  0  0  0  0  0  0  0
   27.5276  -20.4133  -13.9907 C   0  0  0  0  0  0  0  0  0  0  0  0
   26.1686  -21.0752  -14.2134 C   0  0  1  0  0  0  0  0  0  0  0  0
   26.3633  -22.4280  -14.1386 O   0  0  0  0  0  0  0  0  0  0  0  0
   25.1911  -20.6372  -13.1447 C   0  0  2  0  0  0  0  0  0  0  0  0
   25.6968  -21.0645  -11.8392 N   0  0  0  0  0  0  0  0  0  0  0  0
   23.8754  -21.2329  -13.3880 C   0  0  0  0  0  0  0  0  0  0  0  0
   23.6343  -22.3304  -12.8249 O   0  0  0  0  0  0  0  0  0  0  0  0
   22.8859  -20.6522  -14.2006 N   0  0  0  0  0  0  0  0  0  0  0  0
   23.2028  -19.5267  -15.0970 C   0  0  0  0  0  0  0  0  0  0  0  0
   21.9085  -18.7754  -15.2211 C   0  0  0  0  0  0  0  0  0  0  0  0
   20.8950  -19.5479  -14.3923 C   0  0  0  0  0  0  0  0  0  0  0  0
   21.4913  -20.9574  -14.4341 C   0  0  1  0  0  0  0  0  0  0  0  0
   21.2540  -21.5091  -15.8042 C   0  0  0  0  0  0  0  0  0  0  0  0
   22.1909  -21.5096  -16.6172 O   0  0  0  0  0  0  0  0  0  0  0  0
   20.0253  -22.0105  -16.1712 O   0  0  0  0  0  0  0  0  0  0  0  0
  2  1  1  6
  2  3  1  0
  2 13  1  0
  3  4  1  0
  4 12  1  0
  5  4  2  0
  5  6  1  0
  6  7  1  0
  7  8  1  0
  8  9  2  0
 10  9  1  0
 11 10  2  0
 12  7  2  0
 12 11  1  0
 13 19  1  0
 13 14  2  0
 16 15  1  1
 17 16  1  0
 18 16  1  0
 18 19  1  1
 20 18  1  0
 20 21  2  0
 22 20  1  0
 23 22  1  0
 24 25  1  0
 24 23  1  0
 25 26  1  0
 26 22  1  0
 26 27  1  6
 27 29  1  0
 28 27  2  0
M  END
$$$$
