WTP.pdb
     RDKit          3D

 29 31  0  0  1  0  0  0  0  0999 V2000
   24.8035  -20.9787   -8.4798 N   0  0  0  0  0  0  0  0  0  0  0  0
   26.0339  -20.3749   -8.9395 C   0  0  1  0  0  0  0  0  0  0  0  0
   27.2164  -20.7398   -8.0797 C   0  0  0  0  0  0  0  0  0  0  0  0
   27.5036  -19.7395   -7.0268 C   0  0  0  0  0  0  0  0  0  0  0  0
   27.2903  -18.3775   -7.0663 C   0  0  0  0  0  0  0  0  0  0  0  0
   27.6771  -17.8258   -5.9242 N   0  0  0  0  0  0  0  0  0  0  0  0
   28.1538  -18.7633   -5.0897 C   0  0  0  0  0  0  0  0  0  0  0  0
   28.6690  -18.7123   -3.8098 C   0  0  0  0  0  0  0  0  0  0  0  0
   29.0909  -19.8436   -3.1771 C   0  0  0  0  0  0  0  0  0  0  0  0
   28.9988  -21.0563   -3.8325 C   0  0  0  0  0  0  0  0  0  0  0  0
   28.4827  -21.0955   -5.1101 C   0  0  0  0  0  0  0  0  0  0  0  0
   28.0465  -19.9721   -5.7803 C   0  0  0  0  0  0  0  0  0  0  0  0
   26.2720  -20.7905  -10.3327 C   0  0  0  0  0  0  0  0  0  0  0  0
   26.6871  -21.9541  -10.6246 O   0  0  0  0  0  0  0  0  0  0  0  0
   25.5085  -22.6460  -12.2883 C   0  0  0  0  0  0  0  0  0  0  0  0
   25.2434  -21.3985  -13.1297 C   0  0  1  0  0  0  0  0  0  0  0  0
   23.9776  -20.9727  -12.8295 O   0  0  0  0  0  0  0  0  0  0  0  0
   26.2437  -20.3152  -12.7902 C   0  0  2  0  0  0  0  0  0  0  0  0
   26.0487  -19.9132  -11.3962 N   0  0  0  0  0  0  0  0  0  0  0  0
   26.0573  -19.1605  -13.6716 C   0  0  0  0  0  0  0  0  0  0  0  0
   25.2739  -18.2614  -13.2745 O   0  0  0  0  0  0  0  0  0  0  0  0
   26.6978  -19.0062  -14.9136 N   0  0  0  0  0  0  0  0  0  0  0  0
   27.5092  -20.0924  -15.4905 C   0  0  0  0  0  0  0  0  0  0  0  0
   28.5229  -19.3855  -16.3434 C   0  0  0  0  0  0  0  0  0  0  0  0
   28.2085  -17.9029  -16.2254 C   0  0  0  0  0  0  0  0  0  0  0  0
   26.7142  -17.9428  -15.8943 C   0  0  1  0  0  0  0  0  0  0  0  0
   25.9829  -18.3146  -17.1451 C   0  0  0  0  0  0  0  0  0  0  0  0
   25.9357  -17.4942  -18.0744 O   0  0  0  0  0  0  0  0  0  0  0  0
   25.3690  -19.5399  -17.2783 O   0  0  0  0  0  0  0  0  0  0  0  0
  2  1  1  1
  2  3  1  0
  2 13  1  0
  3  4  1  0
  4 12  1  0
  5  4  2  0
  5  6  1  0
  6  7  1  0
  7  8  1  0
  8  9  2  0
 10  9  1  0
 11 10  2  0
 12  7  2  0
 12 11  1  0
 13 19  1  0
 13 14  2  0
 16 15  1  1
 17 16  1  0
 18 16  1  0
 18 19  1  1
 20 18  1  0
 20 21  2  0
 22 20  1  0
 23 22  1  0
 24 25  1  0
 24 23  1  0
 25 26  1  0
 26 22  1  0
 26 27  1  6
 27 29  1  0
 28 27  2  0
M  END
$$$$
