WTP.pdb
     RDKit          3D

 29 31  0  0  1  0  0  0  0  0999 V2000
   26.7510  -22.1277   -9.2813 N   0  0  0  0  0  0  0  0  0  0  0  0
   26.6159  -20.6977   -9.4438 C   0  0  1  0  0  0  0  0  0  0  0  0
   27.8996  -19.9582   -9.1685 C   0  0  0  0  0  0  0  0  0  0  0  0
   28.5519  -20.3710   -7.9052 C   0  0  0  0  0  0  0  0  0  0  0  0
   29.4040  -21.4350   -7.6959 C   0  0  0  0  0  0  0  0  0  0  0  0
   29.7791  -21.4709   -6.4245 N   0  0  0  0  0  0  0  0  0  0  0  0
   29.2134  -20.4630   -5.7414 C   0  0  0  0  0  0  0  0  0  0  0  0
   29.2786  -20.0655   -4.4208 C   0  0  0  0  0  0  0  0  0  0  0  0
   28.5865  -18.9769   -3.9802 C   0  0  0  0  0  0  0  0  0  0  0  0
   27.8099  -18.2652   -4.8741 C   0  0  0  0  0  0  0  0  0  0  0  0
   27.7522  -18.6710   -6.1902 C   0  0  0  0  0  0  0  0  0  0  0  0
   28.4384  -19.7663   -6.6707 C   0  0  0  0  0  0  0  0  0  0  0  0
   26.1544  -20.4200  -10.8151 C   0  0  0  0  0  0  0  0  0  0  0  0
   26.9326  -19.9569  -11.7046 O   0  0  0  0  0  0  0  0  0  0  0  0
   26.6542  -21.2593  -13.3133 C   0  0  0  0  0  0  0  0  0  0  0  0
   25.1524  -21.5128  -13.4349 C   0  0  1  0  0  0  0  0  0  0  0  0
   24.9228  -22.7880  -12.9936 O   0  0  0  0  0  0  0  0  0  0  0  0
   24.3839  -20.5277  -12.5813 C   0  0  2  0  0  0  0  0  0  0  0  0
   24.8311  -20.6571  -11.1935 N   0  0  0  0  0  0  0  0  0  0  0  0
   22.9469  -20.7968  -12.6681 C   0  0  0  0  0  0  0  0  0  0  0  0
   22.4599  -21.5731  -11.8080 O   0  0  0  0  0  0  0  0  0  0  0  0
   22.0990  -20.2413  -13.6424 N   0  0  0  0  0  0  0  0  0  0  0  0
   22.6196  -19.8307  -14.9581 C   0  0  0  0  0  0  0  0  0  0  0  0
   21.6990  -18.7273  -15.3936 C   0  0  0  0  0  0  0  0  0  0  0  0
   20.6637  -18.5857  -14.2895 C   0  0  0  0  0  0  0  0  0  0  0  0
   20.6743  -19.9951  -13.6915 C   0  0  1  0  0  0  0  0  0  0  0  0
   19.9758  -20.9013  -14.6551 C   0  0  0  0  0  0  0  0  0  0  0  0
   20.6593  -21.6142  -15.4056 O   0  0  0  0  0  0  0  0  0  0  0  0
   18.6015  -20.9549  -14.7199 O   0  0  0  0  0  0  0  0  0  0  0  0
  2  1  1  6
  2  3  1  0
  2 13  1  0
  3  4  1  0
  4 12  1  0
  5  4  2  0
  5  6  1  0
  6  7  1  0
  7  8  1  0
  8  9  2  0
 10  9  1  0
 11 10  2  0
 12  7  2  0
 12 11  1  0
 13 19  1  0
 13 14  2  0
 16 15  1  1
 17 16  1  0
 18 16  1  0
 18 19  1  1
 20 18  1  0
 20 21  2  0
 22 20  1  0
 23 22  1  0
 24 25  1  0
 24 23  1  0
 25 26  1  0
 26 22  1  0
 26 27  1  6
 27 29  1  0
 28 27  2  0
M  END
$$$$
