WTP.pdb
     RDKit          3D

 29 31  0  0  1  0  0  0  0  0999 V2000
   21.8660  -20.3117  -17.6095 N   0  0  0  0  0  0  0  0  0  0  0  0
   22.3152  -19.3620  -16.6165 C   0  0  1  0  0  0  0  0  0  0  0  0
   21.2429  -19.0178  -15.6153 C   0  0  0  0  0  0  0  0  0  0  0  0
   20.0970  -18.2950  -16.2122 C   0  0  0  0  0  0  0  0  0  0  0  0
   18.8048  -18.7445  -16.3856 C   0  0  0  0  0  0  0  0  0  0  0  0
   18.0701  -17.7997  -16.9566 N   0  0  0  0  0  0  0  0  0  0  0  0
   18.8123  -16.7049  -17.1864 C   0  0  0  0  0  0  0  0  0  0  0  0
   18.5302  -15.4750  -17.7466 C   0  0  0  0  0  0  0  0  0  0  0  0
   19.4941  -14.5180  -17.8617 C   0  0  0  0  0  0  0  0  0  0  0  0
   20.7707  -14.7898  -17.4087 C   0  0  0  0  0  0  0  0  0  0  0  0
   21.0412  -16.0210  -16.8511 C   0  0  0  0  0  0  0  0  0  0  0  0
   20.0916  -17.0121  -16.7187 C   0  0  0  0  0  0  0  0  0  0  0  0
   23.4920  -19.9202  -15.9279 C   0  0  0  0  0  0  0  0  0  0  0  0
   23.5757  -21.1520  -15.6331 O   0  0  0  0  0  0  0  0  0  0  0  0
   27.9925  -19.1584  -13.9708 C   0  0  0  0  0  0  0  0  0  0  0  0
   26.8639  -18.7162  -14.9009 C   0  0  1  0  0  0  0  0  0  0  0  0
   27.3202  -18.8603  -16.1834 O   0  0  0  0  0  0  0  0  0  0  0  0
   25.6415  -19.5826  -14.6903 C   0  0  2  0  0  0  0  0  0  0  0  0
   24.5708  -19.1091  -15.5692 N   0  0  0  0  0  0  0  0  0  0  0  0
   25.2063  -19.5124  -13.2936 C   0  0  0  0  0  0  0  0  0  0  0  0
   24.3294  -18.6569  -13.0127 O   0  0  0  0  0  0  0  0  0  0  0  0
   25.7062  -20.3370  -12.2706 N   0  0  0  0  0  0  0  0  0  0  0  0
   26.8319  -21.2553  -12.5163 C   0  0  0  0  0  0  0  0  0  0  0  0
   26.6191  -22.3736  -11.5369 C   0  0  0  0  0  0  0  0  0  0  0  0
   25.3710  -22.0086  -10.7496 C   0  0  0  0  0  0  0  0  0  0  0  0
   25.3821  -20.4822  -10.8682 C   0  0  1  0  0  0  0  0  0  0  0  0
   26.4693  -19.9668   -9.9793 C   0  0  0  0  0  0  0  0  0  0  0  0
   27.5738  -19.7039  -10.4793 O   0  0  0  0  0  0  0  0  0  0  0  0
   26.2641  -19.7819   -8.6305 O   0  0  0  0  0  0  0  0  0  0  0  0
  2  1  1  6
  2  3  1  0
  2 13  1  0
  3  4  1  0
  4 12  1  0
  5  4  2  0
  5  6  1  0
  6  7  1  0
  7  8  1  0
  8  9  2  0
 10  9  1  0
 11 10  2  0
 12  7  2  0
 12 11  1  0
 13 19  1  0
 13 14  2  0
 16 15  1  1
 17 16  1  0
 18 16  1  0
 18 19  1  6
 20 18  1  0
 20 21  2  0
 22 20  1  0
 23 22  1  0
 24 25  1  0
 24 23  1  0
 25 26  1  0
 26 22  1  0
 26 27  1  1
 27 29  1  0
 28 27  2  0
M  END
$$$$
