WTP.pdb
     RDKit          3D

 29 31  0  0  1  0  0  0  0  0999 V2000
   28.9694  -20.0503  -16.0237 N   0  0  0  0  0  0  0  0  0  0  0  0
   27.6770  -19.4180  -15.8839 C   0  0  1  0  0  0  0  0  0  0  0  0
   27.0890  -19.0001  -17.2069 C   0  0  0  0  0  0  0  0  0  0  0  0
   26.5352  -17.6272  -17.1922 C   0  0  0  0  0  0  0  0  0  0  0  0
   27.2228  -16.4331  -17.1325 C   0  0  0  0  0  0  0  0  0  0  0  0
   26.3689  -15.4186  -17.1412 N   0  0  0  0  0  0  0  0  0  0  0  0
   25.1063  -15.8705  -17.2052 C   0  0  0  0  0  0  0  0  0  0  0  0
   23.8793  -15.2385  -17.2397 C   0  0  0  0  0  0  0  0  0  0  0  0
   22.7218  -15.9554  -17.3065 C   0  0  0  0  0  0  0  0  0  0  0  0
   22.7849  -17.3351  -17.3400 C   0  0  0  0  0  0  0  0  0  0  0  0
   24.0153  -17.9556  -17.3051 C   0  0  0  0  0  0  0  0  0  0  0  0
   25.2057  -17.2629  -17.2376 C   0  0  0  0  0  0  0  0  0  0  0  0
   26.7672  -20.3507  -15.1963 C   0  0  0  0  0  0  0  0  0  0  0  0
   26.6575  -21.5649  -15.5498 O   0  0  0  0  0  0  0  0  0  0  0  0
   26.9660  -21.5482  -11.9497 C   0  0  0  0  0  0  0  0  0  0  0  0
   25.5445  -20.9891  -11.9863 C   0  0  1  0  0  0  0  0  0  0  0  0
   25.5794  -19.7622  -11.3803 O   0  0  0  0  0  0  0  0  0  0  0  0
   25.0759  -20.8419  -13.4174 C   0  0  2  0  0  0  0  0  0  0  0  0
   25.9827  -19.9320  -14.1194 N   0  0  0  0  0  0  0  0  0  0  0  0
   23.7122  -20.3089  -13.4508 C   0  0  0  0  0  0  0  0  0  0  0  0
   23.5872  -19.0599  -13.3884 O   0  0  0  0  0  0  0  0  0  0  0  0
   22.5576  -21.1051  -13.5495 N   0  0  0  0  0  0  0  0  0  0  0  0
   22.6447  -22.5758  -13.5316 C   0  0  0  0  0  0  0  0  0  0  0  0
   21.4495  -23.0280  -14.3202 C   0  0  0  0  0  0  0  0  0  0  0  0
   20.7147  -21.7617  -14.7296 C   0  0  0  0  0  0  0  0  0  0  0  0
   21.1458  -20.7979  -13.6208 C   0  0  1  0  0  0  0  0  0  0  0  0
   20.4177  -21.1876  -12.3735 C   0  0  0  0  0  0  0  0  0  0  0  0
   19.2337  -20.8418  -12.2416 O   0  0  0  0  0  0  0  0  0  0  0  0
   21.0355  -21.9160  -11.3818 O   0  0  0  0  0  0  0  0  0  0  0  0
  2  1  1  6
  2  3  1  0
  2 13  1  0
  3  4  1  0
  4 12  1  0
  5  4  2  0
  5  6  1  0
  6  7  1  0
  7  8  1  0
  8  9  2  0
 10  9  1  0
 11 10  2  0
 12  7  2  0
 12 11  1  0
 13 19  1  0
 13 14  2  0
 16 15  1  6
 17 16  1  0
 18 16  1  0
 18 19  1  6
 20 18  1  0
 20 21  2  0
 22 20  1  0
 23 22  1  0
 24 25  1  0
 24 23  1  0
 25 26  1  0
 26 22  1  0
 26 27  1  1
 27 29  1  0
 28 27  2  0
M  END
$$$$
