WTP.pdb
     RDKit          3D

 29 31  0  0  1  0  0  0  0  0999 V2000
   24.4477  -18.1116  -17.2167 N   0  0  0  0  0  0  0  0  0  0  0  0
   24.6770  -18.7564  -15.9434 C   0  0  1  0  0  0  0  0  0  0  0  0
   25.8958  -18.2248  -15.2345 C   0  0  0  0  0  0  0  0  0  0  0  0
   27.1613  -18.5322  -15.9386 C   0  0  0  0  0  0  0  0  0  0  0  0
   28.0488  -17.6495  -16.5177 C   0  0  0  0  0  0  0  0  0  0  0  0
   29.0659  -18.3140  -17.0490 N   0  0  0  0  0  0  0  0  0  0  0  0
   28.9134  -19.6340  -16.8574 C   0  0  0  0  0  0  0  0  0  0  0  0
   29.6744  -20.7317  -17.2071 C   0  0  0  0  0  0  0  0  0  0  0  0
   29.2779  -21.9941  -16.8796 C   0  0  0  0  0  0  0  0  0  0  0  0
   28.0955  -22.1706  -16.1870 C   0  0  0  0  0  0  0  0  0  0  0  0
   27.3438  -21.0676  -15.8429 C   0  0  0  0  0  0  0  0  0  0  0  0
   27.7137  -19.7770  -16.1574 C   0  0  0  0  0  0  0  0  0  0  0  0
   23.4815  -18.5767  -15.1013 C   0  0  0  0  0  0  0  0  0  0  0  0
   22.8072  -17.5013  -15.1134 O   0  0  0  0  0  0  0  0  0  0  0  0
   20.9265  -17.9727  -15.2915 C   0  0  0  0  0  0  0  0  0  0  0  0
   20.6558  -19.2407  -14.4832 C   0  0  1  0  0  0  0  0  0  0  0  0
   20.5774  -20.2765  -15.3746 O   0  0  0  0  0  0  0  0  0  0  0  0
   21.7830  -19.4892  -13.5050 C   0  0  2  0  0  0  0  0  0  0  0  0
   23.0395  -19.5910  -14.2492 N   0  0  0  0  0  0  0  0  0  0  0  0
   21.5435  -20.7281  -12.7614 C   0  0  0  0  0  0  0  0  0  0  0  0
   21.9324  -21.7972  -13.2955 O   0  0  0  0  0  0  0  0  0  0  0  0
   20.9156  -20.7834  -11.5046 N   0  0  0  0  0  0  0  0  0  0  0  0
   20.2676  -19.5936  -10.9257 C   0  0  0  0  0  0  0  0  0  0  0  0
   20.3609  -19.8053   -9.4420 C   0  0  0  0  0  0  0  0  0  0  0  0
   21.0474  -21.1483   -9.2531 C   0  0  0  0  0  0  0  0  0  0  0  0
   20.6808  -21.8546  -10.5611 C   0  0  1  0  0  0  0  0  0  0  0  0
   19.2357  -22.2329  -10.4819 C   0  0  0  0  0  0  0  0  0  0  0  0
   18.9019  -23.1568   -9.7244 O   0  0  0  0  0  0  0  0  0  0  0  0
   18.2821  -21.5781  -11.2287 O   0  0  0  0  0  0  0  0  0  0  0  0
  2  1  1  6
  2  3  1  0
  2 13  1  0
  3  4  1  0
  4 12  1  0
  5  4  2  0
  5  6  1  0
  6  7  1  0
  7  8  1  0
  8  9  2  0
 10  9  1  0
 11 10  2  0
 12  7  2  0
 12 11  1  0
 13 19  1  0
 13 14  2  0
 16 15  1  6
 17 16  1  0
 18 16  1  0
 18 19  1  6
 20 18  1  0
 20 21  2  0
 22 20  1  0
 23 22  1  0
 24 25  1  0
 24 23  1  0
 25 26  1  0
 26 22  1  0
 26 27  1  1
 27 29  1  0
 28 27  2  0
M  END
$$$$
