WTP.pdb
     RDKit          3D

 29 31  0  0  1  0  0  0  0  0999 V2000
   25.9657  -18.3832   -8.5287 N   0  0  0  0  0  0  0  0  0  0  0  0
   26.5444  -19.6253   -8.9894 C   0  0  1  0  0  0  0  0  0  0  0  0
   25.9334  -20.8320   -8.3252 C   0  0  0  0  0  0  0  0  0  0  0  0
   26.0780  -20.8235   -6.8519 C   0  0  0  0  0  0  0  0  0  0  0  0
   25.1863  -21.2861   -5.9069 C   0  0  0  0  0  0  0  0  0  0  0  0
   25.6809  -21.1027   -4.6903 N   0  0  0  0  0  0  0  0  0  0  0  0
   26.8912  -20.5258   -4.7595 C   0  0  0  0  0  0  0  0  0  0  0  0
   27.8048  -20.1332   -3.8016 C   0  0  0  0  0  0  0  0  0  0  0  0
   28.9887  -19.5572   -4.1548 C   0  0  0  0  0  0  0  0  0  0  0  0
   29.2723  -19.3664   -5.4934 C   0  0  0  0  0  0  0  0  0  0  0  0
   28.3530  -19.7622   -6.4411 C   0  0  0  0  0  0  0  0  0  0  0  0
   27.1463  -20.3476   -6.1207 C   0  0  0  0  0  0  0  0  0  0  0  0
   26.3767  -19.7109  -10.4505 C   0  0  0  0  0  0  0  0  0  0  0  0
   25.4800  -19.0537  -11.0631 O   0  0  0  0  0  0  0  0  0  0  0  0
   29.9344  -20.4273  -12.1708 C   0  0  0  0  0  0  0  0  0  0  0  0
   28.7724  -20.9317  -13.0250 C   0  0  1  0  0  0  0  0  0  0  0  0
   28.6576  -22.2760  -12.7941 O   0  0  0  0  0  0  0  0  0  0  0  0
   27.4901  -20.2317  -12.6312 C   0  0  2  0  0  0  0  0  0  0  0  0
   27.2047  -20.5257  -11.2258 N   0  0  0  0  0  0  0  0  0  0  0  0
   26.3829  -20.6942  -13.4710 C   0  0  0  0  0  0  0  0  0  0  0  0
   25.6736  -21.6265  -13.0157 O   0  0  0  0  0  0  0  0  0  0  0  0
   26.0759  -20.1591  -14.7344 N   0  0  0  0  0  0  0  0  0  0  0  0
   27.0011  -19.2355  -15.4139 C   0  0  0  0  0  0  0  0  0  0  0  0
   26.1118  -18.3883  -16.2778 C   0  0  0  0  0  0  0  0  0  0  0  0
   24.6994  -18.9063  -16.0595 C   0  0  0  0  0  0  0  0  0  0  0  0
   24.9756  -20.3562  -15.6527 C   0  0  1  0  0  0  0  0  0  0  0  0
   25.3905  -21.1004  -16.8822 C   0  0  0  0  0  0  0  0  0  0  0  0
   26.5804  -21.4280  -17.0078 O   0  0  0  0  0  0  0  0  0  0  0  0
   24.4815  -21.4233  -17.8647 O   0  0  0  0  0  0  0  0  0  0  0  0
  2  1  1  1
  2  3  1  0
  2 13  1  0
  3  4  1  0
  4 12  1  0
  5  4  2  0
  5  6  1  0
  6  7  1  0
  7  8  1  0
  8  9  2  0
 10  9  1  0
 11 10  2  0
 12  7  2  0
 12 11  1  0
 13 19  1  0
 13 14  2  0
 16 15  1  1
 17 16  1  0
 18 16  1  0
 18 19  1  1
 20 18  1  0
 20 21  2  0
 22 20  1  0
 23 22  1  0
 24 25  1  0
 24 23  1  0
 25 26  1  0
 26 22  1  0
 26 27  1  6
 27 29  1  0
 28 27  2  0
M  END
$$$$
