WTP.pdb
     RDKit          3D

 29 31  0  0  1  0  0  0  0  0999 V2000
   24.0919  -20.2347   -9.5110 N   0  0  0  0  0  0  0  0  0  0  0  0
   25.4842  -20.0367   -9.8457 C   0  0  1  0  0  0  0  0  0  0  0  0
   26.4028  -20.9439   -9.0687 C   0  0  0  0  0  0  0  0  0  0  0  0
   26.3846  -20.6841   -7.6113 C   0  0  0  0  0  0  0  0  0  0  0  0
   25.3349  -20.8455   -6.7315 C   0  0  0  0  0  0  0  0  0  0  0  0
   25.7152  -20.5078   -5.5068 N   0  0  0  0  0  0  0  0  0  0  0  0
   26.9993  -20.1158   -5.5072 C   0  0  0  0  0  0  0  0  0  0  0  0
   27.8512  -19.6763   -4.5137 C   0  0  0  0  0  0  0  0  0  0  0  0
   29.1404  -19.3338   -4.7948 C   0  0  0  0  0  0  0  0  0  0  0  0
   29.5947  -19.4304   -6.0960 C   0  0  0  0  0  0  0  0  0  0  0  0
   28.7355  -19.8705   -7.0799 C   0  0  0  0  0  0  0  0  0  0  0  0
   27.4261  -20.2252   -6.8322 C   0  0  0  0  0  0  0  0  0  0  0  0
   25.6580  -20.2566  -11.2920 C   0  0  0  0  0  0  0  0  0  0  0  0
   24.8729  -20.9999  -11.9572 O   0  0  0  0  0  0  0  0  0  0  0  0
   29.1005  -18.7925  -13.2230 C   0  0  0  0  0  0  0  0  0  0  0  0
   27.7513  -18.6274  -13.9207 C   0  0  1  0  0  0  0  0  0  0  0  0
   27.9751  -18.7576  -15.2648 O   0  0  0  0  0  0  0  0  0  0  0  0
   26.7864  -19.6959  -13.4549 C   0  0  2  0  0  0  0  0  0  0  0  0
   26.7023  -19.6510  -11.9941 N   0  0  0  0  0  0  0  0  0  0  0  0
   27.2481  -21.0171  -13.8863 C   0  0  0  0  0  0  0  0  0  0  0  0
   27.9665  -21.6605  -13.0804 O   0  0  0  0  0  0  0  0  0  0  0  0
   26.9342  -21.5939  -15.1296 N   0  0  0  0  0  0  0  0  0  0  0  0
   26.0494  -20.9051  -16.0852 C   0  0  0  0  0  0  0  0  0  0  0  0
   25.4162  -22.0164  -16.8720 C   0  0  0  0  0  0  0  0  0  0  0  0
   26.0101  -23.3056  -16.3279 C   0  0  0  0  0  0  0  0  0  0  0  0
   27.3556  -22.8086  -15.7925 C   0  0  1  0  0  0  0  0  0  0  0  0
   28.2381  -22.5349  -16.9689 C   0  0  0  0  0  0  0  0  0  0  0  0
   28.7515  -23.4941  -17.5650 O   0  0  0  0  0  0  0  0  0  0  0  0
   28.4855  -21.2491  -17.3946 O   0  0  0  0  0  0  0  0  0  0  0  0
  2  1  1  1
  2  3  1  0
  2 13  1  0
  3  4  1  0
  4 12  1  0
  5  4  2  0
  5  6  1  0
  6  7  1  0
  7  8  1  0
  8  9  2  0
 10  9  1  0
 11 10  2  0
 12  7  2  0
 12 11  1  0
 13 19  1  0
 13 14  2  0
 16 15  1  1
 17 16  1  0
 18 16  1  0
 18 19  1  1
 20 18  1  0
 20 21  2  0
 22 20  1  0
 23 22  1  0
 24 25  1  0
 24 23  1  0
 25 26  1  0
 26 22  1  0
 26 27  1  6
 27 29  1  0
 28 27  2  0
M  END
$$$$
