IHW.pdb
     RDKit          3D

 33 35  0  0  1  0  0  0  0  0999 V2000
    7.5280  -11.6122   19.7980 C   0  0  0  0  0  0  0  0  0  0  0  0
    7.7904  -12.9777   19.2442 C   0  0  0  0  0  0  0  0  0  0  0  0
    8.0071  -14.0117   20.3210 C   0  0  2  0  0  0  0  0  0  0  0  0
    9.1930  -13.6218   21.1774 C   0  0  0  0  0  0  0  0  0  0  0  0
    8.3013  -15.3835   19.7626 C   0  0  2  0  0  0  0  0  0  0  0  0
    7.1640  -15.8648   19.0056 N   0  0  0  0  0  0  0  0  0  0  0  0
    8.4922  -16.2931   20.9205 C   0  0  0  0  0  0  0  0  0  0  0  0
    7.5305  -16.7477   21.5945 O   0  0  0  0  0  0  0  0  0  0  0  0
    9.7761  -16.6855   21.3126 N   0  0  0  0  0  0  0  0  0  0  0  0
   10.1063  -17.6163   22.3696 C   0  0  1  0  0  0  0  0  0  0  0  0
   11.2785  -18.4790   22.1084 C   0  0  0  0  0  0  0  0  0  0  0  0
   11.5961  -19.4450   23.1894 C   0  0  0  0  0  0  0  0  0  0  0  0
   12.5786  -19.4806   24.1330 C   0  0  0  0  0  0  0  0  0  0  0  0
   12.4392  -20.5966   24.8891 N   0  0  0  0  0  0  0  0  0  0  0  0
   11.3699  -21.2382   24.4016 C   0  0  0  0  0  0  0  0  0  0  0  0
   10.8429  -20.5679   23.3783 N   0  0  0  0  0  0  0  0  0  0  0  0
   10.3117  -16.8941   23.6650 C   0  0  0  0  0  0  0  0  0  0  0  0
   11.0322  -15.8807   23.7971 O   0  0  0  0  0  0  0  0  0  0  0  0
    9.6422  -17.4001   24.7995 N   0  0  0  0  0  0  0  0  0  0  0  0
    9.9186  -16.7832   26.1229 C   0  0  1  0  0  0  0  0  0  0  0  0
    8.6207  -16.7302   26.8619 C   0  0  0  0  0  0  0  0  0  0  0  0
    7.5718  -15.8713   26.3290 C   0  0  0  0  0  0  0  0  0  0  0  0
    6.4005  -16.2803   25.6755 C   0  0  0  0  0  0  0  0  0  0  0  0
    5.7051  -15.2024   25.3008 N   0  0  0  0  0  0  0  0  0  0  0  0
    6.3865  -14.1109   25.6906 C   0  0  0  0  0  0  0  0  0  0  0  0
    6.1006  -12.7404   25.5653 C   0  0  0  0  0  0  0  0  0  0  0  0
    6.9583  -11.7890   26.0715 C   0  0  0  0  0  0  0  0  0  0  0  0
    8.1137  -12.1951   26.7099 C   0  0  0  0  0  0  0  0  0  0  0  0
    8.4074  -13.5302   26.8396 C   0  0  0  0  0  0  0  0  0  0  0  0
    7.5390  -14.5019   26.3259 C   0  0  0  0  0  0  0  0  0  0  0  0
   10.9727  -17.5509   26.7866 C   0  0  0  0  0  0  0  0  0  0  0  0
   11.6167  -17.0806   27.9532 O   0  0  0  0  0  0  0  0  0  0  0  0
   11.3842  -18.6699   26.3815 O   0  0  0  0  0  0  0  0  0  0  0  0
  1  2  1  0
  2  3  1  0
  3  4  1  1
  5  6  1  6
  5  3  1  0
  7  5  1  0
  8  7  2  0
  9  7  1  0
 10  9  1  0
 11 12  1  0
 10 11  1  6
 12 16  1  0
 13 12  2  0
 13 14  1  0
 14 15  1  0
 16 15  2  0
 17 19  1  0
 17 10  1  0
 18 17  2  0
 20 21  1  1
 20 31  1  0
 20 19  1  0
 22 21  1  0
 22 30  1  0
 23 22  2  0
 24 23  1  0
 24 25  1  0
 25 26  1  0
 25 30  2  0
 26 27  2  0
 27 28  1  0
 29 28  2  0
 30 29  1  0
 31 32  1  0
 33 31  2  0
M  END
$$$$
