IHW.pdb
     RDKit          3D

 33 35  0  0  1  0  0  0  0  0999 V2000
    7.9770  -11.6250   19.6896 C   0  0  0  0  0  0  0  0  0  0  0  0
    7.9623  -13.0401   19.2025 C   0  0  0  0  0  0  0  0  0  0  0  0
    8.1110  -14.0427   20.3198 C   0  0  2  0  0  0  0  0  0  0  0  0
    9.4660  -13.8843   20.9760 C   0  0  0  0  0  0  0  0  0  0  0  0
    8.0211  -15.4712   19.8383 C   0  0  2  0  0  0  0  0  0  0  0  0
    6.7221  -15.7133   19.2450 N   0  0  0  0  0  0  0  0  0  0  0  0
    8.1418  -16.3422   21.0347 C   0  0  0  0  0  0  0  0  0  0  0  0
    7.2818  -16.3584   21.9543 O   0  0  0  0  0  0  0  0  0  0  0  0
    9.2405  -17.1944   21.1859 N   0  0  0  0  0  0  0  0  0  0  0  0
    9.5446  -18.0096   22.3417 C   0  0  1  0  0  0  0  0  0  0  0  0
   10.3631  -19.2107   22.0700 C   0  0  0  0  0  0  0  0  0  0  0  0
   10.6489  -20.0533   23.2578 C   0  0  0  0  0  0  0  0  0  0  0  0
   11.7924  -20.3035   23.9556 C   0  0  0  0  0  0  0  0  0  0  0  0
   11.5257  -21.1659   24.9664 N   0  0  0  0  0  0  0  0  0  0  0  0
   10.2177  -21.4386   24.8799 C   0  0  0  0  0  0  0  0  0  0  0  0
    9.6650  -20.7829   23.8608 N   0  0  0  0  0  0  0  0  0  0  0  0
   10.2146  -17.1931   23.4030 C   0  0  0  0  0  0  0  0  0  0  0  0
   11.1904  -16.4388   23.1970 O   0  0  0  0  0  0  0  0  0  0  0  0
    9.7003  -17.2905   24.7135 N   0  0  0  0  0  0  0  0  0  0  0  0
   10.3953  -16.5622   25.8066 C   0  0  1  0  0  0  0  0  0  0  0  0
    9.8965  -15.1536   25.7816 C   0  0  0  0  0  0  0  0  0  0  0  0
    8.4637  -14.9390   25.9325 C   0  0  0  0  0  0  0  0  0  0  0  0
    7.4634  -15.9214   25.9531 C   0  0  0  0  0  0  0  0  0  0  0  0
    6.2694  -15.3329   26.0713 N   0  0  0  0  0  0  0  0  0  0  0  0
    6.4640  -14.0038   26.1287 C   0  0  0  0  0  0  0  0  0  0  0  0
    5.5613  -12.9355   26.2683 C   0  0  0  0  0  0  0  0  0  0  0  0
    6.0080  -11.6337   26.3236 C   0  0  0  0  0  0  0  0  0  0  0  0
    7.3634  -11.3825   26.2399 C   0  0  0  0  0  0  0  0  0  0  0  0
    8.2578  -12.4154   26.1025 C   0  0  0  0  0  0  0  0  0  0  0  0
    7.8089  -13.7410   26.0450 C   0  0  0  0  0  0  0  0  0  0  0  0
   10.1645  -17.2736   27.0642 C   0  0  0  0  0  0  0  0  0  0  0  0
   10.8824  -16.9618   28.2407 O   0  0  0  0  0  0  0  0  0  0  0  0
    9.3252  -18.2026   27.1988 O   0  0  0  0  0  0  0  0  0  0  0  0
  1  2  1  0
  2  3  1  0
  3  4  1  6
  5  6  1  1
  5  3  1  0
  7  5  1  0
  8  7  2  0
  9  7  1  0
 10  9  1  0
 11 12  1  0
 10 11  1  6
 12 16  1  0
 13 12  2  0
 13 14  1  0
 14 15  1  0
 16 15  2  0
 17 19  1  0
 17 10  1  0
 18 17  2  0
 20 21  1  1
 20 31  1  0
 20 19  1  0
 22 21  1  0
 22 30  1  0
 23 22  2  0
 24 23  1  0
 24 25  1  0
 25 26  1  0
 25 30  2  0
 26 27  2  0
 27 28  1  0
 29 28  2  0
 30 29  1  0
 31 32  1  0
 33 31  2  0
M  END
$$$$
