IHW.pdb
     RDKit          3D

 33 35  0  0  1  0  0  0  0  0999 V2000
    7.0086  -11.9261   19.1160 C   0  0  0  0  0  0  0  0  0  0  0  0
    7.8354  -13.0139   18.5052 C   0  0  0  0  0  0  0  0  0  0  0  0
    8.3811  -13.9767   19.5304 C   0  0  2  0  0  0  0  0  0  0  0  0
    9.2816  -13.2406   20.4994 C   0  0  0  0  0  0  0  0  0  0  0  0
    9.2084  -15.0792   18.9138 C   0  0  2  0  0  0  0  0  0  0  0  0
    8.3996  -15.8489   17.9910 N   0  0  0  0  0  0  0  0  0  0  0  0
    9.6205  -15.9832   20.0172 C   0  0  0  0  0  0  0  0  0  0  0  0
    8.8233  -16.7816   20.5765 O   0  0  0  0  0  0  0  0  0  0  0  0
   10.9385  -15.9794   20.4851 N   0  0  0  0  0  0  0  0  0  0  0  0
   11.4687  -16.7751   21.5707 C   0  0  1  0  0  0  0  0  0  0  0  0
   12.8788  -17.1928   21.4179 C   0  0  0  0  0  0  0  0  0  0  0  0
   13.1586  -18.0198   20.2179 C   0  0  0  0  0  0  0  0  0  0  0  0
   12.5518  -19.1240   19.6987 C   0  0  0  0  0  0  0  0  0  0  0  0
   13.2065  -19.5153   18.5785 N   0  0  0  0  0  0  0  0  0  0  0  0
   14.2124  -18.6460   18.4196 C   0  0  0  0  0  0  0  0  0  0  0  0
   14.2077  -17.7354   19.3916 N   0  0  0  0  0  0  0  0  0  0  0  0
   11.3110  -16.0596   22.8765 C   0  0  0  0  0  0  0  0  0  0  0  0
   11.4869  -14.8312   23.0296 O   0  0  0  0  0  0  0  0  0  0  0  0
   10.9388  -16.8339   23.9961 N   0  0  0  0  0  0  0  0  0  0  0  0
   10.0485  -16.2249   25.0182 C   0  0  1  0  0  0  0  0  0  0  0  0
    8.8655  -15.6684   24.2940 C   0  0  0  0  0  0  0  0  0  0  0  0
    7.8180  -15.0410   25.0882 C   0  0  0  0  0  0  0  0  0  0  0  0
    6.5614  -15.5799   25.3996 C   0  0  0  0  0  0  0  0  0  0  0  0
    5.8656  -14.6916   26.1156 N   0  0  0  0  0  0  0  0  0  0  0  0
    6.6298  -13.5975   26.2783 C   0  0  0  0  0  0  0  0  0  0  0  0
    6.3941  -12.3892   26.9566 C   0  0  0  0  0  0  0  0  0  0  0  0
    7.3554  -11.4038   27.0027 C   0  0  0  0  0  0  0  0  0  0  0  0
    8.5655  -11.6134   26.3710 C   0  0  0  0  0  0  0  0  0  0  0  0
    8.8107  -12.7881   25.7036 C   0  0  0  0  0  0  0  0  0  0  0  0
    7.8362  -13.7931   25.6530 C   0  0  0  0  0  0  0  0  0  0  0  0
    9.7316  -17.2369   26.0263 C   0  0  0  0  0  0  0  0  0  0  0  0
    9.3780  -18.5583   25.6718 O   0  0  0  0  0  0  0  0  0  0  0  0
    9.7475  -17.0185   27.2663 O   0  0  0  0  0  0  0  0  0  0  0  0
  1  2  1  0
  2  3  1  0
  3  4  1  1
  5  6  1  6
  5  3  1  0
  7  5  1  0
  8  7  2  0
  9  7  1  0
 10  9  1  0
 11 12  1  0
 10 11  1  6
 12 16  1  0
 13 12  2  0
 13 14  1  0
 14 15  1  0
 16 15  2  0
 17 19  1  0
 17 10  1  0
 18 17  2  0
 20 21  1  6
 20 31  1  0
 20 19  1  0
 22 21  1  0
 22 30  1  0
 23 22  2  0
 24 23  1  0
 24 25  1  0
 25 26  1  0
 25 30  2  0
 26 27  2  0
 27 28  1  0
 29 28  2  0
 30 29  1  0
 31 32  1  0
 33 31  2  0
M  END
$$$$
