IHW.pdb
     RDKit          3D

 33 35  0  0  1  0  0  0  0  0999 V2000
    7.7913  -12.0395   20.6880 C   0  0  0  0  0  0  0  0  0  0  0  0
    7.8027  -13.4175   20.1042 C   0  0  0  0  0  0  0  0  0  0  0  0
    8.9640  -13.6446   19.1685 C   0  0  2  0  0  0  0  0  0  0  0  0
    8.9516  -12.6020   18.0709 C   0  0  0  0  0  0  0  0  0  0  0  0
    8.9139  -14.9939   18.4924 C   0  0  2  0  0  0  0  0  0  0  0  0
    7.6510  -15.1556   17.8018 N   0  0  0  0  0  0  0  0  0  0  0  0
    8.9788  -16.0200   19.5636 C   0  0  0  0  0  0  0  0  0  0  0  0
    7.9501  -16.5347   20.0762 O   0  0  0  0  0  0  0  0  0  0  0  0
   10.2128  -16.4609   20.0523 N   0  0  0  0  0  0  0  0  0  0  0  0
   10.4252  -17.4442   21.0920 C   0  0  1  0  0  0  0  0  0  0  0  0
   11.5738  -18.3507   20.8791 C   0  0  0  0  0  0  0  0  0  0  0  0
   11.4010  -19.3294   19.7770 C   0  0  0  0  0  0  0  0  0  0  0  0
   10.3015  -19.7811   19.1106 C   0  0  0  0  0  0  0  0  0  0  0  0
   10.6782  -20.6955   18.1841 N   0  0  0  0  0  0  0  0  0  0  0  0
   12.0090  -20.7978   18.2902 C   0  0  0  0  0  0  0  0  0  0  0  0
   12.4706  -19.9871   19.2409 N   0  0  0  0  0  0  0  0  0  0  0  0
   10.5691  -16.7802   22.4263 C   0  0  0  0  0  0  0  0  0  0  0  0
   11.2830  -15.7755   22.6370 O   0  0  0  0  0  0  0  0  0  0  0  0
    9.8462  -17.3339   23.5043 N   0  0  0  0  0  0  0  0  0  0  0  0
    9.8959  -16.6479   24.8216 C   0  0  1  0  0  0  0  0  0  0  0  0
    8.5362  -16.7677   25.4302 C   0  0  0  0  0  0  0  0  0  0  0  0
    7.9294  -15.5615   25.9766 C   0  0  0  0  0  0  0  0  0  0  0  0
    6.6543  -15.0554   25.6862 C   0  0  0  0  0  0  0  0  0  0  0  0
    6.4710  -13.9121   26.3534 N   0  0  0  0  0  0  0  0  0  0  0  0
    7.5836  -13.6625   27.0657 C   0  0  0  0  0  0  0  0  0  0  0  0
    7.9124  -12.6148   27.9430 C   0  0  0  0  0  0  0  0  0  0  0  0
    9.1308  -12.5845   28.5847 C   0  0  0  0  0  0  0  0  0  0  0  0
   10.0370  -13.6017   28.3578 C   0  0  0  0  0  0  0  0  0  0  0  0
    9.7309  -14.6319   27.5030 C   0  0  0  0  0  0  0  0  0  0  0  0
    8.4936  -14.6670   26.8473 C   0  0  0  0  0  0  0  0  0  0  0  0
   10.9776  -17.2332   25.6140 C   0  0  0  0  0  0  0  0  0  0  0  0
   11.7721  -16.4528   26.4839 O   0  0  0  0  0  0  0  0  0  0  0  0
   11.2834  -18.4544   25.5867 O   0  0  0  0  0  0  0  0  0  0  0  0
  1  2  1  0
  2  3  1  0
  3  4  1  6
  5  6  1  1
  5  3  1  0
  7  5  1  0
  8  7  2  0
  9  7  1  0
 10  9  1  0
 11 12  1  0
 10 11  1  6
 12 16  1  0
 13 12  2  0
 13 14  1  0
 14 15  1  0
 16 15  2  0
 17 19  1  0
 17 10  1  0
 18 17  2  0
 20 21  1  1
 20 31  1  0
 20 19  1  0
 22 21  1  0
 22 30  1  0
 23 22  2  0
 24 23  1  0
 24 25  1  0
 25 26  1  0
 25 30  2  0
 26 27  2  0
 27 28  1  0
 29 28  2  0
 30 29  1  0
 31 32  1  0
 33 31  2  0
M  END
$$$$
