TPA.pdb
     RDKit          3D

 20 20  0  0  1  0  0  0  0  0999 V2000
    8.0388  -16.6000   22.2718 C   0  0  0  0  0  0  0  0  0  0  0  0
    6.8307  -15.7084   22.3048 C   0  0  1  0  0  0  0  0  0  0  0  0
    6.0313  -16.0998   23.3544 O   0  0  0  0  0  0  0  0  0  0  0  0
    7.2541  -14.2412   22.4557 C   0  0  2  0  0  0  0  0  0  0  0  0
    8.0763  -13.9251   21.2703 N   0  0  0  0  0  0  0  0  0  0  0  0
    8.0940  -14.1051   23.6738 C   0  0  0  0  0  0  0  0  0  0  0  0
    9.3237  -14.3798   23.5463 O   0  0  0  0  0  0  0  0  0  0  0  0
    7.6306  -13.6972   24.9407 N   0  0  0  0  0  0  0  0  0  0  0  0
    6.2632  -13.4013   25.2877 C   0  0  0  0  0  0  0  0  0  0  0  0
    6.5077  -12.1839   26.2066 C   0  0  0  0  0  0  0  0  0  0  0  0
    7.5409  -12.7896   27.1225 C   0  0  0  0  0  0  0  0  0  0  0  0
    8.4514  -13.4846   26.1075 C   0  0  1  0  0  0  0  0  0  0  0  0
    8.8920  -14.8055   26.6695 C   0  0  0  0  0  0  0  0  0  0  0  0
    8.1421  -15.8131   26.6857 O   0  0  0  0  0  0  0  0  0  0  0  0
   12.1912  -16.3155   27.6185 C   0  0  0  0  0  0  0  0  0  0  0  0
   10.7032  -16.1876   27.7657 C   0  0  2  0  0  0  0  0  0  0  0  0
   10.1921  -14.9496   27.2065 N   0  0  0  0  0  0  0  0  0  0  0  0
   10.3305  -16.2130   29.2041 C   0  0  0  0  0  0  0  0  0  0  0  0
    9.9066  -15.1634   29.7523 O   0  0  0  0  0  0  0  0  0  0  0  0
   10.4326  -17.3618   29.9762 O   0  0  0  0  0  0  0  0  0  0  0  0
  2  1  1  1
  2  3  1  0
  4  6  1  0
  4  2  1  0
  4  5  1  6
  6  7  2  0
  8 12  1  0
  8  6  1  0
  9  8  1  0
 10  9  1  0
 10 11  1  0
 11 12  1  0
 12 13  1  1
 13 14  2  0
 13 17  1  0
 16 15  1  1
 16 18  1  0
 17 16  1  0
 18 20  1  0
 19 18  2  0
M  END
$$$$
