TPA.pdb
     RDKit          3D

 20 20  0  0  1  0  0  0  0  0999 V2000
    6.9868  -13.7558   18.6523 C   0  0  0  0  0  0  0  0  0  0  0  0
    7.6199  -14.2288   19.9294 C   0  0  1  0  0  0  0  0  0  0  0  0
    8.4977  -15.2448   19.6280 O   0  0  0  0  0  0  0  0  0  0  0  0
    8.3424  -13.0694   20.6282 C   0  0  2  0  0  0  0  0  0  0  0  0
    9.4407  -12.6650   19.7276 N   0  0  0  0  0  0  0  0  0  0  0  0
    8.9234  -13.5628   21.9038 C   0  0  0  0  0  0  0  0  0  0  0  0
   10.1475  -13.8866   21.8796 O   0  0  0  0  0  0  0  0  0  0  0  0
    8.2238  -13.6932   23.1203 N   0  0  0  0  0  0  0  0  0  0  0  0
    6.8631  -13.2841   23.3631 C   0  0  0  0  0  0  0  0  0  0  0  0
    7.0331  -12.7246   24.7928 C   0  0  0  0  0  0  0  0  0  0  0  0
    7.7269  -13.9061   25.4224 C   0  0  0  0  0  0  0  0  0  0  0  0
    8.7583  -14.2415   24.3425 C   0  0  1  0  0  0  0  0  0  0  0  0
    8.8754  -15.7338   24.2245 C   0  0  0  0  0  0  0  0  0  0  0  0
    7.9934  -16.4357   23.6701 O   0  0  0  0  0  0  0  0  0  0  0  0
   11.4985  -18.2570   24.1459 C   0  0  0  0  0  0  0  0  0  0  0  0
   10.1789  -17.8410   24.7272 C   0  0  2  0  0  0  0  0  0  0  0  0
   10.0080  -16.3999   24.7470 N   0  0  0  0  0  0  0  0  0  0  0  0
   10.0669  -18.3214   26.1291 C   0  0  0  0  0  0  0  0  0  0  0  0
   10.1519  -19.5529   26.3701 O   0  0  0  0  0  0  0  0  0  0  0  0
    9.8700  -17.4556   27.1959 O   0  0  0  0  0  0  0  0  0  0  0  0
  2  1  1  6
  2  3  1  0
  4  6  1  0
  4  2  1  0
  4  5  1  6
  6  7  2  0
  8 12  1  0
  8  6  1  0
  9  8  1  0
 10  9  1  0
 10 11  1  0
 11 12  1  0
 12 13  1  6
 13 14  2  0
 13 17  1  0
 16 15  1  1
 16 18  1  0
 17 16  1  0
 18 20  1  0
 19 18  2  0
M  END
$$$$
