TPA.pdb
     RDKit          3D

 20 20  0  0  1  0  0  0  0  0999 V2000
    9.8967  -17.6072   16.0377 C   0  0  0  0  0  0  0  0  0  0  0  0
    8.6199  -16.8711   15.7493 C   0  0  1  0  0  0  0  0  0  0  0  0
    7.6803  -17.2512   16.6803 O   0  0  0  0  0  0  0  0  0  0  0  0
    8.8554  -15.3555   15.7955 C   0  0  2  0  0  0  0  0  0  0  0  0
    9.8226  -15.0554   14.7205 N   0  0  0  0  0  0  0  0  0  0  0  0
    9.4654  -15.0025   17.1036 C   0  0  0  0  0  0  0  0  0  0  0  0
   10.7007  -15.2482   17.2362 O   0  0  0  0  0  0  0  0  0  0  0  0
    8.7816  -14.4215   18.1904 N   0  0  0  0  0  0  0  0  0  0  0  0
    7.3887  -14.0514   18.2147 C   0  0  0  0  0  0  0  0  0  0  0  0
    7.5061  -12.7299   19.0059 C   0  0  0  0  0  0  0  0  0  0  0  0
    8.3076  -13.2336   20.1794 C   0  0  0  0  0  0  0  0  0  0  0  0
    9.3655  -14.0765   19.4633 C   0  0  1  0  0  0  0  0  0  0  0  0
    9.6217  -15.3219   20.2619 C   0  0  0  0  0  0  0  0  0  0  0  0
    8.9372  -16.3652   20.1186 O   0  0  0  0  0  0  0  0  0  0  0  0
   12.4988  -16.5918   22.2775 C   0  0  0  0  0  0  0  0  0  0  0  0
   11.0289  -16.5289   21.9810 C   0  0  2  0  0  0  0  0  0  0  0  0
   10.6644  -15.3501   21.2168 N   0  0  0  0  0  0  0  0  0  0  0  0
   10.2555  -16.4931   23.2496 C   0  0  0  0  0  0  0  0  0  0  0  0
    9.5475  -15.4879   23.5147 O   0  0  0  0  0  0  0  0  0  0  0  0
   10.2833  -17.5364   24.1645 O   0  0  0  0  0  0  0  0  0  0  0  0
  2  1  1  1
  2  3  1  0
  4  6  1  0
  4  2  1  0
  4  5  1  6
  6  7  2  0
  8 12  1  0
  8  6  1  0
  9  8  1  0
 10  9  1  0
 10 11  1  0
 11 12  1  0
 12 13  1  1
 13 14  2  0
 13 17  1  0
 16 15  1  1
 16 18  1  0
 17 16  1  0
 18 20  1  0
 19 18  2  0
M  END
$$$$
