TPA.pdb
     RDKit          3D

 20 20  0  0  1  0  0  0  0  0999 V2000
    7.7774  -17.3479   17.0256 C   0  0  0  0  0  0  0  0  0  0  0  0
    8.6781  -16.4291   16.2509 C   0  0  1  0  0  0  0  0  0  0  0  0
    8.3814  -16.5572   14.9132 O   0  0  0  0  0  0  0  0  0  0  0  0
    8.4907  -14.9794   16.7175 C   0  0  2  0  0  0  0  0  0  0  0  0
    9.2636  -14.1408   15.7792 N   0  0  0  0  0  0  0  0  0  0  0  0
    9.0667  -14.8335   18.0795 C   0  0  0  0  0  0  0  0  0  0  0  0
   10.3195  -14.9869   18.1829 O   0  0  0  0  0  0  0  0  0  0  0  0
    8.3331  -14.5395   19.2463 N   0  0  0  0  0  0  0  0  0  0  0  0
    6.8990  -14.4280   19.3399 C   0  0  0  0  0  0  0  0  0  0  0  0
    6.8152  -13.2300   20.3114 C   0  0  0  0  0  0  0  0  0  0  0  0
    7.7343  -13.7431   21.3909 C   0  0  0  0  0  0  0  0  0  0  0  0
    8.8950  -14.2779   20.5487 C   0  0  1  0  0  0  0  0  0  0  0  0
    9.3918  -15.5577   21.1570 C   0  0  0  0  0  0  0  0  0  0  0  0
    8.8379  -16.6642   20.9411 O   0  0  0  0  0  0  0  0  0  0  0  0
   12.6313  -16.5650   22.7452 C   0  0  0  0  0  0  0  0  0  0  0  0
   11.1586  -16.7460   22.5202 C   0  0  2  0  0  0  0  0  0  0  0  0
   10.5216  -15.5471   22.0073 N   0  0  0  0  0  0  0  0  0  0  0  0
   10.4877  -17.0933   23.8000 C   0  0  0  0  0  0  0  0  0  0  0  0
   10.8400  -18.1277   24.4227 O   0  0  0  0  0  0  0  0  0  0  0  0
    9.4761  -16.3130   24.3423 O   0  0  0  0  0  0  0  0  0  0  0  0
  2  1  1  1
  2  3  1  0
  4  6  1  0
  4  2  1  0
  4  5  1  6
  6  7  2  0
  8 12  1  0
  8  6  1  0
  9  8  1  0
 10  9  1  0
 10 11  1  0
 11 12  1  0
 12 13  1  1
 13 14  2  0
 13 17  1  0
 16 15  1  1
 16 18  1  0
 17 16  1  0
 18 20  1  0
 19 18  2  0
M  END
$$$$
