TPA.pdb
     RDKit          3D

 20 20  0  0  1  0  0  0  0  0999 V2000
    6.8008  -18.0039   18.5518 C   0  0  0  0  0  0  0  0  0  0  0  0
    7.6569  -17.9935   17.3179 C   0  0  1  0  0  0  0  0  0  0  0  0
    6.9702  -18.6280   16.3082 O   0  0  0  0  0  0  0  0  0  0  0  0
    8.0057  -16.5526   16.9224 C   0  0  2  0  0  0  0  0  0  0  0  0
    8.8065  -16.6467   15.6851 N   0  0  0  0  0  0  0  0  0  0  0  0
    8.8421  -15.9484   17.9917 C   0  0  0  0  0  0  0  0  0  0  0  0
   10.0246  -16.3883   18.1010 O   0  0  0  0  0  0  0  0  0  0  0  0
    8.4233  -14.9363   18.8785 N   0  0  0  0  0  0  0  0  0  0  0  0
    7.1581  -14.2467   18.8405 C   0  0  0  0  0  0  0  0  0  0  0  0
    7.6493  -12.8259   19.1956 C   0  0  0  0  0  0  0  0  0  0  0  0
    8.4383  -13.1577   20.4369 C   0  0  0  0  0  0  0  0  0  0  0  0
    9.2006  -14.3995   19.9685 C   0  0  1  0  0  0  0  0  0  0  0  0
    9.2565  -15.3924   21.0934 C   0  0  0  0  0  0  0  0  0  0  0  0
    8.2767  -16.1155   21.4013 O   0  0  0  0  0  0  0  0  0  0  0  0
   12.0753  -16.9523   23.0208 C   0  0  0  0  0  0  0  0  0  0  0  0
   10.6340  -16.5665   22.8587 C   0  0  2  0  0  0  0  0  0  0  0  0
   10.4416  -15.5404   21.8505 N   0  0  0  0  0  0  0  0  0  0  0  0
   10.1026  -16.0353   24.1409 C   0  0  0  0  0  0  0  0  0  0  0  0
    9.7763  -14.8233   24.2210 O   0  0  0  0  0  0  0  0  0  0  0  0
    9.9500  -16.8321   25.2670 O   0  0  0  0  0  0  0  0  0  0  0  0
  2  1  1  1
  2  3  1  0
  4  6  1  0
  4  2  1  0
  4  5  1  6
  6  7  2  0
  8 12  1  0
  8  6  1  0
  9  8  1  0
 10  9  1  0
 10 11  1  0
 11 12  1  0
 12 13  1  1
 13 14  2  0
 13 17  1  0
 16 15  1  1
 16 18  1  0
 17 16  1  0
 18 20  1  0
 19 18  2  0
M  END
$$$$
