TPA.pdb
     RDKit          3D

 20 20  0  0  1  0  0  0  0  0999 V2000
    8.1924  -17.4288   17.2415 C   0  0  0  0  0  0  0  0  0  0  0  0
    9.1204  -16.4756   16.5446 C   0  0  1  0  0  0  0  0  0  0  0  0
    8.9660  -16.6349   15.1864 O   0  0  0  0  0  0  0  0  0  0  0  0
    8.8168  -15.0315   16.9653 C   0  0  2  0  0  0  0  0  0  0  0  0
    9.6346  -14.1666   16.0911 N   0  0  0  0  0  0  0  0  0  0  0  0
    9.2499  -14.8388   18.3736 C   0  0  0  0  0  0  0  0  0  0  0  0
   10.4987  -14.8197   18.5835 O   0  0  0  0  0  0  0  0  0  0  0  0
    8.3867  -14.6764   19.4757 N   0  0  0  0  0  0  0  0  0  0  0  0
    6.9460  -14.6822   19.4315 C   0  0  0  0  0  0  0  0  0  0  0  0
    6.6707  -13.5577   20.4541 C   0  0  0  0  0  0  0  0  0  0  0  0
    7.5224  -14.0649   21.5902 C   0  0  0  0  0  0  0  0  0  0  0  0
    8.7984  -14.4544   20.8401 C   0  0  1  0  0  0  0  0  0  0  0  0
    9.3397  -15.7275   21.4237 C   0  0  0  0  0  0  0  0  0  0  0  0
    8.8988  -16.8575   21.0975 O   0  0  0  0  0  0  0  0  0  0  0  0
   12.4385  -16.6948   23.2629 C   0  0  0  0  0  0  0  0  0  0  0  0
   10.9731  -16.8616   22.9853 C   0  0  2  0  0  0  0  0  0  0  0  0
   10.3834  -15.6832   22.3769 N   0  0  0  0  0  0  0  0  0  0  0  0
   10.2418  -17.1208   24.2528 C   0  0  0  0  0  0  0  0  0  0  0  0
   10.5523  -18.1178   24.9538 O   0  0  0  0  0  0  0  0  0  0  0  0
    9.2177  -16.2973   24.6996 O   0  0  0  0  0  0  0  0  0  0  0  0
  2  1  1  1
  2  3  1  0
  4  6  1  0
  4  2  1  0
  4  5  1  6
  6  7  2  0
  8 12  1  0
  8  6  1  0
  9  8  1  0
 10  9  1  0
 10 11  1  0
 11 12  1  0
 12 13  1  1
 13 14  2  0
 13 17  1  0
 16 15  1  1
 16 18  1  0
 17 16  1  0
 18 20  1  0
 19 18  2  0
M  END
$$$$
