TPA.pdb
     RDKit          3D

 20 20  0  0  1  0  0  0  0  0999 V2000
    6.3955  -18.6470   17.2394 C   0  0  0  0  0  0  0  0  0  0  0  0
    7.2703  -18.0255   18.2901 C   0  0  1  0  0  0  0  0  0  0  0  0
    8.1116  -18.9962   18.7839 O   0  0  0  0  0  0  0  0  0  0  0  0
    8.0694  -16.8576   17.6968 C   0  0  2  0  0  0  0  0  0  0  0  0
    9.0113  -17.4525   16.7274 N   0  0  0  0  0  0  0  0  0  0  0  0
    8.8455  -16.2041   18.7825 C   0  0  0  0  0  0  0  0  0  0  0  0
   10.0491  -16.5738   18.9185 O   0  0  0  0  0  0  0  0  0  0  0  0
    8.3490  -15.2172   19.6575 N   0  0  0  0  0  0  0  0  0  0  0  0
    7.0352  -14.6260   19.6099 C   0  0  0  0  0  0  0  0  0  0  0  0
    7.4163  -13.1683   19.9502 C   0  0  0  0  0  0  0  0  0  0  0  0
    8.2252  -13.4258   21.1963 C   0  0  0  0  0  0  0  0  0  0  0  0
    9.0806  -14.6112   20.7428 C   0  0  1  0  0  0  0  0  0  0  0  0
    9.2090  -15.5848   21.8786 C   0  0  0  0  0  0  0  0  0  0  0  0
    8.2779  -16.3613   22.2071 O   0  0  0  0  0  0  0  0  0  0  0  0
   12.1167  -16.9553   23.8141 C   0  0  0  0  0  0  0  0  0  0  0  0
   10.6594  -16.6282   23.6675 C   0  0  2  0  0  0  0  0  0  0  0  0
   10.4095  -15.6522   22.6227 N   0  0  0  0  0  0  0  0  0  0  0  0
   10.1348  -16.0635   24.9382 C   0  0  0  0  0  0  0  0  0  0  0  0
   10.1389  -16.7708   25.9781 O   0  0  0  0  0  0  0  0  0  0  0  0
    9.6346  -14.7717   25.0246 O   0  0  0  0  0  0  0  0  0  0  0  0
  2  1  1  6
  2  3  1  0
  4  6  1  0
  4  2  1  0
  4  5  1  6
  6  7  2  0
  8 12  1  0
  8  6  1  0
  9  8  1  0
 10  9  1  0
 10 11  1  0
 11 12  1  0
 12 13  1  1
 13 14  2  0
 13 17  1  0
 16 15  1  1
 16 18  1  0
 17 16  1  0
 18 20  1  0
 19 18  2  0
M  END
$$$$
