TPA.pdb
     RDKit          3D

 20 20  0  0  1  0  0  0  0  0999 V2000
    6.8900  -18.2899   19.0272 C   0  0  0  0  0  0  0  0  0  0  0  0
    8.0086  -18.2276   18.0270 C   0  0  1  0  0  0  0  0  0  0  0  0
    7.6014  -18.8704   16.8803 O   0  0  0  0  0  0  0  0  0  0  0  0
    8.3822  -16.7684   17.7343 C   0  0  2  0  0  0  0  0  0  0  0  0
    9.3587  -16.8068   16.6270 N   0  0  0  0  0  0  0  0  0  0  0  0
    9.0389  -16.1892   18.9348 C   0  0  0  0  0  0  0  0  0  0  0  0
   10.2179  -16.5817   19.1791 O   0  0  0  0  0  0  0  0  0  0  0  0
    8.4560  -15.2482   19.8071 N   0  0  0  0  0  0  0  0  0  0  0  0
    7.1117  -14.7346   19.7236 C   0  0  0  0  0  0  0  0  0  0  0  0
    7.3942  -13.2630   20.0987 C   0  0  0  0  0  0  0  0  0  0  0  0
    8.1752  -13.4938   21.3677 C   0  0  0  0  0  0  0  0  0  0  0  0
    9.1140  -14.6188   20.9257 C   0  0  1  0  0  0  0  0  0  0  0  0
    9.2622  -15.6025   22.0505 C   0  0  0  0  0  0  0  0  0  0  0  0
    8.3653  -16.4328   22.3401 O   0  0  0  0  0  0  0  0  0  0  0  0
   12.1895  -16.8281   24.0596 C   0  0  0  0  0  0  0  0  0  0  0  0
   10.7196  -16.6017   23.8587 C   0  0  2  0  0  0  0  0  0  0  0  0
   10.4429  -15.6176   22.8285 N   0  0  0  0  0  0  0  0  0  0  0  0
   10.1039  -16.1110   25.1192 C   0  0  0  0  0  0  0  0  0  0  0  0
   10.1913  -16.8075   26.1628 O   0  0  0  0  0  0  0  0  0  0  0  0
    9.4284  -14.9008   25.1921 O   0  0  0  0  0  0  0  0  0  0  0  0
  2  1  1  1
  2  3  1  0
  4  6  1  0
  4  2  1  0
  4  5  1  6
  6  7  2  0
  8 12  1  0
  8  6  1  0
  9  8  1  0
 10  9  1  0
 10 11  1  0
 11 12  1  0
 12 13  1  1
 13 14  2  0
 13 17  1  0
 16 15  1  1
 16 18  1  0
 17 16  1  0
 18 20  1  0
 19 18  2  0
M  END
$$$$
