TPA.pdb
     RDKit          3D

 20 20  0  0  1  0  0  0  0  0999 V2000
    7.6219  -16.6206   14.6825 C   0  0  0  0  0  0  0  0  0  0  0  0
    8.1379  -16.3944   16.0747 C   0  0  1  0  0  0  0  0  0  0  0  0
    8.7520  -17.5492   16.5026 O   0  0  0  0  0  0  0  0  0  0  0  0
    9.1167  -15.2128   16.0957 C   0  0  2  0  0  0  0  0  0  0  0  0
   10.2836  -15.6294   15.2922 N   0  0  0  0  0  0  0  0  0  0  0  0
    9.5562  -14.9763   17.4953 C   0  0  0  0  0  0  0  0  0  0  0  0
   10.7006  -15.4175   17.8108 O   0  0  0  0  0  0  0  0  0  0  0  0
    8.8057  -14.3058   18.4819 N   0  0  0  0  0  0  0  0  0  0  0  0
    7.4962  -13.7299   18.3047 C   0  0  0  0  0  0  0  0  0  0  0  0
    7.6838  -12.4465   19.1435 C   0  0  0  0  0  0  0  0  0  0  0  0
    8.2100  -13.0730   20.4100 C   0  0  0  0  0  0  0  0  0  0  0  0
    9.2296  -14.0612   19.8387 C   0  0  1  0  0  0  0  0  0  0  0  0
    9.1714  -15.3362   20.6296 C   0  0  0  0  0  0  0  0  0  0  0  0
    8.2642  -16.1891   20.4645 O   0  0  0  0  0  0  0  0  0  0  0  0
   11.2617  -17.7852   21.9196 C   0  0  0  0  0  0  0  0  0  0  0  0
   10.2012  -16.8325   22.3884 C   0  0  2  0  0  0  0  0  0  0  0  0
   10.1601  -15.6133   21.6020 N   0  0  0  0  0  0  0  0  0  0  0  0
   10.4557  -16.4428   23.7998 C   0  0  0  0  0  0  0  0  0  0  0  0
   10.4386  -17.3233   24.6977 O   0  0  0  0  0  0  0  0  0  0  0  0
   10.7145  -15.1309   24.1715 O   0  0  0  0  0  0  0  0  0  0  0  0
  2  1  1  6
  2  3  1  0
  4  6  1  0
  4  2  1  0
  4  5  1  6
  6  7  2  0
  8 12  1  0
  8  6  1  0
  9  8  1  0
 10  9  1  0
 10 11  1  0
 11 12  1  0
 12 13  1  1
 13 14  2  0
 13 17  1  0
 16 15  1  6
 16 18  1  0
 17 16  1  0
 18 20  1  0
 19 18  2  0
M  END
$$$$
