TPA.pdb
     RDKit          3D

 20 20  0  0  1  0  0  0  0  0999 V2000
    5.7910  -13.9329   20.3858 C   0  0  0  0  0  0  0  0  0  0  0  0
    6.6128  -14.2810   21.5937 C   0  0  1  0  0  0  0  0  0  0  0  0
    7.4411  -15.3303   21.2670 O   0  0  0  0  0  0  0  0  0  0  0  0
    7.4257  -13.0641   22.0551 C   0  0  2  0  0  0  0  0  0  0  0  0
    8.4185  -12.8044   20.9931 N   0  0  0  0  0  0  0  0  0  0  0  0
    8.1428  -13.4112   23.3094 C   0  0  0  0  0  0  0  0  0  0  0  0
    9.3274  -13.8406   23.1831 O   0  0  0  0  0  0  0  0  0  0  0  0
    7.6105  -13.2978   24.6094 N   0  0  0  0  0  0  0  0  0  0  0  0
    6.2860  -12.8391   24.9455 C   0  0  0  0  0  0  0  0  0  0  0  0
    6.6310  -12.0141   26.2050 C   0  0  0  0  0  0  0  0  0  0  0  0
    7.4223  -13.0561   26.9542 C   0  0  0  0  0  0  0  0  0  0  0  0
    8.3099  -13.6025   25.8334 C   0  0  1  0  0  0  0  0  0  0  0  0
    8.4376  -15.0902   25.9918 C   0  0  0  0  0  0  0  0  0  0  0  0
    7.4669  -15.8699   25.8257 O   0  0  0  0  0  0  0  0  0  0  0  0
   11.2571  -17.4871   25.8671 C   0  0  0  0  0  0  0  0  0  0  0  0
    9.9212  -17.0912   26.4246 C   0  0  2  0  0  0  0  0  0  0  0  0
    9.6832  -15.6620   26.3399 N   0  0  0  0  0  0  0  0  0  0  0  0
    9.8356  -17.4720   27.8586 C   0  0  0  0  0  0  0  0  0  0  0  0
    9.9080  -18.6852   28.1822 O   0  0  0  0  0  0  0  0  0  0  0  0
    9.6772  -16.5317   28.8671 O   0  0  0  0  0  0  0  0  0  0  0  0
  2  1  1  6
  2  3  1  0
  4  6  1  0
  4  2  1  0
  4  5  1  6
  6  7  2  0
  8 12  1  0
  8  6  1  0
  9  8  1  0
 10  9  1  0
 10 11  1  0
 11 12  1  0
 12 13  1  1
 13 14  2  0
 13 17  1  0
 16 15  1  1
 16 18  1  0
 17 16  1  0
 18 20  1  0
 19 18  2  0
M  END
$$$$
