LYM.pdb
     RDKit          3D

 29 29  0  0  1  0  0  0  0  0999 V2000
    8.1886  -11.9679   19.1798 C   0  0  0  0  0  0  0  0  0  0  0  0
    8.1202  -13.4881   19.2477 C   0  0  2  0  0  0  0  0  0  0  0  0
    7.2862  -14.0725   18.1466 C   0  0  0  0  0  0  0  0  0  0  0  0
    7.6001  -13.8889   20.6203 C   0  0  0  0  0  0  0  0  0  0  0  0
    8.1828  -15.2665   20.9236 C   0  0  2  0  0  0  0  0  0  0  0  0
    7.6097  -16.1999   19.9648 N   0  0  0  0  0  0  0  0  0  0  0  0
    7.9183  -15.6890   22.3030 C   0  0  0  0  0  0  0  0  0  0  0  0
    7.2179  -14.9168   23.0245 O   0  0  0  0  0  0  0  0  0  0  0  0
    8.3225  -21.2582   29.2946 O   0  0  0  0  0  0  0  0  0  0  0  0
    8.2558  -20.6502   28.0533 C   0  0  0  0  0  0  0  0  0  0  0  0
    9.4119  -20.2042   27.4502 C   0  0  0  0  0  0  0  0  0  0  0  0
    9.4131  -19.5892   26.2124 C   0  0  0  0  0  0  0  0  0  0  0  0
    8.2366  -19.3971   25.5253 C   0  0  0  0  0  0  0  0  0  0  0  0
    8.2321  -18.7537   24.2199 C   0  0  0  0  0  0  0  0  0  0  0  0
    8.2616  -17.2675   24.1963 C   0  0  2  0  0  0  0  0  0  0  0  0
    8.4381  -16.9111   22.7736 N   0  0  0  0  0  0  0  0  0  0  0  0
    9.3599  -16.6213   24.9377 C   0  0  0  0  0  0  0  0  0  0  0  0
   10.3008  -16.0278   24.2990 O   0  0  0  0  0  0  0  0  0  0  0  0
    7.0755  -19.8451   26.1313 C   0  0  0  0  0  0  0  0  0  0  0  0
    7.0758  -20.4574   27.3640 C   0  0  0  0  0  0  0  0  0  0  0  0
    6.0690  -12.6913   26.8564 C   0  0  0  0  0  0  0  0  0  0  0  0
    7.6493  -11.7875   26.9443 S   0  0  0  0  0  0  0  0  0  0  0  0
    8.9155  -13.0165   27.4231 C   0  0  0  0  0  0  0  0  0  0  0  0
    8.7389  -14.2956   26.6808 C   0  0  0  0  0  0  0  0  0  0  0  0
    9.8189  -15.3125   27.0420 C   0  0  2  0  0  0  0  0  0  0  0  0
    9.5006  -16.5736   26.3479 N   0  0  0  0  0  0  0  0  0  0  0  0
    9.9933  -15.4886   28.4899 C   0  0  0  0  0  0  0  0  0  0  0  0
    9.3927  -16.4307   29.0629 O   0  0  0  0  0  0  0  0  0  0  0  0
   10.7788  -14.6943   29.3052 O   0  0  0  0  0  0  0  0  0  0  0  0
  2  4  1  0
  2  1  1  1
  3  2  1  0
  5  6  1  6
  5  4  1  0
  7  5  1  0
  7  8  2  0
  9 10  1  0
 10 20  2  0
 10 11  1  0
 11 12  2  0
 12 13  1  0
 13 14  1  0
 15 14  1  6
 16 15  1  0
 16  7  1  0
 17 15  1  0
 17 18  2  0
 19 13  2  0
 20 19  1  0
 22 21  1  0
 22 23  1  0
 23 24  1  0
 25 24  1  1
 25 27  1  0
 26 25  1  0
 26 17  1  0
 27 28  2  0
 27 29  1  0
M  END
$$$$
