LYM.pdb
     RDKit          3D

 29 29  0  0  1  0  0  0  0  0999 V2000
    9.2395  -13.2619   19.1963 C   0  0  0  0  0  0  0  0  0  0  0  0
    7.7492  -13.5764   19.1700 C   0  0  2  0  0  0  0  0  0  0  0  0
    6.9330  -12.4336   18.6435 C   0  0  0  0  0  0  0  0  0  0  0  0
    7.3142  -13.9796   20.5712 C   0  0  0  0  0  0  0  0  0  0  0  0
    8.2616  -15.0883   21.0212 C   0  0  2  0  0  0  0  0  0  0  0  0
    8.0852  -16.2066   20.1063 N   0  0  0  0  0  0  0  0  0  0  0  0
    8.0218  -15.4927   22.4106 C   0  0  0  0  0  0  0  0  0  0  0  0
    7.9238  -14.5718   23.2765 O   0  0  0  0  0  0  0  0  0  0  0  0
    7.2615  -21.5725   28.9403 O   0  0  0  0  0  0  0  0  0  0  0  0
    7.2799  -20.8766   27.7443 C   0  0  0  0  0  0  0  0  0  0  0  0
    6.3364  -19.8999   27.5099 C   0  0  0  0  0  0  0  0  0  0  0  0
    6.3004  -19.1696   26.3369 C   0  0  0  0  0  0  0  0  0  0  0  0
    7.2238  -19.3968   25.3426 C   0  0  0  0  0  0  0  0  0  0  0  0
    7.1933  -18.6283   24.1070 C   0  0  0  0  0  0  0  0  0  0  0  0
    7.7594  -17.2543   24.1489 C   0  0  2  0  0  0  0  0  0  0  0  0
    7.9102  -16.8596   22.7333 N   0  0  0  0  0  0  0  0  0  0  0  0
    9.0860  -17.1102   24.7757 C   0  0  0  0  0  0  0  0  0  0  0  0
    9.9714  -16.3566   24.2339 O   0  0  0  0  0  0  0  0  0  0  0  0
    8.1714  -20.3779   25.5782 C   0  0  0  0  0  0  0  0  0  0  0  0
    8.2060  -21.1044   26.7468 C   0  0  0  0  0  0  0  0  0  0  0  0
    9.8016  -12.4928   27.7788 C   0  0  0  0  0  0  0  0  0  0  0  0
    9.8567  -13.6848   29.1566 S   0  0  0  0  0  0  0  0  0  0  0  0
   10.6527  -15.1928   28.4968 C   0  0  0  0  0  0  0  0  0  0  0  0
    9.8132  -15.8354   27.4477 C   0  0  0  0  0  0  0  0  0  0  0  0
   10.4819  -17.0822   26.8739 C   0  0  2  0  0  0  0  0  0  0  0  0
    9.5164  -17.7371   25.9727 N   0  0  0  0  0  0  0  0  0  0  0  0
   11.0047  -17.9900   27.9038 C   0  0  0  0  0  0  0  0  0  0  0  0
   12.0785  -17.6949   28.4838 O   0  0  0  0  0  0  0  0  0  0  0  0
   10.4099  -19.1713   28.3078 O   0  0  0  0  0  0  0  0  0  0  0  0
  2  4  1  0
  2  1  1  1
  3  2  1  0
  5  6  1  6
  5  4  1  0
  7  5  1  0
  7  8  2  0
  9 10  1  0
 10 20  2  0
 10 11  1  0
 11 12  2  0
 12 13  1  0
 13 14  1  0
 15 14  1  6
 16 15  1  0
 16  7  1  0
 17 15  1  0
 17 18  2  0
 19 13  2  0
 20 19  1  0
 22 21  1  0
 22 23  1  0
 23 24  1  0
 25 24  1  1
 25 27  1  0
 26 25  1  0
 26 17  1  0
 27 28  2  0
 27 29  1  0
M  END
$$$$
