LYM.pdb
     RDKit          3D

 29 29  0  0  1  0  0  0  0  0999 V2000
    9.8301  -13.8234   19.8576 C   0  0  0  0  0  0  0  0  0  0  0  0
    8.4116  -13.6380   19.3342 C   0  0  2  0  0  0  0  0  0  0  0  0
    7.8952  -12.2485   19.5625 C   0  0  0  0  0  0  0  0  0  0  0  0
    7.5159  -14.6841   19.9810 C   0  0  0  0  0  0  0  0  0  0  0  0
    8.3880  -15.9110   20.2331 C   0  0  2  0  0  0  0  0  0  0  0  0
    7.8774  -16.9851   19.3938 N   0  0  0  0  0  0  0  0  0  0  0  0
    8.4026  -16.2999   21.6473 C   0  0  0  0  0  0  0  0  0  0  0  0
    7.2863  -16.3649   22.2450 O   0  0  0  0  0  0  0  0  0  0  0  0
   12.0916  -19.4276   29.1742 O   0  0  0  0  0  0  0  0  0  0  0  0
   11.7418  -19.0426   27.8919 C   0  0  0  0  0  0  0  0  0  0  0  0
   12.6642  -18.3937   27.1000 C   0  0  0  0  0  0  0  0  0  0  0  0
   12.3775  -17.9833   25.8116 C   0  0  0  0  0  0  0  0  0  0  0  0
   11.1365  -18.2130   25.2639 C   0  0  0  0  0  0  0  0  0  0  0  0
   10.8301  -17.7866   23.9064 C   0  0  0  0  0  0  0  0  0  0  0  0
    9.6280  -16.9323   23.7191 C   0  0  2  0  0  0  0  0  0  0  0  0
    9.6273  -16.5827   22.2837 N   0  0  0  0  0  0  0  0  0  0  0  0
    9.6025  -15.6624   24.4677 C   0  0  0  0  0  0  0  0  0  0  0  0
   10.5444  -14.8064   24.3079 O   0  0  0  0  0  0  0  0  0  0  0  0
   10.2101  -18.8648   26.0594 C   0  0  0  0  0  0  0  0  0  0  0  0
   10.4969  -19.2729   27.3423 C   0  0  0  0  0  0  0  0  0  0  0  0
    5.6274  -10.6439   26.5116 C   0  0  0  0  0  0  0  0  0  0  0  0
    6.0180  -11.6241   27.9978 S   0  0  0  0  0  0  0  0  0  0  0  0
    7.6274  -12.4282   27.6718 C   0  0  0  0  0  0  0  0  0  0  0  0
    7.4882  -13.5468   26.6983 C   0  0  0  0  0  0  0  0  0  0  0  0
    8.8418  -14.1541   26.3379 C   0  0  2  0  0  0  0  0  0  0  0  0
    8.6030  -15.2554   25.3875 N   0  0  0  0  0  0  0  0  0  0  0  0
    9.6235  -14.5731   27.5090 C   0  0  0  0  0  0  0  0  0  0  0  0
   10.4051  -13.7483   28.0430 O   0  0  0  0  0  0  0  0  0  0  0  0
    9.5788  -15.8241   28.0968 O   0  0  0  0  0  0  0  0  0  0  0  0
  2  4  1  0
  2  1  1  1
  3  2  1  0
  5  6  1  6
  5  4  1  0
  7  5  1  0
  7  8  2  0
  9 10  1  0
 10 20  2  0
 10 11  1  0
 11 12  2  0
 12 13  1  0
 13 14  1  0
 15 14  1  1
 16 15  1  0
 16  7  1  0
 17 15  1  0
 17 18  2  0
 19 13  2  0
 20 19  1  0
 22 21  1  0
 22 23  1  0
 23 24  1  0
 25 24  1  1
 25 27  1  0
 26 25  1  0
 26 17  1  0
 27 28  2  0
 27 29  1  0
M  END
$$$$
