LYM.pdb
     RDKit          3D

 29 29  0  0  1  0  0  0  0  0999 V2000
    9.5525  -12.8501   19.9248 C   0  0  0  0  0  0  0  0  0  0  0  0
    8.2543  -13.6432   19.8452 C   0  0  2  0  0  0  0  0  0  0  0  0
    7.0424  -12.7724   19.9940 C   0  0  0  0  0  0  0  0  0  0  0  0
    8.2914  -14.7402   20.8990 C   0  0  0  0  0  0  0  0  0  0  0  0
    9.7073  -15.3098   20.8876 C   0  0  2  0  0  0  0  0  0  0  0  0
    9.8046  -16.2055   19.7443 N   0  0  0  0  0  0  0  0  0  0  0  0
   10.0362  -16.0029   22.1378 C   0  0  0  0  0  0  0  0  0  0  0  0
    9.7778  -17.2424   22.2019 O   0  0  0  0  0  0  0  0  0  0  0  0
   11.7358  -15.9973   30.9327 O   0  0  0  0  0  0  0  0  0  0  0  0
   11.6809  -15.7813   29.5669 C   0  0  0  0  0  0  0  0  0  0  0  0
   11.1864  -14.5886   29.0853 C   0  0  0  0  0  0  0  0  0  0  0  0
   11.1047  -14.3113   27.7336 C   0  0  0  0  0  0  0  0  0  0  0  0
   11.5228  -15.2348   26.8033 C   0  0  0  0  0  0  0  0  0  0  0  0
   11.4429  -14.9469   25.3789 C   0  0  0  0  0  0  0  0  0  0  0  0
   10.7346  -15.9370   24.5257 C   0  0  2  0  0  0  0  0  0  0  0  0
   10.6156  -15.2873   23.2043 N   0  0  0  0  0  0  0  0  0  0  0  0
    9.3700  -16.3065   24.9441 C   0  0  0  0  0  0  0  0  0  0  0  0
    9.1934  -17.2709   25.7712 O   0  0  0  0  0  0  0  0  0  0  0  0
   12.0194  -16.4328   27.2873 C   0  0  0  0  0  0  0  0  0  0  0  0
   12.1001  -16.7076   28.6337 C   0  0  0  0  0  0  0  0  0  0  0  0
    6.9609  -11.7285   27.4594 C   0  0  0  0  0  0  0  0  0  0  0  0
    5.6011  -12.9233   27.2465 S   0  0  0  0  0  0  0  0  0  0  0  0
    6.3845  -14.5191   26.8189 C   0  0  0  0  0  0  0  0  0  0  0  0
    6.0497  -14.9330   25.4278 C   0  0  0  0  0  0  0  0  0  0  0  0
    6.8548  -16.1549   24.9925 C   0  0  2  0  0  0  0  0  0  0  0  0
    8.1691  -15.6834   24.5194 N   0  0  0  0  0  0  0  0  0  0  0  0
    6.1599  -16.9889   24.0028 C   0  0  0  0  0  0  0  0  0  0  0  0
    5.0402  -17.4744   24.2980 O   0  0  0  0  0  0  0  0  0  0  0  0
    6.6337  -17.2982   22.7409 O   0  0  0  0  0  0  0  0  0  0  0  0
  2  4  1  0
  2  1  1  1
  3  2  1  0
  5  6  1  6
  5  4  1  0
  7  5  1  0
  7  8  2  0
  9 10  1  0
 10 20  2  0
 10 11  1  0
 11 12  2  0
 12 13  1  0
 13 14  1  0
 15 14  1  1
 16 15  1  0
 16  7  1  0
 17 15  1  0
 17 18  2  0
 19 13  2  0
 20 19  1  0
 22 21  1  0
 22 23  1  0
 23 24  1  0
 25 24  1  6
 25 27  1  0
 26 25  1  0
 26 17  1  0
 27 28  2  0
 27 29  1  0
M  END
$$$$
