LYM.pdb
     RDKit          3D

 29 29  0  0  1  0  0  0  0  0999 V2000
    9.4537  -13.2673   19.4849 C   0  0  0  0  0  0  0  0  0  0  0  0
    8.0040  -13.4886   19.0728 C   0  0  2  0  0  0  0  0  0  0  0  0
    7.3666  -12.2429   18.5333 C   0  0  0  0  0  0  0  0  0  0  0  0
    7.2394  -14.0396   20.2673 C   0  0  0  0  0  0  0  0  0  0  0  0
    8.0924  -15.1614   20.8530 C   0  0  2  0  0  0  0  0  0  0  0  0
    8.1858  -16.2064   19.8440 N   0  0  0  0  0  0  0  0  0  0  0  0
    7.5400  -15.6802   22.1088 C   0  0  0  0  0  0  0  0  0  0  0  0
    7.1999  -14.8336   22.9892 O   0  0  0  0  0  0  0  0  0  0  0  0
    1.6438  -18.8607   20.0144 O   0  0  0  0  0  0  0  0  0  0  0  0
    2.8018  -18.8783   20.7718 C   0  0  0  0  0  0  0  0  0  0  0  0
    2.7367  -18.6113   22.1222 C   0  0  0  0  0  0  0  0  0  0  0  0
    3.8558  -18.6131   22.9335 C   0  0  0  0  0  0  0  0  0  0  0  0
    5.0987  -18.8870   22.4106 C   0  0  0  0  0  0  0  0  0  0  0  0
    6.2800  -18.8941   23.2606 C   0  0  0  0  0  0  0  0  0  0  0  0
    6.8916  -17.5779   23.5827 C   0  0  2  0  0  0  0  0  0  0  0  0
    7.4072  -17.0705   22.2946 N   0  0  0  0  0  0  0  0  0  0  0  0
    8.0288  -17.5948   24.5208 C   0  0  0  0  0  0  0  0  0  0  0  0
    9.1723  -18.0273   24.1325 O   0  0  0  0  0  0  0  0  0  0  0  0
    5.1639  -19.1551   21.0542 C   0  0  0  0  0  0  0  0  0  0  0  0
    4.0486  -19.1530   20.2475 C   0  0  0  0  0  0  0  0  0  0  0  0
    8.8812  -13.4836   29.4432 C   0  0  0  0  0  0  0  0  0  0  0  0
   10.5830  -13.9866   29.0271 S   0  0  0  0  0  0  0  0  0  0  0  0
   10.4578  -15.6560   28.2920 C   0  0  0  0  0  0  0  0  0  0  0  0
    9.3036  -15.7518   27.3555 C   0  0  0  0  0  0  0  0  0  0  0  0
    9.2336  -17.1207   26.6830 C   0  0  2  0  0  0  0  0  0  0  0  0
    8.0041  -17.1614   25.8707 N   0  0  0  0  0  0  0  0  0  0  0  0
    9.3276  -18.2407   27.6289 C   0  0  0  0  0  0  0  0  0  0  0  0
   10.4100  -18.4327   28.2357 O   0  0  0  0  0  0  0  0  0  0  0  0
    8.3090  -19.1282   27.9243 O   0  0  0  0  0  0  0  0  0  0  0  0
  2  4  1  0
  2  1  1  1
  3  2  1  0
  5  6  1  6
  5  4  1  0
  7  5  1  0
  7  8  2  0
  9 10  1  0
 10 20  2  0
 10 11  1  0
 11 12  2  0
 12 13  1  0
 13 14  1  0
 15 14  1  6
 16 15  1  0
 16  7  1  0
 17 15  1  0
 17 18  2  0
 19 13  2  0
 20 19  1  0
 22 21  1  0
 22 23  1  0
 23 24  1  0
 25 24  1  1
 25 27  1  0
 26 25  1  0
 26 17  1  0
 27 28  2  0
 27 29  1  0
M  END
$$$$
