LYM.pdb
     RDKit          3D

 29 29  0  0  1  0  0  0  0  0999 V2000
    9.6124  -13.6986   18.5580 C   0  0  0  0  0  0  0  0  0  0  0  0
    8.1216  -13.7183   18.8706 C   0  0  2  0  0  0  0  0  0  0  0  0
    7.4949  -12.3608   18.7529 C   0  0  0  0  0  0  0  0  0  0  0  0
    7.9254  -14.3099   20.2586 C   0  0  0  0  0  0  0  0  0  0  0  0
    8.5236  -15.7135   20.2244 C   0  0  2  0  0  0  0  0  0  0  0  0
    7.7073  -16.5103   19.3202 N   0  0  0  0  0  0  0  0  0  0  0  0
    8.5903  -16.3205   21.5580 C   0  0  0  0  0  0  0  0  0  0  0  0
    7.5139  -16.7843   22.0413 O   0  0  0  0  0  0  0  0  0  0  0  0
   12.1994  -20.6411   28.3892 O   0  0  0  0  0  0  0  0  0  0  0  0
   11.8749  -19.9847   27.2150 C   0  0  0  0  0  0  0  0  0  0  0  0
   12.7276  -19.0257   26.7127 C   0  0  0  0  0  0  0  0  0  0  0  0
   12.4615  -18.3345   25.5456 C   0  0  0  0  0  0  0  0  0  0  0  0
   11.3130  -18.5849   24.8304 C   0  0  0  0  0  0  0  0  0  0  0  0
   11.0294  -17.8631   23.5989 C   0  0  0  0  0  0  0  0  0  0  0  0
    9.8606  -16.9444   23.6052 C   0  0  2  0  0  0  0  0  0  0  0  0
    9.8193  -16.3688   22.2453 N   0  0  0  0  0  0  0  0  0  0  0  0
    9.9218  -15.8114   24.5466 C   0  0  0  0  0  0  0  0  0  0  0  0
   10.7470  -14.8513   24.3396 O   0  0  0  0  0  0  0  0  0  0  0  0
   10.4567  -19.5482   25.3352 C   0  0  0  0  0  0  0  0  0  0  0  0
   10.7230  -20.2357   26.4975 C   0  0  0  0  0  0  0  0  0  0  0  0
    6.2413  -10.9754   27.2747 C   0  0  0  0  0  0  0  0  0  0  0  0
    5.9066  -12.3481   26.1232 S   0  0  0  0  0  0  0  0  0  0  0  0
    7.5235  -13.1249   25.7694 C   0  0  0  0  0  0  0  0  0  0  0  0
    8.0354  -13.8753   26.9498 C   0  0  0  0  0  0  0  0  0  0  0  0
    9.3755  -14.5451   26.6560 C   0  0  2  0  0  0  0  0  0  0  0  0
    9.1295  -15.6500   25.7115 N   0  0  0  0  0  0  0  0  0  0  0  0
   10.0884  -14.9786   27.8651 C   0  0  0  0  0  0  0  0  0  0  0  0
   10.0126  -16.1821   28.2150 O   0  0  0  0  0  0  0  0  0  0  0  0
   10.8575  -14.1653   28.6771 O   0  0  0  0  0  0  0  0  0  0  0  0
  2  4  1  0
  2  1  1  1
  3  2  1  0
  5  6  1  6
  5  4  1  0
  7  5  1  0
  7  8  2  0
  9 10  1  0
 10 20  2  0
 10 11  1  0
 11 12  2  0
 12 13  1  0
 13 14  1  0
 15 14  1  6
 16 15  1  0
 16  7  1  0
 17 15  1  0
 17 18  2  0
 19 13  2  0
 20 19  1  0
 22 21  1  0
 22 23  1  0
 23 24  1  0
 25 24  1  1
 25 27  1  0
 26 25  1  0
 26 17  1  0
 27 28  2  0
 27 29  1  0
M  END
$$$$
