LYM.pdb
     RDKit          3D

 29 29  0  0  1  0  0  0  0  0999 V2000
    9.6822  -21.3086   20.2904 C   0  0  0  0  0  0  0  0  0  0  0  0
   11.0323  -20.6479   20.0430 C   0  0  2  0  0  0  0  0  0  0  0  0
   12.1789  -21.5867   20.2737 C   0  0  0  0  0  0  0  0  0  0  0  0
   11.1339  -19.4096   20.9213 C   0  0  0  0  0  0  0  0  0  0  0  0
    9.9770  -18.4963   20.5252 C   0  0  2  0  0  0  0  0  0  0  0  0
   10.1024  -18.2320   19.0993 N   0  0  0  0  0  0  0  0  0  0  0  0
    9.9637  -17.2507   21.2996 C   0  0  0  0  0  0  0  0  0  0  0  0
   11.0021  -16.5248   21.2530 O   0  0  0  0  0  0  0  0  0  0  0  0
    6.0990  -11.4536   26.9399 O   0  0  0  0  0  0  0  0  0  0  0  0
    6.4214  -12.3769   25.9608 C   0  0  0  0  0  0  0  0  0  0  0  0
    6.1826  -13.7159   26.1822 C   0  0  0  0  0  0  0  0  0  0  0  0
    6.4817  -14.6875   25.2456 C   0  0  0  0  0  0  0  0  0  0  0  0
    7.0392  -14.3446   24.0354 C   0  0  0  0  0  0  0  0  0  0  0  0
    7.3527  -15.3628   23.0437 C   0  0  0  0  0  0  0  0  0  0  0  0
    8.7900  -15.6047   22.7513 C   0  0  2  0  0  0  0  0  0  0  0  0
    8.8245  -16.9066   22.0539 N   0  0  0  0  0  0  0  0  0  0  0  0
    9.6861  -15.7208   23.9163 C   0  0  0  0  0  0  0  0  0  0  0  0
   10.2280  -14.6700   24.4140 O   0  0  0  0  0  0  0  0  0  0  0  0
    7.2790  -12.9996   23.8132 C   0  0  0  0  0  0  0  0  0  0  0  0
    6.9807  -12.0332   24.7468 C   0  0  0  0  0  0  0  0  0  0  0  0
   10.1731  -13.1856   28.6531 C   0  0  0  0  0  0  0  0  0  0  0  0
    9.9301  -14.8625   29.3248 S   0  0  0  0  0  0  0  0  0  0  0  0
   10.7608  -16.0042   28.1632 C   0  0  0  0  0  0  0  0  0  0  0  0
   10.0715  -16.0324   26.8432 C   0  0  0  0  0  0  0  0  0  0  0  0
   10.8189  -16.9004   25.8338 C   0  0  2  0  0  0  0  0  0  0  0  0
   10.0319  -16.9211   24.5874 N   0  0  0  0  0  0  0  0  0  0  0  0
   11.1246  -18.2467   26.3357 C   0  0  0  0  0  0  0  0  0  0  0  0
   11.8667  -18.3648   27.3416 O   0  0  0  0  0  0  0  0  0  0  0  0
   10.6593  -19.4299   25.7916 O   0  0  0  0  0  0  0  0  0  0  0  0
  2  4  1  0
  2  1  1  1
  3  2  1  0
  5  6  1  6
  5  4  1  0
  7  5  1  0
  7  8  2  0
  9 10  1  0
 10 20  2  0
 10 11  1  0
 11 12  2  0
 12 13  1  0
 13 14  1  0
 15 14  1  1
 16 15  1  0
 16  7  1  0
 17 15  1  0
 17 18  2  0
 19 13  2  0
 20 19  1  0
 22 21  1  0
 22 23  1  0
 23 24  1  0
 25 24  1  1
 25 27  1  0
 26 25  1  0
 26 17  1  0
 27 28  2  0
 27 29  1  0
M  END
$$$$
