LYM.pdb
     RDKit          3D

 29 29  0  0  1  0  0  0  0  0999 V2000
    7.1919  -12.4976   20.7210 C   0  0  0  0  0  0  0  0  0  0  0  0
    8.1079  -13.5753   20.1551 C   0  0  2  0  0  0  0  0  0  0  0  0
    8.6411  -13.2182   18.7995 C   0  0  0  0  0  0  0  0  0  0  0  0
    7.3482  -14.8934   20.1312 C   0  0  0  0  0  0  0  0  0  0  0  0
    8.3157  -15.9461   19.5973 C   0  0  2  0  0  0  0  0  0  0  0  0
    7.5516  -16.8421   18.7416 N   0  0  0  0  0  0  0  0  0  0  0  0
    8.9862  -16.6807   20.6753 C   0  0  0  0  0  0  0  0  0  0  0  0
    8.3692  -17.6669   21.1794 O   0  0  0  0  0  0  0  0  0  0  0  0
   15.9637  -20.1397   24.8898 O   0  0  0  0  0  0  0  0  0  0  0  0
   15.0548  -19.4375   24.1178 C   0  0  0  0  0  0  0  0  0  0  0  0
   15.3898  -18.1902   23.6370 C   0  0  0  0  0  0  0  0  0  0  0  0
   14.5277  -17.4382   22.8613 C   0  0  0  0  0  0  0  0  0  0  0  0
   13.2801  -17.9184   22.5354 C   0  0  0  0  0  0  0  0  0  0  0  0
   12.3696  -17.1328   21.7157 C   0  0  0  0  0  0  0  0  0  0  0  0
   10.9509  -17.0632   22.1544 C   0  0  2  0  0  0  0  0  0  0  0  0
   10.2651  -16.2778   21.1079 N   0  0  0  0  0  0  0  0  0  0  0  0
   10.6933  -16.3826   23.4366 C   0  0  0  0  0  0  0  0  0  0  0  0
   11.3496  -16.7229   24.4849 O   0  0  0  0  0  0  0  0  0  0  0  0
   12.9439  -19.1713   23.0185 C   0  0  0  0  0  0  0  0  0  0  0  0
   13.8035  -19.9190   23.7909 C   0  0  0  0  0  0  0  0  0  0  0  0
    6.8051  -10.8337   27.0192 C   0  0  0  0  0  0  0  0  0  0  0  0
    6.3385  -12.3259   26.0824 S   0  0  0  0  0  0  0  0  0  0  0  0
    7.7429  -13.4865   26.2362 C   0  0  0  0  0  0  0  0  0  0  0  0
    8.1614  -14.0118   24.9068 C   0  0  0  0  0  0  0  0  0  0  0  0
    9.3815  -14.9228   25.0177 C   0  0  2  0  0  0  0  0  0  0  0  0
    9.7591  -15.3383   23.6546 N   0  0  0  0  0  0  0  0  0  0  0  0
    9.1789  -16.0613   25.9237 C   0  0  0  0  0  0  0  0  0  0  0  0
    9.5861  -15.9737   27.1082 O   0  0  0  0  0  0  0  0  0  0  0  0
    8.5642  -17.2537   25.5876 O   0  0  0  0  0  0  0  0  0  0  0  0
  2  4  1  0
  2  1  1  6
  3  2  1  0
  5  6  1  6
  5  4  1  0
  7  5  1  0
  7  8  2  0
  9 10  1  0
 10 20  2  0
 10 11  1  0
 11 12  2  0
 12 13  1  0
 13 14  1  0
 15 14  1  6
 16 15  1  0
 16  7  1  0
 17 15  1  0
 17 18  2  0
 19 13  2  0
 20 19  1  0
 22 21  1  0
 22 23  1  0
 23 24  1  0
 25 24  1  6
 25 27  1  0
 26 25  1  0
 26 17  1  0
 27 28  2  0
 27 29  1  0
M  END
$$$$
