LYM.pdb
     RDKit          3D

 29 29  0  0  1  0  0  0  0  0999 V2000
    9.6695  -13.1210   19.1074 C   0  0  0  0  0  0  0  0  0  0  0  0
    8.1787  -13.3088   18.8573 C   0  0  2  0  0  0  0  0  0  0  0  0
    7.3995  -12.0453   19.0714 C   0  0  0  0  0  0  0  0  0  0  0  0
    7.6765  -14.4367   19.7466 C   0  0  0  0  0  0  0  0  0  0  0  0
    8.6635  -15.5901   19.5892 C   0  0  2  0  0  0  0  0  0  0  0  0
    8.1857  -16.4229   18.4951 N   0  0  0  0  0  0  0  0  0  0  0  0
    8.8111  -16.3661   20.8252 C   0  0  0  0  0  0  0  0  0  0  0  0
    7.7665  -16.8999   21.3060 O   0  0  0  0  0  0  0  0  0  0  0  0
   11.2598  -22.7639   19.5692 O   0  0  0  0  0  0  0  0  0  0  0  0
   11.2925  -21.6198   20.3472 C   0  0  0  0  0  0  0  0  0  0  0  0
   11.7281  -20.4340   19.7966 C   0  0  0  0  0  0  0  0  0  0  0  0
   11.7848  -19.2572   20.5195 C   0  0  0  0  0  0  0  0  0  0  0  0
   11.4005  -19.2281   21.8403 C   0  0  0  0  0  0  0  0  0  0  0  0
   11.4544  -17.9912   22.6053 C   0  0  0  0  0  0  0  0  0  0  0  0
   10.1967  -17.2060   22.7143 C   0  0  2  0  0  0  0  0  0  0  0  0
   10.0791  -16.4918   21.4264 N   0  0  0  0  0  0  0  0  0  0  0  0
   10.1516  -16.1833   23.7752 C   0  0  0  0  0  0  0  0  0  0  0  0
   11.0032  -15.2240   23.7759 O   0  0  0  0  0  0  0  0  0  0  0  0
   10.9631  -20.4194   22.3931 C   0  0  0  0  0  0  0  0  0  0  0  0
   10.9071  -21.5905   21.6720 C   0  0  0  0  0  0  0  0  0  0  0  0
    7.2387  -11.6602   27.2762 C   0  0  0  0  0  0  0  0  0  0  0  0
    6.0095  -12.8783   26.7038 S   0  0  0  0  0  0  0  0  0  0  0  0
    6.9478  -14.3857   26.2676 C   0  0  0  0  0  0  0  0  0  0  0  0
    8.2326  -14.0496   25.5934 C   0  0  0  0  0  0  0  0  0  0  0  0
    9.3124  -15.0889   25.8846 C   0  0  2  0  0  0  0  0  0  0  0  0
    9.2247  -16.1326   24.8472 N   0  0  0  0  0  0  0  0  0  0  0  0
    9.2449  -15.6341   27.2470 C   0  0  0  0  0  0  0  0  0  0  0  0
    8.6908  -16.7461   27.4283 O   0  0  0  0  0  0  0  0  0  0  0  0
    9.7485  -15.0231   28.3808 O   0  0  0  0  0  0  0  0  0  0  0  0
  2  4  1  0
  2  1  1  1
  3  2  1  0
  5  6  1  6
  5  4  1  0
  7  5  1  0
  7  8  2  0
  9 10  1  0
 10 20  2  0
 10 11  1  0
 11 12  2  0
 12 13  1  0
 13 14  1  0
 15 14  1  6
 16 15  1  0
 16  7  1  0
 17 15  1  0
 17 18  2  0
 19 13  2  0
 20 19  1  0
 22 21  1  0
 22 23  1  0
 23 24  1  0
 25 24  1  6
 25 27  1  0
 26 25  1  0
 26 17  1  0
 27 28  2  0
 27 29  1  0
M  END
$$$$
