QSF.pdb
     RDKit          3D

 27 27  0  0  1  0  0  0  0  0999 V2000
    7.1665  -14.5558   15.9846 N   0  0  0  0  0  0  0  0  0  0  0  0
    8.0739  -13.4749   16.1339 C   0  0  0  0  0  0  0  0  0  0  0  0
    8.5327  -12.9460   15.0976 O   0  0  0  0  0  0  0  0  0  0  0  0
    8.4608  -12.9927   17.4553 C   0  0  0  0  0  0  0  0  0  0  0  0
    7.9689  -13.8090   18.5960 C   0  0  0  0  0  0  0  0  0  0  0  0
    8.9780  -14.6740   19.2700 C   0  0  2  0  0  0  0  0  0  0  0  0
    9.5648  -15.6594   18.3902 N   0  0  0  0  0  0  0  0  0  0  0  0
    8.2900  -15.3894   20.3732 C   0  0  0  0  0  0  0  0  0  0  0  0
    7.0538  -15.6415   20.3332 O   0  0  0  0  0  0  0  0  0  0  0  0
   10.2178  -18.1852   22.1504 O   0  0  0  0  0  0  0  0  0  0  0  0
    8.8403  -18.0506   22.2796 C   0  0  0  0  0  0  0  0  0  0  0  0
    8.4487  -16.6043   22.5693 C   0  0  2  0  0  0  0  0  0  0  0  0
    9.0091  -15.8064   21.4997 N   0  0  0  0  0  0  0  0  0  0  0  0
    9.0398  -16.1420   23.8474 C   0  0  0  0  0  0  0  0  0  0  0  0
   10.1842  -15.5917   23.8263 O   0  0  0  0  0  0  0  0  0  0  0  0
    8.3434  -16.3102   25.0673 N   0  0  0  0  0  0  0  0  0  0  0  0
    8.9592  -15.8472   26.2990 C   0  0  1  0  0  0  0  0  0  0  0  0
    7.8509  -15.2022   27.1101 C   0  0  0  0  0  0  0  0  0  0  0  0
    7.4350  -13.8873   26.6223 C   0  0  0  0  0  0  0  0  0  0  0  0
    8.2455  -12.8017   26.8126 C   0  0  0  0  0  0  0  0  0  0  0  0
    7.8429  -11.5700   26.3420 C   0  0  0  0  0  0  0  0  0  0  0  0
    6.6397  -11.4559   25.6931 C   0  0  0  0  0  0  0  0  0  0  0  0
    5.8302  -12.5554   25.5065 C   0  0  0  0  0  0  0  0  0  0  0  0
    6.2073  -13.7795   25.9621 C   0  0  0  0  0  0  0  0  0  0  0  0
    9.5141  -17.0005   27.0166 C   0  0  0  0  0  0  0  0  0  0  0  0
    9.2323  -18.1787   26.6743 O   0  0  0  0  0  0  0  0  0  0  0  0
   10.3725  -16.8667   28.1013 O   0  0  0  0  0  0  0  0  0  0  0  0
  1  2  1  0
  2  4  1  0
  2  3  2  0
  4  5  1  0
  6  8  1  0
  6  5  1  0
  6  7  1  6
  8 13  1  0
  9  8  2  0
 10 11  1  0
 12 11  1  6
 12 14  1  0
 13 12  1  0
 14 16  1  0
 14 15  2  0
 16 17  1  0
 17 25  1  0
 18 19  1  0
 17 18  1  1
 19 20  2  0
 19 24  1  0
 20 21  1  0
 21 22  2  0
 23 22  1  0
 24 23  2  0
 25 26  2  0
 25 27  1  0
M  END
$$$$
