QSF.pdb
     RDKit          3D

 27 27  0  0  1  0  0  0  0  0999 V2000
    9.8511  -12.9933   18.8993 N   0  0  0  0  0  0  0  0  0  0  0  0
    8.6379  -12.9686   18.1633 C   0  0  0  0  0  0  0  0  0  0  0  0
    8.6865  -12.6214   16.9628 O   0  0  0  0  0  0  0  0  0  0  0  0
    7.3711  -13.3373   18.7857 C   0  0  0  0  0  0  0  0  0  0  0  0
    7.4784  -13.8838   20.1638 C   0  0  0  0  0  0  0  0  0  0  0  0
    8.2022  -15.1789   20.3041 C   0  0  2  0  0  0  0  0  0  0  0  0
    7.7631  -16.1838   19.3624 N   0  0  0  0  0  0  0  0  0  0  0  0
    7.9501  -15.6873   21.6752 C   0  0  0  0  0  0  0  0  0  0  0  0
    6.8003  -15.6551   22.1954 O   0  0  0  0  0  0  0  0  0  0  0  0
   10.8426  -18.0988   23.1620 O   0  0  0  0  0  0  0  0  0  0  0  0
    9.5203  -18.2534   23.5620 C   0  0  0  0  0  0  0  0  0  0  0  0
    8.8198  -16.9042   23.6968 C   0  0  2  0  0  0  0  0  0  0  0  0
    8.9989  -16.2220   22.4329 N   0  0  0  0  0  0  0  0  0  0  0  0
    9.4517  -16.0835   24.7569 C   0  0  0  0  0  0  0  0  0  0  0  0
   10.4554  -15.3661   24.4559 O   0  0  0  0  0  0  0  0  0  0  0  0
    8.9470  -16.0987   26.0785 N   0  0  0  0  0  0  0  0  0  0  0  0
    9.6224  -15.3155   27.0989 C   0  0  1  0  0  0  0  0  0  0  0  0
    8.5329  -14.5882   27.8646 C   0  0  0  0  0  0  0  0  0  0  0  0
    7.8362  -13.5610   27.0905 C   0  0  0  0  0  0  0  0  0  0  0  0
    8.4451  -12.3603   26.8472 C   0  0  0  0  0  0  0  0  0  0  0  0
    7.7785  -11.4041   26.1110 C   0  0  0  0  0  0  0  0  0  0  0  0
    6.5197  -11.6735   25.6372 C   0  0  0  0  0  0  0  0  0  0  0  0
    5.9147  -12.8861   25.8878 C   0  0  0  0  0  0  0  0  0  0  0  0
    6.5535  -13.8435   26.6114 C   0  0  0  0  0  0  0  0  0  0  0  0
   10.3547  -16.2235   27.9888 C   0  0  0  0  0  0  0  0  0  0  0  0
   11.0222  -15.7852   28.9620 O   0  0  0  0  0  0  0  0  0  0  0  0
   10.3566  -17.6025   27.8166 O   0  0  0  0  0  0  0  0  0  0  0  0
  1  2  1  0
  2  4  1  0
  2  3  2  0
  4  5  1  0
  6  8  1  0
  6  5  1  0
  6  7  1  6
  8 13  1  0
  9  8  2  0
 10 11  1  0
 12 11  1  6
 12 14  1  0
 13 12  1  0
 14 16  1  0
 14 15  2  0
 16 17  1  0
 17 25  1  0
 18 19  1  0
 17 18  1  1
 19 20  2  0
 19 24  1  0
 20 21  1  0
 21 22  2  0
 23 22  1  0
 24 23  2  0
 25 26  2  0
 25 27  1  0
M  END
$$$$
