QSF.pdb
     RDKit          3D

 27 27  0  0  1  0  0  0  0  0999 V2000
    7.2219  -15.2101   16.2842 N   0  0  0  0  0  0  0  0  0  0  0  0
    7.6696  -13.8744   16.1128 C   0  0  0  0  0  0  0  0  0  0  0  0
    7.9819  -13.5032   14.9601 O   0  0  0  0  0  0  0  0  0  0  0  0
    7.7629  -12.9596   17.2453 C   0  0  0  0  0  0  0  0  0  0  0  0
    7.4287  -13.5522   18.5668 C   0  0  0  0  0  0  0  0  0  0  0  0
    8.5264  -13.5759   19.5745 C   0  0  2  0  0  0  0  0  0  0  0  0
    9.7963  -13.9958   19.0262 N   0  0  0  0  0  0  0  0  0  0  0  0
    8.1397  -14.5375   20.6364 C   0  0  0  0  0  0  0  0  0  0  0  0
    7.0709  -14.4063   21.2951 O   0  0  0  0  0  0  0  0  0  0  0  0
    9.1690  -18.9662   22.3378 O   0  0  0  0  0  0  0  0  0  0  0  0
    9.3711  -17.9185   21.4468 C   0  0  0  0  0  0  0  0  0  0  0  0
    8.6294  -16.6610   21.8914 C   0  0  2  0  0  0  0  0  0  0  0  0
    8.9654  -15.6279   20.9349 N   0  0  0  0  0  0  0  0  0  0  0  0
    9.0916  -16.2189   23.2284 C   0  0  0  0  0  0  0  0  0  0  0  0
   10.1970  -15.6001   23.3178 O   0  0  0  0  0  0  0  0  0  0  0  0
    8.3170  -16.4810   24.3829 N   0  0  0  0  0  0  0  0  0  0  0  0
    8.7815  -15.9893   25.6687 C   0  0  1  0  0  0  0  0  0  0  0  0
    7.5473  -15.5084   26.4090 C   0  0  0  0  0  0  0  0  0  0  0  0
    7.3131  -14.0675   26.3164 C   0  0  0  0  0  0  0  0  0  0  0  0
    6.0333  -13.5853   26.2829 C   0  0  0  0  0  0  0  0  0  0  0  0
    5.8282  -12.2245   26.2015 C   0  0  0  0  0  0  0  0  0  0  0  0
    6.9088  -11.3808   26.1556 C   0  0  0  0  0  0  0  0  0  0  0  0
    8.1943  -11.8762   26.1897 C   0  0  0  0  0  0  0  0  0  0  0  0
    8.4199  -13.2144   26.2699 C   0  0  0  0  0  0  0  0  0  0  0  0
    9.4188  -17.0915   26.3978 C   0  0  0  0  0  0  0  0  0  0  0  0
   10.0036  -16.8956   27.4953 O   0  0  0  0  0  0  0  0  0  0  0  0
    9.4161  -18.4003   25.9307 O   0  0  0  0  0  0  0  0  0  0  0  0
  1  2  1  0
  2  4  1  0
  2  3  2  0
  4  5  1  0
  6  8  1  0
  6  5  1  0
  6  7  1  6
  8 13  1  0
  9  8  2  0
 10 11  1  0
 12 11  1  6
 12 14  1  0
 13 12  1  0
 14 16  1  0
 14 15  2  0
 16 17  1  0
 17 25  1  0
 18 19  1  0
 17 18  1  1
 19 20  2  0
 19 24  1  0
 20 21  1  0
 21 22  2  0
 23 22  1  0
 24 23  2  0
 25 26  2  0
 25 27  1  0
M  END
$$$$
