QSF.pdb
     RDKit          3D

 27 27  0  0  1  0  0  0  0  0999 V2000
   13.3837  -15.4627   19.2224 N   0  0  0  0  0  0  0  0  0  0  0  0
   13.0060  -14.3824   18.3831 C   0  0  0  0  0  0  0  0  0  0  0  0
   13.9099  -13.7647   17.7786 O   0  0  0  0  0  0  0  0  0  0  0  0
   11.6061  -14.0023   18.2279 C   0  0  0  0  0  0  0  0  0  0  0  0
   10.6318  -14.8712   18.9386 C   0  0  0  0  0  0  0  0  0  0  0  0
    9.1907  -14.5622   18.7179 C   0  0  2  0  0  0  0  0  0  0  0  0
    8.9716  -13.2827   18.0819 N   0  0  0  0  0  0  0  0  0  0  0  0
    8.5286  -14.5388   20.0457 C   0  0  0  0  0  0  0  0  0  0  0  0
    8.6859  -13.5790   20.8503 O   0  0  0  0  0  0  0  0  0  0  0  0
    6.6254  -18.0142   21.4261 O   0  0  0  0  0  0  0  0  0  0  0  0
    5.9906  -16.7886   21.5915 C   0  0  0  0  0  0  0  0  0  0  0  0
    7.0015  -15.6509   21.7055 C   0  0  2  0  0  0  0  0  0  0  0  0
    7.7024  -15.5978   20.4403 N   0  0  0  0  0  0  0  0  0  0  0  0
    7.9938  -15.9295   22.7706 C   0  0  0  0  0  0  0  0  0  0  0  0
    9.0816  -16.5040   22.4556 O   0  0  0  0  0  0  0  0  0  0  0  0
    7.7347  -15.5628   24.1122 N   0  0  0  0  0  0  0  0  0  0  0  0
    8.7245  -15.8714   25.1300 C   0  0  1  0  0  0  0  0  0  0  0  0
    9.1554  -14.5409   25.7186 C   0  0  0  0  0  0  0  0  0  0  0  0
    8.0487  -13.6495   26.0657 C   0  0  0  0  0  0  0  0  0  0  0  0
    7.3043  -13.0690   25.0755 C   0  0  0  0  0  0  0  0  0  0  0  0
    6.2607  -12.2359   25.4180 C   0  0  0  0  0  0  0  0  0  0  0  0
    5.9885  -12.0047   26.7425 C   0  0  0  0  0  0  0  0  0  0  0  0
    6.7443  -12.5940   27.7327 C   0  0  0  0  0  0  0  0  0  0  0  0
    7.7780  -13.4190   27.4179 C   0  0  0  0  0  0  0  0  0  0  0  0
    8.1020  -16.7097   26.1607 C   0  0  0  0  0  0  0  0  0  0  0  0
    8.7612  -17.1247   27.1496 O   0  0  0  0  0  0  0  0  0  0  0  0
    6.7666  -17.0913   26.1113 O   0  0  0  0  0  0  0  0  0  0  0  0
  1  2  1  0
  2  4  1  0
  2  3  2  0
  4  5  1  0
  6  8  1  0
  6  5  1  0
  6  7  1  1
  8 13  1  0
  9  8  2  0
 10 11  1  0
 12 11  1  6
 12 14  1  0
 13 12  1  0
 14 16  1  0
 14 15  2  0
 16 17  1  0
 17 25  1  0
 18 19  1  0
 17 18  1  1
 19 20  2  0
 19 24  1  0
 20 21  1  0
 21 22  2  0
 23 22  1  0
 24 23  2  0
 25 26  2  0
 25 27  1  0
M  END
$$$$
