QSF.pdb
     RDKit          3D

 27 27  0  0  1  0  0  0  0  0999 V2000
    9.1374  -12.3297   19.2299 N   0  0  0  0  0  0  0  0  0  0  0  0
    8.5609  -12.3376   20.5266 C   0  0  0  0  0  0  0  0  0  0  0  0
    8.7647  -11.3496   21.2658 O   0  0  0  0  0  0  0  0  0  0  0  0
    7.7537  -13.4627   20.9858 C   0  0  0  0  0  0  0  0  0  0  0  0
    7.6256  -14.5855   20.0202 C   0  0  0  0  0  0  0  0  0  0  0  0
    6.8937  -15.7900   20.5044 C   0  0  2  0  0  0  0  0  0  0  0  0
    5.4875  -15.5490   20.7368 N   0  0  0  0  0  0  0  0  0  0  0  0
    7.5112  -16.2038   21.7887 C   0  0  0  0  0  0  0  0  0  0  0  0
    6.8512  -16.2348   22.8643 O   0  0  0  0  0  0  0  0  0  0  0  0
   11.6673  -16.8419   22.0566 O   0  0  0  0  0  0  0  0  0  0  0  0
   10.7838  -17.8512   22.4215 C   0  0  0  0  0  0  0  0  0  0  0  0
    9.4702  -17.2767   22.9443 C   0  0  2  0  0  0  0  0  0  0  0  0
    8.8604  -16.5745   21.8352 N   0  0  0  0  0  0  0  0  0  0  0  0
    9.7155  -16.2983   24.0301 C   0  0  0  0  0  0  0  0  0  0  0  0
    9.5998  -15.0600   23.7731 O   0  0  0  0  0  0  0  0  0  0  0  0
   10.0716  -16.7346   25.3280 N   0  0  0  0  0  0  0  0  0  0  0  0
    9.7192  -15.9084   26.4698 C   0  0  1  0  0  0  0  0  0  0  0  0
    8.2052  -15.8080   26.4687 C   0  0  0  0  0  0  0  0  0  0  0  0
    7.6927  -14.4379   26.4779 C   0  0  0  0  0  0  0  0  0  0  0  0
    8.4999  -13.4106   26.8836 C   0  0  0  0  0  0  0  0  0  0  0  0
    8.0049  -12.1239   26.8812 C   0  0  0  0  0  0  0  0  0  0  0  0
    6.7149  -11.8980   26.4732 C   0  0  0  0  0  0  0  0  0  0  0  0
    5.9095  -12.9396   26.0665 C   0  0  0  0  0  0  0  0  0  0  0  0
    6.3768  -14.2162   26.0607 C   0  0  0  0  0  0  0  0  0  0  0  0
   10.1879  -16.5650   27.6953 C   0  0  0  0  0  0  0  0  0  0  0  0
   10.1355  -17.8160   27.8258 O   0  0  0  0  0  0  0  0  0  0  0  0
   10.7116  -15.8586   28.7714 O   0  0  0  0  0  0  0  0  0  0  0  0
  1  2  1  0
  2  4  1  0
  2  3  2  0
  4  5  1  0
  6  8  1  0
  6  5  1  0
  6  7  1  1
  8 13  1  0
  9  8  2  0
 10 11  1  0
 12 11  1  6
 12 14  1  0
 13 12  1  0
 14 16  1  0
 14 15  2  0
 16 17  1  0
 17 25  1  0
 18 19  1  0
 17 18  1  1
 19 20  2  0
 19 24  1  0
 20 21  1  0
 21 22  2  0
 23 22  1  0
 24 23  2  0
 25 26  2  0
 25 27  1  0
M  END
$$$$
