QSF.pdb
     RDKit          3D

 27 27  0  0  1  0  0  0  0  0999 V2000
    7.3173  -12.5642   17.2973 N   0  0  0  0  0  0  0  0  0  0  0  0
    7.8850  -13.8328   17.0103 C   0  0  0  0  0  0  0  0  0  0  0  0
    7.5496  -14.3992   15.9469 O   0  0  0  0  0  0  0  0  0  0  0  0
    8.8321  -14.4592   17.9262 C   0  0  0  0  0  0  0  0  0  0  0  0
    9.0311  -13.7472   19.2156 C   0  0  0  0  0  0  0  0  0  0  0  0
   10.0089  -14.3571   20.1605 C   0  0  2  0  0  0  0  0  0  0  0  0
   10.7668  -15.4412   19.5776 N   0  0  0  0  0  0  0  0  0  0  0  0
    9.2437  -14.8941   21.3130 C   0  0  0  0  0  0  0  0  0  0  0  0
    8.3965  -14.1934   21.9332 O   0  0  0  0  0  0  0  0  0  0  0  0
   10.2997  -18.6531   22.8444 O   0  0  0  0  0  0  0  0  0  0  0  0
    8.9542  -18.3307   22.7095 C   0  0  0  0  0  0  0  0  0  0  0  0
    8.7283  -16.8268   22.8372 C   0  0  2  0  0  0  0  0  0  0  0  0
    9.4487  -16.2104   21.7436 N   0  0  0  0  0  0  0  0  0  0  0  0
    9.2921  -16.3130   24.1079 C   0  0  0  0  0  0  0  0  0  0  0  0
   10.4669  -15.8308   24.1031 O   0  0  0  0  0  0  0  0  0  0  0  0
    8.5368  -16.3588   25.3033 N   0  0  0  0  0  0  0  0  0  0  0  0
    9.1485  -15.9046   26.5403 C   0  0  1  0  0  0  0  0  0  0  0  0
    8.0266  -15.3191   27.3775 C   0  0  0  0  0  0  0  0  0  0  0  0
    7.5561  -14.0107   26.9229 C   0  0  0  0  0  0  0  0  0  0  0  0
    6.2139  -13.7572   26.8472 C   0  0  0  0  0  0  0  0  0  0  0  0
    5.7856  -12.5175   26.4228 C   0  0  0  0  0  0  0  0  0  0  0  0
    6.7111  -11.5631   26.0847 C   0  0  0  0  0  0  0  0  0  0  0  0
    8.0611  -11.8282   26.1641 C   0  0  0  0  0  0  0  0  0  0  0  0
    8.5059  -13.0436   26.5801 C   0  0  0  0  0  0  0  0  0  0  0  0
    9.7507  -17.0548   27.2239 C   0  0  0  0  0  0  0  0  0  0  0  0
    9.5364  -18.2318   26.8320 O   0  0  0  0  0  0  0  0  0  0  0  0
   10.5828  -16.9193   28.3286 O   0  0  0  0  0  0  0  0  0  0  0  0
  1  2  1  0
  2  4  1  0
  2  3  2  0
  4  5  1  0
  6  8  1  0
  6  5  1  0
  6  7  1  6
  8 13  1  0
  9  8  2  0
 10 11  1  0
 12 11  1  1
 12 14  1  0
 13 12  1  0
 14 16  1  0
 14 15  2  0
 16 17  1  0
 17 25  1  0
 18 19  1  0
 17 18  1  1
 19 20  2  0
 19 24  1  0
 20 21  1  0
 21 22  2  0
 23 22  1  0
 24 23  2  0
 25 26  2  0
 25 27  1  0
M  END
$$$$
