KEV.pdb
     RDKit          3D

 26 25  0  0  1  0  0  0  0  0999 V2000
    9.7153  -14.4859   19.5434 N   0  0  0  0  0  0  0  0  0  0  0  0
    8.3842  -14.2178   19.9921 C   0  0  1  0  0  0  0  0  0  0  0  0
    7.2865  -14.5837   19.0600 C   0  0  0  0  0  0  0  0  0  0  0  0
    7.2409  -15.9495   18.5195 C   0  0  0  0  0  0  0  0  0  0  0  0
    7.1203  -16.1416   17.0607 C   0  0  0  0  0  0  0  0  0  0  0  0
    6.8329  -17.5620   16.6412 C   0  0  0  0  0  0  0  0  0  0  0  0
    6.7692  -17.5859   15.1862 N   0  0  0  0  0  0  0  0  0  0  0  0
    8.2004  -14.7629   21.3561 C   0  0  0  0  0  0  0  0  0  0  0  0
    7.0794  -14.5231   21.9327 O   0  0  0  0  0  0  0  0  0  0  0  0
    9.1102  -15.5158   22.1046 N   0  0  0  0  0  0  0  0  0  0  0  0
    8.8651  -15.9758   23.4624 C   0  0  1  0  0  0  0  0  0  0  0  0
    9.7540  -17.1717   23.7043 C   0  0  0  0  0  0  0  0  0  0  0  0
    9.6049  -17.7525   25.0709 C   0  0  0  0  0  0  0  0  0  0  0  0
   10.5021  -18.9211   25.2225 C   0  0  0  0  0  0  0  0  0  0  0  0
    9.9940  -20.0599   25.3470 O   0  0  0  0  0  0  0  0  0  0  0  0
    9.0634  -14.9161   24.4596 C   0  0  0  0  0  0  0  0  0  0  0  0
   10.2106  -14.4121   24.5583 O   0  0  0  0  0  0  0  0  0  0  0  0
   11.8823  -18.8191   25.2336 O   0  0  0  0  0  0  0  0  0  0  0  0
    6.9845  -11.7227   25.1410 C   0  0  0  0  0  0  0  0  0  0  0  0
    7.1843  -12.4355   26.4590 C   0  0  1  0  0  0  0  0  0  0  0  0
    5.8848  -13.1146   26.8463 C   0  0  0  0  0  0  0  0  0  0  0  0
    8.3113  -13.4071   26.3215 C   0  0  2  0  0  0  0  0  0  0  0  0
    8.0449  -14.4240   25.3189 N   0  0  0  0  0  0  0  0  0  0  0  0
    8.5863  -14.0273   27.6471 C   0  0  0  0  0  0  0  0  0  0  0  0
    8.3828  -15.2470   27.7814 O   0  0  0  0  0  0  0  0  0  0  0  0
    9.0540  -13.3018   28.7191 O   0  0  0  0  0  0  0  0  0  0  0  0
  2  1  1  6
  3  2  1  0
  4  3  1  0
  5  4  1  0
  5  6  1  0
  7  6  1  0
  8  2  1  0
  8 10  1  0
  9  8  2  0
 11 10  1  0
 12 13  1  0
 11 12  1  1
 13 14  1  0
 14 18  1  0
 15 14  2  0
 16 11  1  0
 17 16  2  0
 20 19  1  6
 20 22  1  0
 21 20  1  0
 22 23  1  6
 22 24  1  0
 23 16  1  0
 24 26  1  0
 25 24  2  0
M  END
$$$$
