KEV.pdb
     RDKit          3D

 26 25  0  0  1  0  0  0  0  0999 V2000
    5.9710  -17.2612   20.9633 N   0  0  0  0  0  0  0  0  0  0  0  0
    7.1032  -16.4367   21.2519 C   0  0  1  0  0  0  0  0  0  0  0  0
    7.0064  -15.0128   20.8385 C   0  0  0  0  0  0  0  0  0  0  0  0
    7.8419  -14.5390   19.7263 C   0  0  0  0  0  0  0  0  0  0  0  0
    7.8440  -13.1013   19.3905 C   0  0  0  0  0  0  0  0  0  0  0  0
    8.7080  -12.7393   18.2080 C   0  0  0  0  0  0  0  0  0  0  0  0
    8.5506  -11.3108   17.9701 N   0  0  0  0  0  0  0  0  0  0  0  0
    7.4955  -16.6097   22.6688 C   0  0  0  0  0  0  0  0  0  0  0  0
    6.5577  -16.5569   23.5431 O   0  0  0  0  0  0  0  0  0  0  0  0
    8.7793  -16.8251   23.1793 N   0  0  0  0  0  0  0  0  0  0  0  0
    9.0742  -17.0127   24.5911 C   0  0  1  0  0  0  0  0  0  0  0  0
   10.2034  -18.0096   24.6907 C   0  0  0  0  0  0  0  0  0  0  0  0
   10.6451  -18.2646   26.0932 C   0  0  0  0  0  0  0  0  0  0  0  0
   11.7943  -19.1989   26.0977 C   0  0  0  0  0  0  0  0  0  0  0  0
   12.9400  -18.7452   26.3255 O   0  0  0  0  0  0  0  0  0  0  0  0
    9.3769  -15.7490   25.2752 C   0  0  0  0  0  0  0  0  0  0  0  0
   10.3121  -15.0447   24.8174 O   0  0  0  0  0  0  0  0  0  0  0  0
   11.6667  -20.5566   25.8616 O   0  0  0  0  0  0  0  0  0  0  0  0
    7.6141  -12.5724   25.8756 C   0  0  0  0  0  0  0  0  0  0  0  0
    7.9883  -13.0756   27.2509 C   0  0  1  0  0  0  0  0  0  0  0  0
    6.7559  -13.6732   27.9020 C   0  0  0  0  0  0  0  0  0  0  0  0
    9.0974  -14.0687   27.1213 C   0  0  2  0  0  0  0  0  0  0  0  0
    8.6832  -15.2710   26.4189 N   0  0  0  0  0  0  0  0  0  0  0  0
    9.6192  -14.3983   28.4764 C   0  0  0  0  0  0  0  0  0  0  0  0
    9.5311  -15.5740   28.8726 O   0  0  0  0  0  0  0  0  0  0  0  0
   10.1907  -13.4533   29.2977 O   0  0  0  0  0  0  0  0  0  0  0  0
  2  1  1  1
  3  2  1  0
  4  3  1  0
  5  4  1  0
  5  6  1  0
  7  6  1  0
  8  2  1  0
  8 10  1  0
  9  8  2  0
 11 10  1  0
 12 13  1  0
 11 12  1  6
 13 14  1  0
 14 18  1  0
 15 14  2  0
 16 11  1  0
 17 16  2  0
 20 19  1  6
 20 22  1  0
 21 20  1  0
 22 23  1  1
 22 24  1  0
 23 16  1  0
 24 26  1  0
 25 24  2  0
M  END
$$$$
