KEV.pdb
     RDKit          3D

 26 25  0  0  1  0  0  0  0  0999 V2000
    6.2125  -17.2397   20.7540 N   0  0  0  0  0  0  0  0  0  0  0  0
    7.1370  -16.2168   21.1335 C   0  0  1  0  0  0  0  0  0  0  0  0
    6.6008  -14.8326   21.1987 C   0  0  0  0  0  0  0  0  0  0  0  0
    7.4421  -13.7234   20.7282 C   0  0  0  0  0  0  0  0  0  0  0  0
    7.9497  -13.7439   19.3421 C   0  0  0  0  0  0  0  0  0  0  0  0
    8.7448  -12.5227   18.9518 C   0  0  0  0  0  0  0  0  0  0  0  0
    9.2772  -12.7537   17.6158 N   0  0  0  0  0  0  0  0  0  0  0  0
    7.8535  -16.6258   22.3626 C   0  0  0  0  0  0  0  0  0  0  0  0
    7.1361  -17.0211   23.3504 O   0  0  0  0  0  0  0  0  0  0  0  0
    9.2341  -16.6334   22.5837 N   0  0  0  0  0  0  0  0  0  0  0  0
    9.8570  -17.0362   23.8348 C   0  0  1  0  0  0  0  0  0  0  0  0
   11.1942  -17.6509   23.4992 C   0  0  0  0  0  0  0  0  0  0  0  0
   11.9909  -18.0275   24.7037 C   0  0  0  0  0  0  0  0  0  0  0  0
   13.2870  -18.6115   24.2882 C   0  0  0  0  0  0  0  0  0  0  0  0
   13.9048  -18.0897   23.3308 O   0  0  0  0  0  0  0  0  0  0  0  0
    9.9715  -15.9257   24.7890 C   0  0  0  0  0  0  0  0  0  0  0  0
   10.6558  -14.9282   24.4474 O   0  0  0  0  0  0  0  0  0  0  0  0
   13.8547  -19.7113   24.9076 O   0  0  0  0  0  0  0  0  0  0  0  0
    8.6293  -12.9402   28.2636 C   0  0  0  0  0  0  0  0  0  0  0  0
    8.3424  -14.0008   27.2254 C   0  0  1  0  0  0  0  0  0  0  0  0
    7.8704  -13.3218   25.9542 C   0  0  0  0  0  0  0  0  0  0  0  0
    9.5762  -14.8153   27.0071 C   0  0  2  0  0  0  0  0  0  0  0  0
    9.3604  -15.9051   26.0712 N   0  0  0  0  0  0  0  0  0  0  0  0
   10.0610  -15.3289   28.3181 C   0  0  0  0  0  0  0  0  0  0  0  0
    9.9989  -16.5527   28.5316 O   0  0  0  0  0  0  0  0  0  0  0  0
   10.5710  -14.5016   29.2925 O   0  0  0  0  0  0  0  0  0  0  0  0
  2  1  1  1
  3  2  1  0
  4  3  1  0
  5  4  1  0
  5  6  1  0
  7  6  1  0
  8  2  1  0
  8 10  1  0
  9  8  2  0
 11 10  1  0
 12 13  1  0
 11 12  1  6
 13 14  1  0
 14 18  1  0
 15 14  2  0
 16 11  1  0
 17 16  2  0
 20 19  1  1
 20 22  1  0
 21 20  1  0
 22 23  1  6
 22 24  1  0
 23 16  1  0
 24 26  1  0
 25 24  2  0
M  END
$$$$
