KEV.pdb
     RDKit          3D

 26 25  0  0  1  0  0  0  0  0999 V2000
    5.5066  -17.4770   20.2522 N   0  0  0  0  0  0  0  0  0  0  0  0
    6.7967  -17.3720   20.8601 C   0  0  1  0  0  0  0  0  0  0  0  0
    7.7830  -16.5002   20.1708 C   0  0  0  0  0  0  0  0  0  0  0  0
    7.4535  -15.0833   19.9627 C   0  0  0  0  0  0  0  0  0  0  0  0
    8.4228  -14.2146   19.2661 C   0  0  0  0  0  0  0  0  0  0  0  0
    7.9975  -12.7715   19.1540 C   0  0  0  0  0  0  0  0  0  0  0  0
    8.9963  -12.0804   18.3500 N   0  0  0  0  0  0  0  0  0  0  0  0
    6.6440  -17.0596   22.2990 C   0  0  0  0  0  0  0  0  0  0  0  0
    5.6191  -16.3662   22.6386 O   0  0  0  0  0  0  0  0  0  0  0  0
    7.4908  -17.4306   23.3479 N   0  0  0  0  0  0  0  0  0  0  0  0
    7.2389  -17.1224   24.7468 C   0  0  1  0  0  0  0  0  0  0  0  0
    7.6249  -18.3369   25.5561 C   0  0  0  0  0  0  0  0  0  0  0  0
    7.3576  -18.1837   27.0164 C   0  0  0  0  0  0  0  0  0  0  0  0
    7.9062  -19.3451   27.7537 C   0  0  0  0  0  0  0  0  0  0  0  0
    7.1396  -20.2935   28.0424 O   0  0  0  0  0  0  0  0  0  0  0  0
    7.9345  -15.9069   25.1889 C   0  0  0  0  0  0  0  0  0  0  0  0
    9.1427  -15.7742   24.8686 O   0  0  0  0  0  0  0  0  0  0  0  0
    9.2312  -19.4372   28.1428 O   0  0  0  0  0  0  0  0  0  0  0  0
    6.6144  -12.1612   25.1641 C   0  0  0  0  0  0  0  0  0  0  0  0
    7.2074  -12.4926   26.5145 C   0  0  1  0  0  0  0  0  0  0  0  0
    6.0771  -12.7044   27.5031 C   0  0  0  0  0  0  0  0  0  0  0  0
    8.0767  -13.7009   26.3816 C   0  0  2  0  0  0  0  0  0  0  0  0
    7.3322  -14.8727   25.9541 N   0  0  0  0  0  0  0  0  0  0  0  0
    8.7651  -13.9525   27.6778 C   0  0  0  0  0  0  0  0  0  0  0  0
    8.5261  -15.0167   28.2758 O   0  0  0  0  0  0  0  0  0  0  0  0
    9.6491  -13.0545   28.2311 O   0  0  0  0  0  0  0  0  0  0  0  0
  2  1  1  6
  3  2  1  0
  4  3  1  0
  5  4  1  0
  5  6  1  0
  7  6  1  0
  8  2  1  0
  8 10  1  0
  9  8  2  0
 11 10  1  0
 12 13  1  0
 11 12  1  1
 13 14  1  0
 14 18  1  0
 15 14  2  0
 16 11  1  0
 17 16  2  0
 20 19  1  6
 20 22  1  0
 21 20  1  0
 22 23  1  1
 22 24  1  0
 23 16  1  0
 24 26  1  0
 25 24  2  0
M  END
$$$$
