KEV.pdb
     RDKit          3D

 26 25  0  0  1  0  0  0  0  0999 V2000
    9.8172  -17.5054   19.8841 N   0  0  0  0  0  0  0  0  0  0  0  0
    8.6307  -16.8059   20.2686 C   0  0  1  0  0  0  0  0  0  0  0  0
    7.3803  -17.1878   19.5625 C   0  0  0  0  0  0  0  0  0  0  0  0
    7.4747  -18.0073   18.3464 C   0  0  0  0  0  0  0  0  0  0  0  0
    6.7438  -17.5839   17.1357 C   0  0  0  0  0  0  0  0  0  0  0  0
    6.7933  -18.5754   15.9997 C   0  0  0  0  0  0  0  0  0  0  0  0
    6.0190  -18.0200   14.8979 N   0  0  0  0  0  0  0  0  0  0  0  0
    8.4994  -16.8233   21.7430 C   0  0  0  0  0  0  0  0  0  0  0  0
    7.4090  -16.3599   22.2359 O   0  0  0  0  0  0  0  0  0  0  0  0
    9.4299  -17.2874   22.6777 N   0  0  0  0  0  0  0  0  0  0  0  0
    9.2501  -17.2018   24.1185 C   0  0  1  0  0  0  0  0  0  0  0  0
   10.3203  -18.0506   24.7610 C   0  0  0  0  0  0  0  0  0  0  0  0
   10.3077  -17.9893   26.2521 C   0  0  0  0  0  0  0  0  0  0  0  0
   10.4236  -19.3549   26.8136 C   0  0  0  0  0  0  0  0  0  0  0  0
   11.3559  -20.0930   26.4180 O   0  0  0  0  0  0  0  0  0  0  0  0
    9.2625  -15.8163   24.6054 C   0  0  0  0  0  0  0  0  0  0  0  0
   10.2047  -15.0728   24.2322 O   0  0  0  0  0  0  0  0  0  0  0  0
    9.5491  -19.8609   27.7595 O   0  0  0  0  0  0  0  0  0  0  0  0
    6.9993  -11.9174   26.5694 C   0  0  0  0  0  0  0  0  0  0  0  0
    6.9421  -13.2487   25.8557 C   0  0  1  0  0  0  0  0  0  0  0  0
    6.4192  -13.0248   24.4499 C   0  0  0  0  0  0  0  0  0  0  0  0
    8.3042  -13.8635   25.8614 C   0  0  2  0  0  0  0  0  0  0  0  0
    8.2807  -15.2621   25.4696 N   0  0  0  0  0  0  0  0  0  0  0  0
    8.9084  -13.7003   27.2126 C   0  0  0  0  0  0  0  0  0  0  0  0
    9.0786  -14.7166   27.9092 O   0  0  0  0  0  0  0  0  0  0  0  0
    9.2814  -12.4731   27.7115 O   0  0  0  0  0  0  0  0  0  0  0  0
  2  1  1  1
  3  2  1  0
  4  3  1  0
  5  4  1  0
  5  6  1  0
  7  6  1  0
  8  2  1  0
  8 10  1  0
  9  8  2  0
 11 10  1  0
 12 13  1  0
 11 12  1  1
 13 14  1  0
 14 18  1  0
 15 14  2  0
 16 11  1  0
 17 16  2  0
 20 19  1  6
 20 22  1  0
 21 20  1  0
 22 23  1  1
 22 24  1  0
 23 16  1  0
 24 26  1  0
 25 24  2  0
M  END
$$$$
