RFV.pdb
     RDKit          3D

 30 30  0  0  1  0  0  0  0  0999 V2000
   30.3941  -19.6834  -18.3266 N   0  0  0  0  0  0  0  0  0  0  0  0
   29.8785  -18.3847  -18.5890 C   0  0  0  0  0  0  0  0  0  0  0  0
   30.2719  -17.7627  -19.6633 N   0  0  0  0  0  0  0  0  0  0  0  0
   28.9509  -17.7970  -17.6800 N   0  0  0  0  0  0  0  0  0  0  0  0
   28.4216  -18.6287  -16.6012 C   0  0  0  0  0  0  0  0  0  0  0  0
   27.2016  -19.3746  -17.0364 C   0  0  0  0  0  0  0  0  0  0  0  0
   26.4169  -19.8804  -15.8726 C   0  0  0  0  0  0  0  0  0  0  0  0
   27.1303  -20.8574  -15.0191 C   0  0  2  0  0  0  0  0  0  0  0  0
   27.7397  -21.9715  -15.6503 N   0  0  0  0  0  0  0  0  0  0  0  0
   26.2569  -21.2422  -13.8713 C   0  0  0  0  0  0  0  0  0  0  0  0
   25.6855  -22.3527  -13.9265 O   0  0  0  0  0  0  0  0  0  0  0  0
   29.9492  -16.8050  -19.8951 N   0  0  0  0  0  0  0  0  0  0  0  0
   26.0451  -20.4245  -12.7380 C   0  0  2  0  0  0  0  0  0  0  0  0
   25.0451  -20.6993  -11.7302 C   0  0  0  0  0  0  0  0  0  0  0  0
   25.3283  -19.9478  -10.4469 C   0  0  0  0  0  0  0  0  0  0  0  0
   26.6055  -20.3212   -9.8395 C   0  0  0  0  0  0  0  0  0  0  0  0
   27.6863  -20.7567  -10.5625 C   0  0  0  0  0  0  0  0  0  0  0  0
   28.8576  -21.0873   -9.9015 C   0  0  0  0  0  0  0  0  0  0  0  0
   28.9668  -20.9900   -8.5281 C   0  0  0  0  0  0  0  0  0  0  0  0
   27.8815  -20.5532   -7.8065 C   0  0  0  0  0  0  0  0  0  0  0  0
   26.7295  -20.2296   -8.4728 C   0  0  0  0  0  0  0  0  0  0  0  0
   23.6962  -20.3277  -12.2040 O   0  0  0  0  0  0  0  0  0  0  0  0
   23.3299  -19.1273  -12.3240 C   0  0  0  0  0  0  0  0  0  0  0  0
   21.7764  -23.4508  -14.1105 C   0  0  2  0  0  0  0  0  0  0  0  0
   21.5631  -21.9884  -14.4826 C   0  0  0  0  0  0  0  0  0  0  0  0
   20.3029  -21.8998  -15.2804 C   0  0  1  0  0  0  0  0  0  0  0  0
   21.5256  -21.1218  -13.2265 N   0  0  0  0  0  0  0  0  0  0  0  0
   22.7797  -21.3627  -12.5398 C   0  0  0  0  0  0  0  0  0  0  0  0
   20.4263  -21.5383  -12.3490 O   0  0  0  0  0  0  0  0  0  0  0  0
   19.2562  -21.1831  -12.5747 O   0  0  0  0  0  0  0  0  0  0  0  0
  2  1  1  0
  3  2  2  0
  4  2  1  0
  5  4  1  0
  6  5  1  0
  7  6  1  0
  8  7  1  0
  8  9  1  6
 10  8  1  0
 10 12  1  0
 11 10  2  0
 13 21  1  0
 13 12  1  0
 13 14  1  6
 15 14  1  0
 16 15  2  0
 17 16  1  0
 18 19  1  0
 18 17  2  0
 19 20  2  0
 20 15  1  0
 21 27  1  0
 22 21  2  0
 24 23  1  6
 24 25  1  0
 24 26  1  0
 26 28  1  0
 26 27  1  6
 28 29  2  0
 28 30  1  0
M  END
$$$$
