RFV.pdb
     RDKit          3D

 30 30  0  0  1  0  0  0  0  0999 V2000
   26.7175  -23.7901  -19.4209 N   0  0  0  0  0  0  0  0  0  0  0  0
   26.5072  -22.4935  -19.9648 C   0  0  0  0  0  0  0  0  0  0  0  0
   25.4404  -22.2831  -20.6815 N   0  0  0  0  0  0  0  0  0  0  0  0
   27.4586  -21.4615  -19.7164 N   0  0  0  0  0  0  0  0  0  0  0  0
   27.9458  -21.2873  -18.3496 C   0  0  0  0  0  0  0  0  0  0  0  0
   28.3248  -22.5960  -17.7350 C   0  0  0  0  0  0  0  0  0  0  0  0
   28.5166  -22.4805  -16.2599 C   0  0  0  0  0  0  0  0  0  0  0  0
   27.9828  -21.2372  -15.6590 C   0  0  2  0  0  0  0  0  0  0  0  0
   28.7062  -20.0351  -15.8654 N   0  0  0  0  0  0  0  0  0  0  0  0
   27.6556  -21.4825  -14.2233 C   0  0  0  0  0  0  0  0  0  0  0  0
   26.8471  -22.3999  -13.9631 O   0  0  0  0  0  0  0  0  0  0  0  0
   25.2317  -21.3580  -21.1007 N   0  0  0  0  0  0  0  0  0  0  0  0
   28.2067  -20.7390  -13.1549 C   0  0  1  0  0  0  0  0  0  0  0  0
   27.7233  -20.8171  -11.7943 C   0  0  0  0  0  0  0  0  0  0  0  0
   28.7136  -20.2196  -10.8175 C   0  0  0  0  0  0  0  0  0  0  0  0
   28.1949  -20.1530   -9.4514 C   0  0  0  0  0  0  0  0  0  0  0  0
   27.3528  -19.1642   -9.0112 C   0  0  0  0  0  0  0  0  0  0  0  0
   26.9101  -19.1827   -7.6991 C   0  0  0  0  0  0  0  0  0  0  0  0
   27.2955  -20.1744   -6.8183 C   0  0  0  0  0  0  0  0  0  0  0  0
   28.1397  -21.1639   -7.2627 C   0  0  0  0  0  0  0  0  0  0  0  0
   28.5698  -21.1333   -8.5627 C   0  0  0  0  0  0  0  0  0  0  0  0
   26.4340  -20.1113  -11.6465 O   0  0  0  0  0  0  0  0  0  0  0  0
   26.3098  -18.8777  -11.8751 C   0  0  0  0  0  0  0  0  0  0  0  0
   23.7928  -20.5035  -13.6259 C   0  0  2  0  0  0  0  0  0  0  0  0
   23.1629  -20.8792  -12.2900 C   0  0  0  0  0  0  0  0  0  0  0  0
   23.0903  -22.3700  -12.2231 C   0  0  2  0  0  0  0  0  0  0  0  0
   23.9639  -20.2775  -11.1382 N   0  0  0  0  0  0  0  0  0  0  0  0
   25.2915  -20.8522  -11.2345 C   0  0  0  0  0  0  0  0  0  0  0  0
   23.3801  -20.6663   -9.8498 O   0  0  0  0  0  0  0  0  0  0  0  0
   23.9360  -21.5074   -9.1219 O   0  0  0  0  0  0  0  0  0  0  0  0
  2  1  1  0
  3  2  2  0
  4  2  1  0
  5  4  1  0
  6  5  1  0
  7  6  1  0
  8  7  1  0
  8  9  1  1
 10  8  1  0
 10 12  1  0
 11 10  2  0
 13 21  1  0
 13 12  1  0
 13 14  1  1
 15 14  1  0
 16 15  2  0
 17 16  1  0
 18 19  1  0
 18 17  2  0
 19 20  2  0
 20 15  1  0
 21 27  1  0
 22 21  2  0
 24 23  1  6
 24 25  1  0
 24 26  1  0
 26 28  1  0
 26 27  1  1
 28 29  2  0
 28 30  1  0
M  END
$$$$
