RFV.pdb
     RDKit          3D

 30 30  0  0  1  0  0  0  0  0999 V2000
   25.8352  -22.4393  -21.4196 N   0  0  0  0  0  0  0  0  0  0  0  0
   24.7013  -21.6015  -21.6035 C   0  0  0  0  0  0  0  0  0  0  0  0
   23.8339  -21.9184  -22.5216 N   0  0  0  0  0  0  0  0  0  0  0  0
   24.5396  -20.4442  -20.7871 N   0  0  0  0  0  0  0  0  0  0  0  0
   25.3901  -20.3089  -19.6065 C   0  0  0  0  0  0  0  0  0  0  0  0
   25.4914  -21.5982  -18.8569 C   0  0  0  0  0  0  0  0  0  0  0  0
   25.0788  -21.4441  -17.4314 C   0  0  0  0  0  0  0  0  0  0  0  0
   25.8889  -20.4824  -16.6500 C   0  0  2  0  0  0  0  0  0  0  0  0
   27.1690  -20.1314  -17.1493 N   0  0  0  0  0  0  0  0  0  0  0  0
   25.9165  -20.9066  -15.2191 C   0  0  0  0  0  0  0  0  0  0  0  0
   25.1297  -21.8130  -14.8694 O   0  0  0  0  0  0  0  0  0  0  0  0
   22.9845  -21.3501  -22.6970 N   0  0  0  0  0  0  0  0  0  0  0  0
   26.7768  -20.3422  -14.2500 C   0  0  1  0  0  0  0  0  0  0  0  0
   26.6486  -20.5840  -12.8300 C   0  0  0  0  0  0  0  0  0  0  0  0
   27.7837  -19.9510  -12.0537 C   0  0  0  0  0  0  0  0  0  0  0  0
   27.6369  -20.1035  -10.6063 C   0  0  0  0  0  0  0  0  0  0  0  0
   26.9220  -19.2327   -9.8244 C   0  0  0  0  0  0  0  0  0  0  0  0
   26.8359  -19.4577   -8.4606 C   0  0  0  0  0  0  0  0  0  0  0  0
   27.4532  -20.5399   -7.8643 C   0  0  0  0  0  0  0  0  0  0  0  0
   28.1689  -21.4107   -8.6510 C   0  0  0  0  0  0  0  0  0  0  0  0
   28.2459  -21.1762   -9.9982 C   0  0  0  0  0  0  0  0  0  0  0  0
   25.3716  -20.0511  -12.3129 O   0  0  0  0  0  0  0  0  0  0  0  0
   25.0381  -18.8433  -12.4530 C   0  0  0  0  0  0  0  0  0  0  0  0
   22.3338  -20.3409  -13.3803 C   0  0  2  0  0  0  0  0  0  0  0  0
   22.1392  -20.9736  -12.0075 C   0  0  0  0  0  0  0  0  0  0  0  0
   22.1275  -22.4569  -12.1864 C   0  0  2  0  0  0  0  0  0  0  0  0
   23.2310  -20.5059  -11.0486 N   0  0  0  0  0  0  0  0  0  0  0  0
   24.4857  -20.9343  -11.6354 C   0  0  0  0  0  0  0  0  0  0  0  0
   23.0804  -21.1579   -9.7431 O   0  0  0  0  0  0  0  0  0  0  0  0
   23.8600  -22.0567   -9.3818 O   0  0  0  0  0  0  0  0  0  0  0  0
  2  1  1  0
  3  2  2  0
  4  2  1  0
  5  4  1  0
  6  5  1  0
  7  6  1  0
  8  7  1  0
  8  9  1  6
 10  8  1  0
 10 12  1  0
 11 10  2  0
 13 21  1  0
 13 12  1  0
 13 14  1  1
 15 14  1  0
 16 15  2  0
 17 16  1  0
 18 19  1  0
 18 17  2  0
 19 20  2  0
 20 15  1  0
 21 27  1  0
 22 21  2  0
 24 23  1  6
 24 25  1  0
 24 26  1  0
 26 28  1  0
 26 27  1  1
 28 29  2  0
 28 30  1  0
M  END
$$$$
