RFV.pdb
     RDKit          3D

 30 30  0  0  1  0  0  0  0  0999 V2000
   24.9819  -35.3740  -10.5910 N   0  0  0  0  0  0  0  0  0  0  0  0
   24.0340  -36.4023  -10.8468 C   0  0  0  0  0  0  0  0  0  0  0  0
   24.4371  -37.4883  -11.4417 N   0  0  0  0  0  0  0  0  0  0  0  0
   22.6763  -36.2247  -10.4504 N   0  0  0  0  0  0  0  0  0  0  0  0
   22.2971  -34.9523   -9.8398 C   0  0  0  0  0  0  0  0  0  0  0  0
   20.8300  -34.8983   -9.5589 C   0  0  0  0  0  0  0  0  0  0  0  0
   20.4036  -33.5448   -9.0979 C   0  0  0  0  0  0  0  0  0  0  0  0
   19.6583  -32.7522  -10.1020 C   0  0  2  0  0  0  0  0  0  0  0  0
   19.6653  -33.2058  -11.4456 N   0  0  0  0  0  0  0  0  0  0  0  0
   20.0290  -31.3123   -9.9699 C   0  0  0  0  0  0  0  0  0  0  0  0
   19.9882  -30.8072   -8.8270 O   0  0  0  0  0  0  0  0  0  0  0  0
   23.7837  -38.2519  -11.6969 N   0  0  0  0  0  0  0  0  0  0  0  0
   20.4193  -30.4996  -11.0585 C   0  0  1  0  0  0  0  0  0  0  0  0
   20.8899  -29.1400  -10.9123 C   0  0  0  0  0  0  0  0  0  0  0  0
   22.2608  -28.9572  -11.5278 C   0  0  0  0  0  0  0  0  0  0  0  0
   23.2662  -29.8501  -10.9519 C   0  0  0  0  0  0  0  0  0  0  0  0
   23.7843  -29.6906   -9.6922 C   0  0  0  0  0  0  0  0  0  0  0  0
   24.7326  -30.5873   -9.2288 C   0  0  0  0  0  0  0  0  0  0  0  0
   25.1724  -31.6421  -10.0045 C   0  0  0  0  0  0  0  0  0  0  0  0
   24.6510  -31.7990  -11.2666 C   0  0  0  0  0  0  0  0  0  0  0  0
   23.7140  -30.9050  -11.7122 C   0  0  0  0  0  0  0  0  0  0  0  0
   19.9592  -28.1840  -11.5462 O   0  0  0  0  0  0  0  0  0  0  0  0
   19.5815  -28.3026  -12.7431 C   0  0  0  0  0  0  0  0  0  0  0  0
   18.1703  -25.3367   -8.9336 C   0  0  2  0  0  0  0  0  0  0  0  0
   17.4950  -25.9184  -10.1698 C   0  0  0  0  0  0  0  0  0  0  0  0
   16.3916  -24.9919  -10.5654 C   0  0  1  0  0  0  0  0  0  0  0  0
   18.5171  -26.1250  -11.2847 N   0  0  0  0  0  0  0  0  0  0  0  0
   19.4699  -27.0924  -10.7761 C   0  0  0  0  0  0  0  0  0  0  0  0
   19.2288  -24.8734  -11.5659 O   0  0  0  0  0  0  0  0  0  0  0  0
   20.2222  -24.5369  -10.8979 O   0  0  0  0  0  0  0  0  0  0  0  0
  2  1  1  0
  3  2  2  0
  4  2  1  0
  5  4  1  0
  6  5  1  0
  7  6  1  0
  8  7  1  0
  8  9  1  6
 10  8  1  0
 10 12  1  0
 11 10  2  0
 13 21  1  0
 13 12  1  0
 13 14  1  1
 15 14  1  0
 16 15  2  0
 17 16  1  0
 18 19  1  0
 18 17  2  0
 19 20  2  0
 20 15  1  0
 21 27  1  0
 22 21  2  0
 24 23  1  1
 24 25  1  0
 24 26  1  0
 26 28  1  0
 26 27  1  1
 28 29  2  0
 28 30  1  0
M  END
$$$$
