RFV.pdb
     RDKit          3D

 30 30  0  0  1  0  0  0  0  0999 V2000
   25.8424  -25.6743  -20.4622 N   0  0  0  0  0  0  0  0  0  0  0  0
   26.4628  -26.3426  -19.3713 C   0  0  0  0  0  0  0  0  0  0  0  0
   26.2896  -27.6272  -19.2467 N   0  0  0  0  0  0  0  0  0  0  0  0
   27.2534  -25.5998  -18.4465 N   0  0  0  0  0  0  0  0  0  0  0  0
   26.5636  -24.7873  -17.4466 C   0  0  0  0  0  0  0  0  0  0  0  0
   26.1172  -25.6153  -16.2850 C   0  0  0  0  0  0  0  0  0  0  0  0
   25.4032  -24.7961  -15.2626 C   0  0  0  0  0  0  0  0  0  0  0  0
   25.0922  -23.4109  -15.6823 C   0  0  2  0  0  0  0  0  0  0  0  0
   26.1619  -22.4828  -15.7573 N   0  0  0  0  0  0  0  0  0  0  0  0
   23.9327  -22.9028  -14.8913 C   0  0  0  0  0  0  0  0  0  0  0  0
   23.1635  -23.7480  -14.3846 O   0  0  0  0  0  0  0  0  0  0  0  0
   26.7764  -28.1809  -18.5176 N   0  0  0  0  0  0  0  0  0  0  0  0
   23.6629  -21.5302  -14.6880 C   0  0  1  0  0  0  0  0  0  0  0  0
   22.5718  -21.0425  -13.8738 C   0  0  0  0  0  0  0  0  0  0  0  0
   23.0101  -19.8983  -12.9848 C   0  0  0  0  0  0  0  0  0  0  0  0
   23.9424  -20.3166  -11.9381 C   0  0  0  0  0  0  0  0  0  0  0  0
   25.2746  -20.5509  -12.1637 C   0  0  0  0  0  0  0  0  0  0  0  0
   26.0837  -20.9428  -11.1102 C   0  0  0  0  0  0  0  0  0  0  0  0
   25.5829  -21.1047   -9.8332 C   0  0  0  0  0  0  0  0  0  0  0  0
   24.2471  -20.8689   -9.6106 C   0  0  0  0  0  0  0  0  0  0  0  0
   23.4585  -20.4820  -10.6614 C   0  0  0  0  0  0  0  0  0  0  0  0
   21.4470  -20.5811  -14.7128 O   0  0  0  0  0  0  0  0  0  0  0  0
   21.5804  -19.6798  -15.5842 C   0  0  0  0  0  0  0  0  0  0  0  0
   19.5089  -22.4164  -17.0417 C   0  0  2  0  0  0  0  0  0  0  0  0
   18.4829  -21.9792  -16.0030 C   0  0  0  0  0  0  0  0  0  0  0  0
   18.2231  -23.1417  -15.1010 C   0  0  2  0  0  0  0  0  0  0  0  0
   18.9829  -20.7500  -15.2485 N   0  0  0  0  0  0  0  0  0  0  0  0
   20.1685  -21.1784  -14.5322 C   0  0  0  0  0  0  0  0  0  0  0  0
   17.9827  -20.3067  -14.2711 O   0  0  0  0  0  0  0  0  0  0  0  0
   16.9633  -19.6922  -14.6309 O   0  0  0  0  0  0  0  0  0  0  0  0
  2  1  1  0
  3  2  2  0
  4  2  1  0
  5  4  1  0
  6  5  1  0
  7  6  1  0
  8  7  1  0
  8  9  1  1
 10  8  1  0
 10 12  1  0
 11 10  2  0
 13 21  1  0
 13 12  1  0
 13 14  1  1
 15 14  1  0
 16 15  2  0
 17 16  1  0
 18 19  1  0
 18 17  2  0
 19 20  2  0
 20 15  1  0
 21 27  1  0
 22 21  2  0
 24 23  1  6
 24 25  1  0
 24 26  1  0
 26 28  1  0
 26 27  1  6
 28 29  2  0
 28 30  1  0
M  END
$$$$
