MHE.pdb
     RDKit          3D

 28 28  0  0  1  0  0  0  0  0999 V2000
    6.3141  -11.3194   28.0793 C   0  0  0  0  0  0  0  0  0  0  0  0
    7.4411  -12.5619   27.4653 S   0  0  0  0  0  0  0  0  0  0  0  0
    6.8153  -13.5560   26.1244 C   0  0  0  0  0  0  0  0  0  0  0  0
    7.7926  -14.6008   25.6326 C   0  0  0  0  0  0  0  0  0  0  0  0
    7.1508  -15.4481   24.5331 C   0  0  2  0  0  0  0  0  0  0  0  0
    5.9922  -16.1461   25.0206 N   0  0  0  0  0  0  0  0  0  0  0  0
    8.1677  -16.3437   23.9522 C   0  0  0  0  0  0  0  0  0  0  0  0
    8.2295  -17.5151   24.3976 O   0  0  0  0  0  0  0  0  0  0  0  0
    9.0756  -15.9149   22.9040 N   0  0  0  0  0  0  0  0  0  0  0  0
   10.0365  -16.8583   22.4433 C   0  0  1  0  0  0  0  0  0  0  0  0
   10.3541  -16.6811   21.0070 C   0  0  0  0  0  0  0  0  0  0  0  0
    9.2636  -16.8902   20.0534 C   0  0  0  0  0  0  0  0  0  0  0  0
    8.2351  -17.7819   19.9873 C   0  0  0  0  0  0  0  0  0  0  0  0
    7.4962  -17.4983   18.8872 N   0  0  0  0  0  0  0  0  0  0  0  0
    8.0555  -16.4457   18.2775 C   0  0  0  0  0  0  0  0  0  0  0  0
    9.1235  -16.0695   18.9726 N   0  0  0  0  0  0  0  0  0  0  0  0
   11.2510  -16.8557   23.3089 C   0  0  0  0  0  0  0  0  0  0  0  0
   11.8768  -15.8076   23.5956 O   0  0  0  0  0  0  0  0  0  0  0  0
   11.7380  -18.0749   23.8411 N   0  0  0  0  0  0  0  0  0  0  0  0
   12.7635  -18.0803   24.8394 C   0  0  1  0  0  0  0  0  0  0  0  0
   12.5059  -19.0323   25.9825 C   0  0  0  0  0  0  0  0  0  0  0  0
   11.9524  -18.3987   27.2150 C   0  0  0  0  0  0  0  0  0  0  0  0
   11.7438  -19.4643   28.2182 C   0  0  0  0  0  0  0  0  0  0  0  0
   10.5767  -19.8528   28.4366 O   0  0  0  0  0  0  0  0  0  0  0  0
   14.1025  -18.3582   24.2668 C   0  0  0  0  0  0  0  0  0  0  0  0
   14.1772  -19.0888   23.2521 O   0  0  0  0  0  0  0  0  0  0  0  0
   12.7778  -20.0460   28.9207 O   0  0  0  0  0  0  0  0  0  0  0  0
   15.2735  -17.8531   24.7959 O   0  0  0  0  0  0  0  0  0  0  0  0
  2  1  1  0
  3  2  1  0
  3  4  1  0
  5  4  1  0
  5  6  1  1
  7  5  1  0
  7  8  2  0
  9  7  1  0
 10  9  1  0
 10 11  1  6
 12 11  1  0
 12 16  1  0
 13 12  2  0
 14 13  1  0
 14 15  1  0
 15 16  2  0
 17 10  1  0
 18 17  2  0
 19 17  1  0
 20 19  1  0
 20 25  1  0
 20 21  1  1
 22 21  1  0
 22 23  1  0
 23 24  2  0
 25 28  1  0
 26 25  2  0
 27 23  1  0
M  END
$$$$
