MHE.pdb
     RDKit          3D

 28 28  0  0  1  0  0  0  0  0999 V2000
    5.1226  -10.8866   27.3984 C   0  0  0  0  0  0  0  0  0  0  0  0
    6.2442  -11.0762   26.0210 S   0  0  0  0  0  0  0  0  0  0  0  0
    7.0650  -12.6556   25.9244 C   0  0  0  0  0  0  0  0  0  0  0  0
    6.2486  -13.7255   25.2334 C   0  0  0  0  0  0  0  0  0  0  0  0
    7.0244  -15.0430   25.2006 C   0  0  2  0  0  0  0  0  0  0  0  0
    8.0238  -15.0867   26.2333 N   0  0  0  0  0  0  0  0  0  0  0  0
    7.5753  -15.2503   23.8489 C   0  0  0  0  0  0  0  0  0  0  0  0
    6.8679  -15.8801   23.0260 O   0  0  0  0  0  0  0  0  0  0  0  0
    8.8824  -14.7559   23.4563 N   0  0  0  0  0  0  0  0  0  0  0  0
    9.5911  -15.4927   22.4662 C   0  0  1  0  0  0  0  0  0  0  0  0
    9.9583  -14.6568   21.2993 C   0  0  0  0  0  0  0  0  0  0  0  0
    8.8622  -14.1503   20.4720 C   0  0  0  0  0  0  0  0  0  0  0  0
    8.3312  -12.9104   20.2774 C   0  0  0  0  0  0  0  0  0  0  0  0
    7.3323  -13.0134   19.3674 N   0  0  0  0  0  0  0  0  0  0  0  0
    7.2428  -14.2977   19.0001 C   0  0  0  0  0  0  0  0  0  0  0  0
    8.1618  -14.9941   19.6604 N   0  0  0  0  0  0  0  0  0  0  0  0
   10.7602  -16.2041   23.0590 C   0  0  0  0  0  0  0  0  0  0  0  0
   11.3642  -15.7858   24.0752 O   0  0  0  0  0  0  0  0  0  0  0  0
   11.2274  -17.4037   22.4678 N   0  0  0  0  0  0  0  0  0  0  0  0
   11.9189  -18.3838   23.2483 C   0  0  1  0  0  0  0  0  0  0  0  0
   11.1839  -18.8077   24.4972 C   0  0  0  0  0  0  0  0  0  0  0  0
   11.8529  -19.8845   25.2846 C   0  0  0  0  0  0  0  0  0  0  0  0
   11.5522  -19.6546   26.7137 C   0  0  0  0  0  0  0  0  0  0  0  0
   10.4547  -20.0509   27.1599 O   0  0  0  0  0  0  0  0  0  0  0  0
   12.2676  -19.5877   22.4564 C   0  0  0  0  0  0  0  0  0  0  0  0
   11.5093  -19.9245   21.5182 O   0  0  0  0  0  0  0  0  0  0  0  0
   12.4277  -19.0244   27.5725 O   0  0  0  0  0  0  0  0  0  0  0  0
   13.3867  -20.3586   22.7010 O   0  0  0  0  0  0  0  0  0  0  0  0
  2  1  1  0
  3  2  1  0
  3  4  1  0
  5  4  1  0
  5  6  1  1
  7  5  1  0
  7  8  2  0
  9  7  1  0
 10  9  1  0
 10 11  1  6
 12 11  1  0
 12 16  1  0
 13 12  2  0
 14 13  1  0
 14 15  1  0
 15 16  2  0
 17 10  1  0
 18 17  2  0
 19 17  1  0
 20 19  1  0
 20 25  1  0
 20 21  1  1
 22 21  1  0
 22 23  1  0
 23 24  2  0
 25 28  1  0
 26 25  2  0
 27 23  1  0
M  END
$$$$
