MHE.pdb
     RDKit          3D

 28 28  0  0  1  0  0  0  0  0999 V2000
    6.5300  -10.6219   25.7687 C   0  0  0  0  0  0  0  0  0  0  0  0
    6.6497  -12.1385   26.7048 S   0  0  0  0  0  0  0  0  0  0  0  0
    5.5500  -13.4404   26.1819 C   0  0  0  0  0  0  0  0  0  0  0  0
    6.0752  -14.2507   25.0173 C   0  0  0  0  0  0  0  0  0  0  0  0
    7.2874  -15.0755   25.4521 C   0  0  2  0  0  0  0  0  0  0  0  0
    8.1445  -14.3232   26.3276 N   0  0  0  0  0  0  0  0  0  0  0  0
    7.9822  -15.5877   24.2568 C   0  0  0  0  0  0  0  0  0  0  0  0
    7.3689  -16.4164   23.5417 O   0  0  0  0  0  0  0  0  0  0  0  0
    9.3237  -15.1672   23.8958 N   0  0  0  0  0  0  0  0  0  0  0  0
    9.9668  -15.8672   22.8366 C   0  0  1  0  0  0  0  0  0  0  0  0
   10.1440  -15.0235   21.6316 C   0  0  0  0  0  0  0  0  0  0  0  0
    8.9453  -14.3892   21.0809 C   0  0  0  0  0  0  0  0  0  0  0  0
    8.5755  -13.0914   20.8910 C   0  0  0  0  0  0  0  0  0  0  0  0
    7.3521  -13.0786   20.3083 N   0  0  0  0  0  0  0  0  0  0  0  0
    6.9659  -14.3490   20.1370 C   0  0  0  0  0  0  0  0  0  0  0  0
    7.9199  -15.1497   20.5997 N   0  0  0  0  0  0  0  0  0  0  0  0
   11.2404  -16.4905   23.2988 C   0  0  0  0  0  0  0  0  0  0  0  0
   12.2102  -15.8173   23.7216 O   0  0  0  0  0  0  0  0  0  0  0  0
   11.3856  -17.8993   23.2682 N   0  0  0  0  0  0  0  0  0  0  0  0
   12.5821  -18.5226   23.7459 C   0  0  1  0  0  0  0  0  0  0  0  0
   12.3422  -19.6590   24.7105 C   0  0  0  0  0  0  0  0  0  0  0  0
   11.0079  -19.6446   25.3786 C   0  0  0  0  0  0  0  0  0  0  0  0
   10.9577  -20.7867   26.3159 C   0  0  0  0  0  0  0  0  0  0  0  0
   11.2608  -20.5867   27.5112 O   0  0  0  0  0  0  0  0  0  0  0  0
   13.4474  -18.9976   22.6397 C   0  0  0  0  0  0  0  0  0  0  0  0
   14.5900  -19.4280   22.9191 O   0  0  0  0  0  0  0  0  0  0  0  0
   10.5918  -22.0587   25.9294 O   0  0  0  0  0  0  0  0  0  0  0  0
   13.0584  -18.9890   21.3150 O   0  0  0  0  0  0  0  0  0  0  0  0
  2  1  1  0
  3  2  1  0
  3  4  1  0
  5  4  1  0
  5  6  1  6
  7  5  1  0
  7  8  2  0
  9  7  1  0
 10  9  1  0
 10 11  1  6
 12 11  1  0
 12 16  1  0
 13 12  2  0
 14 13  1  0
 14 15  1  0
 15 16  2  0
 17 10  1  0
 18 17  2  0
 19 17  1  0
 20 19  1  0
 20 25  1  0
 20 21  1  1
 22 21  1  0
 22 23  1  0
 23 24  2  0
 25 28  1  0
 26 25  2  0
 27 23  1  0
M  END
$$$$
