MHE.pdb
     RDKit          3D

 28 28  0  0  1  0  0  0  0  0999 V2000
    5.5740  -11.4916   28.7034 C   0  0  0  0  0  0  0  0  0  0  0  0
    6.8239  -12.3585   27.7668 S   0  0  0  0  0  0  0  0  0  0  0  0
    6.2482  -13.7967   26.8849 C   0  0  0  0  0  0  0  0  0  0  0  0
    7.0745  -14.1338   25.6633 C   0  0  0  0  0  0  0  0  0  0  0  0
    6.5121  -15.3766   24.9720 C   0  0  2  0  0  0  0  0  0  0  0  0
    6.5968  -16.5317   25.8238 N   0  0  0  0  0  0  0  0  0  0  0  0
    7.1878  -15.5600   23.6744 C   0  0  0  0  0  0  0  0  0  0  0  0
    7.9480  -16.5507   23.5529 O   0  0  0  0  0  0  0  0  0  0  0  0
    6.9997  -14.6463   22.5625 N   0  0  0  0  0  0  0  0  0  0  0  0
    7.6906  -14.9362   21.3524 C   0  0  1  0  0  0  0  0  0  0  0  0
    7.2764  -14.0468   20.2420 C   0  0  0  0  0  0  0  0  0  0  0  0
    7.9052  -14.2712   18.9394 C   0  0  0  0  0  0  0  0  0  0  0  0
    8.8635  -15.1338   18.4981 C   0  0  0  0  0  0  0  0  0  0  0  0
    9.0467  -14.9238   17.1718 N   0  0  0  0  0  0  0  0  0  0  0  0
    8.2148  -13.9458   16.7926 C   0  0  0  0  0  0  0  0  0  0  0  0
    7.5201  -13.5437   17.8514 N   0  0  0  0  0  0  0  0  0  0  0  0
    9.1666  -14.9472   21.5650 C   0  0  0  0  0  0  0  0  0  0  0  0
    9.7452  -14.1532   22.3442 O   0  0  0  0  0  0  0  0  0  0  0  0
    9.9705  -15.8833   20.8690 N   0  0  0  0  0  0  0  0  0  0  0  0
   11.3651  -16.0125   21.1631 C   0  0  1  0  0  0  0  0  0  0  0  0
   11.6678  -16.2491   22.6232 C   0  0  0  0  0  0  0  0  0  0  0  0
   11.2211  -17.5716   23.1508 C   0  0  0  0  0  0  0  0  0  0  0  0
   11.8118  -17.7466   24.4947 C   0  0  0  0  0  0  0  0  0  0  0  0
   12.6292  -16.8928   24.8989 O   0  0  0  0  0  0  0  0  0  0  0  0
   12.0135  -17.0720   20.3537 C   0  0  0  0  0  0  0  0  0  0  0  0
   13.2639  -17.1452   20.3589 O   0  0  0  0  0  0  0  0  0  0  0  0
   11.5006  -18.8076   25.3185 O   0  0  0  0  0  0  0  0  0  0  0  0
   11.3088  -17.9830   19.5923 O   0  0  0  0  0  0  0  0  0  0  0  0
  2  1  1  0
  3  2  1  0
  3  4  1  0
  5  4  1  0
  5  6  1  1
  7  5  1  0
  7  8  2  0
  9  7  1  0
 10  9  1  0
 10 11  1  6
 12 11  1  0
 12 16  1  0
 13 12  2  0
 14 13  1  0
 14 15  1  0
 15 16  2  0
 17 10  1  0
 18 17  2  0
 19 17  1  0
 20 19  1  0
 20 25  1  0
 20 21  1  1
 22 21  1  0
 22 23  1  0
 23 24  2  0
 25 28  1  0
 26 25  2  0
 27 23  1  0
M  END
$$$$
