MHE.pdb
     RDKit          3D

 28 28  0  0  1  0  0  0  0  0999 V2000
    8.0952  -11.4420   27.3259 C   0  0  0  0  0  0  0  0  0  0  0  0
    7.1026  -12.6228   28.2266 S   0  0  0  0  0  0  0  0  0  0  0  0
    6.4601  -13.9711   27.2534 C   0  0  0  0  0  0  0  0  0  0  0  0
    7.3207  -14.3262   26.0609 C   0  0  0  0  0  0  0  0  0  0  0  0
    6.6375  -15.4050   25.2194 C   0  0  2  0  0  0  0  0  0  0  0  0
    6.4287  -16.6070   25.9802 N   0  0  0  0  0  0  0  0  0  0  0  0
    7.4143  -15.6250   23.9857 C   0  0  0  0  0  0  0  0  0  0  0  0
    7.9541  -16.7475   23.8342 O   0  0  0  0  0  0  0  0  0  0  0  0
    7.5655  -14.6015   22.9677 N   0  0  0  0  0  0  0  0  0  0  0  0
    8.3941  -14.9055   21.8511 C   0  0  1  0  0  0  0  0  0  0  0  0
    8.2206  -13.9378   20.7427 C   0  0  0  0  0  0  0  0  0  0  0  0
    8.8848  -14.2500   19.4763 C   0  0  0  0  0  0  0  0  0  0  0  0
    9.7155  -15.2538   19.0768 C   0  0  0  0  0  0  0  0  0  0  0  0
   10.0133  -15.0643   17.7684 N   0  0  0  0  0  0  0  0  0  0  0  0
    9.3773  -13.9597   17.3588 C   0  0  0  0  0  0  0  0  0  0  0  0
    8.6924  -13.4591   18.3814 N   0  0  0  0  0  0  0  0  0  0  0  0
    9.8183  -15.0621   22.2649 C   0  0  0  0  0  0  0  0  0  0  0  0
   10.3629  -14.3184   23.1150 O   0  0  0  0  0  0  0  0  0  0  0  0
   10.6100  -16.0853   21.6876 N   0  0  0  0  0  0  0  0  0  0  0  0
   11.9376  -16.3376   22.1586 C   0  0  1  0  0  0  0  0  0  0  0  0
   12.8800  -15.1686   22.0011 C   0  0  0  0  0  0  0  0  0  0  0  0
   12.6604  -14.3457   20.7757 C   0  0  0  0  0  0  0  0  0  0  0  0
   13.9824  -14.0593   20.1789 C   0  0  0  0  0  0  0  0  0  0  0  0
   14.7047  -13.1978   20.7236 O   0  0  0  0  0  0  0  0  0  0  0  0
   11.9556  -16.7905   23.5702 C   0  0  0  0  0  0  0  0  0  0  0  0
   10.8774  -16.7988   24.2076 O   0  0  0  0  0  0  0  0  0  0  0  0
   14.4510  -14.6998   19.0514 O   0  0  0  0  0  0  0  0  0  0  0  0
   13.1018  -17.2036   24.2198 O   0  0  0  0  0  0  0  0  0  0  0  0
  2  1  1  0
  3  2  1  0
  3  4  1  0
  5  4  1  0
  5  6  1  1
  7  5  1  0
  7  8  2  0
  9  7  1  0
 10  9  1  0
 10 11  1  6
 12 11  1  0
 12 16  1  0
 13 12  2  0
 14 13  1  0
 14 15  1  0
 15 16  2  0
 17 10  1  0
 18 17  2  0
 19 17  1  0
 20 19  1  0
 20 25  1  0
 20 21  1  1
 22 21  1  0
 22 23  1  0
 23 24  2  0
 25 28  1  0
 26 25  2  0
 27 23  1  0
M  END
$$$$
