MHE.pdb
     RDKit          3D

 28 28  0  0  1  0  0  0  0  0999 V2000
    7.7015  -11.9046   27.1331 C   0  0  0  0  0  0  0  0  0  0  0  0
    6.2588  -12.2074   26.1243 S   0  0  0  0  0  0  0  0  0  0  0  0
    6.5981  -12.7452   24.4590 C   0  0  0  0  0  0  0  0  0  0  0  0
    7.3083  -14.0788   24.3820 C   0  0  0  0  0  0  0  0  0  0  0  0
    7.6297  -14.4226   22.9269 C   0  0  2  0  0  0  0  0  0  0  0  0
    6.4313  -14.5464   22.1423 N   0  0  0  0  0  0  0  0  0  0  0  0
    8.4781  -15.6277   22.8871 C   0  0  0  0  0  0  0  0  0  0  0  0
    7.9016  -16.7384   22.7964 O   0  0  0  0  0  0  0  0  0  0  0  0
    9.9268  -15.5625   22.9481 N   0  0  0  0  0  0  0  0  0  0  0  0
   10.6351  -16.7944   23.0287 C   0  0  1  0  0  0  0  0  0  0  0  0
   11.5317  -17.0041   21.8679 C   0  0  0  0  0  0  0  0  0  0  0  0
   11.5250  -15.9749   20.8272 C   0  0  0  0  0  0  0  0  0  0  0  0
   11.1221  -14.6733   20.7995 C   0  0  0  0  0  0  0  0  0  0  0  0
   11.3750  -14.1758   19.5646 N   0  0  0  0  0  0  0  0  0  0  0  0
   11.9277  -15.1522   18.8342 C   0  0  0  0  0  0  0  0  0  0  0  0
   12.0236  -16.2436   19.5860 N   0  0  0  0  0  0  0  0  0  0  0  0
   11.3410  -16.9245   24.3359 C   0  0  0  0  0  0  0  0  0  0  0  0
   11.8264  -15.9418   24.9450 O   0  0  0  0  0  0  0  0  0  0  0  0
   11.4829  -18.2006   24.9347 N   0  0  0  0  0  0  0  0  0  0  0  0
   11.9021  -18.3275   26.2972 C   0  0  1  0  0  0  0  0  0  0  0  0
   11.1599  -19.3882   27.0740 C   0  0  0  0  0  0  0  0  0  0  0  0
   11.6664  -19.6229   28.4580 C   0  0  0  0  0  0  0  0  0  0  0  0
   10.9296  -20.7742   29.0213 C   0  0  0  0  0  0  0  0  0  0  0  0
   11.3429  -21.9251   28.7659 O   0  0  0  0  0  0  0  0  0  0  0  0
   13.3602  -18.5682   26.4155 C   0  0  0  0  0  0  0  0  0  0  0  0
   13.9380  -19.1927   25.4963 O   0  0  0  0  0  0  0  0  0  0  0  0
    9.8102  -20.6332   29.8139 O   0  0  0  0  0  0  0  0  0  0  0  0
   14.1151  -18.1396   27.4892 O   0  0  0  0  0  0  0  0  0  0  0  0
  2  1  1  0
  3  2  1  0
  3  4  1  0
  5  4  1  0
  5  6  1  6
  7  5  1  0
  7  8  2  0
  9  7  1  0
 10  9  1  0
 10 11  1  6
 12 11  1  0
 12 16  1  0
 13 12  2  0
 14 13  1  0
 14 15  1  0
 15 16  2  0
 17 10  1  0
 18 17  2  0
 19 17  1  0
 20 19  1  0
 20 25  1  0
 20 21  1  6
 22 21  1  0
 22 23  1  0
 23 24  2  0
 25 28  1  0
 26 25  2  0
 27 23  1  0
M  END
$$$$
