MHE.pdb
     RDKit          3D

 28 28  0  0  1  0  0  0  0  0999 V2000
    8.9017  -11.5811   20.3725 C   0  0  0  0  0  0  0  0  0  0  0  0
    7.8929  -12.2148   19.0414 S   0  0  0  0  0  0  0  0  0  0  0  0
    7.5437  -13.9611   19.1207 C   0  0  0  0  0  0  0  0  0  0  0  0
    7.3264  -14.4759   20.5266 C   0  0  0  0  0  0  0  0  0  0  0  0
    6.8985  -15.9437   20.4911 C   0  0  2  0  0  0  0  0  0  0  0  0
    5.6359  -16.1039   19.8225 N   0  0  0  0  0  0  0  0  0  0  0  0
    6.9036  -16.4858   21.8622 C   0  0  0  0  0  0  0  0  0  0  0  0
    5.9858  -16.1165   22.6338 O   0  0  0  0  0  0  0  0  0  0  0  0
    7.9180  -17.4131   22.3292 N   0  0  0  0  0  0  0  0  0  0  0  0
    7.8715  -17.7999   23.6980 C   0  0  1  0  0  0  0  0  0  0  0  0
    7.4631  -19.2139   23.8687 C   0  0  0  0  0  0  0  0  0  0  0  0
    7.3978  -19.7273   25.2379 C   0  0  0  0  0  0  0  0  0  0  0  0
    7.5872  -19.1584   26.4616 C   0  0  0  0  0  0  0  0  0  0  0  0
    7.3696  -20.1033   27.4084 N   0  0  0  0  0  0  0  0  0  0  0  0
    7.0490  -21.2434   26.7840 C   0  0  0  0  0  0  0  0  0  0  0  0
    7.0626  -21.0288   25.4729 N   0  0  0  0  0  0  0  0  0  0  0  0
    9.1525  -17.4800   24.3913 C   0  0  0  0  0  0  0  0  0  0  0  0
   10.2741  -17.6602   23.8604 O   0  0  0  0  0  0  0  0  0  0  0  0
    9.1280  -16.9501   25.7050 N   0  0  0  0  0  0  0  0  0  0  0  0
   10.3425  -16.5975   26.3750 C   0  0  1  0  0  0  0  0  0  0  0  0
   10.1391  -15.7954   27.6379 C   0  0  0  0  0  0  0  0  0  0  0  0
   10.0344  -14.3207   27.4352 C   0  0  0  0  0  0  0  0  0  0  0  0
    9.8045  -13.6967   28.7555 C   0  0  0  0  0  0  0  0  0  0  0  0
   10.4057  -14.1649   29.7454 O   0  0  0  0  0  0  0  0  0  0  0  0
   11.1793  -17.7826   26.6805 C   0  0  0  0  0  0  0  0  0  0  0  0
   10.6093  -18.8808   26.8754 O   0  0  0  0  0  0  0  0  0  0  0  0
    8.9584  -12.6238   28.9410 O   0  0  0  0  0  0  0  0  0  0  0  0
   12.5568  -17.7378   26.7624 O   0  0  0  0  0  0  0  0  0  0  0  0
  2  1  1  0
  3  2  1  0
  3  4  1  0
  5  4  1  0
  5  6  1  1
  7  5  1  0
  7  8  2  0
  9  7  1  0
 10  9  1  0
 10 11  1  6
 12 11  1  0
 12 16  1  0
 13 12  2  0
 14 13  1  0
 14 15  1  0
 15 16  2  0
 17 10  1  0
 18 17  2  0
 19 17  1  0
 20 19  1  0
 20 25  1  0
 20 21  1  1
 22 21  1  0
 22 23  1  0
 23 24  2  0
 25 28  1  0
 26 25  2  0
 27 23  1  0
M  END
$$$$
