MHE.pdb
     RDKit          3D

 28 28  0  0  1  0  0  0  0  0999 V2000
    5.8029  -11.0832   26.3468 C   0  0  0  0  0  0  0  0  0  0  0  0
    6.9399  -12.2739   27.0398 S   0  0  0  0  0  0  0  0  0  0  0  0
    6.4485  -13.9790   26.8692 C   0  0  0  0  0  0  0  0  0  0  0  0
    7.4020  -14.8078   26.0370 C   0  0  0  0  0  0  0  0  0  0  0  0
    6.7265  -15.2418   24.7355 C   0  0  2  0  0  0  0  0  0  0  0  0
    5.6747  -16.1900   24.9836 N   0  0  0  0  0  0  0  0  0  0  0  0
    7.7498  -15.7401   23.7982 C   0  0  0  0  0  0  0  0  0  0  0  0
    7.9424  -16.9792   23.7571 O   0  0  0  0  0  0  0  0  0  0  0  0
    8.5197  -14.8552   22.9433 N   0  0  0  0  0  0  0  0  0  0  0  0
    9.5338  -15.4430   22.1361 C   0  0  1  0  0  0  0  0  0  0  0  0
    9.8329  -14.6335   20.9316 C   0  0  0  0  0  0  0  0  0  0  0  0
    8.7089  -14.3075   20.0527 C   0  0  0  0  0  0  0  0  0  0  0  0
    8.0178  -13.1600   19.8022 C   0  0  0  0  0  0  0  0  0  0  0  0
    7.0781  -13.4257   18.8627 N   0  0  0  0  0  0  0  0  0  0  0  0
    7.1825  -14.7189   18.5323 C   0  0  0  0  0  0  0  0  0  0  0  0
    8.1640  -15.2620   19.2443 N   0  0  0  0  0  0  0  0  0  0  0  0
   10.7501  -15.7532   22.9414 C   0  0  0  0  0  0  0  0  0  0  0  0
   11.0857  -15.0843   23.9476 O   0  0  0  0  0  0  0  0  0  0  0  0
   11.5775  -16.8430   22.5746 N   0  0  0  0  0  0  0  0  0  0  0  0
   12.3989  -17.4983   23.5462 C   0  0  1  0  0  0  0  0  0  0  0  0
   11.6388  -18.0326   24.7363 C   0  0  0  0  0  0  0  0  0  0  0  0
   12.4572  -18.8253   25.6999 C   0  0  0  0  0  0  0  0  0  0  0  0
   11.6026  -19.1487   26.8620 C   0  0  0  0  0  0  0  0  0  0  0  0
   11.1596  -20.3120   26.9669 O   0  0  0  0  0  0  0  0  0  0  0  0
   13.2058  -18.5916   22.9532 C   0  0  0  0  0  0  0  0  0  0  0  0
   12.7201  -19.2408   21.9985 O   0  0  0  0  0  0  0  0  0  0  0  0
   11.2745  -18.2252   27.8319 O   0  0  0  0  0  0  0  0  0  0  0  0
   14.4668  -18.9322   23.4006 O   0  0  0  0  0  0  0  0  0  0  0  0
  2  1  1  0
  3  2  1  0
  3  4  1  0
  5  4  1  0
  5  6  1  1
  7  5  1  0
  7  8  2  0
  9  7  1  0
 10  9  1  0
 10 11  1  6
 12 11  1  0
 12 16  1  0
 13 12  2  0
 14 13  1  0
 14 15  1  0
 15 16  2  0
 17 10  1  0
 18 17  2  0
 19 17  1  0
 20 19  1  0
 20 25  1  0
 20 21  1  1
 22 21  1  0
 22 23  1  0
 23 24  2  0
 25 28  1  0
 26 25  2  0
 27 23  1  0
M  END
$$$$
