MHE.pdb
     RDKit          3D

 28 28  0  0  1  0  0  0  0  0999 V2000
    7.0337  -10.8133   26.1239 C   0  0  0  0  0  0  0  0  0  0  0  0
    6.2975  -12.0517   27.1800 S   0  0  0  0  0  0  0  0  0  0  0  0
    5.7406  -13.5252   26.3453 C   0  0  0  0  0  0  0  0  0  0  0  0
    6.8585  -14.3329   25.7236 C   0  0  0  0  0  0  0  0  0  0  0  0
    6.2832  -15.5049   24.9272 C   0  0  2  0  0  0  0  0  0  0  0  0
    5.6058  -16.4379   25.7861 N   0  0  0  0  0  0  0  0  0  0  0  0
    7.3562  -16.1238   24.1276 C   0  0  0  0  0  0  0  0  0  0  0  0
    7.8668  -17.1829   24.5656 O   0  0  0  0  0  0  0  0  0  0  0  0
    7.8241  -15.5530   22.8777 N   0  0  0  0  0  0  0  0  0  0  0  0
    8.8166  -16.2762   22.1583 C   0  0  1  0  0  0  0  0  0  0  0  0
    8.9223  -15.8341   20.7481 C   0  0  0  0  0  0  0  0  0  0  0  0
    9.7759  -16.6286   19.8636 C   0  0  0  0  0  0  0  0  0  0  0  0
    9.5737  -17.7652   19.1394 C   0  0  0  0  0  0  0  0  0  0  0  0
   10.7153  -18.0500   18.4671 N   0  0  0  0  0  0  0  0  0  0  0  0
   11.6149  -17.1050   18.7673 C   0  0  0  0  0  0  0  0  0  0  0  0
   11.0591  -16.2409   19.6098 N   0  0  0  0  0  0  0  0  0  0  0  0
   10.1254  -16.2492   22.8728 C   0  0  0  0  0  0  0  0  0  0  0  0
   10.6865  -15.1828   23.2197 O   0  0  0  0  0  0  0  0  0  0  0  0
   10.7825  -17.4652   23.1831 N   0  0  0  0  0  0  0  0  0  0  0  0
   12.1096  -17.4645   23.7189 C   0  0  1  0  0  0  0  0  0  0  0  0
   12.2752  -18.3134   24.9563 C   0  0  0  0  0  0  0  0  0  0  0  0
   11.3882  -17.9406   26.0970 C   0  0  0  0  0  0  0  0  0  0  0  0
   11.6333  -18.9003   27.1945 C   0  0  0  0  0  0  0  0  0  0  0  0
   12.4640  -19.8146   27.0083 O   0  0  0  0  0  0  0  0  0  0  0  0
   13.1211  -17.8679   22.7128 C   0  0  0  0  0  0  0  0  0  0  0  0
   14.3330  -17.7250   22.9952 O   0  0  0  0  0  0  0  0  0  0  0  0
   10.9871  -18.8302   28.4105 O   0  0  0  0  0  0  0  0  0  0  0  0
   12.7954  -18.3931   21.4782 O   0  0  0  0  0  0  0  0  0  0  0  0
  2  1  1  0
  3  2  1  0
  3  4  1  0
  5  4  1  0
  5  6  1  1
  7  5  1  0
  7  8  2  0
  9  7  1  0
 10  9  1  0
 10 11  1  6
 12 11  1  0
 12 16  1  0
 13 12  2  0
 14 13  1  0
 14 15  1  0
 15 16  2  0
 17 10  1  0
 18 17  2  0
 19 17  1  0
 20 19  1  0
 20 25  1  0
 20 21  1  1
 22 21  1  0
 22 23  1  0
 23 24  2  0
 25 28  1  0
 26 25  2  0
 27 23  1  0
M  END
$$$$
