NHH.pdb
     RDKit          3D

 29 30  0  0  1  0  0  0  0  0999 V2000
   23.6046  -15.1038  -21.0057 N   0  0  0  0  0  0  0  0  0  0  0  0
   23.8588  -15.4653  -19.6045 C   0  0  0  0  0  0  0  0  0  0  0  0
   24.5016  -14.7255  -18.9523 O   0  0  0  0  0  0  0  0  0  0  0  0
   23.3123  -16.8154  -19.1819 C   0  0  0  0  0  0  0  0  0  0  0  0
   24.4554  -17.5206  -18.5213 C   0  0  2  0  0  0  0  0  0  0  0  0
   25.5510  -17.7790  -19.4288 N   0  0  0  0  0  0  0  0  0  0  0  0
   24.1570  -18.5519  -17.6506 C   0  0  0  0  0  0  0  0  0  0  0  0
   23.3159  -19.4498  -18.1664 O   0  0  0  0  0  0  0  0  0  0  0  0
   24.7070  -18.5608  -16.3073 N   0  0  0  0  0  0  0  0  0  0  0  0
   24.4205  -19.5308  -15.3611 C   0  0  1  0  0  0  0  0  0  0  0  0
   25.3514  -20.1464  -14.4231 C   0  0  0  0  0  0  0  0  0  0  0  0
   26.4503  -20.6924  -15.1901 C   0  0  0  0  0  0  0  0  0  0  0  0
   27.6109  -20.0608  -15.4588 C   0  0  0  0  0  0  0  0  0  0  0  0
   28.4059  -20.9276  -16.1157 N   0  0  0  0  0  0  0  0  0  0  0  0
   27.7039  -22.0593  -16.2931 C   0  0  0  0  0  0  0  0  0  0  0  0
   26.4548  -21.9345  -15.7461 N   0  0  0  0  0  0  0  0  0  0  0  0
   23.1742  -19.0354  -14.5249 C   0  0  0  0  0  0  0  0  0  0  0  0
   23.3293  -17.9932  -13.9591 O   0  0  0  0  0  0  0  0  0  0  0  0
   22.0590  -19.9353  -14.5529 N   0  0  0  0  0  0  0  0  0  0  0  0
   20.8517  -19.3201  -14.0989 C   0  0  1  0  0  0  0  0  0  0  0  0
   20.4884  -18.0530  -15.0172 C   0  0  0  0  0  0  0  0  0  0  0  0
   19.2418  -17.6221  -14.2548 C   0  0  0  0  0  0  0  0  0  0  0  0
   19.2418  -16.8412  -13.1161 C   0  0  0  0  0  0  0  0  0  0  0  0
   17.9805  -16.4150  -12.9338 N   0  0  0  0  0  0  0  0  0  0  0  0
   17.2235  -16.9019  -13.9130 C   0  0  0  0  0  0  0  0  0  0  0  0
   17.9970  -17.7113  -14.7524 N   0  0  0  0  0  0  0  0  0  0  0  0
   19.7062  -20.2289  -14.1046 C   0  0  0  0  0  0  0  0  0  0  0  0
   18.6381  -20.0086  -13.2705 O   0  0  0  0  0  0  0  0  0  0  0  0
   19.7117  -21.2936  -14.8582 O   0  0  0  0  0  0  0  0  0  0  0  0
  1  2  1  0
  2  3  2  0
  4  2  1  0
  4  5  1  0
  5  6  1  6
  5  7  1  0
  7  8  2  0
  9  7  1  0
  9 10  1  0
 10 11  1  1
 11 12  1  0
 12 16  1  0
 13 14  1  0
 13 12  2  0
 14 15  1  0
 15 16  2  0
 17 10  1  0
 17 18  2  0
 19 17  1  0
 20 27  1  0
 20 19  1  0
 20 21  1  6
 22 21  1  0
 23 22  2  0
 24 25  1  0
 24 23  1  0
 25 26  2  0
 26 22  1  0
 27 28  1  0
 29 27  2  0
M  END
$$$$
