NHH.pdb
     RDKit          3D

 29 30  0  0  1  0  0  0  0  0999 V2000
   22.4946  -14.8250  -18.9184 N   0  0  0  0  0  0  0  0  0  0  0  0
   21.6850  -13.9771  -18.0327 C   0  0  0  0  0  0  0  0  0  0  0  0
   20.5175  -14.1273  -18.0417 O   0  0  0  0  0  0  0  0  0  0  0  0
   22.4654  -12.9363  -17.2531 C   0  0  0  0  0  0  0  0  0  0  0  0
   21.8477  -11.6211  -17.6127 C   0  0  2  0  0  0  0  0  0  0  0  0
   21.9550  -11.3214  -19.0232 N   0  0  0  0  0  0  0  0  0  0  0  0
   22.0733  -10.5525  -16.7654 C   0  0  0  0  0  0  0  0  0  0  0  0
   21.8758  -10.8488  -15.4798 O   0  0  0  0  0  0  0  0  0  0  0  0
   22.4402   -9.2548  -17.3025 N   0  0  0  0  0  0  0  0  0  0  0  0
   22.7730   -8.1607  -16.5209 C   0  0  1  0  0  0  0  0  0  0  0  0
   24.0933   -7.5638  -16.3603 C   0  0  0  0  0  0  0  0  0  0  0  0
   25.0146   -8.6238  -16.0116 C   0  0  0  0  0  0  0  0  0  0  0  0
   25.8925   -9.2092  -16.8511 C   0  0  0  0  0  0  0  0  0  0  0  0
   26.6274  -10.0800  -16.1325 N   0  0  0  0  0  0  0  0  0  0  0  0
   26.1544  -10.0611  -14.8751 C   0  0  0  0  0  0  0  0  0  0  0  0
   25.1168   -9.1737  -14.7710 N   0  0  0  0  0  0  0  0  0  0  0  0
   21.7718   -6.9910  -16.8776 C   0  0  0  0  0  0  0  0  0  0  0  0
   21.9078   -6.5278  -17.9718 O   0  0  0  0  0  0  0  0  0  0  0  0
   20.8740   -6.6483  -15.8144 N   0  0  0  0  0  0  0  0  0  0  0  0
   19.9181   -5.6608  -16.2063 C   0  0  1  0  0  0  0  0  0  0  0  0
   18.4899   -5.9663  -15.5372 C   0  0  0  0  0  0  0  0  0  0  0  0
   18.1300   -7.1647  -16.4061 C   0  0  0  0  0  0  0  0  0  0  0  0
   18.4039   -7.2743  -17.7549 C   0  0  0  0  0  0  0  0  0  0  0  0
   18.2370   -8.5662  -18.0845 N   0  0  0  0  0  0  0  0  0  0  0  0
   17.8783   -9.2383  -16.9943 C   0  0  0  0  0  0  0  0  0  0  0  0
   17.7634   -8.3591  -15.9118 N   0  0  0  0  0  0  0  0  0  0  0  0
   20.3116   -4.3017  -15.8373 C   0  0  0  0  0  0  0  0  0  0  0  0
   19.4853   -3.2394  -16.1088 O   0  0  0  0  0  0  0  0  0  0  0  0
   21.4787   -4.0748  -15.3007 O   0  0  0  0  0  0  0  0  0  0  0  0
  1  2  1  0
  2  3  2  0
  4  2  1  0
  4  5  1  0
  5  6  1  6
  5  7  1  0
  7  8  2  0
  9  7  1  0
  9 10  1  0
 10 11  1  6
 11 12  1  0
 12 16  1  0
 13 14  1  0
 13 12  2  0
 14 15  1  0
 15 16  2  0
 17 10  1  0
 17 18  2  0
 19 17  1  0
 20 27  1  0
 20 19  1  0
 20 21  1  1
 22 21  1  0
 23 22  2  0
 24 25  1  0
 24 23  1  0
 25 26  2  0
 26 22  1  0
 27 28  1  0
 29 27  2  0
M  END
$$$$
