NHH.pdb
     RDKit          3D

 29 30  0  0  1  0  0  0  0  0999 V2000
   16.3759  -14.0042  -12.3191 N   0  0  0  0  0  0  0  0  0  0  0  0
   16.1532  -13.1205  -11.1667 C   0  0  0  0  0  0  0  0  0  0  0  0
   15.8380  -13.6148  -10.1458 O   0  0  0  0  0  0  0  0  0  0  0  0
   16.2863  -11.6386  -11.4606 C   0  0  0  0  0  0  0  0  0  0  0  0
   15.0624  -11.0037  -10.8781 C   0  0  2  0  0  0  0  0  0  0  0  0
   13.8384  -11.5573  -11.4131 N   0  0  0  0  0  0  0  0  0  0  0  0
   15.0659   -9.6309  -10.7165 C   0  0  0  0  0  0  0  0  0  0  0  0
   14.8501   -8.9663  -11.8529 O   0  0  0  0  0  0  0  0  0  0  0  0
   15.3328   -9.0458   -9.4152 N   0  0  0  0  0  0  0  0  0  0  0  0
   15.3779   -7.6823   -9.1753 C   0  0  1  0  0  0  0  0  0  0  0  0
   14.9086   -6.9829   -7.9854 C   0  0  0  0  0  0  0  0  0  0  0  0
   13.4719   -7.1430   -7.9203 C   0  0  0  0  0  0  0  0  0  0  0  0
   12.6240   -7.0582   -8.9652 C   0  0  0  0  0  0  0  0  0  0  0  0
   11.3892   -7.3544   -8.5153 N   0  0  0  0  0  0  0  0  0  0  0  0
   11.4843   -7.5605   -7.1911 C   0  0  0  0  0  0  0  0  0  0  0  0
   12.7807   -7.4064   -6.7780 N   0  0  0  0  0  0  0  0  0  0  0  0
   16.8546   -7.1925   -9.4530 C   0  0  0  0  0  0  0  0  0  0  0  0
   17.7016   -7.7736   -8.8405 O   0  0  0  0  0  0  0  0  0  0  0  0
   16.9421   -6.1014  -10.3783 N   0  0  0  0  0  0  0  0  0  0  0  0
   18.2746   -5.8948  -10.8516 C   0  0  1  0  0  0  0  0  0  0  0  0
   18.8105   -7.2064  -11.6086 C   0  0  0  0  0  0  0  0  0  0  0  0
   19.9576   -6.5356  -12.3535 C   0  0  0  0  0  0  0  0  0  0  0  0
   21.2000   -6.2659  -11.8148 C   0  0  0  0  0  0  0  0  0  0  0  0
   22.0186   -5.9815  -12.8417 N   0  0  0  0  0  0  0  0  0  0  0  0
   21.3252   -6.0711  -13.9731 C   0  0  0  0  0  0  0  0  0  0  0  0
   19.9919   -6.3861  -13.6883 N   0  0  0  0  0  0  0  0  0  0  0  0
   18.3893   -4.7618  -11.7689 C   0  0  0  0  0  0  0  0  0  0  0  0
   17.2646   -4.1391  -12.2507 O   0  0  0  0  0  0  0  0  0  0  0  0
   19.5599   -4.3676  -12.1883 O   0  0  0  0  0  0  0  0  0  0  0  0
  1  2  1  0
  2  3  2  0
  4  2  1  0
  4  5  1  0
  5  6  1  6
  5  7  1  0
  7  8  2  0
  9  7  1  0
  9 10  1  0
 10 11  1  1
 11 12  1  0
 12 16  1  0
 13 14  1  0
 13 12  2  0
 14 15  1  0
 15 16  2  0
 17 10  1  0
 17 18  2  0
 19 17  1  0
 20 27  1  0
 20 19  1  0
 20 21  1  6
 22 21  1  0
 23 22  2  0
 24 25  1  0
 24 23  1  0
 25 26  2  0
 26 22  1  0
 27 28  1  0
 29 27  2  0
M  END
$$$$
