NHH.pdb
     RDKit          3D

 29 30  0  0  1  0  0  0  0  0999 V2000
   20.9354  -20.5387  -15.4547 N   0  0  0  0  0  0  0  0  0  0  0  0
   20.7385  -19.0835  -15.5020 C   0  0  0  0  0  0  0  0  0  0  0  0
   19.7725  -18.6751  -16.0368 O   0  0  0  0  0  0  0  0  0  0  0  0
   21.8684  -18.2645  -14.9082 C   0  0  0  0  0  0  0  0  0  0  0  0
   21.9410  -17.0216  -15.7391 C   0  0  2  0  0  0  0  0  0  0  0  0
   22.0919  -17.3016  -17.1497 N   0  0  0  0  0  0  0  0  0  0  0  0
   22.7062  -15.9739  -15.2622 C   0  0  0  0  0  0  0  0  0  0  0  0
   22.6945  -15.8761  -13.9318 O   0  0  0  0  0  0  0  0  0  0  0  0
   23.3870  -15.0831  -16.1841 N   0  0  0  0  0  0  0  0  0  0  0  0
   24.1966  -14.0316  -15.7874 C   0  0  1  0  0  0  0  0  0  0  0  0
   25.5527  -13.7465  -16.2402 C   0  0  0  0  0  0  0  0  0  0  0  0
   26.3357  -14.9509  -16.0661 C   0  0  0  0  0  0  0  0  0  0  0  0
   26.6283  -15.5339  -14.8860 C   0  0  0  0  0  0  0  0  0  0  0  0
   27.2940  -16.6755  -15.1474 N   0  0  0  0  0  0  0  0  0  0  0  0
   27.4524  -16.7505  -16.4795 C   0  0  0  0  0  0  0  0  0  0  0  0
   26.8845  -15.6631  -17.0877 N   0  0  0  0  0  0  0  0  0  0  0  0
   23.3632  -12.6974  -15.9397 C   0  0  0  0  0  0  0  0  0  0  0  0
   22.6299  -12.6667  -16.8840 O   0  0  0  0  0  0  0  0  0  0  0  0
   23.6434  -11.7173  -14.9323 N   0  0  0  0  0  0  0  0  0  0  0  0
   22.8096  -10.5627  -15.0494 C   0  0  1  0  0  0  0  0  0  0  0  0
   22.6976   -9.8062  -13.6366 C   0  0  0  0  0  0  0  0  0  0  0  0
   21.6966   -8.7440  -14.0732 C   0  0  0  0  0  0  0  0  0  0  0  0
   20.6924   -8.9375  -15.0008 C   0  0  0  0  0  0  0  0  0  0  0  0
   19.8414   -7.9050  -14.8776 N   0  0  0  0  0  0  0  0  0  0  0  0
   20.2871   -7.1016  -13.9159 C   0  0  0  0  0  0  0  0  0  0  0  0
   21.4952   -7.5934  -13.4093 N   0  0  0  0  0  0  0  0  0  0  0  0
   23.2926   -9.6032  -16.0416 C   0  0  0  0  0  0  0  0  0  0  0  0
   22.4059   -8.8770  -16.7974 O   0  0  0  0  0  0  0  0  0  0  0  0
   24.5711   -9.4699  -16.2635 O   0  0  0  0  0  0  0  0  0  0  0  0
  1  2  1  0
  2  3  2  0
  4  2  1  0
  4  5  1  0
  5  6  1  6
  5  7  1  0
  7  8  2  0
  9  7  1  0
  9 10  1  0
 10 11  1  6
 11 12  1  0
 12 16  1  0
 13 14  1  0
 13 12  2  0
 14 15  1  0
 15 16  2  0
 17 10  1  0
 17 18  2  0
 19 17  1  0
 20 27  1  0
 20 19  1  0
 20 21  1  1
 22 21  1  0
 23 22  2  0
 24 25  1  0
 24 23  1  0
 25 26  2  0
 26 22  1  0
 27 28  1  0
 29 27  2  0
M  END
$$$$
