NHH.pdb
     RDKit          3D

 29 30  0  0  1  0  0  0  0  0999 V2000
   19.1122  -15.1338  -17.8486 N   0  0  0  0  0  0  0  0  0  0  0  0
   19.9515  -13.9375  -18.0004 C   0  0  0  0  0  0  0  0  0  0  0  0
   20.4981  -13.7747  -19.0303 O   0  0  0  0  0  0  0  0  0  0  0  0
   20.0736  -13.0785  -16.7565 C   0  0  0  0  0  0  0  0  0  0  0  0
   19.3422  -11.8112  -17.0722 C   0  0  2  0  0  0  0  0  0  0  0  0
   19.3512  -11.4988  -18.4840 N   0  0  0  0  0  0  0  0  0  0  0  0
   19.5336  -10.7322  -16.2298 C   0  0  0  0  0  0  0  0  0  0  0  0
   19.0663  -10.9370  -14.9972 O   0  0  0  0  0  0  0  0  0  0  0  0
   20.1477   -9.5139  -16.7254 N   0  0  0  0  0  0  0  0  0  0  0  0
   20.3938   -8.3983  -15.9422 C   0  0  1  0  0  0  0  0  0  0  0  0
   21.6914   -7.8111  -15.6313 C   0  0  0  0  0  0  0  0  0  0  0  0
   22.5109   -8.8463  -15.0392 C   0  0  0  0  0  0  0  0  0  0  0  0
   22.4084   -9.3020  -13.7743 C   0  0  0  0  0  0  0  0  0  0  0  0
   23.2790  -10.3204  -13.6343 N   0  0  0  0  0  0  0  0  0  0  0  0
   23.9454  -10.4398  -14.7949 C   0  0  0  0  0  0  0  0  0  0  0  0
   23.5052   -9.5055  -15.6939 N   0  0  0  0  0  0  0  0  0  0  0  0
   19.4649   -7.2300  -16.4619 C   0  0  0  0  0  0  0  0  0  0  0  0
   19.6155   -6.9408  -17.6125 O   0  0  0  0  0  0  0  0  0  0  0  0
   18.6053   -6.6783  -15.4565 N   0  0  0  0  0  0  0  0  0  0  0  0
   17.8102   -5.5995  -15.9526 C   0  0  1  0  0  0  0  0  0  0  0  0
   16.2478   -5.9558  -15.8387 C   0  0  0  0  0  0  0  0  0  0  0  0
   15.7290   -4.7817  -16.6590 C   0  0  0  0  0  0  0  0  0  0  0  0
   15.9694   -4.5898  -18.0051 C   0  0  0  0  0  0  0  0  0  0  0  0
   15.1016   -3.6553  -18.4284 N   0  0  0  0  0  0  0  0  0  0  0  0
   14.3488   -3.2793  -17.3985 C   0  0  0  0  0  0  0  0  0  0  0  0
   14.7545   -3.9557  -16.2428 N   0  0  0  0  0  0  0  0  0  0  0  0
   18.0422   -4.3414  -15.2442 C   0  0  0  0  0  0  0  0  0  0  0  0
   18.2672   -3.1805  -15.9418 O   0  0  0  0  0  0  0  0  0  0  0  0
   18.0987   -4.3180  -13.9412 O   0  0  0  0  0  0  0  0  0  0  0  0
  1  2  1  0
  2  3  2  0
  4  2  1  0
  4  5  1  0
  5  6  1  6
  5  7  1  0
  7  8  2  0
  9  7  1  0
  9 10  1  0
 10 11  1  6
 11 12  1  0
 12 16  1  0
 13 14  1  0
 13 12  2  0
 14 15  1  0
 15 16  2  0
 17 10  1  0
 17 18  2  0
 19 17  1  0
 20 27  1  0
 20 19  1  0
 20 21  1  1
 22 21  1  0
 23 22  2  0
 24 25  1  0
 24 23  1  0
 25 26  2  0
 26 22  1  0
 27 28  1  0
 29 27  2  0
M  END
$$$$
