NHH.pdb
     RDKit          3D

 29 30  0  0  1  0  0  0  0  0999 V2000
   18.9671   -9.7481  -22.0002 N   0  0  0  0  0  0  0  0  0  0  0  0
   19.5521  -10.4709  -20.8626 C   0  0  0  0  0  0  0  0  0  0  0  0
   20.3640  -11.2924  -21.0902 O   0  0  0  0  0  0  0  0  0  0  0  0
   18.9693  -10.1140  -19.5088 C   0  0  0  0  0  0  0  0  0  0  0  0
   19.8216   -8.9993  -18.9877 C   0  0  2  0  0  0  0  0  0  0  0  0
   21.2316   -9.2194  -19.2207 N   0  0  0  0  0  0  0  0  0  0  0  0
   19.5051   -8.4739  -17.7489 C   0  0  0  0  0  0  0  0  0  0  0  0
   18.2141   -8.1622  -17.6233 O   0  0  0  0  0  0  0  0  0  0  0  0
   20.5406   -8.2681  -16.7527 N   0  0  0  0  0  0  0  0  0  0  0  0
   20.3010   -7.7830  -15.4776 C   0  0  1  0  0  0  0  0  0  0  0  0
   20.3594   -8.5303  -14.2271 C   0  0  0  0  0  0  0  0  0  0  0  0
   19.5720   -9.7324  -14.3972 C   0  0  0  0  0  0  0  0  0  0  0  0
   18.2385   -9.8293  -14.2222 C   0  0  0  0  0  0  0  0  0  0  0  0
   17.8711  -11.0802  -14.5615 N   0  0  0  0  0  0  0  0  0  0  0  0
   18.9888  -11.7521  -14.8846 C   0  0  0  0  0  0  0  0  0  0  0  0
   20.0839  -10.9389  -14.7637 N   0  0  0  0  0  0  0  0  0  0  0  0
   21.1756   -6.4809  -15.2848 C   0  0  0  0  0  0  0  0  0  0  0  0
   21.2089   -6.0576  -14.1667 O   0  0  0  0  0  0  0  0  0  0  0  0
   21.7691   -5.9935  -16.4948 N   0  0  0  0  0  0  0  0  0  0  0  0
   22.2895   -4.6703  -16.3511 C   0  0  1  0  0  0  0  0  0  0  0  0
   23.0097   -4.2005  -17.7081 C   0  0  0  0  0  0  0  0  0  0  0  0
   24.0744   -5.2897  -17.7402 C   0  0  0  0  0  0  0  0  0  0  0  0
   24.7516   -5.7663  -16.6354 C   0  0  0  0  0  0  0  0  0  0  0  0
   25.3484   -6.9117  -17.0062 N   0  0  0  0  0  0  0  0  0  0  0  0
   25.0579   -7.1464  -18.2827 C   0  0  0  0  0  0  0  0  0  0  0  0
   24.2753   -6.1034  -18.7903 N   0  0  0  0  0  0  0  0  0  0  0  0
   21.2645   -3.6830  -16.0152 C   0  0  0  0  0  0  0  0  0  0  0  0
   21.4965   -2.7411  -15.0436 O   0  0  0  0  0  0  0  0  0  0  0  0
   20.0950   -3.7230  -16.5916 O   0  0  0  0  0  0  0  0  0  0  0  0
  1  2  1  0
  2  3  2  0
  4  2  1  0
  4  5  1  0
  5  6  1  1
  5  7  1  0
  7  8  2  0
  9  7  1  0
  9 10  1  0
 10 11  1  1
 11 12  1  0
 12 16  1  0
 13 14  1  0
 13 12  2  0
 14 15  1  0
 15 16  2  0
 17 10  1  0
 17 18  2  0
 19 17  1  0
 20 27  1  0
 20 19  1  0
 20 21  1  6
 22 21  1  0
 23 22  2  0
 24 25  1  0
 24 23  1  0
 25 26  2  0
 26 22  1  0
 27 28  1  0
 29 27  2  0
M  END
$$$$
