NHH.pdb
     RDKit          3D

 29 30  0  0  1  0  0  0  0  0999 V2000
   23.4451  -18.1676  -19.2109 N   0  0  0  0  0  0  0  0  0  0  0  0
   22.4506  -18.0949  -18.1319 C   0  0  0  0  0  0  0  0  0  0  0  0
   21.5865  -17.3016  -18.2312 O   0  0  0  0  0  0  0  0  0  0  0  0
   22.7089  -19.0211  -16.9591 C   0  0  0  0  0  0  0  0  0  0  0  0
   24.1902  -18.9929  -16.7459 C   0  0  2  0  0  0  0  0  0  0  0  0
   24.9290  -18.8519  -17.9809 N   0  0  0  0  0  0  0  0  0  0  0  0
   24.7258  -19.8881  -15.8390 C   0  0  0  0  0  0  0  0  0  0  0  0
   23.9869  -20.9881  -15.6858 O   0  0  0  0  0  0  0  0  0  0  0  0
   25.9507  -19.5688  -15.1285 N   0  0  0  0  0  0  0  0  0  0  0  0
   26.5443  -20.4045  -14.1970 C   0  0  1  0  0  0  0  0  0  0  0  0
   27.9467  -20.7979  -14.1361 C   0  0  0  0  0  0  0  0  0  0  0  0
   28.2068  -21.6702  -15.2610 C   0  0  0  0  0  0  0  0  0  0  0  0
   27.3123  -22.0193  -16.2077 C   0  0  0  0  0  0  0  0  0  0  0  0
   27.9577  -22.7649  -17.1255 N   0  0  0  0  0  0  0  0  0  0  0  0
   29.2243  -22.9127  -16.7024 C   0  0  0  0  0  0  0  0  0  0  0  0
   29.4078  -22.2583  -15.5137 N   0  0  0  0  0  0  0  0  0  0  0  0
   26.1417  -19.8868  -12.7590 C   0  0  0  0  0  0  0  0  0  0  0  0
   26.4395  -18.7511  -12.5310 O   0  0  0  0  0  0  0  0  0  0  0  0
   25.5067  -20.8768  -11.9402 N   0  0  0  0  0  0  0  0  0  0  0  0
   25.2284  -20.3968  -10.6232 C   0  0  1  0  0  0  0  0  0  0  0  0
   23.9396  -21.1396  -10.0164 C   0  0  0  0  0  0  0  0  0  0  0  0
   22.9172  -20.5592  -10.9852 C   0  0  0  0  0  0  0  0  0  0  0  0
   23.2217  -19.9629  -12.1928 C   0  0  0  0  0  0  0  0  0  0  0  0
   22.0749  -19.8790  -12.8881 N   0  0  0  0  0  0  0  0  0  0  0  0
   21.0959  -20.4006  -12.1543 C   0  0  0  0  0  0  0  0  0  0  0  0
   21.5989  -20.8088  -10.9141 N   0  0  0  0  0  0  0  0  0  0  0  0
   26.3419  -20.5875   -9.6948 C   0  0  0  0  0  0  0  0  0  0  0  0
   26.2894  -20.0630   -8.4270 O   0  0  0  0  0  0  0  0  0  0  0  0
   27.4240  -21.2059  -10.0796 O   0  0  0  0  0  0  0  0  0  0  0  0
  1  2  1  0
  2  3  2  0
  4  2  1  0
  4  5  1  0
  5  6  1  6
  5  7  1  0
  7  8  2  0
  9  7  1  0
  9 10  1  0
 10 11  1  1
 11 12  1  0
 12 16  1  0
 13 14  1  0
 13 12  2  0
 14 15  1  0
 15 16  2  0
 17 10  1  0
 17 18  2  0
 19 17  1  0
 20 27  1  0
 20 19  1  0
 20 21  1  1
 22 21  1  0
 23 22  2  0
 24 25  1  0
 24 23  1  0
 25 26  2  0
 26 22  1  0
 27 28  1  0
 29 27  2  0
M  END
$$$$
