NHH.pdb
     RDKit          3D

 29 30  0  0  1  0  0  0  0  0999 V2000
   22.4579  -12.4254  -16.4244 N   0  0  0  0  0  0  0  0  0  0  0  0
   23.4321  -11.6719  -17.2255 C   0  0  0  0  0  0  0  0  0  0  0  0
   24.1886  -12.2818  -17.8901 O   0  0  0  0  0  0  0  0  0  0  0  0
   23.3916  -10.1679  -17.0350 C   0  0  0  0  0  0  0  0  0  0  0  0
   21.9409   -9.8000  -17.0637 C   0  0  2  0  0  0  0  0  0  0  0  0
   21.3434   -9.9882  -18.3669 N   0  0  0  0  0  0  0  0  0  0  0  0
   21.5568   -8.6494  -16.4010 C   0  0  0  0  0  0  0  0  0  0  0  0
   21.9779   -8.6047  -15.1360 O   0  0  0  0  0  0  0  0  0  0  0  0
   20.7362   -7.6563  -17.0700 N   0  0  0  0  0  0  0  0  0  0  0  0
   20.3724   -6.4457  -16.5039 C   0  0  1  0  0  0  0  0  0  0  0  0
   20.9143   -5.1294  -16.8191 C   0  0  0  0  0  0  0  0  0  0  0  0
   22.3463   -5.2697  -16.9725 C   0  0  0  0  0  0  0  0  0  0  0  0
   23.0120   -5.2954  -18.1448 C   0  0  0  0  0  0  0  0  0  0  0  0
   24.3290   -5.3474  -17.8665 N   0  0  0  0  0  0  0  0  0  0  0  0
   24.4537   -5.4114  -16.5303 C   0  0  0  0  0  0  0  0  0  0  0  0
   23.2200   -5.3936  -15.9365 N   0  0  0  0  0  0  0  0  0  0  0  0
   18.7978   -6.3325  -16.5782 C   0  0  0  0  0  0  0  0  0  0  0  0
   18.3276   -6.5486  -17.6564 O   0  0  0  0  0  0  0  0  0  0  0  0
   18.1818   -5.9562  -15.3401 N   0  0  0  0  0  0  0  0  0  0  0  0
   16.7614   -5.8450  -15.4506 C   0  0  1  0  0  0  0  0  0  0  0  0
   16.0416   -6.6519  -14.2624 C   0  0  0  0  0  0  0  0  0  0  0  0
   16.2942   -8.0515  -14.8084 C   0  0  0  0  0  0  0  0  0  0  0  0
   17.2742   -8.9121  -14.3553 C   0  0  0  0  0  0  0  0  0  0  0  0
   16.9790  -10.1307  -14.8386 N   0  0  0  0  0  0  0  0  0  0  0  0
   15.8645  -10.0417  -15.5589 C   0  0  0  0  0  0  0  0  0  0  0  0
   15.4248   -8.7138  -15.5898 N   0  0  0  0  0  0  0  0  0  0  0  0
   16.2885   -4.4618  -15.4123 C   0  0  0  0  0  0  0  0  0  0  0  0
   14.9441   -4.1844  -15.4397 O   0  0  0  0  0  0  0  0  0  0  0  0
   17.1391   -3.4729  -15.4130 O   0  0  0  0  0  0  0  0  0  0  0  0
  1  2  1  0
  2  3  2  0
  4  2  1  0
  4  5  1  0
  5  6  1  6
  5  7  1  0
  7  8  2  0
  9  7  1  0
  9 10  1  0
 10 11  1  6
 11 12  1  0
 12 16  1  0
 13 14  1  0
 13 12  2  0
 14 15  1  0
 15 16  2  0
 17 10  1  0
 17 18  2  0
 19 17  1  0
 20 27  1  0
 20 19  1  0
 20 21  1  1
 22 21  1  0
 23 22  2  0
 24 25  1  0
 24 23  1  0
 25 26  2  0
 26 22  1  0
 27 28  1  0
 29 27  2  0
M  END
$$$$
