YVD.pdb
     RDKit          3D

 28 28  0  0  1  0  0  0  0  0999 V2000
   28.3899  -13.6420  -17.6136 O   0  0  0  0  0  0  0  0  0  0  0  0
   27.8063  -14.8015  -17.1283 C   0  0  0  0  0  0  0  0  0  0  0  0
   27.3681  -14.9070  -15.8327 C   0  0  0  0  0  0  0  0  0  0  0  0
   26.7838  -16.0577  -15.3342 C   0  0  0  0  0  0  0  0  0  0  0  0
   26.6554  -17.1225  -16.2130 C   0  0  0  0  0  0  0  0  0  0  0  0
   26.0393  -18.3583  -15.7144 C   0  0  0  0  0  0  0  0  0  0  0  0
   27.0914  -19.1634  -14.9468 C   0  0  2  0  0  0  0  0  0  0  0  0
   27.9344  -19.7893  -15.9118 N   0  0  0  0  0  0  0  0  0  0  0  0
   26.3536  -20.2512  -14.1751 C   0  0  0  0  0  0  0  0  0  0  0  0
   26.1442  -21.3286  -14.7584 O   0  0  0  0  0  0  0  0  0  0  0  0
   27.0840  -17.0474  -17.5144 C   0  0  0  0  0  0  0  0  0  0  0  0
   27.6657  -15.8863  -17.9918 C   0  0  0  0  0  0  0  0  0  0  0  0
   26.9387  -21.3657  -10.5546 C   0  0  0  0  0  0  0  0  0  0  0  0
   25.5508  -20.7487  -10.5952 C   0  0  2  0  0  0  0  0  0  0  0  0
   24.7237  -21.5290   -9.5987 C   0  0  0  0  0  0  0  0  0  0  0  0
   25.0658  -20.7901  -12.0075 C   0  0  2  0  0  0  0  0  0  0  0  0
   25.9376  -20.0279  -12.8664 N   0  0  0  0  0  0  0  0  0  0  0  0
   23.6635  -20.4879  -12.2451 C   0  0  0  0  0  0  0  0  0  0  0  0
   23.2402  -19.3114  -11.9848 O   0  0  0  0  0  0  0  0  0  0  0  0
   22.7074  -21.3936  -12.7513 N   0  0  0  0  0  0  0  0  0  0  0  0
   21.3223  -20.9777  -12.9989 C   0  0  1  0  0  0  0  0  0  0  0  0
   21.1620  -20.5943  -14.4505 C   0  0  0  0  0  0  0  0  0  0  0  0
   19.7718  -20.3187  -14.8493 C   0  0  0  0  0  0  0  0  0  0  0  0
   18.9623  -19.8615  -13.9867 O   0  0  0  0  0  0  0  0  0  0  0  0
   20.4341  -22.1025  -12.6698 C   0  0  0  0  0  0  0  0  0  0  0  0
   19.2183  -21.9024  -12.0345 O   0  0  0  0  0  0  0  0  0  0  0  0
   19.2484  -20.5184  -16.1159 O   0  0  0  0  0  0  0  0  0  0  0  0
   20.7655  -23.2684  -12.9610 O   0  0  0  0  0  0  0  0  0  0  0  0
  2  3  2  0
  2  1  1  0
  4  3  1  0
  5  4  2  0
  6  5  1  0
  7  6  1  0
  7  9  1  0
  7  8  1  6
  9 10  2  0
  9 17  1  0
 11  5  1  0
 11 12  2  0
 12  2  1  0
 14 13  1  6
 14 15  1  0
 16 14  1  0
 16 17  1  6
 18 16  1  0
 18 19  2  0
 20 18  1  0
 21 20  1  0
 21 25  1  0
 21 22  1  6
 23 24  2  0
 23 22  1  0
 25 26  1  0
 27 23  1  0
 28 25  2  0
M  END
$$$$
