YVD.pdb
     RDKit          3D

 28 28  0  0  1  0  0  0  0  0999 V2000
   29.8059   -8.6891  -18.0643 O   0  0  0  0  0  0  0  0  0  0  0  0
   28.7227   -9.0345  -17.2719 C   0  0  0  0  0  0  0  0  0  0  0  0
   27.6214   -8.2253  -17.1537 C   0  0  0  0  0  0  0  0  0  0  0  0
   26.5330   -8.5568  -16.3667 C   0  0  0  0  0  0  0  0  0  0  0  0
   26.5995   -9.7638  -15.6877 C   0  0  0  0  0  0  0  0  0  0  0  0
   25.4601  -10.1445  -14.8437 C   0  0  0  0  0  0  0  0  0  0  0  0
   24.4677  -10.9529  -15.6838 C   0  0  2  0  0  0  0  0  0  0  0  0
   25.2083  -11.9723  -16.3516 N   0  0  0  0  0  0  0  0  0  0  0  0
   23.8919  -10.0104  -16.7343 C   0  0  0  0  0  0  0  0  0  0  0  0
   24.5016   -9.9100  -17.8127 O   0  0  0  0  0  0  0  0  0  0  0  0
   27.6872  -10.5947  -15.7857 C   0  0  0  0  0  0  0  0  0  0  0  0
   28.7650  -10.2430  -16.5789 C   0  0  0  0  0  0  0  0  0  0  0  0
   19.8617   -9.6758  -16.6791 C   0  0  0  0  0  0  0  0  0  0  0  0
   20.7456   -9.3065  -17.8584 C   0  0  2  0  0  0  0  0  0  0  0  0
   21.1134  -10.6137  -18.5231 C   0  0  0  0  0  0  0  0  0  0  0  0
   21.8930   -8.5002  -17.3438 C   0  0  2  0  0  0  0  0  0  0  0  0
   22.7254   -9.2971  -16.4771 N   0  0  0  0  0  0  0  0  0  0  0  0
   21.5949   -7.1981  -16.7695 C   0  0  0  0  0  0  0  0  0  0  0  0
   21.6989   -7.0505  -15.5052 O   0  0  0  0  0  0  0  0  0  0  0  0
   21.1961   -6.0568  -17.4968 N   0  0  0  0  0  0  0  0  0  0  0  0
   21.0029   -4.7621  -16.8343 C   0  0  1  0  0  0  0  0  0  0  0  0
   21.4661   -3.6531  -17.7483 C   0  0  0  0  0  0  0  0  0  0  0  0
   21.2681   -2.3007  -17.2007 C   0  0  0  0  0  0  0  0  0  0  0  0
   20.9113   -2.1721  -15.9905 O   0  0  0  0  0  0  0  0  0  0  0  0
   19.5728   -4.6052  -16.5301 C   0  0  0  0  0  0  0  0  0  0  0  0
   19.1443   -3.9734  -15.3729 O   0  0  0  0  0  0  0  0  0  0  0  0
   21.4391   -1.1200  -17.9040 O   0  0  0  0  0  0  0  0  0  0  0  0
   18.7127   -5.0439  -17.3187 O   0  0  0  0  0  0  0  0  0  0  0  0
  2  3  2  0
  2  1  1  0
  4  3  1  0
  5  4  2  0
  6  5  1  0
  7  6  1  0
  7  9  1  0
  7  8  1  6
  9 10  2  0
  9 17  1  0
 11  5  1  0
 11 12  2  0
 12  2  1  0
 14 13  1  1
 14 15  1  0
 16 14  1  0
 16 17  1  1
 18 16  1  0
 18 19  2  0
 20 18  1  0
 21 20  1  0
 21 25  1  0
 21 22  1  6
 23 24  2  0
 23 22  1  0
 25 26  1  0
 27 23  1  0
 28 25  2  0
M  END
$$$$
