YVD.pdb
     RDKit          3D

 28 28  0  0  1  0  0  0  0  0999 V2000
   28.2425  -19.7163   -4.8083 O   0  0  0  0  0  0  0  0  0  0  0  0
   27.9796  -19.7384   -6.1688 C   0  0  0  0  0  0  0  0  0  0  0  0
   26.7230  -19.9820   -6.6622 C   0  0  0  0  0  0  0  0  0  0  0  0
   26.4455  -20.0072   -8.0173 C   0  0  0  0  0  0  0  0  0  0  0  0
   27.5087  -19.7716   -8.8756 C   0  0  0  0  0  0  0  0  0  0  0  0
   27.2469  -19.7916  -10.3201 C   0  0  0  0  0  0  0  0  0  0  0  0
   26.8185  -21.2038  -10.7279 C   0  0  2  0  0  0  0  0  0  0  0  0
   27.9821  -22.0273  -10.6927 N   0  0  0  0  0  0  0  0  0  0  0  0
   26.3262  -21.1283  -12.1685 C   0  0  0  0  0  0  0  0  0  0  0  0
   27.1777  -20.9666  -13.0594 O   0  0  0  0  0  0  0  0  0  0  0  0
   28.7766  -19.5248   -8.4126 C   0  0  0  0  0  0  0  0  0  0  0  0
   29.0315  -19.5044   -7.0527 C   0  0  0  0  0  0  0  0  0  0  0  0
   22.8945  -23.1309  -13.0584 C   0  0  0  0  0  0  0  0  0  0  0  0
   23.8588  -22.6045  -14.1079 C   0  0  2  0  0  0  0  0  0  0  0  0
   24.9797  -23.6165  -14.1822 C   0  0  0  0  0  0  0  0  0  0  0  0
   24.2642  -21.2219  -13.7135 C   0  0  2  0  0  0  0  0  0  0  0  0
   24.9694  -21.2386  -12.4560 N   0  0  0  0  0  0  0  0  0  0  0  0
   23.2451  -20.1856  -13.7549 C   0  0  0  0  0  0  0  0  0  0  0  0
   22.6828  -19.8387  -12.6620 O   0  0  0  0  0  0  0  0  0  0  0  0
   22.8135  -19.5108  -14.9164 N   0  0  0  0  0  0  0  0  0  0  0  0
   21.7677  -18.4836  -14.8546 C   0  0  1  0  0  0  0  0  0  0  0  0
   22.0205  -17.4410  -15.9172 C   0  0  0  0  0  0  0  0  0  0  0  0
   21.0015  -16.3797  -15.9724 C   0  0  0  0  0  0  0  0  0  0  0  0
   20.0633  -16.3812  -15.1190 O   0  0  0  0  0  0  0  0  0  0  0  0
   20.4668  -19.1317  -15.0786 C   0  0  0  0  0  0  0  0  0  0  0  0
   20.3762  -20.4682  -15.4353 O   0  0  0  0  0  0  0  0  0  0  0  0
   20.9694  -15.3490  -16.8968 O   0  0  0  0  0  0  0  0  0  0  0  0
   19.4118  -18.4802  -14.9494 O   0  0  0  0  0  0  0  0  0  0  0  0
  2  3  2  0
  2  1  1  0
  4  3  1  0
  5  4  2  0
  6  5  1  0
  7  6  1  0
  7  9  1  0
  7  8  1  6
  9 10  2  0
  9 17  1  0
 11  5  1  0
 11 12  2  0
 12  2  1  0
 14 13  1  1
 14 15  1  0
 16 14  1  0
 16 17  1  1
 18 16  1  0
 18 19  2  0
 20 18  1  0
 21 20  1  0
 21 25  1  0
 21 22  1  6
 23 24  2  0
 23 22  1  0
 25 26  1  0
 27 23  1  0
 28 25  2  0
M  END
$$$$
