YVD.pdb
     RDKit          3D

 28 28  0  0  1  0  0  0  0  0999 V2000
   20.7169  -22.4997   -6.5231 O   0  0  0  0  0  0  0  0  0  0  0  0
   21.2461  -21.8507   -7.6274 C   0  0  0  0  0  0  0  0  0  0  0  0
   22.4034  -21.1180   -7.5540 C   0  0  0  0  0  0  0  0  0  0  0  0
   22.9435  -20.4648   -8.6475 C   0  0  0  0  0  0  0  0  0  0  0  0
   22.2555  -20.5818   -9.8456 C   0  0  0  0  0  0  0  0  0  0  0  0
   22.8029  -19.9001  -11.0250 C   0  0  0  0  0  0  0  0  0  0  0  0
   23.4863  -20.9340  -11.9241 C   0  0  2  0  0  0  0  0  0  0  0  0
   24.7674  -21.2064  -11.3600 N   0  0  0  0  0  0  0  0  0  0  0  0
   23.6896  -20.2833  -13.2874 C   0  0  0  0  0  0  0  0  0  0  0  0
   24.7005  -19.5771  -13.4424 O   0  0  0  0  0  0  0  0  0  0  0  0
   21.0956  -21.3076   -9.9506 C   0  0  0  0  0  0  0  0  0  0  0  0
   20.5734  -21.9528   -8.8437 C   0  0  0  0  0  0  0  0  0  0  0  0
   23.5163  -20.4192  -17.9633 C   0  0  0  0  0  0  0  0  0  0  0  0
   23.5497  -20.9570  -16.5427 C   0  0  2  0  0  0  0  0  0  0  0  0
   23.0328  -22.3754  -16.6267 C   0  0  0  0  0  0  0  0  0  0  0  0
   22.7566  -20.0326  -15.6778 C   0  0  2  0  0  0  0  0  0  0  0  0
   22.7664  -20.4844  -14.3086 N   0  0  0  0  0  0  0  0  0  0  0  0
   21.4204  -19.6746  -16.1257 C   0  0  0  0  0  0  0  0  0  0  0  0
   20.4617  -20.4863  -15.8954 O   0  0  0  0  0  0  0  0  0  0  0  0
   21.0774  -18.4853  -16.8029 N   0  0  0  0  0  0  0  0  0  0  0  0
   19.6939  -18.2132  -17.2085 C   0  0  1  0  0  0  0  0  0  0  0  0
   19.5055  -16.7267  -17.3951 C   0  0  0  0  0  0  0  0  0  0  0  0
   18.7192  -16.0822  -16.3301 C   0  0  0  0  0  0  0  0  0  0  0  0
   18.2486  -16.7962  -15.3935 O   0  0  0  0  0  0  0  0  0  0  0  0
   19.4328  -18.9204  -18.4711 C   0  0  0  0  0  0  0  0  0  0  0  0
   18.2407  -19.5933  -18.6903 O   0  0  0  0  0  0  0  0  0  0  0  0
   18.4356  -14.7288  -16.2526 O   0  0  0  0  0  0  0  0  0  0  0  0
   20.2908  -18.9256  -19.3754 O   0  0  0  0  0  0  0  0  0  0  0  0
  2  3  2  0
  2  1  1  0
  4  3  1  0
  5  4  2  0
  6  5  1  0
  7  6  1  0
  7  9  1  0
  7  8  1  1
  9 10  2  0
  9 17  1  0
 11  5  1  0
 11 12  2  0
 12  2  1  0
 14 13  1  6
 14 15  1  0
 16 14  1  0
 16 17  1  1
 18 16  1  0
 18 19  2  0
 20 18  1  0
 21 20  1  0
 21 25  1  0
 21 22  1  6
 23 24  2  0
 23 22  1  0
 25 26  1  0
 27 23  1  0
 28 25  2  0
M  END
$$$$
