YVD.pdb
     RDKit          3D

 28 28  0  0  1  0  0  0  0  0999 V2000
   17.2855  -15.6777  -15.0146 O   0  0  0  0  0  0  0  0  0  0  0  0
   16.8651  -14.4037  -14.6672 C   0  0  0  0  0  0  0  0  0  0  0  0
   15.9214  -13.7259  -15.3964 C   0  0  0  0  0  0  0  0  0  0  0  0
   15.4919  -12.4540  -15.0620 C   0  0  0  0  0  0  0  0  0  0  0  0
   16.0640  -11.8787  -13.9376 C   0  0  0  0  0  0  0  0  0  0  0  0
   15.6295  -10.5293  -13.5561 C   0  0  0  0  0  0  0  0  0  0  0  0
   14.7981  -10.6190  -12.2735 C   0  0  2  0  0  0  0  0  0  0  0  0
   13.6286  -11.3762  -12.5777 N   0  0  0  0  0  0  0  0  0  0  0  0
   14.3721   -9.2011  -11.9110 C   0  0  0  0  0  0  0  0  0  0  0  0
   13.4824   -8.6741  -12.6004 O   0  0  0  0  0  0  0  0  0  0  0  0
   17.0101  -12.5314  -13.1878 C   0  0  0  0  0  0  0  0  0  0  0  0
   17.4249  -13.8033  -13.5409 C   0  0  0  0  0  0  0  0  0  0  0  0
   15.5853   -6.5278   -8.1118 C   0  0  0  0  0  0  0  0  0  0  0  0
   14.5003   -7.3362   -8.8029 C   0  0  2  0  0  0  0  0  0  0  0  0
   14.5927   -8.7298   -8.2239 C   0  0  0  0  0  0  0  0  0  0  0  0
   14.7151   -7.2358  -10.2778 C   0  0  2  0  0  0  0  0  0  0  0  0
   14.9690   -8.5374  -10.8438 N   0  0  0  0  0  0  0  0  0  0  0  0
   15.6619   -6.2394  -10.7522 C   0  0  0  0  0  0  0  0  0  0  0  0
   16.9065   -6.5249  -10.7385 O   0  0  0  0  0  0  0  0  0  0  0  0
   15.3242   -4.9595  -11.2406 N   0  0  0  0  0  0  0  0  0  0  0  0
   16.3545   -4.0345  -11.7258 C   0  0  1  0  0  0  0  0  0  0  0  0
   16.4925   -4.1727  -13.2230 C   0  0  0  0  0  0  0  0  0  0  0  0
   17.4417   -3.2243  -13.8292 C   0  0  0  0  0  0  0  0  0  0  0  0
   18.0463   -2.3958  -13.0832 O   0  0  0  0  0  0  0  0  0  0  0  0
   15.9494   -2.6644  -11.3776 C   0  0  0  0  0  0  0  0  0  0  0  0
   16.8478   -1.6097  -11.4268 O   0  0  0  0  0  0  0  0  0  0  0  0
   17.7453   -3.1486  -15.1783 O   0  0  0  0  0  0  0  0  0  0  0  0
   14.7764   -2.4276  -11.0285 O   0  0  0  0  0  0  0  0  0  0  0  0
  2  3  2  0
  2  1  1  0
  4  3  1  0
  5  4  2  0
  6  5  1  0
  7  6  1  0
  7  9  1  0
  7  8  1  6
  9 10  2  0
  9 17  1  0
 11  5  1  0
 11 12  2  0
 12  2  1  0
 14 13  1  1
 14 15  1  0
 16 14  1  0
 16 17  1  1
 18 16  1  0
 18 19  2  0
 20 18  1  0
 21 20  1  0
 21 25  1  0
 21 22  1  6
 23 24  2  0
 23 22  1  0
 25 26  1  0
 27 23  1  0
 28 25  2  0
M  END
$$$$
