YVD.pdb
     RDKit          3D

 28 28  0  0  1  0  0  0  0  0999 V2000
   23.7221  -19.2205  -22.0616 O   0  0  0  0  0  0  0  0  0  0  0  0
   23.4328  -19.6923  -20.7911 C   0  0  0  0  0  0  0  0  0  0  0  0
   22.4465  -19.1362  -20.0167 C   0  0  0  0  0  0  0  0  0  0  0  0
   22.1464  -19.5963  -18.7469 C   0  0  0  0  0  0  0  0  0  0  0  0
   22.8967  -20.6636  -18.2774 C   0  0  0  0  0  0  0  0  0  0  0  0
   22.6027  -21.1752  -16.9330 C   0  0  0  0  0  0  0  0  0  0  0  0
   22.9613  -20.1006  -15.9030 C   0  0  2  0  0  0  0  0  0  0  0  0
   24.3733  -19.9102  -15.9620 N   0  0  0  0  0  0  0  0  0  0  0  0
   22.6079  -20.6565  -14.5284 C   0  0  0  0  0  0  0  0  0  0  0  0
   23.3666  -21.5124  -14.0420 O   0  0  0  0  0  0  0  0  0  0  0  0
   23.8897  -21.2410  -19.0282 C   0  0  0  0  0  0  0  0  0  0  0  0
   24.1728  -20.7645  -20.2959 C   0  0  0  0  0  0  0  0  0  0  0  0
   20.2690  -19.6340  -10.3738 C   0  0  0  0  0  0  0  0  0  0  0  0
   20.7976  -19.2544  -11.7467 C   0  0  2  0  0  0  0  0  0  0  0  0
   19.8056  -18.2623  -12.3104 C   0  0  0  0  0  0  0  0  0  0  0  0
   20.9750  -20.5085  -12.5386 C   0  0  2  0  0  0  0  0  0  0  0  0
   21.4736  -20.2098  -13.8581 N   0  0  0  0  0  0  0  0  0  0  0  0
   19.8623  -21.4438  -12.5736 C   0  0  0  0  0  0  0  0  0  0  0  0
   18.9594  -21.2851  -13.4628 O   0  0  0  0  0  0  0  0  0  0  0  0
   19.6863  -22.5367  -11.6987 N   0  0  0  0  0  0  0  0  0  0  0  0
   18.5014  -23.3974  -11.7859 C   0  0  1  0  0  0  0  0  0  0  0  0
   18.6896  -24.6068  -10.9018 C   0  0  0  0  0  0  0  0  0  0  0  0
   17.5421  -25.5293  -10.8929 C   0  0  0  0  0  0  0  0  0  0  0  0
   16.5283  -25.2587  -11.6053 O   0  0  0  0  0  0  0  0  0  0  0  0
   17.3317  -22.6231  -11.3447 C   0  0  0  0  0  0  0  0  0  0  0  0
   17.3444  -21.9058  -10.1585 O   0  0  0  0  0  0  0  0  0  0  0  0
   17.4626  -26.7000  -10.1572 O   0  0  0  0  0  0  0  0  0  0  0  0
   16.2973  -22.5996  -12.0401 O   0  0  0  0  0  0  0  0  0  0  0  0
  2  3  2  0
  2  1  1  0
  4  3  1  0
  5  4  2  0
  6  5  1  0
  7  6  1  0
  7  9  1  0
  7  8  1  1
  9 10  2  0
  9 17  1  0
 11  5  1  0
 11 12  2  0
 12  2  1  0
 14 13  1  1
 14 15  1  0
 16 14  1  0
 16 17  1  6
 18 16  1  0
 18 19  2  0
 20 18  1  0
 21 20  1  0
 21 25  1  0
 21 22  1  1
 23 24  2  0
 23 22  1  0
 25 26  1  0
 27 23  1  0
 28 25  2  0
M  END
$$$$
