HRK.pdb
     RDKit          3D

 31 31  0  0  1  0  0  0  0  0999 V2000
    5.0625  -19.2443   21.3655 N   0  0  0  0  0  0  0  0  0  0  0  0
    5.7772  -19.7219   22.4989 C   0  0  1  0  0  0  0  0  0  0  0  0
    6.1319  -21.1776   22.2668 C   0  0  0  0  0  0  0  0  0  0  0  0
    4.9305  -22.0081   22.0935 C   0  0  0  0  0  0  0  0  0  0  0  0
    4.3412  -22.3617   20.9029 C   0  0  0  0  0  0  0  0  0  0  0  0
    3.2810  -23.1212   21.1773 N   0  0  0  0  0  0  0  0  0  0  0  0
    3.2180  -23.2440   22.5371 C   0  0  0  0  0  0  0  0  0  0  0  0
    4.2227  -22.5742   23.1030 N   0  0  0  0  0  0  0  0  0  0  0  0
    7.0088  -18.9269   22.7077 C   0  0  0  0  0  0  0  0  0  0  0  0
    8.0379  -19.5220   23.1024 O   0  0  0  0  0  0  0  0  0  0  0  0
    9.5722  -14.4081   19.2365 N   0  0  0  0  0  0  0  0  0  0  0  0
    8.6394  -13.5567   18.5902 C   0  0  0  0  0  0  0  0  0  0  0  0
    8.7366  -13.2438   17.3236 N   0  0  0  0  0  0  0  0  0  0  0  0
    7.5416  -13.0017   19.3447 N   0  0  0  0  0  0  0  0  0  0  0  0
    7.3865  -13.4303   20.6845 C   0  0  0  0  0  0  0  0  0  0  0  0
    7.3981  -14.9749   20.8123 C   0  0  0  0  0  0  0  0  0  0  0  0
    7.9409  -15.2196   22.1628 C   0  0  0  0  0  0  0  0  0  0  0  0
    8.0295  -16.6121   22.6842 C   0  0  2  0  0  0  0  0  0  0  0  0
    7.0295  -17.5525   22.4764 N   0  0  0  0  0  0  0  0  0  0  0  0
    8.3274  -16.5053   24.1322 C   0  0  0  0  0  0  0  0  0  0  0  0
    7.2998  -16.2002   24.8562 O   0  0  0  0  0  0  0  0  0  0  0  0
    8.1066  -12.4525   17.0047 N   0  0  0  0  0  0  0  0  0  0  0  0
    9.5719  -16.6912   24.7051 C   0  0  2  0  0  0  0  0  0  0  0  0
    9.7672  -16.6084   26.2081 C   0  0  0  0  0  0  0  0  0  0  0  0
   10.1467  -17.9564   26.6566 C   0  0  0  0  0  0  0  0  0  0  0  0
   10.4919  -18.2119   28.0503 C   0  0  0  0  0  0  0  0  0  0  0  0
   10.9260  -19.5770   28.4830 C   0  0  0  0  0  0  0  0  0  0  0  0
   11.3096  -19.5556   29.9876 N   0  0  0  0  0  0  0  0  0  0  0  0
   11.7188  -20.9132   30.3196 C   0  0  0  0  0  0  0  0  0  0  0  0
   10.7888  -15.5262   26.2712 O   0  0  0  0  0  0  0  0  0  0  0  0
   11.5789  -15.1649   25.2211 O   0  0  0  0  0  0  0  0  0  0  0  0
  2  1  1  6
  2  9  1  0
  2  3  1  0
  3  4  1  0
  4  8  1  0
  4  5  2  0
  5  6  1  0
  7  6  1  0
  8  7  2  0
  9 10  2  0
 12 14  1  0
 12 11  1  0
 13 12  2  0
 15 16  1  0
 15 14  1  0
 16 17  1  0
 18 17  1  1
 19 18  1  0
 19  9  1  0
 20 18  1  0
 21 20  2  0
 22 20  1  0
 23 22  1  0
 24 25  1  0
 23 24  1  6
 25 26  1  0
 26 27  1  0
 27 28  1  0
 29 23  1  0
 29 30  1  0
 31 29  2  0
M  END
$$$$
