HRK.pdb
     RDKit          3D

 31 31  0  0  1  0  0  0  0  0999 V2000
   10.6809  -18.9616   16.0032 N   0  0  0  0  0  0  0  0  0  0  0  0
   10.3306  -19.3153   17.3358 C   0  0  1  0  0  0  0  0  0  0  0  0
   11.0394  -20.6068   17.6938 C   0  0  0  0  0  0  0  0  0  0  0  0
   10.2959  -21.7838   17.2192 C   0  0  0  0  0  0  0  0  0  0  0  0
    9.0409  -21.7909   16.6581 C   0  0  0  0  0  0  0  0  0  0  0  0
    8.7295  -23.0524   16.3610 N   0  0  0  0  0  0  0  0  0  0  0  0
    9.7944  -23.8250   16.7312 C   0  0  0  0  0  0  0  0  0  0  0  0
   10.7557  -23.0598   17.2492 N   0  0  0  0  0  0  0  0  0  0  0  0
   10.7249  -18.2427   18.2773 C   0  0  0  0  0  0  0  0  0  0  0  0
   11.4956  -17.3459   17.8642 O   0  0  0  0  0  0  0  0  0  0  0  0
    8.5091  -12.4651   18.3811 N   0  0  0  0  0  0  0  0  0  0  0  0
    8.0893  -12.3212   19.7285 C   0  0  0  0  0  0  0  0  0  0  0  0
    8.6072  -11.4284   20.5324 N   0  0  0  0  0  0  0  0  0  0  0  0
    7.0594  -13.1878   20.2490 N   0  0  0  0  0  0  0  0  0  0  0  0
    7.4632  -14.4330   20.7869 C   0  0  0  0  0  0  0  0  0  0  0  0
    8.6796  -15.0309   20.0354 C   0  0  0  0  0  0  0  0  0  0  0  0
    8.7422  -16.4280   20.5073 C   0  0  0  0  0  0  0  0  0  0  0  0
   10.0340  -17.1682   20.4611 C   0  0  2  0  0  0  0  0  0  0  0  0
   10.2577  -18.2263   19.5906 N   0  0  0  0  0  0  0  0  0  0  0  0
   10.3332  -17.5874   21.8509 C   0  0  0  0  0  0  0  0  0  0  0  0
    9.4705  -18.4153   22.3444 O   0  0  0  0  0  0  0  0  0  0  0  0
    8.2853  -11.4888   21.5412 N   0  0  0  0  0  0  0  0  0  0  0  0
   11.4122  -17.1536   22.5988 C   0  0  2  0  0  0  0  0  0  0  0  0
   12.0041  -18.0144   23.7000 C   0  0  0  0  0  0  0  0  0  0  0  0
   13.4503  -17.7489   23.7082 C   0  0  0  0  0  0  0  0  0  0  0  0
   14.3518  -18.5400   24.5379 C   0  0  0  0  0  0  0  0  0  0  0  0
   15.8191  -18.2467   24.5513 C   0  0  0  0  0  0  0  0  0  0  0  0
   16.5224  -19.1258   25.6208 N   0  0  0  0  0  0  0  0  0  0  0  0
   17.9310  -18.7586   25.5830 C   0  0  0  0  0  0  0  0  0  0  0  0
   11.1899  -17.5430   24.8548 O   0  0  0  0  0  0  0  0  0  0  0  0
   10.4089  -16.4263   24.8285 O   0  0  0  0  0  0  0  0  0  0  0  0
  2  1  1  6
  2  9  1  0
  2  3  1  0
  3  4  1  0
  4  8  1  0
  4  5  2  0
  5  6  1  0
  7  6  1  0
  8  7  2  0
  9 10  2  0
 12 14  1  0
 12 11  1  0
 13 12  2  0
 15 16  1  0
 15 14  1  0
 16 17  1  0
 18 17  1  1
 19 18  1  0
 19  9  1  0
 20 18  1  0
 21 20  2  0
 22 20  1  0
 23 22  1  0
 24 25  1  0
 23 24  1  6
 25 26  1  0
 26 27  1  0
 27 28  1  0
 29 23  1  0
 29 30  1  0
 31 29  2  0
M  END
$$$$
