HRK.pdb
     RDKit          3D

 31 31  0  0  1  0  0  0  0  0999 V2000
   10.8053  -17.3017   18.3148 N   0  0  0  0  0  0  0  0  0  0  0  0
    9.4561  -16.8515   18.3394 C   0  0  1  0  0  0  0  0  0  0  0  0
    8.6582  -17.6651   17.3394 C   0  0  0  0  0  0  0  0  0  0  0  0
    8.8999  -17.2176   15.9594 C   0  0  0  0  0  0  0  0  0  0  0  0
    9.6155  -16.1108   15.5684 C   0  0  0  0  0  0  0  0  0  0  0  0
    9.6021  -16.0608   14.2366 N   0  0  0  0  0  0  0  0  0  0  0  0
    8.8847  -17.1402   13.8029 C   0  0  0  0  0  0  0  0  0  0  0  0
    8.4583  -17.8539   14.8455 N   0  0  0  0  0  0  0  0  0  0  0  0
    8.8818  -17.0095   19.6950 C   0  0  0  0  0  0  0  0  0  0  0  0
    7.6792  -16.7048   19.8679 O   0  0  0  0  0  0  0  0  0  0  0  0
    9.2366  -22.9219   25.7119 N   0  0  0  0  0  0  0  0  0  0  0  0
    9.1147  -23.4121   24.3862 C   0  0  0  0  0  0  0  0  0  0  0  0
    8.8441  -24.6649   24.1244 N   0  0  0  0  0  0  0  0  0  0  0  0
    9.2996  -22.5105   23.2747 N   0  0  0  0  0  0  0  0  0  0  0  0
    9.4433  -21.1332   23.5671 C   0  0  0  0  0  0  0  0  0  0  0  0
    9.7669  -20.2951   22.3042 C   0  0  0  0  0  0  0  0  0  0  0  0
    9.9137  -18.9181   22.8147 C   0  0  0  0  0  0  0  0  0  0  0  0
    9.3068  -17.7821   22.0664 C   0  0  2  0  0  0  0  0  0  0  0  0
    9.6532  -17.4809   20.7561 N   0  0  0  0  0  0  0  0  0  0  0  0
    9.4648  -16.5796   22.9183 C   0  0  0  0  0  0  0  0  0  0  0  0
   10.5456  -15.9096   22.6815 O   0  0  0  0  0  0  0  0  0  0  0  0
    8.8201  -24.9156   23.0941 N   0  0  0  0  0  0  0  0  0  0  0  0
    8.5766  -16.1751   23.8976 C   0  0  2  0  0  0  0  0  0  0  0  0
    8.8888  -15.0010   24.8076 C   0  0  0  0  0  0  0  0  0  0  0  0
    7.6154  -14.3060   25.0473 C   0  0  0  0  0  0  0  0  0  0  0  0
    7.5456  -13.1610   25.9479 C   0  0  0  0  0  0  0  0  0  0  0  0
    6.2385  -12.4783   26.2020 C   0  0  0  0  0  0  0  0  0  0  0  0
    6.4433  -11.3000   27.1926 N   0  0  0  0  0  0  0  0  0  0  0  0
    5.1173  -10.7593   27.4569 C   0  0  0  0  0  0  0  0  0  0  0  0
    9.5269  -15.7238   25.9430 O   0  0  0  0  0  0  0  0  0  0  0  0
   10.4959  -15.1872   26.7371 O   0  0  0  0  0  0  0  0  0  0  0  0
  2  1  1  1
  2  9  1  0
  2  3  1  0
  3  4  1  0
  4  8  1  0
  4  5  2  0
  5  6  1  0
  7  6  1  0
  8  7  2  0
  9 10  2  0
 12 14  1  0
 12 11  1  0
 13 12  2  0
 15 16  1  0
 15 14  1  0
 16 17  1  0
 18 17  1  1
 19 18  1  0
 19  9  1  0
 20 18  1  0
 21 20  2  0
 22 20  1  0
 23 22  1  0
 24 25  1  0
 23 24  1  6
 25 26  1  0
 26 27  1  0
 27 28  1  0
 29 23  1  0
 29 30  1  0
 31 29  2  0
M  END
$$$$
