HRK.pdb
     RDKit          3D

 31 31  0  0  1  0  0  0  0  0999 V2000
    7.0727  -17.2249   19.4579 N   0  0  0  0  0  0  0  0  0  0  0  0
    7.5876  -16.3101   20.4180 C   0  0  1  0  0  0  0  0  0  0  0  0
    6.8907  -14.9762   20.2348 C   0  0  0  0  0  0  0  0  0  0  0  0
    7.5826  -14.1332   19.2480 C   0  0  0  0  0  0  0  0  0  0  0  0
    8.7101  -14.4622   18.5334 C   0  0  0  0  0  0  0  0  0  0  0  0
    9.0146  -13.4308   17.7461 N   0  0  0  0  0  0  0  0  0  0  0  0
    8.0718  -12.4664   17.9678 C   0  0  0  0  0  0  0  0  0  0  0  0
    7.1920  -12.8882   18.8767 N   0  0  0  0  0  0  0  0  0  0  0  0
    7.3601  -16.8168   21.7906 C   0  0  0  0  0  0  0  0  0  0  0  0
    6.1785  -16.9518   22.1838 O   0  0  0  0  0  0  0  0  0  0  0  0
    6.5180  -22.8685   23.9087 N   0  0  0  0  0  0  0  0  0  0  0  0
    6.4122  -22.4798   25.2689 C   0  0  0  0  0  0  0  0  0  0  0  0
    5.5306  -23.0038   26.0811 N   0  0  0  0  0  0  0  0  0  0  0  0
    7.2973  -21.4658   25.7896 N   0  0  0  0  0  0  0  0  0  0  0  0
    7.8036  -20.5092   24.8778 C   0  0  0  0  0  0  0  0  0  0  0  0
    8.7853  -19.5171   25.5519 C   0  0  0  0  0  0  0  0  0  0  0  0
    9.2712  -18.6797   24.4379 C   0  0  0  0  0  0  0  0  0  0  0  0
    8.4484  -17.5341   23.9590 C   0  0  2  0  0  0  0  0  0  0  0  0
    8.4271  -17.1341   22.6297 N   0  0  0  0  0  0  0  0  0  0  0  0
    8.7813  -16.3798   24.8271 C   0  0  0  0  0  0  0  0  0  0  0  0
    9.8816  -15.7821   24.5028 O   0  0  0  0  0  0  0  0  0  0  0  0
    5.4570  -22.5358   27.0300 N   0  0  0  0  0  0  0  0  0  0  0  0
    8.0276  -15.9492   25.9033 C   0  0  2  0  0  0  0  0  0  0  0  0
    8.4810  -14.7864   26.7673 C   0  0  0  0  0  0  0  0  0  0  0  0
    7.2976  -13.9422   26.9889 C   0  0  0  0  0  0  0  0  0  0  0  0
    7.3038  -12.5322   26.6166 C   0  0  0  0  0  0  0  0  0  0  0  0
    6.0817  -11.6924   26.8176 C   0  0  0  0  0  0  0  0  0  0  0  0
    6.3550  -10.2410   26.3378 N   0  0  0  0  0  0  0  0  0  0  0  0
    5.1401   -9.4880   26.6160 C   0  0  0  0  0  0  0  0  0  0  0  0
    9.0444  -15.5359   27.9247 O   0  0  0  0  0  0  0  0  0  0  0  0
   10.0904  -15.0951   28.6790 O   0  0  0  0  0  0  0  0  0  0  0  0
  2  1  1  6
  2  9  1  0
  2  3  1  0
  3  4  1  0
  4  8  1  0
  4  5  2  0
  5  6  1  0
  7  6  1  0
  8  7  2  0
  9 10  2  0
 12 14  1  0
 12 11  1  0
 13 12  2  0
 15 16  1  0
 15 14  1  0
 16 17  1  0
 18 17  1  6
 19 18  1  0
 19  9  1  0
 20 18  1  0
 21 20  2  0
 22 20  1  0
 23 22  1  0
 24 25  1  0
 23 24  1  6
 25 26  1  0
 26 27  1  0
 27 28  1  0
 29 23  1  0
 29 30  1  0
 31 29  2  0
M  END
$$$$
