HRK.pdb
     RDKit          3D

 31 31  0  0  1  0  0  0  0  0999 V2000
    8.0567  -17.3558   18.0230 N   0  0  0  0  0  0  0  0  0  0  0  0
    8.4892  -16.4531   19.0337 C   0  0  1  0  0  0  0  0  0  0  0  0
    7.6245  -15.2094   18.9713 C   0  0  0  0  0  0  0  0  0  0  0  0
    7.9234  -14.3994   17.7806 C   0  0  0  0  0  0  0  0  0  0  0  0
    8.8178  -14.7057   16.7825 C   0  0  0  0  0  0  0  0  0  0  0  0
    8.7895  -13.7190   15.8869 N   0  0  0  0  0  0  0  0  0  0  0  0
    7.8726  -12.8058   16.3266 C   0  0  0  0  0  0  0  0  0  0  0  0
    7.3356  -13.2152   17.4764 N   0  0  0  0  0  0  0  0  0  0  0  0
    8.3793  -17.0806   20.3704 C   0  0  0  0  0  0  0  0  0  0  0  0
    7.3604  -17.7646   20.6216 O   0  0  0  0  0  0  0  0  0  0  0  0
   12.9955  -22.5957   26.6905 N   0  0  0  0  0  0  0  0  0  0  0  0
   12.9211  -21.7499   25.5540 C   0  0  0  0  0  0  0  0  0  0  0  0
   13.7353  -21.8694   24.5370 N   0  0  0  0  0  0  0  0  0  0  0  0
   11.9212  -20.7106   25.5052 N   0  0  0  0  0  0  0  0  0  0  0  0
   11.7749  -20.0009   24.2895 C   0  0  0  0  0  0  0  0  0  0  0  0
   10.5824  -19.0115   24.3267 C   0  0  0  0  0  0  0  0  0  0  0  0
   10.5562  -18.4294   22.9707 C   0  0  0  0  0  0  0  0  0  0  0  0
    9.5014  -17.4417   22.6090 C   0  0  2  0  0  0  0  0  0  0  0  0
    9.3771  -16.9165   21.3298 N   0  0  0  0  0  0  0  0  0  0  0  0
    9.5921  -16.3419   23.5985 C   0  0  0  0  0  0  0  0  0  0  0  0
   10.6283  -15.5835   23.4435 O   0  0  0  0  0  0  0  0  0  0  0  0
   13.5500  -21.2061   23.7303 N   0  0  0  0  0  0  0  0  0  0  0  0
    8.6880  -16.1124   24.6191 C   0  0  1  0  0  0  0  0  0  0  0  0
    8.9108  -15.0062   25.6344 C   0  0  0  0  0  0  0  0  0  0  0  0
    7.6210  -14.3189   25.7956 C   0  0  0  0  0  0  0  0  0  0  0  0
    7.5556  -12.8662   25.9055 C   0  0  0  0  0  0  0  0  0  0  0  0
    6.2602  -12.1904   26.2284 C   0  0  0  0  0  0  0  0  0  0  0  0
    6.4865  -10.6615   26.3787 N   0  0  0  0  0  0  0  0  0  0  0  0
    5.2288  -10.1129   26.8663 C   0  0  0  0  0  0  0  0  0  0  0  0
    9.4332  -15.8106   26.7741 O   0  0  0  0  0  0  0  0  0  0  0  0
    9.4242  -17.1730   26.8100 O   0  0  0  0  0  0  0  0  0  0  0  0
  2  1  1  6
  2  9  1  0
  2  3  1  0
  3  4  1  0
  4  8  1  0
  4  5  2  0
  5  6  1  0
  7  6  1  0
  8  7  2  0
  9 10  2  0
 12 14  1  0
 12 11  1  0
 13 12  2  0
 15 16  1  0
 15 14  1  0
 16 17  1  0
 18 17  1  6
 19 18  1  0
 19  9  1  0
 20 18  1  0
 21 20  2  0
 22 20  1  0
 23 22  1  0
 24 25  1  0
 23 24  1  1
 25 26  1  0
 26 27  1  0
 27 28  1  0
 29 23  1  0
 29 30  1  0
 31 29  2  0
M  END
$$$$
