HRK.pdb
     RDKit          3D

 31 31  0  0  1  0  0  0  0  0999 V2000
    9.2240  -16.9850   17.8524 N   0  0  0  0  0  0  0  0  0  0  0  0
    9.9809  -15.9369   18.4457 C   0  0  1  0  0  0  0  0  0  0  0  0
    9.1659  -15.3317   19.5718 C   0  0  0  0  0  0  0  0  0  0  0  0
    8.2523  -14.2887   19.0811 C   0  0  0  0  0  0  0  0  0  0  0  0
    8.1398  -13.8381   17.7872 C   0  0  0  0  0  0  0  0  0  0  0  0
    7.1983  -12.8951   17.7597 N   0  0  0  0  0  0  0  0  0  0  0  0
    6.7231  -12.7671   19.0347 C   0  0  0  0  0  0  0  0  0  0  0  0
    7.3552  -13.6167   19.8452 N   0  0  0  0  0  0  0  0  0  0  0  0
   11.2637  -16.4575   18.9711 C   0  0  0  0  0  0  0  0  0  0  0  0
   11.3222  -17.6644   19.3013 O   0  0  0  0  0  0  0  0  0  0  0  0
   16.7756  -12.1562   17.5019 N   0  0  0  0  0  0  0  0  0  0  0  0
   16.7859  -13.2766   16.6317 C   0  0  0  0  0  0  0  0  0  0  0  0
   16.8458  -13.1529   15.3307 N   0  0  0  0  0  0  0  0  0  0  0  0
   16.7215  -14.6077   17.1852 N   0  0  0  0  0  0  0  0  0  0  0  0
   17.1642  -14.7835   18.5179 C   0  0  0  0  0  0  0  0  0  0  0  0
   16.2166  -15.6972   19.3361 C   0  0  0  0  0  0  0  0  0  0  0  0
   14.8657  -15.2084   18.9980 C   0  0  0  0  0  0  0  0  0  0  0  0
   13.6676  -15.9096   19.5382 C   0  0  2  0  0  0  0  0  0  0  0  0
   12.3795  -15.6321   19.1008 N   0  0  0  0  0  0  0  0  0  0  0  0
   13.7351  -15.7903   21.0140 C   0  0  0  0  0  0  0  0  0  0  0  0
   13.4685  -14.6040   21.4553 O   0  0  0  0  0  0  0  0  0  0  0  0
   16.8740  -14.0658   14.7915 N   0  0  0  0  0  0  0  0  0  0  0  0
   14.0609  -16.8161   21.8818 C   0  0  2  0  0  0  0  0  0  0  0  0
   14.0521  -16.6083   23.3854 C   0  0  0  0  0  0  0  0  0  0  0  0
   13.3217  -17.7468   23.9619 C   0  0  0  0  0  0  0  0  0  0  0  0
   13.2133  -17.9123   25.4068 C   0  0  0  0  0  0  0  0  0  0  0  0
   12.3657  -19.0037   25.9808 C   0  0  0  0  0  0  0  0  0  0  0  0
   12.3401  -18.8918   27.5294 N   0  0  0  0  0  0  0  0  0  0  0  0
   11.5892  -20.0451   28.0055 C   0  0  0  0  0  0  0  0  0  0  0  0
   15.5170  -16.5057   23.6351 O   0  0  0  0  0  0  0  0  0  0  0  0
   16.0620  -15.8673   24.7088 O   0  0  0  0  0  0  0  0  0  0  0  0
  2  1  1  1
  2  9  1  0
  2  3  1  0
  3  4  1  0
  4  8  1  0
  4  5  2  0
  5  6  1  0
  7  6  1  0
  8  7  2  0
  9 10  2  0
 12 14  1  0
 12 11  1  0
 13 12  2  0
 15 16  1  0
 15 14  1  0
 16 17  1  0
 18 17  1  6
 19 18  1  0
 19  9  1  0
 20 18  1  0
 21 20  2  0
 22 20  1  0
 23 22  1  0
 24 25  1  0
 23 24  1  6
 25 26  1  0
 26 27  1  0
 27 28  1  0
 29 23  1  0
 29 30  1  0
 31 29  2  0
M  END
$$$$
