HRK.pdb
     RDKit          3D

 31 31  0  0  1  0  0  0  0  0999 V2000
    8.9942  -17.1245   16.1756 N   0  0  0  0  0  0  0  0  0  0  0  0
    9.1475  -16.0987   17.1492 C   0  0  1  0  0  0  0  0  0  0  0  0
    7.8074  -15.8657   17.8189 C   0  0  0  0  0  0  0  0  0  0  0  0
    7.9048  -14.8691   18.8963 C   0  0  0  0  0  0  0  0  0  0  0  0
    7.4554  -15.0094   20.1879 C   0  0  0  0  0  0  0  0  0  0  0  0
    7.7382  -13.8860   20.8469 N   0  0  0  0  0  0  0  0  0  0  0  0
    8.3691  -13.0533   19.9657 C   0  0  0  0  0  0  0  0  0  0  0  0
    8.4805  -13.6465   18.7766 N   0  0  0  0  0  0  0  0  0  0  0  0
   10.1578  -16.4893   18.1587 C   0  0  0  0  0  0  0  0  0  0  0  0
   10.1975  -17.6866   18.5243 O   0  0  0  0  0  0  0  0  0  0  0  0
   15.3474  -13.2539   16.3378 N   0  0  0  0  0  0  0  0  0  0  0  0
   16.4008  -13.3858   17.2788 C   0  0  0  0  0  0  0  0  0  0  0  0
   17.3180  -12.4666   17.4375 N   0  0  0  0  0  0  0  0  0  0  0  0
   16.4818  -14.5741   18.0937 N   0  0  0  0  0  0  0  0  0  0  0  0
   15.4869  -14.7570   19.0835 C   0  0  0  0  0  0  0  0  0  0  0  0
   14.0717  -14.3901   18.5688 C   0  0  0  0  0  0  0  0  0  0  0  0
   13.1854  -14.6902   19.7102 C   0  0  0  0  0  0  0  0  0  0  0  0
   12.1121  -15.7129   19.5655 C   0  0  2  0  0  0  0  0  0  0  0  0
   11.0422  -15.5546   18.6949 N   0  0  0  0  0  0  0  0  0  0  0  0
   11.6122  -16.0001   20.9309 C   0  0  0  0  0  0  0  0  0  0  0  0
   10.8040  -15.1014   21.3915 O   0  0  0  0  0  0  0  0  0  0  0  0
   18.0684  -12.6963   18.1510 N   0  0  0  0  0  0  0  0  0  0  0  0
   11.9569  -17.1035   21.6895 C   0  0  2  0  0  0  0  0  0  0  0  0
   11.3716  -17.3221   23.0728 C   0  0  0  0  0  0  0  0  0  0  0  0
   11.3237  -18.7767   23.2829 C   0  0  0  0  0  0  0  0  0  0  0  0
   10.8311  -19.3360   24.5365 C   0  0  0  0  0  0  0  0  0  0  0  0
   10.6863  -20.8166   24.6978 C   0  0  0  0  0  0  0  0  0  0  0  0
   10.2607  -21.1488   26.1539 N   0  0  0  0  0  0  0  0  0  0  0  0
    9.9687  -22.5752   26.1740 C   0  0  0  0  0  0  0  0  0  0  0  0
   12.3303  -16.5197   23.8827 O   0  0  0  0  0  0  0  0  0  0  0  0
   12.0495  -16.0226   25.1202 O   0  0  0  0  0  0  0  0  0  0  0  0
  2  1  1  6
  2  9  1  0
  2  3  1  0
  3  4  1  0
  4  8  1  0
  4  5  2  0
  5  6  1  0
  7  6  1  0
  8  7  2  0
  9 10  2  0
 12 14  1  0
 12 11  1  0
 13 12  2  0
 15 16  1  0
 15 14  1  0
 16 17  1  0
 18 17  1  1
 19 18  1  0
 19  9  1  0
 20 18  1  0
 21 20  2  0
 22 20  1  0
 23 22  1  0
 24 25  1  0
 23 24  1  6
 25 26  1  0
 26 27  1  0
 27 28  1  0
 29 23  1  0
 29 30  1  0
 31 29  2  0
M  END
$$$$
