HRK.pdb
     RDKit          3D

 31 31  0  0  1  0  0  0  0  0999 V2000
    6.0466  -16.2184   25.6793 N   0  0  0  0  0  0  0  0  0  0  0  0
    6.5747  -15.1298   24.9312 C   0  0  1  0  0  0  0  0  0  0  0  0
    7.4973  -14.3300   25.8300 C   0  0  0  0  0  0  0  0  0  0  0  0
    6.7924  -13.2110   26.4736 C   0  0  0  0  0  0  0  0  0  0  0  0
    6.2145  -12.1338   25.8447 C   0  0  0  0  0  0  0  0  0  0  0  0
    5.6766  -11.3507   26.7795 N   0  0  0  0  0  0  0  0  0  0  0  0
    5.9150  -11.9465   27.9862 C   0  0  0  0  0  0  0  0  0  0  0  0
    6.5888  -13.0835   27.8089 N   0  0  0  0  0  0  0  0  0  0  0  0
    7.3199  -15.6250   23.7515 C   0  0  0  0  0  0  0  0  0  0  0  0
    7.7588  -16.7978   23.7778 O   0  0  0  0  0  0  0  0  0  0  0  0
    7.2432  -13.4372   15.5920 N   0  0  0  0  0  0  0  0  0  0  0  0
    8.5025  -14.0904   15.5902 C   0  0  0  0  0  0  0  0  0  0  0  0
    9.1027  -14.4523   14.4856 N   0  0  0  0  0  0  0  0  0  0  0  0
    9.1554  -14.3797   16.8442 N   0  0  0  0  0  0  0  0  0  0  0  0
    8.4712  -14.0311   18.0330 C   0  0  0  0  0  0  0  0  0  0  0  0
    9.3477  -14.2312   19.2955 C   0  0  0  0  0  0  0  0  0  0  0  0
    8.4181  -14.0008   20.4185 C   0  0  0  0  0  0  0  0  0  0  0  0
    8.2782  -15.0291   21.4871 C   0  0  2  0  0  0  0  0  0  0  0  0
    7.5342  -14.8127   22.6391 N   0  0  0  0  0  0  0  0  0  0  0  0
    9.6509  -15.4570   21.8470 C   0  0  0  0  0  0  0  0  0  0  0  0
   10.2215  -14.6982   22.7255 O   0  0  0  0  0  0  0  0  0  0  0  0
   10.0291  -14.9516   14.6181 N   0  0  0  0  0  0  0  0  0  0  0  0
   10.3104  -16.5488   21.3134 C   0  0  2  0  0  0  0  0  0  0  0  0
   11.6168  -17.0461   21.9051 C   0  0  0  0  0  0  0  0  0  0  0  0
   11.2936  -18.2536   22.6795 C   0  0  0  0  0  0  0  0  0  0  0  0
   12.0018  -18.5611   23.9167 C   0  0  0  0  0  0  0  0  0  0  0  0
   11.7176  -19.8318   24.6541 C   0  0  0  0  0  0  0  0  0  0  0  0
   12.5210  -19.8610   25.9827 N   0  0  0  0  0  0  0  0  0  0  0  0
   12.1532  -21.1018   26.6501 C   0  0  0  0  0  0  0  0  0  0  0  0
   12.4181  -17.1963   20.6585 O   0  0  0  0  0  0  0  0  0  0  0  0
   13.7548  -16.9425   20.5791 O   0  0  0  0  0  0  0  0  0  0  0  0
  2  1  1  1
  2  9  1  0
  2  3  1  0
  3  4  1  0
  4  8  1  0
  4  5  2  0
  5  6  1  0
  7  6  1  0
  8  7  2  0
  9 10  2  0
 12 14  1  0
 12 11  1  0
 13 12  2  0
 15 16  1  0
 15 14  1  0
 16 17  1  0
 18 17  1  1
 19 18  1  0
 19  9  1  0
 20 18  1  0
 21 20  2  0
 22 20  1  0
 23 22  1  0
 24 25  1  0
 23 24  1  6
 25 26  1  0
 26 27  1  0
 27 28  1  0
 29 23  1  0
 29 30  1  0
 31 29  2  0
M  END
$$$$
