HRK.pdb
     RDKit          3D

 31 31  0  0  1  0  0  0  0  0999 V2000
   10.0087  -17.6042   17.2332 N   0  0  0  0  0  0  0  0  0  0  0  0
   10.4083  -17.2606   18.5546 C   0  0  1  0  0  0  0  0  0  0  0  0
   11.4927  -16.2044   18.4709 C   0  0  0  0  0  0  0  0  0  0  0  0
   12.7755  -16.7767   18.0349 C   0  0  0  0  0  0  0  0  0  0  0  0
   13.7390  -17.3394   18.8380 C   0  0  0  0  0  0  0  0  0  0  0  0
   14.7425  -17.7409   18.0582 N   0  0  0  0  0  0  0  0  0  0  0  0
   14.3973  -17.4334   16.7720 C   0  0  0  0  0  0  0  0  0  0  0  0
   13.1978  -16.8514   16.7478 N   0  0  0  0  0  0  0  0  0  0  0  0
    9.2554  -16.7437   19.3266 C   0  0  0  0  0  0  0  0  0  0  0  0
    8.1550  -16.6254   18.7401 O   0  0  0  0  0  0  0  0  0  0  0  0
    4.9983  -21.8348   22.8559 N   0  0  0  0  0  0  0  0  0  0  0  0
    5.5155  -21.4465   24.1185 C   0  0  0  0  0  0  0  0  0  0  0  0
    5.3066  -22.1434   25.2059 N   0  0  0  0  0  0  0  0  0  0  0  0
    6.2967  -20.2379   24.2259 N   0  0  0  0  0  0  0  0  0  0  0  0
    6.4114  -19.4289   23.0704 C   0  0  0  0  0  0  0  0  0  0  0  0
    7.2243  -18.1364   23.3364 C   0  0  0  0  0  0  0  0  0  0  0  0
    8.0286  -17.9594   22.1117 C   0  0  0  0  0  0  0  0  0  0  0  0
    8.5375  -16.6073   21.7488 C   0  0  2  0  0  0  0  0  0  0  0  0
    9.3842  -16.3928   20.6696 N   0  0  0  0  0  0  0  0  0  0  0  0
    9.1339  -16.0338   22.9786 C   0  0  0  0  0  0  0  0  0  0  0  0
    9.6991  -16.9106   23.7434 O   0  0  0  0  0  0  0  0  0  0  0  0
    5.7569  -21.7550   26.0841 N   0  0  0  0  0  0  0  0  0  0  0  0
    9.1046  -14.6966   23.3291 C   0  0  2  0  0  0  0  0  0  0  0  0
    8.6656  -14.2549   24.7133 C   0  0  0  0  0  0  0  0  0  0  0  0
    7.3049  -13.7163   24.5698 C   0  0  0  0  0  0  0  0  0  0  0  0
    6.4601  -13.4957   25.7379 C   0  0  0  0  0  0  0  0  0  0  0  0
    6.2428  -12.1113   26.2626 C   0  0  0  0  0  0  0  0  0  0  0  0
    5.3419  -12.1621   27.5263 N   0  0  0  0  0  0  0  0  0  0  0  0
    5.1877  -10.7832   27.9683 C   0  0  0  0  0  0  0  0  0  0  0  0
    8.8477  -15.5329   25.4563 O   0  0  0  0  0  0  0  0  0  0  0  0
    9.4336  -15.6216   26.6837 O   0  0  0  0  0  0  0  0  0  0  0  0
  2  1  1  6
  2  9  1  0
  2  3  1  0
  3  4  1  0
  4  8  1  0
  4  5  2  0
  5  6  1  0
  7  6  1  0
  8  7  2  0
  9 10  2  0
 12 14  1  0
 12 11  1  0
 13 12  2  0
 15 16  1  0
 15 14  1  0
 16 17  1  0
 18 17  1  1
 19 18  1  0
 19  9  1  0
 20 18  1  0
 21 20  2  0
 22 20  1  0
 23 22  1  0
 24 25  1  0
 23 24  1  6
 25 26  1  0
 26 27  1  0
 27 28  1  0
 29 23  1  0
 29 30  1  0
 31 29  2  0
M  END
$$$$
