KDE.pdb
     RDKit          3D

 27 26  0  0  1  0  0  0  0  0999 V2000
   11.9279  -17.9100   16.7465 N   0  0  0  0  0  0  0  0  0  0  0  0
   12.3244  -18.9712   17.6127 C   0  0  1  0  0  0  0  0  0  0  0  0
   12.0950  -20.3097   16.9948 C   0  0  0  0  0  0  0  0  0  0  0  0
   10.9156  -20.4226   16.0948 C   0  0  0  0  0  0  0  0  0  0  0  0
    9.9243  -21.4767   16.4353 C   0  0  0  0  0  0  0  0  0  0  0  0
    8.7920  -21.6128   15.4564 C   0  0  0  0  0  0  0  0  0  0  0  0
    7.9575  -22.7246   15.8964 N   0  0  0  0  0  0  0  0  0  0  0  0
   13.6609  -18.8261   18.2210 C   0  0  0  0  0  0  0  0  0  0  0  0
   14.0359  -19.6788   19.0968 O   0  0  0  0  0  0  0  0  0  0  0  0
   14.6010  -17.8046   17.9247 N   0  0  0  0  0  0  0  0  0  0  0  0
   15.8850  -17.6599   18.5833 C   0  0  1  0  0  0  0  0  0  0  0  0
   16.8115  -16.7015   17.9137 C   0  0  0  0  0  0  0  0  0  0  0  0
   17.1356  -17.1664   16.5581 C   0  0  0  0  0  0  0  0  0  0  0  0
   17.4718  -18.3564   16.3568 O   0  0  0  0  0  0  0  0  0  0  0  0
   15.7223  -17.2054   19.9931 C   0  0  0  0  0  0  0  0  0  0  0  0
   14.7868  -16.4255   20.2933 O   0  0  0  0  0  0  0  0  0  0  0  0
   17.0883  -16.3250   15.4410 O   0  0  0  0  0  0  0  0  0  0  0  0
   16.6028  -17.6376   20.9973 N   0  0  0  0  0  0  0  0  0  0  0  0
   16.4056  -17.3922   22.4139 C   0  0  1  0  0  0  0  0  0  0  0  0
   15.4747  -18.4098   23.0421 C   0  0  0  0  0  0  0  0  0  0  0  0
   15.3652  -18.2100   24.5202 C   0  0  0  0  0  0  0  0  0  0  0  0
   14.4289  -19.1968   25.1012 C   0  0  0  0  0  0  0  0  0  0  0  0
   13.2731  -19.2821   24.6253 O   0  0  0  0  0  0  0  0  0  0  0  0
   17.7359  -17.4697   23.0710 C   0  0  0  0  0  0  0  0  0  0  0  0
   18.6910  -18.1588   22.6301 O   0  0  0  0  0  0  0  0  0  0  0  0
   14.7622  -20.0349   26.1471 O   0  0  0  0  0  0  0  0  0  0  0  0
   17.9954  -16.7533   24.2530 O   0  0  0  0  0  0  0  0  0  0  0  0
  2  1  1  6
  2  3  1  0
  3  4  1  0
  4  5  1  0
  6  5  1  0
  7  6  1  0
  8  2  1  0
  9  8  2  0
 10  8  1  0
 11 10  1  0
 12 13  1  0
 11 12  1  6
 13 17  1  0
 14 13  2  0
 15 11  1  0
 15 18  1  0
 16 15  2  0
 19 24  1  0
 19 18  1  0
 20 21  1  0
 19 20  1  1
 21 22  1  0
 22 23  2  0
 22 26  1  0
 24 27  1  0
 25 24  2  0
M  END
$$$$
