KDE.pdb
     RDKit          3D

 27 26  0  0  1  0  0  0  0  0999 V2000
    9.0007  -12.9606   17.5189 N   0  0  0  0  0  0  0  0  0  0  0  0
    9.0951  -14.3598   17.7775 C   0  0  1  0  0  0  0  0  0  0  0  0
    8.4163  -15.1681   16.7230 C   0  0  0  0  0  0  0  0  0  0  0  0
    8.5548  -14.6729   15.3270 C   0  0  0  0  0  0  0  0  0  0  0  0
    7.3355  -14.7392   14.4793 C   0  0  0  0  0  0  0  0  0  0  0  0
    7.5497  -14.3585   13.0412 C   0  0  0  0  0  0  0  0  0  0  0  0
    6.2704  -14.4880   12.3536 N   0  0  0  0  0  0  0  0  0  0  0  0
   10.4444  -14.8513   18.1171 C   0  0  0  0  0  0  0  0  0  0  0  0
   10.5854  -16.0718   18.4706 O   0  0  0  0  0  0  0  0  0  0  0  0
   11.6380  -14.0834   18.0914 N   0  0  0  0  0  0  0  0  0  0  0  0
   12.9493  -14.6000   18.4335 C   0  0  1  0  0  0  0  0  0  0  0  0
   14.0754  -13.9327   17.7180 C   0  0  0  0  0  0  0  0  0  0  0  0
   15.3249  -14.6778   17.9240 C   0  0  0  0  0  0  0  0  0  0  0  0
   16.2599  -14.1798   18.5929 O   0  0  0  0  0  0  0  0  0  0  0  0
   13.2170  -14.4736   19.8939 C   0  0  0  0  0  0  0  0  0  0  0  0
   13.3985  -13.3400   20.3993 O   0  0  0  0  0  0  0  0  0  0  0  0
   15.5360  -15.9565   17.3963 O   0  0  0  0  0  0  0  0  0  0  0  0
   13.2696  -15.6080   20.7191 N   0  0  0  0  0  0  0  0  0  0  0  0
   13.4455  -15.5600   22.1587 C   0  0  1  0  0  0  0  0  0  0  0  0
   12.5625  -16.5639   22.8723 C   0  0  0  0  0  0  0  0  0  0  0  0
   12.7854  -16.5330   24.3508 C   0  0  0  0  0  0  0  0  0  0  0  0
   11.9360  -17.5444   25.0169 C   0  0  0  0  0  0  0  0  0  0  0  0
   11.1583  -18.2326   24.3161 O   0  0  0  0  0  0  0  0  0  0  0  0
   14.8709  -15.8656   22.4460 C   0  0  0  0  0  0  0  0  0  0  0  0
   15.6341  -16.4510   21.6360 O   0  0  0  0  0  0  0  0  0  0  0  0
   11.9539  -17.7724   26.3789 O   0  0  0  0  0  0  0  0  0  0  0  0
   15.4491  -15.5025   23.6754 O   0  0  0  0  0  0  0  0  0  0  0  0
  2  1  1  6
  2  3  1  0
  3  4  1  0
  4  5  1  0
  6  5  1  0
  7  6  1  0
  8  2  1  0
  9  8  2  0
 10  8  1  0
 11 10  1  0
 12 13  1  0
 11 12  1  6
 13 17  1  0
 14 13  2  0
 15 11  1  0
 15 18  1  0
 16 15  2  0
 19 24  1  0
 19 18  1  0
 20 21  1  0
 19 20  1  1
 21 22  1  0
 22 23  2  0
 22 26  1  0
 24 27  1  0
 25 24  2  0
M  END
$$$$
