KDE.pdb
     RDKit          3D

 27 26  0  0  1  0  0  0  0  0999 V2000
    6.2421  -17.7360   21.9166 N   0  0  0  0  0  0  0  0  0  0  0  0
    7.3689  -17.2051   21.2224 C   0  0  1  0  0  0  0  0  0  0  0  0
    7.3543  -15.7133   21.1957 C   0  0  0  0  0  0  0  0  0  0  0  0
    7.0981  -15.0841   19.8721 C   0  0  0  0  0  0  0  0  0  0  0  0
    7.3138  -13.6158   19.7867 C   0  0  0  0  0  0  0  0  0  0  0  0
    7.1323  -13.0338   18.4129 C   0  0  0  0  0  0  0  0  0  0  0  0
    7.3755  -11.5990   18.5042 N   0  0  0  0  0  0  0  0  0  0  0  0
    8.6752  -17.7731   21.6076 C   0  0  0  0  0  0  0  0  0  0  0  0
    8.8077  -18.2798   22.7740 O   0  0  0  0  0  0  0  0  0  0  0  0
    9.8353  -17.8148   20.7907 N   0  0  0  0  0  0  0  0  0  0  0  0
   11.1127  -18.3564   21.2128 C   0  0  1  0  0  0  0  0  0  0  0  0
   12.1894  -18.2560   20.1852 C   0  0  0  0  0  0  0  0  0  0  0  0
   13.3780  -19.0051   20.6153 C   0  0  0  0  0  0  0  0  0  0  0  0
   14.5272  -18.5714   20.3688 O   0  0  0  0  0  0  0  0  0  0  0  0
   11.6100  -17.6759   22.4417 C   0  0  0  0  0  0  0  0  0  0  0  0
   11.6270  -16.4229   22.4977 O   0  0  0  0  0  0  0  0  0  0  0  0
   13.2949  -20.2178   21.3085 O   0  0  0  0  0  0  0  0  0  0  0  0
   12.0622  -18.4172   23.5447 N   0  0  0  0  0  0  0  0  0  0  0  0
   12.4338  -17.8339   24.8204 C   0  0  1  0  0  0  0  0  0  0  0  0
   11.8726  -18.6193   25.9888 C   0  0  0  0  0  0  0  0  0  0  0  0
   12.3646  -18.0815   27.2946 C   0  0  0  0  0  0  0  0  0  0  0  0
   11.9179  -18.9498   28.4057 C   0  0  0  0  0  0  0  0  0  0  0  0
   11.7583  -18.4416   29.5396 O   0  0  0  0  0  0  0  0  0  0  0  0
   13.9177  -17.8310   24.8960 C   0  0  0  0  0  0  0  0  0  0  0  0
   14.6490  -18.6258   24.2518 O   0  0  0  0  0  0  0  0  0  0  0  0
   11.6656  -20.2998   28.2596 O   0  0  0  0  0  0  0  0  0  0  0  0
   14.5927  -16.9105   25.7173 O   0  0  0  0  0  0  0  0  0  0  0  0
  2  1  1  1
  2  3  1  0
  3  4  1  0
  4  5  1  0
  6  5  1  0
  7  6  1  0
  8  2  1  0
  9  8  2  0
 10  8  1  0
 11 10  1  0
 12 13  1  0
 11 12  1  6
 13 17  1  0
 14 13  2  0
 15 11  1  0
 15 18  1  0
 16 15  2  0
 19 24  1  0
 19 18  1  0
 20 21  1  0
 19 20  1  1
 21 22  1  0
 22 23  2  0
 22 26  1  0
 24 27  1  0
 25 24  2  0
M  END
$$$$
