KDE.pdb
     RDKit          3D

 27 26  0  0  1  0  0  0  0  0999 V2000
   11.2009  -14.3090   19.3425 N   0  0  0  0  0  0  0  0  0  0  0  0
   10.2470  -14.1584   20.3917 C   0  0  1  0  0  0  0  0  0  0  0  0
    8.8935  -13.8115   19.8682 C   0  0  0  0  0  0  0  0  0  0  0  0
    8.7847  -13.6414   18.3942 C   0  0  0  0  0  0  0  0  0  0  0  0
    7.4426  -13.2772   17.8693 C   0  0  0  0  0  0  0  0  0  0  0  0
    7.3928  -13.0372   16.3864 C   0  0  0  0  0  0  0  0  0  0  0  0
    6.0129  -12.7232   16.0348 N   0  0  0  0  0  0  0  0  0  0  0  0
   10.2298  -15.2428   21.3924 C   0  0  0  0  0  0  0  0  0  0  0  0
    9.4603  -15.1332   22.4076 O   0  0  0  0  0  0  0  0  0  0  0  0
   11.0048  -16.4310   21.3417 N   0  0  0  0  0  0  0  0  0  0  0  0
   10.9133  -17.5078   22.3088 C   0  0  1  0  0  0  0  0  0  0  0  0
   11.6786  -18.7325   21.9348 C   0  0  0  0  0  0  0  0  0  0  0  0
   11.3871  -19.8241   22.8742 C   0  0  0  0  0  0  0  0  0  0  0  0
   12.2695  -20.6636   23.1679 O   0  0  0  0  0  0  0  0  0  0  0  0
   11.4000  -17.0748   23.6490 C   0  0  0  0  0  0  0  0  0  0  0  0
   12.5580  -16.6085   23.7717 O   0  0  0  0  0  0  0  0  0  0  0  0
   10.1357  -19.9838   23.4795 O   0  0  0  0  0  0  0  0  0  0  0  0
   10.5800  -17.1799   24.7835 N   0  0  0  0  0  0  0  0  0  0  0  0
   10.9256  -16.6505   26.0897 C   0  0  1  0  0  0  0  0  0  0  0  0
    9.9534  -15.5803   26.5439 C   0  0  0  0  0  0  0  0  0  0  0  0
   10.3497  -15.0093   27.8680 C   0  0  0  0  0  0  0  0  0  0  0  0
    9.3738  -13.9827   28.2945 C   0  0  0  0  0  0  0  0  0  0  0  0
    9.5390  -13.4184   29.4008 O   0  0  0  0  0  0  0  0  0  0  0  0
   10.8984  -17.7817   27.0527 C   0  0  0  0  0  0  0  0  0  0  0  0
   10.2149  -18.8236   26.8834 O   0  0  0  0  0  0  0  0  0  0  0  0
    8.2829  -13.6103   27.5339 O   0  0  0  0  0  0  0  0  0  0  0  0
   11.6597  -17.7369   28.2342 O   0  0  0  0  0  0  0  0  0  0  0  0
  2  1  1  6
  2  3  1  0
  3  4  1  0
  4  5  1  0
  6  5  1  0
  7  6  1  0
  8  2  1  0
  9  8  2  0
 10  8  1  0
 11 10  1  0
 12 13  1  0
 11 12  1  6
 13 17  1  0
 14 13  2  0
 15 11  1  0
 15 18  1  0
 16 15  2  0
 19 24  1  0
 19 18  1  0
 20 21  1  0
 19 20  1  1
 21 22  1  0
 22 23  2  0
 22 26  1  0
 24 27  1  0
 25 24  2  0
M  END
$$$$
