KDE.pdb
     RDKit          3D

 27 26  0  0  1  0  0  0  0  0999 V2000
   10.1311  -16.8647   16.9208 N   0  0  0  0  0  0  0  0  0  0  0  0
   10.2394  -18.0223   17.7464 C   0  0  1  0  0  0  0  0  0  0  0  0
    9.9373  -19.2740   16.9928 C   0  0  0  0  0  0  0  0  0  0  0  0
    9.5525  -19.1032   15.5659 C   0  0  0  0  0  0  0  0  0  0  0  0
    9.2126  -20.3440   14.8210 C   0  0  0  0  0  0  0  0  0  0  0  0
    8.9585  -20.1449   13.3531 C   0  0  0  0  0  0  0  0  0  0  0  0
    8.6237  -21.4439   12.7815 N   0  0  0  0  0  0  0  0  0  0  0  0
   11.4680  -18.1076   18.5592 C   0  0  0  0  0  0  0  0  0  0  0  0
   11.5857  -19.0627   19.4009 O   0  0  0  0  0  0  0  0  0  0  0  0
   12.5657  -17.2095   18.5006 N   0  0  0  0  0  0  0  0  0  0  0  0
   13.7566  -17.3203   19.3208 C   0  0  1  0  0  0  0  0  0  0  0  0
   15.0077  -16.8658   18.6473 C   0  0  0  0  0  0  0  0  0  0  0  0
   16.1750  -17.1455   19.4947 C   0  0  0  0  0  0  0  0  0  0  0  0
   16.7682  -16.2152   20.0881 O   0  0  0  0  0  0  0  0  0  0  0  0
   13.6222  -16.5345   20.5798 C   0  0  0  0  0  0  0  0  0  0  0  0
   13.7132  -15.2839   20.5476 O   0  0  0  0  0  0  0  0  0  0  0  0
   16.6783  -18.4377   19.6822 O   0  0  0  0  0  0  0  0  0  0  0  0
   13.3936  -17.1734   21.8087 N   0  0  0  0  0  0  0  0  0  0  0  0
   13.2345  -16.4763   23.0714 C   0  0  1  0  0  0  0  0  0  0  0  0
   12.5852  -17.3511   24.1250 C   0  0  0  0  0  0  0  0  0  0  0  0
   11.1876  -17.7205   23.7420 C   0  0  0  0  0  0  0  0  0  0  0  0
   10.6570  -18.7433   24.6697 C   0  0  0  0  0  0  0  0  0  0  0  0
   11.4030  -19.1763   25.5783 O   0  0  0  0  0  0  0  0  0  0  0  0
   14.5876  -16.0714   23.5328 C   0  0  0  0  0  0  0  0  0  0  0  0
   15.6507  -16.6044   23.1242 O   0  0  0  0  0  0  0  0  0  0  0  0
    9.3750  -19.2503   24.5876 O   0  0  0  0  0  0  0  0  0  0  0  0
   14.7455  -15.0413   24.4771 O   0  0  0  0  0  0  0  0  0  0  0  0
  2  1  1  6
  2  3  1  0
  3  4  1  0
  4  5  1  0
  6  5  1  0
  7  6  1  0
  8  2  1  0
  9  8  2  0
 10  8  1  0
 11 10  1  0
 12 13  1  0
 11 12  1  6
 13 17  1  0
 14 13  2  0
 15 11  1  0
 15 18  1  0
 16 15  2  0
 19 24  1  0
 19 18  1  0
 20 21  1  0
 19 20  1  1
 21 22  1  0
 22 23  2  0
 22 26  1  0
 24 27  1  0
 25 24  2  0
M  END
$$$$
