IQQ.pdb
     RDKit          3D

 27 26  0  0  1  0  0  0  0  0999 V2000
    7.0211  -12.0741   20.2038 C   0  0  0  0  0  0  0  0  0  0  0  0
    7.4361  -13.0076   19.0866 C   0  0  0  0  0  0  0  0  0  0  0  0
    8.7988  -13.5917   19.3680 C   0  0  2  0  0  0  0  0  0  0  0  0
    9.7625  -12.4753   19.5857 C   0  0  0  0  0  0  0  0  0  0  0  0
    9.2391  -14.5983   18.3614 C   0  0  2  0  0  0  0  0  0  0  0  0
    8.1641  -15.5475   18.1354 N   0  0  0  0  0  0  0  0  0  0  0  0
   10.5326  -15.2279   18.5831 C   0  0  0  0  0  0  0  0  0  0  0  0
   10.5725  -16.2897   19.2723 O   0  0  0  0  0  0  0  0  0  0  0  0
   15.8566  -14.8979   15.3807 N   0  0  0  0  0  0  0  0  0  0  0  0
   14.7179  -15.6053   14.9283 C   0  0  0  0  0  0  0  0  0  0  0  0
   14.6566  -15.9870   13.7520 O   0  0  0  0  0  0  0  0  0  0  0  0
   13.6394  -15.8428   15.9501 C   0  0  0  0  0  0  0  0  0  0  0  0
   14.0443  -15.3183   17.2897 C   0  0  0  0  0  0  0  0  0  0  0  0
   13.0399  -15.4929   18.3026 C   0  0  2  0  0  0  0  0  0  0  0  0
   11.7845  -14.7949   18.1168 N   0  0  0  0  0  0  0  0  0  0  0  0
   13.5497  -14.9659   19.6272 C   0  0  0  0  0  0  0  0  0  0  0  0
   13.7336  -13.7513   19.8562 O   0  0  0  0  0  0  0  0  0  0  0  0
   13.1405  -16.9265   25.5176 N   0  0  0  0  0  0  0  0  0  0  0  0
   12.1122  -16.9196   24.5458 C   0  0  0  0  0  0  0  0  0  0  0  0
   10.9338  -17.1341   24.8748 O   0  0  0  0  0  0  0  0  0  0  0  0
   12.5118  -16.6445   23.1213 C   0  0  0  0  0  0  0  0  0  0  0  0
   13.9843  -16.3910   23.0761 C   0  0  0  0  0  0  0  0  0  0  0  0
   14.3486  -15.4043   22.0011 C   0  0  2  0  0  0  0  0  0  0  0  0
   13.8529  -15.8430   20.7045 N   0  0  0  0  0  0  0  0  0  0  0  0
   15.7875  -15.1982   21.9109 C   0  0  0  0  0  0  0  0  0  0  0  0
   16.3724  -14.4941   22.7901 O   0  0  0  0  0  0  0  0  0  0  0  0
   16.5725  -15.7250   20.9233 O   0  0  0  0  0  0  0  0  0  0  0  0
  1  2  1  0
  3  2  1  0
  3  4  1  6
  5  3  1  0
  5  6  1  1
  7  8  2  0
  7  5  1  0
  9 10  1  0
 10 11  2  0
 10 12  1  0
 12 13  1  0
 14 13  1  6
 14 15  1  0
 15  7  1  0
 16 14  1  0
 16 24  1  0
 17 16  2  0
 19 21  1  0
 19 18  1  0
 20 19  2  0
 23 22  1  1
 22 21  1  0
 23 24  1  0
 23 25  1  0
 25 27  1  0
 26 25  2  0
M  END
$$$$
