IQQ.pdb
     RDKit          3D

 27 26  0  0  1  0  0  0  0  0999 V2000
    7.7414  -11.7815   26.8312 C   0  0  0  0  0  0  0  0  0  0  0  0
    7.7123  -13.2117   26.3359 C   0  0  0  0  0  0  0  0  0  0  0  0
    6.3480  -13.5509   25.7874 C   0  0  2  0  0  0  0  0  0  0  0  0
    5.3333  -13.3279   26.8565 C   0  0  0  0  0  0  0  0  0  0  0  0
    6.2780  -14.8919   25.1414 C   0  0  2  0  0  0  0  0  0  0  0  0
    6.7416  -15.8975   26.0801 N   0  0  0  0  0  0  0  0  0  0  0  0
    6.8706  -15.0161   23.8177 C   0  0  0  0  0  0  0  0  0  0  0  0
    6.1332  -15.4060   22.8647 O   0  0  0  0  0  0  0  0  0  0  0  0
    8.3429  -12.3512   18.3706 N   0  0  0  0  0  0  0  0  0  0  0  0
    8.0862  -13.6460   18.8797 C   0  0  0  0  0  0  0  0  0  0  0  0
    8.3365  -14.6413   18.1871 O   0  0  0  0  0  0  0  0  0  0  0  0
    7.5104  -13.7070   20.2684 C   0  0  0  0  0  0  0  0  0  0  0  0
    8.5872  -13.6115   21.3005 C   0  0  0  0  0  0  0  0  0  0  0  0
    8.7240  -14.7982   22.0994 C   0  0  2  0  0  0  0  0  0  0  0  0
    8.1995  -14.7516   23.4486 N   0  0  0  0  0  0  0  0  0  0  0  0
   10.1907  -15.1180   22.2965 C   0  0  0  0  0  0  0  0  0  0  0  0
   11.0412  -14.2613   22.6199 O   0  0  0  0  0  0  0  0  0  0  0  0
   10.1620  -19.3590   26.4013 N   0  0  0  0  0  0  0  0  0  0  0  0
   10.9452  -18.2008   26.6178 C   0  0  0  0  0  0  0  0  0  0  0  0
   10.9082  -17.6112   27.7105 O   0  0  0  0  0  0  0  0  0  0  0  0
   11.8083  -17.7293   25.4788 C   0  0  0  0  0  0  0  0  0  0  0  0
   10.9399  -17.0566   24.4650 C   0  0  0  0  0  0  0  0  0  0  0  0
   11.5339  -17.1278   23.0851 C   0  0  2  0  0  0  0  0  0  0  0  0
   10.6898  -16.4376   22.1205 N   0  0  0  0  0  0  0  0  0  0  0  0
   11.7298  -18.5014   22.6428 C   0  0  0  0  0  0  0  0  0  0  0  0
   12.7510  -19.1436   23.0378 O   0  0  0  0  0  0  0  0  0  0  0  0
   10.8689  -19.1654   21.8140 O   0  0  0  0  0  0  0  0  0  0  0  0
  1  2  1  0
  3  2  1  0
  3  4  1  1
  5  3  1  0
  5  6  1  1
  7  8  2  0
  7  5  1  0
  9 10  1  0
 10 11  2  0
 10 12  1  0
 12 13  1  0
 14 13  1  1
 14 15  1  0
 15  7  1  0
 16 14  1  0
 16 24  1  0
 17 16  2  0
 19 21  1  0
 19 18  1  0
 20 19  2  0
 23 22  1  1
 22 21  1  0
 23 24  1  0
 23 25  1  0
 25 27  1  0
 26 25  2  0
M  END
$$$$
