IQQ.pdb
     RDKit          3D

 27 26  0  0  1  0  0  0  0  0999 V2000
    8.4111  -11.6561   19.9390 C   0  0  0  0  0  0  0  0  0  0  0  0
    7.9505  -12.9399   19.2821 C   0  0  0  0  0  0  0  0  0  0  0  0
    8.6367  -14.1280   19.9105 C   0  0  2  0  0  0  0  0  0  0  0  0
   10.1107  -13.9096   19.8634 C   0  0  0  0  0  0  0  0  0  0  0  0
    8.1900  -15.4386   19.3599 C   0  0  2  0  0  0  0  0  0  0  0  0
    6.7389  -15.4814   19.3500 N   0  0  0  0  0  0  0  0  0  0  0  0
    8.8023  -16.6324   19.9246 C   0  0  0  0  0  0  0  0  0  0  0  0
    8.2730  -17.1485   20.9529 O   0  0  0  0  0  0  0  0  0  0  0  0
   10.5302  -22.2214   18.5143 N   0  0  0  0  0  0  0  0  0  0  0  0
    9.3021  -21.5430   18.3324 C   0  0  0  0  0  0  0  0  0  0  0  0
    8.3284  -22.1465   17.8623 O   0  0  0  0  0  0  0  0  0  0  0  0
    9.2814  -20.0947   18.7394 C   0  0  0  0  0  0  0  0  0  0  0  0
   10.6039  -19.6743   19.2945 C   0  0  0  0  0  0  0  0  0  0  0  0
   10.5413  -18.4727   20.0803 C   0  0  2  0  0  0  0  0  0  0  0  0
    9.9432  -17.3078   19.4616 N   0  0  0  0  0  0  0  0  0  0  0  0
   11.9413  -18.0138   20.4288 C   0  0  0  0  0  0  0  0  0  0  0  0
   12.8047  -17.7352   19.5693 O   0  0  0  0  0  0  0  0  0  0  0  0
   12.6004  -14.5617   18.9389 N   0  0  0  0  0  0  0  0  0  0  0  0
   13.8463  -14.3818   19.5850 C   0  0  0  0  0  0  0  0  0  0  0  0
   14.7974  -13.8566   18.9829 O   0  0  0  0  0  0  0  0  0  0  0  0
   13.9575  -14.8502   21.0107 C   0  0  0  0  0  0  0  0  0  0  0  0
   12.6632  -15.4821   21.4109 C   0  0  0  0  0  0  0  0  0  0  0  0
   12.8724  -16.6360   22.3524 C   0  0  2  0  0  0  0  0  0  0  0  0
   12.3579  -17.8721   21.7808 N   0  0  0  0  0  0  0  0  0  0  0  0
   12.2361  -16.4126   23.6433 C   0  0  0  0  0  0  0  0  0  0  0  0
   11.0846  -15.8804   23.6865 O   0  0  0  0  0  0  0  0  0  0  0  0
   12.8042  -16.7464   24.8411 O   0  0  0  0  0  0  0  0  0  0  0  0
  1  2  1  0
  3  2  1  0
  3  4  1  6
  5  3  1  0
  5  6  1  1
  7  8  2  0
  7  5  1  0
  9 10  1  0
 10 11  2  0
 10 12  1  0
 12 13  1  0
 14 13  1  6
 14 15  1  0
 15  7  1  0
 16 14  1  0
 16 24  1  0
 17 16  2  0
 19 21  1  0
 19 18  1  0
 20 19  2  0
 23 22  1  6
 22 21  1  0
 23 24  1  0
 23 25  1  0
 25 27  1  0
 26 25  2  0
M  END
$$$$
