IQQ.pdb
     RDKit          3D

 27 26  0  0  1  0  0  0  0  0999 V2000
    6.4128  -11.7773   27.7824 C   0  0  0  0  0  0  0  0  0  0  0  0
    5.8548  -13.0330   27.1470 C   0  0  0  0  0  0  0  0  0  0  0  0
    6.8309  -13.5921   26.1411 C   0  0  2  0  0  0  0  0  0  0  0  0
    7.3580  -12.4713   25.3115 C   0  0  0  0  0  0  0  0  0  0  0  0
    6.2925  -14.7391   25.3569 C   0  0  2  0  0  0  0  0  0  0  0  0
    5.9301  -15.8102   26.2673 N   0  0  0  0  0  0  0  0  0  0  0  0
    7.0825  -15.1865   24.2191 C   0  0  0  0  0  0  0  0  0  0  0  0
    7.6533  -16.3147   24.2919 O   0  0  0  0  0  0  0  0  0  0  0  0
    8.7014  -12.5741   18.4708 N   0  0  0  0  0  0  0  0  0  0  0  0
    8.7699  -13.9800   18.3287 C   0  0  0  0  0  0  0  0  0  0  0  0
    8.7022  -14.4896   17.2022 O   0  0  0  0  0  0  0  0  0  0  0  0
    8.9249  -14.7655   19.6025 C   0  0  0  0  0  0  0  0  0  0  0  0
    8.0252  -14.2363   20.6722 C   0  0  0  0  0  0  0  0  0  0  0  0
    8.0456  -15.0173   21.8783 C   0  0  2  0  0  0  0  0  0  0  0  0
    7.3019  -14.5053   23.0108 N   0  0  0  0  0  0  0  0  0  0  0  0
    9.4635  -15.1210   22.3988 C   0  0  0  0  0  0  0  0  0  0  0  0
   10.4255  -14.5036   21.8937 O   0  0  0  0  0  0  0  0  0  0  0  0
   10.9909  -14.2215   28.7927 N   0  0  0  0  0  0  0  0  0  0  0  0
   11.2862  -15.4126   28.0884 C   0  0  0  0  0  0  0  0  0  0  0  0
   11.1670  -16.5176   28.6429 O   0  0  0  0  0  0  0  0  0  0  0  0
   11.7429  -15.2744   26.6613 C   0  0  0  0  0  0  0  0  0  0  0  0
   10.5559  -15.4062   25.7623 C   0  0  0  0  0  0  0  0  0  0  0  0
   10.9563  -15.7585   24.3561 C   0  0  2  0  0  0  0  0  0  0  0  0
    9.7836  -15.9436   23.5135 N   0  0  0  0  0  0  0  0  0  0  0  0
   11.7700  -16.9652   24.3037 C   0  0  0  0  0  0  0  0  0  0  0  0
   12.9142  -16.9695   24.8532 O   0  0  0  0  0  0  0  0  0  0  0  0
   11.3777  -18.1231   23.6918 O   0  0  0  0  0  0  0  0  0  0  0  0
  1  2  1  0
  3  2  1  0
  3  4  1  6
  5  3  1  0
  5  6  1  1
  7  8  2  0
  7  5  1  0
  9 10  1  0
 10 11  2  0
 10 12  1  0
 12 13  1  0
 14 13  1  6
 14 15  1  0
 15  7  1  0
 16 14  1  0
 16 24  1  0
 17 16  2  0
 19 21  1  0
 19 18  1  0
 20 19  2  0
 23 22  1  1
 22 21  1  0
 23 24  1  0
 23 25  1  0
 25 27  1  0
 26 25  2  0
M  END
$$$$
