IQQ.pdb
     RDKit          3D

 27 26  0  0  1  0  0  0  0  0999 V2000
    7.6489  -11.5798   19.8331 C   0  0  0  0  0  0  0  0  0  0  0  0
    7.4014  -13.0444   19.5409 C   0  0  0  0  0  0  0  0  0  0  0  0
    8.0787  -13.9091   20.5758 C   0  0  2  0  0  0  0  0  0  0  0  0
    9.5123  -13.5107   20.6684 C   0  0  0  0  0  0  0  0  0  0  0  0
    7.8565  -15.3689   20.3756 C   0  0  2  0  0  0  0  0  0  0  0  0
    6.4311  -15.6237   20.2708 N   0  0  0  0  0  0  0  0  0  0  0  0
    8.5418  -16.2700   21.2905 C   0  0  0  0  0  0  0  0  0  0  0  0
    8.0023  -16.5117   22.4106 O   0  0  0  0  0  0  0  0  0  0  0  0
   12.9888  -20.9899   20.8729 N   0  0  0  0  0  0  0  0  0  0  0  0
   13.3109  -20.2294   22.0216 C   0  0  0  0  0  0  0  0  0  0  0  0
   14.4569  -20.2733   22.4883 O   0  0  0  0  0  0  0  0  0  0  0  0
   12.1950  -19.4022   22.5998 C   0  0  0  0  0  0  0  0  0  0  0  0
   11.5132  -18.6027   21.5370 C   0  0  0  0  0  0  0  0  0  0  0  0
   10.4076  -17.8244   22.0239 C   0  0  2  0  0  0  0  0  0  0  0  0
    9.7657  -16.9273   21.0854 N   0  0  0  0  0  0  0  0  0  0  0  0
   10.8750  -16.9068   23.1337 C   0  0  0  0  0  0  0  0  0  0  0  0
   11.6630  -15.9546   22.9490 O   0  0  0  0  0  0  0  0  0  0  0  0
    7.7880  -13.6957   26.7434 N   0  0  0  0  0  0  0  0  0  0  0  0
    9.0032  -13.4865   27.4372 C   0  0  0  0  0  0  0  0  0  0  0  0
    9.0888  -12.6003   28.3034 O   0  0  0  0  0  0  0  0  0  0  0  0
   10.1635  -14.3751   27.0789 C   0  0  0  0  0  0  0  0  0  0  0  0
    9.7330  -15.3147   25.9989 C   0  0  0  0  0  0  0  0  0  0  0  0
   10.8449  -16.2400   25.5873 C   0  0  2  0  0  0  0  0  0  0  0  0
   10.4334  -17.0826   24.4737 N   0  0  0  0  0  0  0  0  0  0  0  0
   11.2852  -17.0902   26.6846 C   0  0  0  0  0  0  0  0  0  0  0  0
   10.9271  -18.3077   26.7120 O   0  0  0  0  0  0  0  0  0  0  0  0
   12.0788  -16.6598   27.7112 O   0  0  0  0  0  0  0  0  0  0  0  0
  1  2  1  0
  3  2  1  0
  3  4  1  6
  5  3  1  0
  5  6  1  1
  7  8  2  0
  7  5  1  0
  9 10  1  0
 10 11  2  0
 10 12  1  0
 12 13  1  0
 14 13  1  6
 14 15  1  0
 15  7  1  0
 16 14  1  0
 16 24  1  0
 17 16  2  0
 19 21  1  0
 19 18  1  0
 20 19  2  0
 23 22  1  1
 22 21  1  0
 23 24  1  0
 23 25  1  0
 25 27  1  0
 26 25  2  0
M  END
$$$$
