IQQ.pdb
     RDKit          3D

 27 26  0  0  1  0  0  0  0  0999 V2000
    7.8230  -12.6694   18.8596 C   0  0  0  0  0  0  0  0  0  0  0  0
    7.6032  -14.1497   19.0878 C   0  0  0  0  0  0  0  0  0  0  0  0
    7.3766  -14.4282   20.5536 C   0  0  2  0  0  0  0  0  0  0  0  0
    8.5024  -13.8382   21.3326 C   0  0  0  0  0  0  0  0  0  0  0  0
    7.1023  -15.8612   20.8561 C   0  0  2  0  0  0  0  0  0  0  0  0
    5.9982  -16.3191   20.0321 N   0  0  0  0  0  0  0  0  0  0  0  0
    6.9684  -16.2233   22.2596 C   0  0  0  0  0  0  0  0  0  0  0  0
    6.0188  -15.7112   22.9230 O   0  0  0  0  0  0  0  0  0  0  0  0
    8.7266  -21.0240   25.8351 N   0  0  0  0  0  0  0  0  0  0  0  0
    8.3782  -20.1117   26.8587 C   0  0  0  0  0  0  0  0  0  0  0  0
    8.4077  -20.4731   28.0426 O   0  0  0  0  0  0  0  0  0  0  0  0
    7.9873  -18.7307   26.4071 C   0  0  0  0  0  0  0  0  0  0  0  0
    8.0683  -18.6094   24.9198 C   0  0  0  0  0  0  0  0  0  0  0  0
    7.7130  -17.3061   24.4295 C   0  0  2  0  0  0  0  0  0  0  0  0
    7.7844  -17.0954   22.9983 N   0  0  0  0  0  0  0  0  0  0  0  0
    8.6626  -16.2697   24.9916 C   0  0  0  0  0  0  0  0  0  0  0  0
    9.6950  -15.8924   24.3969 O   0  0  0  0  0  0  0  0  0  0  0  0
    6.9652  -11.0809   26.4450 N   0  0  0  0  0  0  0  0  0  0  0  0
    6.7466  -11.7949   27.6468 C   0  0  0  0  0  0  0  0  0  0  0  0
    5.8904  -11.4105   28.4604 O   0  0  0  0  0  0  0  0  0  0  0  0
    7.5883  -13.0196   27.8839 C   0  0  0  0  0  0  0  0  0  0  0  0
    8.4406  -13.2570   26.6790 C   0  0  0  0  0  0  0  0  0  0  0  0
    9.2062  -14.5475   26.7816 C   0  0  2  0  0  0  0  0  0  0  0  0
    8.4263  -15.6571   26.2527 N   0  0  0  0  0  0  0  0  0  0  0  0
    9.5879  -14.8509   28.1539 C   0  0  0  0  0  0  0  0  0  0  0  0
   10.3323  -14.0410   28.7872 O   0  0  0  0  0  0  0  0  0  0  0  0
    9.1888  -15.9726   28.8258 O   0  0  0  0  0  0  0  0  0  0  0  0
  1  2  1  0
  3  2  1  0
  3  4  1  1
  5  3  1  0
  5  6  1  6
  7  8  2  0
  7  5  1  0
  9 10  1  0
 10 11  2  0
 10 12  1  0
 12 13  1  0
 14 13  1  6
 14 15  1  0
 15  7  1  0
 16 14  1  0
 16 24  1  0
 17 16  2  0
 19 21  1  0
 19 18  1  0
 20 19  2  0
 23 22  1  1
 22 21  1  0
 23 24  1  0
 23 25  1  0
 25 27  1  0
 26 25  2  0
M  END
$$$$
