IQQ.pdb
     RDKit          3D

 27 26  0  0  1  0  0  0  0  0999 V2000
    6.4311  -11.7337   27.9383 C   0  0  0  0  0  0  0  0  0  0  0  0
    5.7873  -12.7541   27.0239 C   0  0  0  0  0  0  0  0  0  0  0  0
    6.7936  -13.2775   26.0285 C   0  0  2  0  0  0  0  0  0  0  0  0
    7.3330  -12.1299   25.2446 C   0  0  0  0  0  0  0  0  0  0  0  0
    6.2848  -14.4058   25.1987 C   0  0  2  0  0  0  0  0  0  0  0  0
    5.7828  -15.4510   26.0723 N   0  0  0  0  0  0  0  0  0  0  0  0
    7.1643  -14.8991   24.1491 C   0  0  0  0  0  0  0  0  0  0  0  0
    7.7661  -15.9974   24.3379 O   0  0  0  0  0  0  0  0  0  0  0  0
    8.5459  -12.8183   18.3242 N   0  0  0  0  0  0  0  0  0  0  0  0
    7.9682  -14.1051   18.2145 C   0  0  0  0  0  0  0  0  0  0  0  0
    7.6012  -14.5236   17.1085 O   0  0  0  0  0  0  0  0  0  0  0  0
    7.8440  -14.8844   19.4955 C   0  0  0  0  0  0  0  0  0  0  0  0
    8.3957  -14.1114   20.6496 C   0  0  0  0  0  0  0  0  0  0  0  0
    8.3320  -14.8196   21.8984 C   0  0  2  0  0  0  0  0  0  0  0  0
    7.4422  -14.2935   22.9128 N   0  0  0  0  0  0  0  0  0  0  0  0
    9.6894  -14.8015   22.5687 C   0  0  0  0  0  0  0  0  0  0  0  0
   10.0112  -13.9671   23.4416 O   0  0  0  0  0  0  0  0  0  0  0  0
    9.6034  -17.4222   26.5860 N   0  0  0  0  0  0  0  0  0  0  0  0
   10.8889  -18.0056   26.4903 C   0  0  0  0  0  0  0  0  0  0  0  0
   11.4275  -18.5091   27.4900 O   0  0  0  0  0  0  0  0  0  0  0  0
   11.5567  -17.9849   25.1420 C   0  0  0  0  0  0  0  0  0  0  0  0
   10.7070  -17.1973   24.1974 C   0  0  0  0  0  0  0  0  0  0  0  0
   11.5377  -16.4261   23.2090 C   0  0  2  0  0  0  0  0  0  0  0  0
   10.6920  -15.7525   22.2341 N   0  0  0  0  0  0  0  0  0  0  0  0
   12.4832  -17.2799   22.5032 C   0  0  0  0  0  0  0  0  0  0  0  0
   13.6155  -17.5196   23.0243 O   0  0  0  0  0  0  0  0  0  0  0  0
   12.2300  -17.8580   21.2905 O   0  0  0  0  0  0  0  0  0  0  0  0
  1  2  1  0
  3  2  1  0
  3  4  1  6
  5  3  1  0
  5  6  1  1
  7  8  2  0
  7  5  1  0
  9 10  1  0
 10 11  2  0
 10 12  1  0
 12 13  1  0
 14 13  1  6
 14 15  1  0
 15  7  1  0
 16 14  1  0
 16 24  1  0
 17 16  2  0
 19 21  1  0
 19 18  1  0
 20 19  2  0
 23 22  1  1
 22 21  1  0
 23 24  1  0
 23 25  1  0
 25 27  1  0
 26 25  2  0
M  END
$$$$
