IQQ.pdb
     RDKit          3D

 27 26  0  0  1  0  0  0  0  0999 V2000
    6.5112  -12.5276   19.7106 C   0  0  0  0  0  0  0  0  0  0  0  0
    7.2460  -13.2725   18.6166 C   0  0  0  0  0  0  0  0  0  0  0  0
    8.5735  -13.7790   19.1251 C   0  0  2  0  0  0  0  0  0  0  0  0
    9.3039  -12.6481   19.7653 C   0  0  0  0  0  0  0  0  0  0  0  0
    9.3628  -14.5225   18.1030 C   0  0  2  0  0  0  0  0  0  0  0  0
    8.5165  -15.5285   17.4870 N   0  0  0  0  0  0  0  0  0  0  0  0
   10.6620  -15.0313   18.5175 C   0  0  0  0  0  0  0  0  0  0  0  0
   10.7139  -16.1774   19.0539 O   0  0  0  0  0  0  0  0  0  0  0  0
   16.6018  -13.3050   17.3006 N   0  0  0  0  0  0  0  0  0  0  0  0
   16.8373  -14.1745   18.3916 C   0  0  0  0  0  0  0  0  0  0  0  0
   17.9946  -14.3666   18.7878 O   0  0  0  0  0  0  0  0  0  0  0  0
   15.6195  -14.8150   19.0001 C   0  0  0  0  0  0  0  0  0  0  0  0
   14.3676  -14.2874   18.3770 C   0  0  0  0  0  0  0  0  0  0  0  0
   13.1729  -14.9219   18.8620 C   0  0  2  0  0  0  0  0  0  0  0  0
   11.9073  -14.3935   18.3966 N   0  0  0  0  0  0  0  0  0  0  0  0
   13.0895  -14.7772   20.3668 C   0  0  0  0  0  0  0  0  0  0  0  0
   12.9375  -13.6782   20.9419 O   0  0  0  0  0  0  0  0  0  0  0  0
    8.4538  -15.2337   22.1817 N   0  0  0  0  0  0  0  0  0  0  0  0
    8.8858  -15.5229   23.4976 C   0  0  0  0  0  0  0  0  0  0  0  0
    8.0951  -15.4403   24.4520 O   0  0  0  0  0  0  0  0  0  0  0  0
   10.3238  -15.9277   23.6778 C   0  0  0  0  0  0  0  0  0  0  0  0
   11.0477  -15.7156   22.3872 C   0  0  0  0  0  0  0  0  0  0  0  0
   12.5169  -16.0102   22.5156 C   0  0  2  0  0  0  0  0  0  0  0  0
   13.1816  -15.9074   21.2245 N   0  0  0  0  0  0  0  0  0  0  0  0
   12.7642  -17.3342   23.0695 C   0  0  0  0  0  0  0  0  0  0  0  0
   12.7577  -18.3430   22.2992 O   0  0  0  0  0  0  0  0  0  0  0  0
   13.0118  -17.5728   24.3927 O   0  0  0  0  0  0  0  0  0  0  0  0
  1  2  1  0
  3  2  1  0
  3  4  1  6
  5  3  1  0
  5  6  1  1
  7  8  2  0
  7  5  1  0
  9 10  1  0
 10 11  2  0
 10 12  1  0
 12 13  1  0
 14 13  1  6
 14 15  1  0
 15  7  1  0
 16 14  1  0
 16 24  1  0
 17 16  2  0
 19 21  1  0
 19 18  1  0
 20 19  2  0
 23 22  1  6
 22 21  1  0
 23 24  1  0
 23 25  1  0
 25 27  1  0
 26 25  2  0
M  END
$$$$
