IQQ.pdb
     RDKit          3D

 27 26  0  0  1  0  0  0  0  0999 V2000
    7.1971  -11.6269   19.7264 C   0  0  0  0  0  0  0  0  0  0  0  0
    7.2153  -13.1214   19.4853 C   0  0  0  0  0  0  0  0  0  0  0  0
    7.7328  -13.8447   20.7045 C   0  0  2  0  0  0  0  0  0  0  0  0
    9.0548  -13.2663   21.0790 C   0  0  0  0  0  0  0  0  0  0  0  0
    7.7254  -15.3286   20.5692 C   0  0  2  0  0  0  0  0  0  0  0  0
    6.3888  -15.7676   20.2109 N   0  0  0  0  0  0  0  0  0  0  0  0
    8.3142  -16.0914   21.6602 C   0  0  0  0  0  0  0  0  0  0  0  0
    7.5794  -16.3910   22.6473 O   0  0  0  0  0  0  0  0  0  0  0  0
   13.6848  -19.3176   22.1920 N   0  0  0  0  0  0  0  0  0  0  0  0
   13.1637  -19.5227   23.4913 C   0  0  0  0  0  0  0  0  0  0  0  0
   13.7236  -20.3137   24.2620 O   0  0  0  0  0  0  0  0  0  0  0  0
   11.9301  -18.7349   23.8398 C   0  0  0  0  0  0  0  0  0  0  0  0
   11.4789  -17.9044   22.6821 C   0  0  0  0  0  0  0  0  0  0  0  0
   10.1742  -17.3294   22.8616 C   0  0  2  0  0  0  0  0  0  0  0  0
    9.6366  -16.5526   21.7637 N   0  0  0  0  0  0  0  0  0  0  0  0
   10.1996  -16.3488   24.0149 C   0  0  0  0  0  0  0  0  0  0  0  0
   10.3234  -15.1147   23.8622 O   0  0  0  0  0  0  0  0  0  0  0  0
    7.4680  -13.1343   27.5635 N   0  0  0  0  0  0  0  0  0  0  0  0
    7.7192  -13.0478   26.1738 C   0  0  0  0  0  0  0  0  0  0  0  0
    7.4228  -12.0194   25.5434 O   0  0  0  0  0  0  0  0  0  0  0  0
    8.3515  -14.2422   25.5119 C   0  0  0  0  0  0  0  0  0  0  0  0
    8.5283  -15.3195   26.5332 C   0  0  0  0  0  0  0  0  0  0  0  0
    9.9165  -15.8973   26.5012 C   0  0  2  0  0  0  0  0  0  0  0  0
   10.0815  -16.7884   25.3619 N   0  0  0  0  0  0  0  0  0  0  0  0
   10.2349  -16.6269   27.7207 C   0  0  0  0  0  0  0  0  0  0  0  0
   10.4206  -17.8814   27.6658 O   0  0  0  0  0  0  0  0  0  0  0  0
   10.3535  -16.0413   28.9503 O   0  0  0  0  0  0  0  0  0  0  0  0
  1  2  1  0
  3  2  1  0
  3  4  1  6
  5  3  1  0
  5  6  1  1
  7  8  2  0
  7  5  1  0
  9 10  1  0
 10 11  2  0
 10 12  1  0
 12 13  1  0
 14 13  1  6
 14 15  1  0
 15  7  1  0
 16 14  1  0
 16 24  1  0
 17 16  2  0
 19 21  1  0
 19 18  1  0
 20 19  2  0
 23 22  1  1
 22 21  1  0
 23 24  1  0
 23 25  1  0
 25 27  1  0
 26 25  2  0
M  END
$$$$
