IQQ.pdb
     RDKit          3D

 27 26  0  0  1  0  0  0  0  0999 V2000
    6.4958  -10.9590   27.0314 C   0  0  0  0  0  0  0  0  0  0  0  0
    6.5603  -12.4715   27.0286 C   0  0  0  0  0  0  0  0  0  0  0  0
    6.3310  -13.0053   25.6358 C   0  0  2  0  0  0  0  0  0  0  0  0
    5.0242  -12.4912   25.1354 C   0  0  0  0  0  0  0  0  0  0  0  0
    6.4953  -14.4822   25.5253 C   0  0  2  0  0  0  0  0  0  0  0  0
    7.1532  -14.9789   26.7203 N   0  0  0  0  0  0  0  0  0  0  0  0
    7.0752  -14.9888   24.2901 C   0  0  0  0  0  0  0  0  0  0  0  0
    6.5584  -16.0179   23.7629 O   0  0  0  0  0  0  0  0  0  0  0  0
    8.4935  -12.2126   18.9856 N   0  0  0  0  0  0  0  0  0  0  0  0
    8.1720  -13.5848   18.8613 C   0  0  0  0  0  0  0  0  0  0  0  0
    8.2371  -14.1351   17.7540 O   0  0  0  0  0  0  0  0  0  0  0  0
    7.7639  -14.2847   20.1291 C   0  0  0  0  0  0  0  0  0  0  0  0
    8.7349  -14.0084   21.2311 C   0  0  0  0  0  0  0  0  0  0  0  0
    8.6622  -14.9535   22.3113 C   0  0  2  0  0  0  0  0  0  0  0  0
    8.1714  -14.4671   23.5842 N   0  0  0  0  0  0  0  0  0  0  0  0
   10.0479  -15.4700   22.6357 C   0  0  0  0  0  0  0  0  0  0  0  0
   11.0820  -14.7786   22.5163 O   0  0  0  0  0  0  0  0  0  0  0  0
   11.1551  -14.4885   27.6810 N   0  0  0  0  0  0  0  0  0  0  0  0
   11.0700  -15.8936   27.8237 C   0  0  0  0  0  0  0  0  0  0  0  0
   10.6473  -16.3946   28.8788 O   0  0  0  0  0  0  0  0  0  0  0  0
   11.5092  -16.7331   26.6547 C   0  0  0  0  0  0  0  0  0  0  0  0
   10.6836  -16.3669   25.4635 C   0  0  0  0  0  0  0  0  0  0  0  0
   11.0908  -17.1432   24.2414 C   0  0  2  0  0  0  0  0  0  0  0  0
   10.2515  -16.7972   23.1033 N   0  0  0  0  0  0  0  0  0  0  0  0
   11.0226  -18.5818   24.4578 C   0  0  0  0  0  0  0  0  0  0  0  0
   11.8767  -19.1394   25.2133 O   0  0  0  0  0  0  0  0  0  0  0  0
   10.0788  -19.3936   23.8929 O   0  0  0  0  0  0  0  0  0  0  0  0
  1  2  1  0
  3  2  1  0
  3  4  1  1
  5  3  1  0
  5  6  1  1
  7  8  2  0
  7  5  1  0
  9 10  1  0
 10 11  2  0
 10 12  1  0
 12 13  1  0
 14 13  1  6
 14 15  1  0
 15  7  1  0
 16 14  1  0
 16 24  1  0
 17 16  2  0
 19 21  1  0
 19 18  1  0
 20 19  2  0
 23 22  1  1
 22 21  1  0
 23 24  1  0
 23 25  1  0
 25 27  1  0
 26 25  2  0
M  END
$$$$
