VSR.pdb
     RDKit          3D

 25 24  0  0  1  0  0  0  0  0999 V2000
   26.4758  -15.2166  -14.7886 C   0  0  0  0  0  0  0  0  0  0  0  0
   25.1313  -15.8046  -15.2458 C   0  0  2  0  0  0  0  0  0  0  0  0
   25.4955  -17.0368  -16.0448 C   0  0  0  0  0  0  0  0  0  0  0  0
   24.5336  -14.7835  -16.1935 C   0  0  2  0  0  0  0  0  0  0  0  0
   25.4696  -14.7546  -17.3417 N   0  0  0  0  0  0  0  0  0  0  0  0
   24.4996  -13.4137  -15.6432 C   0  0  0  0  0  0  0  0  0  0  0  0
   23.7316  -13.1731  -14.6694 O   0  0  0  0  0  0  0  0  0  0  0  0
   26.5225   -8.9973  -15.3653 O   0  0  0  0  0  0  0  0  0  0  0  0
   26.4928  -10.3009  -15.8580 C   0  0  0  0  0  0  0  0  0  0  0  0
   25.1528  -10.9865  -15.5259 C   0  0  2  0  0  0  0  0  0  0  0  0
   25.2564  -12.3108  -16.0996 N   0  0  0  0  0  0  0  0  0  0  0  0
   24.0220  -10.1915  -15.9946 C   0  0  0  0  0  0  0  0  0  0  0  0
   23.7843  -10.1742  -17.2517 O   0  0  0  0  0  0  0  0  0  0  0  0
   15.8018  -11.1616  -14.4293 N   0  0  0  0  0  0  0  0  0  0  0  0
   15.8888  -10.0365  -15.3234 C   0  0  0  0  0  0  0  0  0  0  0  0
   14.7987   -9.6128  -15.8376 N   0  0  0  0  0  0  0  0  0  0  0  0
   17.1054   -9.4255  -15.6263 N   0  0  0  0  0  0  0  0  0  0  0  0
   18.3629   -9.9734  -15.0738 C   0  0  0  0  0  0  0  0  0  0  0  0
   19.4423   -9.1143  -15.6411 C   0  0  0  0  0  0  0  0  0  0  0  0
   20.8250   -9.4026  -15.3057 C   0  0  0  0  0  0  0  0  0  0  0  0
   21.9973   -8.6637  -15.7995 C   0  0  2  0  0  0  0  0  0  0  0  0
   23.1525   -9.4299  -15.1846 N   0  0  0  0  0  0  0  0  0  0  0  0
   22.1971   -7.2617  -15.5354 C   0  0  0  0  0  0  0  0  0  0  0  0
   22.9666   -6.8441  -14.5777 O   0  0  0  0  0  0  0  0  0  0  0  0
   21.6243   -6.2302  -16.2497 O   0  0  0  0  0  0  0  0  0  0  0  0
  2  1  1  6
  2  3  1  0
  4  2  1  0
  4  5  1  6
  4  6  1  0
  6  7  2  0
 10  9  1  6
  9  8  1  0
 10 12  1  0
 11  6  1  0
 11 10  1  0
 12 13  2  0
 15 14  1  0
 16 15  2  0
 17 15  1  0
 18 17  1  0
 19 18  1  0
 20 19  1  0
 21 20  1  1
 21 23  1  0
 22 21  1  0
 22 12  1  0
 23 25  1  0
 24 23  2  0
M  END
$$$$
