VSR.pdb
     RDKit          3D

 25 24  0  0  1  0  0  0  0  0999 V2000
   19.6358  -25.7820  -15.8615 C   0  0  0  0  0  0  0  0  0  0  0  0
   19.2350  -24.3102  -16.0502 C   0  0  2  0  0  0  0  0  0  0  0  0
   19.6677  -23.9651  -17.4584 C   0  0  0  0  0  0  0  0  0  0  0  0
   20.0935  -23.5199  -15.0825 C   0  0  2  0  0  0  0  0  0  0  0  0
   21.4789  -23.7268  -15.5656 N   0  0  0  0  0  0  0  0  0  0  0  0
   20.0494  -24.0314  -13.6981 C   0  0  0  0  0  0  0  0  0  0  0  0
   21.0226  -24.7181  -13.2767 O   0  0  0  0  0  0  0  0  0  0  0  0
   17.8382  -22.2304  -11.2386 O   0  0  0  0  0  0  0  0  0  0  0  0
   18.0106  -23.4780  -10.6413 C   0  0  0  0  0  0  0  0  0  0  0  0
   19.0567  -24.3153  -11.4033 C   0  0  2  0  0  0  0  0  0  0  0  0
   19.0074  -23.8288  -12.7651 N   0  0  0  0  0  0  0  0  0  0  0  0
   18.8082  -25.7446  -11.2432 C   0  0  0  0  0  0  0  0  0  0  0  0
   17.9045  -26.2792  -11.9745 O   0  0  0  0  0  0  0  0  0  0  0  0
   24.3878  -32.1520   -8.8626 N   0  0  0  0  0  0  0  0  0  0  0  0
   23.7124  -32.3463  -10.1192 C   0  0  0  0  0  0  0  0  0  0  0  0
   24.1469  -33.2773  -10.8785 N   0  0  0  0  0  0  0  0  0  0  0  0
   22.6289  -31.5577  -10.5056 N   0  0  0  0  0  0  0  0  0  0  0  0
   22.2085  -30.4186   -9.6616 C   0  0  0  0  0  0  0  0  0  0  0  0
   20.9802  -29.8832  -10.3170 C   0  0  0  0  0  0  0  0  0  0  0  0
   20.3541  -28.6896   -9.7776 C   0  0  0  0  0  0  0  0  0  0  0  0
   19.1119  -28.0765  -10.2729 C   0  0  2  0  0  0  0  0  0  0  0  0
   19.4775  -26.6067  -10.3484 N   0  0  0  0  0  0  0  0  0  0  0  0
   17.8582  -28.1921   -9.5728 C   0  0  0  0  0  0  0  0  0  0  0  0
   17.4772  -27.3171   -8.6936 O   0  0  0  0  0  0  0  0  0  0  0  0
   16.9388  -29.2042   -9.7535 O   0  0  0  0  0  0  0  0  0  0  0  0
  2  1  1  1
  2  3  1  0
  4  2  1  0
  4  5  1  6
  4  6  1  0
  6  7  2  0
 10  9  1  1
  9  8  1  0
 10 12  1  0
 11  6  1  0
 11 10  1  0
 12 13  2  0
 15 14  1  0
 16 15  2  0
 17 15  1  0
 18 17  1  0
 19 18  1  0
 20 19  1  0
 21 20  1  1
 21 23  1  0
 22 21  1  0
 22 12  1  0
 23 25  1  0
 24 23  2  0
M  END
$$$$
