VSR.pdb
     RDKit          3D

 25 24  0  0  1  0  0  0  0  0999 V2000
   23.5892  -17.4529  -18.3332 C   0  0  0  0  0  0  0  0  0  0  0  0
   22.2639  -17.5659  -19.1033 C   0  0  2  0  0  0  0  0  0  0  0  0
   22.4608  -18.7291  -20.0508 C   0  0  0  0  0  0  0  0  0  0  0  0
   22.1533  -16.2971  -19.9256 C   0  0  2  0  0  0  0  0  0  0  0  0
   23.2546  -16.3999  -20.9114 N   0  0  0  0  0  0  0  0  0  0  0  0
   22.3968  -15.0652  -19.1489 C   0  0  0  0  0  0  0  0  0  0  0  0
   21.6299  -14.8004  -18.1804 O   0  0  0  0  0  0  0  0  0  0  0  0
   25.9076  -12.9381  -18.6025 O   0  0  0  0  0  0  0  0  0  0  0  0
   24.8360  -12.2303  -19.1442 C   0  0  0  0  0  0  0  0  0  0  0  0
   23.4913  -12.8431  -18.7059 C   0  0  2  0  0  0  0  0  0  0  0  0
   23.4258  -14.1235  -19.3765 N   0  0  0  0  0  0  0  0  0  0  0  0
   22.3816  -11.9367  -18.9843 C   0  0  0  0  0  0  0  0  0  0  0  0
   21.9131  -11.9144  -20.1747 O   0  0  0  0  0  0  0  0  0  0  0  0
   14.4825  -13.1989  -18.1326 N   0  0  0  0  0  0  0  0  0  0  0  0
   14.5312  -11.8236  -18.5556 C   0  0  0  0  0  0  0  0  0  0  0  0
   13.4258  -11.2733  -18.8834 N   0  0  0  0  0  0  0  0  0  0  0  0
   15.7279  -11.1096  -18.6120 N   0  0  0  0  0  0  0  0  0  0  0  0
   16.9997  -11.7735  -18.2533 C   0  0  0  0  0  0  0  0  0  0  0  0
   18.0523  -10.7401  -18.4749 C   0  0  0  0  0  0  0  0  0  0  0  0
   19.4420  -11.0833  -18.2330 C   0  0  0  0  0  0  0  0  0  0  0  0
   20.5950  -10.2007  -18.4688 C   0  0  2  0  0  0  0  0  0  0  0  0
   21.7660  -11.0710  -18.0551 N   0  0  0  0  0  0  0  0  0  0  0  0
   20.7361   -8.9211  -17.8223 C   0  0  0  0  0  0  0  0  0  0  0  0
   20.0744   -7.8755  -18.2130 O   0  0  0  0  0  0  0  0  0  0  0  0
   21.5535   -8.6638  -16.7416 O   0  0  0  0  0  0  0  0  0  0  0  0
  2  1  1  1
  2  3  1  0
  4  2  1  0
  4  5  1  6
  4  6  1  0
  6  7  2  0
 10  9  1  6
  9  8  1  0
 10 12  1  0
 11  6  1  0
 11 10  1  0
 12 13  2  0
 15 14  1  0
 16 15  2  0
 17 15  1  0
 18 17  1  0
 19 18  1  0
 20 19  1  0
 21 20  1  1
 21 23  1  0
 22 21  1  0
 22 12  1  0
 23 25  1  0
 24 23  2  0
M  END
$$$$
