VSR.pdb
     RDKit          3D

 25 24  0  0  1  0  0  0  0  0999 V2000
   27.8945  -28.7008  -16.9918 C   0  0  0  0  0  0  0  0  0  0  0  0
   28.7917  -27.4530  -17.0077 C   0  0  2  0  0  0  0  0  0  0  0  0
   28.2976  -26.6021  -15.8583 C   0  0  0  0  0  0  0  0  0  0  0  0
   28.4751  -26.7318  -18.3030 C   0  0  2  0  0  0  0  0  0  0  0  0
   29.3385  -25.5280  -18.2748 N   0  0  0  0  0  0  0  0  0  0  0  0
   27.0822  -26.2492  -18.3867 C   0  0  0  0  0  0  0  0  0  0  0  0
   26.7508  -25.2396  -17.7034 O   0  0  0  0  0  0  0  0  0  0  0  0
   24.0686  -28.0939  -20.6848 O   0  0  0  0  0  0  0  0  0  0  0  0
   24.1020  -26.7098  -20.5232 C   0  0  0  0  0  0  0  0  0  0  0  0
   24.6852  -26.3282  -19.1484 C   0  0  2  0  0  0  0  0  0  0  0  0
   26.0497  -26.8090  -19.1728 N   0  0  0  0  0  0  0  0  0  0  0  0
   23.8609  -26.8482  -18.0618 C   0  0  0  0  0  0  0  0  0  0  0  0
   24.1634  -27.9936  -17.5785 O   0  0  0  0  0  0  0  0  0  0  0  0
   18.7984  -22.4952  -12.1722 N   0  0  0  0  0  0  0  0  0  0  0  0
   18.7023  -23.9005  -11.8739 C   0  0  0  0  0  0  0  0  0  0  0  0
   18.0319  -24.2338  -10.8387 N   0  0  0  0  0  0  0  0  0  0  0  0
   19.3118  -24.8687  -12.6715 N   0  0  0  0  0  0  0  0  0  0  0  0
   20.1457  -24.4579  -13.8215 C   0  0  0  0  0  0  0  0  0  0  0  0
   20.6508  -25.7325  -14.4091 C   0  0  0  0  0  0  0  0  0  0  0  0
   21.5028  -25.6809  -15.5833 C   0  0  0  0  0  0  0  0  0  0  0  0
   21.9880  -26.8453  -16.3403 C   0  0  2  0  0  0  0  0  0  0  0  0
   22.7477  -26.2012  -17.4839 N   0  0  0  0  0  0  0  0  0  0  0  0
   21.0993  -27.8353  -16.8928 C   0  0  0  0  0  0  0  0  0  0  0  0
   20.5428  -27.6889  -18.0558 O   0  0  0  0  0  0  0  0  0  0  0  0
   20.7531  -29.0213  -16.2797 O   0  0  0  0  0  0  0  0  0  0  0  0
  2  1  1  6
  2  3  1  0
  4  2  1  0
  4  5  1  1
  4  6  1  0
  6  7  2  0
 10  9  1  6
  9  8  1  0
 10 12  1  0
 11  6  1  0
 11 10  1  0
 12 13  2  0
 15 14  1  0
 16 15  2  0
 17 15  1  0
 18 17  1  0
 19 18  1  0
 20 19  1  0
 21 20  1  6
 21 23  1  0
 22 21  1  0
 22 12  1  0
 23 25  1  0
 24 23  2  0
M  END
$$$$
