VSR.pdb
     RDKit          3D

 25 24  0  0  1  0  0  0  0  0999 V2000
   18.5336  -15.4373  -15.1886 C   0  0  0  0  0  0  0  0  0  0  0  0
   18.2098  -16.0347  -13.8099 C   0  0  2  0  0  0  0  0  0  0  0  0
   19.4295  -15.7453  -12.9627 C   0  0  0  0  0  0  0  0  0  0  0  0
   18.1212  -17.5336  -14.0186 C   0  0  2  0  0  0  0  0  0  0  0  0
   17.8092  -18.0747  -12.6750 N   0  0  0  0  0  0  0  0  0  0  0  0
   19.3967  -18.1499  -14.4351 C   0  0  0  0  0  0  0  0  0  0  0  0
   20.2830  -18.3549  -13.5584 O   0  0  0  0  0  0  0  0  0  0  0  0
   20.4032  -19.4179  -18.4116 O   0  0  0  0  0  0  0  0  0  0  0  0
   20.5863  -20.1736  -17.2547 C   0  0  0  0  0  0  0  0  0  0  0  0
   20.9560  -19.2730  -16.0596 C   0  0  2  0  0  0  0  0  0  0  0  0
   19.7433  -18.5488  -15.7458 N   0  0  0  0  0  0  0  0  0  0  0  0
   22.1168  -18.4419  -16.3633 C   0  0  0  0  0  0  0  0  0  0  0  0
   21.9143  -17.3286  -16.9605 O   0  0  0  0  0  0  0  0  0  0  0  0
   27.3874  -20.9116  -13.8196 N   0  0  0  0  0  0  0  0  0  0  0  0
   28.2218  -20.6642  -14.9665 C   0  0  0  0  0  0  0  0  0  0  0  0
   28.6526  -21.6825  -15.6065 N   0  0  0  0  0  0  0  0  0  0  0  0
   28.5559  -19.3725  -15.3726 N   0  0  0  0  0  0  0  0  0  0  0  0
   28.0279  -18.2072  -14.6310 C   0  0  0  0  0  0  0  0  0  0  0  0
   26.9893  -17.6172  -15.5243 C   0  0  0  0  0  0  0  0  0  0  0  0
   25.7092  -18.2884  -15.6597 C   0  0  0  0  0  0  0  0  0  0  0  0
   24.5813  -17.8225  -16.4813 C   0  0  2  0  0  0  0  0  0  0  0  0
   23.4595  -18.7507  -16.0574 N   0  0  0  0  0  0  0  0  0  0  0  0
   24.6278  -17.8025  -17.9210 C   0  0  0  0  0  0  0  0  0  0  0  0
   24.2243  -18.8065  -18.6371 O   0  0  0  0  0  0  0  0  0  0  0  0
   25.0802  -16.7476  -18.6857 O   0  0  0  0  0  0  0  0  0  0  0  0
  2  1  1  6
  2  3  1  0
  4  2  1  0
  4  5  1  1
  4  6  1  0
  6  7  2  0
 10  9  1  6
  9  8  1  0
 10 12  1  0
 11  6  1  0
 11 10  1  0
 12 13  2  0
 15 14  1  0
 16 15  2  0
 17 15  1  0
 18 17  1  0
 19 18  1  0
 20 19  1  0
 21 20  1  1
 21 23  1  0
 22 21  1  0
 22 12  1  0
 23 25  1  0
 24 23  2  0
M  END
$$$$
