VSR.pdb
     RDKit          3D

 25 24  0  0  1  0  0  0  0  0999 V2000
   16.4757  -11.3552  -17.0999 C   0  0  0  0  0  0  0  0  0  0  0  0
   17.1494  -12.5305  -16.3739 C   0  0  2  0  0  0  0  0  0  0  0  0
   16.6711  -12.4307  -14.9419 C   0  0  0  0  0  0  0  0  0  0  0  0
   18.6361  -12.2356  -16.3996 C   0  0  2  0  0  0  0  0  0  0  0  0
   19.2540  -13.3988  -15.7208 N   0  0  0  0  0  0  0  0  0  0  0  0
   19.0166  -11.0414  -15.6191 C   0  0  0  0  0  0  0  0  0  0  0  0
   18.9840  -11.1087  -14.3579 O   0  0  0  0  0  0  0  0  0  0  0  0
   19.8145   -7.3344  -17.3644 O   0  0  0  0  0  0  0  0  0  0  0  0
   20.5039   -7.6826  -16.2040 C   0  0  0  0  0  0  0  0  0  0  0  0
   19.6619   -8.6272  -15.3238 C   0  0  2  0  0  0  0  0  0  0  0  0
   19.4272   -9.7954  -16.1447 N   0  0  0  0  0  0  0  0  0  0  0  0
   18.4605   -7.9603  -14.8317 C   0  0  0  0  0  0  0  0  0  0  0  0
   17.3930   -8.0612  -15.5298 O   0  0  0  0  0  0  0  0  0  0  0  0
   14.3359   -8.6477   -7.3098 N   0  0  0  0  0  0  0  0  0  0  0  0
   13.4639   -8.0973   -8.3146 C   0  0  0  0  0  0  0  0  0  0  0  0
   12.2071   -8.1539   -8.0924 N   0  0  0  0  0  0  0  0  0  0  0  0
   13.9561   -7.5249   -9.4873 N   0  0  0  0  0  0  0  0  0  0  0  0
   15.2303   -8.0057  -10.0635 C   0  0  0  0  0  0  0  0  0  0  0  0
   15.4611   -7.1490  -11.2626 C   0  0  0  0  0  0  0  0  0  0  0  0
   16.6647   -7.3447  -12.0503 C   0  0  0  0  0  0  0  0  0  0  0  0
   17.0433   -6.5692  -13.2417 C   0  0  2  0  0  0  0  0  0  0  0  0
   18.3601   -7.2050  -13.6437 N   0  0  0  0  0  0  0  0  0  0  0  0
   17.2253   -5.1406  -13.2105 C   0  0  0  0  0  0  0  0  0  0  0  0
   18.3825   -4.5985  -12.9851 O   0  0  0  0  0  0  0  0  0  0  0  0
   16.2300   -4.2090  -13.4200 O   0  0  0  0  0  0  0  0  0  0  0  0
  2  1  1  6
  2  3  1  0
  4  2  1  0
  4  5  1  1
  4  6  1  0
  6  7  2  0
 10  9  1  6
  9  8  1  0
 10 12  1  0
 11  6  1  0
 11 10  1  0
 12 13  2  0
 15 14  1  0
 16 15  2  0
 17 15  1  0
 18 17  1  0
 19 18  1  0
 20 19  1  0
 21 20  1  1
 21 23  1  0
 22 21  1  0
 22 12  1  0
 23 25  1  0
 24 23  2  0
M  END
$$$$
