VSR.pdb
     RDKit          3D

 25 24  0  0  1  0  0  0  0  0999 V2000
   16.2601  -10.8465  -16.5526 C   0  0  0  0  0  0  0  0  0  0  0  0
   15.4946  -10.8013  -15.2205 C   0  0  2  0  0  0  0  0  0  0  0  0
   14.3628  -11.7916  -15.3867 C   0  0  0  0  0  0  0  0  0  0  0  0
   14.8992   -9.4099  -15.1322 C   0  0  2  0  0  0  0  0  0  0  0  0
   13.8919   -9.3708  -16.2180 N   0  0  0  0  0  0  0  0  0  0  0  0
   15.8676   -8.3323  -15.4170 C   0  0  0  0  0  0  0  0  0  0  0  0
   16.3333   -8.2327  -16.5872 O   0  0  0  0  0  0  0  0  0  0  0  0
   17.6275   -3.9854  -14.5920 O   0  0  0  0  0  0  0  0  0  0  0  0
   16.7643   -5.0437  -14.3130 C   0  0  0  0  0  0  0  0  0  0  0  0
   17.3389   -6.3766  -14.8318 C   0  0  2  0  0  0  0  0  0  0  0  0
   16.3425   -7.3708  -14.4965 N   0  0  0  0  0  0  0  0  0  0  0  0
   18.6719   -6.6237  -14.2910 C   0  0  0  0  0  0  0  0  0  0  0  0
   18.7564   -7.1797  -13.1417 O   0  0  0  0  0  0  0  0  0  0  0  0
   25.0038  -11.7119  -16.4289 N   0  0  0  0  0  0  0  0  0  0  0  0
   25.6196  -10.7817  -15.5187 C   0  0  0  0  0  0  0  0  0  0  0  0
   26.8290  -11.0118  -15.1772 N   0  0  0  0  0  0  0  0  0  0  0  0
   24.9363   -9.6725  -15.0208 N   0  0  0  0  0  0  0  0  0  0  0  0
   23.5719   -9.3697  -15.5039 C   0  0  0  0  0  0  0  0  0  0  0  0
   23.1355   -8.1823  -14.7136 C   0  0  0  0  0  0  0  0  0  0  0  0
   21.8246   -7.6103  -14.9624 C   0  0  0  0  0  0  0  0  0  0  0  0
   21.2117   -6.5114  -14.2002 C   0  0  2  0  0  0  0  0  0  0  0  0
   19.8937   -6.3054  -14.9215 N   0  0  0  0  0  0  0  0  0  0  0  0
   21.8455   -5.2269  -14.0471 C   0  0  0  0  0  0  0  0  0  0  0  0
   21.4835   -4.1930  -14.7426 O   0  0  0  0  0  0  0  0  0  0  0  0
   22.8696   -4.9473  -13.1666 O   0  0  0  0  0  0  0  0  0  0  0  0
  2  1  1  6
  2  3  1  0
  4  2  1  0
  4  5  1  6
  4  6  1  0
  6  7  2  0
 10  9  1  1
  9  8  1  0
 10 12  1  0
 11  6  1  0
 11 10  1  0
 12 13  2  0
 15 14  1  0
 16 15  2  0
 17 15  1  0
 18 17  1  0
 19 18  1  0
 20 19  1  0
 21 20  1  6
 21 23  1  0
 22 21  1  0
 22 12  1  0
 23 25  1  0
 24 23  2  0
M  END
$$$$
