VSR.pdb
     RDKit          3D

 25 24  0  0  1  0  0  0  0  0999 V2000
   23.0770  -15.2884  -19.4515 C   0  0  0  0  0  0  0  0  0  0  0  0
   23.7381  -13.9092  -19.6034 C   0  0  2  0  0  0  0  0  0  0  0  0
   25.0046  -14.1678  -20.3899 C   0  0  0  0  0  0  0  0  0  0  0  0
   24.1281  -13.4804  -18.2027 C   0  0  2  0  0  0  0  0  0  0  0  0
   22.8426  -13.4029  -17.4700 N   0  0  0  0  0  0  0  0  0  0  0  0
   24.7296  -12.1333  -18.1418 C   0  0  0  0  0  0  0  0  0  0  0  0
   24.5085  -11.3298  -19.0913 O   0  0  0  0  0  0  0  0  0  0  0  0
   26.5799  -10.6334  -14.7791 O   0  0  0  0  0  0  0  0  0  0  0  0
   26.0019   -9.7683  -15.7068 C   0  0  0  0  0  0  0  0  0  0  0  0
   26.1520  -10.3152  -17.1401 C   0  0  2  0  0  0  0  0  0  0  0  0
   25.5480  -11.6296  -17.1055 N   0  0  0  0  0  0  0  0  0  0  0  0
   27.5446  -10.2810  -17.5758 C   0  0  0  0  0  0  0  0  0  0  0  0
   28.2852  -11.2837  -17.2877 O   0  0  0  0  0  0  0  0  0  0  0  0
   31.0134   -6.9734  -24.9425 N   0  0  0  0  0  0  0  0  0  0  0  0
   32.0152   -7.7771  -24.2919 C   0  0  0  0  0  0  0  0  0  0  0  0
   33.1001   -7.9901  -24.9321 N   0  0  0  0  0  0  0  0  0  0  0  0
   31.8227   -8.3092  -23.0172 N   0  0  0  0  0  0  0  0  0  0  0  0
   30.5981   -7.9776  -22.2575 C   0  0  0  0  0  0  0  0  0  0  0  0
   30.7272   -8.7205  -20.9705 C   0  0  0  0  0  0  0  0  0  0  0  0
   29.6276   -8.6902  -20.0232 C   0  0  0  0  0  0  0  0  0  0  0  0
   29.6202   -9.3324  -18.6997 C   0  0  2  0  0  0  0  0  0  0  0  0
   28.1621   -9.2351  -18.2946 N   0  0  0  0  0  0  0  0  0  0  0  0
   30.4238   -8.8562  -17.6031 C   0  0  0  0  0  0  0  0  0  0  0  0
   29.9510   -8.0522  -16.7011 O   0  0  0  0  0  0  0  0  0  0  0  0
   31.7425   -9.1936  -17.3805 O   0  0  0  0  0  0  0  0  0  0  0  0
  2  1  1  1
  2  3  1  0
  4  2  1  0
  4  5  1  1
  4  6  1  0
  6  7  2  0
 10  9  1  1
  9  8  1  0
 10 12  1  0
 11  6  1  0
 11 10  1  0
 12 13  2  0
 15 14  1  0
 16 15  2  0
 17 15  1  0
 18 17  1  0
 19 18  1  0
 20 19  1  0
 21 20  1  6
 21 23  1  0
 22 21  1  0
 22 12  1  0
 23 25  1  0
 24 23  2  0
M  END
$$$$
