NPC.pdb
     RDKit          3D

 22 22  0  0  1  0  0  0  0  0999 V2000
    3.4510  -18.1250   20.0935 N   0  0  0  0  0  0  0  0  0  0  0  0
    4.7483  -18.6582   19.8057 C   0  0  0  0  0  0  0  0  0  0  0  0
    4.8935  -19.5338   18.8983 O   0  0  0  0  0  0  0  0  0  0  0  0
    5.9186  -18.1702   20.5826 C   0  0  0  0  0  0  0  0  0  0  0  0
    6.8416  -17.3463   19.6876 C   0  0  2  0  0  0  0  0  0  0  0  0
    7.5463  -18.3115   18.8069 N   0  0  0  0  0  0  0  0  0  0  0  0
    7.8563  -16.6223   20.4777 C   0  0  0  0  0  0  0  0  0  0  0  0
    8.5888  -17.3058   21.2180 O   0  0  0  0  0  0  0  0  0  0  0  0
    8.0236  -15.2268   20.4273 N   0  0  0  0  0  0  0  0  0  0  0  0
    7.9926  -14.5214   19.1214 C   0  0  0  0  0  0  0  0  0  0  0  0
    7.4211  -13.1547   19.4063 C   0  0  0  0  0  0  0  0  0  0  0  0
    7.1806  -13.1402   20.8959 C   0  0  0  0  0  0  0  0  0  0  0  0
    8.2416  -14.1809   21.3529 C   0  0  1  0  0  0  0  0  0  0  0  0
    8.0090  -14.3948   22.7649 C   0  0  0  0  0  0  0  0  0  0  0  0
    7.0359  -13.9333   23.3767 O   0  0  0  0  0  0  0  0  0  0  0  0
    8.9127  -15.1771   23.5861 N   0  0  0  0  0  0  0  0  0  0  0  0
    8.8040  -15.2515   25.0062 C   0  0  1  0  0  0  0  0  0  0  0  0
    7.4848  -15.8830   25.4832 C   0  0  0  0  0  0  0  0  0  0  0  0
    7.2904  -17.3884   24.4560 S   0  0  0  0  0  0  0  0  0  0  0  0
    9.8706  -16.1355   25.5318 C   0  0  0  0  0  0  0  0  0  0  0  0
   10.6153  -16.7415   24.7290 O   0  0  0  0  0  0  0  0  0  0  0  0
   10.1073  -16.3440   26.8924 O   0  0  0  0  0  0  0  0  0  0  0  0
  1  2  1  0
  2  3  2  0
  4  2  1  0
  4  5  1  0
  5  6  1  6
  7  5  1  0
  7  8  2  0
  9  7  1  0
 10  9  1  0
 11 10  1  0
 11 12  1  0
 12 13  1  0
 13  9  1  0
 13 14  1  1
 15 14  2  0
 16 14  1  0
 17 20  1  0
 17 16  1  0
 17 18  1  6
 19 18  1  0
 20 22  1  0
 21 20  2  0
M  END
$$$$
