NPC.pdb
     RDKit          3D

 22 22  0  0  1  0  0  0  0  0999 V2000
   11.4559  -19.4921   16.3557 N   0  0  0  0  0  0  0  0  0  0  0  0
   10.4502  -19.4050   17.3711 C   0  0  0  0  0  0  0  0  0  0  0  0
    9.4080  -20.1264   17.3032 O   0  0  0  0  0  0  0  0  0  0  0  0
   10.6463  -18.4609   18.5032 C   0  0  0  0  0  0  0  0  0  0  0  0
    9.4173  -17.5698   18.6682 C   0  0  2  0  0  0  0  0  0  0  0  0
    9.2188  -16.8809   17.3683 N   0  0  0  0  0  0  0  0  0  0  0  0
    9.6308  -16.5403   19.7039 C   0  0  0  0  0  0  0  0  0  0  0  0
   10.6026  -16.6998   20.4668 O   0  0  0  0  0  0  0  0  0  0  0  0
    8.8009  -15.4154   19.8577 N   0  0  0  0  0  0  0  0  0  0  0  0
    8.1394  -14.8126   18.6733 C   0  0  0  0  0  0  0  0  0  0  0  0
    6.8345  -14.2462   19.1756 C   0  0  0  0  0  0  0  0  0  0  0  0
    6.8343  -14.5334   20.6570 C   0  0  0  0  0  0  0  0  0  0  0  0
    8.3652  -14.5940   20.9224 C   0  0  1  0  0  0  0  0  0  0  0  0
    8.5158  -15.0335   22.2928 C   0  0  0  0  0  0  0  0  0  0  0  0
    7.8441  -15.9430   22.7985 O   0  0  0  0  0  0  0  0  0  0  0  0
    9.4789  -14.4318   23.1947 N   0  0  0  0  0  0  0  0  0  0  0  0
    9.5528  -14.7571   24.5813 C   0  0  1  0  0  0  0  0  0  0  0  0
    8.2252  -14.5424   25.3283 C   0  0  0  0  0  0  0  0  0  0  0  0
    8.5883  -15.0008   27.0653 S   0  0  0  0  0  0  0  0  0  0  0  0
    9.8529  -16.2005   24.7288 C   0  0  0  0  0  0  0  0  0  0  0  0
    8.9912  -17.0433   24.3918 O   0  0  0  0  0  0  0  0  0  0  0  0
   11.0586  -16.6967   25.2298 O   0  0  0  0  0  0  0  0  0  0  0  0
  1  2  1  0
  2  3  2  0
  4  2  1  0
  4  5  1  0
  5  6  1  6
  7  5  1  0
  7  8  2  0
  9  7  1  0
 10  9  1  0
 11 10  1  0
 11 12  1  0
 12 13  1  0
 13  9  1  0
 13 14  1  1
 15 14  2  0
 16 14  1  0
 17 20  1  0
 17 16  1  0
 17 18  1  1
 19 18  1  0
 20 22  1  0
 21 20  2  0
M  END
$$$$
