NPC.pdb
     RDKit          3D

 22 22  0  0  1  0  0  0  0  0999 V2000
    7.0859  -17.0280   18.2092 N   0  0  0  0  0  0  0  0  0  0  0  0
    7.7921  -17.8237   17.2509 C   0  0  0  0  0  0  0  0  0  0  0  0
    7.6393  -19.0836   17.2281 O   0  0  0  0  0  0  0  0  0  0  0  0
    8.7024  -17.1528   16.2851 C   0  0  0  0  0  0  0  0  0  0  0  0
    8.8424  -15.6721   16.6308 C   0  0  2  0  0  0  0  0  0  0  0  0
    9.7900  -15.0967   15.6434 N   0  0  0  0  0  0  0  0  0  0  0  0
    9.4143  -15.4828   17.9781 C   0  0  0  0  0  0  0  0  0  0  0  0
   10.2929  -16.2897   18.3370 O   0  0  0  0  0  0  0  0  0  0  0  0
    9.0158  -14.4529   18.8489 N   0  0  0  0  0  0  0  0  0  0  0  0
    8.5133  -13.1685   18.2997 C   0  0  0  0  0  0  0  0  0  0  0  0
    7.5063  -12.6596   19.3011 C   0  0  0  0  0  0  0  0  0  0  0  0
    7.5103  -13.6857   20.4075 C   0  0  0  0  0  0  0  0  0  0  0  0
    8.9489  -14.2533   20.2467 C   0  0  1  0  0  0  0  0  0  0  0  0
    9.0371  -15.3800   21.1504 C   0  0  0  0  0  0  0  0  0  0  0  0
    8.1230  -16.1994   21.3152 O   0  0  0  0  0  0  0  0  0  0  0  0
   10.2208  -15.6395   21.9469 N   0  0  0  0  0  0  0  0  0  0  0  0
   10.3666  -16.7975   22.7666 C   0  0  1  0  0  0  0  0  0  0  0  0
   11.1579  -17.9283   22.0870 C   0  0  0  0  0  0  0  0  0  0  0  0
   12.7596  -17.1653   21.6273 S   0  0  0  0  0  0  0  0  0  0  0  0
   11.1504  -16.4456   23.9737 C   0  0  0  0  0  0  0  0  0  0  0  0
   11.6575  -15.3050   24.0643 O   0  0  0  0  0  0  0  0  0  0  0  0
   11.3675  -17.3191   25.0417 O   0  0  0  0  0  0  0  0  0  0  0  0
  1  2  1  0
  2  3  2  0
  4  2  1  0
  4  5  1  0
  5  6  1  6
  7  5  1  0
  7  8  2  0
  9  7  1  0
 10  9  1  0
 11 10  1  0
 11 12  1  0
 12 13  1  0
 13  9  1  0
 13 14  1  1
 15 14  2  0
 16 14  1  0
 17 20  1  0
 17 16  1  0
 17 18  1  6
 19 18  1  0
 20 22  1  0
 21 20  2  0
M  END
$$$$
