NPC.pdb
     RDKit          3D

 22 22  0  0  1  0  0  0  0  0999 V2000
    7.1027  -19.7403   18.0591 N   0  0  0  0  0  0  0  0  0  0  0  0
    6.8246  -18.7610   19.0660 C   0  0  0  0  0  0  0  0  0  0  0  0
    6.9455  -19.0545   20.2950 O   0  0  0  0  0  0  0  0  0  0  0  0
    6.3955  -17.3992   18.6504 C   0  0  0  0  0  0  0  0  0  0  0  0
    7.5533  -16.6599   17.9834 C   0  0  2  0  0  0  0  0  0  0  0  0
    8.1835  -17.6229   17.0456 N   0  0  0  0  0  0  0  0  0  0  0  0
    8.5714  -16.2477   18.9690 C   0  0  0  0  0  0  0  0  0  0  0  0
    9.4986  -17.0492   19.1920 O   0  0  0  0  0  0  0  0  0  0  0  0
    8.5357  -15.0165   19.6477 N   0  0  0  0  0  0  0  0  0  0  0  0
    8.0306  -13.8025   18.9585 C   0  0  0  0  0  0  0  0  0  0  0  0
    7.3980  -12.9534   20.0331 C   0  0  0  0  0  0  0  0  0  0  0  0
    7.6078  -13.7287   21.3106 C   0  0  0  0  0  0  0  0  0  0  0  0
    8.8808  -14.5372   20.9320 C   0  0  1  0  0  0  0  0  0  0  0  0
    9.1045  -15.4630   22.0213 C   0  0  0  0  0  0  0  0  0  0  0  0
    8.1987  -16.1001   22.5761 O   0  0  0  0  0  0  0  0  0  0  0  0
   10.4276  -15.7190   22.5572 N   0  0  0  0  0  0  0  0  0  0  0  0
   10.6678  -16.6235   23.6333 C   0  0  1  0  0  0  0  0  0  0  0  0
   10.9946  -18.0523   23.1659 C   0  0  0  0  0  0  0  0  0  0  0  0
   12.3211  -17.8427   21.9187 S   0  0  0  0  0  0  0  0  0  0  0  0
   11.8629  -16.1783   24.3876 C   0  0  0  0  0  0  0  0  0  0  0  0
   12.5472  -15.2277   23.9465 O   0  0  0  0  0  0  0  0  0  0  0  0
   12.2884  -16.7600   25.5841 O   0  0  0  0  0  0  0  0  0  0  0  0
  1  2  1  0
  2  3  2  0
  4  2  1  0
  4  5  1  0
  5  6  1  6
  7  5  1  0
  7  8  2  0
  9  7  1  0
 10  9  1  0
 11 10  1  0
 11 12  1  0
 12 13  1  0
 13  9  1  0
 13 14  1  1
 15 14  2  0
 16 14  1  0
 17 20  1  0
 17 16  1  0
 17 18  1  6
 19 18  1  0
 20 22  1  0
 21 20  2  0
M  END
$$$$
