NPC.pdb
     RDKit          3D

 22 22  0  0  1  0  0  0  0  0999 V2000
    9.5483  -19.8503   23.3632 N   0  0  0  0  0  0  0  0  0  0  0  0
   10.4761  -18.7967   23.0818 C   0  0  0  0  0  0  0  0  0  0  0  0
   10.8018  -17.9714   23.9895 O   0  0  0  0  0  0  0  0  0  0  0  0
   11.0513  -18.6864   21.7150 C   0  0  0  0  0  0  0  0  0  0  0  0
   10.2319  -17.7112   20.8729 C   0  0  2  0  0  0  0  0  0  0  0  0
   10.9850  -17.5094   19.6096 N   0  0  0  0  0  0  0  0  0  0  0  0
   10.0973  -16.4016   21.5398 C   0  0  0  0  0  0  0  0  0  0  0  0
   11.0564  -16.0225   22.2385 O   0  0  0  0  0  0  0  0  0  0  0  0
    8.9575  -15.5866   21.4189 N   0  0  0  0  0  0  0  0  0  0  0  0
    8.2328  -15.5096   20.1256 C   0  0  0  0  0  0  0  0  0  0  0  0
    6.7849  -15.2767   20.4793 C   0  0  0  0  0  0  0  0  0  0  0  0
    6.7637  -15.1996   21.9862 C   0  0  0  0  0  0  0  0  0  0  0  0
    8.2179  -14.7187   22.2544 C   0  0  1  0  0  0  0  0  0  0  0  0
    8.3940  -14.7608   23.6900 C   0  0  0  0  0  0  0  0  0  0  0  0
    8.2711  -15.7916   24.3655 O   0  0  0  0  0  0  0  0  0  0  0  0
    8.7317  -13.5799   24.4610 N   0  0  0  0  0  0  0  0  0  0  0  0
    8.0393  -13.2047   25.6500 C   0  0  1  0  0  0  0  0  0  0  0  0
    6.7501  -12.4103   25.3786 C   0  0  0  0  0  0  0  0  0  0  0  0
    6.1345  -11.9392   27.0394 S   0  0  0  0  0  0  0  0  0  0  0  0
    7.6002  -14.4258   26.3651 C   0  0  0  0  0  0  0  0  0  0  0  0
    6.7489  -15.1742   25.8345 O   0  0  0  0  0  0  0  0  0  0  0  0
    8.0816  -14.8077   27.6194 O   0  0  0  0  0  0  0  0  0  0  0  0
  1  2  1  0
  2  3  2  0
  4  2  1  0
  4  5  1  0
  5  6  1  6
  7  5  1  0
  7  8  2  0
  9  7  1  0
 10  9  1  0
 11 10  1  0
 11 12  1  0
 12 13  1  0
 13  9  1  0
 13 14  1  1
 15 14  2  0
 16 14  1  0
 17 20  1  0
 17 16  1  0
 17 18  1  6
 19 18  1  0
 20 22  1  0
 21 20  2  0
M  END
$$$$
