NPC.pdb
     RDKit          3D

 22 22  0  0  1  0  0  0  0  0999 V2000
   11.0828  -19.2867   15.6508 N   0  0  0  0  0  0  0  0  0  0  0  0
   10.2265  -19.1835   16.7937 C   0  0  0  0  0  0  0  0  0  0  0  0
    9.2170  -19.9444   16.9079 O   0  0  0  0  0  0  0  0  0  0  0  0
   10.5387  -18.1757   17.8417 C   0  0  0  0  0  0  0  0  0  0  0  0
    9.2608  -17.4793   18.3038 C   0  0  2  0  0  0  0  0  0  0  0  0
    8.7238  -16.7574   17.1229 N   0  0  0  0  0  0  0  0  0  0  0  0
    9.5374  -16.4867   19.3603 C   0  0  0  0  0  0  0  0  0  0  0  0
   10.2773  -16.8483   20.2950 O   0  0  0  0  0  0  0  0  0  0  0  0
    9.0116  -15.1824   19.3518 N   0  0  0  0  0  0  0  0  0  0  0  0
    8.6146  -14.5497   18.0689 C   0  0  0  0  0  0  0  0  0  0  0  0
    7.4630  -13.6338   18.4017 C   0  0  0  0  0  0  0  0  0  0  0  0
    7.2801  -13.7706   19.8933 C   0  0  0  0  0  0  0  0  0  0  0  0
    8.7213  -14.1820   20.3074 C   0  0  1  0  0  0  0  0  0  0  0  0
    8.6533  -14.5134   21.7143 C   0  0  0  0  0  0  0  0  0  0  0  0
    7.5905  -14.6665   22.3316 O   0  0  0  0  0  0  0  0  0  0  0  0
    9.8435  -14.6930   22.5231 N   0  0  0  0  0  0  0  0  0  0  0  0
    9.8027  -15.1466   23.8746 C   0  0  1  0  0  0  0  0  0  0  0  0
    8.4781  -15.8355   24.2456 C   0  0  0  0  0  0  0  0  0  0  0  0
    7.3645  -14.4673   24.7425 S   0  0  0  0  0  0  0  0  0  0  0  0
   10.8470  -16.1785   24.0749 C   0  0  0  0  0  0  0  0  0  0  0  0
   11.4842  -16.6057   23.0860 O   0  0  0  0  0  0  0  0  0  0  0  0
   11.1764  -16.7199   25.3195 O   0  0  0  0  0  0  0  0  0  0  0  0
  1  2  1  0
  2  3  2  0
  4  2  1  0
  4  5  1  0
  5  6  1  6
  7  5  1  0
  7  8  2  0
  9  7  1  0
 10  9  1  0
 11 10  1  0
 11 12  1  0
 12 13  1  0
 13  9  1  0
 13 14  1  1
 15 14  2  0
 16 14  1  0
 17 20  1  0
 17 16  1  0
 17 18  1  6
 19 18  1  0
 20 22  1  0
 21 20  2  0
M  END
$$$$
