NPC.pdb
     RDKit          3D

 22 22  0  0  1  0  0  0  0  0999 V2000
    8.6699  -18.5543   19.4452 N   0  0  0  0  0  0  0  0  0  0  0  0
    8.0479  -18.0761   20.6429 C   0  0  0  0  0  0  0  0  0  0  0  0
    6.7841  -18.0949   20.7591 O   0  0  0  0  0  0  0  0  0  0  0  0
    8.9030  -17.5611   21.7451 C   0  0  0  0  0  0  0  0  0  0  0  0
    9.0531  -16.0455   21.6345 C   0  0  2  0  0  0  0  0  0  0  0  0
   10.0822  -15.7988   20.5934 N   0  0  0  0  0  0  0  0  0  0  0  0
    9.5314  -15.4555   22.8999 C   0  0  0  0  0  0  0  0  0  0  0  0
   10.7363  -15.6109   23.1754 O   0  0  0  0  0  0  0  0  0  0  0  0
    8.7006  -14.7429   23.7828 N   0  0  0  0  0  0  0  0  0  0  0  0
    7.5677  -13.9423   23.2541 C   0  0  0  0  0  0  0  0  0  0  0  0
    6.5017  -13.9846   24.3207 C   0  0  0  0  0  0  0  0  0  0  0  0
    7.1070  -14.7974   25.4388 C   0  0  0  0  0  0  0  0  0  0  0  0
    8.6174  -14.5354   25.1786 C   0  0  1  0  0  0  0  0  0  0  0  0
    9.3356  -15.4002   26.0897 C   0  0  0  0  0  0  0  0  0  0  0  0
    9.4881  -16.6153   25.9043 O   0  0  0  0  0  0  0  0  0  0  0  0
    9.9400  -14.9032   27.3107 N   0  0  0  0  0  0  0  0  0  0  0  0
   10.8074  -15.6906   28.1240 C   0  0  1  0  0  0  0  0  0  0  0  0
   11.1212  -15.0427   29.4836 C   0  0  0  0  0  0  0  0  0  0  0  0
   10.8243  -13.2524   29.2263 S   0  0  0  0  0  0  0  0  0  0  0  0
   10.1408  -16.9732   28.4493 C   0  0  0  0  0  0  0  0  0  0  0  0
   10.7818  -17.8607   29.0559 O   0  0  0  0  0  0  0  0  0  0  0  0
    8.8162  -17.2670   28.1176 O   0  0  0  0  0  0  0  0  0  0  0  0
  1  2  1  0
  2  3  2  0
  4  2  1  0
  4  5  1  0
  5  6  1  6
  7  5  1  0
  7  8  2  0
  9  7  1  0
 10  9  1  0
 11 10  1  0
 11 12  1  0
 12 13  1  0
 13  9  1  0
 13 14  1  1
 15 14  2  0
 16 14  1  0
 17 20  1  0
 17 16  1  0
 17 18  1  1
 19 18  1  0
 20 22  1  0
 21 20  2  0
M  END
$$$$
