NPC.pdb
     RDKit          3D

 22 22  0  0  1  0  0  0  0  0999 V2000
   11.6403  -19.4044   18.6823 N   0  0  0  0  0  0  0  0  0  0  0  0
   12.4716  -18.2576   18.8917 C   0  0  0  0  0  0  0  0  0  0  0  0
   13.6734  -18.2551   18.4832 O   0  0  0  0  0  0  0  0  0  0  0  0
   11.9061  -17.0733   19.5911 C   0  0  0  0  0  0  0  0  0  0  0  0
   10.4904  -17.3726   20.0788 C   0  0  2  0  0  0  0  0  0  0  0  0
    9.5717  -16.9428   18.9948 N   0  0  0  0  0  0  0  0  0  0  0  0
   10.1612  -16.5989   21.2916 C   0  0  0  0  0  0  0  0  0  0  0  0
   10.9482  -16.6933   22.2526 O   0  0  0  0  0  0  0  0  0  0  0  0
    9.0229  -15.7802   21.4004 N   0  0  0  0  0  0  0  0  0  0  0  0
    8.3017  -15.3442   20.1783 C   0  0  0  0  0  0  0  0  0  0  0  0
    6.8532  -15.2162   20.5799 C   0  0  0  0  0  0  0  0  0  0  0  0
    6.8281  -15.5623   22.0485 C   0  0  0  0  0  0  0  0  0  0  0  0
    8.2823  -15.1783   22.4432 C   0  0  1  0  0  0  0  0  0  0  0  0
    8.4547  -15.6194   23.8104 C   0  0  0  0  0  0  0  0  0  0  0  0
    8.8014  -16.7670   24.1217 O   0  0  0  0  0  0  0  0  0  0  0  0
    8.2293  -14.7380   24.9399 N   0  0  0  0  0  0  0  0  0  0  0  0
    8.3418  -15.1681   26.2950 C   0  0  1  0  0  0  0  0  0  0  0  0
    8.0631  -14.0494   27.3136 C   0  0  0  0  0  0  0  0  0  0  0  0
    8.9027  -12.5727   26.6254 S   0  0  0  0  0  0  0  0  0  0  0  0
    7.3173  -16.2039   26.5651 C   0  0  0  0  0  0  0  0  0  0  0  0
    6.3459  -16.3233   25.7850 O   0  0  0  0  0  0  0  0  0  0  0  0
    7.3618  -17.0758   27.6553 O   0  0  0  0  0  0  0  0  0  0  0  0
  1  2  1  0
  2  3  2  0
  4  2  1  0
  4  5  1  0
  5  6  1  6
  7  5  1  0
  7  8  2  0
  9  7  1  0
 10  9  1  0
 11 10  1  0
 11 12  1  0
 12 13  1  0
 13  9  1  0
 13 14  1  1
 15 14  2  0
 16 14  1  0
 17 20  1  0
 17 16  1  0
 17 18  1  1
 19 18  1  0
 20 22  1  0
 21 20  2  0
M  END
$$$$
