NPC.pdb
     RDKit          3D

 22 22  0  0  1  0  0  0  0  0999 V2000
    6.9634  -17.9484   15.8963 N   0  0  0  0  0  0  0  0  0  0  0  0
    8.2821  -18.2448   16.3690 C   0  0  0  0  0  0  0  0  0  0  0  0
    9.0772  -18.9330   15.6581 O   0  0  0  0  0  0  0  0  0  0  0  0
    8.7043  -17.7336   17.7001 C   0  0  0  0  0  0  0  0  0  0  0  0
    9.4196  -16.3929   17.5497 C   0  0  2  0  0  0  0  0  0  0  0  0
   10.7176  -16.6797   16.8887 N   0  0  0  0  0  0  0  0  0  0  0  0
    9.7001  -15.7792   18.8622 C   0  0  0  0  0  0  0  0  0  0  0  0
   10.6315  -16.2703   19.5277 O   0  0  0  0  0  0  0  0  0  0  0  0
    8.9751  -14.6892   19.3762 N   0  0  0  0  0  0  0  0  0  0  0  0
    8.5451  -13.5912   18.4743 C   0  0  0  0  0  0  0  0  0  0  0  0
    7.2481  -13.0744   19.0457 C   0  0  0  0  0  0  0  0  0  0  0  0
    7.0175  -13.9004   20.2872 C   0  0  0  0  0  0  0  0  0  0  0  0
    8.4840  -14.2807   20.6372 C   0  0  1  0  0  0  0  0  0  0  0  0
    8.4017  -15.2256   21.7299 C   0  0  0  0  0  0  0  0  0  0  0  0
    8.0159  -16.3951   21.5970 O   0  0  0  0  0  0  0  0  0  0  0  0
    8.7685  -14.8698   23.0871 N   0  0  0  0  0  0  0  0  0  0  0  0
    8.7064  -15.7900   24.1749 C   0  0  1  0  0  0  0  0  0  0  0  0
    9.3344  -15.2452   25.4694 C   0  0  0  0  0  0  0  0  0  0  0  0
    9.1571  -16.6075   26.6826 S   0  0  0  0  0  0  0  0  0  0  0  0
    7.2877  -16.0527   24.5117 C   0  0  0  0  0  0  0  0  0  0  0  0
    6.4611  -15.1144   24.4580 O   0  0  0  0  0  0  0  0  0  0  0  0
    6.7981  -17.3037   24.8940 O   0  0  0  0  0  0  0  0  0  0  0  0
  1  2  1  0
  2  3  2  0
  4  2  1  0
  4  5  1  0
  5  6  1  1
  7  5  1  0
  7  8  2  0
  9  7  1  0
 10  9  1  0
 11 10  1  0
 11 12  1  0
 12 13  1  0
 13  9  1  0
 13 14  1  1
 15 14  2  0
 16 14  1  0
 17 20  1  0
 17 16  1  0
 17 18  1  1
 19 18  1  0
 20 22  1  0
 21 20  2  0
M  END
$$$$
