NPC.pdb
     RDKit          3D

 22 22  0  0  1  0  0  0  0  0999 V2000
    8.7733  -18.4834   14.8927 N   0  0  0  0  0  0  0  0  0  0  0  0
    8.1319  -17.5132   15.7279 C   0  0  0  0  0  0  0  0  0  0  0  0
    7.0222  -17.0039   15.3813 O   0  0  0  0  0  0  0  0  0  0  0  0
    8.7832  -17.1149   17.0041 C   0  0  0  0  0  0  0  0  0  0  0  0
    9.3613  -15.7065   16.8863 C   0  0  2  0  0  0  0  0  0  0  0  0
   10.4952  -15.7950   15.9322 N   0  0  0  0  0  0  0  0  0  0  0  0
    9.8874  -15.2278   18.1793 C   0  0  0  0  0  0  0  0  0  0  0  0
   10.9940  -15.6729   18.5384 O   0  0  0  0  0  0  0  0  0  0  0  0
    9.2049  -14.3117   18.9996 N   0  0  0  0  0  0  0  0  0  0  0  0
    8.4950  -13.1573   18.3936 C   0  0  0  0  0  0  0  0  0  0  0  0
    7.3178  -12.8797   19.2953 C   0  0  0  0  0  0  0  0  0  0  0  0
    7.4381  -13.8909   20.4089 C   0  0  0  0  0  0  0  0  0  0  0  0
    8.9724  -14.1419   20.3835 C   0  0  1  0  0  0  0  0  0  0  0  0
    9.2140  -15.2320   21.3039 C   0  0  0  0  0  0  0  0  0  0  0  0
    8.7273  -16.3630   21.1694 O   0  0  0  0  0  0  0  0  0  0  0  0
   10.0566  -15.0813   22.4745 N   0  0  0  0  0  0  0  0  0  0  0  0
   10.3558  -16.1586   23.3599 C   0  0  1  0  0  0  0  0  0  0  0  0
   11.7851  -16.1021   23.9260 C   0  0  0  0  0  0  0  0  0  0  0  0
   11.9421  -17.6158   24.9474 S   0  0  0  0  0  0  0  0  0  0  0  0
    9.4661  -16.0804   24.5421 C   0  0  0  0  0  0  0  0  0  0  0  0
    9.4974  -16.9962   25.3945 O   0  0  0  0  0  0  0  0  0  0  0  0
    8.5742  -15.0312   24.7758 O   0  0  0  0  0  0  0  0  0  0  0  0
  1  2  1  0
  2  3  2  0
  4  2  1  0
  4  5  1  0
  5  6  1  6
  7  5  1  0
  7  8  2  0
  9  7  1  0
 10  9  1  0
 11 10  1  0
 11 12  1  0
 12 13  1  0
 13  9  1  0
 13 14  1  1
 15 14  2  0
 16 14  1  0
 17 20  1  0
 17 16  1  0
 17 18  1  1
 19 18  1  0
 20 22  1  0
 21 20  2  0
M  END
$$$$
