EVT.pdb
     RDKit          3D

 24 23  0  0  1  0  0  0  0  0999 V2000
   17.9772  -12.4738  -16.6888 N   0  0  0  0  0  0  0  0  0  0  0  0
   18.4517  -11.2005  -17.0448 C   0  0  1  0  0  0  0  0  0  0  0  0
   17.5330  -10.2319  -17.6660 C   0  0  0  0  0  0  0  0  0  0  0  0
   16.7057  -10.6472  -18.8171 C   0  0  0  0  0  0  0  0  0  0  0  0
   15.3435  -11.0703  -18.4942 C   0  0  0  0  0  0  0  0  0  0  0  0
   14.4450  -10.2368  -18.2582 O   0  0  0  0  0  0  0  0  0  0  0  0
   19.2391  -10.5784  -15.9009 C   0  0  0  0  0  0  0  0  0  0  0  0
   18.7322  -10.5805  -14.7567 O   0  0  0  0  0  0  0  0  0  0  0  0
   15.0346  -12.4179  -18.4475 O   0  0  0  0  0  0  0  0  0  0  0  0
   23.4307  -10.3890  -16.2608 C   0  0  0  0  0  0  0  0  0  0  0  0
   22.7129  -10.1229  -14.9641 C   0  0  1  0  0  0  0  0  0  0  0  0
   23.6061   -9.4503  -13.9702 C   0  0  0  0  0  0  0  0  0  0  0  0
   21.4040   -9.4570  -15.2159 C   0  0  2  0  0  0  0  0  0  0  0  0
   20.4886  -10.0232  -16.1384 N   0  0  0  0  0  0  0  0  0  0  0  0
   21.6093   -8.0091  -15.4621 C   0  0  0  0  0  0  0  0  0  0  0  0
   22.2693   -7.6690  -16.4645 O   0  0  0  0  0  0  0  0  0  0  0  0
   19.5149   -5.1612  -16.3939 C   0  0  0  0  0  0  0  0  0  0  0  0
   20.1196   -4.8292  -15.0310 C   0  0  1  0  0  0  0  0  0  0  0  0
   19.2101   -5.2946  -14.0813 O   0  0  0  0  0  0  0  0  0  0  0  0
   21.3926   -5.5959  -14.8344 C   0  0  2  0  0  0  0  0  0  0  0  0
   21.0927   -7.0080  -14.6128 N   0  0  0  0  0  0  0  0  0  0  0  0
   22.0027   -5.0611  -13.5651 C   0  0  0  0  0  0  0  0  0  0  0  0
   22.0034   -5.7988  -12.3986 O   0  0  0  0  0  0  0  0  0  0  0  0
   22.5139   -3.9193  -13.5941 O   0  0  0  0  0  0  0  0  0  0  0  0
  2  1  1  1
  2  3  1  0
  3  4  1  0
  4  5  1  0
  5  9  1  0
  5  6  2  0
  7 14  1  0
  7  2  1  0
  8  7  2  0
 11 10  1  6
 11 13  1  0
 12 11  1  0
 13 15  1  0
 13 14  1  6
 15 21  1  0
 16 15  2  0
 18 17  1  6
 18 19  1  0
 20 18  1  0
 20 21  1  1
 22 23  1  0
 22 20  1  0
 24 22  2  0
M  END
$$$$
