EVT.pdb
     RDKit          3D

 24 23  0  0  1  0  0  0  0  0999 V2000
   16.3571  -13.5548  -18.6093 N   0  0  0  0  0  0  0  0  0  0  0  0
   16.9669  -13.0194  -17.4628 C   0  0  1  0  0  0  0  0  0  0  0  0
   17.8952  -13.8518  -16.6795 C   0  0  0  0  0  0  0  0  0  0  0  0
   17.4212  -15.1261  -16.1023 C   0  0  0  0  0  0  0  0  0  0  0  0
   16.4592  -15.0030  -15.0077 C   0  0  0  0  0  0  0  0  0  0  0  0
   16.3591  -13.9478  -14.3488 O   0  0  0  0  0  0  0  0  0  0  0  0
   17.5496  -11.6441  -17.7535 C   0  0  0  0  0  0  0  0  0  0  0  0
   18.1861  -11.4783  -18.8181 O   0  0  0  0  0  0  0  0  0  0  0  0
   15.6395  -16.0708  -14.6890 O   0  0  0  0  0  0  0  0  0  0  0  0
   15.9271   -8.6389  -18.5215 C   0  0  0  0  0  0  0  0  0  0  0  0
   16.7067   -8.2239  -17.3019 C   0  0  1  0  0  0  0  0  0  0  0  0
   15.8004   -7.8211  -16.1819 C   0  0  0  0  0  0  0  0  0  0  0  0
   17.7393   -9.2444  -16.9668 C   0  0  2  0  0  0  0  0  0  0  0  0
   17.3725  -10.6084  -16.8469 N   0  0  0  0  0  0  0  0  0  0  0  0
   18.5484   -8.7881  -15.8107 C   0  0  0  0  0  0  0  0  0  0  0  0
   18.1176   -9.0161  -14.6625 O   0  0  0  0  0  0  0  0  0  0  0  0
   21.8578   -9.9383  -14.8398 C   0  0  0  0  0  0  0  0  0  0  0  0
   21.9649   -8.4196  -14.9645 C   0  0  1  0  0  0  0  0  0  0  0  0
   22.3772   -8.1678  -16.2731 O   0  0  0  0  0  0  0  0  0  0  0  0
   20.6121   -7.7951  -14.8010 C   0  0  2  0  0  0  0  0  0  0  0  0
   19.7768   -8.1098  -15.9570 N   0  0  0  0  0  0  0  0  0  0  0  0
   20.8435   -6.3065  -14.8052 C   0  0  0  0  0  0  0  0  0  0  0  0
   21.4339   -5.6653  -13.7350 O   0  0  0  0  0  0  0  0  0  0  0  0
   20.4831   -5.6584  -15.8131 O   0  0  0  0  0  0  0  0  0  0  0  0
  2  1  1  6
  2  3  1  0
  3  4  1  0
  4  5  1  0
  5  9  1  0
  5  6  2  0
  7 14  1  0
  7  2  1  0
  8  7  2  0
 11 10  1  6
 11 13  1  0
 12 11  1  0
 13 15  1  0
 13 14  1  1
 15 21  1  0
 16 15  2  0
 18 17  1  6
 18 19  1  0
 20 18  1  0
 20 21  1  6
 22 23  1  0
 22 20  1  0
 24 22  2  0
M  END
$$$$
