EVT.pdb
     RDKit          3D

 24 23  0  0  1  0  0  0  0  0999 V2000
   14.6590  -10.7897  -17.1185 N   0  0  0  0  0  0  0  0  0  0  0  0
   15.8965  -10.6389  -16.4713 C   0  0  1  0  0  0  0  0  0  0  0  0
   16.8414  -11.7678  -16.4413 C   0  0  0  0  0  0  0  0  0  0  0  0
   16.4010  -13.0725  -15.9070 C   0  0  0  0  0  0  0  0  0  0  0  0
   17.4521  -14.0776  -15.7529 C   0  0  0  0  0  0  0  0  0  0  0  0
   17.4899  -15.0921  -16.4790 O   0  0  0  0  0  0  0  0  0  0  0  0
   16.5751   -9.3457  -16.8985 C   0  0  0  0  0  0  0  0  0  0  0  0
   16.7828   -9.1550  -18.1177 O   0  0  0  0  0  0  0  0  0  0  0  0
   18.4280  -13.9099  -14.7869 O   0  0  0  0  0  0  0  0  0  0  0  0
   15.7246   -5.8201  -15.3292 C   0  0  0  0  0  0  0  0  0  0  0  0
   16.8383   -5.9263  -16.3371 C   0  0  1  0  0  0  0  0  0  0  0  0
   17.6333   -4.6613  -16.4120 C   0  0  0  0  0  0  0  0  0  0  0  0
   17.6230   -7.1746  -16.1225 C   0  0  2  0  0  0  0  0  0  0  0  0
   16.9512   -8.4102  -15.9449 N   0  0  0  0  0  0  0  0  0  0  0  0
   18.6545   -6.9538  -15.0802 C   0  0  0  0  0  0  0  0  0  0  0  0
   18.2838   -6.8686  -13.8921 O   0  0  0  0  0  0  0  0  0  0  0  0
   21.6689   -9.1536  -14.4869 C   0  0  0  0  0  0  0  0  0  0  0  0
   22.1544   -7.7107  -14.6125 C   0  0  1  0  0  0  0  0  0  0  0  0
   22.4969   -7.5339  -15.9531 O   0  0  0  0  0  0  0  0  0  0  0  0
   21.0305   -6.7641  -14.3165 C   0  0  2  0  0  0  0  0  0  0  0  0
   20.0286   -6.8355  -15.3769 N   0  0  0  0  0  0  0  0  0  0  0  0
   21.6333   -5.3842  -14.3595 C   0  0  0  0  0  0  0  0  0  0  0  0
   22.5133   -4.9509  -13.3885 O   0  0  0  0  0  0  0  0  0  0  0  0
   21.3131   -4.6320  -15.3068 O   0  0  0  0  0  0  0  0  0  0  0  0
  2  1  1  6
  2  3  1  0
  3  4  1  0
  4  5  1  0
  5  9  1  0
  5  6  2  0
  7 14  1  0
  7  2  1  0
  8  7  2  0
 11 10  1  1
 11 13  1  0
 12 11  1  0
 13 15  1  0
 13 14  1  1
 15 21  1  0
 16 15  2  0
 18 17  1  6
 18 19  1  0
 20 18  1  0
 20 21  1  6
 22 23  1  0
 22 20  1  0
 24 22  2  0
M  END
$$$$
