EVT.pdb
     RDKit          3D

 24 23  0  0  1  0  0  0  0  0999 V2000
   27.8155  -22.2648  -15.5494 N   0  0  0  0  0  0  0  0  0  0  0  0
   26.7120  -21.3982  -15.6151 C   0  0  1  0  0  0  0  0  0  0  0  0
   26.1958  -20.9798  -16.9290 C   0  0  0  0  0  0  0  0  0  0  0  0
   25.5427  -19.6624  -17.0695 C   0  0  0  0  0  0  0  0  0  0  0  0
   26.4449  -18.5310  -17.2804 C   0  0  0  0  0  0  0  0  0  0  0  0
   26.9318  -17.9024  -16.3183 O   0  0  0  0  0  0  0  0  0  0  0  0
   25.5967  -21.8736  -14.6955 C   0  0  0  0  0  0  0  0  0  0  0  0
   24.8999  -22.8483  -15.0566 O   0  0  0  0  0  0  0  0  0  0  0  0
   26.7717  -18.1422  -18.5672 O   0  0  0  0  0  0  0  0  0  0  0  0
   26.1141  -21.6384  -10.7746 C   0  0  0  0  0  0  0  0  0  0  0  0
   24.6802  -21.2840  -11.0676 C   0  0  1  0  0  0  0  0  0  0  0  0
   24.3199  -19.9450  -10.5062 C   0  0  0  0  0  0  0  0  0  0  0  0
   24.3741  -21.4864  -12.5117 C   0  0  2  0  0  0  0  0  0  0  0  0
   25.3688  -21.2283  -13.4882 N   0  0  0  0  0  0  0  0  0  0  0  0
   23.0852  -20.8377  -12.8539 C   0  0  0  0  0  0  0  0  0  0  0  0
   23.0815  -19.6085  -13.0663 O   0  0  0  0  0  0  0  0  0  0  0  0
   21.1172  -20.8463  -15.7158 C   0  0  0  0  0  0  0  0  0  0  0  0
   20.1498  -21.3289  -14.6367 C   0  0  1  0  0  0  0  0  0  0  0  0
   20.2200  -22.7220  -14.6503 O   0  0  0  0  0  0  0  0  0  0  0  0
   20.6204  -20.8773  -13.2871 C   0  0  2  0  0  0  0  0  0  0  0  0
   21.8711  -21.5503  -12.9464 N   0  0  0  0  0  0  0  0  0  0  0  0
   19.5757  -21.3477  -12.3089 C   0  0  0  0  0  0  0  0  0  0  0  0
   18.3031  -20.8133  -12.3002 O   0  0  0  0  0  0  0  0  0  0  0  0
   19.8930  -22.2441  -11.4956 O   0  0  0  0  0  0  0  0  0  0  0  0
  2  1  1  6
  2  3  1  0
  3  4  1  0
  4  5  1  0
  5  9  1  0
  5  6  2  0
  7 14  1  0
  7  2  1  0
  8  7  2  0
 11 10  1  6
 11 13  1  0
 12 11  1  0
 13 15  1  0
 13 14  1  6
 15 21  1  0
 16 15  2  0
 18 17  1  6
 18 19  1  0
 20 18  1  0
 20 21  1  1
 22 23  1  0
 22 20  1  0
 24 22  2  0
M  END
$$$$
