EVT.pdb
     RDKit          3D

 24 23  0  0  1  0  0  0  0  0999 V2000
   18.8962  -12.5142  -16.1217 N   0  0  0  0  0  0  0  0  0  0  0  0
   18.7973  -11.1135  -16.1621 C   0  0  1  0  0  0  0  0  0  0  0  0
   17.4736  -10.4769  -16.0597 C   0  0  0  0  0  0  0  0  0  0  0  0
   16.3875  -10.9043  -16.9650 C   0  0  0  0  0  0  0  0  0  0  0  0
   15.5732  -12.0218  -16.4887 C   0  0  0  0  0  0  0  0  0  0  0  0
   15.3988  -12.2229  -15.2693 O   0  0  0  0  0  0  0  0  0  0  0  0
   19.8061  -10.4737  -15.2195 C   0  0  0  0  0  0  0  0  0  0  0  0
   19.7094  -10.7071  -13.9938 O   0  0  0  0  0  0  0  0  0  0  0  0
   14.9800  -12.8779  -17.3992 O   0  0  0  0  0  0  0  0  0  0  0  0
   23.3538  -10.8233  -14.4688 C   0  0  0  0  0  0  0  0  0  0  0  0
   23.2363   -9.4639  -15.1057 C   0  0  1  0  0  0  0  0  0  0  0  0
   23.8637   -9.4376  -16.4635 C   0  0  0  0  0  0  0  0  0  0  0  0
   21.8333   -8.9679  -15.0289 C   0  0  2  0  0  0  0  0  0  0  0  0
   20.8032   -9.6504  -15.7235 N   0  0  0  0  0  0  0  0  0  0  0  0
   21.7958   -7.5076  -15.2844 C   0  0  0  0  0  0  0  0  0  0  0  0
   22.0707   -7.1022  -16.4316 O   0  0  0  0  0  0  0  0  0  0  0  0
   19.2017   -5.1193  -15.5542 C   0  0  0  0  0  0  0  0  0  0  0  0
   20.0892   -4.5767  -14.4356 C   0  0  1  0  0  0  0  0  0  0  0  0
   19.5589   -5.0756  -13.2457 O   0  0  0  0  0  0  0  0  0  0  0  0
   21.4756   -5.1313  -14.5665 C   0  0  2  0  0  0  0  0  0  0  0  0
   21.4654   -6.5650  -14.2880 N   0  0  0  0  0  0  0  0  0  0  0  0
   22.2872   -4.4686  -13.4841 C   0  0  0  0  0  0  0  0  0  0  0  0
   22.6507   -5.1463  -12.3379 O   0  0  0  0  0  0  0  0  0  0  0  0
   22.6271   -3.2760  -13.6508 O   0  0  0  0  0  0  0  0  0  0  0  0
  2  1  1  1
  2  3  1  0
  3  4  1  0
  4  5  1  0
  5  9  1  0
  5  6  2  0
  7 14  1  0
  7  2  1  0
  8  7  2  0
 11 10  1  6
 11 13  1  0
 12 11  1  0
 13 15  1  0
 13 14  1  6
 15 21  1  0
 16 15  2  0
 18 17  1  6
 18 19  1  0
 20 18  1  0
 20 21  1  1
 22 23  1  0
 22 20  1  0
 24 22  2  0
M  END
$$$$
