EVT.pdb
     RDKit          3D

 24 23  0  0  1  0  0  0  0  0999 V2000
   20.0802  -13.1092  -18.1535 N   0  0  0  0  0  0  0  0  0  0  0  0
   20.9069  -11.9766  -18.2372 C   0  0  1  0  0  0  0  0  0  0  0  0
   21.0609  -11.2852  -19.5281 C   0  0  0  0  0  0  0  0  0  0  0  0
   20.1420  -11.6041  -20.6396 C   0  0  0  0  0  0  0  0  0  0  0  0
   20.2639  -10.7524  -21.8223 C   0  0  0  0  0  0  0  0  0  0  0  0
   19.2585  -10.2521  -22.3667 O   0  0  0  0  0  0  0  0  0  0  0  0
   20.6045  -11.0029  -17.1076 C   0  0  0  0  0  0  0  0  0  0  0  0
   19.4593  -11.0107  -16.6032 O   0  0  0  0  0  0  0  0  0  0  0  0
   21.5133  -10.4899  -22.3551 O   0  0  0  0  0  0  0  0  0  0  0  0
   21.8763  -10.5360  -13.5706 C   0  0  0  0  0  0  0  0  0  0  0  0
   22.3768   -9.3775  -14.3920 C   0  0  1  0  0  0  0  0  0  0  0  0
   23.8499   -9.4726  -14.6349 C   0  0  0  0  0  0  0  0  0  0  0  0
   21.5298   -9.1880  -15.6031 C   0  0  2  0  0  0  0  0  0  0  0  0
   21.5869  -10.1307  -16.6603 N   0  0  0  0  0  0  0  0  0  0  0  0
   21.6562   -7.7962  -16.0990 C   0  0  0  0  0  0  0  0  0  0  0  0
   22.7756   -7.4084  -16.4896 O   0  0  0  0  0  0  0  0  0  0  0  0
   19.9530   -6.2532  -18.9988 C   0  0  0  0  0  0  0  0  0  0  0  0
   19.6549   -5.3710  -17.7881 C   0  0  1  0  0  0  0  0  0  0  0  0
   18.4512   -5.8361  -17.2584 O   0  0  0  0  0  0  0  0  0  0  0  0
   20.7049   -5.5707  -16.7371 C   0  0  2  0  0  0  0  0  0  0  0  0
   20.5685   -6.8988  -16.1449 N   0  0  0  0  0  0  0  0  0  0  0  0
   20.4031   -4.5639  -15.6580 C   0  0  0  0  0  0  0  0  0  0  0  0
   19.9102   -4.9507  -14.4281 O   0  0  0  0  0  0  0  0  0  0  0  0
   20.6118   -3.3554  -15.9064 O   0  0  0  0  0  0  0  0  0  0  0  0
  2  1  1  6
  2  3  1  0
  3  4  1  0
  4  5  1  0
  5  9  1  0
  5  6  2  0
  7 14  1  0
  7  2  1  0
  8  7  2  0
 11 10  1  6
 11 13  1  0
 12 11  1  0
 13 15  1  0
 13 14  1  6
 15 21  1  0
 16 15  2  0
 18 17  1  6
 18 19  1  0
 20 18  1  0
 20 21  1  1
 22 23  1  0
 22 20  1  0
 24 22  2  0
M  END
$$$$
