VEA.pdb
     RDKit          3D

 22 21  0  0  1  0  0  0  0  0999 V2000
   19.1651  -13.4048  -15.9566 C   0  0  0  0  0  0  0  0  0  0  0  0
   18.6049  -12.0018  -15.8778 C   0  0  2  0  0  0  0  0  0  0  0  0
   17.1577  -12.0417  -16.3164 C   0  0  0  0  0  0  0  0  0  0  0  0
   19.3440  -11.0469  -16.7863 C   0  0  2  0  0  0  0  0  0  0  0  0
   20.7486  -11.3069  -16.8427 N   0  0  0  0  0  0  0  0  0  0  0  0
   19.0922   -9.6395  -16.4674 C   0  0  0  0  0  0  0  0  0  0  0  0
   17.9373   -9.1373  -16.3625 O   0  0  0  0  0  0  0  0  0  0  0  0
   20.1842   -8.7545  -16.2562 N   0  0  0  0  0  0  0  0  0  0  0  0
   19.9808   -7.3464  -15.8855 C   0  0  1  0  0  0  0  0  0  0  0  0
   21.0083   -7.0339  -14.8516 C   0  0  0  0  0  0  0  0  0  0  0  0
   20.9922   -5.6494  -14.3082 C   0  0  0  0  0  0  0  0  0  0  0  0
   22.0050   -5.3576  -13.2901 C   0  0  0  0  0  0  0  0  0  0  0  0
   22.4698   -4.2009  -13.1380 O   0  0  0  0  0  0  0  0  0  0  0  0
   20.0645   -6.4799  -17.0897 C   0  0  0  0  0  0  0  0  0  0  0  0
   20.9061   -6.6650  -18.0022 O   0  0  0  0  0  0  0  0  0  0  0  0
   22.5167   -6.3346  -12.4292 O   0  0  0  0  0  0  0  0  0  0  0  0
   18.0410   -3.6274  -18.4992 C   0  0  0  0  0  0  0  0  0  0  0  0
   19.2486   -4.5206  -18.3952 C   0  0  2  0  0  0  0  0  0  0  0  0
   19.1616   -5.3999  -17.2199 N   0  0  0  0  0  0  0  0  0  0  0  0
   20.4919   -3.7053  -18.3006 C   0  0  0  0  0  0  0  0  0  0  0  0
   20.8640   -3.3498  -17.1574 O   0  0  0  0  0  0  0  0  0  0  0  0
   21.2305   -3.3393  -19.4282 O   0  0  0  0  0  0  0  0  0  0  0  0
  2  1  1  6
  2  3  1  0
  2  4  1  0
  4  6  1  0
  4  5  1  1
  6  8  1  0
  6  7  2  0
  8  9  1  0
  9 14  1  0
 10 11  1  0
  9 10  1  1
 12 16  1  0
 12 11  1  0
 13 12  2  0
 14 19  1  0
 14 15  2  0
 18 17  1  1
 18 20  1  0
 19 18  1  0
 20 22  1  0
 21 20  2  0
M  END
$$$$
