VEA.pdb
     RDKit          3D

 22 21  0  0  1  0  0  0  0  0999 V2000
   18.2980  -11.7874  -17.8721 C   0  0  0  0  0  0  0  0  0  0  0  0
   18.7784  -12.1762  -16.4913 C   0  0  2  0  0  0  0  0  0  0  0  0
   17.9077  -13.3047  -15.9845 C   0  0  0  0  0  0  0  0  0  0  0  0
   18.6748  -11.0286  -15.5136 C   0  0  2  0  0  0  0  0  0  0  0  0
   17.3231  -10.6662  -15.2220 N   0  0  0  0  0  0  0  0  0  0  0  0
   19.4472   -9.8534  -15.9235 C   0  0  0  0  0  0  0  0  0  0  0  0
   20.6772   -9.8848  -16.2116 O   0  0  0  0  0  0  0  0  0  0  0  0
   18.8124   -8.5849  -16.0148 N   0  0  0  0  0  0  0  0  0  0  0  0
   19.5491   -7.3756  -16.4100 C   0  0  1  0  0  0  0  0  0  0  0  0
   18.7801   -6.7659  -17.5322 C   0  0  0  0  0  0  0  0  0  0  0  0
   18.9838   -7.3745  -18.8740 C   0  0  0  0  0  0  0  0  0  0  0  0
   18.2394   -6.7508  -19.9713 C   0  0  0  0  0  0  0  0  0  0  0  0
   17.1082   -7.1702  -20.3202 O   0  0  0  0  0  0  0  0  0  0  0  0
   19.7181   -6.4714  -15.2431 C   0  0  0  0  0  0  0  0  0  0  0  0
   18.7789   -6.1925  -14.4587 O   0  0  0  0  0  0  0  0  0  0  0  0
   18.7312   -5.6596  -20.6959 O   0  0  0  0  0  0  0  0  0  0  0  0
   22.5815   -5.1260  -13.2980 C   0  0  0  0  0  0  0  0  0  0  0  0
   21.1764   -5.0275  -13.8298 C   0  0  2  0  0  0  0  0  0  0  0  0
   20.9871   -5.8976  -14.9998 N   0  0  0  0  0  0  0  0  0  0  0  0
   20.8629   -3.6226  -14.2137 C   0  0  0  0  0  0  0  0  0  0  0  0
   20.8937   -2.7558  -13.3086 O   0  0  0  0  0  0  0  0  0  0  0  0
   20.5444   -3.2620  -15.5250 O   0  0  0  0  0  0  0  0  0  0  0  0
  2  1  1  6
  2  3  1  0
  2  4  1  0
  4  6  1  0
  4  5  1  6
  6  8  1  0
  6  7  2  0
  8  9  1  0
  9 14  1  0
 10 11  1  0
  9 10  1  6
 12 16  1  0
 12 11  1  0
 13 12  2  0
 14 19  1  0
 14 15  2  0
 18 17  1  6
 18 20  1  0
 19 18  1  0
 20 22  1  0
 21 20  2  0
M  END
$$$$
