VEA.pdb
     RDKit          3D

 22 21  0  0  1  0  0  0  0  0999 V2000
   17.1184  -12.2250  -18.0609 C   0  0  0  0  0  0  0  0  0  0  0  0
   16.9567  -11.2082  -16.9526 C   0  0  2  0  0  0  0  0  0  0  0  0
   16.6070   -9.8753  -17.5766 C   0  0  0  0  0  0  0  0  0  0  0  0
   18.2293  -11.0337  -16.1565 C   0  0  2  0  0  0  0  0  0  0  0  0
   18.6228  -12.2233  -15.4683 N   0  0  0  0  0  0  0  0  0  0  0  0
   18.1784   -9.8970  -15.2340 C   0  0  0  0  0  0  0  0  0  0  0  0
   17.5781   -9.9190  -14.1221 O   0  0  0  0  0  0  0  0  0  0  0  0
   18.8298   -8.6800  -15.5727 N   0  0  0  0  0  0  0  0  0  0  0  0
   18.7678   -7.4982  -14.7003 C   0  0  1  0  0  0  0  0  0  0  0  0
   20.1753   -7.0456  -14.5090 C   0  0  0  0  0  0  0  0  0  0  0  0
   20.3579   -5.7570  -13.7889 C   0  0  0  0  0  0  0  0  0  0  0  0
   21.7392   -5.2778  -13.6902 C   0  0  0  0  0  0  0  0  0  0  0  0
   22.7023   -6.0719  -13.5534 O   0  0  0  0  0  0  0  0  0  0  0  0
   17.8851   -6.4630  -15.2980 C   0  0  0  0  0  0  0  0  0  0  0  0
   17.9657   -6.1143  -16.5009 O   0  0  0  0  0  0  0  0  0  0  0  0
   22.0751   -3.9205  -13.7408 O   0  0  0  0  0  0  0  0  0  0  0  0
   14.7409   -4.6935  -14.3981 C   0  0  0  0  0  0  0  0  0  0  0  0
   16.1063   -4.7386  -15.0310 C   0  0  2  0  0  0  0  0  0  0  0  0
   16.9114   -5.8405  -14.4837 N   0  0  0  0  0  0  0  0  0  0  0  0
   16.8260   -3.4536  -14.8070 C   0  0  0  0  0  0  0  0  0  0  0  0
   17.8007   -3.4671  -14.0187 O   0  0  0  0  0  0  0  0  0  0  0  0
   16.4474   -2.2674  -15.4400 O   0  0  0  0  0  0  0  0  0  0  0  0
  2  1  1  6
  2  3  1  0
  2  4  1  0
  4  6  1  0
  4  5  1  1
  6  8  1  0
  6  7  2  0
  8  9  1  0
  9 14  1  0
 10 11  1  0
  9 10  1  6
 12 16  1  0
 12 11  1  0
 13 12  2  0
 14 19  1  0
 14 15  2  0
 18 17  1  1
 18 20  1  0
 19 18  1  0
 20 22  1  0
 21 20  2  0
M  END
$$$$
