VEA.pdb
     RDKit          3D

 22 21  0  0  1  0  0  0  0  0999 V2000
   26.3950  -34.8806  -12.3588 C   0  0  0  0  0  0  0  0  0  0  0  0
   25.0575  -34.8638  -13.0653 C   0  0  2  0  0  0  0  0  0  0  0  0
   25.2271  -34.1514  -14.3889 C   0  0  0  0  0  0  0  0  0  0  0  0
   24.0068  -34.1268  -12.2674 C   0  0  2  0  0  0  0  0  0  0  0  0
   24.1866  -32.7087  -12.2864 N   0  0  0  0  0  0  0  0  0  0  0  0
   23.8849  -34.6130  -10.8910 C   0  0  0  0  0  0  0  0  0  0  0  0
   23.5331  -35.7884  -10.5883 O   0  0  0  0  0  0  0  0  0  0  0  0
   24.1702  -33.7426   -9.8042 N   0  0  0  0  0  0  0  0  0  0  0  0
   23.9857  -34.1605   -8.4068 C   0  0  1  0  0  0  0  0  0  0  0  0
   25.1646  -33.6415   -7.6563 C   0  0  0  0  0  0  0  0  0  0  0  0
   25.1189  -33.7921   -6.1772 C   0  0  0  0  0  0  0  0  0  0  0  0
   26.3059  -33.3241   -5.4567 C   0  0  0  0  0  0  0  0  0  0  0  0
   26.2771  -33.0926   -4.2227 O   0  0  0  0  0  0  0  0  0  0  0  0
   22.6842  -33.6647   -7.8888 C   0  0  0  0  0  0  0  0  0  0  0  0
   22.2501  -32.5130   -8.1345 O   0  0  0  0  0  0  0  0  0  0  0  0
   27.5365  -33.1060   -6.0857 O   0  0  0  0  0  0  0  0  0  0  0  0
   19.5086  -35.0070   -6.7775 C   0  0  0  0  0  0  0  0  0  0  0  0
   20.6261  -34.0283   -6.5321 C   0  0  2  0  0  0  0  0  0  0  0  0
   21.8966  -34.5203   -7.0850 N   0  0  0  0  0  0  0  0  0  0  0  0
   20.7936  -33.7857   -5.0718 C   0  0  0  0  0  0  0  0  0  0  0  0
   21.7965  -34.2901   -4.5137 O   0  0  0  0  0  0  0  0  0  0  0  0
   19.8815  -33.0288   -4.3328 O   0  0  0  0  0  0  0  0  0  0  0  0
  2  1  1  1
  2  3  1  0
  2  4  1  0
  4  6  1  0
  4  5  1  1
  6  8  1  0
  6  7  2  0
  8  9  1  0
  9 14  1  0
 10 11  1  0
  9 10  1  1
 12 16  1  0
 12 11  1  0
 13 12  2  0
 14 19  1  0
 14 15  2  0
 18 17  1  1
 18 20  1  0
 19 18  1  0
 20 22  1  0
 21 20  2  0
M  END
$$$$
