VEA.pdb
     RDKit          3D

 22 21  0  0  1  0  0  0  0  0999 V2000
   12.1852  -11.1100   -9.5010 C   0  0  0  0  0  0  0  0  0  0  0  0
   12.4719  -11.1417  -10.9860 C   0  0  2  0  0  0  0  0  0  0  0  0
   11.6128  -12.2168  -11.6140 C   0  0  0  0  0  0  0  0  0  0  0  0
   13.9186  -11.4694  -11.2747 C   0  0  2  0  0  0  0  0  0  0  0  0
   14.2918  -12.7771  -10.8339 N   0  0  0  0  0  0  0  0  0  0  0  0
   14.8497  -10.4647  -10.7556 C   0  0  0  0  0  0  0  0  0  0  0  0
   15.2842  -10.4541   -9.5690 O   0  0  0  0  0  0  0  0  0  0  0  0
   15.3153   -9.4244  -11.6049 N   0  0  0  0  0  0  0  0  0  0  0  0
   16.2589   -8.4009  -11.1319 C   0  0  1  0  0  0  0  0  0  0  0  0
   17.2020   -8.1495  -12.2587 C   0  0  0  0  0  0  0  0  0  0  0  0
   18.2440   -9.1862  -12.4858 C   0  0  0  0  0  0  0  0  0  0  0  0
   19.1698   -8.9215  -13.5905 C   0  0  0  0  0  0  0  0  0  0  0  0
   20.1119   -8.0991  -13.4759 O   0  0  0  0  0  0  0  0  0  0  0  0
   15.5234   -7.1883  -10.6887 C   0  0  0  0  0  0  0  0  0  0  0  0
   14.5434   -6.7207  -11.3180 O   0  0  0  0  0  0  0  0  0  0  0  0
   19.0688   -9.5583  -14.8322 O   0  0  0  0  0  0  0  0  0  0  0  0
   15.5201   -4.9470   -7.6771 C   0  0  0  0  0  0  0  0  0  0  0  0
   15.3182   -5.2483   -9.1384 C   0  0  2  0  0  0  0  0  0  0  0  0
   15.9391   -6.5284   -9.5095 N   0  0  0  0  0  0  0  0  0  0  0  0
   15.9008   -4.1645   -9.9782 C   0  0  0  0  0  0  0  0  0  0  0  0
   16.9652   -4.4170  -10.5905 O   0  0  0  0  0  0  0  0  0  0  0  0
   15.3017   -2.9080  -10.0940 O   0  0  0  0  0  0  0  0  0  0  0  0
  2  1  1  1
  2  3  1  0
  2  4  1  0
  4  6  1  0
  4  5  1  1
  6  8  1  0
  6  7  2  0
  8  9  1  0
  9 14  1  0
 10 11  1  0
  9 10  1  6
 12 16  1  0
 12 11  1  0
 13 12  2  0
 14 19  1  0
 14 15  2  0
 18 17  1  1
 18 20  1  0
 19 18  1  0
 20 22  1  0
 21 20  2  0
M  END
$$$$
