VEA.pdb
     RDKit          3D

 22 21  0  0  1  0  0  0  0  0999 V2000
   17.9028  -11.3981  -18.2723 C   0  0  0  0  0  0  0  0  0  0  0  0
   19.3139  -11.9392  -18.2048 C   0  0  2  0  0  0  0  0  0  0  0  0
   19.2413  -13.4264  -17.9377 C   0  0  0  0  0  0  0  0  0  0  0  0
   20.1105  -11.3010  -17.0904 C   0  0  2  0  0  0  0  0  0  0  0  0
   19.6674  -11.6991  -15.7909 N   0  0  0  0  0  0  0  0  0  0  0  0
   20.1699   -9.8407  -17.1903 C   0  0  0  0  0  0  0  0  0  0  0  0
   20.6224   -9.2218  -18.1949 O   0  0  0  0  0  0  0  0  0  0  0  0
   19.7010   -9.0374  -16.1156 N   0  0  0  0  0  0  0  0  0  0  0  0
   19.7243   -7.5687  -16.1777 C   0  0  1  0  0  0  0  0  0  0  0  0
   18.3570   -7.1126  -15.7969 C   0  0  0  0  0  0  0  0  0  0  0  0
   18.1368   -5.6417  -15.7808 C   0  0  0  0  0  0  0  0  0  0  0  0
   16.7649   -5.2104  -15.4990 C   0  0  0  0  0  0  0  0  0  0  0  0
   15.8441   -6.0395  -15.2946 O   0  0  0  0  0  0  0  0  0  0  0  0
   20.7969   -7.0333  -15.2998 C   0  0  0  0  0  0  0  0  0  0  0  0
   21.0669   -7.5285  -14.1786 O   0  0  0  0  0  0  0  0  0  0  0  0
   16.3920   -3.8633  -15.4392 O   0  0  0  0  0  0  0  0  0  0  0  0
   23.4877   -4.4165  -15.6143 C   0  0  0  0  0  0  0  0  0  0  0  0
   22.5767   -5.3463  -14.8577 C   0  0  2  0  0  0  0  0  0  0  0  0
   21.5491   -5.9198  -15.7392 N   0  0  0  0  0  0  0  0  0  0  0  0
   21.9088   -4.6239  -13.7391 C   0  0  0  0  0  0  0  0  0  0  0  0
   20.7935   -4.1013  -13.9731 O   0  0  0  0  0  0  0  0  0  0  0  0
   22.4840   -4.5201  -12.4704 O   0  0  0  0  0  0  0  0  0  0  0  0
  2  1  1  1
  2  3  1  0
  2  4  1  0
  4  6  1  0
  4  5  1  1
  6  8  1  0
  6  7  2  0
  8  9  1  0
  9 14  1  0
 10 11  1  0
  9 10  1  1
 12 16  1  0
 12 11  1  0
 13 12  2  0
 14 19  1  0
 14 15  2  0
 18 17  1  6
 18 20  1  0
 19 18  1  0
 20 22  1  0
 21 20  2  0
M  END
$$$$
