VEA.pdb
     RDKit          3D

 22 21  0  0  1  0  0  0  0  0999 V2000
   17.8939  -10.7596  -12.6625 C   0  0  0  0  0  0  0  0  0  0  0  0
   17.3285  -11.5477  -11.5016 C   0  0  2  0  0  0  0  0  0  0  0  0
   16.7998  -12.8623  -12.0313 C   0  0  0  0  0  0  0  0  0  0  0  0
   16.1876  -10.8207  -10.8281 C   0  0  2  0  0  0  0  0  0  0  0  0
   15.0169  -10.7443  -11.6449 N   0  0  0  0  0  0  0  0  0  0  0  0
   16.5626   -9.4921  -10.3383 C   0  0  0  0  0  0  0  0  0  0  0  0
   17.4384   -9.2907   -9.4498 O   0  0  0  0  0  0  0  0  0  0  0  0
   15.9275   -8.3363  -10.8684 N   0  0  0  0  0  0  0  0  0  0  0  0
   16.2203   -6.9883  -10.3597 C   0  0  1  0  0  0  0  0  0  0  0  0
   16.5372   -6.1515  -11.5520 C   0  0  0  0  0  0  0  0  0  0  0  0
   16.8907   -4.7321  -11.2821 C   0  0  0  0  0  0  0  0  0  0  0  0
   17.2439   -3.9333  -12.4587 C   0  0  0  0  0  0  0  0  0  0  0  0
   18.1432   -4.2987  -13.2556 O   0  0  0  0  0  0  0  0  0  0  0  0
   15.0749   -6.4792   -9.5618 C   0  0  0  0  0  0  0  0  0  0  0  0
   13.8792   -6.6690   -9.8928 O   0  0  0  0  0  0  0  0  0  0  0  0
   16.6117   -2.7249  -12.7710 O   0  0  0  0  0  0  0  0  0  0  0  0
   14.6596   -5.0211   -6.1326 C   0  0  0  0  0  0  0  0  0  0  0  0
   14.2119   -5.3016   -7.5425 C   0  0  2  0  0  0  0  0  0  0  0  0
   15.3350   -5.7496   -8.3791 N   0  0  0  0  0  0  0  0  0  0  0  0
   13.6105   -4.0814   -8.1497 C   0  0  0  0  0  0  0  0  0  0  0  0
   14.2953   -3.4598   -8.9961 O   0  0  0  0  0  0  0  0  0  0  0  0
   12.3348   -3.6289   -7.8048 O   0  0  0  0  0  0  0  0  0  0  0  0
  2  1  1  6
  2  3  1  0
  2  4  1  0
  4  6  1  0
  4  5  1  6
  6  8  1  0
  6  7  2  0
  8  9  1  0
  9 14  1  0
 10 11  1  0
  9 10  1  6
 12 16  1  0
 12 11  1  0
 13 12  2  0
 14 19  1  0
 14 15  2  0
 18 17  1  1
 18 20  1  0
 19 18  1  0
 20 22  1  0
 21 20  2  0
M  END
$$$$
