VEA.pdb
     RDKit          3D

 22 21  0  0  1  0  0  0  0  0999 V2000
   13.9790   -6.5991   -7.6632 C   0  0  0  0  0  0  0  0  0  0  0  0
   14.3829   -7.1792   -9.0007 C   0  0  2  0  0  0  0  0  0  0  0  0
   13.7345   -8.5382   -9.1456 C   0  0  0  0  0  0  0  0  0  0  0  0
   15.8793   -7.3596   -9.1091 C   0  0  2  0  0  0  0  0  0  0  0  0
   16.5928   -6.1212   -9.0799 N   0  0  0  0  0  0  0  0  0  0  0  0
   16.2790   -8.1581  -10.2703 C   0  0  0  0  0  0  0  0  0  0  0  0
   16.0205   -9.3881  -10.4015 O   0  0  0  0  0  0  0  0  0  0  0  0
   17.0012   -7.5507  -11.3332 N   0  0  0  0  0  0  0  0  0  0  0  0
   17.4780   -8.3246  -12.4887 C   0  0  1  0  0  0  0  0  0  0  0  0
   16.4184   -8.2142  -13.5315 C   0  0  0  0  0  0  0  0  0  0  0  0
   16.7296   -8.8276  -14.8503 C   0  0  0  0  0  0  0  0  0  0  0  0
   15.6976   -8.6732  -15.8791 C   0  0  0  0  0  0  0  0  0  0  0  0
   15.8220   -9.1887  -17.0175 O   0  0  0  0  0  0  0  0  0  0  0  0
   18.8047   -7.8233  -12.9319 C   0  0  0  0  0  0  0  0  0  0  0  0
   19.0829   -6.6010  -12.9928 O   0  0  0  0  0  0  0  0  0  0  0  0
   14.5186   -7.9504  -15.6665 O   0  0  0  0  0  0  0  0  0  0  0  0
   22.0789   -9.4125  -13.9431 C   0  0  0  0  0  0  0  0  0  0  0  0
   21.1118   -8.2734  -13.7587 C   0  0  2  0  0  0  0  0  0  0  0  0
   19.8003   -8.7563  -13.3020 N   0  0  0  0  0  0  0  0  0  0  0  0
   20.9366   -7.5279  -15.0365 C   0  0  0  0  0  0  0  0  0  0  0  0
   19.9528   -7.8310  -15.7520 O   0  0  0  0  0  0  0  0  0  0  0  0
   21.8215   -6.5260  -15.4420 O   0  0  0  0  0  0  0  0  0  0  0  0
  2  1  1  1
  2  3  1  0
  2  4  1  0
  4  6  1  0
  4  5  1  6
  6  8  1  0
  6  7  2  0
  8  9  1  0
  9 14  1  0
 10 11  1  0
  9 10  1  6
 12 16  1  0
 12 11  1  0
 13 12  2  0
 14 19  1  0
 14 15  2  0
 18 17  1  6
 18 20  1  0
 19 18  1  0
 20 22  1  0
 21 20  2  0
M  END
$$$$
