VEA.pdb
     RDKit          3D

 22 21  0  0  1  0  0  0  0  0999 V2000
   11.5026  -11.4853  -10.2886 C   0  0  0  0  0  0  0  0  0  0  0  0
   11.8919  -11.5764  -11.7476 C   0  0  2  0  0  0  0  0  0  0  0  0
   10.8707  -12.4354  -12.4600 C   0  0  0  0  0  0  0  0  0  0  0  0
   13.2500  -12.2134  -11.9307 C   0  0  2  0  0  0  0  0  0  0  0  0
   13.2904  -13.5736  -11.4926 N   0  0  0  0  0  0  0  0  0  0  0  0
   14.3338  -11.4416  -11.3179 C   0  0  0  0  0  0  0  0  0  0  0  0
   14.8539  -11.7227  -10.2010 O   0  0  0  0  0  0  0  0  0  0  0  0
   14.8589  -10.3029  -11.9871 N   0  0  0  0  0  0  0  0  0  0  0  0
   15.8502   -9.4204  -11.3548 C   0  0  1  0  0  0  0  0  0  0  0  0
   16.8185   -9.0455  -12.4246 C   0  0  0  0  0  0  0  0  0  0  0  0
   17.9193   -8.1301  -12.0216 C   0  0  0  0  0  0  0  0  0  0  0  0
   18.7724   -7.6482  -13.1113 C   0  0  0  0  0  0  0  0  0  0  0  0
   19.8688   -8.1983  -13.3803 O   0  0  0  0  0  0  0  0  0  0  0  0
   15.1755   -8.2550  -10.7268 C   0  0  0  0  0  0  0  0  0  0  0  0
   14.2745   -7.5996  -11.3046 O   0  0  0  0  0  0  0  0  0  0  0  0
   18.4283   -6.5567  -13.9161 O   0  0  0  0  0  0  0  0  0  0  0  0
   15.1018   -6.6879   -7.3156 C   0  0  0  0  0  0  0  0  0  0  0  0
   14.9386   -6.6778   -8.8123 C   0  0  2  0  0  0  0  0  0  0  0  0
   15.5593   -7.8620   -9.4241 N   0  0  0  0  0  0  0  0  0  0  0  0
   15.5536   -5.4520   -9.3942 C   0  0  0  0  0  0  0  0  0  0  0  0
   16.5959   -5.5963  -10.0756 O   0  0  0  0  0  0  0  0  0  0  0  0
   15.0074   -4.1809   -9.2013 O   0  0  0  0  0  0  0  0  0  0  0  0
  2  1  1  1
  2  3  1  0
  2  4  1  0
  4  6  1  0
  4  5  1  1
  6  8  1  0
  6  7  2  0
  8  9  1  0
  9 14  1  0
 10 11  1  0
  9 10  1  6
 12 16  1  0
 12 11  1  0
 13 12  2  0
 14 19  1  0
 14 15  2  0
 18 17  1  1
 18 20  1  0
 19 18  1  0
 20 22  1  0
 21 20  2  0
M  END
$$$$
