LHG.pdb
     RDKit          3D

 23 23  0  0  1  0  0  0  0  0999 V2000
   21.5953  -28.3290  -14.1144 C   0  0  0  0  0  0  0  0  0  0  0  0
   22.4352  -27.8016  -12.9753 C   0  0  2  0  0  0  0  0  0  0  0  0
   22.0383  -28.4223  -11.6477 C   0  0  0  0  0  0  0  0  0  0  0  0
   22.2001  -26.3224  -12.8664 C   0  0  0  0  0  0  0  0  0  0  0  0
   22.5703  -25.5916  -14.1396 C   0  0  2  0  0  0  0  0  0  0  0  0
   23.9880  -25.3226  -14.1134 N   0  0  0  0  0  0  0  0  0  0  0  0
   21.8407  -24.2964  -14.1180 C   0  0  0  0  0  0  0  0  0  0  0  0
   22.3137  -23.3227  -13.4827 O   0  0  0  0  0  0  0  0  0  0  0  0
   20.6331  -24.1473  -14.7966 N   0  0  0  0  0  0  0  0  0  0  0  0
   20.0274  -22.7622  -14.8002 C   0  0  1  0  0  0  0  0  0  0  0  0
   20.8775  -22.0796  -15.8352 C   0  0  0  0  0  0  0  0  0  0  0  0
   21.7272  -20.9742  -15.4433 C   0  0  0  0  0  0  0  0  0  0  0  0
   21.4018  -19.8327  -14.7787 C   0  0  0  0  0  0  0  0  0  0  0  0
   22.5721  -19.1585  -14.5751 N   0  0  0  0  0  0  0  0  0  0  0  0
   23.5731  -19.8743  -15.1008 C   0  0  0  0  0  0  0  0  0  0  0  0
   23.0870  -20.9788  -15.6323 N   0  0  0  0  0  0  0  0  0  0  0  0
   18.6407  -23.0252  -15.3335 C   0  0  0  0  0  0  0  0  0  0  0  0
   18.5048  -24.0501  -16.1134 O   0  0  0  0  0  0  0  0  0  0  0  0
   17.4852  -22.2811  -15.0712 N   0  0  0  0  0  0  0  0  0  0  0  0
   16.8078  -22.4284  -13.7690 C   0  0  0  0  0  0  0  0  0  0  0  0
   16.3178  -23.8163  -13.6147 C   0  0  0  0  0  0  0  0  0  0  0  0
   14.9681  -24.0763  -13.3766 O   0  0  0  0  0  0  0  0  0  0  0  0
   17.1534  -24.7292  -13.7057 O   0  0  0  0  0  0  0  0  0  0  0  0
  2  1  1  6
  2  3  1  0
  4  2  1  0
  4  5  1  0
  5  7  1  0
  5  6  1  1
  7  8  2  0
  9  7  1  0
  9 10  1  0
 11 12  1  0
 10 11  1  6
 12 16  1  0
 13 14  1  0
 13 12  2  0
 14 15  1  0
 15 16  2  0
 17 10  1  0
 17 19  1  0
 18 17  2  0
 20 19  1  0
 20 21  1  0
 21 22  1  0
 23 21  2  0
M  END
$$$$
