LHG.pdb
     RDKit          3D

 23 23  0  0  1  0  0  0  0  0999 V2000
   18.6762  -13.7855    2.4646 C   0  0  0  0  0  0  0  0  0  0  0  0
   18.1500  -13.3108    3.7984 C   0  0  2  0  0  0  0  0  0  0  0  0
   19.2164  -12.5845    4.5990 C   0  0  0  0  0  0  0  0  0  0  0  0
   17.7356  -14.5154    4.5936 C   0  0  0  0  0  0  0  0  0  0  0  0
   16.6780  -15.3317    3.8814 C   0  0  2  0  0  0  0  0  0  0  0  0
   15.4272  -14.6152    3.9515 N   0  0  0  0  0  0  0  0  0  0  0  0
   16.5388  -16.6050    4.6362 C   0  0  0  0  0  0  0  0  0  0  0  0
   15.5594  -16.7738    5.4027 O   0  0  0  0  0  0  0  0  0  0  0  0
   17.4852  -17.6189    4.5040 N   0  0  0  0  0  0  0  0  0  0  0  0
   17.1723  -18.9281    5.1922 C   0  0  1  0  0  0  0  0  0  0  0  0
   17.7668  -19.9114    4.2229 C   0  0  0  0  0  0  0  0  0  0  0  0
   16.9570  -20.4170    3.1339 C   0  0  0  0  0  0  0  0  0  0  0  0
   15.7639  -21.0686    3.1798 C   0  0  0  0  0  0  0  0  0  0  0  0
   15.3742  -21.2507    1.8835 N   0  0  0  0  0  0  0  0  0  0  0  0
   16.3054  -20.7225    1.0805 C   0  0  0  0  0  0  0  0  0  0  0  0
   17.2743  -20.2110    1.8142 N   0  0  0  0  0  0  0  0  0  0  0  0
   18.0099  -18.8352    6.4438 C   0  0  0  0  0  0  0  0  0  0  0  0
   19.1881  -18.3133    6.3148 O   0  0  0  0  0  0  0  0  0  0  0  0
   17.6466  -19.2496    7.7298 N   0  0  0  0  0  0  0  0  0  0  0  0
   18.6231  -19.1403    8.8300 C   0  0  0  0  0  0  0  0  0  0  0  0
   18.3623  -17.9096    9.6095 C   0  0  0  0  0  0  0  0  0  0  0  0
   19.1277  -17.5987   10.7335 O   0  0  0  0  0  0  0  0  0  0  0  0
   17.4411  -17.1740    9.2218 O   0  0  0  0  0  0  0  0  0  0  0  0
  2  1  1  6
  2  3  1  0
  4  2  1  0
  4  5  1  0
  5  7  1  0
  5  6  1  1
  7  8  2  0
  9  7  1  0
  9 10  1  0
 11 12  1  0
 10 11  1  6
 12 16  1  0
 13 14  1  0
 13 12  2  0
 14 15  1  0
 15 16  2  0
 17 10  1  0
 17 19  1  0
 18 17  2  0
 20 19  1  0
 20 21  1  0
 21 22  1  0
 23 21  2  0
M  END
$$$$
