LHG.pdb
     RDKit          3D

 23 23  0  0  1  0  0  0  0  0999 V2000
   26.7520  -11.7163  -14.7867 C   0  0  0  0  0  0  0  0  0  0  0  0
   26.5747  -11.5854  -16.2809 C   0  0  2  0  0  0  0  0  0  0  0  0
   27.8141  -11.0159  -16.9481 C   0  0  0  0  0  0  0  0  0  0  0  0
   25.4478  -10.6261  -16.5361 C   0  0  0  0  0  0  0  0  0  0  0  0
   24.1381  -11.1193  -15.9584 C   0  0  2  0  0  0  0  0  0  0  0  0
   23.7785  -12.3454  -16.6293 N   0  0  0  0  0  0  0  0  0  0  0  0
   23.1150  -10.0877  -16.2737 C   0  0  0  0  0  0  0  0  0  0  0  0
   22.4654  -10.1583  -17.3453 O   0  0  0  0  0  0  0  0  0  0  0  0
   22.8658   -9.0383  -15.3919 N   0  0  0  0  0  0  0  0  0  0  0  0
   21.7764   -8.0679  -15.7882 C   0  0  1  0  0  0  0  0  0  0  0  0
   20.5466   -8.8537  -15.4277 C   0  0  0  0  0  0  0  0  0  0  0  0
   19.2492   -8.2127  -15.4851 C   0  0  0  0  0  0  0  0  0  0  0  0
   18.5742   -7.5480  -14.5088 C   0  0  0  0  0  0  0  0  0  0  0  0
   17.4409   -7.0558  -15.0906 N   0  0  0  0  0  0  0  0  0  0  0  0
   17.4346   -7.4127  -16.3804 C   0  0  0  0  0  0  0  0  0  0  0  0
   18.5197   -8.1140  -16.6439 N   0  0  0  0  0  0  0  0  0  0  0  0
   21.9934   -6.9349  -14.8156 C   0  0  0  0  0  0  0  0  0  0  0  0
   22.4817   -7.2506  -13.6583 O   0  0  0  0  0  0  0  0  0  0  0  0
   21.7267   -5.5788  -15.0333 N   0  0  0  0  0  0  0  0  0  0  0  0
   22.0292   -4.6005  -13.9715 C   0  0  0  0  0  0  0  0  0  0  0  0
   21.7056   -3.2354  -14.4426 C   0  0  0  0  0  0  0  0  0  0  0  0
   21.9008   -2.1283  -13.6167 O   0  0  0  0  0  0  0  0  0  0  0  0
   21.2572   -3.1212  -15.5941 O   0  0  0  0  0  0  0  0  0  0  0  0
  2  1  1  1
  2  3  1  0
  4  2  1  0
  4  5  1  0
  5  7  1  0
  5  6  1  6
  7  8  2  0
  9  7  1  0
  9 10  1  0
 11 12  1  0
 10 11  1  1
 12 16  1  0
 13 14  1  0
 13 12  2  0
 14 15  1  0
 15 16  2  0
 17 10  1  0
 17 19  1  0
 18 17  2  0
 20 19  1  0
 20 21  1  0
 21 22  1  0
 23 21  2  0
M  END
$$$$
