LHG.pdb
     RDKit          3D

 23 23  0  0  1  0  0  0  0  0999 V2000
   30.2616  -33.9330  -20.6757 C   0  0  0  0  0  0  0  0  0  0  0  0
   31.3631  -34.1116  -19.6578 C   0  0  2  0  0  0  0  0  0  0  0  0
   31.6341  -35.5780  -19.3717 C   0  0  0  0  0  0  0  0  0  0  0  0
   30.9179  -33.4789  -18.3707 C   0  0  0  0  0  0  0  0  0  0  0  0
   30.5786  -32.0136  -18.5438 C   0  0  2  0  0  0  0  0  0  0  0  0
   31.8110  -31.2638  -18.5870 N   0  0  0  0  0  0  0  0  0  0  0  0
   29.8161  -31.6045  -17.3349 C   0  0  0  0  0  0  0  0  0  0  0  0
   30.4293  -31.2363  -16.3035 O   0  0  0  0  0  0  0  0  0  0  0  0
   28.4230  -31.6241  -17.3306 N   0  0  0  0  0  0  0  0  0  0  0  0
   27.7455  -31.1743  -16.0561 C   0  0  1  0  0  0  0  0  0  0  0  0
   26.7962  -30.1363  -16.5862 C   0  0  0  0  0  0  0  0  0  0  0  0
   27.1935  -28.7436  -16.5914 C   0  0  0  0  0  0  0  0  0  0  0  0
   28.3498  -28.1773  -16.1525 C   0  0  0  0  0  0  0  0  0  0  0  0
   28.2702  -26.8494  -16.4618 N   0  0  0  0  0  0  0  0  0  0  0  0
   27.1001  -26.6232  -17.0707 C   0  0  0  0  0  0  0  0  0  0  0  0
   26.4299  -27.7552  -17.1614 N   0  0  0  0  0  0  0  0  0  0  0  0
   27.0012  -32.4184  -15.6379 C   0  0  0  0  0  0  0  0  0  0  0  0
   26.8607  -33.3392  -16.5377 O   0  0  0  0  0  0  0  0  0  0  0  0
   26.4504  -32.6841  -14.3795 N   0  0  0  0  0  0  0  0  0  0  0  0
   25.8428  -34.0025  -14.1174 C   0  0  0  0  0  0  0  0  0  0  0  0
   25.4371  -34.0925  -12.6970 C   0  0  0  0  0  0  0  0  0  0  0  0
   25.6780  -33.0382  -11.8159 O   0  0  0  0  0  0  0  0  0  0  0  0
   24.8785  -35.1377  -12.3289 O   0  0  0  0  0  0  0  0  0  0  0  0
  2  1  1  6
  2  3  1  0
  4  2  1  0
  4  5  1  0
  5  7  1  0
  5  6  1  1
  7  8  2  0
  9  7  1  0
  9 10  1  0
 11 12  1  0
 10 11  1  6
 12 16  1  0
 13 14  1  0
 13 12  2  0
 14 15  1  0
 15 16  2  0
 17 10  1  0
 17 19  1  0
 18 17  2  0
 20 19  1  0
 20 21  1  0
 21 22  1  0
 23 21  2  0
M  END
$$$$
