LHG.pdb
     RDKit          3D

 23 23  0  0  1  0  0  0  0  0999 V2000
   27.5849  -12.5770  -15.0396 C   0  0  0  0  0  0  0  0  0  0  0  0
   27.4614  -12.1980  -16.4964 C   0  0  2  0  0  0  0  0  0  0  0  0
   28.6877  -11.4515  -16.9907 C   0  0  0  0  0  0  0  0  0  0  0  0
   26.2861  -11.2746  -16.6416 C   0  0  0  0  0  0  0  0  0  0  0  0
   24.9787  -11.9592  -16.3032 C   0  0  2  0  0  0  0  0  0  0  0  0
   24.8185  -13.0927  -17.1819 N   0  0  0  0  0  0  0  0  0  0  0  0
   23.8963  -10.9807  -16.5882 C   0  0  0  0  0  0  0  0  0  0  0  0
   23.4994  -10.8129  -17.7671 O   0  0  0  0  0  0  0  0  0  0  0  0
   23.3130  -10.2436  -15.5599 N   0  0  0  0  0  0  0  0  0  0  0  0
   22.1894   -9.3109  -15.9512 C   0  0  1  0  0  0  0  0  0  0  0  0
   21.0204   -9.9687  -15.2726 C   0  0  0  0  0  0  0  0  0  0  0  0
   20.3986  -11.1243  -15.8853 C   0  0  0  0  0  0  0  0  0  0  0  0
   19.6469  -11.1980  -17.0167 C   0  0  0  0  0  0  0  0  0  0  0  0
   19.3750  -12.5219  -17.2130 N   0  0  0  0  0  0  0  0  0  0  0  0
   19.9478  -13.2250  -16.2289 C   0  0  0  0  0  0  0  0  0  0  0  0
   20.5742  -12.4009  -15.4120 N   0  0  0  0  0  0  0  0  0  0  0  0
   22.5747   -8.0367  -15.2409 C   0  0  0  0  0  0  0  0  0  0  0  0
   23.0430   -8.1619  -14.0400 O   0  0  0  0  0  0  0  0  0  0  0  0
   22.4833   -6.7344  -15.7442 N   0  0  0  0  0  0  0  0  0  0  0  0
   23.0312   -5.6129  -14.9579 C   0  0  0  0  0  0  0  0  0  0  0  0
   22.0172   -5.1386  -13.9898 C   0  0  0  0  0  0  0  0  0  0  0  0
   20.7700   -5.7570  -13.8994 O   0  0  0  0  0  0  0  0  0  0  0  0
   22.3235   -4.1758  -13.2694 O   0  0  0  0  0  0  0  0  0  0  0  0
  2  1  1  1
  2  3  1  0
  4  2  1  0
  4  5  1  0
  5  7  1  0
  5  6  1  6
  7  8  2  0
  9  7  1  0
  9 10  1  0
 11 12  1  0
 10 11  1  1
 12 16  1  0
 13 14  1  0
 13 12  2  0
 14 15  1  0
 15 16  2  0
 17 10  1  0
 17 19  1  0
 18 17  2  0
 20 19  1  0
 20 21  1  0
 21 22  1  0
 23 21  2  0
M  END
$$$$
