LHG.pdb
     RDKit          3D

 23 23  0  0  1  0  0  0  0  0999 V2000
   35.9249  -36.6590   -3.5117 C   0  0  0  0  0  0  0  0  0  0  0  0
   34.7024  -36.7719   -4.3915 C   0  0  2  0  0  0  0  0  0  0  0  0
   35.0147  -36.4298   -5.8374 C   0  0  0  0  0  0  0  0  0  0  0  0
   33.6838  -35.7807   -3.9065 C   0  0  0  0  0  0  0  0  0  0  0  0
   33.2612  -36.0509   -2.4780 C   0  0  2  0  0  0  0  0  0  0  0  0
   32.9353  -37.4516   -2.3576 N   0  0  0  0  0  0  0  0  0  0  0  0
   32.0292  -35.2543   -2.2375 C   0  0  0  0  0  0  0  0  0  0  0  0
   32.0825  -34.0004   -2.2515 O   0  0  0  0  0  0  0  0  0  0  0  0
   30.8098  -35.8833   -1.9956 N   0  0  0  0  0  0  0  0  0  0  0  0
   29.6378  -34.9834   -1.6759 C   0  0  1  0  0  0  0  0  0  0  0  0
   28.5780  -35.5630   -2.5707 C   0  0  0  0  0  0  0  0  0  0  0  0
   28.5503  -35.1976   -3.9718 C   0  0  0  0  0  0  0  0  0  0  0  0
   29.2752  -34.2524   -4.6287 C   0  0  0  0  0  0  0  0  0  0  0  0
   28.9449  -34.3625   -5.9494 N   0  0  0  0  0  0  0  0  0  0  0  0
   28.0481  -35.3467   -6.0837 C   0  0  0  0  0  0  0  0  0  0  0  0
   27.7930  -35.8684   -4.8998 N   0  0  0  0  0  0  0  0  0  0  0  0
   29.3643  -35.3221   -0.2312 C   0  0  0  0  0  0  0  0  0  0  0  0
   28.3040  -34.7976    0.2959 O   0  0  0  0  0  0  0  0  0  0  0  0
   30.1331  -36.1462    0.5980 N   0  0  0  0  0  0  0  0  0  0  0  0
   29.7918  -36.2562    2.0289 C   0  0  0  0  0  0  0  0  0  0  0  0
   28.8447  -37.3751    2.2324 C   0  0  0  0  0  0  0  0  0  0  0  0
   28.2809  -38.0421    1.1446 O   0  0  0  0  0  0  0  0  0  0  0  0
   28.5775  -37.6899    3.4026 O   0  0  0  0  0  0  0  0  0  0  0  0
  2  1  1  1
  2  3  1  0
  4  2  1  0
  4  5  1  0
  5  7  1  0
  5  6  1  6
  7  8  2  0
  9  7  1  0
  9 10  1  0
 11 12  1  0
 10 11  1  6
 12 16  1  0
 13 14  1  0
 13 12  2  0
 14 15  1  0
 15 16  2  0
 17 10  1  0
 17 19  1  0
 18 17  2  0
 20 19  1  0
 20 21  1  0
 21 22  1  0
 23 21  2  0
M  END
$$$$
