LHG.pdb
     RDKit          3D

 23 23  0  0  1  0  0  0  0  0999 V2000
   26.6811  -13.6563  -14.9320 C   0  0  0  0  0  0  0  0  0  0  0  0
   25.7283  -14.0424  -16.0385 C   0  0  2  0  0  0  0  0  0  0  0  0
   26.4288  -14.8157  -17.1415 C   0  0  0  0  0  0  0  0  0  0  0  0
   25.1858  -12.7824  -16.6496 C   0  0  0  0  0  0  0  0  0  0  0  0
   24.4532  -11.9278  -15.6371 C   0  0  2  0  0  0  0  0  0  0  0  0
   23.5485  -12.7746  -14.8974 N   0  0  0  0  0  0  0  0  0  0  0  0
   23.6547  -10.9391  -16.4084 C   0  0  0  0  0  0  0  0  0  0  0  0
   24.1987  -10.2721  -17.3220 O   0  0  0  0  0  0  0  0  0  0  0  0
   22.3040  -10.7414  -16.1302 N   0  0  0  0  0  0  0  0  0  0  0  0
   21.5765   -9.7372  -16.9951 C   0  0  1  0  0  0  0  0  0  0  0  0
   20.3226  -10.4976  -17.3256 C   0  0  0  0  0  0  0  0  0  0  0  0
   20.3639  -11.5365  -18.3338 C   0  0  0  0  0  0  0  0  0  0  0  0
   20.6152  -11.4321  -19.6666 C   0  0  0  0  0  0  0  0  0  0  0  0
   20.6271  -12.7066  -20.1574 N   0  0  0  0  0  0  0  0  0  0  0  0
   20.3912  -13.5538  -19.1487 C   0  0  0  0  0  0  0  0  0  0  0  0
   20.2288  -12.8692  -18.0334 N   0  0  0  0  0  0  0  0  0  0  0  0
   21.2881   -8.6266  -16.0154 C   0  0  0  0  0  0  0  0  0  0  0  0
   20.4250   -7.7357  -16.3875 O   0  0  0  0  0  0  0  0  0  0  0  0
   21.8515   -8.4598  -14.7456 N   0  0  0  0  0  0  0  0  0  0  0  0
   21.5318   -7.2507  -13.9634 C   0  0  0  0  0  0  0  0  0  0  0  0
   22.5463   -6.2048  -14.2227 C   0  0  0  0  0  0  0  0  0  0  0  0
   22.6132   -5.0602  -13.4281 O   0  0  0  0  0  0  0  0  0  0  0  0
   23.3269   -6.3903  -15.1693 O   0  0  0  0  0  0  0  0  0  0  0  0
  2  1  1  1
  2  3  1  0
  4  2  1  0
  4  5  1  0
  5  7  1  0
  5  6  1  6
  7  8  2  0
  9  7  1  0
  9 10  1  0
 11 12  1  0
 10 11  1  1
 12 16  1  0
 13 14  1  0
 13 12  2  0
 14 15  1  0
 15 16  2  0
 17 10  1  0
 17 19  1  0
 18 17  2  0
 20 19  1  0
 20 21  1  0
 21 22  1  0
 23 21  2  0
M  END
$$$$
