LHG.pdb
     RDKit          3D

 23 23  0  0  1  0  0  0  0  0999 V2000
   22.9710   -7.9159  -20.6992 C   0  0  0  0  0  0  0  0  0  0  0  0
   21.6587   -7.2775  -21.0887 C   0  0  2  0  0  0  0  0  0  0  0  0
   21.8487   -5.8540  -21.5819 C   0  0  0  0  0  0  0  0  0  0  0  0
   20.7875   -7.2160  -19.8671 C   0  0  0  0  0  0  0  0  0  0  0  0
   20.5979   -8.5779  -19.2335 C   0  0  2  0  0  0  0  0  0  0  0  0
   19.6357   -9.3140  -20.0177 N   0  0  0  0  0  0  0  0  0  0  0  0
   20.0290   -8.3454  -17.8798 C   0  0  0  0  0  0  0  0  0  0  0  0
   18.8584   -7.9086  -17.7600 O   0  0  0  0  0  0  0  0  0  0  0  0
   20.7806   -8.6068  -16.7363 N   0  0  0  0  0  0  0  0  0  0  0  0
   20.1188   -8.3075  -15.4104 C   0  0  1  0  0  0  0  0  0  0  0  0
   20.1891   -9.6531  -14.7439 C   0  0  0  0  0  0  0  0  0  0  0  0
   19.1080  -10.5984  -14.9311 C   0  0  0  0  0  0  0  0  0  0  0  0
   17.9726  -10.4715  -15.6695 C   0  0  0  0  0  0  0  0  0  0  0  0
   17.3254  -11.6716  -15.5904 N   0  0  0  0  0  0  0  0  0  0  0  0
   18.0511  -12.4975  -14.8275 C   0  0  0  0  0  0  0  0  0  0  0  0
   19.1360  -11.8708  -14.4164 N   0  0  0  0  0  0  0  0  0  0  0  0
   21.0951   -7.3450  -14.7801 C   0  0  0  0  0  0  0  0  0  0  0  0
   22.3517   -7.5667  -15.0014 O   0  0  0  0  0  0  0  0  0  0  0  0
   20.7859   -6.2358  -13.9853 N   0  0  0  0  0  0  0  0  0  0  0  0
   21.8783   -5.4181  -13.4248 C   0  0  0  0  0  0  0  0  0  0  0  0
   22.1958   -4.3068  -14.3493 C   0  0  0  0  0  0  0  0  0  0  0  0
   21.6758   -3.0297  -14.1381 O   0  0  0  0  0  0  0  0  0  0  0  0
   22.9379   -4.5599  -15.3111 O   0  0  0  0  0  0  0  0  0  0  0  0
  2  1  1  1
  2  3  1  0
  4  2  1  0
  4  5  1  0
  5  7  1  0
  5  6  1  6
  7  8  2  0
  9  7  1  0
  9 10  1  0
 11 12  1  0
 10 11  1  1
 12 16  1  0
 13 14  1  0
 13 12  2  0
 14 15  1  0
 15 16  2  0
 17 10  1  0
 17 19  1  0
 18 17  2  0
 20 19  1  0
 20 21  1  0
 21 22  1  0
 23 21  2  0
M  END
$$$$
