SDS.pdb
     RDKit          3D

 21 20  0  0  1  0  0  0  0  0999 V2000
   11.7387  -15.9991   19.6873 O   0  0  0  0  0  0  0  0  0  0  0  0
   11.9781  -17.2668   19.1743 C   0  0  0  0  0  0  0  0  0  0  0  0
   10.7323  -18.1212   19.2950 C   0  0  2  0  0  0  0  0  0  0  0  0
    9.6330  -17.4142   18.7289 N   0  0  0  0  0  0  0  0  0  0  0  0
   10.5553  -18.5380   20.6883 C   0  0  0  0  0  0  0  0  0  0  0  0
    9.6740  -17.9240   21.3687 O   0  0  0  0  0  0  0  0  0  0  0  0
   11.2884  -19.5706   21.3387 N   0  0  0  0  0  0  0  0  0  0  0  0
   11.0725  -19.9817   22.6997 C   0  0  1  0  0  0  0  0  0  0  0  0
   11.8283  -21.2564   23.0351 C   0  0  0  0  0  0  0  0  0  0  0  0
   11.2909  -22.4295   22.2944 C   0  0  0  0  0  0  0  0  0  0  0  0
   10.0704  -22.6661   22.1242 O   0  0  0  0  0  0  0  0  0  0  0  0
   11.3785  -18.9374   23.6914 C   0  0  0  0  0  0  0  0  0  0  0  0
   12.5579  -18.4645   23.6409 O   0  0  0  0  0  0  0  0  0  0  0  0
   12.2640  -23.3083   21.7648 O   0  0  0  0  0  0  0  0  0  0  0  0
    9.5361  -15.9590   24.3238 O   0  0  0  0  0  0  0  0  0  0  0  0
    9.8124  -16.3723   25.6266 C   0  0  0  0  0  0  0  0  0  0  0  0
   10.8821  -17.4770   25.6187 C   0  0  2  0  0  0  0  0  0  0  0  0
   10.4802  -18.4549   24.6509 N   0  0  0  0  0  0  0  0  0  0  0  0
   11.0829  -18.0356   26.9602 C   0  0  0  0  0  0  0  0  0  0  0  0
   11.4447  -17.2896   27.8903 O   0  0  0  0  0  0  0  0  0  0  0  0
   10.8761  -19.3745   27.1911 O   0  0  0  0  0  0  0  0  0  0  0  0
  1  2  1  0
  2  3  1  0
  3  4  1  1
  5  3  1  0
  5  7  1  0
  6  5  2  0
  8  7  1  0
  8 12  1  0
  8  9  1  1
 10  9  1  0
 11 10  2  0
 12 18  1  0
 13 12  2  0
 14 10  1  0
 16 15  1  0
 17 16  1  1
 17 19  1  0
 18 17  1  0
 19 21  1  0
 20 19  2  0
M  END
$$$$
