SDS.pdb
     RDKit          3D

 21 20  0  0  1  0  0  0  0  0999 V2000
    7.0541  -15.1497   17.8464 O   0  0  0  0  0  0  0  0  0  0  0  0
    6.8134  -14.9696   19.2018 C   0  0  0  0  0  0  0  0  0  0  0  0
    8.0727  -14.4904   19.8953 C   0  0  2  0  0  0  0  0  0  0  0  0
    9.2047  -15.0012   19.1979 N   0  0  0  0  0  0  0  0  0  0  0  0
    8.0103  -14.8319   21.3186 C   0  0  0  0  0  0  0  0  0  0  0  0
    6.9723  -14.4676   21.9564 O   0  0  0  0  0  0  0  0  0  0  0  0
    9.0147  -15.5353   22.0418 N   0  0  0  0  0  0  0  0  0  0  0  0
    8.9011  -15.9127   23.4248 C   0  0  1  0  0  0  0  0  0  0  0  0
    9.9284  -16.9623   23.8138 C   0  0  0  0  0  0  0  0  0  0  0  0
    9.7955  -18.1971   22.9945 C   0  0  0  0  0  0  0  0  0  0  0  0
    8.7144  -18.7975   22.7817 O   0  0  0  0  0  0  0  0  0  0  0  0
    8.9627  -14.7755   24.3579 C   0  0  0  0  0  0  0  0  0  0  0  0
   10.0188  -14.0703   24.2911 O   0  0  0  0  0  0  0  0  0  0  0  0
   11.0000  -18.6875   22.4394 O   0  0  0  0  0  0  0  0  0  0  0  0
    5.7191  -13.2786   26.4889 O   0  0  0  0  0  0  0  0  0  0  0  0
    6.7912  -12.5005   26.0533 C   0  0  0  0  0  0  0  0  0  0  0  0
    8.1005  -13.3020   26.1409 C   0  0  2  0  0  0  0  0  0  0  0  0
    7.9640  -14.4399   25.2801 N   0  0  0  0  0  0  0  0  0  0  0  0
    8.4171  -13.6579   27.5285 C   0  0  0  0  0  0  0  0  0  0  0  0
    8.5216  -12.7601   28.3861 O   0  0  0  0  0  0  0  0  0  0  0  0
    8.6001  -14.9733   27.8817 O   0  0  0  0  0  0  0  0  0  0  0  0
  1  2  1  0
  2  3  1  0
  3  4  1  6
  5  3  1  0
  5  7  1  0
  6  5  2  0
  8  7  1  0
  8 12  1  0
  8  9  1  1
 10  9  1  0
 11 10  2  0
 12 18  1  0
 13 12  2  0
 14 10  1  0
 16 15  1  0
 17 16  1  1
 17 19  1  0
 18 17  1  0
 19 21  1  0
 20 19  2  0
M  END
$$$$
