SDS.pdb
     RDKit          3D

 21 20  0  0  1  0  0  0  0  0999 V2000
   10.0722  -14.1517   19.8109 O   0  0  0  0  0  0  0  0  0  0  0  0
   10.9167  -13.4180   18.9885 C   0  0  0  0  0  0  0  0  0  0  0  0
   11.8687  -14.3449   18.2599 C   0  0  2  0  0  0  0  0  0  0  0  0
   11.1158  -15.1921   17.3972 N   0  0  0  0  0  0  0  0  0  0  0  0
   12.7182  -15.0392   19.2308 C   0  0  0  0  0  0  0  0  0  0  0  0
   12.3340  -16.1872   19.6195 O   0  0  0  0  0  0  0  0  0  0  0  0
   13.9338  -14.5331   19.7721 N   0  0  0  0  0  0  0  0  0  0  0  0
   14.7076  -15.1996   20.7846 C   0  0  1  0  0  0  0  0  0  0  0  0
   16.0657  -14.5479   20.9828 C   0  0  0  0  0  0  0  0  0  0  0  0
   16.9614  -14.7697   19.8157 C   0  0  0  0  0  0  0  0  0  0  0  0
   16.8179  -15.6875   18.9722 O   0  0  0  0  0  0  0  0  0  0  0  0
   14.0135  -15.3235   22.0771 C   0  0  0  0  0  0  0  0  0  0  0  0
   14.0223  -14.2806   22.8046 O   0  0  0  0  0  0  0  0  0  0  0  0
   18.0334  -13.8556   19.6934 O   0  0  0  0  0  0  0  0  0  0  0  0
   10.4567  -15.8258   23.2595 O   0  0  0  0  0  0  0  0  0  0  0  0
   11.2478  -16.9383   23.5443 C   0  0  0  0  0  0  0  0  0  0  0  0
   12.7010  -16.5060   23.8013 C   0  0  2  0  0  0  0  0  0  0  0  0
   13.3701  -16.4802   22.5341 N   0  0  0  0  0  0  0  0  0  0  0  0
   13.3519  -17.3789   24.7844 C   0  0  0  0  0  0  0  0  0  0  0  0
   14.3336  -18.0662   24.4433 O   0  0  0  0  0  0  0  0  0  0  0  0
   12.8814  -17.4414   26.0741 O   0  0  0  0  0  0  0  0  0  0  0  0
  1  2  1  0
  2  3  1  0
  3  4  1  1
  5  3  1  0
  5  7  1  0
  6  5  2  0
  8  7  1  0
  8 12  1  0
  8  9  1  1
 10  9  1  0
 11 10  2  0
 12 18  1  0
 13 12  2  0
 14 10  1  0
 16 15  1  0
 17 16  1  6
 17 19  1  0
 18 17  1  0
 19 21  1  0
 20 19  2  0
M  END
$$$$
