SDS.pdb
     RDKit          3D

 21 20  0  0  1  0  0  0  0  0999 V2000
    7.1713  -13.8757   16.4204 O   0  0  0  0  0  0  0  0  0  0  0  0
    8.5409  -13.7921   16.2088 C   0  0  0  0  0  0  0  0  0  0  0  0
    9.1127  -15.1711   15.9481 C   0  0  2  0  0  0  0  0  0  0  0  0
    8.4063  -15.7644   14.8629 N   0  0  0  0  0  0  0  0  0  0  0  0
    9.1124  -15.9463   17.1912 C   0  0  0  0  0  0  0  0  0  0  0  0
    8.2434  -16.8683   17.2982 O   0  0  0  0  0  0  0  0  0  0  0  0
   10.0029  -15.7503   18.2845 N   0  0  0  0  0  0  0  0  0  0  0  0
    9.9718  -16.5174   19.5005 C   0  0  1  0  0  0  0  0  0  0  0  0
   11.0869  -17.5482   19.5509 C   0  0  0  0  0  0  0  0  0  0  0  0
   10.6342  -18.8232   20.1699 C   0  0  0  0  0  0  0  0  0  0  0  0
    9.7996  -19.6071   19.6565 O   0  0  0  0  0  0  0  0  0  0  0  0
    9.9884  -15.6954   20.7219 C   0  0  0  0  0  0  0  0  0  0  0  0
   11.0245  -14.9757   20.8825 O   0  0  0  0  0  0  0  0  0  0  0  0
   11.2145  -19.1270   21.4231 O   0  0  0  0  0  0  0  0  0  0  0  0
    6.6675  -14.9863   23.0593 O   0  0  0  0  0  0  0  0  0  0  0  0
    7.7154  -14.0718   22.9583 C   0  0  0  0  0  0  0  0  0  0  0  0
    9.0571  -14.8122   22.8305 C   0  0  2  0  0  0  0  0  0  0  0  0
    8.9684  -15.6632   21.6807 N   0  0  0  0  0  0  0  0  0  0  0  0
    9.3881  -15.5345   24.0638 C   0  0  0  0  0  0  0  0  0  0  0  0
    9.4583  -16.7784   24.0491 O   0  0  0  0  0  0  0  0  0  0  0  0
    9.6172  -14.8449   25.2302 O   0  0  0  0  0  0  0  0  0  0  0  0
  1  2  1  0
  2  3  1  0
  3  4  1  6
  5  3  1  0
  5  7  1  0
  6  5  2  0
  8  7  1  0
  8 12  1  0
  8  9  1  1
 10  9  1  0
 11 10  2  0
 12 18  1  0
 13 12  2  0
 14 10  1  0
 16 15  1  0
 17 16  1  1
 17 19  1  0
 18 17  1  0
 19 21  1  0
 20 19  2  0
M  END
$$$$
