SDS.pdb
     RDKit          3D

 21 20  0  0  1  0  0  0  0  0999 V2000
    9.8140  -12.4523   18.8814 O   0  0  0  0  0  0  0  0  0  0  0  0
    9.8167  -13.2815   17.7678 C   0  0  0  0  0  0  0  0  0  0  0  0
    8.5377  -14.0928   17.7194 C   0  0  2  0  0  0  0  0  0  0  0  0
    7.4349  -13.2043   17.5673 N   0  0  0  0  0  0  0  0  0  0  0  0
    8.4714  -14.9758   18.8865 C   0  0  0  0  0  0  0  0  0  0  0  0
    7.6213  -14.6837   19.7858 O   0  0  0  0  0  0  0  0  0  0  0  0
    9.2796  -16.1294   19.0938 N   0  0  0  0  0  0  0  0  0  0  0  0
    9.1637  -17.0048   20.2288 C   0  0  1  0  0  0  0  0  0  0  0  0
   10.0082  -18.2577   20.0687 C   0  0  0  0  0  0  0  0  0  0  0  0
    9.8024  -19.2109   21.1924 C   0  0  0  0  0  0  0  0  0  0  0  0
   10.6960  -19.9499   21.6720 O   0  0  0  0  0  0  0  0  0  0  0  0
    9.4650  -16.3536   21.5144 C   0  0  0  0  0  0  0  0  0  0  0  0
   10.5900  -15.7643   21.5783 O   0  0  0  0  0  0  0  0  0  0  0  0
    8.4916  -19.2486   21.7216 O   0  0  0  0  0  0  0  0  0  0  0  0
    7.8213  -13.8708   25.1544 O   0  0  0  0  0  0  0  0  0  0  0  0
    7.5984  -14.7586   24.1025 C   0  0  0  0  0  0  0  0  0  0  0  0
    8.8912  -15.5201   23.7660 C   0  0  2  0  0  0  0  0  0  0  0  0
    8.6166  -16.3476   22.6284 N   0  0  0  0  0  0  0  0  0  0  0  0
    9.3856  -16.2714   24.9250 C   0  0  0  0  0  0  0  0  0  0  0  0
    9.6656  -15.6662   25.9776 O   0  0  0  0  0  0  0  0  0  0  0  0
    9.5421  -17.6347   24.8514 O   0  0  0  0  0  0  0  0  0  0  0  0
  1  2  1  0
  2  3  1  0
  3  4  1  1
  5  3  1  0
  5  7  1  0
  6  5  2  0
  8  7  1  0
  8 12  1  0
  8  9  1  6
 10  9  1  0
 11 10  2  0
 12 18  1  0
 13 12  2  0
 14 10  1  0
 16 15  1  0
 17 16  1  1
 17 19  1  0
 18 17  1  0
 19 21  1  0
 20 19  2  0
M  END
$$$$
