SDS.pdb
     RDKit          3D

 21 20  0  0  1  0  0  0  0  0999 V2000
    6.8395  -14.6048   20.8803 O   0  0  0  0  0  0  0  0  0  0  0  0
    7.6816  -14.4798   19.7836 C   0  0  0  0  0  0  0  0  0  0  0  0
    8.1062  -15.8497   19.2942 C   0  0  2  0  0  0  0  0  0  0  0  0
    6.9645  -16.5289   18.7805 N   0  0  0  0  0  0  0  0  0  0  0  0
    8.8227  -16.5525   20.3614 C   0  0  0  0  0  0  0  0  0  0  0  0
    8.1728  -17.4276   21.0160 O   0  0  0  0  0  0  0  0  0  0  0  0
   10.1823  -16.3346   20.7230 N   0  0  0  0  0  0  0  0  0  0  0  0
   10.8306  -16.9576   21.8453 C   0  0  1  0  0  0  0  0  0  0  0  0
   12.3242  -17.1214   21.6199 C   0  0  0  0  0  0  0  0  0  0  0  0
   12.9818  -17.8214   22.7562 C   0  0  0  0  0  0  0  0  0  0  0  0
   12.8798  -19.0498   22.9909 O   0  0  0  0  0  0  0  0  0  0  0  0
   10.5851  -16.2755   23.1268 C   0  0  0  0  0  0  0  0  0  0  0  0
   11.0784  -15.1078   23.2279 O   0  0  0  0  0  0  0  0  0  0  0  0
   13.7650  -17.0009   23.6007 O   0  0  0  0  0  0  0  0  0  0  0  0
    7.3729  -16.5830   25.3184 O   0  0  0  0  0  0  0  0  0  0  0  0
    8.2962  -15.5517   25.4873 C   0  0  0  0  0  0  0  0  0  0  0  0
    9.7293  -16.1070   25.4361 C   0  0  2  0  0  0  0  0  0  0  0  0
    9.8683  -16.8190   24.1999 N   0  0  0  0  0  0  0  0  0  0  0  0
   10.0267  -16.9271   26.6155 C   0  0  0  0  0  0  0  0  0  0  0  0
   10.3331  -18.1261   26.4707 O   0  0  0  0  0  0  0  0  0  0  0  0
    9.9657  -16.3785   27.8740 O   0  0  0  0  0  0  0  0  0  0  0  0
  1  2  1  0
  2  3  1  0
  3  4  1  1
  5  3  1  0
  5  7  1  0
  6  5  2  0
  8  7  1  0
  8 12  1  0
  8  9  1  6
 10  9  1  0
 11 10  2  0
 12 18  1  0
 13 12  2  0
 14 10  1  0
 16 15  1  0
 17 16  1  1
 17 19  1  0
 18 17  1  0
 19 21  1  0
 20 19  2  0
M  END
$$$$
