SDS.pdb
     RDKit          3D

 21 20  0  0  1  0  0  0  0  0999 V2000
    7.0936  -14.1362   21.1047 O   0  0  0  0  0  0  0  0  0  0  0  0
    7.6664  -14.3224   19.8538 C   0  0  0  0  0  0  0  0  0  0  0  0
    7.7864  -15.8024   19.5509 C   0  0  2  0  0  0  0  0  0  0  0  0
    6.4823  -16.3749   19.5307 N   0  0  0  0  0  0  0  0  0  0  0  0
    8.7254  -16.4216   20.4895 C   0  0  0  0  0  0  0  0  0  0  0  0
    8.2279  -17.0951   21.4464 O   0  0  0  0  0  0  0  0  0  0  0  0
   10.1442  -16.3294   20.4167 N   0  0  0  0  0  0  0  0  0  0  0  0
   11.0431  -16.9210   21.3706 C   0  0  1  0  0  0  0  0  0  0  0  0
   12.4689  -16.9778   20.8486 C   0  0  0  0  0  0  0  0  0  0  0  0
   12.5915  -17.8790   19.6711 C   0  0  0  0  0  0  0  0  0  0  0  0
   12.1107  -19.0363   19.6070 O   0  0  0  0  0  0  0  0  0  0  0  0
   11.0150  -16.2749   22.6933 C   0  0  0  0  0  0  0  0  0  0  0  0
   11.6253  -15.1620   22.7711 O   0  0  0  0  0  0  0  0  0  0  0  0
   13.3085  -17.3474   18.5744 O   0  0  0  0  0  0  0  0  0  0  0  0
    8.0589  -16.2873   25.1995 O   0  0  0  0  0  0  0  0  0  0  0  0
    9.1251  -15.3952   25.3088 C   0  0  0  0  0  0  0  0  0  0  0  0
   10.4583  -16.1306   25.0939 C   0  0  2  0  0  0  0  0  0  0  0  0
   10.3803  -16.7966   23.8272 N   0  0  0  0  0  0  0  0  0  0  0  0
   10.7544  -17.0364   26.2092 C   0  0  0  0  0  0  0  0  0  0  0  0
   10.8383  -18.2621   26.0017 O   0  0  0  0  0  0  0  0  0  0  0  0
   10.9360  -16.5380   27.4770 O   0  0  0  0  0  0  0  0  0  0  0  0
  1  2  1  0
  2  3  1  0
  3  4  1  1
  5  3  1  0
  5  7  1  0
  6  5  2  0
  8  7  1  0
  8 12  1  0
  8  9  1  6
 10  9  1  0
 11 10  2  0
 12 18  1  0
 13 12  2  0
 14 10  1  0
 16 15  1  0
 17 16  1  1
 17 19  1  0
 18 17  1  0
 19 21  1  0
 20 19  2  0
M  END
$$$$
