SDS.pdb
     RDKit          3D

 21 20  0  0  1  0  0  0  0  0999 V2000
   -4.5642  -25.4910   24.0928 O   0  0  0  0  0  0  0  0  0  0  0  0
   -4.3978  -25.2266   25.4456 C   0  0  0  0  0  0  0  0  0  0  0  0
   -4.6073  -23.7506   25.7174 C   0  0  2  0  0  0  0  0  0  0  0  0
   -3.4072  -23.0503   25.4042 N   0  0  0  0  0  0  0  0  0  0  0  0
   -5.0978  -23.5676   27.0857 C   0  0  0  0  0  0  0  0  0  0  0  0
   -4.3151  -23.9012   28.0306 O   0  0  0  0  0  0  0  0  0  0  0  0
   -6.3753  -23.0490   27.4405 N   0  0  0  0  0  0  0  0  0  0  0  0
   -6.8345  -22.8854   28.7934 C   0  0  1  0  0  0  0  0  0  0  0  0
   -8.0621  -21.9938   28.8730 C   0  0  0  0  0  0  0  0  0  0  0  0
   -8.4777  -21.7488   30.2805 C   0  0  0  0  0  0  0  0  0  0  0  0
   -9.6500  -21.8766   30.7093 O   0  0  0  0  0  0  0  0  0  0  0  0
   -7.0871  -24.1562   29.4927 C   0  0  0  0  0  0  0  0  0  0  0  0
   -7.8777  -24.9577   28.9014 O   0  0  0  0  0  0  0  0  0  0  0  0
   -7.4425  -21.3464   31.1557 O   0  0  0  0  0  0  0  0  0  0  0  0
   -5.6270  -27.7209   32.1665 O   0  0  0  0  0  0  0  0  0  0  0  0
   -5.4419  -26.4943   31.5297 C   0  0  0  0  0  0  0  0  0  0  0  0
   -6.7956  -25.7976   31.3133 C   0  0  2  0  0  0  0  0  0  0  0  0
   -6.5291  -24.5181   30.7249 N   0  0  0  0  0  0  0  0  0  0  0  0
   -7.5593  -25.7145   32.5631 C   0  0  0  0  0  0  0  0  0  0  0  0
   -7.4916  -24.6832   33.2590 O   0  0  0  0  0  0  0  0  0  0  0  0
   -8.3435  -26.7683   32.9670 O   0  0  0  0  0  0  0  0  0  0  0  0
  1  2  1  0
  2  3  1  0
  3  4  1  1
  5  3  1  0
  5  7  1  0
  6  5  2  0
  8  7  1  0
  8 12  1  0
  8  9  1  6
 10  9  1  0
 11 10  2  0
 12 18  1  0
 13 12  2  0
 14 10  1  0
 16 15  1  0
 17 16  1  1
 17 19  1  0
 18 17  1  0
 19 21  1  0
 20 19  2  0
M  END
$$$$
