VNR.pdb
     RDKit          3D

 27 26  0  0  1  0  0  0  0  0999 V2000
   26.2610  -24.4637  -18.6694 C   0  0  0  0  0  0  0  0  0  0  0  0
   27.0303  -25.6243  -18.0786 C   0  0  1  0  0  0  0  0  0  0  0  0
   27.5720  -26.5118  -19.1511 C   0  0  0  0  0  0  0  0  0  0  0  0
   28.1273  -25.0817  -17.1901 C   0  0  2  0  0  0  0  0  0  0  0  0
   28.7654  -26.1002  -16.4154 N   0  0  0  0  0  0  0  0  0  0  0  0
   27.5258  -24.0900  -16.2476 C   0  0  0  0  0  0  0  0  0  0  0  0
   26.8622  -24.4825  -15.2391 O   0  0  0  0  0  0  0  0  0  0  0  0
   27.5474  -18.8703  -13.9048 N   0  0  0  0  0  0  0  0  0  0  0  0
   27.0895  -19.2157  -15.1928 C   0  0  0  0  0  0  0  0  0  0  0  0
   26.1500  -18.5872  -15.7368 O   0  0  0  0  0  0  0  0  0  0  0  0
   27.7247  -20.3378  -15.9191 C   0  0  0  0  0  0  0  0  0  0  0  0
   27.0758  -21.6736  -15.6397 C   0  0  2  0  0  0  0  0  0  0  0  0
   27.6758  -22.6939  -16.4479 N   0  0  0  0  0  0  0  0  0  0  0  0
   25.6017  -21.5602  -15.9090 C   0  0  0  0  0  0  0  0  0  0  0  0
   25.1883  -21.5469  -17.0864 O   0  0  0  0  0  0  0  0  0  0  0  0
   19.6986  -25.6796  -11.9873 N   0  0  0  0  0  0  0  0  0  0  0  0
   18.8446  -24.6504  -12.4718 C   0  0  0  0  0  0  0  0  0  0  0  0
   17.6909  -24.4607  -11.9098 N   0  0  0  0  0  0  0  0  0  0  0  0
   19.2223  -23.8183  -13.5619 N   0  0  0  0  0  0  0  0  0  0  0  0
   20.4028  -24.0753  -14.3476 C   0  0  0  0  0  0  0  0  0  0  0  0
   21.1619  -22.8856  -14.6841 C   0  0  0  0  0  0  0  0  0  0  0  0
   22.6002  -22.6997  -14.7250 C   0  0  0  0  0  0  0  0  0  0  0  0
   23.1971  -21.4186  -15.0821 C   0  0  2  0  0  0  0  0  0  0  0  0
   24.6800  -21.4689  -14.8573 N   0  0  0  0  0  0  0  0  0  0  0  0
   22.8212  -20.3022  -14.1357 C   0  0  0  0  0  0  0  0  0  0  0  0
   23.4996  -19.9639  -13.1946 O   0  0  0  0  0  0  0  0  0  0  0  0
   21.6216  -19.6134  -14.3436 O   0  0  0  0  0  0  0  0  0  0  0  0
  2  3  1  6
  2  1  1  0
  4  6  1  0
  4  2  1  0
  4  5  1  1
  6  7  2  0
  9 10  2  0
  9  8  1  0
 11  9  1  0
 12 11  1  6
 13  6  1  0
 13 12  1  0
 14 15  2  0
 14 12  1  0
 16 17  1  0
 17 18  2  0
 19 17  1  0
 19 20  1  0
 20 21  1  0
 21 22  1  0
 23 22  1  1
 23 24  1  0
 24 14  1  0
 25 27  1  0
 25 23  1  0
 26 25  2  0
M  END
$$$$
