VNR.pdb
     RDKit          3D

 27 26  0  0  1  0  0  0  0  0999 V2000
   25.7804  -20.9774   -9.5518 C   0  0  0  0  0  0  0  0  0  0  0  0
   24.9905  -21.3624  -10.7829 C   0  0  1  0  0  0  0  0  0  0  0  0
   23.6858  -20.6367  -10.8334 C   0  0  0  0  0  0  0  0  0  0  0  0
   25.8332  -21.0904  -12.0090 C   0  0  2  0  0  0  0  0  0  0  0  0
   26.1254  -19.7013  -12.1816 N   0  0  0  0  0  0  0  0  0  0  0  0
   25.0823  -21.5598  -13.2129 C   0  0  0  0  0  0  0  0  0  0  0  0
   24.4073  -20.7405  -13.9091 O   0  0  0  0  0  0  0  0  0  0  0  0
   23.2819  -24.6568  -16.9833 N   0  0  0  0  0  0  0  0  0  0  0  0
   24.3943  -25.3036  -16.4071 C   0  0  0  0  0  0  0  0  0  0  0  0
   24.8952  -26.3253  -16.9352 O   0  0  0  0  0  0  0  0  0  0  0  0
   24.9845  -24.7721  -15.1584 C   0  0  0  0  0  0  0  0  0  0  0  0
   24.3620  -23.4699  -14.7107 C   0  0  2  0  0  0  0  0  0  0  0  0
   25.0998  -22.9208  -13.6116 N   0  0  0  0  0  0  0  0  0  0  0  0
   22.9294  -23.7237  -14.3342 C   0  0  0  0  0  0  0  0  0  0  0  0
   22.6672  -24.3224  -13.2711 O   0  0  0  0  0  0  0  0  0  0  0  0
   15.8259  -22.7096  -10.6858 N   0  0  0  0  0  0  0  0  0  0  0  0
   16.6965  -23.7221  -11.1756 C   0  0  0  0  0  0  0  0  0  0  0  0
   16.6904  -24.8938  -10.6186 N   0  0  0  0  0  0  0  0  0  0  0  0
   17.5791  -23.4848  -12.2655 N   0  0  0  0  0  0  0  0  0  0  0  0
   17.6442  -22.2096  -12.9338 C   0  0  0  0  0  0  0  0  0  0  0  0
   18.3633  -22.2362  -14.1936 C   0  0  0  0  0  0  0  0  0  0  0  0
   19.7928  -22.3124  -14.4292 C   0  0  0  0  0  0  0  0  0  0  0  0
   20.4375  -23.5562  -14.8323 C   0  0  2  0  0  0  0  0  0  0  0  0
   21.8794  -23.2983  -15.1589 N   0  0  0  0  0  0  0  0  0  0  0  0
   19.9502  -24.0745  -16.1653 C   0  0  0  0  0  0  0  0  0  0  0  0
   20.3729  -23.6892  -17.2298 O   0  0  0  0  0  0  0  0  0  0  0  0
   18.9508  -25.0531  -16.1870 O   0  0  0  0  0  0  0  0  0  0  0  0
  2  3  1  6
  2  1  1  0
  4  6  1  0
  4  2  1  0
  4  5  1  6
  6  7  2  0
  9 10  2  0
  9  8  1  0
 11  9  1  0
 12 11  1  1
 13  6  1  0
 13 12  1  0
 14 15  2  0
 14 12  1  0
 16 17  1  0
 17 18  2  0
 19 17  1  0
 19 20  1  0
 20 21  1  0
 21 22  1  0
 23 22  1  6
 23 24  1  0
 24 14  1  0
 25 27  1  0
 25 23  1  0
 26 25  2  0
M  END
$$$$
