VNR.pdb
     RDKit          3D

 27 26  0  0  1  0  0  0  0  0999 V2000
   25.6634  -21.3541  -17.1104 C   0  0  0  0  0  0  0  0  0  0  0  0
   27.0242  -20.9307  -16.6035 C   0  0  1  0  0  0  0  0  0  0  0  0
   26.9754  -19.5590  -16.0140 C   0  0  0  0  0  0  0  0  0  0  0  0
   27.5139  -21.9551  -15.6045 C   0  0  2  0  0  0  0  0  0  0  0  0
   27.6017  -23.2701  -16.1594 N   0  0  0  0  0  0  0  0  0  0  0  0
   26.5532  -21.9974  -14.4604 C   0  0  0  0  0  0  0  0  0  0  0  0
   25.4797  -22.6693  -14.5472 O   0  0  0  0  0  0  0  0  0  0  0  0
   24.3873  -20.9058   -9.8356 N   0  0  0  0  0  0  0  0  0  0  0  0
   25.7159  -20.4373   -9.7772 C   0  0  0  0  0  0  0  0  0  0  0  0
   26.1872  -19.9552   -8.7194 O   0  0  0  0  0  0  0  0  0  0  0  0
   26.5726  -20.5134  -10.9815 C   0  0  0  0  0  0  0  0  0  0  0  0
   25.8961  -21.1849  -12.1541 C   0  0  2  0  0  0  0  0  0  0  0  0
   26.8077  -21.2956  -13.2544 N   0  0  0  0  0  0  0  0  0  0  0  0
   24.6794  -20.3874  -12.5313 C   0  0  0  0  0  0  0  0  0  0  0  0
   24.8097  -19.3399  -13.1969 O   0  0  0  0  0  0  0  0  0  0  0  0
   18.2287  -24.4004  -15.4189 N   0  0  0  0  0  0  0  0  0  0  0  0
   18.3414  -23.4976  -16.5122 C   0  0  0  0  0  0  0  0  0  0  0  0
   17.5834  -23.6574  -17.5529 N   0  0  0  0  0  0  0  0  0  0  0  0
   19.2674  -22.4180  -16.4967 N   0  0  0  0  0  0  0  0  0  0  0  0
   20.5894  -22.5518  -15.9387 C   0  0  0  0  0  0  0  0  0  0  0  0
   20.8700  -21.6331  -14.8514 C   0  0  0  0  0  0  0  0  0  0  0  0
   22.0654  -21.5175  -14.0373 C   0  0  0  0  0  0  0  0  0  0  0  0
   22.1754  -20.5257  -12.9746 C   0  0  2  0  0  0  0  0  0  0  0  0
   23.3968  -20.8011  -12.1473 N   0  0  0  0  0  0  0  0  0  0  0  0
   21.1020  -20.6618  -11.9198 C   0  0  0  0  0  0  0  0  0  0  0  0
   19.9577  -20.3069  -12.0778 O   0  0  0  0  0  0  0  0  0  0  0  0
   21.4352  -21.2247  -10.6833 O   0  0  0  0  0  0  0  0  0  0  0  0
  2  3  1  1
  2  1  1  0
  4  6  1  0
  4  2  1  0
  4  5  1  6
  6  7  2  0
  9 10  2  0
  9  8  1  0
 11  9  1  0
 12 11  1  1
 13  6  1  0
 13 12  1  0
 14 15  2  0
 14 12  1  0
 16 17  1  0
 17 18  2  0
 19 17  1  0
 19 20  1  0
 20 21  1  0
 21 22  1  0
 23 22  1  6
 23 24  1  0
 24 14  1  0
 25 27  1  0
 25 23  1  0
 26 25  2  0
M  END
$$$$
