VNR.pdb
     RDKit          3D

 27 26  0  0  1  0  0  0  0  0999 V2000
   28.7071  -18.4733  -22.5908 C   0  0  0  0  0  0  0  0  0  0  0  0
   27.4236  -17.7195  -22.8598 C   0  0  1  0  0  0  0  0  0  0  0  0
   26.2681  -18.6564  -22.9957 C   0  0  0  0  0  0  0  0  0  0  0  0
   27.2055  -16.7147  -21.7507 C   0  0  2  0  0  0  0  0  0  0  0  0
   27.1742  -17.3195  -20.4554 N   0  0  0  0  0  0  0  0  0  0  0  0
   25.8933  -16.0363  -21.9781 C   0  0  0  0  0  0  0  0  0  0  0  0
   25.6973  -15.3520  -23.0292 O   0  0  0  0  0  0  0  0  0  0  0  0
   20.3194  -16.0743  -21.9091 N   0  0  0  0  0  0  0  0  0  0  0  0
   21.1124  -15.8498  -20.7651 C   0  0  0  0  0  0  0  0  0  0  0  0
   20.6898  -15.1559  -19.8094 O   0  0  0  0  0  0  0  0  0  0  0  0
   22.4670  -16.4407  -20.6860 C   0  0  0  0  0  0  0  0  0  0  0  0
   23.5546  -15.5072  -21.1649 C   0  0  2  0  0  0  0  0  0  0  0  0
   24.8369  -16.1345  -21.0369 N   0  0  0  0  0  0  0  0  0  0  0  0
   23.4864  -14.2361  -20.3661 C   0  0  0  0  0  0  0  0  0  0  0  0
   23.9134  -14.2200  -19.1936 O   0  0  0  0  0  0  0  0  0  0  0  0
   20.7406   -6.2074  -23.3222 N   0  0  0  0  0  0  0  0  0  0  0  0
   20.3670   -7.5702  -23.4846 C   0  0  0  0  0  0  0  0  0  0  0  0
   19.6030   -7.9089  -24.4769 N   0  0  0  0  0  0  0  0  0  0  0  0
   20.8101   -8.5782  -22.5841 N   0  0  0  0  0  0  0  0  0  0  0  0
   21.6426   -8.2764  -21.4471 C   0  0  0  0  0  0  0  0  0  0  0  0
   22.0132   -9.4366  -20.6587 C   0  0  0  0  0  0  0  0  0  0  0  0
   22.6467  -10.6693  -21.0876 C   0  0  0  0  0  0  0  0  0  0  0  0
   22.8874  -11.7693  -20.1617 C   0  0  2  0  0  0  0  0  0  0  0  0
   22.9499  -13.0645  -20.9169 N   0  0  0  0  0  0  0  0  0  0  0  0
   21.7148  -12.0477  -19.2503 C   0  0  0  0  0  0  0  0  0  0  0  0
   21.5824  -11.5505  -18.1568 O   0  0  0  0  0  0  0  0  0  0  0  0
   20.7188  -12.9314  -19.6791 O   0  0  0  0  0  0  0  0  0  0  0  0
  2  3  1  1
  2  1  1  0
  4  6  1  0
  4  2  1  0
  4  5  1  1
  6  7  2  0
  9 10  2  0
  9  8  1  0
 11  9  1  0
 12 11  1  1
 13  6  1  0
 13 12  1  0
 14 15  2  0
 14 12  1  0
 16 17  1  0
 17 18  2  0
 19 17  1  0
 19 20  1  0
 20 21  1  0
 21 22  1  0
 23 22  1  6
 23 24  1  0
 24 14  1  0
 25 27  1  0
 25 23  1  0
 26 25  2  0
M  END
$$$$
