YTP.pdb
     RDKit          3D

 27 28  0  0  1  0  0  0  0  0999 V2000
   22.5434  -20.9629   -7.6167 O   0  0  0  0  0  0  0  0  0  0  0  0
   23.3665  -20.7547   -8.6962 C   0  0  0  0  0  0  0  0  0  0  0  0
   24.7251  -20.8127   -8.5398 C   0  0  0  0  0  0  0  0  0  0  0  0
   25.5908  -20.6058   -9.6153 C   0  0  0  0  0  0  0  0  0  0  0  0
   25.0083  -20.3420  -10.8345 C   0  0  0  0  0  0  0  0  0  0  0  0
   25.8809  -20.1091  -12.0355 C   0  0  0  0  0  0  0  0  0  0  0  0
   25.5180  -21.2167  -13.0200 C   0  0  2  0  0  0  0  0  0  0  0  0
   25.9625  -22.4987  -12.5677 N   0  0  0  0  0  0  0  0  0  0  0  0
   26.0668  -20.8752  -14.3674 C   0  0  0  0  0  0  0  0  0  0  0  0
   27.2900  -21.1096  -14.5811 O   0  0  0  0  0  0  0  0  0  0  0  0
   23.6423  -20.2798  -11.0104 C   0  0  0  0  0  0  0  0  0  0  0  0
   22.8363  -20.4898   -9.9252 C   0  0  0  0  0  0  0  0  0  0  0  0
   25.2368  -22.4592  -17.2778 C   0  0  0  0  0  0  0  0  0  0  0  0
   25.1588  -20.9942  -17.7013 C   0  0  1  0  0  0  0  0  0  0  0  0
   23.7321  -20.7364  -17.5023 O   0  0  0  0  0  0  0  0  0  0  0  0
   25.8425  -20.0918  -16.7762 C   0  0  2  0  0  0  0  0  0  0  0  0
   25.2998  -20.3149  -15.3924 N   0  0  0  0  0  0  0  0  0  0  0  0
   25.9734  -18.6751  -17.0101 C   0  0  0  0  0  0  0  0  0  0  0  0
   24.7419  -18.0842  -16.9771 O   0  0  0  0  0  0  0  0  0  0  0  0
   26.9559  -17.7256  -17.2515 N   0  0  0  0  0  0  0  0  0  0  0  0
   28.2839  -17.7756  -16.4306 C   0  0  0  0  0  0  0  0  0  0  0  0
   29.2730  -17.6965  -17.5987 C   0  0  0  0  0  0  0  0  0  0  0  0
   28.4753  -17.1048  -18.7922 C   0  0  0  0  0  0  0  0  0  0  0  0
   27.2928  -16.5718  -18.0045 C   0  0  1  0  0  0  0  0  0  0  0  0
   26.3680  -15.6983  -18.6310 C   0  0  0  0  0  0  0  0  0  0  0  0
   25.4263  -16.2268  -19.5294 O   0  0  0  0  0  0  0  0  0  0  0  0
   26.2966  -14.4392  -18.4502 O   0  0  0  0  0  0  0  0  0  0  0  0
  2 12  2  0
  2  1  1  0
  3  2  1  0
  4  5  1  0
  4  3  2  0
  5 11  2  0
  6  7  1  0
  6  5  1  0
  7  9  1  0
  7  8  1  1
  9 17  1  0
  9 10  2  0
 11 12  1  0
 14 13  1  1
 15 14  1  0
 16 14  1  0
 16 18  1  0
 16 17  1  1
 18 19  2  0
 20 21  1  0
 20 18  1  0
 22 21  1  0
 23 24  1  0
 23 22  1  0
 24 20  1  0
 24 25  1  6
 25 26  1  0
 27 25  2  0
M  END
$$$$
