YTP.pdb
     RDKit          3D

 27 28  0  0  1  0  0  0  0  0999 V2000
   21.7449  -20.9011   -8.3840 O   0  0  0  0  0  0  0  0  0  0  0  0
   22.8195  -20.6113   -9.1884 C   0  0  0  0  0  0  0  0  0  0  0  0
   22.6599  -20.5554  -10.5467 C   0  0  0  0  0  0  0  0  0  0  0  0
   23.7307  -20.2640  -11.3937 C   0  0  0  0  0  0  0  0  0  0  0  0
   24.9486  -20.0370  -10.7932 C   0  0  0  0  0  0  0  0  0  0  0  0
   26.1446  -19.7179  -11.6452 C   0  0  0  0  0  0  0  0  0  0  0  0
   26.4740  -21.0130  -12.3813 C   0  0  2  0  0  0  0  0  0  0  0  0
   27.1906  -21.9309  -11.5509 N   0  0  0  0  0  0  0  0  0  0  0  0
   27.2204  -20.6891  -13.6348 C   0  0  0  0  0  0  0  0  0  0  0  0
   28.4026  -20.2573  -13.5206 O   0  0  0  0  0  0  0  0  0  0  0  0
   25.1277  -20.0891   -9.4272 C   0  0  0  0  0  0  0  0  0  0  0  0
   24.0471  -20.3788   -8.6400 C   0  0  0  0  0  0  0  0  0  0  0  0
   28.7356  -21.6041  -18.0030 C   0  0  0  0  0  0  0  0  0  0  0  0
   27.6773  -21.7489  -16.9119 C   0  0  1  0  0  0  0  0  0  0  0  0
   28.3738  -22.6403  -15.9836 O   0  0  0  0  0  0  0  0  0  0  0  0
   27.4541  -20.5145  -16.1609 C   0  0  2  0  0  0  0  0  0  0  0  0
   26.6794  -20.8394  -14.9145 N   0  0  0  0  0  0  0  0  0  0  0  0
   26.9127  -19.3178  -16.7555 C   0  0  0  0  0  0  0  0  0  0  0  0
   25.5690  -19.4661  -16.9545 O   0  0  0  0  0  0  0  0  0  0  0  0
   27.3264  -18.0640  -17.1824 N   0  0  0  0  0  0  0  0  0  0  0  0
   28.4452  -17.3179  -16.3877 C   0  0  0  0  0  0  0  0  0  0  0  0
   29.3572  -16.9601  -17.5664 C   0  0  0  0  0  0  0  0  0  0  0  0
   28.4659  -17.0450  -18.8349 C   0  0  0  0  0  0  0  0  0  0  0  0
   27.1174  -17.0379  -18.1390 C   0  0  1  0  0  0  0  0  0  0  0  0
   25.9355  -16.8494  -18.8996 C   0  0  0  0  0  0  0  0  0  0  0  0
   25.5860  -17.8025  -19.8705 O   0  0  0  0  0  0  0  0  0  0  0  0
   25.1257  -15.8729  -18.7832 O   0  0  0  0  0  0  0  0  0  0  0  0
  2 12  2  0
  2  1  1  0
  3  2  1  0
  4  5  1  0
  4  3  2  0
  5 11  2  0
  6  7  1  0
  6  5  1  0
  7  9  1  0
  7  8  1  1
  9 17  1  0
  9 10  2  0
 11 12  1  0
 14 13  1  6
 15 14  1  0
 16 14  1  0
 16 18  1  0
 16 17  1  1
 18 19  2  0
 20 21  1  0
 20 18  1  0
 22 21  1  0
 23 24  1  0
 23 22  1  0
 24 20  1  0
 24 25  1  6
 25 26  1  0
 27 25  2  0
M  END
$$$$
