YTP.pdb
     RDKit          3D

 27 28  0  0  1  0  0  0  0  0999 V2000
   26.8789  -20.1520   -4.3636 O   0  0  0  0  0  0  0  0  0  0  0  0
   26.9276  -20.0028   -5.7279 C   0  0  0  0  0  0  0  0  0  0  0  0
   27.9271  -19.2617   -6.2983 C   0  0  0  0  0  0  0  0  0  0  0  0
   28.0064  -19.0893   -7.6814 C   0  0  0  0  0  0  0  0  0  0  0  0
   27.0313  -19.7010   -8.4365 C   0  0  0  0  0  0  0  0  0  0  0  0
   27.0557  -19.5569   -9.9321 C   0  0  0  0  0  0  0  0  0  0  0  0
   26.8771  -20.9706  -10.4775 C   0  0  2  0  0  0  0  0  0  0  0  0
   27.9240  -21.8446  -10.0466 N   0  0  0  0  0  0  0  0  0  0  0  0
   26.7715  -20.9124  -11.9671 C   0  0  0  0  0  0  0  0  0  0  0  0
   27.8155  -20.6288  -12.6202 O   0  0  0  0  0  0  0  0  0  0  0  0
   26.0175  -20.4509   -7.8793 C   0  0  0  0  0  0  0  0  0  0  0  0
   25.9834  -20.5900   -6.5188 C   0  0  0  0  0  0  0  0  0  0  0  0
   24.7849  -22.6141  -16.0810 C   0  0  0  0  0  0  0  0  0  0  0  0
   24.7482  -22.3649  -14.5750 C   0  0  1  0  0  0  0  0  0  0  0  0
   25.5094  -23.5195  -14.0967 O   0  0  0  0  0  0  0  0  0  0  0  0
   25.5283  -21.1976  -14.1669 C   0  0  2  0  0  0  0  0  0  0  0  0
   25.5856  -21.1543  -12.6656 N   0  0  0  0  0  0  0  0  0  0  0  0
   25.2793  -19.8692  -14.6690 C   0  0  0  0  0  0  0  0  0  0  0  0
   24.0183  -19.4721  -14.3240 O   0  0  0  0  0  0  0  0  0  0  0  0
   25.9194  -18.8682  -15.3857 N   0  0  0  0  0  0  0  0  0  0  0  0
   27.3438  -18.4042  -14.9433 C   0  0  0  0  0  0  0  0  0  0  0  0
   28.0430  -18.4978  -16.3040 C   0  0  0  0  0  0  0  0  0  0  0  0
   26.9112  -18.4687  -17.3666 C   0  0  0  0  0  0  0  0  0  0  0  0
   25.7993  -17.9596  -16.4682 C   0  0  1  0  0  0  0  0  0  0  0  0
   24.5797  -17.5183  -17.0415 C   0  0  0  0  0  0  0  0  0  0  0  0
   23.6809  -18.4675  -17.5556 O   0  0  0  0  0  0  0  0  0  0  0  0
   24.1991  -16.3061  -17.1347 O   0  0  0  0  0  0  0  0  0  0  0  0
  2 12  2  0
  2  1  1  0
  3  2  1  0
  4  5  1  0
  4  3  2  0
  5 11  2  0
  6  7  1  0
  6  5  1  0
  7  9  1  0
  7  8  1  6
  9 17  1  0
  9 10  2  0
 11 12  1  0
 14 13  1  6
 15 14  1  0
 16 14  1  0
 16 18  1  0
 16 17  1  1
 18 19  2  0
 20 21  1  0
 20 18  1  0
 22 21  1  0
 23 24  1  0
 23 22  1  0
 24 20  1  0
 24 25  1  6
 25 26  1  0
 27 25  2  0
M  END
$$$$
