YTP.pdb
     RDKit          3D

 27 28  0  0  1  0  0  0  0  0999 V2000
   28.0375  -19.8187   -5.7647 O   0  0  0  0  0  0  0  0  0  0  0  0
   27.5215  -20.1229   -7.0005 C   0  0  0  0  0  0  0  0  0  0  0  0
   28.3056  -20.0028   -8.1160 C   0  0  0  0  0  0  0  0  0  0  0  0
   27.8131  -20.3032   -9.3873 C   0  0  0  0  0  0  0  0  0  0  0  0
   26.5044  -20.7245   -9.4585 C   0  0  0  0  0  0  0  0  0  0  0  0
   25.9093  -21.0648  -10.7957 C   0  0  0  0  0  0  0  0  0  0  0  0
   25.0804  -19.8465  -11.1914 C   0  0  2  0  0  0  0  0  0  0  0  0
   23.8198  -19.8173  -10.5163 N   0  0  0  0  0  0  0  0  0  0  0  0
   24.9226  -19.8216  -12.6772 C   0  0  0  0  0  0  0  0  0  0  0  0
   23.7717  -20.0420  -13.1504 O   0  0  0  0  0  0  0  0  0  0  0  0
   25.7002  -20.8513   -8.3458 C   0  0  0  0  0  0  0  0  0  0  0  0
   26.2295  -20.5445   -7.1222 C   0  0  0  0  0  0  0  0  0  0  0  0
   27.5572  -17.1307  -14.0957 C   0  0  0  0  0  0  0  0  0  0  0  0
   27.0811  -18.1298  -15.1477 C   0  0  1  0  0  0  0  0  0  0  0  0
   28.0781  -19.1876  -14.9789 O   0  0  0  0  0  0  0  0  0  0  0  0
   25.8023  -18.7531  -14.8104 C   0  0  2  0  0  0  0  0  0  0  0  0
   25.9760  -19.5686  -13.5598 N   0  0  0  0  0  0  0  0  0  0  0  0
   25.0174  -19.5036  -15.7590 C   0  0  0  0  0  0  0  0  0  0  0  0
   25.6350  -20.6907  -16.0352 O   0  0  0  0  0  0  0  0  0  0  0  0
   23.8320  -19.4009  -16.4726 N   0  0  0  0  0  0  0  0  0  0  0  0
   22.6796  -18.5066  -15.9138 C   0  0  0  0  0  0  0  0  0  0  0  0
   22.3917  -17.6936  -17.1808 C   0  0  0  0  0  0  0  0  0  0  0  0
   22.9731  -18.5216  -18.3587 C   0  0  0  0  0  0  0  0  0  0  0  0
   23.1306  -19.8403  -17.6245 C   0  0  1  0  0  0  0  0  0  0  0  0
   23.4079  -21.0227  -18.3563 C   0  0  0  0  0  0  0  0  0  0  0  0
   24.7427  -21.3559  -18.6402 O   0  0  0  0  0  0  0  0  0  0  0  0
   22.5397  -21.8470  -18.7920 O   0  0  0  0  0  0  0  0  0  0  0  0
  2 12  2  0
  2  1  1  0
  3  2  1  0
  4  5  1  0
  4  3  2  0
  5 11  2  0
  6  7  1  0
  6  5  1  0
  7  9  1  0
  7  8  1  1
  9 17  1  0
  9 10  2  0
 11 12  1  0
 14 13  1  1
 15 14  1  0
 16 14  1  0
 16 18  1  0
 16 17  1  1
 18 19  2  0
 20 21  1  0
 20 18  1  0
 22 21  1  0
 23 24  1  0
 23 22  1  0
 24 20  1  0
 24 25  1  6
 25 26  1  0
 27 25  2  0
M  END
$$$$
