NKT.pdb
     RDKit          3D

 25 24  0  0  1  0  0  0  0  0999 V2000
   18.2596  -11.3855  -13.1846 N   0  0  0  0  0  0  0  0  0  0  0  0
   18.4105  -10.0237  -13.5258 C   0  0  0  0  0  0  0  0  0  0  0  0
   19.2484   -9.6665  -14.3713 O   0  0  0  0  0  0  0  0  0  0  0  0
   17.5586   -8.9911  -12.8679 C   0  0  0  0  0  0  0  0  0  0  0  0
   16.7078   -9.6120  -11.7649 C   0  0  2  0  0  0  0  0  0  0  0  0
   15.7001  -10.4699  -12.3444 N   0  0  0  0  0  0  0  0  0  0  0  0
   16.0151   -8.4667  -11.0811 C   0  0  0  0  0  0  0  0  0  0  0  0
   15.1602   -7.8302  -11.7423 O   0  0  0  0  0  0  0  0  0  0  0  0
   16.2838   -8.0913   -9.7521 N   0  0  0  0  0  0  0  0  0  0  0  0
   15.4616   -7.0663   -9.0401 C   0  0  1  0  0  0  0  0  0  0  0  0
   15.1351   -7.6249   -7.6890 C   0  0  0  0  0  0  0  0  0  0  0  0
   14.0699   -8.6591   -7.6766 C   0  0  0  0  0  0  0  0  0  0  0  0
   12.7243   -8.0940   -8.1281 C   0  0  0  0  0  0  0  0  0  0  0  0
   11.6476   -9.1396   -8.1121 C   0  0  0  0  0  0  0  0  0  0  0  0
   10.4227   -8.5703   -8.6872 N   0  0  0  0  0  0  0  0  0  0  0  0
   16.2325   -5.7874   -9.0219 C   0  0  0  0  0  0  0  0  0  0  0  0
   17.3297   -5.7839   -8.4173 O   0  0  0  0  0  0  0  0  0  0  0  0
   17.5761   -3.9182  -11.7540 C   0  0  0  0  0  0  0  0  0  0  0  0
   16.6109   -2.9058  -11.1555 C   0  0  1  0  0  0  0  0  0  0  0  0
   15.4401   -3.0394  -11.9606 O   0  0  0  0  0  0  0  0  0  0  0  0
   16.2711   -3.3191   -9.7594 C   0  0  2  0  0  0  0  0  0  0  0  0
   15.7571   -4.6367   -9.6558 N   0  0  0  0  0  0  0  0  0  0  0  0
   15.6566   -2.2602   -8.9237 C   0  0  0  0  0  0  0  0  0  0  0  0
   16.1791   -1.0010   -8.6961 O   0  0  0  0  0  0  0  0  0  0  0  0
   14.5407   -2.4687   -8.3425 O   0  0  0  0  0  0  0  0  0  0  0  0
  1  2  1  0
  2  3  2  0
  4  2  1  0
  4  5  1  0
  5  7  1  0
  5  6  1  6
  7  8  2  0
  9 10  1  0
  9  7  1  0
 10 11  1  1
 11 12  1  0
 13 12  1  0
 13 14  1  0
 14 15  1  0
 16 17  2  0
 16 10  1  0
 19 18  1  6
 19 21  1  0
 20 19  1  0
 21 22  1  6
 21 23  1  0
 22 16  1  0
 23 24  1  0
 25 23  2  0
M  END
$$$$
