NKT.pdb
     RDKit          3D

 25 24  0  0  1  0  0  0  0  0999 V2000
   28.3286  -19.6821  -14.9564 N   0  0  0  0  0  0  0  0  0  0  0  0
   27.2670  -18.8156  -15.2967 C   0  0  0  0  0  0  0  0  0  0  0  0
   27.4879  -17.7101  -15.8196 O   0  0  0  0  0  0  0  0  0  0  0  0
   25.8572  -19.2222  -15.0285 C   0  0  0  0  0  0  0  0  0  0  0  0
   25.8085  -20.5497  -14.2792 C   0  0  2  0  0  0  0  0  0  0  0  0
   26.2919  -21.6129  -15.1297 N   0  0  0  0  0  0  0  0  0  0  0  0
   24.3574  -20.8059  -13.9832 C   0  0  0  0  0  0  0  0  0  0  0  0
   23.6667  -21.3322  -14.8883 O   0  0  0  0  0  0  0  0  0  0  0  0
   23.7577  -20.4850  -12.7516 N   0  0  0  0  0  0  0  0  0  0  0  0
   22.3589  -20.8971  -12.4240 C   0  0  1  0  0  0  0  0  0  0  0  0
   22.3215  -21.2003  -10.9574 C   0  0  0  0  0  0  0  0  0  0  0  0
   21.0481  -21.7868  -10.4687 C   0  0  0  0  0  0  0  0  0  0  0  0
   21.1101  -22.1176   -8.9786 C   0  0  0  0  0  0  0  0  0  0  0  0
   19.8552  -22.7912   -8.5050 C   0  0  0  0  0  0  0  0  0  0  0  0
   19.9532  -23.0169   -7.0578 N   0  0  0  0  0  0  0  0  0  0  0  0
   21.4408  -19.8043  -12.8634 C   0  0  0  0  0  0  0  0  0  0  0  0
   21.7212  -18.6368  -12.5061 O   0  0  0  0  0  0  0  0  0  0  0  0
   20.9124  -18.3533  -15.7944 C   0  0  0  0  0  0  0  0  0  0  0  0
   19.4873  -18.8490  -15.5984 C   0  0  1  0  0  0  0  0  0  0  0  0
   19.4316  -20.0363  -16.3884 O   0  0  0  0  0  0  0  0  0  0  0  0
   19.2935  -19.2283  -14.1653 C   0  0  2  0  0  0  0  0  0  0  0  0
   20.3134  -20.0656  -13.6461 N   0  0  0  0  0  0  0  0  0  0  0  0
   17.8913  -19.5087  -13.7748 C   0  0  0  0  0  0  0  0  0  0  0  0
   16.7982  -18.7066  -14.0442 O   0  0  0  0  0  0  0  0  0  0  0  0
   17.6041  -20.5751  -13.1370 O   0  0  0  0  0  0  0  0  0  0  0  0
  1  2  1  0
  2  3  2  0
  4  2  1  0
  4  5  1  0
  5  7  1  0
  5  6  1  6
  7  8  2  0
  9 10  1  0
  9  7  1  0
 10 11  1  1
 11 12  1  0
 13 12  1  0
 13 14  1  0
 14 15  1  0
 16 17  2  0
 16 10  1  0
 19 18  1  1
 19 21  1  0
 20 19  1  0
 21 22  1  6
 21 23  1  0
 22 16  1  0
 23 24  1  0
 25 23  2  0
M  END
$$$$
