NKT.pdb
     RDKit          3D

 25 24  0  0  1  0  0  0  0  0999 V2000
   15.8412  -11.0580  -18.2057 N   0  0  0  0  0  0  0  0  0  0  0  0
   15.6553   -9.9495  -17.3511 C   0  0  0  0  0  0  0  0  0  0  0  0
   14.7061   -9.1653  -17.5200 O   0  0  0  0  0  0  0  0  0  0  0  0
   16.6058   -9.7062  -16.2276 C   0  0  0  0  0  0  0  0  0  0  0  0
   17.6824  -10.7856  -16.1844 C   0  0  2  0  0  0  0  0  0  0  0  0
   17.2444  -11.8848  -15.3554 N   0  0  0  0  0  0  0  0  0  0  0  0
   18.8793  -10.1516  -15.5326 C   0  0  0  0  0  0  0  0  0  0  0  0
   18.7818   -9.8421  -14.3210 O   0  0  0  0  0  0  0  0  0  0  0  0
   20.0819   -9.8995  -16.2178 N   0  0  0  0  0  0  0  0  0  0  0  0
   21.2737   -9.3150  -15.5310 C   0  0  1  0  0  0  0  0  0  0  0  0
   22.4495  -10.1744  -15.8822 C   0  0  0  0  0  0  0  0  0  0  0  0
   23.7501   -9.7163  -15.3317 C   0  0  0  0  0  0  0  0  0  0  0  0
   24.9166  -10.5455  -15.8660 C   0  0  0  0  0  0  0  0  0  0  0  0
   26.2332  -10.0661  -15.3278 C   0  0  0  0  0  0  0  0  0  0  0  0
   27.3008  -10.9346  -15.8384 N   0  0  0  0  0  0  0  0  0  0  0  0
   21.3927   -7.8862  -15.9487 C   0  0  0  0  0  0  0  0  0  0  0  0
   21.6420   -7.6566  -17.1548 O   0  0  0  0  0  0  0  0  0  0  0  0
   19.2375   -5.4224  -16.3760 C   0  0  0  0  0  0  0  0  0  0  0  0
   20.0782   -4.7046  -15.3306 C   0  0  1  0  0  0  0  0  0  0  0  0
   19.3178   -4.8461  -14.1312 O   0  0  0  0  0  0  0  0  0  0  0  0
   21.3712   -5.4348  -15.1564 C   0  0  2  0  0  0  0  0  0  0  0  0
   21.2294   -6.8406  -15.0366 N   0  0  0  0  0  0  0  0  0  0  0  0
   22.3637   -4.7550  -14.2902 C   0  0  0  0  0  0  0  0  0  0  0  0
   22.7324   -3.4251  -14.3680 O   0  0  0  0  0  0  0  0  0  0  0  0
   22.9588   -5.4023  -13.3665 O   0  0  0  0  0  0  0  0  0  0  0  0
  1  2  1  0
  2  3  2  0
  4  2  1  0
  4  5  1  0
  5  7  1  0
  5  6  1  1
  7  8  2  0
  9 10  1  0
  9  7  1  0
 10 11  1  6
 11 12  1  0
 13 12  1  0
 13 14  1  0
 14 15  1  0
 16 17  2  0
 16 10  1  0
 19 18  1  6
 19 21  1  0
 20 19  1  0
 21 22  1  1
 21 23  1  0
 22 16  1  0
 23 24  1  0
 25 23  2  0
M  END
$$$$
