NKT.pdb
     RDKit          3D

 25 24  0  0  1  0  0  0  0  0999 V2000
   18.5498  -22.7333  -11.3893 N   0  0  0  0  0  0  0  0  0  0  0  0
   18.1509  -21.7461  -12.3167 C   0  0  0  0  0  0  0  0  0  0  0  0
   16.9532  -21.5939  -12.6114 O   0  0  0  0  0  0  0  0  0  0  0  0
   19.1727  -20.8690  -12.9582 C   0  0  0  0  0  0  0  0  0  0  0  0
   20.5770  -21.2453  -12.4973 C   0  0  2  0  0  0  0  0  0  0  0  0
   20.7716  -20.8345  -11.1259 N   0  0  0  0  0  0  0  0  0  0  0  0
   21.5219  -20.4599  -13.3630 C   0  0  0  0  0  0  0  0  0  0  0  0
   21.7198  -19.2586  -13.0612 O   0  0  0  0  0  0  0  0  0  0  0  0
   22.1811  -21.0125  -14.4763 N   0  0  0  0  0  0  0  0  0  0  0  0
   23.2169  -20.2508  -15.2383 C   0  0  1  0  0  0  0  0  0  0  0  0
   24.2650  -21.2346  -15.6601 C   0  0  0  0  0  0  0  0  0  0  0  0
   25.6219  -20.6636  -15.8538 C   0  0  0  0  0  0  0  0  0  0  0  0
   26.6438  -21.7390  -16.2182 C   0  0  0  0  0  0  0  0  0  0  0  0
   28.0065  -21.1553  -16.4536 C   0  0  0  0  0  0  0  0  0  0  0  0
   28.9558  -22.2474  -16.7013 N   0  0  0  0  0  0  0  0  0  0  0  0
   22.5347  -19.5395  -16.3603 C   0  0  0  0  0  0  0  0  0  0  0  0
   21.8232  -20.2254  -17.1302 O   0  0  0  0  0  0  0  0  0  0  0  0
   20.1048  -17.0324  -16.1815 C   0  0  0  0  0  0  0  0  0  0  0  0
   21.1686  -16.2860  -16.9728 C   0  0  1  0  0  0  0  0  0  0  0  0
   21.8266  -15.4913  -15.9868 O   0  0  0  0  0  0  0  0  0  0  0  0
   22.1537  -17.2697  -17.5179 C   0  0  2  0  0  0  0  0  0  0  0  0
   22.6762  -18.1623  -16.5478 N   0  0  0  0  0  0  0  0  0  0  0  0
   23.0792  -16.7288  -18.5419 C   0  0  0  0  0  0  0  0  0  0  0  0
   22.7203  -15.9685  -19.6390 O   0  0  0  0  0  0  0  0  0  0  0  0
   24.3327  -16.9452  -18.4517 O   0  0  0  0  0  0  0  0  0  0  0  0
  1  2  1  0
  2  3  2  0
  4  2  1  0
  4  5  1  0
  5  7  1  0
  5  6  1  1
  7  8  2  0
  9 10  1  0
  9  7  1  0
 10 11  1  6
 11 12  1  0
 13 12  1  0
 13 14  1  0
 14 15  1  0
 16 17  2  0
 16 10  1  0
 19 18  1  1
 19 21  1  0
 20 19  1  0
 21 22  1  1
 21 23  1  0
 22 16  1  0
 23 24  1  0
 25 23  2  0
M  END
$$$$
