NKT.pdb
     RDKit          3D

 25 24  0  0  1  0  0  0  0  0999 V2000
   25.4385  -17.0277  -15.1242 N   0  0  0  0  0  0  0  0  0  0  0  0
   24.0549  -16.7832  -14.9852 C   0  0  0  0  0  0  0  0  0  0  0  0
   23.2703  -17.7020  -14.6944 O   0  0  0  0  0  0  0  0  0  0  0  0
   23.5164  -15.4072  -15.1890 C   0  0  0  0  0  0  0  0  0  0  0  0
   22.4862  -15.3887  -16.3135 C   0  0  2  0  0  0  0  0  0  0  0  0
   23.1216  -15.7175  -17.5686 N   0  0  0  0  0  0  0  0  0  0  0  0
   21.9864  -13.9735  -16.3948 C   0  0  0  0  0  0  0  0  0  0  0  0
   22.7419  -13.1228  -16.9227 O   0  0  0  0  0  0  0  0  0  0  0  0
   20.7260  -13.5765  -15.9118 N   0  0  0  0  0  0  0  0  0  0  0  0
   20.1749  -12.2121  -16.1732 C   0  0  1  0  0  0  0  0  0  0  0  0
   18.6822  -12.3201  -16.1064 C   0  0  0  0  0  0  0  0  0  0  0  0
   17.9460  -11.0734  -16.4357 C   0  0  0  0  0  0  0  0  0  0  0  0
   16.4342  -11.2918  -16.4432 C   0  0  0  0  0  0  0  0  0  0  0  0
   15.6952  -10.0568  -16.8694 C   0  0  0  0  0  0  0  0  0  0  0  0
   14.2521  -10.3124  -16.7844 N   0  0  0  0  0  0  0  0  0  0  0  0
   20.7818  -11.2717  -15.1845 C   0  0  0  0  0  0  0  0  0  0  0  0
   20.8169  -11.6376  -13.9868 O   0  0  0  0  0  0  0  0  0  0  0  0
   24.0122  -10.2228  -15.0337 C   0  0  0  0  0  0  0  0  0  0  0  0
   23.3731   -8.8427  -15.0773 C   0  0  1  0  0  0  0  0  0  0  0  0
   23.5784   -8.4185  -16.4244 O   0  0  0  0  0  0  0  0  0  0  0  0
   21.9022   -8.9766  -14.8455 C   0  0  2  0  0  0  0  0  0  0  0  0
   21.2963  -10.0323  -15.5730 N   0  0  0  0  0  0  0  0  0  0  0  0
   21.1665   -7.6951  -14.7279 C   0  0  0  0  0  0  0  0  0  0  0  0
   21.4952   -6.6448  -13.8916 O   0  0  0  0  0  0  0  0  0  0  0  0
   20.1326   -7.4812  -15.4432 O   0  0  0  0  0  0  0  0  0  0  0  0
  1  2  1  0
  2  3  2  0
  4  2  1  0
  4  5  1  0
  5  7  1  0
  5  6  1  6
  7  8  2  0
  9 10  1  0
  9  7  1  0
 10 11  1  1
 11 12  1  0
 13 12  1  0
 13 14  1  0
 14 15  1  0
 16 17  2  0
 16 10  1  0
 19 18  1  6
 19 21  1  0
 20 19  1  0
 21 22  1  6
 21 23  1  0
 22 16  1  0
 23 24  1  0
 25 23  2  0
M  END
$$$$
