NKT.pdb
     RDKit          3D

 25 24  0  0  1  0  0  0  0  0999 V2000
   22.1731  -14.4863  -18.9957 N   0  0  0  0  0  0  0  0  0  0  0  0
   22.4955  -14.9429  -17.6991 C   0  0  0  0  0  0  0  0  0  0  0  0
   22.8864  -14.1529  -16.8230 O   0  0  0  0  0  0  0  0  0  0  0  0
   22.3699  -16.3913  -17.3656 C   0  0  0  0  0  0  0  0  0  0  0  0
   23.6700  -16.9268  -16.7748 C   0  0  2  0  0  0  0  0  0  0  0  0
   24.6885  -16.9844  -17.7979 N   0  0  0  0  0  0  0  0  0  0  0  0
   23.3741  -18.3300  -16.3249 C   0  0  0  0  0  0  0  0  0  0  0  0
   22.6617  -19.0396  -17.0747 O   0  0  0  0  0  0  0  0  0  0  0  0
   23.8592  -18.8668  -15.1183 N   0  0  0  0  0  0  0  0  0  0  0  0
   23.5035  -20.2473  -14.6694 C   0  0  1  0  0  0  0  0  0  0  0  0
   24.5814  -20.6964  -13.7311 C   0  0  0  0  0  0  0  0  0  0  0  0
   24.5689  -22.1451  -13.4060 C   0  0  0  0  0  0  0  0  0  0  0  0
   24.5985  -23.0099  -14.6649 C   0  0  0  0  0  0  0  0  0  0  0  0
   24.6074  -24.4741  -14.3346 C   0  0  0  0  0  0  0  0  0  0  0  0
   24.5278  -25.2439  -15.5821 N   0  0  0  0  0  0  0  0  0  0  0  0
   22.1334  -20.2014  -14.0769 C   0  0  0  0  0  0  0  0  0  0  0  0
   21.9146  -19.3379  -13.1961 O   0  0  0  0  0  0  0  0  0  0  0  0
   17.3829  -21.0213  -14.4695 C   0  0  0  0  0  0  0  0  0  0  0  0
   18.7653  -20.9948  -15.1047 C   0  0  1  0  0  0  0  0  0  0  0  0
   18.9158  -19.6403  -15.5281 O   0  0  0  0  0  0  0  0  0  0  0  0
   19.7920  -21.2761  -14.0549 C   0  0  2  0  0  0  0  0  0  0  0  0
   21.1285  -21.0812  -14.4868 N   0  0  0  0  0  0  0  0  0  0  0  0
   19.4995  -22.4424  -13.1879 C   0  0  0  0  0  0  0  0  0  0  0  0
   18.7543  -22.4213  -12.0239 O   0  0  0  0  0  0  0  0  0  0  0  0
   19.9423  -23.5979  -13.4964 O   0  0  0  0  0  0  0  0  0  0  0  0
  1  2  1  0
  2  3  2  0
  4  2  1  0
  4  5  1  0
  5  7  1  0
  5  6  1  6
  7  8  2  0
  9 10  1  0
  9  7  1  0
 10 11  1  1
 11 12  1  0
 13 12  1  0
 13 14  1  0
 14 15  1  0
 16 17  2  0
 16 10  1  0
 19 18  1  1
 19 21  1  0
 20 19  1  0
 21 22  1  6
 21 23  1  0
 22 16  1  0
 23 24  1  0
 25 23  2  0
M  END
$$$$
