NKT.pdb
     RDKit          3D

 25 24  0  0  1  0  0  0  0  0999 V2000
   13.5209  -13.9853  -12.5209 N   0  0  0  0  0  0  0  0  0  0  0  0
   13.2940  -13.2307  -11.3493 C   0  0  0  0  0  0  0  0  0  0  0  0
   12.2758  -13.4121  -10.6602 O   0  0  0  0  0  0  0  0  0  0  0  0
   14.2828  -12.1982  -10.9239 C   0  0  0  0  0  0  0  0  0  0  0  0
   15.4494  -12.1280  -11.9038 C   0  0  2  0  0  0  0  0  0  0  0  0
   16.2696  -13.3107  -11.7782 N   0  0  0  0  0  0  0  0  0  0  0  0
   16.2697  -10.9393  -11.4876 C   0  0  0  0  0  0  0  0  0  0  0  0
   17.0138  -11.0720  -10.4866 O   0  0  0  0  0  0  0  0  0  0  0  0
   16.2355   -9.7080  -12.1675 N   0  0  0  0  0  0  0  0  0  0  0  0
   17.1752   -8.5952  -11.8322 C   0  0  1  0  0  0  0  0  0  0  0  0
   18.1366   -8.4718  -12.9745 C   0  0  0  0  0  0  0  0  0  0  0  0
   19.1427   -7.3888  -12.8356 C   0  0  0  0  0  0  0  0  0  0  0  0
   20.0749   -7.3213  -14.0438 C   0  0  0  0  0  0  0  0  0  0  0  0
   21.0886   -6.2230  -13.9045 C   0  0  0  0  0  0  0  0  0  0  0  0
   22.0062   -6.2741  -15.0492 N   0  0  0  0  0  0  0  0  0  0  0  0
   16.3634   -7.3719  -11.5591 C   0  0  0  0  0  0  0  0  0  0  0  0
   15.4519   -7.0913  -12.3714 O   0  0  0  0  0  0  0  0  0  0  0  0
   14.8095   -6.4183   -8.1572 C   0  0  0  0  0  0  0  0  0  0  0  0
   15.7657   -5.2951   -8.5302 C   0  0  1  0  0  0  0  0  0  0  0  0
   16.9694   -5.6349   -7.8429 O   0  0  0  0  0  0  0  0  0  0  0  0
   16.0330   -5.3474  -10.0003 C   0  0  2  0  0  0  0  0  0  0  0  0
   16.6024   -6.5690  -10.4410 N   0  0  0  0  0  0  0  0  0  0  0  0
   16.5393   -4.0856  -10.5910 C   0  0  0  0  0  0  0  0  0  0  0  0
   15.9875   -2.8302  -10.4181 O   0  0  0  0  0  0  0  0  0  0  0  0
   17.5795   -4.0950  -11.3288 O   0  0  0  0  0  0  0  0  0  0  0  0
  1  2  1  0
  2  3  2  0
  4  2  1  0
  4  5  1  0
  5  7  1  0
  5  6  1  1
  7  8  2  0
  9 10  1  0
  9  7  1  0
 10 11  1  6
 11 12  1  0
 13 12  1  0
 13 14  1  0
 14 15  1  0
 16 17  2  0
 16 10  1  0
 19 18  1  6
 19 21  1  0
 20 19  1  0
 21 22  1  1
 21 23  1  0
 22 16  1  0
 23 24  1  0
 25 23  2  0
M  END
$$$$
