NKT.pdb
     RDKit          3D

 25 24  0  0  1  0  0  0  0  0999 V2000
   17.8030  -13.6271  -15.5521 N   0  0  0  0  0  0  0  0  0  0  0  0
   18.8248  -12.6876  -15.8103 C   0  0  0  0  0  0  0  0  0  0  0  0
   19.9181  -13.0464  -16.2800 O   0  0  0  0  0  0  0  0  0  0  0  0
   18.6004  -11.2422  -15.5182 C   0  0  0  0  0  0  0  0  0  0  0  0
   17.2387  -11.0255  -14.8663 C   0  0  2  0  0  0  0  0  0  0  0  0
   16.1971  -11.1029  -15.8645 N   0  0  0  0  0  0  0  0  0  0  0  0
   17.2605   -9.6273  -14.3153 C   0  0  0  0  0  0  0  0  0  0  0  0
   17.0141   -8.6887  -15.1100 O   0  0  0  0  0  0  0  0  0  0  0  0
   17.5397   -9.3386  -12.9670 N   0  0  0  0  0  0  0  0  0  0  0  0
   17.5115   -7.9415  -12.4369 C   0  0  1  0  0  0  0  0  0  0  0  0
   16.7635   -7.9779  -11.1395 C   0  0  0  0  0  0  0  0  0  0  0  0
   16.5511   -6.6555  -10.4986 C   0  0  0  0  0  0  0  0  0  0  0  0
   15.7358   -6.7724   -9.2121 C   0  0  0  0  0  0  0  0  0  0  0  0
   15.3928   -5.4253   -8.6458 C   0  0  0  0  0  0  0  0  0  0  0  0
   14.5400   -5.6084   -7.4650 N   0  0  0  0  0  0  0  0  0  0  0  0
   18.9207   -7.4572  -12.3365 C   0  0  0  0  0  0  0  0  0  0  0  0
   19.6668   -8.0223  -11.5037 O   0  0  0  0  0  0  0  0  0  0  0  0
   21.5659   -7.9820  -14.0276 C   0  0  0  0  0  0  0  0  0  0  0  0
   21.5567   -6.4819  -14.2821 C   0  0  1  0  0  0  0  0  0  0  0  0
   20.9404   -6.3611  -15.5636 O   0  0  0  0  0  0  0  0  0  0  0  0
   20.6755   -5.8193  -13.2723 C   0  0  2  0  0  0  0  0  0  0  0  0
   19.3968   -6.4180  -13.1397 N   0  0  0  0  0  0  0  0  0  0  0  0
   20.7627   -4.3399  -13.2382 C   0  0  0  0  0  0  0  0  0  0  0  0
   19.7064   -3.4613  -13.3889 O   0  0  0  0  0  0  0  0  0  0  0  0
   21.8867   -3.7680  -13.0484 O   0  0  0  0  0  0  0  0  0  0  0  0
  1  2  1  0
  2  3  2  0
  4  2  1  0
  4  5  1  0
  5  7  1  0
  5  6  1  6
  7  8  2  0
  9 10  1  0
  9  7  1  0
 10 11  1  1
 11 12  1  0
 13 12  1  0
 13 14  1  0
 14 15  1  0
 16 17  2  0
 16 10  1  0
 19 18  1  1
 19 21  1  0
 20 19  1  0
 21 22  1  6
 21 23  1  0
 22 16  1  0
 23 24  1  0
 25 23  2  0
M  END
$$$$
