SGL.pdb
     RDKit          3D

 19 18  0  0  1  0  0  0  0  0999 V2000
    8.2279  -15.9371   17.8456 O   0  0  0  0  0  0  0  0  0  0  0  0
    9.1885  -16.7947   18.3719 C   0  0  0  0  0  0  0  0  0  0  0  0
    8.5425  -17.8434   19.2678 C   0  0  2  0  0  0  0  0  0  0  0  0
    7.8695  -18.7929   18.4495 N   0  0  0  0  0  0  0  0  0  0  0  0
    7.7081  -17.2252   20.2995 C   0  0  0  0  0  0  0  0  0  0  0  0
    6.4575  -17.2151   20.1148 O   0  0  0  0  0  0  0  0  0  0  0  0
    8.1875  -16.6377   21.4870 N   0  0  0  0  0  0  0  0  0  0  0  0
    7.3529  -16.2055   22.5626 C   0  0  0  0  0  0  0  0  0  0  0  0
    8.1581  -15.5850   23.6657 C   0  0  0  0  0  0  0  0  0  0  0  0
    9.3882  -15.6728   23.6413 O   0  0  0  0  0  0  0  0  0  0  0  0
    7.6955  -11.4348   25.3631 C   0  0  0  0  0  0  0  0  0  0  0  0
    6.6229  -12.3872   25.9197 C   0  0  2  0  0  0  0  0  0  0  0  0
    5.7522  -11.5364   26.8189 C   0  0  0  0  0  0  0  0  0  0  0  0
    7.3806  -13.4259   26.7053 C   0  0  0  0  0  0  0  0  0  0  0  0
    8.2205  -14.3488   25.8690 C   0  0  2  0  0  0  0  0  0  0  0  0
    7.5347  -14.8960   24.7418 N   0  0  0  0  0  0  0  0  0  0  0  0
    8.9217  -15.4001   26.6242 C   0  0  0  0  0  0  0  0  0  0  0  0
    8.4503  -16.5591   26.6206 O   0  0  0  0  0  0  0  0  0  0  0  0
   10.0807  -15.1776   27.3420 O   0  0  0  0  0  0  0  0  0  0  0  0
  1  2  1  0
  2  3  1  0
  3  4  1  6
  3  5  1  0
  5  6  2  0
  7  5  1  0
  7  8  1  0
  9  8  1  0
  9 10  2  0
 12 14  1  0
 12 11  1  1
 13 12  1  0
 15 14  1  1
 15 16  1  0
 16  9  1  0
 17 15  1  0
 17 19  1  0
 18 17  2  0
M  END
$$$$
