SGL.pdb
     RDKit          3D

 19 18  0  0  1  0  0  0  0  0999 V2000
   10.7223  -17.4941   19.4946 O   0  0  0  0  0  0  0  0  0  0  0  0
    9.7479  -18.2769   20.1054 C   0  0  0  0  0  0  0  0  0  0  0  0
    8.3536  -17.8071   19.7115 C   0  0  2  0  0  0  0  0  0  0  0  0
    8.4367  -17.1155   18.4711 N   0  0  0  0  0  0  0  0  0  0  0  0
    7.7189  -17.0504   20.7920 C   0  0  0  0  0  0  0  0  0  0  0  0
    7.3787  -15.8569   20.5515 O   0  0  0  0  0  0  0  0  0  0  0  0
    7.4550  -17.5462   22.0842 N   0  0  0  0  0  0  0  0  0  0  0  0
    6.7905  -16.8048   23.1084 C   0  0  0  0  0  0  0  0  0  0  0  0
    7.7717  -16.1313   24.0215 C   0  0  0  0  0  0  0  0  0  0  0  0
    8.9807  -16.2824   23.8294 O   0  0  0  0  0  0  0  0  0  0  0  0
    7.4585  -11.7297   25.0257 C   0  0  0  0  0  0  0  0  0  0  0  0
    6.5563  -12.6310   25.8866 C   0  0  2  0  0  0  0  0  0  0  0  0
    5.7474  -11.6882   26.7511 C   0  0  0  0  0  0  0  0  0  0  0  0
    7.4993  -13.4670   26.7125 C   0  0  0  0  0  0  0  0  0  0  0  0
    8.2014  -14.5527   25.9476 C   0  0  2  0  0  0  0  0  0  0  0  0
    7.3394  -15.3205   25.1064 N   0  0  0  0  0  0  0  0  0  0  0  0
    9.0611  -15.4259   26.7634 C   0  0  0  0  0  0  0  0  0  0  0  0
   10.0185  -14.9150   27.3864 O   0  0  0  0  0  0  0  0  0  0  0  0
    8.8688  -16.7887   26.8814 O   0  0  0  0  0  0  0  0  0  0  0  0
  1  2  1  0
  2  3  1  0
  3  4  1  6
  3  5  1  0
  5  6  2  0
  7  5  1  0
  7  8  1  0
  9  8  1  0
  9 10  2  0
 12 14  1  0
 12 11  1  6
 13 12  1  0
 15 14  1  1
 15 16  1  0
 16  9  1  0
 17 15  1  0
 17 19  1  0
 18 17  2  0
M  END
$$$$
