SGL.pdb
     RDKit          3D

 19 18  0  0  1  0  0  0  0  0999 V2000
    7.7336  -17.6144   17.8268 O   0  0  0  0  0  0  0  0  0  0  0  0
    9.0716  -17.2564   17.9567 C   0  0  0  0  0  0  0  0  0  0  0  0
    9.5137  -17.3407   19.4117 C   0  0  2  0  0  0  0  0  0  0  0  0
    9.3685  -18.6839   19.8575 N   0  0  0  0  0  0  0  0  0  0  0  0
    8.8286  -16.3450   20.2376 C   0  0  0  0  0  0  0  0  0  0  0  0
    9.0572  -15.1252   19.9971 O   0  0  0  0  0  0  0  0  0  0  0  0
    7.9309  -16.6369   21.2837 N   0  0  0  0  0  0  0  0  0  0  0  0
    7.2459  -15.6475   22.0532 C   0  0  0  0  0  0  0  0  0  0  0  0
    8.0347  -15.2545   23.2670 C   0  0  0  0  0  0  0  0  0  0  0  0
    9.2607  -15.3903   23.2633 O   0  0  0  0  0  0  0  0  0  0  0  0
    7.4769  -11.2821   25.3322 C   0  0  0  0  0  0  0  0  0  0  0  0
    6.4278  -12.3067   25.7982 C   0  0  2  0  0  0  0  0  0  0  0  0
    5.5407  -11.5639   26.7738 C   0  0  0  0  0  0  0  0  0  0  0  0
    7.2113  -13.3967   26.4827 C   0  0  0  0  0  0  0  0  0  0  0  0
    8.0838  -14.2059   25.5659 C   0  0  2  0  0  0  0  0  0  0  0  0
    7.4004  -14.7277   24.4253 N   0  0  0  0  0  0  0  0  0  0  0  0
    8.8775  -15.2515   26.2322 C   0  0  0  0  0  0  0  0  0  0  0  0
    8.4900  -16.4390   26.1587 O   0  0  0  0  0  0  0  0  0  0  0  0
   10.0357  -14.9937   26.9395 O   0  0  0  0  0  0  0  0  0  0  0  0
  1  2  1  0
  2  3  1  0
  3  4  1  1
  3  5  1  0
  5  6  2  0
  7  5  1  0
  7  8  1  0
  9  8  1  0
  9 10  2  0
 12 14  1  0
 12 11  1  1
 13 12  1  0
 15 14  1  1
 15 16  1  0
 16  9  1  0
 17 15  1  0
 17 19  1  0
 18 17  2  0
M  END
$$$$
