SGL.pdb
     RDKit          3D

 19 18  0  0  1  0  0  0  0  0999 V2000
    4.7800  -19.6096   22.1854 O   0  0  0  0  0  0  0  0  0  0  0  0
    6.1063  -19.2872   21.9169 C   0  0  0  0  0  0  0  0  0  0  0  0
    6.2224  -17.8526   21.4185 C   0  0  2  0  0  0  0  0  0  0  0  0
    5.8072  -17.8052   20.0587 N   0  0  0  0  0  0  0  0  0  0  0  0
    7.5567  -17.3053   21.6697 C   0  0  0  0  0  0  0  0  0  0  0  0
    8.5041  -18.1243   21.8428 O   0  0  0  0  0  0  0  0  0  0  0  0
    7.8726  -15.9337   21.7345 N   0  0  0  0  0  0  0  0  0  0  0  0
    9.1841  -15.4225   21.9772 C   0  0  0  0  0  0  0  0  0  0  0  0
    9.3696  -15.0518   23.4188 C   0  0  0  0  0  0  0  0  0  0  0  0
   10.4949  -14.7563   23.8287 O   0  0  0  0  0  0  0  0  0  0  0  0
    7.8200  -11.7397   26.1184 C   0  0  0  0  0  0  0  0  0  0  0  0
    6.7505  -12.7329   25.6313 C   0  0  2  0  0  0  0  0  0  0  0  0
    5.4358  -12.2083   26.1669 C   0  0  0  0  0  0  0  0  0  0  0  0
    7.1163  -14.0528   26.2594 C   0  0  0  0  0  0  0  0  0  0  0  0
    8.3649  -14.6800   25.7077 C   0  0  2  0  0  0  0  0  0  0  0  0
    8.2755  -15.0330   24.3266 N   0  0  0  0  0  0  0  0  0  0  0  0
    8.9005  -15.7949   26.5060 C   0  0  0  0  0  0  0  0  0  0  0  0
    8.7621  -16.9622   26.0774 O   0  0  0  0  0  0  0  0  0  0  0  0
    9.5532  -15.6237   27.7113 O   0  0  0  0  0  0  0  0  0  0  0  0
  1  2  1  0
  2  3  1  0
  3  4  1  6
  3  5  1  0
  5  6  2  0
  7  5  1  0
  7  8  1  0
  9  8  1  0
  9 10  2  0
 12 14  1  0
 12 11  1  1
 13 12  1  0
 15 14  1  1
 15 16  1  0
 16  9  1  0
 17 15  1  0
 17 19  1  0
 18 17  2  0
M  END
$$$$
