SGL.pdb
     RDKit          3D

 19 18  0  0  1  0  0  0  0  0999 V2000
    7.2788  -14.2708   17.1408 O   0  0  0  0  0  0  0  0  0  0  0  0
    7.8314  -13.1280   17.7101 C   0  0  0  0  0  0  0  0  0  0  0  0
    8.8393  -13.4972   18.7907 C   0  0  2  0  0  0  0  0  0  0  0  0
    9.8553  -14.3074   18.2118 N   0  0  0  0  0  0  0  0  0  0  0  0
    8.1806  -14.0844   19.9587 C   0  0  0  0  0  0  0  0  0  0  0  0
    7.3509  -13.3668   20.5871 O   0  0  0  0  0  0  0  0  0  0  0  0
    8.3969  -15.3901   20.4417 N   0  0  0  0  0  0  0  0  0  0  0  0
    7.7339  -15.9458   21.5783 C   0  0  0  0  0  0  0  0  0  0  0  0
    8.2252  -15.3298   22.8547 C   0  0  0  0  0  0  0  0  0  0  0  0
    9.4388  -15.2310   23.0521 O   0  0  0  0  0  0  0  0  0  0  0  0
    5.8856  -11.9030   27.4469 C   0  0  0  0  0  0  0  0  0  0  0  0
    7.1056  -12.7219   26.9902 C   0  0  2  0  0  0  0  0  0  0  0  0
    8.2289  -11.7206   26.8286 C   0  0  0  0  0  0  0  0  0  0  0  0
    6.7084  -13.3257   25.6681 C   0  0  0  0  0  0  0  0  0  0  0  0
    7.7070  -14.2943   25.1010 C   0  0  2  0  0  0  0  0  0  0  0  0
    7.3222  -14.8557   23.8452 N   0  0  0  0  0  0  0  0  0  0  0  0
    8.1512  -15.3412   26.0357 C   0  0  0  0  0  0  0  0  0  0  0  0
    7.4368  -16.3578   26.1835 O   0  0  0  0  0  0  0  0  0  0  0  0
    9.3222  -15.2645   26.7644 O   0  0  0  0  0  0  0  0  0  0  0  0
  1  2  1  0
  2  3  1  0
  3  4  1  6
  3  5  1  0
  5  6  2  0
  7  5  1  0
  7  8  1  0
  9  8  1  0
  9 10  2  0
 12 14  1  0
 12 11  1  6
 13 12  1  0
 15 14  1  1
 15 16  1  0
 16  9  1  0
 17 15  1  0
 17 19  1  0
 18 17  2  0
M  END
$$$$
