SGL.pdb
     RDKit          3D

 19 18  0  0  1  0  0  0  0  0999 V2000
   11.2383  -17.5649   19.4383 O   0  0  0  0  0  0  0  0  0  0  0  0
   10.2114  -18.4050   19.8567 C   0  0  0  0  0  0  0  0  0  0  0  0
    8.8523  -17.7868   19.5560 C   0  0  2  0  0  0  0  0  0  0  0  0
    9.0459  -16.6111   18.7786 N   0  0  0  0  0  0  0  0  0  0  0  0
    8.0719  -17.5895   20.7786 C   0  0  0  0  0  0  0  0  0  0  0  0
    7.7891  -18.6121   21.4659 O   0  0  0  0  0  0  0  0  0  0  0  0
    7.6081  -16.3469   21.2541 N   0  0  0  0  0  0  0  0  0  0  0  0
    6.9761  -16.1571   22.5209 C   0  0  0  0  0  0  0  0  0  0  0  0
    7.9367  -15.6128   23.5363 C   0  0  0  0  0  0  0  0  0  0  0  0
    9.1290  -15.4972   23.2419 O   0  0  0  0  0  0  0  0  0  0  0  0
    7.4193  -11.6069   25.2974 C   0  0  0  0  0  0  0  0  0  0  0  0
    6.5769  -12.7263   25.9335 C   0  0  2  0  0  0  0  0  0  0  0  0
    5.6280  -12.0295   26.8846 C   0  0  0  0  0  0  0  0  0  0  0  0
    7.5613  -13.5955   26.6724 C   0  0  0  0  0  0  0  0  0  0  0  0
    8.3159  -14.5598   25.8022 C   0  0  2  0  0  0  0  0  0  0  0  0
    7.5037  -15.2257   24.8341 N   0  0  0  0  0  0  0  0  0  0  0  0
    9.1629  -15.5175   26.5320 C   0  0  0  0  0  0  0  0  0  0  0  0
    8.8687  -16.7331   26.4913 O   0  0  0  0  0  0  0  0  0  0  0  0
   10.2736  -15.1472   27.2650 O   0  0  0  0  0  0  0  0  0  0  0  0
  1  2  1  0
  2  3  1  0
  3  4  1  1
  3  5  1  0
  5  6  2  0
  7  5  1  0
  7  8  1  0
  9  8  1  0
  9 10  2  0
 12 14  1  0
 12 11  1  1
 13 12  1  0
 15 14  1  1
 15 16  1  0
 16  9  1  0
 17 15  1  0
 17 19  1  0
 18 17  2  0
M  END
$$$$
