SGL.pdb
     RDKit          3D

 19 18  0  0  1  0  0  0  0  0999 V2000
    5.1451  -19.3256   21.6094 O   0  0  0  0  0  0  0  0  0  0  0  0
    6.4188  -18.7767   21.5011 C   0  0  0  0  0  0  0  0  0  0  0  0
    6.3746  -17.4568   20.7424 C   0  0  2  0  0  0  0  0  0  0  0  0
    6.0104  -17.7167   19.3920 N   0  0  0  0  0  0  0  0  0  0  0  0
    7.6193  -16.7038   20.9058 C   0  0  0  0  0  0  0  0  0  0  0  0
    8.3437  -16.5383   19.8830 O   0  0  0  0  0  0  0  0  0  0  0  0
    8.0778  -16.1459   22.1156 N   0  0  0  0  0  0  0  0  0  0  0  0
    9.3280  -15.4717   22.2658 C   0  0  0  0  0  0  0  0  0  0  0  0
    9.4811  -14.9020   23.6450 C   0  0  0  0  0  0  0  0  0  0  0  0
   10.5448  -14.3653   23.9644 O   0  0  0  0  0  0  0  0  0  0  0  0
    7.6355  -11.6251   25.6532 C   0  0  0  0  0  0  0  0  0  0  0  0
    6.6971  -12.8404   25.5542 C   0  0  2  0  0  0  0  0  0  0  0  0
    5.3512  -12.3551   26.0478 C   0  0  0  0  0  0  0  0  0  0  0  0
    7.2850  -13.8747   26.4789 C   0  0  0  0  0  0  0  0  0  0  0  0
    8.5242  -14.5443   25.9565 C   0  0  2  0  0  0  0  0  0  0  0  0
    8.4258  -14.9665   24.5955 N   0  0  0  0  0  0  0  0  0  0  0  0
    9.0493  -15.6232   26.8093 C   0  0  0  0  0  0  0  0  0  0  0  0
    9.2493  -15.3878   28.0219 O   0  0  0  0  0  0  0  0  0  0  0  0
    9.3357  -16.8915   26.3429 O   0  0  0  0  0  0  0  0  0  0  0  0
  1  2  1  0
  2  3  1  0
  3  4  1  6
  3  5  1  0
  5  6  2  0
  7  5  1  0
  7  8  1  0
  9  8  1  0
  9 10  2  0
 12 14  1  0
 12 11  1  1
 13 12  1  0
 15 14  1  1
 15 16  1  0
 16  9  1  0
 17 15  1  0
 17 19  1  0
 18 17  2  0
M  END
$$$$
