SGL.pdb
     RDKit          3D

 19 18  0  0  1  0  0  0  0  0999 V2000
    7.1805  -18.9495   25.3817 O   0  0  0  0  0  0  0  0  0  0  0  0
    6.5515  -18.2479   24.3582 C   0  0  0  0  0  0  0  0  0  0  0  0
    7.2785  -18.4556   23.0360 C   0  0  2  0  0  0  0  0  0  0  0  0
    7.1832  -19.8274   22.6715 N   0  0  0  0  0  0  0  0  0  0  0  0
    8.6439  -17.9303   23.0879 C   0  0  0  0  0  0  0  0  0  0  0  0
    9.5854  -18.7580   23.2515 O   0  0  0  0  0  0  0  0  0  0  0  0
    8.9959  -16.5711   22.9699 N   0  0  0  0  0  0  0  0  0  0  0  0
   10.3404  -16.0914   22.9198 C   0  0  0  0  0  0  0  0  0  0  0  0
   10.9795  -16.1092   24.2767 C   0  0  0  0  0  0  0  0  0  0  0  0
   12.0763  -15.5681   24.4372 O   0  0  0  0  0  0  0  0  0  0  0  0
    8.4927  -13.2900   28.2923 C   0  0  0  0  0  0  0  0  0  0  0  0
    9.5438  -14.4137   28.2905 C   0  0  2  0  0  0  0  0  0  0  0  0
   10.8695  -13.7296   28.5453 C   0  0  0  0  0  0  0  0  0  0  0  0
    9.4865  -15.0113   26.9085 C   0  0  0  0  0  0  0  0  0  0  0  0
   10.3464  -16.2286   26.7204 C   0  0  2  0  0  0  0  0  0  0  0  0
   10.3487  -16.7368   25.3855 N   0  0  0  0  0  0  0  0  0  0  0  0
   10.1143  -17.3054   27.6970 C   0  0  0  0  0  0  0  0  0  0  0  0
   10.1599  -17.0309   28.9169 O   0  0  0  0  0  0  0  0  0  0  0  0
    9.8464  -18.6126   27.3398 O   0  0  0  0  0  0  0  0  0  0  0  0
  1  2  1  0
  2  3  1  0
  3  4  1  1
  3  5  1  0
  5  6  2  0
  7  5  1  0
  7  8  1  0
  9  8  1  0
  9 10  2  0
 12 14  1  0
 12 11  1  6
 13 12  1  0
 15 14  1  6
 15 16  1  0
 16  9  1  0
 17 15  1  0
 17 19  1  0
 18 17  2  0
M  END
$$$$
