SGL.pdb
     RDKit          3D

 19 18  0  0  1  0  0  0  0  0999 V2000
    8.1276  -20.0527   20.1318 O   0  0  0  0  0  0  0  0  0  0  0  0
    6.9837  -19.5749   19.5006 C   0  0  0  0  0  0  0  0  0  0  0  0
    6.7792  -18.0960   19.8020 C   0  0  2  0  0  0  0  0  0  0  0  0
    7.9390  -17.3806   19.3934 N   0  0  0  0  0  0  0  0  0  0  0  0
    6.3896  -17.8832   21.1970 C   0  0  0  0  0  0  0  0  0  0  0  0
    5.2900  -18.3747   21.5809 O   0  0  0  0  0  0  0  0  0  0  0  0
    7.1439  -17.1718   22.1511 N   0  0  0  0  0  0  0  0  0  0  0  0
    6.7276  -16.9480   23.4990 C   0  0  0  0  0  0  0  0  0  0  0  0
    7.7492  -16.1601   24.2643 C   0  0  0  0  0  0  0  0  0  0  0  0
    8.9383  -16.2383   23.9454 O   0  0  0  0  0  0  0  0  0  0  0  0
    7.1822  -11.8493   24.9936 C   0  0  0  0  0  0  0  0  0  0  0  0
    6.5038  -12.7267   26.0602 C   0  0  2  0  0  0  0  0  0  0  0  0
    5.7181  -11.7710   26.9319 C   0  0  0  0  0  0  0  0  0  0  0  0
    7.6321  -13.3709   26.8233 C   0  0  0  0  0  0  0  0  0  0  0  0
    8.2835  -14.5247   26.1154 C   0  0  2  0  0  0  0  0  0  0  0  0
    7.3780  -15.3230   25.3518 N   0  0  0  0  0  0  0  0  0  0  0  0
    9.1433  -15.3647   26.9652 C   0  0  0  0  0  0  0  0  0  0  0  0
   10.1119  -14.8331   27.5525 O   0  0  0  0  0  0  0  0  0  0  0  0
    8.9392  -16.7179   27.1531 O   0  0  0  0  0  0  0  0  0  0  0  0
  1  2  1  0
  2  3  1  0
  3  4  1  1
  3  5  1  0
  5  6  2  0
  7  5  1  0
  7  8  1  0
  9  8  1  0
  9 10  2  0
 12 14  1  0
 12 11  1  6
 13 12  1  0
 15 14  1  1
 15 16  1  0
 16  9  1  0
 17 15  1  0
 17 19  1  0
 18 17  2  0
M  END
$$$$
