DYR.pdb
     RDKit          3D

 32 32  0  0  1  0  0  0  0  0999 V2000
   27.3225  -16.9593  -19.6291 N   0  0  0  0  0  0  0  0  0  0  0  0
   26.8205  -15.6120  -19.7176 C   0  0  1  0  0  0  0  0  0  0  0  0
   26.5081  -15.3260  -21.1799 C   0  0  0  0  0  0  0  0  0  0  0  0
   27.7258  -15.3537  -22.0234 C   0  0  0  0  0  0  0  0  0  0  0  0
   28.7920  -14.7819  -21.6821 O   0  0  0  0  0  0  0  0  0  0  0  0
   25.6275  -15.3991  -18.8636 C   0  0  0  0  0  0  0  0  0  0  0  0
   24.7105  -16.2560  -18.9817 O   0  0  0  0  0  0  0  0  0  0  0  0
   27.7026  -16.0402  -23.2527 O   0  0  0  0  0  0  0  0  0  0  0  0
   26.2728  -19.3567  -13.7935 O   0  0  0  0  0  0  0  0  0  0  0  0
   25.8476  -18.1045  -14.2463 C   0  0  0  0  0  0  0  0  0  0  0  0
   24.5096  -17.7975  -14.3815 C   0  0  0  0  0  0  0  0  0  0  0  0
   24.0917  -16.5613  -14.8284 C   0  0  0  0  0  0  0  0  0  0  0  0
   24.9851  -15.5652  -15.1648 C   0  0  0  0  0  0  0  0  0  0  0  0
   24.6126  -14.2256  -15.6589 C   0  0  0  0  0  0  0  0  0  0  0  0
   24.2846  -14.1477  -17.1113 C   0  0  2  0  0  0  0  0  0  0  0  0
   25.4526  -14.3320  -17.9519 N   0  0  0  0  0  0  0  0  0  0  0  0
   23.6915  -12.8268  -17.4235 C   0  0  0  0  0  0  0  0  0  0  0  0
   24.4885  -11.8963  -17.6661 O   0  0  0  0  0  0  0  0  0  0  0  0
   26.3400  -15.8808  -15.0260 C   0  0  0  0  0  0  0  0  0  0  0  0
   26.7512  -17.1176  -14.5788 C   0  0  0  0  0  0  0  0  0  0  0  0
   17.4003  -11.2493  -22.9673 N   0  0  0  0  0  0  0  0  0  0  0  0
   17.2703  -11.7051  -21.6108 C   0  0  0  0  0  0  0  0  0  0  0  0
   16.2914  -12.4583  -21.2595 N   0  0  0  0  0  0  0  0  0  0  0  0
   18.2316  -11.3414  -20.6301 N   0  0  0  0  0  0  0  0  0  0  0  0
   19.3657  -10.4916  -20.8897 C   0  0  0  0  0  0  0  0  0  0  0  0
   20.1027  -10.2953  -19.5641 C   0  0  0  0  0  0  0  0  0  0  0  0
   20.7273  -11.5515  -19.0766 C   0  0  0  0  0  0  0  0  0  0  0  0
   21.6220  -11.4016  -17.8641 C   0  0  2  0  0  0  0  0  0  0  0  0
   22.3004  -12.5896  -17.4559 N   0  0  0  0  0  0  0  0  0  0  0  0
   20.8893  -10.6893  -16.8112 C   0  0  0  0  0  0  0  0  0  0  0  0
   20.9113   -9.3086  -16.7075 O   0  0  0  0  0  0  0  0  0  0  0  0
   20.2144  -11.3300  -15.9662 O   0  0  0  0  0  0  0  0  0  0  0  0
  2  1  1  6
  2  3  1  0
  3  4  1  0
  4  8  1  0
  5  4  2  0
  6  2  1  0
  7  6  2  0
  9 10  1  0
 10 11  2  0
 11 12  1  0
 13 12  2  0
 13 14  1  0
 15 16  1  0
 15 14  1  1
 16  6  1  0
 17 15  1  0
 18 17  2  0
 19 13  1  0
 20 10  1  0
 20 19  2  0
 22 21  1  0
 22 23  2  0
 24 22  1  0
 25 24  1  0
 26 25  1  0
 26 27  1  0
 28 27  1  6
 28 29  1  0
 29 17  1  0
 30 31  1  0
 30 28  1  0
 32 30  2  0
M  END
$$$$
