DYR.pdb
     RDKit          3D

 32 32  0  0  1  0  0  0  0  0999 V2000
   24.7171  -20.2076  -14.9196 N   0  0  0  0  0  0  0  0  0  0  0  0
   23.2951  -19.9776  -14.9337 C   0  0  1  0  0  0  0  0  0  0  0  0
   22.8376  -19.9757  -16.3857 C   0  0  0  0  0  0  0  0  0  0  0  0
   22.0175  -18.7844  -16.7077 C   0  0  0  0  0  0  0  0  0  0  0  0
   21.7591  -17.8970  -15.8557 O   0  0  0  0  0  0  0  0  0  0  0  0
   22.5542  -20.9872  -14.1401 C   0  0  0  0  0  0  0  0  0  0  0  0
   22.9495  -22.1777  -14.2640 O   0  0  0  0  0  0  0  0  0  0  0  0
   21.5028  -18.6279  -18.0091 O   0  0  0  0  0  0  0  0  0  0  0  0
   17.6254  -24.7421   -7.6963 O   0  0  0  0  0  0  0  0  0  0  0  0
   18.2070  -23.8331   -8.5847 C   0  0  0  0  0  0  0  0  0  0  0  0
   17.4519  -23.1236   -9.4953 C   0  0  0  0  0  0  0  0  0  0  0  0
   18.0274  -22.2270  -10.3712 C   0  0  0  0  0  0  0  0  0  0  0  0
   19.3865  -21.9898  -10.3865 C   0  0  0  0  0  0  0  0  0  0  0  0
   20.0724  -21.0554  -11.2997 C   0  0  0  0  0  0  0  0  0  0  0  0
   20.8340  -21.6917  -12.4125 C   0  0  2  0  0  0  0  0  0  0  0  0
   21.4661  -20.7143  -13.2786 N   0  0  0  0  0  0  0  0  0  0  0  0
   19.9243  -22.5219  -13.2353 C   0  0  0  0  0  0  0  0  0  0  0  0
   19.1682  -21.9152  -14.0229 O   0  0  0  0  0  0  0  0  0  0  0  0
   20.1477  -22.7109   -9.4618 C   0  0  0  0  0  0  0  0  0  0  0  0
   19.5668  -23.6052   -8.5891 C   0  0  0  0  0  0  0  0  0  0  0  0
   18.4594  -30.5351  -15.1265 N   0  0  0  0  0  0  0  0  0  0  0  0
   17.8868  -29.8536  -16.2544 C   0  0  0  0  0  0  0  0  0  0  0  0
   17.0309  -30.4379  -17.0128 N   0  0  0  0  0  0  0  0  0  0  0  0
   18.2470  -28.5110  -16.5477 N   0  0  0  0  0  0  0  0  0  0  0  0
   19.2206  -27.7565  -15.8004 C   0  0  0  0  0  0  0  0  0  0  0  0
   18.5182  -27.2084  -14.5573 C   0  0  0  0  0  0  0  0  0  0  0  0
   19.3867  -26.2872  -13.7809 C   0  0  0  0  0  0  0  0  0  0  0  0
   19.0199  -24.8208  -13.8719 C   0  0  2  0  0  0  0  0  0  0  0  0
   19.8828  -23.9309  -13.1634 N   0  0  0  0  0  0  0  0  0  0  0  0
   17.5850  -24.6669  -13.6071 C   0  0  0  0  0  0  0  0  0  0  0  0
   16.6541  -24.5914  -14.6295 O   0  0  0  0  0  0  0  0  0  0  0  0
   17.1640  -24.5991  -12.4247 O   0  0  0  0  0  0  0  0  0  0  0  0
  2  1  1  6
  2  3  1  0
  3  4  1  0
  4  8  1  0
  5  4  2  0
  6  2  1  0
  7  6  2  0
  9 10  1  0
 10 11  2  0
 11 12  1  0
 13 12  2  0
 13 14  1  0
 15 16  1  0
 15 14  1  1
 16  6  1  0
 17 15  1  0
 18 17  2  0
 19 13  1  0
 20 10  1  0
 20 19  2  0
 22 21  1  0
 22 23  2  0
 24 22  1  0
 25 24  1  0
 26 25  1  0
 26 27  1  0
 28 27  1  1
 28 29  1  0
 29 17  1  0
 30 31  1  0
 30 28  1  0
 32 30  2  0
M  END
$$$$
