DYR.pdb
     RDKit          3D

 32 32  0  0  1  0  0  0  0  0999 V2000
   27.0426  -19.6936  -16.9380 N   0  0  0  0  0  0  0  0  0  0  0  0
   26.1089  -20.6792  -16.4562 C   0  0  1  0  0  0  0  0  0  0  0  0
   26.9011  -21.7522  -15.7223 C   0  0  0  0  0  0  0  0  0  0  0  0
   27.7311  -22.5594  -16.6468 C   0  0  0  0  0  0  0  0  0  0  0  0
   27.8686  -22.2606  -17.8601 O   0  0  0  0  0  0  0  0  0  0  0  0
   25.0691  -20.0880  -15.5802 C   0  0  0  0  0  0  0  0  0  0  0  0
   25.4892  -19.5422  -14.5244 O   0  0  0  0  0  0  0  0  0  0  0  0
   28.3947  -23.7037  -16.1637 O   0  0  0  0  0  0  0  0  0  0  0  0
   17.8893  -15.4148  -13.1564 O   0  0  0  0  0  0  0  0  0  0  0  0
   18.9347  -16.0980  -13.7842 C   0  0  0  0  0  0  0  0  0  0  0  0
   20.2257  -16.0523  -13.3003 C   0  0  0  0  0  0  0  0  0  0  0  0
   21.2561  -16.7270  -13.9210 C   0  0  0  0  0  0  0  0  0  0  0  0
   21.0550  -17.4831  -15.0574 C   0  0  0  0  0  0  0  0  0  0  0  0
   22.1084  -18.2218  -15.7801 C   0  0  0  0  0  0  0  0  0  0  0  0
   22.6887  -19.3858  -15.0509 C   0  0  2  0  0  0  0  0  0  0  0  0
   23.6788  -20.0939  -15.8401 N   0  0  0  0  0  0  0  0  0  0  0  0
   21.6148  -20.3394  -14.6887 C   0  0  0  0  0  0  0  0  0  0  0  0
   21.1172  -21.0055  -15.6208 O   0  0  0  0  0  0  0  0  0  0  0  0
   19.7450  -17.5267  -15.5440 C   0  0  0  0  0  0  0  0  0  0  0  0
   18.7198  -16.8505  -14.9193 C   0  0  0  0  0  0  0  0  0  0  0  0
   18.9747  -24.6870   -7.4940 N   0  0  0  0  0  0  0  0  0  0  0  0
   17.9385  -24.7314   -8.4885 C   0  0  0  0  0  0  0  0  0  0  0  0
   16.9822  -25.5845   -8.4065 N   0  0  0  0  0  0  0  0  0  0  0  0
   17.9435  -23.8216   -9.5796 N   0  0  0  0  0  0  0  0  0  0  0  0
   19.0027  -22.8800   -9.8387 C   0  0  0  0  0  0  0  0  0  0  0  0
   18.5502  -21.9905  -10.9976 C   0  0  0  0  0  0  0  0  0  0  0  0
   19.6378  -21.1032  -11.4832 C   0  0  0  0  0  0  0  0  0  0  0  0
   20.0480  -21.3119  -12.9259 C   0  0  2  0  0  0  0  0  0  0  0  0
   21.1482  -20.5170  -13.3685 N   0  0  0  0  0  0  0  0  0  0  0  0
   18.8521  -21.2788  -13.7753 C   0  0  0  0  0  0  0  0  0  0  0  0
   18.1242  -20.1174  -13.9726 O   0  0  0  0  0  0  0  0  0  0  0  0
   18.4567  -22.3235  -14.3516 O   0  0  0  0  0  0  0  0  0  0  0  0
  2  1  1  1
  2  3  1  0
  3  4  1  0
  4  8  1  0
  5  4  2  0
  6  2  1  0
  7  6  2  0
  9 10  1  0
 10 11  2  0
 11 12  1  0
 13 12  2  0
 13 14  1  0
 15 16  1  0
 15 14  1  6
 16  6  1  0
 17 15  1  0
 18 17  2  0
 19 13  1  0
 20 10  1  0
 20 19  2  0
 22 21  1  0
 22 23  2  0
 24 22  1  0
 25 24  1  0
 26 25  1  0
 26 27  1  0
 28 27  1  1
 28 29  1  0
 29 17  1  0
 30 31  1  0
 30 28  1  0
 32 30  2  0
M  END
$$$$
