DYR.pdb
     RDKit          3D

 32 32  0  0  1  0  0  0  0  0999 V2000
   29.6615  -21.3700  -18.2940 N   0  0  0  0  0  0  0  0  0  0  0  0
   28.5070  -20.6021  -17.9037 C   0  0  1  0  0  0  0  0  0  0  0  0
   27.4757  -20.7117  -19.0182 C   0  0  0  0  0  0  0  0  0  0  0  0
   27.8483  -19.9010  -20.2010 C   0  0  0  0  0  0  0  0  0  0  0  0
   28.0285  -18.6588  -20.1339 O   0  0  0  0  0  0  0  0  0  0  0  0
   27.9446  -21.0513  -16.6076 C   0  0  0  0  0  0  0  0  0  0  0  0
   27.9491  -22.2966  -16.4118 O   0  0  0  0  0  0  0  0  0  0  0  0
   28.0095  -20.5305  -21.4504 O   0  0  0  0  0  0  0  0  0  0  0  0
   24.5390  -21.1344   -8.3154 O   0  0  0  0  0  0  0  0  0  0  0  0
   25.1175  -20.7627   -9.5324 C   0  0  0  0  0  0  0  0  0  0  0  0
   24.4060  -20.0771  -10.4949 C   0  0  0  0  0  0  0  0  0  0  0  0
   24.9784  -19.7111  -11.6953 C   0  0  0  0  0  0  0  0  0  0  0  0
   26.2905  -20.0090  -12.0005 C   0  0  0  0  0  0  0  0  0  0  0  0
   26.9656  -19.6598  -13.2653 C   0  0  0  0  0  0  0  0  0  0  0  0
   26.8317  -20.6629  -14.3603 C   0  0  2  0  0  0  0  0  0  0  0  0
   27.4189  -20.2035  -15.6049 N   0  0  0  0  0  0  0  0  0  0  0  0
   25.4001  -20.9559  -14.6025 C   0  0  0  0  0  0  0  0  0  0  0  0
   24.7207  -20.0462  -15.1230 O   0  0  0  0  0  0  0  0  0  0  0  0
   27.0077  -20.7037  -11.0219 C   0  0  0  0  0  0  0  0  0  0  0  0
   26.4302  -21.0664   -9.8245 C   0  0  0  0  0  0  0  0  0  0  0  0
   19.9216  -26.9599  -15.6111 N   0  0  0  0  0  0  0  0  0  0  0  0
   21.2799  -27.3037  -15.2928 C   0  0  0  0  0  0  0  0  0  0  0  0
   21.8938  -28.2297  -15.9369 N   0  0  0  0  0  0  0  0  0  0  0  0
   21.9784  -26.6159  -14.2646 N   0  0  0  0  0  0  0  0  0  0  0  0
   21.3614  -25.6831  -13.3563 C   0  0  0  0  0  0  0  0  0  0  0  0
   21.6277  -24.2766  -13.8949 C   0  0  0  0  0  0  0  0  0  0  0  0
   23.0492  -23.8751  -13.7402 C   0  0  0  0  0  0  0  0  0  0  0  0
   23.4089  -22.5269  -14.3285 C   0  0  2  0  0  0  0  0  0  0  0  0
   24.7949  -22.1886  -14.2763 N   0  0  0  0  0  0  0  0  0  0  0  0
   22.4830  -21.5137  -13.8100 C   0  0  0  0  0  0  0  0  0  0  0  0
   22.4572  -21.1597  -12.4714 O   0  0  0  0  0  0  0  0  0  0  0  0
   21.6794  -20.9359  -14.5847 O   0  0  0  0  0  0  0  0  0  0  0  0
  2  1  1  6
  2  3  1  0
  3  4  1  0
  4  8  1  0
  5  4  2  0
  6  2  1  0
  7  6  2  0
  9 10  1  0
 10 11  2  0
 11 12  1  0
 13 12  2  0
 13 14  1  0
 15 16  1  0
 15 14  1  1
 16  6  1  0
 17 15  1  0
 18 17  2  0
 19 13  1  0
 20 10  1  0
 20 19  2  0
 22 21  1  0
 22 23  2  0
 24 22  1  0
 25 24  1  0
 26 25  1  0
 26 27  1  0
 28 27  1  1
 28 29  1  0
 29 17  1  0
 30 31  1  0
 30 28  1  0
 32 30  2  0
M  END
$$$$
