DYR.pdb
     RDKit          3D

 32 32  0  0  1  0  0  0  0  0999 V2000
   21.5763  -12.7060  -17.2535 N   0  0  0  0  0  0  0  0  0  0  0  0
   21.0266  -11.4182  -17.5921 C   0  0  1  0  0  0  0  0  0  0  0  0
   19.5690  -11.6213  -17.9816 C   0  0  0  0  0  0  0  0  0  0  0  0
   19.4335  -12.2567  -19.3131 C   0  0  0  0  0  0  0  0  0  0  0  0
   20.4082  -12.3901  -20.0957 O   0  0  0  0  0  0  0  0  0  0  0  0
   21.1536  -10.4431  -16.4826 C   0  0  0  0  0  0  0  0  0  0  0  0
   20.8354  -10.8702  -15.3401 O   0  0  0  0  0  0  0  0  0  0  0  0
   18.1752  -12.7322  -19.7300 O   0  0  0  0  0  0  0  0  0  0  0  0
   27.3727  -11.3526  -15.3917 O   0  0  0  0  0  0  0  0  0  0  0  0
   26.3273  -10.4253  -15.4218 C   0  0  0  0  0  0  0  0  0  0  0  0
   26.0463   -9.6844  -16.5509 C   0  0  0  0  0  0  0  0  0  0  0  0
   25.0144   -8.7698  -16.5788 C   0  0  0  0  0  0  0  0  0  0  0  0
   24.2073   -8.5444  -15.4827 C   0  0  0  0  0  0  0  0  0  0  0  0
   23.0943   -7.5768  -15.4357 C   0  0  0  0  0  0  0  0  0  0  0  0
   21.7280   -8.1689  -15.5142 C   0  0  2  0  0  0  0  0  0  0  0  0
   21.5945   -9.1056  -16.6140 N   0  0  0  0  0  0  0  0  0  0  0  0
   20.7235   -7.0953  -15.6940 C   0  0  0  0  0  0  0  0  0  0  0  0
   20.6426   -6.5865  -16.8318 O   0  0  0  0  0  0  0  0  0  0  0  0
   24.4956   -9.2977  -14.3407 C   0  0  0  0  0  0  0  0  0  0  0  0
   25.5280  -10.2101  -14.3191 C   0  0  0  0  0  0  0  0  0  0  0  0
   14.4079   -6.6424   -9.9913 N   0  0  0  0  0  0  0  0  0  0  0  0
   15.6540   -7.3356  -10.1681 C   0  0  0  0  0  0  0  0  0  0  0  0
   16.1567   -8.0404   -9.2195 N   0  0  0  0  0  0  0  0  0  0  0  0
   16.3517   -7.2659  -11.4036 N   0  0  0  0  0  0  0  0  0  0  0  0
   15.8088   -6.6820  -12.6036 C   0  0  0  0  0  0  0  0  0  0  0  0
   16.8862   -6.7752  -13.6852 C   0  0  0  0  0  0  0  0  0  0  0  0
   17.8532   -5.6502  -13.6140 C   0  0  0  0  0  0  0  0  0  0  0  0
   18.8887   -5.6156  -14.7183 C   0  0  2  0  0  0  0  0  0  0  0  0
   19.8803   -6.6409  -14.6573 N   0  0  0  0  0  0  0  0  0  0  0  0
   19.3932   -4.2452  -14.8615 C   0  0  0  0  0  0  0  0  0  0  0  0
   18.6802   -3.2674  -15.5348 O   0  0  0  0  0  0  0  0  0  0  0  0
   20.5034   -3.9253  -14.3668 O   0  0  0  0  0  0  0  0  0  0  0  0
  2  1  1  1
  2  3  1  0
  3  4  1  0
  4  8  1  0
  5  4  2  0
  6  2  1  0
  7  6  2  0
  9 10  1  0
 10 11  2  0
 11 12  1  0
 13 12  2  0
 13 14  1  0
 15 16  1  0
 15 14  1  6
 16  6  1  0
 17 15  1  0
 18 17  2  0
 19 13  1  0
 20 10  1  0
 20 19  2  0
 22 21  1  0
 22 23  2  0
 24 22  1  0
 25 24  1  0
 26 25  1  0
 26 27  1  0
 28 27  1  1
 28 29  1  0
 29 17  1  0
 30 31  1  0
 30 28  1  0
 32 30  2  0
M  END
$$$$
