DYR.pdb
     RDKit          3D

 32 32  0  0  1  0  0  0  0  0999 V2000
   28.0169  -22.3327  -17.9224 N   0  0  0  0  0  0  0  0  0  0  0  0
   27.6798  -21.0921  -17.2726 C   0  0  1  0  0  0  0  0  0  0  0  0
   26.8490  -20.2670  -18.2454 C   0  0  0  0  0  0  0  0  0  0  0  0
   27.6793  -19.6723  -19.3188 C   0  0  0  0  0  0  0  0  0  0  0  0
   28.9318  -19.6022  -19.2378 O   0  0  0  0  0  0  0  0  0  0  0  0
   26.9558  -21.3043  -15.9963 C   0  0  0  0  0  0  0  0  0  0  0  0
   25.9761  -22.0957  -16.0484 O   0  0  0  0  0  0  0  0  0  0  0  0
   27.0575  -19.1638  -20.4755 O   0  0  0  0  0  0  0  0  0  0  0  0
   24.5986  -20.6493   -7.3194 O   0  0  0  0  0  0  0  0  0  0  0  0
   25.2634  -20.6107   -8.5484 C   0  0  0  0  0  0  0  0  0  0  0  0
   25.7244  -21.7577   -9.1607 C   0  0  0  0  0  0  0  0  0  0  0  0
   26.3802  -21.7178  -10.3734 C   0  0  0  0  0  0  0  0  0  0  0  0
   26.6117  -20.5326  -11.0407 C   0  0  0  0  0  0  0  0  0  0  0  0
   27.3139  -20.4120  -12.3329 C   0  0  0  0  0  0  0  0  0  0  0  0
   26.5683  -20.9274  -13.5168 C   0  0  2  0  0  0  0  0  0  0  0  0
   27.2795  -20.6976  -14.7603 N   0  0  0  0  0  0  0  0  0  0  0  0
   25.2472  -20.2640  -13.6080 C   0  0  0  0  0  0  0  0  0  0  0  0
   25.2082  -19.1700  -14.2094 O   0  0  0  0  0  0  0  0  0  0  0  0
   26.1425  -19.3729  -10.4166 C   0  0  0  0  0  0  0  0  0  0  0  0
   25.4879  -19.4193   -9.2049 C   0  0  0  0  0  0  0  0  0  0  0  0
   19.1393  -17.4563  -16.2394 N   0  0  0  0  0  0  0  0  0  0  0  0
   20.0703  -17.8558  -17.2583 C   0  0  0  0  0  0  0  0  0  0  0  0
   20.4150  -17.0436  -18.1914 N   0  0  0  0  0  0  0  0  0  0  0  0
   20.6402  -19.1571  -17.2476 N   0  0  0  0  0  0  0  0  0  0  0  0
   20.3378  -20.1609  -16.2593 C   0  0  0  0  0  0  0  0  0  0  0  0
   20.9406  -19.6934  -14.9337 C   0  0  0  0  0  0  0  0  0  0  0  0
   22.3063  -20.2345  -14.7151 C   0  0  0  0  0  0  0  0  0  0  0  0
   22.7217  -20.3778  -13.2660 C   0  0  2  0  0  0  0  0  0  0  0  0
   24.0670  -20.8074  -13.0565 N   0  0  0  0  0  0  0  0  0  0  0  0
   21.6900  -21.1292  -12.5423 C   0  0  0  0  0  0  0  0  0  0  0  0
   21.6761  -22.5137  -12.5119 O   0  0  0  0  0  0  0  0  0  0  0  0
   20.7809  -20.5202  -11.9239 O   0  0  0  0  0  0  0  0  0  0  0  0
  2  1  1  6
  2  3  1  0
  3  4  1  0
  4  8  1  0
  5  4  2  0
  6  2  1  0
  7  6  2  0
  9 10  1  0
 10 11  2  0
 11 12  1  0
 13 12  2  0
 13 14  1  0
 15 16  1  0
 15 14  1  1
 16  6  1  0
 17 15  1  0
 18 17  2  0
 19 13  1  0
 20 10  1  0
 20 19  2  0
 22 21  1  0
 22 23  2  0
 24 22  1  0
 25 24  1  0
 26 25  1  0
 26 27  1  0
 28 27  1  6
 28 29  1  0
 29 17  1  0
 30 31  1  0
 30 28  1  0
 32 30  2  0
M  END
$$$$
