DYR.pdb
     RDKit          3D

 32 32  0  0  1  0  0  0  0  0999 V2000
   22.2020  -15.3557  -17.3942 N   0  0  0  0  0  0  0  0  0  0  0  0
   22.3339  -14.0456  -17.9783 C   0  0  1  0  0  0  0  0  0  0  0  0
   21.5197  -14.0245  -19.2645 C   0  0  0  0  0  0  0  0  0  0  0  0
   22.0211  -15.0056  -20.2550 C   0  0  0  0  0  0  0  0  0  0  0  0
   21.2851  -15.8972  -20.7486 O   0  0  0  0  0  0  0  0  0  0  0  0
   21.9011  -12.9711  -17.0529 C   0  0  0  0  0  0  0  0  0  0  0  0
   20.7899  -13.1525  -16.4859 O   0  0  0  0  0  0  0  0  0  0  0  0
   23.3666  -14.9497  -20.6668 O   0  0  0  0  0  0  0  0  0  0  0  0
   21.8664   -5.0638  -12.7093 O   0  0  0  0  0  0  0  0  0  0  0  0
   22.2076   -6.2625  -13.3422 C   0  0  0  0  0  0  0  0  0  0  0  0
   22.0072   -7.4856  -12.7368 C   0  0  0  0  0  0  0  0  0  0  0  0
   22.3445   -8.6675  -13.3627 C   0  0  0  0  0  0  0  0  0  0  0  0
   22.8998   -8.6934  -14.6255 C   0  0  0  0  0  0  0  0  0  0  0  0
   23.2947   -9.9158  -15.3516 C   0  0  0  0  0  0  0  0  0  0  0  0
   22.1693  -10.7287  -15.8957 C   0  0  2  0  0  0  0  0  0  0  0  0
   22.6280  -11.7911  -16.7706 N   0  0  0  0  0  0  0  0  0  0  0  0
   21.2464   -9.8609  -16.6632 C   0  0  0  0  0  0  0  0  0  0  0  0
   21.5969   -9.5543  -17.8221 O   0  0  0  0  0  0  0  0  0  0  0  0
   23.1008   -7.4515  -15.2352 C   0  0  0  0  0  0  0  0  0  0  0  0
   22.7616   -6.2742  -14.6047 C   0  0  0  0  0  0  0  0  0  0  0  0
   12.3745   -8.7239  -16.1920 N   0  0  0  0  0  0  0  0  0  0  0  0
   13.0420   -7.4622  -16.3569 C   0  0  0  0  0  0  0  0  0  0  0  0
   12.4295   -6.3573  -16.1261 N   0  0  0  0  0  0  0  0  0  0  0  0
   14.4010   -7.4108  -16.7677 N   0  0  0  0  0  0  0  0  0  0  0  0
   15.1921   -8.5732  -17.0819 C   0  0  0  0  0  0  0  0  0  0  0  0
   16.6274   -8.0995  -17.3160 C   0  0  0  0  0  0  0  0  0  0  0  0
   17.6175   -8.9134  -16.5656 C   0  0  0  0  0  0  0  0  0  0  0  0
   19.0675   -8.5405  -16.7928 C   0  0  2  0  0  0  0  0  0  0  0  0
   20.0225   -9.3830  -16.1475 N   0  0  0  0  0  0  0  0  0  0  0  0
   19.2334   -7.0993  -16.5724 C   0  0  0  0  0  0  0  0  0  0  0  0
   19.3418   -6.5591  -15.3019 O   0  0  0  0  0  0  0  0  0  0  0  0
   19.2811   -6.3115  -17.5505 O   0  0  0  0  0  0  0  0  0  0  0  0
  2  1  1  1
  2  3  1  0
  3  4  1  0
  4  8  1  0
  5  4  2  0
  6  2  1  0
  7  6  2  0
  9 10  1  0
 10 11  2  0
 11 12  1  0
 13 12  2  0
 13 14  1  0
 15 16  1  0
 15 14  1  6
 16  6  1  0
 17 15  1  0
 18 17  2  0
 19 13  1  0
 20 10  1  0
 20 19  2  0
 22 21  1  0
 22 23  2  0
 24 22  1  0
 25 24  1  0
 26 25  1  0
 26 27  1  0
 28 27  1  1
 28 29  1  0
 29 17  1  0
 30 31  1  0
 30 28  1  0
 32 30  2  0
M  END
$$$$
