DYR.pdb
     RDKit          3D

 32 32  0  0  1  0  0  0  0  0999 V2000
   22.0182  -11.1140  -18.6768 N   0  0  0  0  0  0  0  0  0  0  0  0
   22.1704  -11.5927  -17.3267 C   0  0  1  0  0  0  0  0  0  0  0  0
   20.7832  -11.6878  -16.7067 C   0  0  0  0  0  0  0  0  0  0  0  0
   20.3060  -10.3759  -16.2101 C   0  0  0  0  0  0  0  0  0  0  0  0
   19.1846  -10.2337  -15.6603 O   0  0  0  0  0  0  0  0  0  0  0  0
   22.8735  -12.8966  -17.2681 C   0  0  0  0  0  0  0  0  0  0  0  0
   22.6185  -13.6980  -18.2071 O   0  0  0  0  0  0  0  0  0  0  0  0
   21.1264   -9.2402  -16.3526 O   0  0  0  0  0  0  0  0  0  0  0  0
   28.4710  -19.5091  -15.0466 O   0  0  0  0  0  0  0  0  0  0  0  0
   27.7773  -18.2967  -15.0942 C   0  0  0  0  0  0  0  0  0  0  0  0
   27.0665  -17.8240  -14.0106 C   0  0  0  0  0  0  0  0  0  0  0  0
   26.3825  -16.6273  -14.0592 C   0  0  0  0  0  0  0  0  0  0  0  0
   26.3700  -15.8378  -15.1906 C   0  0  0  0  0  0  0  0  0  0  0  0
   25.6537  -14.5542  -15.3192 C   0  0  0  0  0  0  0  0  0  0  0  0
   24.4654  -14.5719  -16.2198 C   0  0  2  0  0  0  0  0  0  0  0  0
   23.7844  -13.2915  -16.2607 N   0  0  0  0  0  0  0  0  0  0  0  0
   23.5002  -15.5969  -15.7598 C   0  0  0  0  0  0  0  0  0  0  0  0
   22.7359  -15.2706  -14.8274 O   0  0  0  0  0  0  0  0  0  0  0  0
   27.0918  -16.3207  -16.2862 C   0  0  0  0  0  0  0  0  0  0  0  0
   27.7734  -17.5171  -16.2314 C   0  0  0  0  0  0  0  0  0  0  0  0
   16.6137  -19.5678  -18.4005 N   0  0  0  0  0  0  0  0  0  0  0  0
   16.8107  -19.1670  -17.0348 C   0  0  0  0  0  0  0  0  0  0  0  0
   15.8219  -18.7810  -16.3120 N   0  0  0  0  0  0  0  0  0  0  0  0
   18.1050  -19.2015  -16.4501 N   0  0  0  0  0  0  0  0  0  0  0  0
   19.3000  -19.5800  -17.1603 C   0  0  0  0  0  0  0  0  0  0  0  0
   20.4853  -19.3287  -16.2270 C   0  0  0  0  0  0  0  0  0  0  0  0
   21.3550  -18.2248  -16.7073 C   0  0  0  0  0  0  0  0  0  0  0  0
   22.6054  -17.9825  -15.8882 C   0  0  2  0  0  0  0  0  0  0  0  0
   23.4158  -16.8895  -16.3206 N   0  0  0  0  0  0  0  0  0  0  0  0
   23.3040  -19.2573  -15.6888 C   0  0  0  0  0  0  0  0  0  0  0  0
   23.1944  -19.9777  -14.5112 O   0  0  0  0  0  0  0  0  0  0  0  0
   24.0296  -19.7299  -16.5998 O   0  0  0  0  0  0  0  0  0  0  0  0
  2  1  1  6
  2  3  1  0
  3  4  1  0
  4  8  1  0
  5  4  2  0
  6  2  1  0
  7  6  2  0
  9 10  1  0
 10 11  2  0
 11 12  1  0
 13 12  2  0
 13 14  1  0
 15 16  1  0
 15 14  1  1
 16  6  1  0
 17 15  1  0
 18 17  2  0
 19 13  1  0
 20 10  1  0
 20 19  2  0
 22 21  1  0
 22 23  2  0
 24 22  1  0
 25 24  1  0
 26 25  1  0
 26 27  1  0
 28 27  1  6
 28 29  1  0
 29 17  1  0
 30 31  1  0
 30 28  1  0
 32 30  2  0
M  END
$$$$
