DYR.pdb
     RDKit          3D

 32 32  0  0  1  0  0  0  0  0999 V2000
   28.1539  -21.0329  -18.8632 N   0  0  0  0  0  0  0  0  0  0  0  0
   27.8889  -19.9674  -17.9307 C   0  0  1  0  0  0  0  0  0  0  0  0
   26.9599  -18.9721  -18.6119 C   0  0  0  0  0  0  0  0  0  0  0  0
   27.6337  -18.2502  -19.7165 C   0  0  0  0  0  0  0  0  0  0  0  0
   27.2206  -18.3017  -20.9026 O   0  0  0  0  0  0  0  0  0  0  0  0
   27.3047  -20.4631  -16.6614 C   0  0  0  0  0  0  0  0  0  0  0  0
   26.7948  -21.6150  -16.7073 O   0  0  0  0  0  0  0  0  0  0  0  0
   28.7776  -17.4757  -19.4429 O   0  0  0  0  0  0  0  0  0  0  0  0
   24.8878  -20.8616   -7.9879 O   0  0  0  0  0  0  0  0  0  0  0  0
   25.4994  -20.5970   -9.2166 C   0  0  0  0  0  0  0  0  0  0  0  0
   26.2155  -21.5621   -9.8938 C   0  0  0  0  0  0  0  0  0  0  0  0
   26.8184  -21.2993  -11.1062 C   0  0  0  0  0  0  0  0  0  0  0  0
   26.7398  -20.0604  -11.7084 C   0  0  0  0  0  0  0  0  0  0  0  0
   27.3664  -19.7039  -12.9960 C   0  0  0  0  0  0  0  0  0  0  0  0
   26.6902  -20.2473  -14.2088 C   0  0  2  0  0  0  0  0  0  0  0  0
   27.2808  -19.7532  -15.4383 N   0  0  0  0  0  0  0  0  0  0  0  0
   25.2576  -19.8711  -14.1978 C   0  0  0  0  0  0  0  0  0  0  0  0
   24.9914  -18.6670  -14.3961 O   0  0  0  0  0  0  0  0  0  0  0  0
   26.0128  -19.0856  -11.0186 C   0  0  0  0  0  0  0  0  0  0  0  0
   25.4127  -19.3544   -9.8077 C   0  0  0  0  0  0  0  0  0  0  0  0
   23.9282  -18.4947  -19.0848 N   0  0  0  0  0  0  0  0  0  0  0  0
   22.5365  -18.8428  -19.1669 C   0  0  0  0  0  0  0  0  0  0  0  0
   21.8924  -18.7280  -20.2719 N   0  0  0  0  0  0  0  0  0  0  0  0
   21.8453  -19.3346  -18.0273 N   0  0  0  0  0  0  0  0  0  0  0  0
   22.2897  -19.1423  -16.6704 C   0  0  0  0  0  0  0  0  0  0  0  0
   21.3045  -19.8751  -15.7586 C   0  0  0  0  0  0  0  0  0  0  0  0
   21.9535  -20.9718  -14.9957 C   0  0  0  0  0  0  0  0  0  0  0  0
   22.8196  -20.5288  -13.8352 C   0  0  2  0  0  0  0  0  0  0  0  0
   24.2147  -20.7965  -13.9781 N   0  0  0  0  0  0  0  0  0  0  0  0
   22.2073  -20.9777  -12.5796 C   0  0  0  0  0  0  0  0  0  0  0  0
   21.4139  -20.1430  -11.8106 O   0  0  0  0  0  0  0  0  0  0  0  0
   22.3942  -22.1509  -12.1690 O   0  0  0  0  0  0  0  0  0  0  0  0
  2  1  1  6
  2  3  1  0
  3  4  1  0
  4  8  1  0
  5  4  2  0
  6  2  1  0
  7  6  2  0
  9 10  1  0
 10 11  2  0
 11 12  1  0
 13 12  2  0
 13 14  1  0
 15 16  1  0
 15 14  1  1
 16  6  1  0
 17 15  1  0
 18 17  2  0
 19 13  1  0
 20 10  1  0
 20 19  2  0
 22 21  1  0
 22 23  2  0
 24 22  1  0
 25 24  1  0
 26 25  1  0
 26 27  1  0
 28 27  1  6
 28 29  1  0
 29 17  1  0
 30 31  1  0
 30 28  1  0
 32 30  2  0
M  END
$$$$
