ITW.pdb
     RDKit          3D

 30 31  0  0  1  0  0  0  0  0999 V2000
   30.2938  -19.2356  -16.7111 C   0  0  0  0  0  0  0  0  0  0  0  0
   29.4846  -18.0192  -16.4442 C   0  0  0  0  0  0  0  0  0  0  0  0
   28.5501  -18.1654  -15.2877 C   0  0  2  0  0  0  0  0  0  0  0  0
   29.3825  -18.5168  -14.0407 C   0  0  0  0  0  0  0  0  0  0  0  0
   27.5681  -19.2861  -15.5747 C   0  0  2  0  0  0  0  0  0  0  0  0
   26.8614  -18.8913  -16.7963 N   0  0  0  0  0  0  0  0  0  0  0  0
   26.5576  -19.2922  -14.4827 C   0  0  0  0  0  0  0  0  0  0  0  0
   25.9279  -18.2170  -14.2484 O   0  0  0  0  0  0  0  0  0  0  0  0
   22.9582  -21.0532  -11.9744 C   0  0  0  0  0  0  0  0  0  0  0  0
   24.0116  -21.0558  -13.0349 C   0  0  1  0  0  0  0  0  0  0  0  0
   23.5909  -20.6120  -14.2618 O   0  0  0  0  0  0  0  0  0  0  0  0
   25.2401  -20.2595  -12.6243 C   0  0  2  0  0  0  0  0  0  0  0  0
   26.2363  -20.4020  -13.6801 N   0  0  0  0  0  0  0  0  0  0  0  0
   25.7286  -20.7926  -11.3459 C   0  0  0  0  0  0  0  0  0  0  0  0
   26.9184  -21.1956  -11.1808 O   0  0  0  0  0  0  0  0  0  0  0  0
   24.8450  -20.8631  -10.2426 N   0  0  0  0  0  0  0  0  0  0  0  0
   25.2937  -21.3660   -8.9375 C   0  0  1  0  0  0  0  0  0  0  0  0
   26.4380  -20.4896   -8.5101 C   0  0  0  0  0  0  0  0  0  0  0  0
   26.9358  -20.6600   -7.1574 C   0  0  0  0  0  0  0  0  0  0  0  0
   26.6212  -21.6995   -6.2984 C   0  0  0  0  0  0  0  0  0  0  0  0
   27.2388  -21.5017   -5.1269 N   0  0  0  0  0  0  0  0  0  0  0  0
   27.9508  -20.3510   -5.2095 C   0  0  0  0  0  0  0  0  0  0  0  0
   28.7730  -19.6809   -4.3263 C   0  0  0  0  0  0  0  0  0  0  0  0
   29.4067  -18.5088   -4.6767 C   0  0  0  0  0  0  0  0  0  0  0  0
   29.2198  -17.9868   -5.9379 C   0  0  0  0  0  0  0  0  0  0  0  0
   28.4094  -18.6214   -6.8469 C   0  0  0  0  0  0  0  0  0  0  0  0
   27.7789  -19.8036   -6.4707 C   0  0  0  0  0  0  0  0  0  0  0  0
   24.1883  -21.4636   -7.9895 C   0  0  0  0  0  0  0  0  0  0  0  0
   24.1862  -22.3119   -6.9008 O   0  0  0  0  0  0  0  0  0  0  0  0
   23.1461  -20.7502   -8.1369 O   0  0  0  0  0  0  0  0  0  0  0  0
  1  2  1  0
  2  3  1  0
  3  4  1  1
  5  6  1  6
  5  3  1  0
  7  8  2  0
  7  5  1  0
 10  9  1  1
 10 12  1  0
 11 10  1  0
 12 14  1  0
 12 13  1  6
 13  7  1  0
 14 16  1  0
 15 14  2  0
 16 17  1  0
 17 28  1  0
 17 18  1  1
 19 18  1  0
 19 27  1  0
 20 21  1  0
 20 19  2  0
 21 22  1  0
 22 27  2  0
 22 23  1  0
 23 24  2  0
 24 25  1  0
 26 25  2  0
 27 26  1  0
 28 30  2  0
 28 29  1  0
M  END
$$$$
