ITW.pdb
     RDKit          3D

 30 31  0  0  1  0  0  0  0  0999 V2000
   29.4039  -17.8939  -17.3426 C   0  0  0  0  0  0  0  0  0  0  0  0
   28.2150  -18.7393  -17.0644 C   0  0  0  0  0  0  0  0  0  0  0  0
   27.7227  -18.6335  -15.6577 C   0  0  2  0  0  0  0  0  0  0  0  0
   28.8504  -19.1013  -14.7191 C   0  0  0  0  0  0  0  0  0  0  0  0
   26.5111  -19.5298  -15.4814 C   0  0  2  0  0  0  0  0  0  0  0  0
   25.4897  -18.9995  -16.3887 N   0  0  0  0  0  0  0  0  0  0  0  0
   25.9974  -19.3288  -14.0996 C   0  0  0  0  0  0  0  0  0  0  0  0
   25.9056  -18.1410  -13.6657 O   0  0  0  0  0  0  0  0  0  0  0  0
   22.9717  -19.1404  -12.7189 C   0  0  0  0  0  0  0  0  0  0  0  0
   23.6431  -20.1436  -11.8374 C   0  0  1  0  0  0  0  0  0  0  0  0
   23.3050  -21.4475  -12.0918 O   0  0  0  0  0  0  0  0  0  0  0  0
   25.1578  -20.0173  -11.8756 C   0  0  2  0  0  0  0  0  0  0  0  0
   25.5988  -20.3553  -13.2243 N   0  0  0  0  0  0  0  0  0  0  0  0
   25.7220  -20.9351  -10.8774 C   0  0  0  0  0  0  0  0  0  0  0  0
   26.2868  -22.0253  -11.1902 O   0  0  0  0  0  0  0  0  0  0  0  0
   25.6407  -20.5998   -9.5049 N   0  0  0  0  0  0  0  0  0  0  0  0
   26.0498  -21.5502   -8.4624 C   0  0  1  0  0  0  0  0  0  0  0  0
   27.4448  -21.1657   -8.0544 C   0  0  0  0  0  0  0  0  0  0  0  0
   27.5874  -20.0221   -7.1722 C   0  0  0  0  0  0  0  0  0  0  0  0
   27.0089  -18.7769   -7.3526 C   0  0  0  0  0  0  0  0  0  0  0  0
   27.3936  -17.9671   -6.3580 N   0  0  0  0  0  0  0  0  0  0  0  0
   28.2123  -18.6649   -5.5328 C   0  0  0  0  0  0  0  0  0  0  0  0
   28.8755  -18.3456   -4.3653 C   0  0  0  0  0  0  0  0  0  0  0  0
   29.6491  -19.2699   -3.6980 C   0  0  0  0  0  0  0  0  0  0  0  0
   29.7684  -20.5463   -4.2027 C   0  0  0  0  0  0  0  0  0  0  0  0
   29.1259  -20.9052   -5.3621 C   0  0  0  0  0  0  0  0  0  0  0  0
   28.3504  -19.9549   -6.0194 C   0  0  0  0  0  0  0  0  0  0  0  0
   25.0733  -21.6145   -7.3797 C   0  0  0  0  0  0  0  0  0  0  0  0
   25.2350  -22.3877   -6.2479 O   0  0  0  0  0  0  0  0  0  0  0  0
   23.9962  -20.9416   -7.4405 O   0  0  0  0  0  0  0  0  0  0  0  0
  1  2  1  0
  2  3  1  0
  3  4  1  1
  5  6  1  6
  5  3  1  0
  7  8  2  0
  7  5  1  0
 10  9  1  6
 10 12  1  0
 11 10  1  0
 12 14  1  0
 12 13  1  6
 13  7  1  0
 14 16  1  0
 15 14  2  0
 16 17  1  0
 17 28  1  0
 17 18  1  1
 19 18  1  0
 19 27  1  0
 20 21  1  0
 20 19  2  0
 21 22  1  0
 22 27  2  0
 22 23  1  0
 23 24  2  0
 24 25  1  0
 26 25  2  0
 27 26  1  0
 28 30  2  0
 28 29  1  0
M  END
$$$$
