ITW.pdb
     RDKit          3D

 30 31  0  0  1  0  0  0  0  0999 V2000
   27.8704  -18.4985  -18.1343 C   0  0  0  0  0  0  0  0  0  0  0  0
   28.1590  -19.0268  -16.7767 C   0  0  0  0  0  0  0  0  0  0  0  0
   26.9536  -19.5639  -16.0761 C   0  0  2  0  0  0  0  0  0  0  0  0
   25.9235  -18.4257  -15.9545 C   0  0  0  0  0  0  0  0  0  0  0  0
   27.3492  -20.0405  -14.6909 C   0  0  2  0  0  0  0  0  0  0  0  0
   28.3223  -21.1154  -14.9040 N   0  0  0  0  0  0  0  0  0  0  0  0
   26.1518  -20.6685  -14.0700 C   0  0  0  0  0  0  0  0  0  0  0  0
   25.6031  -21.6353  -14.6798 O   0  0  0  0  0  0  0  0  0  0  0  0
   25.8730  -21.9206  -10.5360 C   0  0  0  0  0  0  0  0  0  0  0  0
   24.6011  -21.2007  -10.8494 C   0  0  1  0  0  0  0  0  0  0  0  0
   24.4586  -19.9897  -10.2229 O   0  0  0  0  0  0  0  0  0  0  0  0
   24.4092  -21.0008  -12.3444 C   0  0  2  0  0  0  0  0  0  0  0  0
   25.5711  -20.2782  -12.8497 N   0  0  0  0  0  0  0  0  0  0  0  0
   23.1692  -20.2416  -12.5523 C   0  0  0  0  0  0  0  0  0  0  0  0
   23.0952  -18.9885  -12.3795 O   0  0  0  0  0  0  0  0  0  0  0  0
   22.0004  -20.9247  -12.9650 N   0  0  0  0  0  0  0  0  0  0  0  0
   20.7157  -20.2254  -13.0983 C   0  0  1  0  0  0  0  0  0  0  0  0
   20.4890  -20.0207  -14.5704 C   0  0  0  0  0  0  0  0  0  0  0  0
   20.2732  -21.2056  -15.3802 C   0  0  0  0  0  0  0  0  0  0  0  0
   19.5212  -22.3117  -15.0216 C   0  0  0  0  0  0  0  0  0  0  0  0
   19.5806  -23.2191  -16.0046 N   0  0  0  0  0  0  0  0  0  0  0  0
   20.3582  -22.7215  -16.9974 C   0  0  0  0  0  0  0  0  0  0  0  0
   20.7455  -23.2067  -18.2300 C   0  0  0  0  0  0  0  0  0  0  0  0
   21.5468  -22.4719  -19.0764 C   0  0  0  0  0  0  0  0  0  0  0  0
   21.9758  -21.2212  -18.6894 C   0  0  0  0  0  0  0  0  0  0  0  0
   21.6141  -20.7012  -17.4710 C   0  0  0  0  0  0  0  0  0  0  0  0
   20.8048  -21.4616  -16.6322 C   0  0  0  0  0  0  0  0  0  0  0  0
   19.6476  -20.9223  -12.3886 C   0  0  0  0  0  0  0  0  0  0  0  0
   19.7914  -22.1755  -11.8285 O   0  0  0  0  0  0  0  0  0  0  0  0
   18.5020  -20.3862  -12.2580 O   0  0  0  0  0  0  0  0  0  0  0  0
  1  2  1  0
  2  3  1  0
  3  4  1  1
  5  6  1  6
  5  3  1  0
  7  8  2  0
  7  5  1  0
 10  9  1  6
 10 12  1  0
 11 10  1  0
 12 14  1  0
 12 13  1  1
 13  7  1  0
 14 16  1  0
 15 14  2  0
 16 17  1  0
 17 28  1  0
 17 18  1  6
 19 18  1  0
 19 27  1  0
 20 21  1  0
 20 19  2  0
 21 22  1  0
 22 27  2  0
 22 23  1  0
 23 24  2  0
 24 25  1  0
 26 25  2  0
 27 26  1  0
 28 30  2  0
 28 29  1  0
M  END
$$$$
