ITW.pdb
     RDKit          3D

 30 31  0  0  1  0  0  0  0  0999 V2000
   15.3652  -13.9286  -16.9734 C   0  0  0  0  0  0  0  0  0  0  0  0
   16.3188  -13.3767  -15.9777 C   0  0  0  0  0  0  0  0  0  0  0  0
   16.9566  -12.0958  -16.4075 C   0  0  2  0  0  0  0  0  0  0  0  0
   17.7142  -12.3557  -17.7228 C   0  0  0  0  0  0  0  0  0  0  0  0
   17.9342  -11.6393  -15.3405 C   0  0  2  0  0  0  0  0  0  0  0  0
   17.1364  -11.4513  -14.1257 N   0  0  0  0  0  0  0  0  0  0  0  0
   18.4350  -10.2942  -15.7322 C   0  0  0  0  0  0  0  0  0  0  0  0
   19.4628  -10.2340  -16.4722 O   0  0  0  0  0  0  0  0  0  0  0  0
   16.8759   -7.5185  -17.8116 C   0  0  0  0  0  0  0  0  0  0  0  0
   17.2719   -7.0170  -16.4603 C   0  0  1  0  0  0  0  0  0  0  0  0
   16.2503   -6.9598  -15.5481 O   0  0  0  0  0  0  0  0  0  0  0  0
   18.4141   -7.8228  -15.8621 C   0  0  2  0  0  0  0  0  0  0  0  0
   17.8581   -9.0698  -15.3489 N   0  0  0  0  0  0  0  0  0  0  0  0
   19.0296   -7.0259  -14.7928 C   0  0  0  0  0  0  0  0  0  0  0  0
   18.5795   -7.0035  -13.6086 O   0  0  0  0  0  0  0  0  0  0  0  0
   20.1753   -6.2471  -15.0821 N   0  0  0  0  0  0  0  0  0  0  0  0
   20.7755   -5.3685  -14.0695 C   0  0  1  0  0  0  0  0  0  0  0  0
   21.8652   -6.1623  -13.4040 C   0  0  0  0  0  0  0  0  0  0  0  0
   22.9652   -6.6096  -14.2384 C   0  0  0  0  0  0  0  0  0  0  0  0
   23.7537   -5.8074  -15.0461 C   0  0  0  0  0  0  0  0  0  0  0  0
   24.6413   -6.5742  -15.6920 N   0  0  0  0  0  0  0  0  0  0  0  0
   24.4441   -7.8621  -15.3174 C   0  0  0  0  0  0  0  0  0  0  0  0
   25.0656   -9.0496  -15.6468 C   0  0  0  0  0  0  0  0  0  0  0  0
   24.6711  -10.2488  -15.0949 C   0  0  0  0  0  0  0  0  0  0  0  0
   23.6313  -10.2708  -14.1912 C   0  0  0  0  0  0  0  0  0  0  0  0
   22.9853   -9.1120  -13.8366 C   0  0  0  0  0  0  0  0  0  0  0  0
   23.4005   -7.9125  -14.4074 C   0  0  0  0  0  0  0  0  0  0  0  0
   21.1882   -4.0911  -14.6420 C   0  0  0  0  0  0  0  0  0  0  0  0
   21.1647   -3.8148  -15.9940 O   0  0  0  0  0  0  0  0  0  0  0  0
   21.6045   -3.1519  -13.8927 O   0  0  0  0  0  0  0  0  0  0  0  0
  1  2  1  0
  2  3  1  0
  3  4  1  6
  5  6  1  1
  5  3  1  0
  7  8  2  0
  7  5  1  0
 10  9  1  6
 10 12  1  0
 11 10  1  0
 12 14  1  0
 12 13  1  1
 13  7  1  0
 14 16  1  0
 15 14  2  0
 16 17  1  0
 17 28  1  0
 17 18  1  6
 19 18  1  0
 19 27  1  0
 20 21  1  0
 20 19  2  0
 21 22  1  0
 22 27  2  0
 22 23  1  0
 23 24  2  0
 24 25  1  0
 26 25  2  0
 27 26  1  0
 28 30  2  0
 28 29  1  0
M  END
$$$$
