ITW.pdb
     RDKit          3D

 30 31  0  0  1  0  0  0  0  0999 V2000
   14.3672  -12.3034  -19.0895 C   0  0  0  0  0  0  0  0  0  0  0  0
   14.5419  -11.4659  -17.8755 C   0  0  0  0  0  0  0  0  0  0  0  0
   15.8587  -10.7623  -17.8197 C   0  0  2  0  0  0  0  0  0  0  0  0
   16.9669  -11.8269  -17.7207 C   0  0  0  0  0  0  0  0  0  0  0  0
   15.8998   -9.8713  -16.5921 C   0  0  2  0  0  0  0  0  0  0  0  0
   14.8941   -8.8308  -16.8230 N   0  0  0  0  0  0  0  0  0  0  0  0
   17.2213   -9.1880  -16.5736 C   0  0  0  0  0  0  0  0  0  0  0  0
   18.2552   -9.8967  -16.3826 O   0  0  0  0  0  0  0  0  0  0  0  0
   18.9226   -6.5572  -18.9881 C   0  0  0  0  0  0  0  0  0  0  0  0
   18.9077   -6.0955  -17.5666 C   0  0  1  0  0  0  0  0  0  0  0  0
   17.9519   -5.1558  -17.2790 O   0  0  0  0  0  0  0  0  0  0  0  0
   18.7627   -7.2518  -16.5900 C   0  0  2  0  0  0  0  0  0  0  0  0
   17.4242   -7.8077  -16.7538 N   0  0  0  0  0  0  0  0  0  0  0  0
   18.9701   -6.7356  -15.2307 C   0  0  0  0  0  0  0  0  0  0  0  0
   18.0139   -6.3819  -14.4782 O   0  0  0  0  0  0  0  0  0  0  0  0
   20.2876   -6.6250  -14.7259 N   0  0  0  0  0  0  0  0  0  0  0  0
   20.5474   -6.0842  -13.3852 C   0  0  1  0  0  0  0  0  0  0  0  0
   20.5005   -7.2491  -12.4359 C   0  0  0  0  0  0  0  0  0  0  0  0
   20.8754   -6.9973  -11.0565 C   0  0  0  0  0  0  0  0  0  0  0  0
   20.3557   -6.0081  -10.2387 C   0  0  0  0  0  0  0  0  0  0  0  0
   20.9670   -6.0581   -9.0483 N   0  0  0  0  0  0  0  0  0  0  0  0
   21.8753   -7.0641   -9.0777 C   0  0  0  0  0  0  0  0  0  0  0  0
   22.7594   -7.5689   -8.1458 C   0  0  0  0  0  0  0  0  0  0  0  0
   23.5801   -8.6375   -8.4334 C   0  0  0  0  0  0  0  0  0  0  0  0
   23.5224   -9.2217   -9.6798 C   0  0  0  0  0  0  0  0  0  0  0  0
   22.6573   -8.7499  -10.6363 C   0  0  0  0  0  0  0  0  0  0  0  0
   21.8384   -7.6690  -10.3237 C   0  0  0  0  0  0  0  0  0  0  0  0
   21.7746   -5.2950  -13.3518 C   0  0  0  0  0  0  0  0  0  0  0  0
   21.9954   -4.2601  -12.4657 O   0  0  0  0  0  0  0  0  0  0  0  0
   22.7190   -5.5346  -14.1688 O   0  0  0  0  0  0  0  0  0  0  0  0
  1  2  1  0
  2  3  1  0
  3  4  1  1
  5  6  1  6
  5  3  1  0
  7  8  2  0
  7  5  1  0
 10  9  1  6
 10 12  1  0
 11 10  1  0
 12 14  1  0
 12 13  1  1
 13  7  1  0
 14 16  1  0
 15 14  2  0
 16 17  1  0
 17 28  1  0
 17 18  1  1
 19 18  1  0
 19 27  1  0
 20 21  1  0
 20 19  2  0
 21 22  1  0
 22 27  2  0
 22 23  1  0
 23 24  2  0
 24 25  1  0
 26 25  2  0
 27 26  1  0
 28 30  2  0
 28 29  1  0
M  END
$$$$
