ITW.pdb
     RDKit          3D

 30 31  0  0  1  0  0  0  0  0999 V2000
   28.9567  -15.0326  -18.2900 C   0  0  0  0  0  0  0  0  0  0  0  0
   29.0495  -16.4900  -18.0196 C   0  0  0  0  0  0  0  0  0  0  0  0
   27.7399  -17.1166  -17.6667 C   0  0  2  0  0  0  0  0  0  0  0  0
   27.3193  -16.5981  -16.2790 C   0  0  0  0  0  0  0  0  0  0  0  0
   27.9024  -18.6245  -17.6172 C   0  0  2  0  0  0  0  0  0  0  0  0
   28.4619  -19.0062  -18.9168 N   0  0  0  0  0  0  0  0  0  0  0  0
   26.5423  -19.2236  -17.5479 C   0  0  0  0  0  0  0  0  0  0  0  0
   25.6955  -18.8811  -18.4273 O   0  0  0  0  0  0  0  0  0  0  0  0
   25.4796  -22.6988  -17.9011 C   0  0  0  0  0  0  0  0  0  0  0  0
   24.8287  -22.1844  -16.6577 C   0  0  1  0  0  0  0  0  0  0  0  0
   25.4086  -22.6078  -15.4900 O   0  0  0  0  0  0  0  0  0  0  0  0
   24.7486  -20.6662  -16.6388 C   0  0  2  0  0  0  0  0  0  0  0  0
   26.1112  -20.1492  -16.5803 N   0  0  0  0  0  0  0  0  0  0  0  0
   23.9666  -20.2607  -15.4635 C   0  0  0  0  0  0  0  0  0  0  0  0
   24.4975  -19.7724  -14.4218 O   0  0  0  0  0  0  0  0  0  0  0  0
   22.5598  -20.4139  -15.4818 N   0  0  0  0  0  0  0  0  0  0  0  0
   21.7221  -19.8935  -14.3934 C   0  0  1  0  0  0  0  0  0  0  0  0
   21.9467  -18.4075  -14.3517 C   0  0  0  0  0  0  0  0  0  0  0  0
   21.4321  -17.6266  -15.4616 C   0  0  0  0  0  0  0  0  0  0  0  0
   20.1300  -17.6400  -15.9326 C   0  0  0  0  0  0  0  0  0  0  0  0
   20.0376  -16.8209  -16.9879 N   0  0  0  0  0  0  0  0  0  0  0  0
   21.2579  -16.2741  -17.2110 C   0  0  0  0  0  0  0  0  0  0  0  0
   21.7344  -15.3680  -18.1367 C   0  0  0  0  0  0  0  0  0  0  0  0
   23.0487  -14.9547  -18.1326 C   0  0  0  0  0  0  0  0  0  0  0  0
   23.9143  -15.4538  -17.1841 C   0  0  0  0  0  0  0  0  0  0  0  0
   23.4813  -16.3577  -16.2453 C   0  0  0  0  0  0  0  0  0  0  0  0
   22.1497  -16.7614  -16.2691 C   0  0  0  0  0  0  0  0  0  0  0  0
   20.3322  -20.3155  -14.5353 C   0  0  0  0  0  0  0  0  0  0  0  0
   19.8508  -21.0109  -15.6260 O   0  0  0  0  0  0  0  0  0  0  0  0
   19.4798  -20.0458  -13.6311 O   0  0  0  0  0  0  0  0  0  0  0  0
  1  2  1  0
  2  3  1  0
  3  4  1  1
  5  6  1  6
  5  3  1  0
  7  8  2  0
  7  5  1  0
 10  9  1  6
 10 12  1  0
 11 10  1  0
 12 14  1  0
 12 13  1  1
 13  7  1  0
 14 16  1  0
 15 14  2  0
 16 17  1  0
 17 28  1  0
 17 18  1  6
 19 18  1  0
 19 27  1  0
 20 21  1  0
 20 19  2  0
 21 22  1  0
 22 27  2  0
 22 23  1  0
 23 24  2  0
 24 25  1  0
 26 25  2  0
 27 26  1  0
 28 30  2  0
 28 29  1  0
M  END
$$$$
