ITW.pdb
     RDKit          3D

 30 31  0  0  1  0  0  0  0  0999 V2000
   19.3352  -22.8907  -18.9775 C   0  0  0  0  0  0  0  0  0  0  0  0
   19.1159  -21.4309  -18.8150 C   0  0  0  0  0  0  0  0  0  0  0  0
   18.7265  -21.0361  -17.4277 C   0  0  2  0  0  0  0  0  0  0  0  0
   17.3014  -20.4548  -17.4772 C   0  0  0  0  0  0  0  0  0  0  0  0
   19.6884  -19.9788  -16.9183 C   0  0  2  0  0  0  0  0  0  0  0  0
   20.2039  -19.3030  -18.1121 N   0  0  0  0  0  0  0  0  0  0  0  0
   20.8431  -20.6807  -16.2958 C   0  0  0  0  0  0  0  0  0  0  0  0
   20.6525  -21.2791  -15.1943 O   0  0  0  0  0  0  0  0  0  0  0  0
   22.8249  -23.6612  -17.2967 C   0  0  0  0  0  0  0  0  0  0  0  0
   23.7537  -22.5098  -17.0822 C   0  0  1  0  0  0  0  0  0  0  0  0
   24.1461  -21.8687  -18.2285 O   0  0  0  0  0  0  0  0  0  0  0  0
   23.1786  -21.4810  -16.1217 C   0  0  2  0  0  0  0  0  0  0  0  0
   22.1425  -20.7394  -16.8316 N   0  0  0  0  0  0  0  0  0  0  0  0
   24.2689  -20.5997  -15.6836 C   0  0  0  0  0  0  0  0  0  0  0  0
   24.2194  -19.3388  -15.7978 O   0  0  0  0  0  0  0  0  0  0  0  0
   25.4288  -21.1686  -15.1056 N   0  0  0  0  0  0  0  0  0  0  0  0
   26.5024  -20.3254  -14.5637 C   0  0  1  0  0  0  0  0  0  0  0  0
   25.8673  -19.4281  -13.5380 C   0  0  0  0  0  0  0  0  0  0  0  0
   25.6342  -19.9877  -12.2193 C   0  0  0  0  0  0  0  0  0  0  0  0
   26.6057  -20.2985  -11.2828 C   0  0  0  0  0  0  0  0  0  0  0  0
   26.0187  -20.8273  -10.2017 N   0  0  0  0  0  0  0  0  0  0  0  0
   24.6810  -20.8650  -10.4188 C   0  0  0  0  0  0  0  0  0  0  0  0
   23.6098  -21.2862   -9.6572 C   0  0  0  0  0  0  0  0  0  0  0  0
   22.3150  -21.1959  -10.1193 C   0  0  0  0  0  0  0  0  0  0  0  0
   22.0760  -20.6733  -11.3715 C   0  0  0  0  0  0  0  0  0  0  0  0
   23.1133  -20.2433  -12.1620 C   0  0  0  0  0  0  0  0  0  0  0  0
   24.4129  -20.3448  -11.6748 C   0  0  0  0  0  0  0  0  0  0  0  0
   27.6271  -21.1253  -14.0890 C   0  0  0  0  0  0  0  0  0  0  0  0
   27.6015  -22.5020  -13.9944 O   0  0  0  0  0  0  0  0  0  0  0  0
   28.7102  -20.5661  -13.7272 O   0  0  0  0  0  0  0  0  0  0  0  0
  1  2  1  0
  2  3  1  0
  3  4  1  6
  5  6  1  6
  5  3  1  0
  7  8  2  0
  7  5  1  0
 10  9  1  6
 10 12  1  0
 11 10  1  0
 12 14  1  0
 12 13  1  6
 13  7  1  0
 14 16  1  0
 15 14  2  0
 16 17  1  0
 17 28  1  0
 17 18  1  1
 19 18  1  0
 19 27  1  0
 20 21  1  0
 20 19  2  0
 21 22  1  0
 22 27  2  0
 22 23  1  0
 23 24  2  0
 24 25  1  0
 26 25  2  0
 27 26  1  0
 28 30  2  0
 28 29  1  0
M  END
$$$$
