ITW.pdb
     RDKit          3D

 30 31  0  0  1  0  0  0  0  0999 V2000
   25.5696  -21.1424  -18.9632 C   0  0  0  0  0  0  0  0  0  0  0  0
   26.1708  -21.6143  -17.6898 C   0  0  0  0  0  0  0  0  0  0  0  0
   27.6341  -21.3335  -17.5799 C   0  0  2  0  0  0  0  0  0  0  0  0
   28.3548  -22.1006  -18.7039 C   0  0  0  0  0  0  0  0  0  0  0  0
   28.1377  -21.8161  -16.2323 C   0  0  2  0  0  0  0  0  0  0  0  0
   27.6208  -23.1789  -16.0803 N   0  0  0  0  0  0  0  0  0  0  0  0
   27.4795  -20.9925  -15.1826 C   0  0  0  0  0  0  0  0  0  0  0  0
   27.7434  -19.7529  -15.1460 O   0  0  0  0  0  0  0  0  0  0  0  0
   24.4342  -19.4157  -14.8037 C   0  0  0  0  0  0  0  0  0  0  0  0
   24.5628  -20.3081  -13.6115 C   0  0  1  0  0  0  0  0  0  0  0  0
   23.9271  -21.5169  -13.7290 O   0  0  0  0  0  0  0  0  0  0  0  0
   26.0150  -20.5565  -13.2357 C   0  0  2  0  0  0  0  0  0  0  0  0
   26.5779  -21.4767  -14.2174 N   0  0  0  0  0  0  0  0  0  0  0  0
   26.0499  -21.1243  -11.8816 C   0  0  0  0  0  0  0  0  0  0  0  0
   26.2701  -22.3520  -11.6583 O   0  0  0  0  0  0  0  0  0  0  0  0
   25.8323  -20.2763  -10.7697 N   0  0  0  0  0  0  0  0  0  0  0  0
   25.7966  -20.8079   -9.4009 C   0  0  1  0  0  0  0  0  0  0  0  0
   26.8832  -20.1026   -8.6380 C   0  0  0  0  0  0  0  0  0  0  0  0
   26.9839  -20.3794   -7.2168 C   0  0  0  0  0  0  0  0  0  0  0  0
   26.2922  -21.3608   -6.5269 C   0  0  0  0  0  0  0  0  0  0  0  0
   26.6144  -21.2933   -5.2289 N   0  0  0  0  0  0  0  0  0  0  0  0
   27.5050  -20.2847   -5.0628 C   0  0  0  0  0  0  0  0  0  0  0  0
   28.1743  -19.7840   -3.9645 C   0  0  0  0  0  0  0  0  0  0  0  0
   29.0622  -18.7364   -4.0754 C   0  0  0  0  0  0  0  0  0  0  0  0
   29.2928  -18.1697   -5.3098 C   0  0  0  0  0  0  0  0  0  0  0  0
   28.6473  -18.6373   -6.4281 C   0  0  0  0  0  0  0  0  0  0  0  0
   27.7541  -19.6958   -6.2920 C   0  0  0  0  0  0  0  0  0  0  0  0
   24.4600  -20.7148   -8.8222 C   0  0  0  0  0  0  0  0  0  0  0  0
   23.9862  -21.5703   -7.8483 O   0  0  0  0  0  0  0  0  0  0  0  0
   23.6500  -19.8142   -9.2090 O   0  0  0  0  0  0  0  0  0  0  0  0
  1  2  1  0
  2  3  1  0
  3  4  1  6
  5  6  1  1
  5  3  1  0
  7  8  2  0
  7  5  1  0
 10  9  1  6
 10 12  1  0
 11 10  1  0
 12 14  1  0
 12 13  1  6
 13  7  1  0
 14 16  1  0
 15 14  2  0
 16 17  1  0
 17 28  1  0
 17 18  1  1
 19 18  1  0
 19 27  1  0
 20 21  1  0
 20 19  2  0
 21 22  1  0
 22 27  2  0
 22 23  1  0
 23 24  2  0
 24 25  1  0
 26 25  2  0
 27 26  1  0
 28 30  2  0
 28 29  1  0
M  END
$$$$
