ITW.pdb
     RDKit          3D

 30 31  0  0  1  0  0  0  0  0999 V2000
   26.6117  -20.3392  -20.5005 C   0  0  0  0  0  0  0  0  0  0  0  0
   26.2820  -21.2547  -19.3786 C   0  0  0  0  0  0  0  0  0  0  0  0
   27.4536  -21.5832  -18.5116 C   0  0  2  0  0  0  0  0  0  0  0  0
   28.4543  -22.4014  -19.3484 C   0  0  0  0  0  0  0  0  0  0  0  0
   26.9858  -22.4101  -17.3284 C   0  0  2  0  0  0  0  0  0  0  0  0
   25.5253  -22.2916  -17.3139 N   0  0  0  0  0  0  0  0  0  0  0  0
   27.4781  -21.7470  -16.0908 C   0  0  0  0  0  0  0  0  0  0  0  0
   28.7225  -21.7833  -15.8508 O   0  0  0  0  0  0  0  0  0  0  0  0
   28.2787  -18.5035  -15.1417 C   0  0  0  0  0  0  0  0  0  0  0  0
   27.2657  -18.9706  -14.1468 C   0  0  1  0  0  0  0  0  0  0  0  0
   25.9793  -18.5778  -14.4111 O   0  0  0  0  0  0  0  0  0  0  0  0
   27.2875  -20.4809  -13.9728 C   0  0  2  0  0  0  0  0  0  0  0  0
   26.6720  -21.0741  -15.1547 N   0  0  0  0  0  0  0  0  0  0  0  0
   26.5430  -20.8148  -12.7516 C   0  0  0  0  0  0  0  0  0  0  0  0
   25.3169  -21.1341  -12.7616 O   0  0  0  0  0  0  0  0  0  0  0  0
   27.2107  -20.7850  -11.5041 N   0  0  0  0  0  0  0  0  0  0  0  0
   26.4894  -21.0256  -10.2474 C   0  0  1  0  0  0  0  0  0  0  0  0
   27.4999  -20.8992   -9.1414 C   0  0  0  0  0  0  0  0  0  0  0  0
   26.9910  -20.7185   -7.7943 C   0  0  0  0  0  0  0  0  0  0  0  0
   25.7068  -21.0055   -7.3632 C   0  0  0  0  0  0  0  0  0  0  0  0
   25.5951  -20.6765   -6.0700 N   0  0  0  0  0  0  0  0  0  0  0  0
   26.7858  -20.1810   -5.6520 C   0  0  0  0  0  0  0  0  0  0  0  0
   27.2414  -19.7103   -4.4372 C   0  0  0  0  0  0  0  0  0  0  0  0
   28.5365  -19.2700   -4.2729 C   0  0  0  0  0  0  0  0  0  0  0  0
   29.4038  -19.2973   -5.3431 C   0  0  0  0  0  0  0  0  0  0  0  0
   28.9908  -19.7573   -6.5693 C   0  0  0  0  0  0  0  0  0  0  0  0
   27.6780  -20.1964   -6.7121 C   0  0  0  0  0  0  0  0  0  0  0  0
   25.3156  -20.1665  -10.1277 C   0  0  0  0  0  0  0  0  0  0  0  0
   24.0905  -20.6041   -9.6667 O   0  0  0  0  0  0  0  0  0  0  0  0
   25.3761  -18.9405  -10.4593 O   0  0  0  0  0  0  0  0  0  0  0  0
  1  2  1  0
  2  3  1  0
  3  4  1  6
  5  6  1  1
  5  3  1  0
  7  8  2  0
  7  5  1  0
 10  9  1  6
 10 12  1  0
 11 10  1  0
 12 14  1  0
 12 13  1  6
 13  7  1  0
 14 16  1  0
 15 14  2  0
 16 17  1  0
 17 28  1  0
 17 18  1  1
 19 18  1  0
 19 27  1  0
 20 21  1  0
 20 19  2  0
 21 22  1  0
 22 27  2  0
 22 23  1  0
 23 24  2  0
 24 25  1  0
 26 25  2  0
 27 26  1  0
 28 30  2  0
 28 29  1  0
M  END
$$$$
