ITW.pdb
     RDKit          3D

 30 31  0  0  1  0  0  0  0  0999 V2000
   20.8226  -20.7383  -18.2345 C   0  0  0  0  0  0  0  0  0  0  0  0
   21.5384  -19.8263  -17.3064 C   0  0  0  0  0  0  0  0  0  0  0  0
   22.4124  -20.5378  -16.3255 C   0  0  2  0  0  0  0  0  0  0  0  0
   21.7928  -20.3744  -14.9252 C   0  0  0  0  0  0  0  0  0  0  0  0
   23.7965  -19.9161  -16.3437 C   0  0  2  0  0  0  0  0  0  0  0  0
   24.3671  -20.2563  -17.6500 N   0  0  0  0  0  0  0  0  0  0  0  0
   24.6210  -20.6190  -15.3240 C   0  0  0  0  0  0  0  0  0  0  0  0
   24.3621  -21.8371  -15.0859 O   0  0  0  0  0  0  0  0  0  0  0  0
   28.1734  -19.1341  -13.5280 C   0  0  0  0  0  0  0  0  0  0  0  0
   27.8110  -20.5811  -13.6227 C   0  0  1  0  0  0  0  0  0  0  0  0
   28.4351  -21.3894  -12.7082 O   0  0  0  0  0  0  0  0  0  0  0  0
   26.3101  -20.8035  -13.5246 C   0  0  2  0  0  0  0  0  0  0  0  0
   25.6762  -20.0416  -14.5946 N   0  0  0  0  0  0  0  0  0  0  0  0
   25.8627  -20.3502  -12.2011 C   0  0  0  0  0  0  0  0  0  0  0  0
   25.2390  -19.2616  -12.0238 O   0  0  0  0  0  0  0  0  0  0  0  0
   26.1305  -21.1537  -11.0673 N   0  0  0  0  0  0  0  0  0  0  0  0
   25.8828  -20.6590   -9.7066 C   0  0  1  0  0  0  0  0  0  0  0  0
   26.4896  -21.6640   -8.7674 C   0  0  0  0  0  0  0  0  0  0  0  0
   26.5627  -21.3016   -7.3639 C   0  0  0  0  0  0  0  0  0  0  0  0
   25.5036  -21.2785   -6.4721 C   0  0  0  0  0  0  0  0  0  0  0  0
   25.9448  -20.8608   -5.2788 N   0  0  0  0  0  0  0  0  0  0  0  0
   27.2738  -20.6124   -5.3790 C   0  0  0  0  0  0  0  0  0  0  0  0
   28.2275  -20.1840   -4.4780 C   0  0  0  0  0  0  0  0  0  0  0  0
   29.5467  -20.0264   -4.8426 C   0  0  0  0  0  0  0  0  0  0  0  0
   29.9308  -20.3013   -6.1368 C   0  0  0  0  0  0  0  0  0  0  0  0
   29.0136  -20.7293   -7.0650 C   0  0  0  0  0  0  0  0  0  0  0  0
   27.6865  -20.8806   -6.6743 C   0  0  0  0  0  0  0  0  0  0  0  0
   26.3451  -19.2847   -9.5413 C   0  0  0  0  0  0  0  0  0  0  0  0
   27.5315  -18.8083  -10.0614 O   0  0  0  0  0  0  0  0  0  0  0  0
   25.6520  -18.4446   -8.8851 O   0  0  0  0  0  0  0  0  0  0  0  0
  1  2  1  0
  2  3  1  0
  3  4  1  1
  5  6  1  6
  5  3  1  0
  7  8  2  0
  7  5  1  0
 10  9  1  1
 10 12  1  0
 11 10  1  0
 12 14  1  0
 12 13  1  6
 13  7  1  0
 14 16  1  0
 15 14  2  0
 16 17  1  0
 17 28  1  0
 17 18  1  1
 19 18  1  0
 19 27  1  0
 20 21  1  0
 20 19  2  0
 21 22  1  0
 22 27  2  0
 22 23  1  0
 23 24  2  0
 24 25  1  0
 26 25  2  0
 27 26  1  0
 28 30  2  0
 28 29  1  0
M  END
$$$$
