ITW.pdb
     RDKit          3D

 30 31  0  0  1  0  0  0  0  0999 V2000
   25.8753  -14.0074  -16.0573 C   0  0  0  0  0  0  0  0  0  0  0  0
   25.2293  -13.2321  -17.1470 C   0  0  0  0  0  0  0  0  0  0  0  0
   24.9596  -11.8073  -16.7875 C   0  0  2  0  0  0  0  0  0  0  0  0
   24.0146  -11.7907  -15.5717 C   0  0  0  0  0  0  0  0  0  0  0  0
   24.2915  -11.1121  -17.9592 C   0  0  2  0  0  0  0  0  0  0  0  0
   25.2735  -11.1354  -19.0468 N   0  0  0  0  0  0  0  0  0  0  0  0
   24.1018   -9.6837  -17.5887 C   0  0  0  0  0  0  0  0  0  0  0  0
   25.1332   -8.9955  -17.3237 O   0  0  0  0  0  0  0  0  0  0  0  0
   23.4359   -6.8421  -19.4264 C   0  0  0  0  0  0  0  0  0  0  0  0
   22.3990   -6.8169  -18.3501 C   0  0  1  0  0  0  0  0  0  0  0  0
   21.1555   -7.2402  -18.7421 O   0  0  0  0  0  0  0  0  0  0  0  0
   22.8222   -7.6160  -17.1278 C   0  0  2  0  0  0  0  0  0  0  0  0
   22.8622   -9.0236  -17.5081 N   0  0  0  0  0  0  0  0  0  0  0  0
   21.8455   -7.3736  -16.0580 C   0  0  0  0  0  0  0  0  0  0  0  0
   21.0509   -8.2675  -15.6395 O   0  0  0  0  0  0  0  0  0  0  0  0
   21.7792   -6.0933  -15.4585 N   0  0  0  0  0  0  0  0  0  0  0  0
   20.8503   -5.8154  -14.3552 C   0  0  1  0  0  0  0  0  0  0  0  0
   21.2366   -6.7319  -13.2276 C   0  0  0  0  0  0  0  0  0  0  0  0
   20.4032   -6.7110  -12.0396 C   0  0  0  0  0  0  0  0  0  0  0  0
   20.5146   -5.8244  -10.9817 C   0  0  0  0  0  0  0  0  0  0  0  0
   19.6010   -6.1337  -10.0530 N   0  0  0  0  0  0  0  0  0  0  0  0
   18.8961   -7.2065  -10.4893 C   0  0  0  0  0  0  0  0  0  0  0  0
   17.8453   -7.9278   -9.9598 C   0  0  0  0  0  0  0  0  0  0  0  0
   17.2863   -8.9910  -10.6347 C   0  0  0  0  0  0  0  0  0  0  0  0
   17.7834   -9.3487  -11.8688 C   0  0  0  0  0  0  0  0  0  0  0  0
   18.8285   -8.6580  -12.4313 C   0  0  0  0  0  0  0  0  0  0  0  0
   19.3779   -7.5880  -11.7311 C   0  0  0  0  0  0  0  0  0  0  0  0
   20.8156   -4.3940  -14.0262 C   0  0  0  0  0  0  0  0  0  0  0  0
   19.6545   -3.6997  -13.7525 O   0  0  0  0  0  0  0  0  0  0  0  0
   21.8896   -3.7148  -13.9819 O   0  0  0  0  0  0  0  0  0  0  0  0
  1  2  1  0
  2  3  1  0
  3  4  1  1
  5  6  1  6
  5  3  1  0
  7  8  2  0
  7  5  1  0
 10  9  1  6
 10 12  1  0
 11 10  1  0
 12 14  1  0
 12 13  1  6
 13  7  1  0
 14 16  1  0
 15 14  2  0
 16 17  1  0
 17 28  1  0
 17 18  1  1
 19 18  1  0
 19 27  1  0
 20 21  1  0
 20 19  2  0
 21 22  1  0
 22 27  2  0
 22 23  1  0
 23 24  2  0
 24 25  1  0
 26 25  2  0
 27 26  1  0
 28 30  2  0
 28 29  1  0
M  END
$$$$
