KFI.pdb
     RDKit          3D

 29 29  0  0  1  0  0  0  0  0999 V2000
    8.5474  -15.7952   19.4233 N   0  0  0  0  0  0  0  0  0  0  0  0
    8.6076  -16.7384   20.4958 C   0  0  1  0  0  0  0  0  0  0  0  0
    9.5733  -17.8700   20.2332 C   0  0  0  0  0  0  0  0  0  0  0  0
    9.1622  -18.7317   19.0854 C   0  0  0  0  0  0  0  0  0  0  0  0
   10.3015  -19.4573   18.4389 C   0  0  0  0  0  0  0  0  0  0  0  0
    9.8819  -20.2608   17.2384 C   0  0  0  0  0  0  0  0  0  0  0  0
   11.0791  -20.8726   16.6881 N   0  0  0  0  0  0  0  0  0  0  0  0
    8.9178  -16.0392   21.7513 C   0  0  0  0  0  0  0  0  0  0  0  0
   10.1286  -15.7298   21.9990 O   0  0  0  0  0  0  0  0  0  0  0  0
    7.9487  -15.6796   22.7205 N   0  0  0  0  0  0  0  0  0  0  0  0
    8.3005  -14.8482   23.9000 C   0  0  1  0  0  0  0  0  0  0  0  0
    7.0347  -14.2353   24.3364 C   0  0  0  0  0  0  0  0  0  0  0  0
    7.0171  -13.3590   25.4878 C   0  0  0  0  0  0  0  0  0  0  0  0
    8.1984  -13.0803   26.1442 C   0  0  0  0  0  0  0  0  0  0  0  0
    8.2257  -12.2490   27.2528 C   0  0  0  0  0  0  0  0  0  0  0  0
    7.0644  -11.6753   27.7312 C   0  0  0  0  0  0  0  0  0  0  0  0
    5.8737  -11.9472   27.0815 C   0  0  0  0  0  0  0  0  0  0  0  0
    5.8381  -12.7716   25.9800 C   0  0  0  0  0  0  0  0  0  0  0  0
    8.9013  -15.7900   24.8684 C   0  0  0  0  0  0  0  0  0  0  0  0
    8.3534  -16.9398   25.0483 O   0  0  0  0  0  0  0  0  0  0  0  0
   14.3298  -17.6379   26.9732 C   0  0  0  0  0  0  0  0  0  0  0  0
   12.8427  -17.6432   27.1489 C   0  0  0  0  0  0  0  0  0  0  0  0
   12.1478  -16.5897   26.3361 C   0  0  2  0  0  0  0  0  0  0  0  0
   12.6828  -15.2411   26.7543 C   0  0  0  0  0  0  0  0  0  0  0  0
   10.6332  -16.6385   26.4282 C   0  0  2  0  0  0  0  0  0  0  0  0
   10.0596  -15.5522   25.6403 N   0  0  0  0  0  0  0  0  0  0  0  0
   10.2377  -16.5631   27.8509 C   0  0  0  0  0  0  0  0  0  0  0  0
   10.5152  -17.4887   28.6773 O   0  0  0  0  0  0  0  0  0  0  0  0
    9.5421  -15.4873   28.3841 O   0  0  0  0  0  0  0  0  0  0  0  0
  2  1  1  6
  2  3  1  0
  4  3  1  0
  4  5  1  0
  6  5  1  0
  6  7  1  0
  8  2  1  0
  9  8  2  0
 10  8  1  0
 11 10  1  0
 11 12  1  1
 12 13  1  0
 13 18  2  0
 14 13  1  0
 14 15  2  0
 15 16  1  0
 16 17  2  0
 18 17  1  0
 19 26  1  0
 19 11  1  0
 20 19  2  0
 22 21  1  0
 23 22  1  0
 23 24  1  1
 25 23  1  0
 25 26  1  6
 27 25  1  0
 27 29  1  0
 28 27  2  0
M  END
$$$$
