KFI.pdb
     RDKit          3D

 29 29  0  0  1  0  0  0  0  0999 V2000
    9.0148  -18.5552   20.3324 N   0  0  0  0  0  0  0  0  0  0  0  0
   10.2020  -17.7599   20.3733 C   0  0  1  0  0  0  0  0  0  0  0  0
   10.6137  -17.2436   19.0147 C   0  0  0  0  0  0  0  0  0  0  0  0
   10.5664  -18.2932   17.9540 C   0  0  0  0  0  0  0  0  0  0  0  0
   10.9893  -17.8039   16.6034 C   0  0  0  0  0  0  0  0  0  0  0  0
   10.7913  -18.8269   15.5185 C   0  0  0  0  0  0  0  0  0  0  0  0
   11.1216  -18.1877   14.2564 N   0  0  0  0  0  0  0  0  0  0  0  0
   10.0308  -16.6669   21.3415 C   0  0  0  0  0  0  0  0  0  0  0  0
   10.7396  -15.6161   21.2130 O   0  0  0  0  0  0  0  0  0  0  0  0
    9.1180  -16.7011   22.4247 N   0  0  0  0  0  0  0  0  0  0  0  0
    8.9314  -15.5314   23.3210 C   0  0  1  0  0  0  0  0  0  0  0  0
    7.4808  -15.2790   23.3354 C   0  0  0  0  0  0  0  0  0  0  0  0
    6.9360  -14.2521   24.1972 C   0  0  0  0  0  0  0  0  0  0  0  0
    7.2535  -12.9304   23.9592 C   0  0  0  0  0  0  0  0  0  0  0  0
    6.7562  -11.9161   24.7622 C   0  0  0  0  0  0  0  0  0  0  0  0
    5.9256  -12.2043   25.8268 C   0  0  0  0  0  0  0  0  0  0  0  0
    5.6000  -13.5257   26.0755 C   0  0  0  0  0  0  0  0  0  0  0  0
    6.0897  -14.5388   25.2830 C   0  0  0  0  0  0  0  0  0  0  0  0
    9.5028  -15.9474   24.6195 C   0  0  0  0  0  0  0  0  0  0  0  0
    9.5864  -17.2009   24.8957 O   0  0  0  0  0  0  0  0  0  0  0  0
   10.2106  -14.3397   30.4592 C   0  0  0  0  0  0  0  0  0  0  0  0
   10.8451  -15.0736   29.3186 C   0  0  0  0  0  0  0  0  0  0  0  0
   10.3781  -14.5947   27.9747 C   0  0  2  0  0  0  0  0  0  0  0  0
    8.9639  -14.0859   28.1198 C   0  0  0  0  0  0  0  0  0  0  0  0
   10.4823  -15.6386   26.8772 C   0  0  2  0  0  0  0  0  0  0  0  0
    9.9894  -15.0803   25.6223 N   0  0  0  0  0  0  0  0  0  0  0  0
    9.7252  -16.8408   27.2870 C   0  0  0  0  0  0  0  0  0  0  0  0
    8.4954  -16.9921   27.0019 O   0  0  0  0  0  0  0  0  0  0  0  0
   10.2953  -17.8823   28.0050 O   0  0  0  0  0  0  0  0  0  0  0  0
  2  1  1  6
  2  3  1  0
  4  3  1  0
  4  5  1  0
  6  5  1  0
  6  7  1  0
  8  2  1  0
  9  8  2  0
 10  8  1  0
 11 10  1  0
 11 12  1  1
 12 13  1  0
 13 18  2  0
 14 13  1  0
 14 15  2  0
 15 16  1  0
 16 17  2  0
 18 17  1  0
 19 26  1  0
 19 11  1  0
 20 19  2  0
 22 21  1  0
 23 22  1  0
 23 24  1  1
 25 23  1  0
 25 26  1  6
 27 25  1  0
 27 29  1  0
 28 27  2  0
M  END
$$$$
