KFI.pdb
     RDKit          3D

 29 29  0  0  1  0  0  0  0  0999 V2000
   10.4895  -17.2044   19.1088 N   0  0  0  0  0  0  0  0  0  0  0  0
   10.7235  -17.7232   20.4201 C   0  0  1  0  0  0  0  0  0  0  0  0
   12.0978  -18.3303   20.5781 C   0  0  0  0  0  0  0  0  0  0  0  0
   12.0687  -19.8198   20.6751 C   0  0  0  0  0  0  0  0  0  0  0  0
   11.3178  -20.4812   19.5611 C   0  0  0  0  0  0  0  0  0  0  0  0
   11.3571  -21.9832   19.6354 C   0  0  0  0  0  0  0  0  0  0  0  0
   10.4608  -22.4901   18.6107 N   0  0  0  0  0  0  0  0  0  0  0  0
   10.4750  -16.6728   21.4182 C   0  0  0  0  0  0  0  0  0  0  0  0
   11.3170  -15.7236   21.5334 O   0  0  0  0  0  0  0  0  0  0  0  0
    9.3466  -16.6419   22.2745 N   0  0  0  0  0  0  0  0  0  0  0  0
    9.1087  -15.5097   23.2061 C   0  0  1  0  0  0  0  0  0  0  0  0
    7.6684  -15.2198   23.1076 C   0  0  0  0  0  0  0  0  0  0  0  0
    7.0654  -14.2508   23.9971 C   0  0  0  0  0  0  0  0  0  0  0  0
    7.2238  -12.9045   23.7388 C   0  0  0  0  0  0  0  0  0  0  0  0
    6.6659  -11.9433   24.5669 C   0  0  0  0  0  0  0  0  0  0  0  0
    5.9330  -12.3110   25.6778 C   0  0  0  0  0  0  0  0  0  0  0  0
    5.7671  -13.6577   25.9472 C   0  0  0  0  0  0  0  0  0  0  0  0
    6.3179  -14.6184   25.1300 C   0  0  0  0  0  0  0  0  0  0  0  0
    9.5551  -15.9994   24.5277 C   0  0  0  0  0  0  0  0  0  0  0  0
    9.8617  -17.2410   24.6662 O   0  0  0  0  0  0  0  0  0  0  0  0
   11.3772  -14.0898   30.1848 C   0  0  0  0  0  0  0  0  0  0  0  0
   11.3507  -15.1272   29.1052 C   0  0  0  0  0  0  0  0  0  0  0  0
   10.6669  -14.6599   27.8532 C   0  0  2  0  0  0  0  0  0  0  0  0
    9.3994  -13.9403   28.2477 C   0  0  0  0  0  0  0  0  0  0  0  0
   10.3877  -15.7671   26.8526 C   0  0  2  0  0  0  0  0  0  0  0  0
    9.6904  -15.2163   25.6950 N   0  0  0  0  0  0  0  0  0  0  0  0
    9.6052  -16.8292   27.5203 C   0  0  0  0  0  0  0  0  0  0  0  0
   10.1187  -17.5953   28.3955 O   0  0  0  0  0  0  0  0  0  0  0  0
    8.2659  -17.0655   27.2443 O   0  0  0  0  0  0  0  0  0  0  0  0
  2  1  1  6
  2  3  1  0
  4  3  1  0
  4  5  1  0
  6  5  1  0
  6  7  1  0
  8  2  1  0
  9  8  2  0
 10  8  1  0
 11 10  1  0
 11 12  1  1
 12 13  1  0
 13 18  2  0
 14 13  1  0
 14 15  2  0
 15 16  1  0
 16 17  2  0
 18 17  1  0
 19 26  1  0
 19 11  1  0
 20 19  2  0
 22 21  1  0
 23 22  1  0
 23 24  1  1
 25 23  1  0
 25 26  1  6
 27 25  1  0
 27 29  1  0
 28 27  2  0
M  END
$$$$
