KFI.pdb
     RDKit          3D

 29 29  0  0  1  0  0  0  0  0999 V2000
    9.5144  -18.9101   20.6150 N   0  0  0  0  0  0  0  0  0  0  0  0
   10.4742  -17.8678   20.4254 C   0  0  1  0  0  0  0  0  0  0  0  0
   10.4452  -17.2851   19.0319 C   0  0  0  0  0  0  0  0  0  0  0  0
   10.9583  -18.2290   17.9953 C   0  0  0  0  0  0  0  0  0  0  0  0
   10.8584  -17.7008   16.5976 C   0  0  0  0  0  0  0  0  0  0  0  0
   11.3027  -18.6950   15.5598 C   0  0  0  0  0  0  0  0  0  0  0  0
   11.0971  -18.0823   14.2587 N   0  0  0  0  0  0  0  0  0  0  0  0
   10.2876  -16.8321   21.4519 C   0  0  0  0  0  0  0  0  0  0  0  0
   11.0952  -15.8472   21.4844 O   0  0  0  0  0  0  0  0  0  0  0  0
    9.2560  -16.8530   22.4230 N   0  0  0  0  0  0  0  0  0  0  0  0
    9.0967  -15.7558   23.4115 C   0  0  1  0  0  0  0  0  0  0  0  0
    7.6476  -15.5054   23.4858 C   0  0  0  0  0  0  0  0  0  0  0  0
    7.1426  -14.4342   24.3172 C   0  0  0  0  0  0  0  0  0  0  0  0
    6.3593  -14.7388   25.4117 C   0  0  0  0  0  0  0  0  0  0  0  0
    5.8525  -13.7433   26.2321 C   0  0  0  0  0  0  0  0  0  0  0  0
    6.1205  -12.4137   25.9735 C   0  0  0  0  0  0  0  0  0  0  0  0
    6.9048  -12.0958   24.8792 C   0  0  0  0  0  0  0  0  0  0  0  0
    7.4118  -13.0783   24.0595 C   0  0  0  0  0  0  0  0  0  0  0  0
    9.7032  -16.2705   24.6577 C   0  0  0  0  0  0  0  0  0  0  0  0
   10.3020  -17.4088   24.6407 O   0  0  0  0  0  0  0  0  0  0  0  0
    9.9569  -13.0058   29.1543 C   0  0  0  0  0  0  0  0  0  0  0  0
   10.4429  -13.8473   28.0150 C   0  0  0  0  0  0  0  0  0  0  0  0
   10.2754  -15.3198   28.2542 C   0  0  2  0  0  0  0  0  0  0  0  0
   11.2183  -15.7288   29.3604 C   0  0  0  0  0  0  0  0  0  0  0  0
   10.4722  -16.1728   27.0138 C   0  0  2  0  0  0  0  0  0  0  0  0
    9.6983  -15.6160   25.9090 N   0  0  0  0  0  0  0  0  0  0  0  0
   10.0793  -17.5644   27.3229 C   0  0  0  0  0  0  0  0  0  0  0  0
   10.8620  -18.3685   27.9207 O   0  0  0  0  0  0  0  0  0  0  0  0
    8.8397  -18.0899   26.9874 O   0  0  0  0  0  0  0  0  0  0  0  0
  2  1  1  6
  2  3  1  0
  4  3  1  0
  4  5  1  0
  6  5  1  0
  6  7  1  0
  8  2  1  0
  9  8  2  0
 10  8  1  0
 11 10  1  0
 11 12  1  1
 12 13  1  0
 13 18  2  0
 14 13  1  0
 14 15  2  0
 15 16  1  0
 16 17  2  0
 18 17  1  0
 19 26  1  0
 19 11  1  0
 20 19  2  0
 22 21  1  0
 23 22  1  0
 23 24  1  1
 25 23  1  0
 25 26  1  6
 27 25  1  0
 27 29  1  0
 28 27  2  0
M  END
$$$$
