KFI.pdb
     RDKit          3D

 29 29  0  0  1  0  0  0  0  0999 V2000
    9.5838  -18.4206   20.2840 N   0  0  0  0  0  0  0  0  0  0  0  0
   10.5272  -17.3505   20.1923 C   0  0  1  0  0  0  0  0  0  0  0  0
   10.5691  -16.7163   18.8219 C   0  0  0  0  0  0  0  0  0  0  0  0
   11.1667  -17.6091   17.7852 C   0  0  0  0  0  0  0  0  0  0  0  0
   10.1575  -18.4282   17.0417 C   0  0  0  0  0  0  0  0  0  0  0  0
   10.7513  -19.1871   15.8865 C   0  0  0  0  0  0  0  0  0  0  0  0
   11.0241  -20.5364   16.3506 N   0  0  0  0  0  0  0  0  0  0  0  0
   10.2525  -16.3588   21.2423 C   0  0  0  0  0  0  0  0  0  0  0  0
   10.9434  -15.2888   21.2723 O   0  0  0  0  0  0  0  0  0  0  0  0
    9.2572  -16.5124   22.2390 N   0  0  0  0  0  0  0  0  0  0  0  0
    9.0332  -15.4767   23.2798 C   0  0  1  0  0  0  0  0  0  0  0  0
    7.5719  -15.3149   23.3607 C   0  0  0  0  0  0  0  0  0  0  0  0
    7.0012  -14.3800   24.3063 C   0  0  0  0  0  0  0  0  0  0  0  0
    7.2468  -13.0305   24.1559 C   0  0  0  0  0  0  0  0  0  0  0  0
    6.7225  -12.1016   25.0408 C   0  0  0  0  0  0  0  0  0  0  0  0
    5.9362  -12.5057   26.1015 C   0  0  0  0  0  0  0  0  0  0  0  0
    5.6827  -13.8560   26.2627 C   0  0  0  0  0  0  0  0  0  0  0  0
    6.1996  -14.7848   25.3884 C   0  0  0  0  0  0  0  0  0  0  0  0
    9.6673  -16.0164   24.5015 C   0  0  0  0  0  0  0  0  0  0  0  0
    9.9959  -17.2594   24.5413 O   0  0  0  0  0  0  0  0  0  0  0  0
   10.5732  -12.7413   28.9612 C   0  0  0  0  0  0  0  0  0  0  0  0
   10.7613  -13.6402   27.7784 C   0  0  0  0  0  0  0  0  0  0  0  0
   10.3898  -15.0679   28.0561 C   0  0  2  0  0  0  0  0  0  0  0  0
   11.2534  -15.5690   29.1888 C   0  0  0  0  0  0  0  0  0  0  0  0
   10.4828  -15.9768   26.8436 C   0  0  2  0  0  0  0  0  0  0  0  0
    9.9661  -15.2811   25.6695 N   0  0  0  0  0  0  0  0  0  0  0  0
    9.7402  -17.2246   27.1229 C   0  0  0  0  0  0  0  0  0  0  0  0
    8.4703  -17.2752   27.0870 O   0  0  0  0  0  0  0  0  0  0  0  0
   10.3681  -18.4205   27.4407 O   0  0  0  0  0  0  0  0  0  0  0  0
  2  1  1  6
  2  3  1  0
  4  3  1  0
  4  5  1  0
  6  5  1  0
  6  7  1  0
  8  2  1  0
  9  8  2  0
 10  8  1  0
 11 10  1  0
 11 12  1  1
 12 13  1  0
 13 18  2  0
 14 13  1  0
 14 15  2  0
 15 16  1  0
 16 17  2  0
 18 17  1  0
 19 26  1  0
 19 11  1  0
 20 19  2  0
 22 21  1  0
 23 22  1  0
 23 24  1  1
 25 23  1  0
 25 26  1  6
 27 25  1  0
 27 29  1  0
 28 27  2  0
M  END
$$$$
