KFI.pdb
     RDKit          3D

 29 29  0  0  1  0  0  0  0  0999 V2000
    9.4438  -16.6687   18.6452 N   0  0  0  0  0  0  0  0  0  0  0  0
    8.8214  -17.2317   19.8024 C   0  0  1  0  0  0  0  0  0  0  0  0
    9.2113  -18.6715   20.0409 C   0  0  0  0  0  0  0  0  0  0  0  0
    8.5269  -19.6212   19.1143 C   0  0  0  0  0  0  0  0  0  0  0  0
    7.2668  -20.2057   19.6738 C   0  0  0  0  0  0  0  0  0  0  0  0
    6.6219  -21.2048   18.7526 C   0  0  0  0  0  0  0  0  0  0  0  0
    5.3999  -21.6580   19.3941 N   0  0  0  0  0  0  0  0  0  0  0  0
    9.1052  -16.3903   20.9741 C   0  0  0  0  0  0  0  0  0  0  0  0
   10.3005  -15.9964   21.1723 O   0  0  0  0  0  0  0  0  0  0  0  0
    8.1265  -15.9803   21.9132 N   0  0  0  0  0  0  0  0  0  0  0  0
    8.4624  -15.0713   23.0389 C   0  0  1  0  0  0  0  0  0  0  0  0
    7.1797  -14.4853   23.4627 C   0  0  0  0  0  0  0  0  0  0  0  0
    7.1118  -13.6990   24.6756 C   0  0  0  0  0  0  0  0  0  0  0  0
    7.6974  -12.4499   24.7059 C   0  0  0  0  0  0  0  0  0  0  0  0
    7.6585  -11.6655   25.8480 C   0  0  0  0  0  0  0  0  0  0  0  0
    7.0288  -12.1171   26.9908 C   0  0  0  0  0  0  0  0  0  0  0  0
    6.4379  -13.3677   26.9726 C   0  0  0  0  0  0  0  0  0  0  0  0
    6.4721  -14.1528   25.8427 C   0  0  0  0  0  0  0  0  0  0  0  0
    9.1150  -15.9334   24.0472 C   0  0  0  0  0  0  0  0  0  0  0  0
    8.5914  -17.0733   24.3317 O   0  0  0  0  0  0  0  0  0  0  0  0
   14.4933  -16.1602   24.4737 C   0  0  0  0  0  0  0  0  0  0  0  0
   13.0370  -16.5037   24.4131 C   0  0  0  0  0  0  0  0  0  0  0  0
   12.3604  -16.4482   25.7519 C   0  0  2  0  0  0  0  0  0  0  0  0
   12.9842  -17.4978   26.6403 C   0  0  0  0  0  0  0  0  0  0  0  0
   10.8514  -16.6014   25.6876 C   0  0  2  0  0  0  0  0  0  0  0  0
   10.2999  -15.6269   24.7518 N   0  0  0  0  0  0  0  0  0  0  0  0
   10.2958  -16.4423   27.0486 C   0  0  0  0  0  0  0  0  0  0  0  0
   10.1663  -17.4267   27.8428 O   0  0  0  0  0  0  0  0  0  0  0  0
    9.8797  -15.2191   27.5548 O   0  0  0  0  0  0  0  0  0  0  0  0
  2  1  1  6
  2  3  1  0
  4  3  1  0
  4  5  1  0
  6  5  1  0
  6  7  1  0
  8  2  1  0
  9  8  2  0
 10  8  1  0
 11 10  1  0
 11 12  1  1
 12 13  1  0
 13 18  2  0
 14 13  1  0
 14 15  2  0
 15 16  1  0
 16 17  2  0
 18 17  1  0
 19 26  1  0
 19 11  1  0
 20 19  2  0
 22 21  1  0
 23 22  1  0
 23 24  1  1
 25 23  1  0
 25 26  1  6
 27 25  1  0
 27 29  1  0
 28 27  2  0
M  END
$$$$
