KFI.pdb
     RDKit          3D

 29 29  0  0  1  0  0  0  0  0999 V2000
    3.6859  -19.9371   23.0481 N   0  0  0  0  0  0  0  0  0  0  0  0
    5.0917  -19.7291   23.2034 C   0  0  1  0  0  0  0  0  0  0  0  0
    5.9048  -20.3289   22.0804 C   0  0  0  0  0  0  0  0  0  0  0  0
    5.9087  -21.8217   22.0973 C   0  0  0  0  0  0  0  0  0  0  0  0
    6.7556  -22.4339   21.0248 C   0  0  0  0  0  0  0  0  0  0  0  0
    6.6734  -23.9357   20.9955 C   0  0  0  0  0  0  0  0  0  0  0  0
    7.5326  -24.3945   19.9176 N   0  0  0  0  0  0  0  0  0  0  0  0
    5.3634  -18.2933   23.3647 C   0  0  0  0  0  0  0  0  0  0  0  0
    4.9595  -17.4870   22.4648 O   0  0  0  0  0  0  0  0  0  0  0  0
    6.0540  -17.7348   24.4687 N   0  0  0  0  0  0  0  0  0  0  0  0
    6.3654  -16.2841   24.5375 C   0  0  1  0  0  0  0  0  0  0  0  0
    6.4932  -15.9804   25.9726 C   0  0  0  0  0  0  0  0  0  0  0  0
    6.8160  -14.6359   26.3993 C   0  0  0  0  0  0  0  0  0  0  0  0
    8.1271  -14.3126   26.6834 C   0  0  0  0  0  0  0  0  0  0  0  0
    8.4792  -13.0379   27.0983 C   0  0  0  0  0  0  0  0  0  0  0  0
    7.5210  -12.0535   27.2384 C   0  0  0  0  0  0  0  0  0  0  0  0
    6.2032  -12.3655   26.9563 C   0  0  0  0  0  0  0  0  0  0  0  0
    5.8453  -13.6289   26.5439 C   0  0  0  0  0  0  0  0  0  0  0  0
    7.6089  -16.1207   23.7546 C   0  0  0  0  0  0  0  0  0  0  0  0
    8.4359  -17.1029   23.6779 O   0  0  0  0  0  0  0  0  0  0  0  0
    7.4155  -12.3153   19.8301 C   0  0  0  0  0  0  0  0  0  0  0  0
    7.5571  -13.6286   20.5355 C   0  0  0  0  0  0  0  0  0  0  0  0
    8.9312  -13.8529   21.0969 C   0  0  2  0  0  0  0  0  0  0  0  0
    9.8992  -13.9698   19.9439 C   0  0  0  0  0  0  0  0  0  0  0  0
    9.0300  -15.0482   22.0277 C   0  0  2  0  0  0  0  0  0  0  0  0
    7.9944  -14.9581   23.0518 N   0  0  0  0  0  0  0  0  0  0  0  0
   10.3879  -15.0891   22.6114 C   0  0  0  0  0  0  0  0  0  0  0  0
   11.4228  -15.2784   21.8974 O   0  0  0  0  0  0  0  0  0  0  0  0
   10.6308  -14.9247   23.9677 O   0  0  0  0  0  0  0  0  0  0  0  0
  2  1  1  6
  2  3  1  0
  4  3  1  0
  4  5  1  0
  6  5  1  0
  6  7  1  0
  8  2  1  0
  9  8  2  0
 10  8  1  0
 11 10  1  0
 11 12  1  1
 12 13  1  0
 13 18  2  0
 14 13  1  0
 14 15  2  0
 15 16  1  0
 16 17  2  0
 18 17  1  0
 19 26  1  0
 19 11  1  0
 20 19  2  0
 22 21  1  0
 23 22  1  0
 23 24  1  6
 25 23  1  0
 25 26  1  1
 27 25  1  0
 27 29  1  0
 28 27  2  0
M  END
$$$$
