KFI.pdb
     RDKit          3D

 29 29  0  0  1  0  0  0  0  0999 V2000
    9.4822  -17.2264   19.2872 N   0  0  0  0  0  0  0  0  0  0  0  0
   10.4222  -17.4415   20.3425 C   0  0  1  0  0  0  0  0  0  0  0  0
   11.8561  -17.4296   19.8673 C   0  0  0  0  0  0  0  0  0  0  0  0
   12.2065  -18.6245   19.0439 C   0  0  0  0  0  0  0  0  0  0  0  0
   13.6299  -18.6389   18.5787 C   0  0  0  0  0  0  0  0  0  0  0  0
   13.9465  -19.8102   17.6895 C   0  0  0  0  0  0  0  0  0  0  0  0
   13.4819  -21.0069   18.3695 N   0  0  0  0  0  0  0  0  0  0  0  0
   10.1958  -16.4595   21.4129 C   0  0  0  0  0  0  0  0  0  0  0  0
   10.8434  -15.3626   21.3870 O   0  0  0  0  0  0  0  0  0  0  0  0
    9.2935  -16.6508   22.4885 N   0  0  0  0  0  0  0  0  0  0  0  0
    9.0935  -15.6104   23.5296 C   0  0  1  0  0  0  0  0  0  0  0  0
    7.6371  -15.4062   23.6018 C   0  0  0  0  0  0  0  0  0  0  0  0
    7.0942  -14.3876   24.4746 C   0  0  0  0  0  0  0  0  0  0  0  0
    6.1886  -14.7464   25.4520 C   0  0  0  0  0  0  0  0  0  0  0  0
    5.6419  -13.8021   26.3066 C   0  0  0  0  0  0  0  0  0  0  0  0
    5.9919  -12.4706   26.2009 C   0  0  0  0  0  0  0  0  0  0  0  0
    6.8989  -12.0986   25.2249 C   0  0  0  0  0  0  0  0  0  0  0  0
    7.4464  -13.0300   24.3723 C   0  0  0  0  0  0  0  0  0  0  0  0
    9.7040  -16.1703   24.7542 C   0  0  0  0  0  0  0  0  0  0  0  0
   10.1031  -17.3931   24.7540 O   0  0  0  0  0  0  0  0  0  0  0  0
   10.6003  -13.0053   29.3171 C   0  0  0  0  0  0  0  0  0  0  0  0
   10.7963  -13.8810   28.1183 C   0  0  0  0  0  0  0  0  0  0  0  0
   10.3715  -15.3023   28.3488 C   0  0  2  0  0  0  0  0  0  0  0  0
   11.1900  -15.8611   29.4880 C   0  0  0  0  0  0  0  0  0  0  0  0
   10.4647  -16.1820   27.1150 C   0  0  2  0  0  0  0  0  0  0  0  0
    9.9073  -15.4751   25.9665 N   0  0  0  0  0  0  0  0  0  0  0  0
    9.7604  -17.4548   27.3806 C   0  0  0  0  0  0  0  0  0  0  0  0
   10.3561  -18.4644   27.8729 O   0  0  0  0  0  0  0  0  0  0  0  0
    8.4109  -17.6392   27.1155 O   0  0  0  0  0  0  0  0  0  0  0  0
  2  1  1  6
  2  3  1  0
  4  3  1  0
  4  5  1  0
  6  5  1  0
  6  7  1  0
  8  2  1  0
  9  8  2  0
 10  8  1  0
 11 10  1  0
 11 12  1  1
 12 13  1  0
 13 18  2  0
 14 13  1  0
 14 15  2  0
 15 16  1  0
 16 17  2  0
 18 17  1  0
 19 26  1  0
 19 11  1  0
 20 19  2  0
 22 21  1  0
 23 22  1  0
 23 24  1  1
 25 23  1  0
 25 26  1  6
 27 25  1  0
 27 29  1  0
 28 27  2  0
M  END
$$$$
