KFI.pdb
     RDKit          3D

 29 29  0  0  1  0  0  0  0  0999 V2000
   10.1050  -16.6225   19.1670 N   0  0  0  0  0  0  0  0  0  0  0  0
    9.9771  -17.3406   20.3964 C   0  0  1  0  0  0  0  0  0  0  0  0
   11.1071  -18.3155   20.6308 C   0  0  0  0  0  0  0  0  0  0  0  0
   11.0552  -19.4970   19.7198 C   0  0  0  0  0  0  0  0  0  0  0  0
   11.9717  -20.6100   20.1243 C   0  0  0  0  0  0  0  0  0  0  0  0
   11.9952  -21.7422   19.1341 C   0  0  0  0  0  0  0  0  0  0  0  0
   12.9681  -22.7111   19.6085 N   0  0  0  0  0  0  0  0  0  0  0  0
    9.8379  -16.3914   21.5104 C   0  0  0  0  0  0  0  0  0  0  0  0
   10.6847  -15.4460   21.6211 O   0  0  0  0  0  0  0  0  0  0  0  0
    8.8114  -16.4556   22.4850 N   0  0  0  0  0  0  0  0  0  0  0  0
    8.7282  -15.4692   23.5924 C   0  0  1  0  0  0  0  0  0  0  0  0
    7.2997  -15.1311   23.7068 C   0  0  0  0  0  0  0  0  0  0  0  0
    6.8659  -14.1533   24.6813 C   0  0  0  0  0  0  0  0  0  0  0  0
    7.2321  -12.8322   24.5236 C   0  0  0  0  0  0  0  0  0  0  0  0
    6.8410  -11.8643   25.4352 C   0  0  0  0  0  0  0  0  0  0  0  0
    6.0703  -12.1997   26.5308 C   0  0  0  0  0  0  0  0  0  0  0  0
    5.6967  -13.5209   26.6996 C   0  0  0  0  0  0  0  0  0  0  0  0
    6.0810  -14.4881   25.7990 C   0  0  0  0  0  0  0  0  0  0  0  0
    9.2990  -16.1617   24.7673 C   0  0  0  0  0  0  0  0  0  0  0  0
    9.3507  -17.4470   24.7744 O   0  0  0  0  0  0  0  0  0  0  0  0
   10.4001  -13.3862   29.4760 C   0  0  0  0  0  0  0  0  0  0  0  0
   10.5876  -14.1337   28.1921 C   0  0  0  0  0  0  0  0  0  0  0  0
   10.2795  -15.5981   28.3103 C   0  0  2  0  0  0  0  0  0  0  0  0
   11.1978  -16.1913   29.3519 C   0  0  0  0  0  0  0  0  0  0  0  0
   10.3674  -16.3552   26.9973 C   0  0  2  0  0  0  0  0  0  0  0  0
    9.8176  -15.5360   25.9222 N   0  0  0  0  0  0  0  0  0  0  0  0
    9.6524  -17.6418   27.1381 C   0  0  0  0  0  0  0  0  0  0  0  0
    8.3928  -17.7323   26.9906 O   0  0  0  0  0  0  0  0  0  0  0  0
   10.2969  -18.8336   27.4378 O   0  0  0  0  0  0  0  0  0  0  0  0
  2  1  1  6
  2  3  1  0
  4  3  1  0
  4  5  1  0
  6  5  1  0
  6  7  1  0
  8  2  1  0
  9  8  2  0
 10  8  1  0
 11 10  1  0
 11 12  1  1
 12 13  1  0
 13 18  2  0
 14 13  1  0
 14 15  2  0
 15 16  1  0
 16 17  2  0
 18 17  1  0
 19 26  1  0
 19 11  1  0
 20 19  2  0
 22 21  1  0
 23 22  1  0
 23 24  1  1
 25 23  1  0
 25 26  1  6
 27 25  1  0
 27 29  1  0
 28 27  2  0
M  END
$$$$
