KFI.pdb
     RDKit          3D

 29 29  0  0  1  0  0  0  0  0999 V2000
    9.5818  -17.4343   19.2976 N   0  0  0  0  0  0  0  0  0  0  0  0
   10.5661  -17.5611   20.3264 C   0  0  1  0  0  0  0  0  0  0  0  0
   11.9801  -17.5524   19.7948 C   0  0  0  0  0  0  0  0  0  0  0  0
   12.2891  -18.7387   18.9428 C   0  0  0  0  0  0  0  0  0  0  0  0
   11.9636  -18.5412   17.4945 C   0  0  0  0  0  0  0  0  0  0  0  0
   12.4977  -19.6395   16.6162 C   0  0  0  0  0  0  0  0  0  0  0  0
   11.3860  -20.1409   15.8270 N   0  0  0  0  0  0  0  0  0  0  0  0
   10.3594  -16.5154   21.3390 C   0  0  0  0  0  0  0  0  0  0  0  0
   11.0234  -15.4320   21.2472 O   0  0  0  0  0  0  0  0  0  0  0  0
    9.4592  -16.6304   22.4271 N   0  0  0  0  0  0  0  0  0  0  0  0
    9.2223  -15.5011   23.3625 C   0  0  1  0  0  0  0  0  0  0  0  0
    7.7655  -15.2871   23.3541 C   0  0  0  0  0  0  0  0  0  0  0  0
    7.1725  -14.3270   24.2598 C   0  0  0  0  0  0  0  0  0  0  0  0
    6.3309  -14.7701   25.2597 C   0  0  0  0  0  0  0  0  0  0  0  0
    5.7394  -13.8841   26.1463 C   0  0  0  0  0  0  0  0  0  0  0  0
    5.9790  -12.5276   26.0509 C   0  0  0  0  0  0  0  0  0  0  0  0
    6.8210  -12.0712   25.0527 C   0  0  0  0  0  0  0  0  0  0  0  0
    7.4122  -12.9444   24.1682 C   0  0  0  0  0  0  0  0  0  0  0  0
    9.7768  -15.9517   24.6567 C   0  0  0  0  0  0  0  0  0  0  0  0
    9.9630  -17.2087   24.8563 O   0  0  0  0  0  0  0  0  0  0  0  0
   10.7806  -14.1408   30.5289 C   0  0  0  0  0  0  0  0  0  0  0  0
   10.9061  -15.1713   29.4497 C   0  0  0  0  0  0  0  0  0  0  0  0
   10.5239  -14.6557   28.0927 C   0  0  2  0  0  0  0  0  0  0  0  0
    9.1664  -14.0034   28.2004 C   0  0  0  0  0  0  0  0  0  0  0  0
   10.5470  -15.7118   27.0023 C   0  0  2  0  0  0  0  0  0  0  0  0
   10.1422  -15.1146   25.7338 N   0  0  0  0  0  0  0  0  0  0  0  0
    9.6627  -16.8285   27.3990 C   0  0  0  0  0  0  0  0  0  0  0  0
   10.0391  -17.7292   28.2137 O   0  0  0  0  0  0  0  0  0  0  0  0
    8.3697  -16.9741   26.9170 O   0  0  0  0  0  0  0  0  0  0  0  0
  2  1  1  6
  2  3  1  0
  4  3  1  0
  4  5  1  0
  6  5  1  0
  6  7  1  0
  8  2  1  0
  9  8  2  0
 10  8  1  0
 11 10  1  0
 11 12  1  1
 12 13  1  0
 13 18  2  0
 14 13  1  0
 14 15  2  0
 15 16  1  0
 16 17  2  0
 18 17  1  0
 19 26  1  0
 19 11  1  0
 20 19  2  0
 22 21  1  0
 23 22  1  0
 23 24  1  1
 25 23  1  0
 25 26  1  6
 27 25  1  0
 27 29  1  0
 28 27  2  0
M  END
$$$$
