FKR.pdb
     RDKit          3D

 32 32  0  0  1  0  0  0  0  0999 V2000
   24.0726  -20.1637   -8.7601 N   0  0  0  0  0  0  0  0  0  0  0  0
   25.2742  -20.1836   -9.4971 C   0  0  1  0  0  0  0  0  0  0  0  0
   26.2690  -21.1688   -8.9500 C   0  0  0  0  0  0  0  0  0  0  0  0
   27.2325  -20.6492   -7.9940 C   0  0  0  0  0  0  0  0  0  0  0  0
   28.5726  -20.5795   -8.3661 C   0  0  0  0  0  0  0  0  0  0  0  0
   29.4459  -20.0354   -7.4353 C   0  0  0  0  0  0  0  0  0  0  0  0
   28.9998  -19.5945   -6.2208 C   0  0  0  0  0  0  0  0  0  0  0  0
   27.6808  -19.6576   -5.8402 C   0  0  0  0  0  0  0  0  0  0  0  0
   26.7962  -20.1978   -6.7568 C   0  0  0  0  0  0  0  0  0  0  0  0
   25.1958  -20.4264  -10.9357 C   0  0  0  0  0  0  0  0  0  0  0  0
   24.0381  -20.6319  -11.4386 O   0  0  0  0  0  0  0  0  0  0  0  0
   26.3497  -20.4441  -11.7805 N   0  0  0  0  0  0  0  0  0  0  0  0
   26.1826  -19.8570  -13.0769 C   0  0  1  0  0  0  0  0  0  0  0  0
   27.5333  -19.6883  -13.7947 C   0  0  0  0  0  0  0  0  0  0  0  0
   27.2560  -18.9629  -15.0781 C   0  0  0  0  0  0  0  0  0  0  0  0
   28.4315  -18.5657  -15.8959 C   0  0  0  0  0  0  0  0  0  0  0  0
   28.1131  -17.7051  -17.0732 C   0  0  0  0  0  0  0  0  0  0  0  0
   27.9742  -16.3006  -16.7803 N   0  0  0  0  0  0  0  0  0  0  0  0
   25.3083  -20.7299  -13.9243 C   0  0  0  0  0  0  0  0  0  0  0  0
   25.4813  -21.9830  -13.8468 O   0  0  0  0  0  0  0  0  0  0  0  0
   18.8121  -24.3952  -11.5644 N   0  0  0  0  0  0  0  0  0  0  0  0
   18.9443  -23.0017  -11.8528 C   0  0  0  0  0  0  0  0  0  0  0  0
   17.9913  -22.1771  -11.6894 N   0  0  0  0  0  0  0  0  0  0  0  0
   20.2074  -22.5378  -12.3302 N   0  0  0  0  0  0  0  0  0  0  0  0
   20.7945  -23.1280  -13.5220 C   0  0  0  0  0  0  0  0  0  0  0  0
   22.1190  -22.4325  -13.7281 C   0  0  0  0  0  0  0  0  0  0  0  0
   22.0551  -21.1224  -14.4246 C   0  0  0  0  0  0  0  0  0  0  0  0
   23.2328  -20.9790  -15.3926 C   0  0  2  0  0  0  0  0  0  0  0  0
   24.3225  -20.2342  -14.7793 N   0  0  0  0  0  0  0  0  0  0  0  0
   22.7823  -20.3050  -16.6147 C   0  0  0  0  0  0  0  0  0  0  0  0
   22.1315  -20.9507  -17.6376 O   0  0  0  0  0  0  0  0  0  0  0  0
   23.0225  -19.0466  -16.7020 O   0  0  0  0  0  0  0  0  0  0  0  0
  2  1  1  1
  2 10  1  0
  2  3  1  0
  3  4  1  0
  4  9  2  0
  4  5  1  0
  5  6  2  0
  6  7  1  0
  8  7  2  0
  9  8  1  0
 10 11  2  0
 12 10  1  0
 12 13  1  0
 13 19  1  0
 13 14  1  6
 15 14  1  0
 16 15  1  0
 17 16  1  0
 18 17  1  0
 19 29  1  0
 19 20  2  0
 21 22  1  0
 22 23  2  0
 24 22  1  0
 24 25  1  0
 25 26  1  0
 27 26  1  0
 28 27  1  1
 28 30  1  0
 29 28  1  0
 30 31  1  0
 32 30  2  0
M  END
$$$$
