FKR.pdb
     RDKit          3D

 32 32  0  0  1  0  0  0  0  0999 V2000
   24.7505  -19.1427  -16.7233 N   0  0  0  0  0  0  0  0  0  0  0  0
   24.6698  -18.9427  -15.3302 C   0  0  1  0  0  0  0  0  0  0  0  0
   25.4522  -17.7428  -14.8744 C   0  0  0  0  0  0  0  0  0  0  0  0
   26.7502  -17.5444  -15.4973 C   0  0  0  0  0  0  0  0  0  0  0  0
   27.7920  -18.4049  -15.1606 C   0  0  0  0  0  0  0  0  0  0  0  0
   28.9985  -18.2018  -15.8149 C   0  0  0  0  0  0  0  0  0  0  0  0
   29.1422  -17.2056  -16.7397 C   0  0  0  0  0  0  0  0  0  0  0  0
   28.1233  -16.3491  -17.0813 C   0  0  0  0  0  0  0  0  0  0  0  0
   26.9129  -16.5376  -16.4379 C   0  0  0  0  0  0  0  0  0  0  0  0
   23.3443  -18.8294  -14.7262 C   0  0  0  0  0  0  0  0  0  0  0  0
   23.2841  -18.5436  -13.4812 O   0  0  0  0  0  0  0  0  0  0  0  0
   22.1376  -19.0270  -15.4680 N   0  0  0  0  0  0  0  0  0  0  0  0
   20.9239  -18.9853  -14.7073 C   0  0  1  0  0  0  0  0  0  0  0  0
   19.8814  -18.0636  -15.3642 C   0  0  0  0  0  0  0  0  0  0  0  0
   20.4216  -16.6668  -15.2803 C   0  0  0  0  0  0  0  0  0  0  0  0
   19.6408  -15.5996  -15.9585 C   0  0  0  0  0  0  0  0  0  0  0  0
   20.2876  -14.2543  -15.9583 C   0  0  0  0  0  0  0  0  0  0  0  0
   19.5733  -13.2359  -16.6863 N   0  0  0  0  0  0  0  0  0  0  0  0
   20.3363  -20.3597  -14.6069 C   0  0  0  0  0  0  0  0  0  0  0  0
   20.3332  -21.0728  -15.6547 O   0  0  0  0  0  0  0  0  0  0  0  0
   19.3947  -27.4436  -11.1019 N   0  0  0  0  0  0  0  0  0  0  0  0
   17.9870  -27.1985  -11.1329 C   0  0  0  0  0  0  0  0  0  0  0  0
   17.1291  -28.1252  -10.9910 N   0  0  0  0  0  0  0  0  0  0  0  0
   17.5499  -25.8521  -11.3193 N   0  0  0  0  0  0  0  0  0  0  0  0
   18.5260  -24.7798  -11.4243 C   0  0  0  0  0  0  0  0  0  0  0  0
   17.7410  -23.5220  -11.7110 C   0  0  0  0  0  0  0  0  0  0  0  0
   18.5436  -22.2790  -11.8395 C   0  0  0  0  0  0  0  0  0  0  0  0
   19.0348  -22.1121  -13.2801 C   0  0  2  0  0  0  0  0  0  0  0  0
   19.8042  -20.8855  -13.4285 N   0  0  0  0  0  0  0  0  0  0  0  0
   17.8854  -22.1034  -14.1909 C   0  0  0  0  0  0  0  0  0  0  0  0
   17.1056  -20.9946  -14.4127 O   0  0  0  0  0  0  0  0  0  0  0  0
   17.6212  -23.2037  -14.7977 O   0  0  0  0  0  0  0  0  0  0  0  0
  2  1  1  6
  2 10  1  0
  2  3  1  0
  3  4  1  0
  4  9  2  0
  4  5  1  0
  5  6  2  0
  6  7  1  0
  8  7  2  0
  9  8  1  0
 10 11  2  0
 12 10  1  0
 12 13  1  0
 13 19  1  0
 13 14  1  6
 15 14  1  0
 16 15  1  0
 17 16  1  0
 18 17  1  0
 19 29  1  0
 19 20  2  0
 21 22  1  0
 22 23  2  0
 24 22  1  0
 24 25  1  0
 25 26  1  0
 27 26  1  0
 28 27  1  1
 28 30  1  0
 29 28  1  0
 30 31  1  0
 32 30  2  0
M  END
$$$$
