FKR.pdb
     RDKit          3D

 32 32  0  0  1  0  0  0  0  0999 V2000
   26.2717  -16.5688  -16.8371 N   0  0  0  0  0  0  0  0  0  0  0  0
   25.0249  -17.1030  -17.2209 C   0  0  1  0  0  0  0  0  0  0  0  0
   24.7909  -17.0114  -18.7030 C   0  0  0  0  0  0  0  0  0  0  0  0
   24.5329  -15.6837  -19.2345 C   0  0  0  0  0  0  0  0  0  0  0  0
   23.2557  -15.1456  -19.0988 C   0  0  0  0  0  0  0  0  0  0  0  0
   23.0717  -13.8584  -19.5828 C   0  0  0  0  0  0  0  0  0  0  0  0
   24.0997  -13.1664  -20.1598 C   0  0  0  0  0  0  0  0  0  0  0  0
   25.3646  -13.6850  -20.3007 C   0  0  0  0  0  0  0  0  0  0  0  0
   25.5654  -14.9681  -19.8233 C   0  0  0  0  0  0  0  0  0  0  0  0
   24.7164  -18.4780  -16.8349 C   0  0  0  0  0  0  0  0  0  0  0  0
   25.6913  -19.2254  -16.4795 O   0  0  0  0  0  0  0  0  0  0  0  0
   23.3864  -19.0036  -16.8448 N   0  0  0  0  0  0  0  0  0  0  0  0
   23.2234  -20.2995  -16.2554 C   0  0  1  0  0  0  0  0  0  0  0  0
   21.8134  -20.4737  -15.6642 C   0  0  0  0  0  0  0  0  0  0  0  0
   21.9358  -20.2765  -14.1823 C   0  0  0  0  0  0  0  0  0  0  0  0
   20.6795  -20.3208  -13.3898 C   0  0  0  0  0  0  0  0  0  0  0  0
   20.8563  -20.1045  -11.9235 C   0  0  0  0  0  0  0  0  0  0  0  0
   19.6378  -20.1277  -11.1539 N   0  0  0  0  0  0  0  0  0  0  0  0
   23.4310  -21.3617  -17.2913 C   0  0  0  0  0  0  0  0  0  0  0  0
   22.7322  -21.2948  -18.3464 O   0  0  0  0  0  0  0  0  0  0  0  0
   28.5069  -27.1066  -15.9959 N   0  0  0  0  0  0  0  0  0  0  0  0
   27.5467  -28.0414  -16.4926 C   0  0  0  0  0  0  0  0  0  0  0  0
   27.3127  -29.1504  -15.9179 N   0  0  0  0  0  0  0  0  0  0  0  0
   26.8256  -27.6906  -17.6738 N   0  0  0  0  0  0  0  0  0  0  0  0
   26.9662  -26.3599  -18.2420 C   0  0  0  0  0  0  0  0  0  0  0  0
   25.5755  -25.7728  -18.2896 C   0  0  0  0  0  0  0  0  0  0  0  0
   25.3155  -24.6591  -17.3421 C   0  0  0  0  0  0  0  0  0  0  0  0
   24.5243  -23.5470  -18.0361 C   0  0  2  0  0  0  0  0  0  0  0  0
   24.3490  -22.4040  -17.1522 N   0  0  0  0  0  0  0  0  0  0  0  0
   23.2195  -24.0659  -18.4593 C   0  0  0  0  0  0  0  0  0  0  0  0
   22.1806  -24.2969  -17.5911 O   0  0  0  0  0  0  0  0  0  0  0  0
   23.0722  -24.3054  -19.7122 O   0  0  0  0  0  0  0  0  0  0  0  0
  2  1  1  6
  2 10  1  0
  2  3  1  0
  3  4  1  0
  4  9  2  0
  4  5  1  0
  5  6  2  0
  6  7  1  0
  8  7  2  0
  9  8  1  0
 10 11  2  0
 12 10  1  0
 12 13  1  0
 13 19  1  0
 13 14  1  6
 15 14  1  0
 16 15  1  0
 17 16  1  0
 18 17  1  0
 19 29  1  0
 19 20  2  0
 21 22  1  0
 22 23  2  0
 24 22  1  0
 24 25  1  0
 25 26  1  0
 27 26  1  0
 28 27  1  1
 28 30  1  0
 29 28  1  0
 30 31  1  0
 32 30  2  0
M  END
$$$$
