FKR.pdb
     RDKit          3D

 32 32  0  0  1  0  0  0  0  0999 V2000
   25.6012  -18.7267  -22.2815 N   0  0  0  0  0  0  0  0  0  0  0  0
   26.2665  -18.7129  -21.0387 C   0  0  1  0  0  0  0  0  0  0  0  0
   25.6882  -17.7030  -20.0872 C   0  0  0  0  0  0  0  0  0  0  0  0
   25.7969  -16.3086  -20.4819 C   0  0  0  0  0  0  0  0  0  0  0  0
   27.0429  -15.6903  -20.4163 C   0  0  0  0  0  0  0  0  0  0  0  0
   27.1032  -14.3722  -20.8455 C   0  0  0  0  0  0  0  0  0  0  0  0
   25.9897  -13.7273  -21.3067 C   0  0  0  0  0  0  0  0  0  0  0  0
   24.7540  -14.3248  -21.3764 C   0  0  0  0  0  0  0  0  0  0  0  0
   24.6762  -15.6395  -20.9520 C   0  0  0  0  0  0  0  0  0  0  0  0
   26.3717  -19.9688  -20.2997 C   0  0  0  0  0  0  0  0  0  0  0  0
   25.4792  -20.8588  -20.5161 O   0  0  0  0  0  0  0  0  0  0  0  0
   27.4179  -20.2270  -19.3595 N   0  0  0  0  0  0  0  0  0  0  0  0
   27.4286  -21.5388  -18.7829 C   0  0  1  0  0  0  0  0  0  0  0  0
   28.8625  -22.0041  -18.4738 C   0  0  0  0  0  0  0  0  0  0  0  0
   28.7549  -23.3743  -17.8730 C   0  0  0  0  0  0  0  0  0  0  0  0
   30.0254  -24.0487  -17.4994 C   0  0  0  0  0  0  0  0  0  0  0  0
   29.8795  -25.4769  -17.0907 C   0  0  0  0  0  0  0  0  0  0  0  0
   31.1083  -26.1316  -16.7180 N   0  0  0  0  0  0  0  0  0  0  0  0
   26.6499  -21.5409  -17.5031 C   0  0  0  0  0  0  0  0  0  0  0  0
   26.8722  -20.6020  -16.6813 O   0  0  0  0  0  0  0  0  0  0  0  0
   21.0549  -27.5750  -14.5582 N   0  0  0  0  0  0  0  0  0  0  0  0
   21.8274  -27.2225  -15.7077 C   0  0  0  0  0  0  0  0  0  0  0  0
   21.7111  -27.8261  -16.8200 N   0  0  0  0  0  0  0  0  0  0  0  0
   22.7502  -26.1403  -15.5832 N   0  0  0  0  0  0  0  0  0  0  0  0
   22.9887  -25.5355  -14.2828 C   0  0  0  0  0  0  0  0  0  0  0  0
   23.5891  -24.1765  -14.5537 C   0  0  0  0  0  0  0  0  0  0  0  0
   24.4610  -24.0869  -15.7527 C   0  0  0  0  0  0  0  0  0  0  0  0
   24.9800  -22.6566  -15.9245 C   0  0  2  0  0  0  0  0  0  0  0  0
   25.7008  -22.5122  -17.1807 N   0  0  0  0  0  0  0  0  0  0  0  0
   25.8527  -22.3141  -14.7967 C   0  0  0  0  0  0  0  0  0  0  0  0
   25.4289  -21.5980  -13.7039 O   0  0  0  0  0  0  0  0  0  0  0  0
   27.0690  -22.7199  -14.8638 O   0  0  0  0  0  0  0  0  0  0  0  0
  2  1  1  6
  2 10  1  0
  2  3  1  0
  3  4  1  0
  4  9  2  0
  4  5  1  0
  5  6  2  0
  6  7  1  0
  8  7  2  0
  9  8  1  0
 10 11  2  0
 12 10  1  0
 12 13  1  0
 13 19  1  0
 13 14  1  1
 15 14  1  0
 16 15  1  0
 17 16  1  0
 18 17  1  0
 19 29  1  0
 19 20  2  0
 21 22  1  0
 22 23  2  0
 24 22  1  0
 24 25  1  0
 25 26  1  0
 27 26  1  0
 28 27  1  1
 28 30  1  0
 29 28  1  0
 30 31  1  0
 32 30  2  0
M  END
$$$$
