FKR.pdb
     RDKit          3D

 32 32  0  0  1  0  0  0  0  0999 V2000
   26.0928  -21.0487  -16.4927 N   0  0  0  0  0  0  0  0  0  0  0  0
   25.8082  -20.2131  -15.3936 C   0  0  1  0  0  0  0  0  0  0  0  0
   25.8034  -18.7562  -15.7639 C   0  0  0  0  0  0  0  0  0  0  0  0
   27.0081  -18.2479  -16.3982 C   0  0  0  0  0  0  0  0  0  0  0  0
   28.2093  -18.3071  -15.6961 C   0  0  0  0  0  0  0  0  0  0  0  0
   29.3380  -17.8502  -16.3613 C   0  0  0  0  0  0  0  0  0  0  0  0
   29.2600  -17.3704  -17.6388 C   0  0  0  0  0  0  0  0  0  0  0  0
   28.0817  -17.3057  -18.3431 C   0  0  0  0  0  0  0  0  0  0  0  0
   26.9461  -17.7573  -17.6944 C   0  0  0  0  0  0  0  0  0  0  0  0
   24.5779  -20.4562  -14.6439 C   0  0  0  0  0  0  0  0  0  0  0  0
   23.6759  -21.1698  -15.2031 O   0  0  0  0  0  0  0  0  0  0  0  0
   24.3546  -19.9294  -13.3333 N   0  0  0  0  0  0  0  0  0  0  0  0
   23.1277  -20.3203  -12.7046 C   0  0  1  0  0  0  0  0  0  0  0  0
   23.3337  -20.6184  -11.2091 C   0  0  0  0  0  0  0  0  0  0  0  0
   22.0563  -21.2229  -10.7062 C   0  0  0  0  0  0  0  0  0  0  0  0
   21.9761  -21.5173   -9.2518 C   0  0  0  0  0  0  0  0  0  0  0  0
   20.7697  -22.2915   -8.8353 C   0  0  0  0  0  0  0  0  0  0  0  0
   20.5589  -22.3701   -7.4116 N   0  0  0  0  0  0  0  0  0  0  0  0
   22.1175  -19.2208  -12.8276 C   0  0  0  0  0  0  0  0  0  0  0  0
   21.4394  -18.9311  -11.7969 O   0  0  0  0  0  0  0  0  0  0  0  0
   18.2815  -22.0147  -19.3294 N   0  0  0  0  0  0  0  0  0  0  0  0
   17.6354  -20.7406  -19.3728 C   0  0  0  0  0  0  0  0  0  0  0  0
   16.4532  -20.5890  -19.8135 N   0  0  0  0  0  0  0  0  0  0  0  0
   18.3595  -19.6104  -18.8863 N   0  0  0  0  0  0  0  0  0  0  0  0
   19.6726  -19.7915  -18.2892 C   0  0  0  0  0  0  0  0  0  0  0  0
   19.6288  -19.0886  -16.9533 C   0  0  0  0  0  0  0  0  0  0  0  0
   20.8784  -19.1512  -16.1532 C   0  0  0  0  0  0  0  0  0  0  0  0
   20.6736  -18.4707  -14.7969 C   0  0  2  0  0  0  0  0  0  0  0  0
   21.8954  -18.5075  -14.0067 N   0  0  0  0  0  0  0  0  0  0  0  0
   19.5829  -19.1351  -14.0759 C   0  0  0  0  0  0  0  0  0  0  0  0
   19.5243  -20.4932  -13.8794 O   0  0  0  0  0  0  0  0  0  0  0  0
   18.6510  -18.3808  -13.6163 O   0  0  0  0  0  0  0  0  0  0  0  0
  2  1  1  6
  2 10  1  0
  2  3  1  0
  3  4  1  0
  4  9  2  0
  4  5  1  0
  5  6  2  0
  6  7  1  0
  8  7  2  0
  9  8  1  0
 10 11  2  0
 12 10  1  0
 12 13  1  0
 13 19  1  0
 13 14  1  1
 15 14  1  0
 16 15  1  0
 17 16  1  0
 18 17  1  0
 19 29  1  0
 19 20  2  0
 21 22  1  0
 22 23  2  0
 24 22  1  0
 24 25  1  0
 25 26  1  0
 27 26  1  0
 28 27  1  6
 28 30  1  0
 29 28  1  0
 30 31  1  0
 32 30  2  0
M  END
$$$$
