FKR.pdb
     RDKit          3D

 32 32  0  0  1  0  0  0  0  0999 V2000
   28.3381  -21.7745  -14.0968 N   0  0  0  0  0  0  0  0  0  0  0  0
   27.2916  -21.1966  -13.3496 C   0  0  1  0  0  0  0  0  0  0  0  0
   27.7714  -20.1023  -12.4376 C   0  0  0  0  0  0  0  0  0  0  0  0
   28.6465  -20.5063  -11.3499 C   0  0  0  0  0  0  0  0  0  0  0  0
   28.0839  -20.7808  -10.1059 C   0  0  0  0  0  0  0  0  0  0  0  0
   28.9550  -21.2051   -9.1129 C   0  0  0  0  0  0  0  0  0  0  0  0
   30.2928  -21.3425   -9.3573 C   0  0  0  0  0  0  0  0  0  0  0  0
   30.8615  -21.0747  -10.5794 C   0  0  0  0  0  0  0  0  0  0  0  0
   30.0068  -20.6502  -11.5813 C   0  0  0  0  0  0  0  0  0  0  0  0
   26.1422  -20.6602  -14.0748 C   0  0  0  0  0  0  0  0  0  0  0  0
   26.3342  -20.2591  -15.2739 O   0  0  0  0  0  0  0  0  0  0  0  0
   24.8375  -20.5688  -13.4964 N   0  0  0  0  0  0  0  0  0  0  0  0
   23.7714  -20.2706  -14.4062 C   0  0  1  0  0  0  0  0  0  0  0  0
   23.6237  -21.3667  -15.4762 C   0  0  0  0  0  0  0  0  0  0  0  0
   23.6555  -22.6830  -14.7575 C   0  0  0  0  0  0  0  0  0  0  0  0
   23.5464  -23.9090  -15.5902 C   0  0  0  0  0  0  0  0  0  0  0  0
   23.5641  -25.1899  -14.8239 C   0  0  0  0  0  0  0  0  0  0  0  0
   23.4778  -26.3819  -15.6296 N   0  0  0  0  0  0  0  0  0  0  0  0
   22.4764  -20.1678  -13.6600 C   0  0  0  0  0  0  0  0  0  0  0  0
   22.2750  -20.9946  -12.7208 O   0  0  0  0  0  0  0  0  0  0  0  0
   17.7727  -15.0518  -15.9026 N   0  0  0  0  0  0  0  0  0  0  0  0
   16.7043  -15.9886  -15.7494 C   0  0  0  0  0  0  0  0  0  0  0  0
   15.8883  -16.2531  -16.6870 N   0  0  0  0  0  0  0  0  0  0  0  0
   16.5744  -16.6500  -14.4907 N   0  0  0  0  0  0  0  0  0  0  0  0
   17.4715  -16.3130  -13.3975 C   0  0  0  0  0  0  0  0  0  0  0  0
   18.2253  -17.5787  -13.0654 C   0  0  0  0  0  0  0  0  0  0  0  0
   19.5242  -17.7549  -13.7636 C   0  0  0  0  0  0  0  0  0  0  0  0
   20.2512  -18.9907  -13.2262 C   0  0  2  0  0  0  0  0  0  0  0  0
   21.4977  -19.2139  -13.9437 N   0  0  0  0  0  0  0  0  0  0  0  0
   19.3786  -20.1631  -13.3483 C   0  0  0  0  0  0  0  0  0  0  0  0
   18.5420  -20.5898  -12.3460 O   0  0  0  0  0  0  0  0  0  0  0  0
   19.4214  -20.8012  -14.4617 O   0  0  0  0  0  0  0  0  0  0  0  0
  2  1  1  6
  2 10  1  0
  2  3  1  0
  3  4  1  0
  4  9  2  0
  4  5  1  0
  5  6  2  0
  6  7  1  0
  8  7  2  0
  9  8  1  0
 10 11  2  0
 12 10  1  0
 12 13  1  0
 13 19  1  0
 13 14  1  6
 15 14  1  0
 16 15  1  0
 17 16  1  0
 18 17  1  0
 19 29  1  0
 19 20  2  0
 21 22  1  0
 22 23  2  0
 24 22  1  0
 24 25  1  0
 25 26  1  0
 27 26  1  0
 28 27  1  6
 28 30  1  0
 29 28  1  0
 30 31  1  0
 32 30  2  0
M  END
$$$$
