FKR.pdb
     RDKit          3D

 32 32  0  0  1  0  0  0  0  0999 V2000
   26.6031  -18.0055  -18.8990 N   0  0  0  0  0  0  0  0  0  0  0  0
   27.5432  -18.6030  -18.0350 C   0  0  1  0  0  0  0  0  0  0  0  0
   27.3265  -18.2230  -16.5969 C   0  0  0  0  0  0  0  0  0  0  0  0
   27.3966  -16.8049  -16.2868 C   0  0  0  0  0  0  0  0  0  0  0  0
   26.4345  -16.2569  -15.4422 C   0  0  0  0  0  0  0  0  0  0  0  0
   26.5703  -14.9092  -15.1415 C   0  0  0  0  0  0  0  0  0  0  0  0
   27.5998  -14.1707  -15.6544 C   0  0  0  0  0  0  0  0  0  0  0  0
   28.5556  -14.6981  -16.4893 C   0  0  0  0  0  0  0  0  0  0  0  0
   28.4351  -16.0411  -16.7995 C   0  0  0  0  0  0  0  0  0  0  0  0
   27.6795  -20.0574  -18.0654 C   0  0  0  0  0  0  0  0  0  0  0  0
   26.6753  -20.7372  -18.4713 O   0  0  0  0  0  0  0  0  0  0  0  0
   28.8749  -20.7301  -17.6608 N   0  0  0  0  0  0  0  0  0  0  0  0
   28.8435  -22.1605  -17.7415 C   0  0  1  0  0  0  0  0  0  0  0  0
   30.1823  -22.7770  -17.2993 C   0  0  0  0  0  0  0  0  0  0  0  0
   30.0659  -24.2590  -17.5000 C   0  0  0  0  0  0  0  0  0  0  0  0
   31.2387  -25.0861  -17.1143 C   0  0  0  0  0  0  0  0  0  0  0  0
   31.6980  -24.9031  -15.7058 C   0  0  0  0  0  0  0  0  0  0  0  0
   32.7630  -25.7827  -15.2941 N   0  0  0  0  0  0  0  0  0  0  0  0
   27.7642  -22.6988  -16.8528 C   0  0  0  0  0  0  0  0  0  0  0  0
   27.5934  -22.1336  -15.7313 O   0  0  0  0  0  0  0  0  0  0  0  0
   20.4830  -20.9978  -14.9055 N   0  0  0  0  0  0  0  0  0  0  0  0
   21.7594  -20.9290  -14.2662 C   0  0  0  0  0  0  0  0  0  0  0  0
   22.0628  -20.0086  -13.4441 N   0  0  0  0  0  0  0  0  0  0  0  0
   22.7107  -21.9501  -14.5678 N   0  0  0  0  0  0  0  0  0  0  0  0
   22.3348  -23.0621  -15.4254 C   0  0  0  0  0  0  0  0  0  0  0  0
   23.5654  -23.9277  -15.5569 C   0  0  0  0  0  0  0  0  0  0  0  0
   24.6541  -23.3724  -16.4007 C   0  0  0  0  0  0  0  0  0  0  0  0
   25.8471  -24.3320  -16.4252 C   0  0  2  0  0  0  0  0  0  0  0  0
   26.9464  -23.7755  -17.1999 N   0  0  0  0  0  0  0  0  0  0  0  0
   25.4283  -25.6187  -16.9907 C   0  0  0  0  0  0  0  0  0  0  0  0
   24.6743  -26.5372  -16.3019 O   0  0  0  0  0  0  0  0  0  0  0  0
   25.8006  -25.8692  -18.1938 O   0  0  0  0  0  0  0  0  0  0  0  0
  2  1  1  6
  2 10  1  0
  2  3  1  0
  3  4  1  0
  4  9  2  0
  4  5  1  0
  5  6  2  0
  6  7  1  0
  8  7  2  0
  9  8  1  0
 10 11  2  0
 12 10  1  0
 12 13  1  0
 13 19  1  0
 13 14  1  1
 15 14  1  0
 16 15  1  0
 17 16  1  0
 18 17  1  0
 19 29  1  0
 19 20  2  0
 21 22  1  0
 22 23  2  0
 24 22  1  0
 24 25  1  0
 25 26  1  0
 27 26  1  0
 28 27  1  6
 28 30  1  0
 29 28  1  0
 30 31  1  0
 32 30  2  0
M  END
$$$$
