FKR.pdb
     RDKit          3D

 32 32  0  0  1  0  0  0  0  0999 V2000
   29.7050  -20.8339  -13.6819 N   0  0  0  0  0  0  0  0  0  0  0  0
   28.6094  -20.9673  -12.8049 C   0  0  1  0  0  0  0  0  0  0  0  0
   28.9503  -20.5764  -11.3940 C   0  0  0  0  0  0  0  0  0  0  0  0
   30.1407  -21.1859  -10.8254 C   0  0  0  0  0  0  0  0  0  0  0  0
   30.0375  -22.4544  -10.2601 C   0  0  0  0  0  0  0  0  0  0  0  0
   31.2103  -23.0112   -9.7708 C   0  0  0  0  0  0  0  0  0  0  0  0
   32.3978  -22.3385   -9.8469 C   0  0  0  0  0  0  0  0  0  0  0  0
   32.5142  -21.0865  -10.4014 C   0  0  0  0  0  0  0  0  0  0  0  0
   31.3539  -20.5163  -10.8943 C   0  0  0  0  0  0  0  0  0  0  0  0
   27.3691  -20.2723  -13.1414 C   0  0  0  0  0  0  0  0  0  0  0  0
   27.4554  -19.0465  -13.4956 O   0  0  0  0  0  0  0  0  0  0  0  0
   26.0883  -20.9062  -13.0853 N   0  0  0  0  0  0  0  0  0  0  0  0
   25.1059  -20.4095  -14.0026 C   0  0  1  0  0  0  0  0  0  0  0  0
   25.4648  -20.7652  -15.4561 C   0  0  0  0  0  0  0  0  0  0  0  0
   25.8405  -22.2173  -15.4684 C   0  0  0  0  0  0  0  0  0  0  0  0
   26.2692  -22.7922  -16.7699 C   0  0  0  0  0  0  0  0  0  0  0  0
   26.6127  -24.2443  -16.7302 C   0  0  0  0  0  0  0  0  0  0  0  0
   27.1294  -24.7811  -17.9641 N   0  0  0  0  0  0  0  0  0  0  0  0
   23.7679  -21.0072  -13.6914 C   0  0  0  0  0  0  0  0  0  0  0  0
   23.7423  -22.2113  -13.2966 O   0  0  0  0  0  0  0  0  0  0  0  0
   15.2572  -21.2386  -14.4796 N   0  0  0  0  0  0  0  0  0  0  0  0
   15.5142  -19.8336  -14.5289 C   0  0  0  0  0  0  0  0  0  0  0  0
   14.5832  -18.9685  -14.5249 N   0  0  0  0  0  0  0  0  0  0  0  0
   16.8761  -19.4072  -14.5715 N   0  0  0  0  0  0  0  0  0  0  0  0
   17.9396  -20.3875  -14.7174 C   0  0  0  0  0  0  0  0  0  0  0  0
   18.8168  -20.2426  -13.4967 C   0  0  0  0  0  0  0  0  0  0  0  0
   20.1800  -19.7079  -13.7450 C   0  0  0  0  0  0  0  0  0  0  0  0
   21.2267  -20.8040  -13.5278 C   0  0  2  0  0  0  0  0  0  0  0  0
   22.5657  -20.3079  -13.8096 N   0  0  0  0  0  0  0  0  0  0  0  0
   20.9193  -21.9513  -14.3881 C   0  0  0  0  0  0  0  0  0  0  0  0
   20.1818  -23.0324  -13.9709 O   0  0  0  0  0  0  0  0  0  0  0  0
   21.3763  -21.9125  -15.5874 O   0  0  0  0  0  0  0  0  0  0  0  0
  2  1  1  6
  2 10  1  0
  2  3  1  0
  3  4  1  0
  4  9  2  0
  4  5  1  0
  5  6  2  0
  6  7  1  0
  8  7  2  0
  9  8  1  0
 10 11  2  0
 12 10  1  0
 12 13  1  0
 13 19  1  0
 13 14  1  6
 15 14  1  0
 16 15  1  0
 17 16  1  0
 18 17  1  0
 19 29  1  0
 19 20  2  0
 21 22  1  0
 22 23  2  0
 24 22  1  0
 24 25  1  0
 25 26  1  0
 27 26  1  0
 28 27  1  6
 28 30  1  0
 29 28  1  0
 30 31  1  0
 32 30  2  0
M  END
$$$$
