FKR.pdb
     RDKit          3D

 32 32  0  0  1  0  0  0  0  0999 V2000
   31.7977  -14.2435  -21.3035 N   0  0  0  0  0  0  0  0  0  0  0  0
   31.4687  -15.0068  -20.1649 C   0  0  1  0  0  0  0  0  0  0  0  0
   30.7022  -14.2149  -19.1426 C   0  0  0  0  0  0  0  0  0  0  0  0
   31.3677  -13.0401  -18.6050 C   0  0  0  0  0  0  0  0  0  0  0  0
   30.6049  -11.9094  -18.3243 C   0  0  0  0  0  0  0  0  0  0  0  0
   31.2788  -10.8298  -17.7716 C   0  0  0  0  0  0  0  0  0  0  0  0
   32.6212  -10.8876  -17.5207 C   0  0  0  0  0  0  0  0  0  0  0  0
   33.3862  -11.9964  -17.7931 C   0  0  0  0  0  0  0  0  0  0  0  0
   32.7298  -13.0822  -18.3449 C   0  0  0  0  0  0  0  0  0  0  0  0
   30.7347  -16.2548  -20.3608 C   0  0  0  0  0  0  0  0  0  0  0  0
   30.0119  -16.3572  -21.4109 O   0  0  0  0  0  0  0  0  0  0  0  0
   30.7958  -17.3412  -19.4328 N   0  0  0  0  0  0  0  0  0  0  0  0
   29.9963  -18.4850  -19.7580 C   0  0  1  0  0  0  0  0  0  0  0  0
   30.5278  -19.7549  -19.0703 C   0  0  0  0  0  0  0  0  0  0  0  0
   31.8081  -20.1202  -19.7613 C   0  0  0  0  0  0  0  0  0  0  0  0
   32.5608  -21.2804  -19.2176 C   0  0  0  0  0  0  0  0  0  0  0  0
   33.8692  -21.5463  -19.8851 C   0  0  0  0  0  0  0  0  0  0  0  0
   34.6216  -22.6448  -19.3331 N   0  0  0  0  0  0  0  0  0  0  0  0
   28.5841  -18.2658  -19.3088 C   0  0  0  0  0  0  0  0  0  0  0  0
   28.4074  -17.7094  -18.1838 O   0  0  0  0  0  0  0  0  0  0  0  0
   21.2318  -14.4339  -21.8727 N   0  0  0  0  0  0  0  0  0  0  0  0
   20.8663  -15.3035  -20.7991 C   0  0  0  0  0  0  0  0  0  0  0  0
   19.7151  -15.2783  -20.2615 N   0  0  0  0  0  0  0  0  0  0  0  0
   21.8429  -16.2366  -20.3364 N   0  0  0  0  0  0  0  0  0  0  0  0
   23.1758  -16.2402  -20.9168 C   0  0  0  0  0  0  0  0  0  0  0  0
   23.9488  -17.3154  -20.1908 C   0  0  0  0  0  0  0  0  0  0  0  0
   25.3685  -17.4718  -20.5975 C   0  0  0  0  0  0  0  0  0  0  0  0
   26.0690  -18.4913  -19.6950 C   0  0  2  0  0  0  0  0  0  0  0  0
   27.4696  -18.6362  -20.0633 N   0  0  0  0  0  0  0  0  0  0  0  0
   25.3825  -19.7836  -19.7922 C   0  0  0  0  0  0  0  0  0  0  0  0
   24.3904  -20.1789  -18.9284 O   0  0  0  0  0  0  0  0  0  0  0  0
   25.7499  -20.5623  -20.7447 O   0  0  0  0  0  0  0  0  0  0  0  0
  2  1  1  6
  2 10  1  0
  2  3  1  0
  3  4  1  0
  4  9  2  0
  4  5  1  0
  5  6  2  0
  6  7  1  0
  8  7  2  0
  9  8  1  0
 10 11  2  0
 12 10  1  0
 12 13  1  0
 13 19  1  0
 13 14  1  1
 15 14  1  0
 16 15  1  0
 17 16  1  0
 18 17  1  0
 19 29  1  0
 19 20  2  0
 21 22  1  0
 22 23  2  0
 24 22  1  0
 24 25  1  0
 25 26  1  0
 27 26  1  0
 28 27  1  6
 28 30  1  0
 29 28  1  0
 30 31  1  0
 32 30  2  0
M  END
$$$$
