FKR.pdb
     RDKit          3D

 32 32  0  0  1  0  0  0  0  0999 V2000
   28.1007  -21.4834  -16.9451 N   0  0  0  0  0  0  0  0  0  0  0  0
   27.7382  -20.5105  -15.9915 C   0  0  1  0  0  0  0  0  0  0  0  0
   27.0624  -19.3198  -16.6120 C   0  0  0  0  0  0  0  0  0  0  0  0
   27.9023  -18.4475  -17.4156 C   0  0  0  0  0  0  0  0  0  0  0  0
   28.8253  -17.6281  -16.7706 C   0  0  0  0  0  0  0  0  0  0  0  0
   29.6337  -16.8468  -17.5838 C   0  0  0  0  0  0  0  0  0  0  0  0
   29.5193  -16.8900  -18.9452 C   0  0  0  0  0  0  0  0  0  0  0  0
   28.6129  -17.6932  -19.5949 C   0  0  0  0  0  0  0  0  0  0  0  0
   27.7985  -18.4789  -18.7987 C   0  0  0  0  0  0  0  0  0  0  0  0
   26.9015  -20.9256  -14.8680 C   0  0  0  0  0  0  0  0  0  0  0  0
   26.0978  -21.9021  -15.0581 O   0  0  0  0  0  0  0  0  0  0  0  0
   26.9501  -20.2852  -13.5902 N   0  0  0  0  0  0  0  0  0  0  0  0
   26.0366  -20.7861  -12.6063 C   0  0  1  0  0  0  0  0  0  0  0  0
   26.3524  -20.2232  -11.2094 C   0  0  0  0  0  0  0  0  0  0  0  0
   25.3356  -20.7987  -10.2687 C   0  0  0  0  0  0  0  0  0  0  0  0
   25.4092  -20.3662   -8.8489 C   0  0  0  0  0  0  0  0  0  0  0  0
   24.4279  -21.0296   -7.9405 C   0  0  0  0  0  0  0  0  0  0  0  0
   24.4841  -20.5995   -6.5660 N   0  0  0  0  0  0  0  0  0  0  0  0
   24.6355  -20.3937  -12.9631 C   0  0  0  0  0  0  0  0  0  0  0  0
   24.3952  -19.1591  -13.1190 O   0  0  0  0  0  0  0  0  0  0  0  0
   22.7749  -25.5600  -15.1908 N   0  0  0  0  0  0  0  0  0  0  0  0
   23.9869  -24.9118  -15.5825 C   0  0  0  0  0  0  0  0  0  0  0  0
   25.1333  -25.4061  -15.3449 N   0  0  0  0  0  0  0  0  0  0  0  0
   23.8825  -23.6685  -16.2765 N   0  0  0  0  0  0  0  0  0  0  0  0
   22.5734  -23.1262  -16.6015 C   0  0  0  0  0  0  0  0  0  0  0  0
   22.4246  -21.8655  -15.7834 C   0  0  0  0  0  0  0  0  0  0  0  0
   21.6797  -22.0121  -14.5070 C   0  0  0  0  0  0  0  0  0  0  0  0
   22.2113  -21.0225  -13.4666 C   0  0  2  0  0  0  0  0  0  0  0  0
   23.5984  -21.3122  -13.1344 N   0  0  0  0  0  0  0  0  0  0  0  0
   21.3775  -21.0843  -12.2617 C   0  0  0  0  0  0  0  0  0  0  0  0
   21.8475  -21.4940  -11.0379 O   0  0  0  0  0  0  0  0  0  0  0  0
   20.1501  -20.7297  -12.3903 O   0  0  0  0  0  0  0  0  0  0  0  0
  2  1  1  6
  2 10  1  0
  2  3  1  0
  3  4  1  0
  4  9  2  0
  4  5  1  0
  5  6  2  0
  6  7  1  0
  8  7  2  0
  9  8  1  0
 10 11  2  0
 12 10  1  0
 12 13  1  0
 13 19  1  0
 13 14  1  1
 15 14  1  0
 16 15  1  0
 17 16  1  0
 18 17  1  0
 19 29  1  0
 19 20  2  0
 21 22  1  0
 22 23  2  0
 24 22  1  0
 24 25  1  0
 25 26  1  0
 27 26  1  0
 28 27  1  6
 28 30  1  0
 29 28  1  0
 30 31  1  0
 32 30  2  0
M  END
$$$$
