ANV.pdb
     RDKit          3D

 21 20  0  0  1  0  0  0  0  0999 V2000
   10.1176  -18.0918   14.4010 C   0  0  0  0  0  0  0  0  0  0  0  0
    9.8535  -16.6034   14.2319 C   0  0  2  0  0  0  0  0  0  0  0  0
   10.5582  -16.0946   13.0903 N   0  0  0  0  0  0  0  0  0  0  0  0
   10.3332  -15.9355   15.4830 C   0  0  0  0  0  0  0  0  0  0  0  0
   11.5264  -15.5975   15.6384 O   0  0  0  0  0  0  0  0  0  0  0  0
    7.8640  -12.2114   18.3674 N   0  0  0  0  0  0  0  0  0  0  0  0
    7.7940  -13.5644   17.8936 C   0  0  0  0  0  0  0  0  0  0  0  0
    7.0488  -13.7809   16.9295 O   0  0  0  0  0  0  0  0  0  0  0  0
    8.5820  -14.6161   18.5448 C   0  0  0  0  0  0  0  0  0  0  0  0
    9.7821  -14.9915   17.7192 C   0  0  2  0  0  0  0  0  0  0  0  0
    9.4017  -15.6804   16.5211 N   0  0  0  0  0  0  0  0  0  0  0  0
   10.7408  -15.8171   18.5237 C   0  0  0  0  0  0  0  0  0  0  0  0
   10.5754  -17.0413   18.7282 O   0  0  0  0  0  0  0  0  0  0  0  0
   14.6137  -15.1441   18.0445 C   0  0  0  0  0  0  0  0  0  0  0  0
   14.2258  -15.0824   19.4889 C   0  0  1  0  0  0  0  0  0  0  0  0
   14.1540  -13.6853   20.0389 C   0  0  0  0  0  0  0  0  0  0  0  0
   12.9362  -15.8536   19.7773 C   0  0  2  0  0  0  0  0  0  0  0  0
   11.8685  -15.1721   19.0640 N   0  0  0  0  0  0  0  0  0  0  0  0
   12.6577  -15.8654   21.2328 C   0  0  0  0  0  0  0  0  0  0  0  0
   11.6995  -15.2212   21.7223 O   0  0  0  0  0  0  0  0  0  0  0  0
   13.4734  -16.6042   22.0722 O   0  0  0  0  0  0  0  0  0  0  0  0
  2  1  1  1
  2  3  1  0
  4  2  1  0
  4 11  1  0
  5  4  2  0
  7  8  2  0
  7  6  1  0
 10  9  1  1
  9  7  1  0
 10 11  1  0
 10 12  1  0
 12 18  1  0
 12 13  2  0
 15 14  1  6
 15 17  1  0
 16 15  1  0
 17 19  1  0
 17 18  1  6
 19 21  1  0
 20 19  2  0
M  END
$$$$
