ANV.pdb
     RDKit          3D

 21 20  0  0  1  0  0  0  0  0999 V2000
    8.4693  -12.6236   19.0532 C   0  0  0  0  0  0  0  0  0  0  0  0
    8.5093  -14.1427   18.9862 C   0  0  2  0  0  0  0  0  0  0  0  0
    7.8646  -14.6103   17.7927 N   0  0  0  0  0  0  0  0  0  0  0  0
    7.7922  -14.6468   20.1999 C   0  0  0  0  0  0  0  0  0  0  0  0
    6.5773  -14.9395   20.1783 O   0  0  0  0  0  0  0  0  0  0  0  0
    6.0884  -17.5314   24.1021 N   0  0  0  0  0  0  0  0  0  0  0  0
    7.4989  -17.3803   23.8832 C   0  0  0  0  0  0  0  0  0  0  0  0
    8.2476  -17.7258   24.8061 O   0  0  0  0  0  0  0  0  0  0  0  0
    7.9948  -16.8386   22.6137 C   0  0  0  0  0  0  0  0  0  0  0  0
    7.9091  -15.3371   22.5886 C   0  0  2  0  0  0  0  0  0  0  0  0
    8.5176  -14.7953   21.4092 N   0  0  0  0  0  0  0  0  0  0  0  0
    8.5283  -14.7507   23.8217 C   0  0  0  0  0  0  0  0  0  0  0  0
    9.7654  -14.7268   24.0136 O   0  0  0  0  0  0  0  0  0  0  0  0
    5.7213  -13.2501   26.6975 C   0  0  0  0  0  0  0  0  0  0  0  0
    6.9954  -12.5350   26.3723 C   0  0  1  0  0  0  0  0  0  0  0  0
    7.4497  -11.5857   27.4457 C   0  0  0  0  0  0  0  0  0  0  0  0
    8.1176  -13.4979   25.9791 C   0  0  2  0  0  0  0  0  0  0  0  0
    7.6674  -14.2089   24.7938 N   0  0  0  0  0  0  0  0  0  0  0  0
    8.3873  -14.4519   27.0806 C   0  0  0  0  0  0  0  0  0  0  0  0
    7.8366  -15.5778   27.1225 O   0  0  0  0  0  0  0  0  0  0  0  0
    9.2671  -14.0929   28.0869 O   0  0  0  0  0  0  0  0  0  0  0  0
  2  1  1  6
  2  3  1  0
  4  2  1  0
  4 11  1  0
  5  4  2  0
  7  8  2  0
  7  6  1  0
 10  9  1  1
  9  7  1  0
 10 11  1  0
 10 12  1  0
 12 18  1  0
 12 13  2  0
 15 14  1  1
 15 17  1  0
 16 15  1  0
 17 19  1  0
 17 18  1  6
 19 21  1  0
 20 19  2  0
M  END
$$$$
