ANV.pdb
     RDKit          3D

 21 20  0  0  1  0  0  0  0  0999 V2000
    8.9441  -17.8751   17.2751 C   0  0  0  0  0  0  0  0  0  0  0  0
    8.6321  -18.1131   18.7447 C   0  0  2  0  0  0  0  0  0  0  0  0
    7.2193  -18.2717   18.9391 N   0  0  0  0  0  0  0  0  0  0  0  0
    9.1315  -16.9150   19.4909 C   0  0  0  0  0  0  0  0  0  0  0  0
   10.3454  -16.6207   19.5360 O   0  0  0  0  0  0  0  0  0  0  0  0
    6.4685  -12.8856   18.9014 N   0  0  0  0  0  0  0  0  0  0  0  0
    7.6978  -13.2687   19.5357 C   0  0  0  0  0  0  0  0  0  0  0  0
    8.7377  -13.1003   18.8862 O   0  0  0  0  0  0  0  0  0  0  0  0
    7.6855  -13.8301   20.8906 C   0  0  0  0  0  0  0  0  0  0  0  0
    8.6151  -15.0071   21.0038 C   0  0  2  0  0  0  0  0  0  0  0  0
    8.1951  -16.0917   20.1660 N   0  0  0  0  0  0  0  0  0  0  0  0
    8.7323  -15.4539   22.4302 C   0  0  0  0  0  0  0  0  0  0  0  0
    7.8103  -15.3072   23.2646 O   0  0  0  0  0  0  0  0  0  0  0  0
   11.5389  -18.5129   23.0230 C   0  0  0  0  0  0  0  0  0  0  0  0
   10.2915  -18.2254   23.7987 C   0  0  1  0  0  0  0  0  0  0  0  0
   10.1486  -19.0514   25.0465 C   0  0  0  0  0  0  0  0  0  0  0  0
   10.1282  -16.7351   24.1043 C   0  0  2  0  0  0  0  0  0  0  0  0
    9.9365  -16.0618   22.8303 N   0  0  0  0  0  0  0  0  0  0  0  0
   11.3363  -16.2137   24.7859 C   0  0  0  0  0  0  0  0  0  0  0  0
   11.5234  -16.3884   26.0136 O   0  0  0  0  0  0  0  0  0  0  0  0
   12.2806  -15.5176   24.0515 O   0  0  0  0  0  0  0  0  0  0  0  0
  2  1  1  6
  2  3  1  0
  4  2  1  0
  4 11  1  0
  5  4  2  0
  7  8  2  0
  7  6  1  0
 10  9  1  1
  9  7  1  0
 10 11  1  0
 10 12  1  0
 12 18  1  0
 12 13  2  0
 15 14  1  1
 15 17  1  0
 16 15  1  0
 17 19  1  0
 17 18  1  6
 19 21  1  0
 20 19  2  0
M  END
$$$$
