ANV.pdb
     RDKit          3D

 21 20  0  0  1  0  0  0  0  0999 V2000
    8.2439  -12.1123   19.8915 C   0  0  0  0  0  0  0  0  0  0  0  0
    8.2537  -13.5846   19.5094 C   0  0  2  0  0  0  0  0  0  0  0  0
    7.3316  -13.8320   18.4383 N   0  0  0  0  0  0  0  0  0  0  0  0
    7.8526  -14.3500   20.7321 C   0  0  0  0  0  0  0  0  0  0  0  0
    6.6550  -14.5728   21.0116 O   0  0  0  0  0  0  0  0  0  0  0  0
    9.2113  -18.0783   20.5435 N   0  0  0  0  0  0  0  0  0  0  0  0
    8.4725  -17.7437   21.7277 C   0  0  0  0  0  0  0  0  0  0  0  0
    7.3101  -18.1627   21.7980 O   0  0  0  0  0  0  0  0  0  0  0  0
    9.0967  -16.9414   22.7849 C   0  0  0  0  0  0  0  0  0  0  0  0
    8.5493  -15.5404   22.8041 C   0  0  2  0  0  0  0  0  0  0  0  0
    8.8660  -14.8353   21.5970 N   0  0  0  0  0  0  0  0  0  0  0  0
    9.0517  -14.7922   24.0023 C   0  0  0  0  0  0  0  0  0  0  0  0
   10.2625  -14.5246   24.1761 O   0  0  0  0  0  0  0  0  0  0  0  0
    7.1809  -11.6625   25.6326 C   0  0  0  0  0  0  0  0  0  0  0  0
    7.2932  -12.8142   26.5822 C   0  0  1  0  0  0  0  0  0  0  0  0
    6.0129  -13.5816   26.7598 C   0  0  0  0  0  0  0  0  0  0  0  0
    8.4501  -13.7499   26.2260 C   0  0  2  0  0  0  0  0  0  0  0  0
    8.1083  -14.3811   24.9619 N   0  0  0  0  0  0  0  0  0  0  0  0
    8.6278  -14.7744   27.2819 C   0  0  0  0  0  0  0  0  0  0  0  0
    8.2066  -15.9466   27.1358 O   0  0  0  0  0  0  0  0  0  0  0  0
    9.2735  -14.4306   28.4569 O   0  0  0  0  0  0  0  0  0  0  0  0
  2  1  1  1
  2  3  1  0
  4  2  1  0
  4 11  1  0
  5  4  2  0
  7  8  2  0
  7  6  1  0
 10  9  1  6
  9  7  1  0
 10 11  1  0
 10 12  1  0
 12 18  1  0
 12 13  2  0
 15 14  1  6
 15 17  1  0
 16 15  1  0
 17 19  1  0
 17 18  1  6
 19 21  1  0
 20 19  2  0
M  END
$$$$
