ANV.pdb
     RDKit          3D

 21 20  0  0  1  0  0  0  0  0999 V2000
    6.5980  -20.0377   23.5213 C   0  0  0  0  0  0  0  0  0  0  0  0
    6.6103  -18.7145   24.2715 C   0  0  2  0  0  0  0  0  0  0  0  0
    5.7119  -17.7799   23.6564 N   0  0  0  0  0  0  0  0  0  0  0  0
    8.0158  -18.2016   24.2181 C   0  0  0  0  0  0  0  0  0  0  0  0
    8.9818  -18.8692   24.6462 O   0  0  0  0  0  0  0  0  0  0  0  0
    9.3576  -17.3069   20.0830 N   0  0  0  0  0  0  0  0  0  0  0  0
   10.1122  -17.1497   21.2937 C   0  0  0  0  0  0  0  0  0  0  0  0
   10.9279  -18.0406   21.5633 O   0  0  0  0  0  0  0  0  0  0  0  0
    9.9012  -15.9763   22.1478 C   0  0  0  0  0  0  0  0  0  0  0  0
    9.5779  -16.3786   23.5606 C   0  0  2  0  0  0  0  0  0  0  0  0
    8.2540  -16.9184   23.6639 N   0  0  0  0  0  0  0  0  0  0  0  0
    9.7515  -15.2184   24.4944 C   0  0  0  0  0  0  0  0  0  0  0  0
   10.8289  -14.5895   24.6014 O   0  0  0  0  0  0  0  0  0  0  0  0
    7.2612  -12.3007   24.9307 C   0  0  0  0  0  0  0  0  0  0  0  0
    7.3932  -13.0285   26.2319 C   0  0  1  0  0  0  0  0  0  0  0  0
    6.2082  -13.8900   26.5685 C   0  0  0  0  0  0  0  0  0  0  0  0
    8.6958  -13.8260   26.3218 C   0  0  2  0  0  0  0  0  0  0  0  0
    8.6462  -14.8342   25.2757 N   0  0  0  0  0  0  0  0  0  0  0  0
    8.8155  -14.4689   27.6516 C   0  0  0  0  0  0  0  0  0  0  0  0
    8.7105  -15.7108   27.7914 O   0  0  0  0  0  0  0  0  0  0  0  0
    9.0485  -13.6815   28.7658 O   0  0  0  0  0  0  0  0  0  0  0  0
  2  1  1  6
  2  3  1  0
  4  2  1  0
  4 11  1  0
  5  4  2  0
  7  8  2  0
  7  6  1  0
 10  9  1  6
  9  7  1  0
 10 11  1  0
 10 12  1  0
 12 18  1  0
 12 13  2  0
 15 14  1  6
 15 17  1  0
 16 15  1  0
 17 19  1  0
 17 18  1  6
 19 21  1  0
 20 19  2  0
M  END
$$$$
