ANV.pdb
     RDKit          3D

 21 20  0  0  1  0  0  0  0  0999 V2000
    7.7762  -15.5805   18.5223 C   0  0  0  0  0  0  0  0  0  0  0  0
    8.8146  -15.8394   19.6032 C   0  0  2  0  0  0  0  0  0  0  0  0
    9.1779  -17.2272   19.6289 N   0  0  0  0  0  0  0  0  0  0  0  0
    8.1922  -15.4375   20.9042 C   0  0  0  0  0  0  0  0  0  0  0  0
    7.7802  -14.2757   21.1110 O   0  0  0  0  0  0  0  0  0  0  0  0
    6.3387  -19.3640   22.2538 N   0  0  0  0  0  0  0  0  0  0  0  0
    5.9280  -18.0979   22.7908 C   0  0  0  0  0  0  0  0  0  0  0  0
    4.8368  -17.6564   22.4086 O   0  0  0  0  0  0  0  0  0  0  0  0
    6.7857  -17.3880   23.7455 C   0  0  0  0  0  0  0  0  0  0  0  0
    7.3538  -16.1326   23.1424 C   0  0  2  0  0  0  0  0  0  0  0  0
    8.0682  -16.4079   21.9305 N   0  0  0  0  0  0  0  0  0  0  0  0
    8.2343  -15.4235   24.1273 C   0  0  0  0  0  0  0  0  0  0  0  0
    9.4699  -15.6154   24.1931 O   0  0  0  0  0  0  0  0  0  0  0  0
    7.3262  -11.6192   25.2125 C   0  0  0  0  0  0  0  0  0  0  0  0
    7.4874  -12.5456   26.3771 C   0  0  1  0  0  0  0  0  0  0  0  0
    6.1875  -12.9580   27.0092 C   0  0  0  0  0  0  0  0  0  0  0  0
    8.3435  -13.7664   26.0338 C   0  0  2  0  0  0  0  0  0  0  0  0
    7.6292  -14.5073   25.0071 N   0  0  0  0  0  0  0  0  0  0  0  0
    8.5412  -14.6111   27.2352 C   0  0  0  0  0  0  0  0  0  0  0  0
    7.8887  -15.6681   27.4082 O   0  0  0  0  0  0  0  0  0  0  0  0
    9.4670  -14.2256   28.1890 O   0  0  0  0  0  0  0  0  0  0  0  0
  2  1  1  6
  2  3  1  0
  4  2  1  0
  4 11  1  0
  5  4  2  0
  7  8  2  0
  7  6  1  0
 10  9  1  1
  9  7  1  0
 10 11  1  0
 10 12  1  0
 12 18  1  0
 12 13  2  0
 15 14  1  6
 15 17  1  0
 16 15  1  0
 17 19  1  0
 17 18  1  6
 19 21  1  0
 20 19  2  0
M  END
$$$$
