VFS.pdb
     RDKit          3D

 25 25  0  0  1  0  0  0  0  0999 V2000
   18.0924  -11.7160  -17.7141 C   0  0  0  0  0  0  0  0  0  0  0  0
   17.7694  -11.2412  -16.3277 C   0  0  2  0  0  0  0  0  0  0  0  0
   16.6909  -12.0858  -15.7126 C   0  0  0  0  0  0  0  0  0  0  0  0
   17.5128   -9.7527  -16.2131 C   0  0  2  0  0  0  0  0  0  0  0  0
   18.5001   -9.1508  -17.1377 N   0  0  0  0  0  0  0  0  0  0  0  0
   17.6564   -9.2045  -14.8545 C   0  0  0  0  0  0  0  0  0  0  0  0
   16.9886   -9.6873  -13.8860 O   0  0  0  0  0  0  0  0  0  0  0  0
   18.5168   -8.1408  -14.5216 N   0  0  0  0  0  0  0  0  0  0  0  0
   18.8189   -7.5896  -13.2604 C   0  0  1  0  0  0  0  0  0  0  0  0
   20.2638   -7.0190  -13.3391 C   0  0  0  0  0  0  0  0  0  0  0  0
   21.2440   -8.1043  -13.5809 C   0  0  0  0  0  0  0  0  0  0  0  0
   21.8904   -8.2381  -14.8193 C   0  0  0  0  0  0  0  0  0  0  0  0
   22.8385   -9.2118  -15.0387 C   0  0  0  0  0  0  0  0  0  0  0  0
   23.1867  -10.0952  -14.0324 C   0  0  0  0  0  0  0  0  0  0  0  0
   22.5632   -9.9835  -12.8128 C   0  0  0  0  0  0  0  0  0  0  0  0
   21.6090   -8.9996  -12.6072 C   0  0  0  0  0  0  0  0  0  0  0  0
   17.9534   -6.6018  -12.6811 C   0  0  0  0  0  0  0  0  0  0  0  0
   17.4703   -5.7188  -13.4594 O   0  0  0  0  0  0  0  0  0  0  0  0
   17.1556   -6.0423   -8.6251 O   0  0  0  0  0  0  0  0  0  0  0  0
   16.1149   -5.8086   -9.5114 C   0  0  0  0  0  0  0  0  0  0  0  0
   16.6484   -5.4860  -10.9169 C   0  0  2  0  0  0  0  0  0  0  0  0
   17.5801   -6.5247  -11.3200 N   0  0  0  0  0  0  0  0  0  0  0  0
   17.2249   -4.1429  -10.9392 C   0  0  0  0  0  0  0  0  0  0  0  0
   18.4338   -3.9738  -11.2156 O   0  0  0  0  0  0  0  0  0  0  0  0
   16.4572   -3.0422  -10.6721 O   0  0  0  0  0  0  0  0  0  0  0  0
  2  1  1  6
  2  3  1  0
  4  2  1  0
  4  5  1  6
  6  4  1  0
  6  7  2  0
  8  6  1  0
  9  8  1  0
 10 11  1  0
  9 10  1  6
 11 12  2  0
 12 13  1  0
 14 13  2  0
 15 14  1  0
 16 15  2  0
 16 11  1  0
 17 22  1  0
 17  9  1  0
 18 17  2  0
 20 19  1  0
 21 22  1  0
 21 20  1  1
 23 21  1  0
 24 23  2  0
 25 23  1  0
M  END
$$$$
