VFS.pdb
     RDKit          3D

 25 25  0  0  1  0  0  0  0  0999 V2000
   20.4552  -11.1659  -18.5385 C   0  0  0  0  0  0  0  0  0  0  0  0
   21.6276  -11.2373  -19.4724 C   0  0  2  0  0  0  0  0  0  0  0  0
   21.3835  -12.2450  -20.5586 C   0  0  0  0  0  0  0  0  0  0  0  0
   22.9706  -11.3954  -18.7900 C   0  0  2  0  0  0  0  0  0  0  0  0
   22.9507  -12.7878  -18.2871 N   0  0  0  0  0  0  0  0  0  0  0  0
   23.2243  -10.4412  -17.6981 C   0  0  0  0  0  0  0  0  0  0  0  0
   22.9146  -10.7299  -16.4991 O   0  0  0  0  0  0  0  0  0  0  0  0
   23.8139   -9.1755  -17.8797 N   0  0  0  0  0  0  0  0  0  0  0  0
   24.0079   -8.1326  -16.9521 C   0  0  1  0  0  0  0  0  0  0  0  0
   25.5246   -7.7871  -16.9552 C   0  0  0  0  0  0  0  0  0  0  0  0
   26.3314   -8.9632  -16.5514 C   0  0  0  0  0  0  0  0  0  0  0  0
   26.2222   -9.5132  -15.2650 C   0  0  0  0  0  0  0  0  0  0  0  0
   26.9298  -10.6348  -14.8957 C   0  0  0  0  0  0  0  0  0  0  0  0
   27.7771  -11.2602  -15.7930 C   0  0  0  0  0  0  0  0  0  0  0  0
   27.9011  -10.7357  -17.0572 C   0  0  0  0  0  0  0  0  0  0  0  0
   27.1840   -9.6047  -17.4142 C   0  0  0  0  0  0  0  0  0  0  0  0
   23.2485   -6.9197  -17.0641 C   0  0  0  0  0  0  0  0  0  0  0  0
   23.1294   -6.4091  -18.2234 O   0  0  0  0  0  0  0  0  0  0  0  0
   20.1529   -3.6168  -15.3087 O   0  0  0  0  0  0  0  0  0  0  0  0
   21.0156   -4.6697  -15.0436 C   0  0  0  0  0  0  0  0  0  0  0  0
   21.7609   -5.1066  -16.3156 C   0  0  2  0  0  0  0  0  0  0  0  0
   22.6104   -6.2418  -16.0005 N   0  0  0  0  0  0  0  0  0  0  0  0
   22.4871   -3.9736  -16.8863 C   0  0  0  0  0  0  0  0  0  0  0  0
   23.6213   -3.6636  -16.4575 O   0  0  0  0  0  0  0  0  0  0  0  0
   21.9521   -3.2360  -17.9071 O   0  0  0  0  0  0  0  0  0  0  0  0
  2  1  1  1
  2  3  1  0
  4  2  1  0
  4  5  1  1
  6  4  1  0
  6  7  2  0
  8  6  1  0
  9  8  1  0
 10 11  1  0
  9 10  1  6
 11 12  2  0
 12 13  1  0
 14 13  2  0
 15 14  1  0
 16 15  2  0
 16 11  1  0
 17 22  1  0
 17  9  1  0
 18 17  2  0
 20 19  1  0
 21 22  1  0
 21 20  1  1
 23 21  1  0
 24 23  2  0
 25 23  1  0
M  END
$$$$
