VFS.pdb
     RDKit          3D

 25 25  0  0  1  0  0  0  0  0999 V2000
   18.5230   -8.3516  -18.8998 C   0  0  0  0  0  0  0  0  0  0  0  0
   20.0142   -8.3234  -19.0656 C   0  0  2  0  0  0  0  0  0  0  0  0
   20.4284   -9.0804  -20.2946 C   0  0  0  0  0  0  0  0  0  0  0  0
   20.7954   -8.7069  -17.8258 C   0  0  2  0  0  0  0  0  0  0  0  0
   20.5055  -10.1489  -17.6564 N   0  0  0  0  0  0  0  0  0  0  0  0
   20.4414   -7.9494  -16.6143 C   0  0  0  0  0  0  0  0  0  0  0  0
   19.5265   -8.3635  -15.8342 O   0  0  0  0  0  0  0  0  0  0  0  0
   21.0650   -6.7479  -16.2267 N   0  0  0  0  0  0  0  0  0  0  0  0
   20.7716   -5.8899  -15.1480 C   0  0  1  0  0  0  0  0  0  0  0  0
   22.0123   -5.8857  -14.2097 C   0  0  0  0  0  0  0  0  0  0  0  0
   22.1294   -7.1758  -13.4891 C   0  0  0  0  0  0  0  0  0  0  0  0
   21.4385   -7.4040  -12.2892 C   0  0  0  0  0  0  0  0  0  0  0  0
   21.5011   -8.6152  -11.6379 C   0  0  0  0  0  0  0  0  0  0  0  0
   22.2540   -9.6547  -12.1547 C   0  0  0  0  0  0  0  0  0  0  0  0
   22.9411   -9.4510  -13.3273 C   0  0  0  0  0  0  0  0  0  0  0  0
   22.8703   -8.2255  -13.9708 C   0  0  0  0  0  0  0  0  0  0  0  0
   20.3643   -4.5361  -15.3960 C   0  0  0  0  0  0  0  0  0  0  0  0
   21.1566   -3.8004  -16.0668 O   0  0  0  0  0  0  0  0  0  0  0  0
   16.8767   -1.2422  -15.9273 O   0  0  0  0  0  0  0  0  0  0  0  0
   17.2639   -2.4965  -15.4802 C   0  0  0  0  0  0  0  0  0  0  0  0
   18.7944   -2.6428  -15.5027 C   0  0  2  0  0  0  0  0  0  0  0  0
   19.1537   -3.9446  -14.9685 N   0  0  0  0  0  0  0  0  0  0  0  0
   19.4160   -1.5272  -14.7917 C   0  0  0  0  0  0  0  0  0  0  0  0
   19.5824   -1.5762  -13.5522 O   0  0  0  0  0  0  0  0  0  0  0  0
   19.8405   -0.4129  -15.4628 O   0  0  0  0  0  0  0  0  0  0  0  0
  2  1  1  1
  2  3  1  0
  4  2  1  0
  4  5  1  1
  6  4  1  0
  6  7  2  0
  8  6  1  0
  9  8  1  0
 10 11  1  0
  9 10  1  1
 11 12  2  0
 12 13  1  0
 14 13  2  0
 15 14  1  0
 16 15  2  0
 16 11  1  0
 17 22  1  0
 17  9  1  0
 18 17  2  0
 20 19  1  0
 21 22  1  0
 21 20  1  1
 23 21  1  0
 24 23  2  0
 25 23  1  0
M  END
$$$$
