VFS.pdb
     RDKit          3D

 25 25  0  0  1  0  0  0  0  0999 V2000
   21.0933   -9.7261  -20.9139 C   0  0  0  0  0  0  0  0  0  0  0  0
   22.4028   -8.9931  -20.9146 C   0  0  2  0  0  0  0  0  0  0  0  0
   23.1281   -9.1986  -22.2133 C   0  0  0  0  0  0  0  0  0  0  0  0
   23.2650   -9.2382  -19.6936 C   0  0  2  0  0  0  0  0  0  0  0  0
   23.6828  -10.6517  -19.8330 N   0  0  0  0  0  0  0  0  0  0  0  0
   22.5903   -9.0096  -18.4055 C   0  0  0  0  0  0  0  0  0  0  0  0
   22.0181   -9.9665  -17.7939 O   0  0  0  0  0  0  0  0  0  0  0  0
   22.5264   -7.7592  -17.7611 N   0  0  0  0  0  0  0  0  0  0  0  0
   21.9275   -7.4095  -16.5344 C   0  0  1  0  0  0  0  0  0  0  0  0
   23.0630   -6.9305  -15.5853 C   0  0  0  0  0  0  0  0  0  0  0  0
   23.9565   -8.0572  -15.2258 C   0  0  0  0  0  0  0  0  0  0  0  0
   23.5764   -9.0100  -14.2681 C   0  0  0  0  0  0  0  0  0  0  0  0
   24.3769  -10.0874  -13.9626 C   0  0  0  0  0  0  0  0  0  0  0  0
   25.5922  -10.2650  -14.5997 C   0  0  0  0  0  0  0  0  0  0  0  0
   25.9849   -9.3415  -15.5387 C   0  0  0  0  0  0  0  0  0  0  0  0
   25.1694   -8.2606  -15.8344 C   0  0  0  0  0  0  0  0  0  0  0  0
   20.8546   -6.4565  -16.5036 C   0  0  0  0  0  0  0  0  0  0  0  0
   21.0472   -5.3400  -17.0827 O   0  0  0  0  0  0  0  0  0  0  0  0
   16.1674   -5.3588  -15.9546 O   0  0  0  0  0  0  0  0  0  0  0  0
   17.1953   -6.2626  -15.7314 C   0  0  0  0  0  0  0  0  0  0  0  0
   18.5539   -5.6637  -16.1314 C   0  0  2  0  0  0  0  0  0  0  0  0
   19.5943   -6.6486  -15.8931 N   0  0  0  0  0  0  0  0  0  0  0  0
   18.7724   -4.4007  -15.4287 C   0  0  0  0  0  0  0  0  0  0  0  0
   19.3086   -4.3863  -14.2978 O   0  0  0  0  0  0  0  0  0  0  0  0
   18.4093   -3.2084  -15.9932 O   0  0  0  0  0  0  0  0  0  0  0  0
  2  1  1  6
  2  3  1  0
  4  2  1  0
  4  5  1  1
  6  4  1  0
  6  7  2  0
  8  6  1  0
  9  8  1  0
 10 11  1  0
  9 10  1  1
 11 12  2  0
 12 13  1  0
 14 13  2  0
 15 14  1  0
 16 15  2  0
 16 11  1  0
 17 22  1  0
 17  9  1  0
 18 17  2  0
 20 19  1  0
 21 22  1  0
 21 20  1  1
 23 21  1  0
 24 23  2  0
 25 23  1  0
M  END
$$$$
