VFS.pdb
     RDKit          3D

 25 25  0  0  1  0  0  0  0  0999 V2000
   26.1287  -22.0215  -18.6312 C   0  0  0  0  0  0  0  0  0  0  0  0
   27.2799  -21.1618  -18.1983 C   0  0  2  0  0  0  0  0  0  0  0  0
   28.1437  -20.7972  -19.3712 C   0  0  0  0  0  0  0  0  0  0  0  0
   28.0593  -21.6978  -17.0152 C   0  0  2  0  0  0  0  0  0  0  0  0
   28.7155  -22.9145  -17.5453 N   0  0  0  0  0  0  0  0  0  0  0  0
   27.2446  -22.0091  -15.8293 C   0  0  0  0  0  0  0  0  0  0  0  0
   26.7462  -23.1681  -15.6704 O   0  0  0  0  0  0  0  0  0  0  0  0
   26.9612  -21.0861  -14.8044 N   0  0  0  0  0  0  0  0  0  0  0  0
   26.0824  -21.2008  -13.7088 C   0  0  1  0  0  0  0  0  0  0  0  0
   26.6060  -20.2501  -12.5945 C   0  0  0  0  0  0  0  0  0  0  0  0
   25.7741  -20.3652  -11.3731 C   0  0  0  0  0  0  0  0  0  0  0  0
   24.5425  -19.7009  -11.2665 C   0  0  0  0  0  0  0  0  0  0  0  0
   23.7393  -19.8403  -10.1573 C   0  0  0  0  0  0  0  0  0  0  0  0
   24.1267  -20.6503   -9.1045 C   0  0  0  0  0  0  0  0  0  0  0  0
   25.3308  -21.3074   -9.1873 C   0  0  0  0  0  0  0  0  0  0  0  0
   26.1300  -21.1557  -10.3095 C   0  0  0  0  0  0  0  0  0  0  0  0
   24.6751  -20.9841  -13.8898 C   0  0  0  0  0  0  0  0  0  0  0  0
   24.3162  -19.8860  -14.4231 O   0  0  0  0  0  0  0  0  0  0  0  0
   20.8129  -23.3906  -13.3582 O   0  0  0  0  0  0  0  0  0  0  0  0
   21.5633  -22.8253  -14.3782 C   0  0  0  0  0  0  0  0  0  0  0  0
   22.2799  -21.5529  -13.8967 C   0  0  2  0  0  0  0  0  0  0  0  0
   23.6466  -21.8867  -13.5359 N   0  0  0  0  0  0  0  0  0  0  0  0
   21.5239  -20.9310  -12.8112 C   0  0  0  0  0  0  0  0  0  0  0  0
   21.9753  -20.9242  -11.6439 O   0  0  0  0  0  0  0  0  0  0  0  0
   20.3160  -20.3328  -13.0465 O   0  0  0  0  0  0  0  0  0  0  0  0
  2  1  1  6
  2  3  1  0
  4  2  1  0
  4  5  1  6
  6  4  1  0
  6  7  2  0
  8  6  1  0
  9  8  1  0
 10 11  1  0
  9 10  1  1
 11 12  2  0
 12 13  1  0
 14 13  2  0
 15 14  1  0
 16 15  2  0
 16 11  1  0
 17 22  1  0
 17  9  1  0
 18 17  2  0
 20 19  1  0
 21 22  1  0
 21 20  1  1
 23 21  1  0
 24 23  2  0
 25 23  1  0
M  END
$$$$
