VFS.pdb
     RDKit          3D

 25 25  0  0  1  0  0  0  0  0999 V2000
   38.3983  -27.6634    6.5129 C   0  0  0  0  0  0  0  0  0  0  0  0
   37.2590  -27.9601    5.5825 C   0  0  2  0  0  0  0  0  0  0  0  0
   37.4322  -29.3061    4.9397 C   0  0  0  0  0  0  0  0  0  0  0  0
   36.9434  -26.8541    4.5967 C   0  0  2  0  0  0  0  0  0  0  0  0
   38.1629  -26.7652    3.7618 N   0  0  0  0  0  0  0  0  0  0  0  0
   36.6246  -25.5539    5.2091 C   0  0  0  0  0  0  0  0  0  0  0  0
   37.5405  -24.7015    5.4360 O   0  0  0  0  0  0  0  0  0  0  0  0
   35.3258  -25.1550    5.5786 N   0  0  0  0  0  0  0  0  0  0  0  0
   34.9030  -24.0096    6.2822 C   0  0  1  0  0  0  0  0  0  0  0  0
   33.3548  -23.9323    6.1523 C   0  0  0  0  0  0  0  0  0  0  0  0
   32.9567  -22.7920    5.2931 C   0  0  0  0  0  0  0  0  0  0  0  0
   32.9921  -21.4733    5.7718 C   0  0  0  0  0  0  0  0  0  0  0  0
   32.6719  -20.4031    4.9674 C   0  0  0  0  0  0  0  0  0  0  0  0
   32.3037  -20.5990    3.6481 C   0  0  0  0  0  0  0  0  0  0  0  0
   32.2595  -21.8830    3.1602 C   0  0  0  0  0  0  0  0  0  0  0  0
   32.5825  -22.9509    3.9825 C   0  0  0  0  0  0  0  0  0  0  0  0
   35.2694  -23.8352    7.6590 C   0  0  0  0  0  0  0  0  0  0  0  0
   35.2045  -24.8562    8.4154 O   0  0  0  0  0  0  0  0  0  0  0  0
   38.9854  -23.1602    9.7934 O   0  0  0  0  0  0  0  0  0  0  0  0
   38.0407  -23.0754    8.7818 C   0  0  0  0  0  0  0  0  0  0  0  0
   36.6597  -22.7025    9.3456 C   0  0  2  0  0  0  0  0  0  0  0  0
   35.7059  -22.6290    8.2527 N   0  0  0  0  0  0  0  0  0  0  0  0
   36.7517  -21.4694   10.1252 C   0  0  0  0  0  0  0  0  0  0  0  0
   36.1331  -20.4422    9.7665 O   0  0  0  0  0  0  0  0  0  0  0  0
   37.5028  -21.4125   11.2674 O   0  0  0  0  0  0  0  0  0  0  0  0
  2  1  1  6
  2  3  1  0
  4  2  1  0
  4  5  1  6
  6  4  1  0
  6  7  2  0
  8  6  1  0
  9  8  1  0
 10 11  1  0
  9 10  1  1
 11 12  2  0
 12 13  1  0
 14 13  2  0
 15 14  1  0
 16 15  2  0
 16 11  1  0
 17 22  1  0
 17  9  1  0
 18 17  2  0
 20 19  1  0
 21 22  1  0
 21 20  1  6
 23 21  1  0
 24 23  2  0
 25 23  1  0
M  END
$$$$
