VFS.pdb
     RDKit          3D

 25 25  0  0  1  0  0  0  0  0999 V2000
   23.4840  -21.0304  -12.6054 C   0  0  0  0  0  0  0  0  0  0  0  0
   24.5091  -19.9679  -12.8738 C   0  0  2  0  0  0  0  0  0  0  0  0
   24.3530  -19.4146  -14.2611 C   0  0  0  0  0  0  0  0  0  0  0  0
   25.9319  -20.3623  -12.5355 C   0  0  2  0  0  0  0  0  0  0  0  0
   26.2374  -21.4456  -13.4974 N   0  0  0  0  0  0  0  0  0  0  0  0
   26.1344  -20.8126  -11.1486 C   0  0  0  0  0  0  0  0  0  0  0  0
   26.0624  -22.0465  -10.8499 O   0  0  0  0  0  0  0  0  0  0  0  0
   26.4192  -19.9484  -10.0740 N   0  0  0  0  0  0  0  0  0  0  0  0
   26.5694  -20.2378   -8.7031 C   0  0  1  0  0  0  0  0  0  0  0  0
   27.2548  -19.0072   -8.0431 C   0  0  0  0  0  0  0  0  0  0  0  0
   27.7325  -19.3410   -6.6802 C   0  0  0  0  0  0  0  0  0  0  0  0
   27.0222  -18.9338   -5.5404 C   0  0  0  0  0  0  0  0  0  0  0  0
   27.4301  -19.2804   -4.2721 C   0  0  0  0  0  0  0  0  0  0  0  0
   28.5637  -20.0507   -4.0827 C   0  0  0  0  0  0  0  0  0  0  0  0
   29.2757  -20.4573   -5.1855 C   0  0  0  0  0  0  0  0  0  0  0  0
   28.8543  -20.0989   -6.4563 C   0  0  0  0  0  0  0  0  0  0  0  0
   25.4288  -20.6182   -7.9190 C   0  0  0  0  0  0  0  0  0  0  0  0
   24.3792  -19.9077   -8.0303 O   0  0  0  0  0  0  0  0  0  0  0  0
   24.5663  -23.8688   -4.9261 O   0  0  0  0  0  0  0  0  0  0  0  0
   24.0009  -23.5335   -6.1472 C   0  0  0  0  0  0  0  0  0  0  0  0
   24.0908  -22.0195   -6.4003 C   0  0  2  0  0  0  0  0  0  0  0  0
   25.3617  -21.7202   -7.0365 N   0  0  0  0  0  0  0  0  0  0  0  0
   23.8747  -21.2881   -5.1533 C   0  0  0  0  0  0  0  0  0  0  0  0
   24.8332  -20.7435   -4.5608 O   0  0  0  0  0  0  0  0  0  0  0  0
   22.6231  -21.1711   -4.6130 O   0  0  0  0  0  0  0  0  0  0  0  0
  2  1  1  6
  2  3  1  0
  4  2  1  0
  4  5  1  6
  6  4  1  0
  6  7  2  0
  8  6  1  0
  9  8  1  0
 10 11  1  0
  9 10  1  1
 11 12  2  0
 12 13  1  0
 14 13  2  0
 15 14  1  0
 16 15  2  0
 16 11  1  0
 17 22  1  0
 17  9  1  0
 18 17  2  0
 20 19  1  0
 21 22  1  0
 21 20  1  1
 23 21  1  0
 24 23  2  0
 25 23  1  0
M  END
$$$$
