VFS.pdb
     RDKit          3D

 25 25  0  0  1  0  0  0  0  0999 V2000
   25.7973  -19.6003  -19.6143 C   0  0  0  0  0  0  0  0  0  0  0  0
   26.6282  -18.4716  -19.0783 C   0  0  2  0  0  0  0  0  0  0  0  0
   27.1213  -17.5959  -20.1941 C   0  0  0  0  0  0  0  0  0  0  0  0
   27.7161  -18.8912  -18.1115 C   0  0  2  0  0  0  0  0  0  0  0  0
   28.6967  -19.5977  -18.9666 N   0  0  0  0  0  0  0  0  0  0  0  0
   27.2615  -19.7502  -17.0058 C   0  0  0  0  0  0  0  0  0  0  0  0
   27.1283  -21.0040  -17.1706 O   0  0  0  0  0  0  0  0  0  0  0  0
   26.9509  -19.2759  -15.7169 N   0  0  0  0  0  0  0  0  0  0  0  0
   26.4266  -19.9673  -14.6066 C   0  0  1  0  0  0  0  0  0  0  0  0
   26.8627  -19.1917  -13.3307 C   0  0  0  0  0  0  0  0  0  0  0  0
   26.4266  -19.9064  -12.1075 C   0  0  0  0  0  0  0  0  0  0  0  0
   27.1363  -21.0147  -11.6206 C   0  0  0  0  0  0  0  0  0  0  0  0
   26.7689  -21.6552  -10.4588 C   0  0  0  0  0  0  0  0  0  0  0  0
   25.6780  -21.2182   -9.7284 C   0  0  0  0  0  0  0  0  0  0  0  0
   24.9671  -20.1363  -10.1895 C   0  0  0  0  0  0  0  0  0  0  0  0
   25.3475  -19.5028  -11.3621 C   0  0  0  0  0  0  0  0  0  0  0  0
   25.0204  -20.2455  -14.5309 C   0  0  0  0  0  0  0  0  0  0  0  0
   24.2234  -19.2572  -14.6135 O   0  0  0  0  0  0  0  0  0  0  0  0
   21.2249  -23.2281  -14.8163 O   0  0  0  0  0  0  0  0  0  0  0  0
   22.6017  -23.0868  -14.7283 C   0  0  0  0  0  0  0  0  0  0  0  0
   22.9889  -21.6314  -14.4185 C   0  0  2  0  0  0  0  0  0  0  0  0
   24.4368  -21.5241  -14.3808 N   0  0  0  0  0  0  0  0  0  0  0  0
   22.3376  -21.1898  -13.1866 C   0  0  0  0  0  0  0  0  0  0  0  0
   21.1025  -20.9899  -13.1562 O   0  0  0  0  0  0  0  0  0  0  0  0
   23.0575  -20.9976  -12.0389 O   0  0  0  0  0  0  0  0  0  0  0  0
  2  1  1  6
  2  3  1  0
  4  2  1  0
  4  5  1  6
  6  4  1  0
  6  7  2  0
  8  6  1  0
  9  8  1  0
 10 11  1  0
  9 10  1  1
 11 12  2  0
 12 13  1  0
 14 13  2  0
 15 14  1  0
 16 15  2  0
 16 11  1  0
 17 22  1  0
 17  9  1  0
 18 17  2  0
 20 19  1  0
 21 22  1  0
 21 20  1  1
 23 21  1  0
 24 23  2  0
 25 23  1  0
M  END
$$$$
