VFS.pdb
     RDKit          3D

 25 25  0  0  1  0  0  0  0  0999 V2000
   25.1071  -18.8235  -18.5542 C   0  0  0  0  0  0  0  0  0  0  0  0
   26.0728  -19.9382  -18.8314 C   0  0  2  0  0  0  0  0  0  0  0  0
   25.3474  -21.1703  -19.2901 C   0  0  0  0  0  0  0  0  0  0  0  0
   27.0709  -20.2002  -17.7225 C   0  0  2  0  0  0  0  0  0  0  0  0
   28.0736  -21.0898  -18.3514 N   0  0  0  0  0  0  0  0  0  0  0  0
   26.5017  -20.8154  -16.5124 C   0  0  0  0  0  0  0  0  0  0  0  0
   26.1985  -22.0502  -16.4934 O   0  0  0  0  0  0  0  0  0  0  0  0
   26.2571  -20.1168  -15.3145 N   0  0  0  0  0  0  0  0  0  0  0  0
   25.6370  -20.5563  -14.1279 C   0  0  1  0  0  0  0  0  0  0  0  0
   26.2548  -19.7429  -12.9547 C   0  0  0  0  0  0  0  0  0  0  0  0
   25.7558  -20.2412  -11.6509 C   0  0  0  0  0  0  0  0  0  0  0  0
   24.6410  -19.6592  -11.0281 C   0  0  0  0  0  0  0  0  0  0  0  0
   24.1395  -20.1456   -9.8420 C   0  0  0  0  0  0  0  0  0  0  0  0
   24.7255  -21.2359   -9.2239 C   0  0  0  0  0  0  0  0  0  0  0  0
   25.8205  -21.8188   -9.8155 C   0  0  0  0  0  0  0  0  0  0  0  0
   26.3157  -21.3168  -11.0087 C   0  0  0  0  0  0  0  0  0  0  0  0
   24.2064  -20.5353  -14.0135 C   0  0  0  0  0  0  0  0  0  0  0  0
   23.6172  -19.4316  -14.2452 O   0  0  0  0  0  0  0  0  0  0  0  0
   21.3520  -22.5940  -15.6921 O   0  0  0  0  0  0  0  0  0  0  0  0
   21.2728  -22.6634  -14.3093 C   0  0  0  0  0  0  0  0  0  0  0  0
   21.9474  -21.4460  -13.6557 C   0  0  2  0  0  0  0  0  0  0  0  0
   23.3872  -21.6359  -13.6736 N   0  0  0  0  0  0  0  0  0  0  0  0
   21.4030  -21.2290  -12.3166 C   0  0  0  0  0  0  0  0  0  0  0  0
   22.1437  -21.2958  -11.3100 O   0  0  0  0  0  0  0  0  0  0  0  0
   20.0790  -20.9363  -12.1333 O   0  0  0  0  0  0  0  0  0  0  0  0
  2  1  1  1
  2  3  1  0
  4  2  1  0
  4  5  1  6
  6  4  1  0
  6  7  2  0
  8  6  1  0
  9  8  1  0
 10 11  1  0
  9 10  1  1
 11 12  2  0
 12 13  1  0
 14 13  2  0
 15 14  1  0
 16 15  2  0
 16 11  1  0
 17 22  1  0
 17  9  1  0
 18 17  2  0
 20 19  1  0
 21 22  1  0
 21 20  1  1
 23 21  1  0
 24 23  2  0
 25 23  1  0
M  END
$$$$
