VFS.pdb
     RDKit          3D

 25 25  0  0  1  0  0  0  0  0999 V2000
   14.1063  -22.2059    3.7332 C   0  0  0  0  0  0  0  0  0  0  0  0
   14.0455  -20.7716    3.2963 C   0  0  2  0  0  0  0  0  0  0  0  0
   12.7596  -20.4881    2.5746 C   0  0  0  0  0  0  0  0  0  0  0  0
   15.2748  -20.2828    2.5585 C   0  0  2  0  0  0  0  0  0  0  0  0
   15.1926  -20.9611    1.2450 N   0  0  0  0  0  0  0  0  0  0  0  0
   16.5532  -20.5760    3.2270 C   0  0  0  0  0  0  0  0  0  0  0  0
   17.2951  -21.5255    2.8208 O   0  0  0  0  0  0  0  0  0  0  0  0
   17.0484  -19.8543    4.3301 N   0  0  0  0  0  0  0  0  0  0  0  0
   18.1661  -20.1163    5.1473 C   0  0  1  0  0  0  0  0  0  0  0  0
   18.6108  -18.7622    5.7705 C   0  0  0  0  0  0  0  0  0  0  0  0
   19.8720  -18.9242    6.5322 C   0  0  0  0  0  0  0  0  0  0  0  0
   20.8619  -19.8278    6.1163 C   0  0  0  0  0  0  0  0  0  0  0  0
   22.0573  -19.9505    6.7879 C   0  0  0  0  0  0  0  0  0  0  0  0
   22.3208  -19.1760    7.9038 C   0  0  0  0  0  0  0  0  0  0  0  0
   21.3634  -18.2871    8.3298 C   0  0  0  0  0  0  0  0  0  0  0  0
   20.1636  -18.1760    7.6448 C   0  0  0  0  0  0  0  0  0  0  0  0
   18.0837  -21.1068    6.1829 C   0  0  0  0  0  0  0  0  0  0  0  0
   17.1840  -20.9527    7.0693 O   0  0  0  0  0  0  0  0  0  0  0  0
   19.1591  -25.4127    8.1255 O   0  0  0  0  0  0  0  0  0  0  0  0
   19.4556  -24.4606    7.1619 C   0  0  0  0  0  0  0  0  0  0  0  0
   18.6618  -23.1658    7.4022 C   0  0  2  0  0  0  0  0  0  0  0  0
   18.9090  -22.2479    6.3041 N   0  0  0  0  0  0  0  0  0  0  0  0
   18.9914  -22.6107    8.7137 C   0  0  0  0  0  0  0  0  0  0  0  0
   18.1348  -22.5814    9.6257 O   0  0  0  0  0  0  0  0  0  0  0  0
   20.2424  -22.1238    8.9785 O   0  0  0  0  0  0  0  0  0  0  0  0
  2  1  1  6
  2  3  1  0
  4  2  1  0
  4  5  1  6
  6  4  1  0
  6  7  2  0
  8  6  1  0
  9  8  1  0
 10 11  1  0
  9 10  1  1
 11 12  2  0
 12 13  1  0
 14 13  2  0
 15 14  1  0
 16 15  2  0
 16 11  1  0
 17 22  1  0
 17  9  1  0
 18 17  2  0
 20 19  1  0
 21 22  1  0
 21 20  1  6
 23 21  1  0
 24 23  2  0
 25 23  1  0
M  END
$$$$
