EMY.pdb
     RDKit          3D

 30 30  0  0  1  0  0  0  0  0999 V2000
   27.1730  -20.4137  -16.5725 N   0  0  0  0  0  0  0  0  0  0  0  0
   27.0237  -19.8986  -15.2449 C   0  0  1  0  0  0  0  0  0  0  0  0
   26.4723  -18.5051  -15.1356 C   0  0  0  0  0  0  0  0  0  0  0  0
   26.2171  -17.7727  -16.3845 C   0  0  0  0  0  0  0  0  0  0  0  0
   27.3436  -17.1708  -17.0753 C   0  0  0  0  0  0  0  0  0  0  0  0
   28.4619  -17.0446  -16.5424 O   0  0  0  0  0  0  0  0  0  0  0  0
   26.1070  -20.7717  -14.4389 C   0  0  0  0  0  0  0  0  0  0  0  0
   25.2124  -21.3813  -15.0737 O   0  0  0  0  0  0  0  0  0  0  0  0
   27.2504  -16.6888  -18.3928 O   0  0  0  0  0  0  0  0  0  0  0  0
   26.7893  -19.6880   -7.4651 C   0  0  0  0  0  0  0  0  0  0  0  0
   26.7301  -21.1980   -8.4786 S   0  0  0  0  0  0  0  0  0  0  0  0
   25.9380  -20.8042  -10.0339 C   0  0  0  0  0  0  0  0  0  0  0  0
   25.9522  -21.9943  -10.9358 C   0  0  0  0  0  0  0  0  0  0  0  0
   25.3134  -21.7775  -12.2682 C   0  0  2  0  0  0  0  0  0  0  0  0
   26.2189  -20.9157  -13.0560 N   0  0  0  0  0  0  0  0  0  0  0  0
   24.0684  -20.9819  -12.0618 C   0  0  0  0  0  0  0  0  0  0  0  0
   24.1569  -19.7700  -11.7476 O   0  0  0  0  0  0  0  0  0  0  0  0
   17.4676  -16.0963  -13.7718 O   0  0  0  0  0  0  0  0  0  0  0  0
   18.5248  -17.0051  -13.7221 C   0  0  0  0  0  0  0  0  0  0  0  0
   18.6031  -18.1029  -14.5381 C   0  0  0  0  0  0  0  0  0  0  0  0
   19.6812  -18.9431  -14.4191 C   0  0  0  0  0  0  0  0  0  0  0  0
   20.6990  -18.7432  -13.5157 C   0  0  0  0  0  0  0  0  0  0  0  0
   21.8715  -19.6168  -13.3444 C   0  0  0  0  0  0  0  0  0  0  0  0
   21.6289  -20.6775  -12.3036 C   0  0  2  0  0  0  0  0  0  0  0  0
   22.7885  -21.5626  -12.2119 N   0  0  0  0  0  0  0  0  0  0  0  0
   20.3995  -21.4635  -12.5083 C   0  0  0  0  0  0  0  0  0  0  0  0
   19.2288  -21.0524  -11.9154 O   0  0  0  0  0  0  0  0  0  0  0  0
   20.6162  -17.6345  -12.6937 C   0  0  0  0  0  0  0  0  0  0  0  0
   19.5444  -16.7805  -12.7980 C   0  0  0  0  0  0  0  0  0  0  0  0
   20.4155  -22.4866  -13.2084 O   0  0  0  0  0  0  0  0  0  0  0  0
  2  1  1  6
  2  3  1  0
  3  4  1  0
  4  5  1  0
  5  6  2  0
  7  2  1  0
  7  8  2  0
  9  5  1  0
 10 11  1  0
 11 12  1  0
 13 12  1  0
 14 13  1  1
 14 15  1  0
 15  7  1  0
 16 14  1  0
 17 16  2  0
 18 19  1  0
 19 20  2  0
 19 29  1  0
 20 21  1  0
 21 22  2  0
 22 23  1  0
 24 23  1  6
 24 25  1  0
 24 26  1  0
 25 16  1  0
 26 27  1  0
 28 22  1  0
 29 28  2  0
 30 26  2  0
M  END
$$$$
