EMY.pdb
     RDKit          3D

 30 30  0  0  1  0  0  0  0  0999 V2000
   20.7371  -12.4235  -19.0432 N   0  0  0  0  0  0  0  0  0  0  0  0
   21.8207  -11.5070  -19.2328 C   0  0  1  0  0  0  0  0  0  0  0  0
   21.5623  -10.3647  -20.1741 C   0  0  0  0  0  0  0  0  0  0  0  0
   21.4426  -10.6748  -21.6063 C   0  0  0  0  0  0  0  0  0  0  0  0
   22.6252  -11.1289  -22.3162 C   0  0  0  0  0  0  0  0  0  0  0  0
   23.6177  -10.3982  -22.4933 O   0  0  0  0  0  0  0  0  0  0  0  0
   22.2224  -10.8857  -17.9271 C   0  0  0  0  0  0  0  0  0  0  0  0
   21.3369  -10.8243  -17.0400 O   0  0  0  0  0  0  0  0  0  0  0  0
   22.7318  -12.4241  -22.8526 O   0  0  0  0  0  0  0  0  0  0  0  0
   27.6216  -11.6954  -14.1562 C   0  0  0  0  0  0  0  0  0  0  0  0
   27.2944  -12.0921  -15.9017 S   0  0  0  0  0  0  0  0  0  0  0  0
   25.5781  -11.7279  -16.2521 C   0  0  0  0  0  0  0  0  0  0  0  0
   25.3295  -10.2595  -16.1417 C   0  0  0  0  0  0  0  0  0  0  0  0
   23.9139   -9.8451  -16.3749 C   0  0  2  0  0  0  0  0  0  0  0  0
   23.5045  -10.3925  -17.6847 N   0  0  0  0  0  0  0  0  0  0  0  0
   23.8836   -8.3611  -16.5242 C   0  0  0  0  0  0  0  0  0  0  0  0
   24.2648   -7.8426  -17.6018 O   0  0  0  0  0  0  0  0  0  0  0  0
   25.0064   -5.1192  -21.7747 O   0  0  0  0  0  0  0  0  0  0  0  0
   24.3079   -5.3896  -20.5979 C   0  0  0  0  0  0  0  0  0  0  0  0
   23.6128   -6.5525  -20.3940 C   0  0  0  0  0  0  0  0  0  0  0  0
   22.9547   -6.7327  -19.2036 C   0  0  0  0  0  0  0  0  0  0  0  0
   22.9532   -5.8003  -18.1923 C   0  0  0  0  0  0  0  0  0  0  0  0
   22.2589   -5.9426  -16.9019 C   0  0  0  0  0  0  0  0  0  0  0  0
   23.2291   -6.1044  -15.7619 C   0  0  2  0  0  0  0  0  0  0  0  0
   23.4349   -7.5233  -15.4779 N   0  0  0  0  0  0  0  0  0  0  0  0
   22.8514   -5.3855  -14.5324 C   0  0  0  0  0  0  0  0  0  0  0  0
   22.8011   -4.0113  -14.5422 O   0  0  0  0  0  0  0  0  0  0  0  0
   23.6555   -4.6279  -18.4019 C   0  0  0  0  0  0  0  0  0  0  0  0
   24.3217   -4.4288  -19.5875 C   0  0  0  0  0  0  0  0  0  0  0  0
   22.5800   -6.0097  -13.4961 O   0  0  0  0  0  0  0  0  0  0  0  0
  2  1  1  1
  2  3  1  0
  3  4  1  0
  4  5  1  0
  5  6  2  0
  7  2  1  0
  7  8  2  0
  9  5  1  0
 10 11  1  0
 11 12  1  0
 13 12  1  0
 14 13  1  6
 14 15  1  0
 15  7  1  0
 16 14  1  0
 17 16  2  0
 18 19  1  0
 19 20  2  0
 19 29  1  0
 20 21  1  0
 21 22  2  0
 22 23  1  0
 24 23  1  6
 24 25  1  0
 24 26  1  0
 25 16  1  0
 26 27  1  0
 28 22  1  0
 29 28  2  0
 30 26  2  0
M  END
$$$$
