EMY.pdb
     RDKit          3D

 30 30  0  0  1  0  0  0  0  0999 V2000
   26.0644  -21.9732  -17.3716 N   0  0  0  0  0  0  0  0  0  0  0  0
   26.5870  -20.8263  -16.6921 C   0  0  1  0  0  0  0  0  0  0  0  0
   27.6173  -20.0283  -17.4402 C   0  0  0  0  0  0  0  0  0  0  0  0
   28.5053  -20.7535  -18.3607 C   0  0  0  0  0  0  0  0  0  0  0  0
   29.3257  -21.8265  -17.8277 C   0  0  0  0  0  0  0  0  0  0  0  0
   29.3292  -22.1252  -16.6189 O   0  0  0  0  0  0  0  0  0  0  0  0
   25.4854  -19.8658  -16.3517 C   0  0  0  0  0  0  0  0  0  0  0  0
   25.8338  -18.7655  -15.8589 O   0  0  0  0  0  0  0  0  0  0  0  0
   30.1725  -22.6023  -18.6386 O   0  0  0  0  0  0  0  0  0  0  0  0
   21.6948  -15.2951  -19.6020 C   0  0  0  0  0  0  0  0  0  0  0  0
   21.4624  -17.0482  -19.1732 S   0  0  0  0  0  0  0  0  0  0  0  0
   22.4217  -17.4029  -17.7051 C   0  0  0  0  0  0  0  0  0  0  0  0
   22.2910  -18.8449  -17.3395 C   0  0  0  0  0  0  0  0  0  0  0  0
   23.0513  -19.2530  -16.1207 C   0  0  2  0  0  0  0  0  0  0  0  0
   24.1366  -20.1544  -16.5597 N   0  0  0  0  0  0  0  0  0  0  0  0
   22.1507  -20.0822  -15.2681 C   0  0  0  0  0  0  0  0  0  0  0  0
   21.8616  -21.2486  -15.6302 O   0  0  0  0  0  0  0  0  0  0  0  0
   26.5107  -23.2393  -12.5523 O   0  0  0  0  0  0  0  0  0  0  0  0
   25.3153  -22.5452  -12.3648 C   0  0  0  0  0  0  0  0  0  0  0  0
   25.2652  -21.2632  -11.8841 C   0  0  0  0  0  0  0  0  0  0  0  0
   24.0431  -20.6583  -11.7323 C   0  0  0  0  0  0  0  0  0  0  0  0
   22.8518  -21.2741  -12.0388 C   0  0  0  0  0  0  0  0  0  0  0  0
   21.5168  -20.6721  -11.8880 C   0  0  0  0  0  0  0  0  0  0  0  0
   20.8345  -20.4893  -13.2178 C   0  0  2  0  0  0  0  0  0  0  0  0
   21.6139  -19.5835  -14.0594 N   0  0  0  0  0  0  0  0  0  0  0  0
   19.4370  -20.0308  -13.1287 C   0  0  0  0  0  0  0  0  0  0  0  0
   18.4937  -20.8481  -12.5515 O   0  0  0  0  0  0  0  0  0  0  0  0
   22.9065  -22.5679  -12.5233 C   0  0  0  0  0  0  0  0  0  0  0  0
   24.1212  -23.1909  -12.6829 C   0  0  0  0  0  0  0  0  0  0  0  0
   19.1101  -18.9186  -13.5684 O   0  0  0  0  0  0  0  0  0  0  0  0
  2  1  1  6
  2  3  1  0
  3  4  1  0
  4  5  1  0
  5  6  2  0
  7  2  1  0
  7  8  2  0
  9  5  1  0
 10 11  1  0
 11 12  1  0
 13 12  1  0
 14 13  1  6
 14 15  1  0
 15  7  1  0
 16 14  1  0
 17 16  2  0
 18 19  1  0
 19 20  2  0
 19 29  1  0
 20 21  1  0
 21 22  2  0
 22 23  1  0
 24 23  1  1
 24 25  1  0
 24 26  1  0
 25 16  1  0
 26 27  1  0
 28 22  1  0
 29 28  2  0
 30 26  2  0
M  END
$$$$
