EMY.pdb
     RDKit          3D

 30 30  0  0  1  0  0  0  0  0999 V2000
   21.6127  -19.0878  -14.4428 N   0  0  0  0  0  0  0  0  0  0  0  0
   21.1869  -17.8301  -14.9785 C   0  0  1  0  0  0  0  0  0  0  0  0
   19.9192  -17.2631  -14.4047 C   0  0  0  0  0  0  0  0  0  0  0  0
   18.6712  -18.0021  -14.6457 C   0  0  0  0  0  0  0  0  0  0  0  0
   18.2099  -18.1516  -16.0144 C   0  0  0  0  0  0  0  0  0  0  0  0
   17.3941  -17.3663  -16.5322 O   0  0  0  0  0  0  0  0  0  0  0  0
   22.2411  -16.7825  -14.7703 C   0  0  0  0  0  0  0  0  0  0  0  0
   22.8894  -16.8455  -13.6977 O   0  0  0  0  0  0  0  0  0  0  0  0
   18.6518  -19.1926  -16.8497 O   0  0  0  0  0  0  0  0  0  0  0  0
   28.3736  -13.6900  -15.6605 C   0  0  0  0  0  0  0  0  0  0  0  0
   26.9752  -14.8544  -15.6656 S   0  0  0  0  0  0  0  0  0  0  0  0
   25.7679  -14.2826  -16.8560 C   0  0  0  0  0  0  0  0  0  0  0  0
   24.5375  -15.1260  -16.7884 C   0  0  0  0  0  0  0  0  0  0  0  0
   23.6749  -14.8803  -15.5944 C   0  0  2  0  0  0  0  0  0  0  0  0
   22.5071  -15.7789  -15.7019 N   0  0  0  0  0  0  0  0  0  0  0  0
   23.1340  -13.4933  -15.6905 C   0  0  0  0  0  0  0  0  0  0  0  0
   22.1958  -13.2519  -16.4885 O   0  0  0  0  0  0  0  0  0  0  0  0
   21.5473   -4.9516  -14.4399 O   0  0  0  0  0  0  0  0  0  0  0  0
   22.0259   -6.2538  -14.2935 C   0  0  0  0  0  0  0  0  0  0  0  0
   21.4745   -7.1572  -13.4235 C   0  0  0  0  0  0  0  0  0  0  0  0
   22.0114   -8.4174  -13.3463 C   0  0  0  0  0  0  0  0  0  0  0  0
   23.0848   -8.8292  -14.1017 C   0  0  0  0  0  0  0  0  0  0  0  0
   23.7009  -10.1653  -14.0513 C   0  0  0  0  0  0  0  0  0  0  0  0
   23.0340  -11.1227  -15.0031 C   0  0  2  0  0  0  0  0  0  0  0  0
   23.6549  -12.4420  -14.9022 N   0  0  0  0  0  0  0  0  0  0  0  0
   23.0123  -10.6727  -16.4060 C   0  0  0  0  0  0  0  0  0  0  0  0
   21.8616  -10.1237  -16.9212 O   0  0  0  0  0  0  0  0  0  0  0  0
   23.6387   -7.9145  -14.9781 C   0  0  0  0  0  0  0  0  0  0  0  0
   23.1148   -6.6472  -15.0704 C   0  0  0  0  0  0  0  0  0  0  0  0
   24.0202  -10.7856  -17.1191 O   0  0  0  0  0  0  0  0  0  0  0  0
  2  1  1  1
  2  3  1  0
  3  4  1  0
  4  5  1  0
  5  6  2  0
  7  2  1  0
  7  8  2  0
  9  5  1  0
 10 11  1  0
 11 12  1  0
 13 12  1  0
 14 13  1  6
 14 15  1  0
 15  7  1  0
 16 14  1  0
 17 16  2  0
 18 19  1  0
 19 20  2  0
 19 29  1  0
 20 21  1  0
 21 22  2  0
 22 23  1  0
 24 23  1  1
 24 25  1  0
 24 26  1  0
 25 16  1  0
 26 27  1  0
 28 22  1  0
 29 28  2  0
 30 26  2  0
M  END
$$$$
