EMY.pdb
     RDKit          3D

 30 30  0  0  1  0  0  0  0  0999 V2000
   27.2510  -24.2478  -16.4462 N   0  0  0  0  0  0  0  0  0  0  0  0
   26.9160  -22.8847  -16.1629 C   0  0  1  0  0  0  0  0  0  0  0  0
   26.3128  -22.1039  -17.2962 C   0  0  0  0  0  0  0  0  0  0  0  0
   27.2153  -21.6358  -18.3583 C   0  0  0  0  0  0  0  0  0  0  0  0
   28.4441  -20.9639  -17.9746 C   0  0  0  0  0  0  0  0  0  0  0  0
   29.3947  -21.5663  -17.4419 O   0  0  0  0  0  0  0  0  0  0  0  0
   25.9301  -22.8061  -15.0342 C   0  0  0  0  0  0  0  0  0  0  0  0
   25.0383  -23.6886  -15.0068 O   0  0  0  0  0  0  0  0  0  0  0  0
   28.6460  -19.5874  -18.1778 O   0  0  0  0  0  0  0  0  0  0  0  0
   26.7232  -20.4994   -8.6399 C   0  0  0  0  0  0  0  0  0  0  0  0
   25.4835  -19.5287   -9.5522 S   0  0  0  0  0  0  0  0  0  0  0  0
   24.6763  -20.6069  -10.7300 C   0  0  0  0  0  0  0  0  0  0  0  0
   25.5747  -20.8625  -11.8952 C   0  0  0  0  0  0  0  0  0  0  0  0
   24.9854  -21.7248  -12.9626 C   0  0  2  0  0  0  0  0  0  0  0  0
   25.9772  -21.8147  -14.0540 N   0  0  0  0  0  0  0  0  0  0  0  0
   23.8080  -21.0115  -13.5376 C   0  0  0  0  0  0  0  0  0  0  0  0
   23.9809  -19.9252  -14.1421 O   0  0  0  0  0  0  0  0  0  0  0  0
   17.5290  -24.5235  -10.6470 O   0  0  0  0  0  0  0  0  0  0  0  0
   18.2947  -23.9088  -11.6379 C   0  0  0  0  0  0  0  0  0  0  0  0
   19.4612  -24.4437  -12.1177 C   0  0  0  0  0  0  0  0  0  0  0  0
   20.1489  -23.7685  -13.0943 C   0  0  0  0  0  0  0  0  0  0  0  0
   19.7283  -22.5707  -13.6241 C   0  0  0  0  0  0  0  0  0  0  0  0
   20.4318  -21.8050  -14.6662 C   0  0  0  0  0  0  0  0  0  0  0  0
   21.4041  -20.8200  -14.0733 C   0  0  2  0  0  0  0  0  0  0  0  0
   22.4992  -21.5316  -13.4170 N   0  0  0  0  0  0  0  0  0  0  0  0
   20.7986  -19.8463  -13.1479 C   0  0  0  0  0  0  0  0  0  0  0  0
   21.2029  -19.8220  -11.8338 O   0  0  0  0  0  0  0  0  0  0  0  0
   18.5509  -22.0340  -13.1370 C   0  0  0  0  0  0  0  0  0  0  0  0
   17.8472  -22.6955  -12.1591 C   0  0  0  0  0  0  0  0  0  0  0  0
   19.9323  -19.0537  -13.5462 O   0  0  0  0  0  0  0  0  0  0  0  0
  2  1  1  6
  2  3  1  0
  3  4  1  0
  4  5  1  0
  5  6  2  0
  7  2  1  0
  7  8  2  0
  9  5  1  0
 10 11  1  0
 11 12  1  0
 13 12  1  0
 14 13  1  1
 14 15  1  0
 15  7  1  0
 16 14  1  0
 17 16  2  0
 18 19  1  0
 19 20  2  0
 19 29  1  0
 20 21  1  0
 21 22  2  0
 22 23  1  0
 24 23  1  1
 24 25  1  0
 24 26  1  0
 25 16  1  0
 26 27  1  0
 28 22  1  0
 29 28  2  0
 30 26  2  0
M  END
$$$$
