EMY.pdb
     RDKit          3D

 30 30  0  0  1  0  0  0  0  0999 V2000
   28.0000  -22.1721  -16.8836 N   0  0  0  0  0  0  0  0  0  0  0  0
   27.3990  -21.0536  -16.2218 C   0  0  1  0  0  0  0  0  0  0  0  0
   26.5689  -20.1446  -17.0834 C   0  0  0  0  0  0  0  0  0  0  0  0
   27.2008  -19.5782  -18.2841 C   0  0  0  0  0  0  0  0  0  0  0  0
   28.3744  -18.7394  -18.1170 C   0  0  0  0  0  0  0  0  0  0  0  0
   29.5132  -19.1115  -18.4562 O   0  0  0  0  0  0  0  0  0  0  0  0
   26.4957  -21.5161  -15.1163 C   0  0  0  0  0  0  0  0  0  0  0  0
   25.7940  -22.5292  -15.3530 O   0  0  0  0  0  0  0  0  0  0  0  0
   28.3066  -17.4498  -17.5612 O   0  0  0  0  0  0  0  0  0  0  0  0
   25.2283  -20.9351   -7.3563 C   0  0  0  0  0  0  0  0  0  0  0  0
   26.0882  -20.3423   -8.8464 S   0  0  0  0  0  0  0  0  0  0  0  0
   25.3672  -21.1469  -10.2727 C   0  0  0  0  0  0  0  0  0  0  0  0
   26.1268  -20.7865  -11.5068 C   0  0  0  0  0  0  0  0  0  0  0  0
   25.5907  -21.3809  -12.7676 C   0  0  2  0  0  0  0  0  0  0  0  0
   26.4182  -20.8725  -13.8811 N   0  0  0  0  0  0  0  0  0  0  0  0
   24.2212  -20.8336  -12.9928 C   0  0  0  0  0  0  0  0  0  0  0  0
   24.0843  -19.6258  -13.3054 O   0  0  0  0  0  0  0  0  0  0  0  0
   15.8794  -19.6867  -15.0814 O   0  0  0  0  0  0  0  0  0  0  0  0
   17.0863  -20.2966  -14.7387 C   0  0  0  0  0  0  0  0  0  0  0  0
   17.1976  -21.2120  -13.7253 C   0  0  0  0  0  0  0  0  0  0  0  0
   18.4263  -21.7613  -13.4588 C   0  0  0  0  0  0  0  0  0  0  0  0
   19.5657  -21.4403  -14.1596 C   0  0  0  0  0  0  0  0  0  0  0  0
   20.9060  -21.9954  -13.9090 C   0  0  0  0  0  0  0  0  0  0  0  0
   21.7631  -21.0454  -13.1152 C   0  0  2  0  0  0  0  0  0  0  0  0
   23.0716  -21.6454  -12.8615 N   0  0  0  0  0  0  0  0  0  0  0  0
   21.1571  -20.5857  -11.8533 C   0  0  0  0  0  0  0  0  0  0  0  0
   20.5353  -19.3600  -11.8101 O   0  0  0  0  0  0  0  0  0  0  0  0
   19.4493  -20.5160  -15.1811 C   0  0  0  0  0  0  0  0  0  0  0  0
   18.2270  -19.9547  -15.4639 C   0  0  0  0  0  0  0  0  0  0  0  0
   21.2043  -21.2945  -10.8372 O   0  0  0  0  0  0  0  0  0  0  0  0
  2  1  1  6
  2  3  1  0
  3  4  1  0
  4  5  1  0
  5  6  2  0
  7  2  1  0
  7  8  2  0
  9  5  1  0
 10 11  1  0
 11 12  1  0
 13 12  1  0
 14 13  1  1
 14 15  1  0
 15  7  1  0
 16 14  1  0
 17 16  2  0
 18 19  1  0
 19 20  2  0
 19 29  1  0
 20 21  1  0
 21 22  2  0
 22 23  1  0
 24 23  1  1
 24 25  1  0
 24 26  1  0
 25 16  1  0
 26 27  1  0
 28 22  1  0
 29 28  2  0
 30 26  2  0
M  END
$$$$
