NLP.pdb
     RDKit          3D

 24 24  0  0  1  0  0  0  0  0999 V2000
   20.4822  -20.8463  -15.4679 N   0  0  0  0  0  0  0  0  0  0  0  0
   21.7039  -21.2447  -16.0512 C   0  0  0  0  0  0  0  0  0  0  0  0
   21.6661  -22.2137  -16.8505 O   0  0  0  0  0  0  0  0  0  0  0  0
   22.9896  -20.5660  -15.7505 C   0  0  0  0  0  0  0  0  0  0  0  0
   22.7762  -19.6098  -14.6259 C   0  0  2  0  0  0  0  0  0  0  0  0
   22.4382  -18.3180  -15.2394 N   0  0  0  0  0  0  0  0  0  0  0  0
   23.9327  -19.3927  -13.7499 C   0  0  0  0  0  0  0  0  0  0  0  0
   24.9994  -18.8465  -14.1804 O   0  0  0  0  0  0  0  0  0  0  0  0
   25.5949  -20.8903   -8.1210 C   0  0  0  0  0  0  0  0  0  0  0  0
   25.9831  -19.8786   -9.2190 C   0  0  2  0  0  0  0  0  0  0  0  0
   26.3496  -18.5934   -8.5679 C   0  0  0  0  0  0  0  0  0  0  0  0
   24.8385  -19.8397  -10.1580 C   0  0  0  0  0  0  0  0  0  0  0  0
   25.2213  -19.7550  -11.6204 C   0  0  2  0  0  0  0  0  0  0  0  0
   23.9831  -19.7587  -12.3610 N   0  0  0  0  0  0  0  0  0  0  0  0
   26.2501  -20.7208  -12.0465 C   0  0  0  0  0  0  0  0  0  0  0  0
   25.9225  -21.9697  -11.8353 O   0  0  0  0  0  0  0  0  0  0  0  0
   27.4867  -20.5149  -12.6267 N   0  0  0  0  0  0  0  0  0  0  0  0
   27.9522  -19.3621  -13.3736 C   0  0  0  0  0  0  0  0  0  0  0  0
   29.3080  -19.1066  -12.6601 C   0  0  0  0  0  0  0  0  0  0  0  0
   29.6257  -20.4241  -11.9335 C   0  0  0  0  0  0  0  0  0  0  0  0
   28.6428  -21.3640  -12.6858 C   0  0  1  0  0  0  0  0  0  0  0  0
   28.6501  -22.7109  -12.2658 C   0  0  0  0  0  0  0  0  0  0  0  0
   29.7252  -23.5306  -12.7074 O   0  0  0  0  0  0  0  0  0  0  0  0
   27.8355  -23.2901  -11.5525 O   0  0  0  0  0  0  0  0  0  0  0  0
  2  3  2  0
  2  1  1  0
  4  2  1  0
  5  4  1  0
  5  6  1  6
  7  8  2  0
  7  5  1  0
 10  9  1  1
 10 12  1  0
 11 10  1  0
 13 12  1  1
 13 14  1  0
 14  7  1  0
 15 13  1  0
 16 15  2  0
 17 15  1  0
 17 18  1  0
 19 18  1  0
 20 19  1  0
 21 22  1  1
 21 20  1  0
 21 17  1  0
 22 23  1  0
 24 22  2  0
M  END
$$$$
