NLP.pdb
     RDKit          3D

 24 24  0  0  1  0  0  0  0  0999 V2000
   22.8512  -13.4034  -22.2217 N   0  0  0  0  0  0  0  0  0  0  0  0
   21.6168  -13.1760  -21.5769 C   0  0  0  0  0  0  0  0  0  0  0  0
   20.5958  -13.1057  -22.3063 O   0  0  0  0  0  0  0  0  0  0  0  0
   21.5026  -13.0230  -20.1046 C   0  0  0  0  0  0  0  0  0  0  0  0
   22.8675  -13.0939  -19.5072 C   0  0  2  0  0  0  0  0  0  0  0  0
   23.0952  -14.5038  -19.1613 N   0  0  0  0  0  0  0  0  0  0  0  0
   23.0681  -12.3029  -18.2883 C   0  0  0  0  0  0  0  0  0  0  0  0
   22.4209  -12.5518  -17.2203 O   0  0  0  0  0  0  0  0  0  0  0  0
   26.3958  -12.2745  -15.8109 C   0  0  0  0  0  0  0  0  0  0  0  0
   26.5264  -11.3816  -17.0621 C   0  0  2  0  0  0  0  0  0  0  0  0
   27.9674  -11.0956  -17.2892 C   0  0  0  0  0  0  0  0  0  0  0  0
   25.6517  -10.2116  -16.8188 C   0  0  0  0  0  0  0  0  0  0  0  0
   24.1686  -10.4957  -16.9282 C   0  0  2  0  0  0  0  0  0  0  0  0
   23.9853  -11.2024  -18.1727 N   0  0  0  0  0  0  0  0  0  0  0  0
   23.2975   -9.3298  -16.6949 C   0  0  0  0  0  0  0  0  0  0  0  0
   23.4504   -8.3716  -17.5726 O   0  0  0  0  0  0  0  0  0  0  0  0
   22.3582   -9.0960  -15.7093 N   0  0  0  0  0  0  0  0  0  0  0  0
   21.7316  -10.0510  -14.8155 C   0  0  0  0  0  0  0  0  0  0  0  0
   21.9368   -9.3258  -13.4573 C   0  0  0  0  0  0  0  0  0  0  0  0
   22.2276   -7.8629  -13.8315 C   0  0  0  0  0  0  0  0  0  0  0  0
   21.7185   -7.8778  -15.2998 C   0  0  1  0  0  0  0  0  0  0  0  0
   21.8374   -6.6562  -15.9956 C   0  0  0  0  0  0  0  0  0  0  0  0
   20.7930   -5.7044  -15.8345 O   0  0  0  0  0  0  0  0  0  0  0  0
   22.7418   -6.2899  -16.7411 O   0  0  0  0  0  0  0  0  0  0  0  0
  2  3  2  0
  2  1  1  0
  4  2  1  0
  5  4  1  0
  5  6  1  1
  7  8  2  0
  7  5  1  0
 10  9  1  1
 10 12  1  0
 11 10  1  0
 13 12  1  6
 13 14  1  0
 14  7  1  0
 15 13  1  0
 16 15  2  0
 17 15  1  0
 17 18  1  0
 19 18  1  0
 20 19  1  0
 21 22  1  6
 21 20  1  0
 21 17  1  0
 22 23  1  0
 24 22  2  0
M  END
$$$$
