NLP.pdb
     RDKit          3D

 24 24  0  0  1  0  0  0  0  0999 V2000
   28.8919  -19.4918  -20.2989 N   0  0  0  0  0  0  0  0  0  0  0  0
   27.9995  -18.9898  -19.3278 C   0  0  0  0  0  0  0  0  0  0  0  0
   27.9317  -17.7409  -19.2056 O   0  0  0  0  0  0  0  0  0  0  0  0
   27.1671  -19.8763  -18.4761 C   0  0  0  0  0  0  0  0  0  0  0  0
   27.4142  -19.5373  -17.0448 C   0  0  2  0  0  0  0  0  0  0  0  0
   28.8265  -19.8481  -16.7836 N   0  0  0  0  0  0  0  0  0  0  0  0
   26.6111  -20.2820  -16.0689 C   0  0  0  0  0  0  0  0  0  0  0  0
   26.0878  -21.4062  -16.3582 O   0  0  0  0  0  0  0  0  0  0  0  0
   24.8187  -20.0665  -10.3922 C   0  0  0  0  0  0  0  0  0  0  0  0
   25.4808  -21.0979  -11.3292 C   0  0  2  0  0  0  0  0  0  0  0  0
   26.3999  -21.9447  -10.5242 C   0  0  0  0  0  0  0  0  0  0  0  0
   26.0954  -20.3145  -12.4254 C   0  0  0  0  0  0  0  0  0  0  0  0
   25.5685  -20.6375  -13.8076 C   0  0  2  0  0  0  0  0  0  0  0  0
   26.3401  -19.8389  -14.7288 N   0  0  0  0  0  0  0  0  0  0  0  0
   24.1022  -20.5701  -13.9410 C   0  0  0  0  0  0  0  0  0  0  0  0
   23.5825  -19.4517  -13.5041 O   0  0  0  0  0  0  0  0  0  0  0  0
   23.2055  -21.4898  -14.4493 N   0  0  0  0  0  0  0  0  0  0  0  0
   23.4518  -22.5637  -15.3925 C   0  0  0  0  0  0  0  0  0  0  0  0
   22.7701  -23.7424  -14.6450 C   0  0  0  0  0  0  0  0  0  0  0  0
   21.8381  -23.0735  -13.6210 C   0  0  0  0  0  0  0  0  0  0  0  0
   21.7958  -21.6417  -14.2240 C   0  0  1  0  0  0  0  0  0  0  0  0
   21.0087  -20.7086  -13.5167 C   0  0  0  0  0  0  0  0  0  0  0  0
   21.4723  -20.2940  -12.2377 O   0  0  0  0  0  0  0  0  0  0  0  0
   19.9501  -20.1901  -13.8609 O   0  0  0  0  0  0  0  0  0  0  0  0
  2  3  2  0
  2  1  1  0
  4  2  1  0
  5  4  1  0
  5  6  1  1
  7  8  2  0
  7  5  1  0
 10  9  1  1
 10 12  1  0
 11 10  1  0
 13 12  1  1
 13 14  1  0
 14  7  1  0
 15 13  1  0
 16 15  2  0
 17 15  1  0
 17 18  1  0
 19 18  1  0
 20 19  1  0
 21 22  1  1
 21 20  1  0
 21 17  1  0
 22 23  1  0
 24 22  2  0
M  END
$$$$
