NLP.pdb
     RDKit          3D

 24 24  0  0  1  0  0  0  0  0999 V2000
   15.8033  -14.1779  -13.7761 N   0  0  0  0  0  0  0  0  0  0  0  0
   15.9487  -13.1261  -14.7056 C   0  0  0  0  0  0  0  0  0  0  0  0
   16.6742  -13.3457  -15.7080 O   0  0  0  0  0  0  0  0  0  0  0  0
   15.2847  -11.8098  -14.5302 C   0  0  0  0  0  0  0  0  0  0  0  0
   14.6110  -11.7853  -13.1997 C   0  0  2  0  0  0  0  0  0  0  0  0
   13.3410  -12.5057  -13.3655 N   0  0  0  0  0  0  0  0  0  0  0  0
   14.2966  -10.4530  -12.6725 C   0  0  0  0  0  0  0  0  0  0  0  0
   13.2537   -9.8217  -13.0402 O   0  0  0  0  0  0  0  0  0  0  0  0
   15.7886   -6.7639   -8.1575 C   0  0  0  0  0  0  0  0  0  0  0  0
   14.6832   -7.0282   -9.2006 C   0  0  2  0  0  0  0  0  0  0  0  0
   13.3633   -6.9364   -8.5228 C   0  0  0  0  0  0  0  0  0  0  0  0
   15.0159   -8.3299   -9.8237 C   0  0  0  0  0  0  0  0  0  0  0  0
   14.7938   -8.3913  -11.3200 C   0  0  2  0  0  0  0  0  0  0  0  0
   15.1027   -9.7436  -11.7172 N   0  0  0  0  0  0  0  0  0  0  0  0
   15.4431   -7.3121  -12.0857 C   0  0  0  0  0  0  0  0  0  0  0  0
   16.7206   -7.1812  -11.8354 O   0  0  0  0  0  0  0  0  0  0  0  0
   14.9204   -6.4320  -13.0134 N   0  0  0  0  0  0  0  0  0  0  0  0
   13.6587   -6.5144  -13.7240 C   0  0  0  0  0  0  0  0  0  0  0  0
   13.1138   -5.0813  -13.4753 C   0  0  0  0  0  0  0  0  0  0  0  0
   14.3451   -4.2571  -13.0639 C   0  0  0  0  0  0  0  0  0  0  0  0
   15.4618   -5.2188  -13.5572 C   0  0  1  0  0  0  0  0  0  0  0  0
   16.7836   -4.7792  -13.3332 C   0  0  0  0  0  0  0  0  0  0  0  0
   17.5299   -4.3406  -14.4616 O   0  0  0  0  0  0  0  0  0  0  0  0
   17.3964   -4.7207  -12.2706 O   0  0  0  0  0  0  0  0  0  0  0  0
  2  3  2  0
  2  1  1  0
  4  2  1  0
  5  4  1  0
  5  6  1  6
  7  8  2  0
  7  5  1  0
 10  9  1  1
 10 12  1  0
 11 10  1  0
 13 12  1  1
 13 14  1  0
 14  7  1  0
 15 13  1  0
 16 15  2  0
 17 15  1  0
 17 18  1  0
 19 18  1  0
 20 19  1  0
 21 22  1  1
 21 20  1  0
 21 17  1  0
 22 23  1  0
 24 22  2  0
M  END
$$$$
