NLP.pdb
     RDKit          3D

 24 24  0  0  1  0  0  0  0  0999 V2000
   26.1367  -14.5305  -16.0895 N   0  0  0  0  0  0  0  0  0  0  0  0
   25.2723  -15.4907  -16.6572 C   0  0  0  0  0  0  0  0  0  0  0  0
   24.7293  -15.1946  -17.7512 O   0  0  0  0  0  0  0  0  0  0  0  0
   25.0000  -16.7993  -16.0109 C   0  0  0  0  0  0  0  0  0  0  0  0
   26.2430  -17.2677  -15.3325 C   0  0  2  0  0  0  0  0  0  0  0  0
   27.2560  -17.4230  -16.3856 N   0  0  0  0  0  0  0  0  0  0  0  0
   26.1369  -18.5510  -14.6300 C   0  0  0  0  0  0  0  0  0  0  0  0
   26.0464  -19.6510  -15.2650 O   0  0  0  0  0  0  0  0  0  0  0  0
   25.6113  -20.4061   -8.8128 C   0  0  0  0  0  0  0  0  0  0  0  0
   25.6936  -20.9427  -10.2569 C   0  0  2  0  0  0  0  0  0  0  0  0
   26.6238  -22.1021  -10.2770 C   0  0  0  0  0  0  0  0  0  0  0  0
   26.0657  -19.7833  -11.0999 C   0  0  0  0  0  0  0  0  0  0  0  0
   25.7341  -19.9360  -12.5692 C   0  0  2  0  0  0  0  0  0  0  0  0
   26.1258  -18.6990  -13.2004 N   0  0  0  0  0  0  0  0  0  0  0  0
   24.3692  -20.4177  -12.8476 C   0  0  0  0  0  0  0  0  0  0  0  0
   23.4376  -19.7744  -12.1919 O   0  0  0  0  0  0  0  0  0  0  0  0
   23.9278  -21.4265  -13.6817 N   0  0  0  0  0  0  0  0  0  0  0  0
   24.6235  -22.0480  -14.7923 C   0  0  0  0  0  0  0  0  0  0  0  0
   24.4072  -23.5460  -14.4431 C   0  0  0  0  0  0  0  0  0  0  0  0
   23.2318  -23.5541  -13.4517 C   0  0  0  0  0  0  0  0  0  0  0  0
   22.6754  -22.1273  -13.7169 C   0  0  1  0  0  0  0  0  0  0  0  0
   21.5497  -21.7627  -12.9486 C   0  0  0  0  0  0  0  0  0  0  0  0
   20.2821  -21.7766  -13.5933 O   0  0  0  0  0  0  0  0  0  0  0  0
   21.5105  -21.4258  -11.7684 O   0  0  0  0  0  0  0  0  0  0  0  0
  2  3  2  0
  2  1  1  0
  4  2  1  0
  5  4  1  0
  5  6  1  6
  7  8  2  0
  7  5  1  0
 10  9  1  1
 10 12  1  0
 11 10  1  0
 13 12  1  1
 13 14  1  0
 14  7  1  0
 15 13  1  0
 16 15  2  0
 17 15  1  0
 17 18  1  0
 19 18  1  0
 20 19  1  0
 21 22  1  1
 21 20  1  0
 21 17  1  0
 22 23  1  0
 24 22  2  0
M  END
$$$$
