NLP.pdb
     RDKit          3D

 24 24  0  0  1  0  0  0  0  0999 V2000
   17.7982  -20.3758  -14.8793 N   0  0  0  0  0  0  0  0  0  0  0  0
   19.0674  -20.9859  -14.7890 C   0  0  0  0  0  0  0  0  0  0  0  0
   19.1131  -22.2336  -14.9320 O   0  0  0  0  0  0  0  0  0  0  0  0
   20.3084  -20.2107  -14.5370 C   0  0  0  0  0  0  0  0  0  0  0  0
   21.2460  -21.0518  -13.7381 C   0  0  2  0  0  0  0  0  0  0  0  0
   20.6392  -21.1988  -12.4079 N   0  0  0  0  0  0  0  0  0  0  0  0
   22.5914  -20.4982  -13.5503 C   0  0  0  0  0  0  0  0  0  0  0  0
   22.8675  -19.2980  -13.8741 O   0  0  0  0  0  0  0  0  0  0  0  0
   24.7694  -19.3409  -10.3173 C   0  0  0  0  0  0  0  0  0  0  0  0
   24.8486  -20.8783  -10.4176 C   0  0  2  0  0  0  0  0  0  0  0  0
   25.3930  -21.4070   -9.1393 C   0  0  0  0  0  0  0  0  0  0  0  0
   25.6356  -21.1653  -11.6390 C   0  0  0  0  0  0  0  0  0  0  0  0
   25.0227  -20.6488  -12.9235 C   0  0  2  0  0  0  0  0  0  0  0  0
   23.7020  -21.2249  -12.9988 N   0  0  0  0  0  0  0  0  0  0  0  0
   25.8763  -20.7925  -14.1165 C   0  0  0  0  0  0  0  0  0  0  0  0
   26.0216  -22.0297  -14.5166 O   0  0  0  0  0  0  0  0  0  0  0  0
   26.5352  -19.8381  -14.8670 N   0  0  0  0  0  0  0  0  0  0  0  0
   26.2604  -18.4172  -14.9618 C   0  0  0  0  0  0  0  0  0  0  0  0
   27.6889  -17.8496  -14.7383 C   0  0  0  0  0  0  0  0  0  0  0  0
   28.6312  -19.0327  -15.0160 C   0  0  0  0  0  0  0  0  0  0  0  0
   27.6425  -19.9635  -15.7720 C   0  0  1  0  0  0  0  0  0  0  0  0
   28.1755  -21.1997  -16.1942 C   0  0  0  0  0  0  0  0  0  0  0  0
   27.7259  -21.7175  -17.4402 O   0  0  0  0  0  0  0  0  0  0  0  0
   28.9961  -21.9105  -15.6203 O   0  0  0  0  0  0  0  0  0  0  0  0
  2  3  2  0
  2  1  1  0
  4  2  1  0
  5  4  1  0
  5  6  1  1
  7  8  2  0
  7  5  1  0
 10  9  1  1
 10 12  1  0
 11 10  1  0
 13 12  1  1
 13 14  1  0
 14  7  1  0
 15 13  1  0
 16 15  2  0
 17 15  1  0
 17 18  1  0
 19 18  1  0
 20 19  1  0
 21 22  1  1
 21 20  1  0
 21 17  1  0
 22 23  1  0
 24 22  2  0
M  END
$$$$
