NLP.pdb
     RDKit          3D

 24 24  0  0  1  0  0  0  0  0999 V2000
   23.1212  -20.8354  -13.9932 N   0  0  0  0  0  0  0  0  0  0  0  0
   23.5421  -20.1149  -12.8552 C   0  0  0  0  0  0  0  0  0  0  0  0
   23.4486  -18.8627  -12.9051 O   0  0  0  0  0  0  0  0  0  0  0  0
   24.0751  -20.7827  -11.6410 C   0  0  0  0  0  0  0  0  0  0  0  0
   25.5229  -20.4504  -11.5067 C   0  0  2  0  0  0  0  0  0  0  0  0
   26.2239  -21.2307  -12.5358 N   0  0  0  0  0  0  0  0  0  0  0  0
   26.1316  -20.7791  -10.2132 C   0  0  0  0  0  0  0  0  0  0  0  0
   26.4650  -21.9724   -9.9195 O   0  0  0  0  0  0  0  0  0  0  0  0
   28.4578  -17.9417   -5.3259 C   0  0  0  0  0  0  0  0  0  0  0  0
   28.1622  -19.3319   -5.9259 C   0  0  2  0  0  0  0  0  0  0  0  0
   29.4061  -20.1441   -5.8698 C   0  0  0  0  0  0  0  0  0  0  0  0
   27.5977  -19.0813   -7.2719 C   0  0  0  0  0  0  0  0  0  0  0  0
   26.8071  -20.2347   -7.8522 C   0  0  2  0  0  0  0  0  0  0  0  0
   26.4086  -19.8231   -9.1764 N   0  0  0  0  0  0  0  0  0  0  0  0
   25.7452  -20.7590   -6.9747 C   0  0  0  0  0  0  0  0  0  0  0  0
   24.7528  -19.9266   -6.7903 O   0  0  0  0  0  0  0  0  0  0  0  0
   25.6362  -21.9748   -6.3280 N   0  0  0  0  0  0  0  0  0  0  0  0
   26.4541  -23.1611   -6.4935 C   0  0  0  0  0  0  0  0  0  0  0  0
   26.7714  -23.4808   -5.0069 C   0  0  0  0  0  0  0  0  0  0  0  0
   25.7102  -22.7114   -4.2029 C   0  0  0  0  0  0  0  0  0  0  0  0
   24.6940  -22.4274   -5.3440 C   0  0  1  0  0  0  0  0  0  0  0  0
   23.5442  -21.7023   -4.9660 C   0  0  0  0  0  0  0  0  0  0  0  0
   23.7376  -20.5065   -4.2207 O   0  0  0  0  0  0  0  0  0  0  0  0
   22.3676  -21.9667   -5.1971 O   0  0  0  0  0  0  0  0  0  0  0  0
  2  3  2  0
  2  1  1  0
  4  2  1  0
  5  4  1  0
  5  6  1  6
  7  8  2  0
  7  5  1  0
 10  9  1  6
 10 12  1  0
 11 10  1  0
 13 12  1  1
 13 14  1  0
 14  7  1  0
 15 13  1  0
 16 15  2  0
 17 15  1  0
 17 18  1  0
 19 18  1  0
 20 19  1  0
 21 22  1  1
 21 20  1  0
 21 17  1  0
 22 23  1  0
 24 22  2  0
M  END
$$$$
