NLP.pdb
     RDKit          3D

 24 24  0  0  1  0  0  0  0  0999 V2000
   27.8267  -16.1221  -16.4889 N   0  0  0  0  0  0  0  0  0  0  0  0
   27.7196  -17.3913  -17.0964 C   0  0  0  0  0  0  0  0  0  0  0  0
   28.6137  -17.7072  -17.9210 O   0  0  0  0  0  0  0  0  0  0  0  0
   26.6099  -18.3296  -16.7921 C   0  0  0  0  0  0  0  0  0  0  0  0
   27.0973  -19.3504  -15.8200 C   0  0  2  0  0  0  0  0  0  0  0  0
   27.8928  -20.3130  -16.5944 N   0  0  0  0  0  0  0  0  0  0  0  0
   26.0544  -20.1050  -15.1166 C   0  0  0  0  0  0  0  0  0  0  0  0
   25.6133  -21.2101  -15.5699 O   0  0  0  0  0  0  0  0  0  0  0  0
   25.8901  -22.2689  -11.3931 C   0  0  0  0  0  0  0  0  0  0  0  0
   25.8832  -20.7399  -11.1886 C   0  0  2  0  0  0  0  0  0  0  0  0
   26.1257  -20.4553   -9.7498 C   0  0  0  0  0  0  0  0  0  0  0  0
   24.5984  -20.2613  -11.7486 C   0  0  0  0  0  0  0  0  0  0  0  0
   24.4301  -20.4921  -13.2354 C   0  0  2  0  0  0  0  0  0  0  0  0
   25.4419  -19.6932  -13.8833 N   0  0  0  0  0  0  0  0  0  0  0  0
   23.0503  -20.3419  -13.7315 C   0  0  0  0  0  0  0  0  0  0  0  0
   22.5140  -19.1802  -13.4588 O   0  0  0  0  0  0  0  0  0  0  0  0
   22.2485  -21.2235  -14.4302 N   0  0  0  0  0  0  0  0  0  0  0  0
   22.6484  -22.2781  -15.3421 C   0  0  0  0  0  0  0  0  0  0  0  0
   21.8111  -23.4576  -14.7758 C   0  0  0  0  0  0  0  0  0  0  0  0
   20.7144  -22.7914  -13.9284 C   0  0  0  0  0  0  0  0  0  0  0  0
   20.8190  -21.3435  -14.4834 C   0  0  1  0  0  0  0  0  0  0  0  0
   19.9307  -20.4087  -13.9109 C   0  0  0  0  0  0  0  0  0  0  0  0
   18.6278  -20.3117  -14.4727 O   0  0  0  0  0  0  0  0  0  0  0  0
   20.1310  -19.6464  -12.9693 O   0  0  0  0  0  0  0  0  0  0  0  0
  2  3  2  0
  2  1  1  0
  4  2  1  0
  5  4  1  0
  5  6  1  6
  7  8  2  0
  7  5  1  0
 10  9  1  1
 10 12  1  0
 11 10  1  0
 13 12  1  1
 13 14  1  0
 14  7  1  0
 15 13  1  0
 16 15  2  0
 17 15  1  0
 17 18  1  0
 19 18  1  0
 20 19  1  0
 21 22  1  1
 21 20  1  0
 21 17  1  0
 22 23  1  0
 24 22  2  0
M  END
$$$$
