NLP.pdb
     RDKit          3D

 24 24  0  0  1  0  0  0  0  0999 V2000
   17.6078  -21.1241  -13.1337 N   0  0  0  0  0  0  0  0  0  0  0  0
   18.7007  -20.7773  -13.9563 C   0  0  0  0  0  0  0  0  0  0  0  0
   18.6029  -21.0466  -15.1799 O   0  0  0  0  0  0  0  0  0  0  0  0
   19.9228  -20.1230  -13.4244 C   0  0  0  0  0  0  0  0  0  0  0  0
   21.1187  -20.8616  -13.9232 C   0  0  2  0  0  0  0  0  0  0  0  0
   21.2056  -22.0942  -13.1278 N   0  0  0  0  0  0  0  0  0  0  0  0
   22.3995  -20.1591  -13.7890 C   0  0  0  0  0  0  0  0  0  0  0  0
   22.4830  -19.0375  -13.1920 O   0  0  0  0  0  0  0  0  0  0  0  0
   25.0605  -19.8437  -11.0804 C   0  0  0  0  0  0  0  0  0  0  0  0
   25.1055  -21.1812  -11.8479 C   0  0  2  0  0  0  0  0  0  0  0  0
   25.8127  -22.1834  -11.0081 C   0  0  0  0  0  0  0  0  0  0  0  0
   25.7145  -20.8743  -13.1626 C   0  0  0  0  0  0  0  0  0  0  0  0
   24.8937  -19.9549  -14.0419 C   0  0  2  0  0  0  0  0  0  0  0  0
   23.6528  -20.6452  -14.2976 N   0  0  0  0  0  0  0  0  0  0  0  0
   25.6085  -19.4222  -15.2157 C   0  0  0  0  0  0  0  0  0  0  0  0
   25.9453  -20.3361  -16.0891 O   0  0  0  0  0  0  0  0  0  0  0  0
   25.9712  -18.1274  -15.5323 N   0  0  0  0  0  0  0  0  0  0  0  0
   25.5099  -16.8894  -14.9338 C   0  0  0  0  0  0  0  0  0  0  0  0
   26.8725  -16.1910  -14.6720 C   0  0  0  0  0  0  0  0  0  0  0  0
   27.8727  -16.9250  -15.5806 C   0  0  0  0  0  0  0  0  0  0  0  0
   26.8684  -17.6283  -16.5357 C   0  0  1  0  0  0  0  0  0  0  0  0
   27.4478  -18.4316  -17.5405 C   0  0  0  0  0  0  0  0  0  0  0  0
   27.6867  -17.8291  -18.8064 O   0  0  0  0  0  0  0  0  0  0  0  0
   27.7840  -19.6107  -17.4726 O   0  0  0  0  0  0  0  0  0  0  0  0
  2  3  2  0
  2  1  1  0
  4  2  1  0
  5  4  1  0
  5  6  1  1
  7  8  2  0
  7  5  1  0
 10  9  1  1
 10 12  1  0
 11 10  1  0
 13 12  1  6
 13 14  1  0
 14  7  1  0
 15 13  1  0
 16 15  2  0
 17 15  1  0
 17 18  1  0
 19 18  1  0
 20 19  1  0
 21 22  1  1
 21 20  1  0
 21 17  1  0
 22 23  1  0
 24 22  2  0
M  END
$$$$
