NLP.pdb
     RDKit          3D

 24 24  0  0  1  0  0  0  0  0999 V2000
   28.1949  -18.0723  -18.0510 N   0  0  0  0  0  0  0  0  0  0  0  0
   28.9388  -18.1812  -16.8568 C   0  0  0  0  0  0  0  0  0  0  0  0
   29.8760  -17.3605  -16.6908 O   0  0  0  0  0  0  0  0  0  0  0  0
   28.6474  -19.2102  -15.8271 C   0  0  0  0  0  0  0  0  0  0  0  0
   27.1821  -19.2092  -15.5485 C   0  0  2  0  0  0  0  0  0  0  0  0
   26.8808  -17.9150  -14.9214 N   0  0  0  0  0  0  0  0  0  0  0  0
   26.7084  -20.2599  -14.6410 C   0  0  0  0  0  0  0  0  0  0  0  0
   26.9707  -21.4880  -14.8514 O   0  0  0  0  0  0  0  0  0  0  0  0
   26.8896  -21.9380  -10.8504 C   0  0  0  0  0  0  0  0  0  0  0  0
   26.1719  -20.5752  -10.7631 C   0  0  2  0  0  0  0  0  0  0  0  0
   26.0986  -20.1714   -9.3343 C   0  0  0  0  0  0  0  0  0  0  0  0
   24.8805  -20.7509  -11.4663 C   0  0  0  0  0  0  0  0  0  0  0  0
   24.9987  -21.0066  -12.9539 C   0  0  2  0  0  0  0  0  0  0  0  0
   25.9267  -20.0236  -13.4583 N   0  0  0  0  0  0  0  0  0  0  0  0
   23.7127  -21.1280  -13.6639 C   0  0  0  0  0  0  0  0  0  0  0  0
   22.9554  -20.0652  -13.5714 O   0  0  0  0  0  0  0  0  0  0  0  0
   23.1917  -22.1734  -14.4015 N   0  0  0  0  0  0  0  0  0  0  0  0
   23.8898  -23.0970  -15.2751 C   0  0  0  0  0  0  0  0  0  0  0  0
   23.3262  -24.4456  -14.7492 C   0  0  0  0  0  0  0  0  0  0  0  0
   22.0504  -24.0662  -13.9792 C   0  0  0  0  0  0  0  0  0  0  0  0
   21.8391  -22.6332  -14.5424 C   0  0  1  0  0  0  0  0  0  0  0  0
   20.7181  -21.9418  -14.0366 C   0  0  0  0  0  0  0  0  0  0  0  0
   19.4307  -22.4035  -14.4269 O   0  0  0  0  0  0  0  0  0  0  0  0
   20.6982  -20.9704  -13.2856 O   0  0  0  0  0  0  0  0  0  0  0  0
  2  3  2  0
  2  1  1  0
  4  2  1  0
  5  4  1  0
  5  6  1  1
  7  8  2  0
  7  5  1  0
 10  9  1  1
 10 12  1  0
 11 10  1  0
 13 12  1  1
 13 14  1  0
 14  7  1  0
 15 13  1  0
 16 15  2  0
 17 15  1  0
 17 18  1  0
 19 18  1  0
 20 19  1  0
 21 22  1  1
 21 20  1  0
 21 17  1  0
 22 23  1  0
 24 22  2  0
M  END
$$$$
