WPG.pdb
     RDKit          3D

 26 28  0  0  1  0  0  0  0  0999 V2000
   24.3175  -19.6971  -10.7016 N   0  0  0  0  0  0  0  0  0  0  0  0
   25.6734  -20.1814  -10.9523 C   0  0  1  0  0  0  0  0  0  0  0  0
   26.0502  -21.2624   -9.9670 C   0  0  0  0  0  0  0  0  0  0  0  0
   26.0224  -20.8544   -8.5605 C   0  0  0  0  0  0  0  0  0  0  0  0
   24.8815  -20.6584   -7.8221 C   0  0  0  0  0  0  0  0  0  0  0  0
   25.2491  -20.2684   -6.5988 N   0  0  0  0  0  0  0  0  0  0  0  0
   26.5924  -20.2017   -6.5067 C   0  0  0  0  0  0  0  0  0  0  0  0
   27.4484  -19.8669   -5.4846 C   0  0  0  0  0  0  0  0  0  0  0  0
   28.8056  -19.9012   -5.6939 C   0  0  0  0  0  0  0  0  0  0  0  0
   29.3446  -20.2656   -6.9121 C   0  0  0  0  0  0  0  0  0  0  0  0
   28.4764  -20.5994   -7.9310 C   0  0  0  0  0  0  0  0  0  0  0  0
   27.0880  -20.5702   -7.7395 C   0  0  0  0  0  0  0  0  0  0  0  0
   25.8341  -20.5861  -12.3555 C   0  0  0  0  0  0  0  0  0  0  0  0
   24.9294  -21.2720  -12.8923 O   0  0  0  0  0  0  0  0  0  0  0  0
   26.9594  -20.2477  -13.1657 N   0  0  0  0  0  0  0  0  0  0  0  0
   28.0273  -19.3989  -12.6841 C   0  0  0  0  0  0  0  0  0  0  0  0
   28.5738  -18.7537  -13.9809 C   0  0  0  0  0  0  0  0  0  0  0  0
   28.4969  -19.9571  -14.9287 C   0  0  0  0  0  0  0  0  0  0  0  0
   27.2364  -20.6271  -14.5049 C   0  0  1  0  0  0  0  0  0  0  0  0
   27.3399  -22.1129  -14.6768 C   0  0  0  0  0  0  0  0  0  0  0  0
   27.4273  -22.8038  -13.6375 O   0  0  0  0  0  0  0  0  0  0  0  0
   27.3431  -22.7589  -15.9285 N   0  0  0  0  0  0  0  0  0  0  0  0
   26.1141  -23.2394  -16.5725 C   0  0  0  0  0  0  0  0  0  0  0  0
   25.5227  -24.2852  -15.6908 C   0  0  0  0  0  0  0  0  0  0  0  0
   25.8511  -25.6274  -15.8171 O   0  0  0  0  0  0  0  0  0  0  0  0
   24.6933  -23.9973  -14.7862 O   0  0  0  0  0  0  0  0  0  0  0  0
  2  1  1  6
  2  3  1  0
  4  3  1  0
  5  4  2  0
  6  5  1  0
  7  6  1  0
  7 12  2  0
  8  9  2  0
  8  7  1  0
  9 10  1  0
 10 11  2  0
 12 11  1  0
 12  4  1  0
 13 15  1  0
 13  2  1  0
 14 13  2  0
 15 19  1  0
 16 15  1  0
 17 16  1  0
 17 18  1  0
 18 19  1  0
 19 20  1  1
 20 21  2  0
 20 22  1  0
 22 23  1  0
 23 24  1  0
 24 25  1  0
 26 24  2  0
M  END
$$$$
