WPG.pdb
     RDKit          3D

 26 28  0  0  1  0  0  0  0  0999 V2000
   25.1959  -20.1015  -16.3500 N   0  0  0  0  0  0  0  0  0  0  0  0
   25.8522  -19.6297  -15.1324 C   0  0  1  0  0  0  0  0  0  0  0  0
   25.6947  -18.1354  -14.9798 C   0  0  0  0  0  0  0  0  0  0  0  0
   26.2341  -17.3403  -16.0855 C   0  0  0  0  0  0  0  0  0  0  0  0
   25.4971  -16.4944  -16.8770 C   0  0  0  0  0  0  0  0  0  0  0  0
   26.3195  -15.9687  -17.7887 N   0  0  0  0  0  0  0  0  0  0  0  0
   27.5720  -16.4392  -17.6238 C   0  0  0  0  0  0  0  0  0  0  0  0
   28.7563  -16.2088  -18.2828 C   0  0  0  0  0  0  0  0  0  0  0  0
   29.9012  -16.8446  -17.8683 C   0  0  0  0  0  0  0  0  0  0  0  0
   29.9015  -17.7179  -16.7984 C   0  0  0  0  0  0  0  0  0  0  0  0
   28.7075  -17.9420  -16.1445 C   0  0  0  0  0  0  0  0  0  0  0  0
   27.5271  -17.3045  -16.5513 C   0  0  0  0  0  0  0  0  0  0  0  0
   25.3932  -20.3896  -13.9617 C   0  0  0  0  0  0  0  0  0  0  0  0
   24.2662  -20.9418  -14.0057 O   0  0  0  0  0  0  0  0  0  0  0  0
   26.1488  -20.5510  -12.7616 N   0  0  0  0  0  0  0  0  0  0  0  0
   27.5287  -20.1293  -12.6582 C   0  0  0  0  0  0  0  0  0  0  0  0
   28.1047  -21.0775  -11.5785 C   0  0  0  0  0  0  0  0  0  0  0  0
   26.9172  -21.1284  -10.6093 C   0  0  0  0  0  0  0  0  0  0  0  0
   25.7451  -21.1242  -11.5277 C   0  0  1  0  0  0  0  0  0  0  0  0
   24.5851  -20.4055  -10.9067 C   0  0  0  0  0  0  0  0  0  0  0  0
   24.5505  -19.1612  -11.0314 O   0  0  0  0  0  0  0  0  0  0  0  0
   23.5497  -21.0501  -10.2020 N   0  0  0  0  0  0  0  0  0  0  0  0
   22.3943  -20.3255   -9.6581 C   0  0  0  0  0  0  0  0  0  0  0  0
   21.1673  -21.0761  -10.0479 C   0  0  0  0  0  0  0  0  0  0  0  0
   20.4212  -21.7976   -9.1271 O   0  0  0  0  0  0  0  0  0  0  0  0
   20.7493  -21.0902  -11.2371 O   0  0  0  0  0  0  0  0  0  0  0  0
  2  1  1  6
  2  3  1  0
  4  3  1  0
  5  4  2  0
  6  5  1  0
  7  6  1  0
  7 12  2  0
  8  9  2  0
  8  7  1  0
  9 10  1  0
 10 11  2  0
 12 11  1  0
 12  4  1  0
 13 15  1  0
 13  2  1  0
 14 13  2  0
 15 19  1  0
 16 15  1  0
 17 16  1  0
 17 18  1  0
 18 19  1  0
 19 20  1  1
 20 21  2  0
 20 22  1  0
 22 23  1  0
 23 24  1  0
 24 25  1  0
 26 24  2  0
M  END
$$$$
