WPG.pdb
     RDKit          3D

 26 28  0  0  1  0  0  0  0  0999 V2000
   24.9166  -19.0001   -9.3818 N   0  0  0  0  0  0  0  0  0  0  0  0
   26.0782  -19.8370   -9.6750 C   0  0  1  0  0  0  0  0  0  0  0  0
   26.0449  -21.1091   -8.8613 C   0  0  0  0  0  0  0  0  0  0  0  0
   26.0903  -20.9164   -7.4099 C   0  0  0  0  0  0  0  0  0  0  0  0
   25.0764  -21.2406   -6.5426 C   0  0  0  0  0  0  0  0  0  0  0  0
   25.4669  -20.8984   -5.3121 N   0  0  0  0  0  0  0  0  0  0  0  0
   26.7029  -20.3608   -5.3400 C   0  0  0  0  0  0  0  0  0  0  0  0
   27.5349  -19.8675   -4.3632 C   0  0  0  0  0  0  0  0  0  0  0  0
   28.7732  -19.3809   -4.7050 C   0  0  0  0  0  0  0  0  0  0  0  0
   29.2149  -19.3712   -6.0134 C   0  0  0  0  0  0  0  0  0  0  0  0
   28.3718  -19.8684   -6.9857 C   0  0  0  0  0  0  0  0  0  0  0  0
   27.1037  -20.3689   -6.6593 C   0  0  0  0  0  0  0  0  0  0  0  0
   26.2051  -20.0694  -11.1201 C   0  0  0  0  0  0  0  0  0  0  0  0
   25.1741  -20.0040  -11.8340 O   0  0  0  0  0  0  0  0  0  0  0  0
   27.4350  -20.3648  -11.7816 N   0  0  0  0  0  0  0  0  0  0  0  0
   28.6836  -20.4953  -11.0629 C   0  0  0  0  0  0  0  0  0  0  0  0
   29.7406  -20.0997  -12.1225 C   0  0  0  0  0  0  0  0  0  0  0  0
   29.1356  -20.7682  -13.3632 C   0  0  0  0  0  0  0  0  0  0  0  0
   27.6742  -20.5605  -13.1667 C   0  0  1  0  0  0  0  0  0  0  0  0
   26.8929  -21.7077  -13.7335 C   0  0  0  0  0  0  0  0  0  0  0  0
   26.4597  -22.5589  -12.9255 O   0  0  0  0  0  0  0  0  0  0  0  0
   26.6262  -21.8722  -15.1068 N   0  0  0  0  0  0  0  0  0  0  0  0
   26.6848  -20.7583  -16.0617 C   0  0  0  0  0  0  0  0  0  0  0  0
   25.3278  -20.6038  -16.6578 C   0  0  0  0  0  0  0  0  0  0  0  0
   24.2000  -20.3922  -15.8777 O   0  0  0  0  0  0  0  0  0  0  0  0
   25.1413  -20.6587  -17.9033 O   0  0  0  0  0  0  0  0  0  0  0  0
  2  1  1  6
  2  3  1  0
  4  3  1  0
  5  4  2  0
  6  5  1  0
  7  6  1  0
  7 12  2  0
  8  9  2  0
  8  7  1  0
  9 10  1  0
 10 11  2  0
 12 11  1  0
 12  4  1  0
 13 15  1  0
 13  2  1  0
 14 13  2  0
 15 19  1  0
 16 15  1  0
 17 16  1  0
 17 18  1  0
 18 19  1  0
 19 20  1  1
 20 21  2  0
 20 22  1  0
 22 23  1  0
 23 24  1  0
 24 25  1  0
 26 24  2  0
M  END
$$$$
