WPG.pdb
     RDKit          3D

 26 28  0  0  1  0  0  0  0  0999 V2000
   28.0873  -21.2449  -16.1353 N   0  0  0  0  0  0  0  0  0  0  0  0
   27.1871  -20.4492  -15.3033 C   0  0  1  0  0  0  0  0  0  0  0  0
   26.2843  -19.5894  -16.1560 C   0  0  0  0  0  0  0  0  0  0  0  0
   26.9296  -18.4184  -16.7544 C   0  0  0  0  0  0  0  0  0  0  0  0
   27.4524  -18.3725  -18.0232 C   0  0  0  0  0  0  0  0  0  0  0  0
   27.9776  -17.1580  -18.2045 N   0  0  0  0  0  0  0  0  0  0  0  0
   27.8178  -16.4032  -17.0990 C   0  0  0  0  0  0  0  0  0  0  0  0
   28.1671  -15.1112  -16.7852 C   0  0  0  0  0  0  0  0  0  0  0  0
   27.8545  -14.6024  -15.5481 C   0  0  0  0  0  0  0  0  0  0  0  0
   27.1927  -15.3554  -14.5981 C   0  0  0  0  0  0  0  0  0  0  0  0
   26.8472  -16.6508  -14.9235 C   0  0  0  0  0  0  0  0  0  0  0  0
   27.1573  -17.1904  -16.1796 C   0  0  0  0  0  0  0  0  0  0  0  0
   26.4584  -21.3027  -14.3551 C   0  0  0  0  0  0  0  0  0  0  0  0
   25.9969  -22.3976  -14.7615 O   0  0  0  0  0  0  0  0  0  0  0  0
   26.2373  -20.9739  -12.9839 N   0  0  0  0  0  0  0  0  0  0  0  0
   27.0636  -20.0188  -12.2784 C   0  0  0  0  0  0  0  0  0  0  0  0
   26.9657  -20.4905  -10.8071 C   0  0  0  0  0  0  0  0  0  0  0  0
   25.4840  -20.8824  -10.7522 C   0  0  0  0  0  0  0  0  0  0  0  0
   25.2545  -21.4826  -12.0955 C   0  0  1  0  0  0  0  0  0  0  0  0
   23.8556  -21.2169  -12.5650 C   0  0  0  0  0  0  0  0  0  0  0  0
   23.5516  -20.0288  -12.8121 O   0  0  0  0  0  0  0  0  0  0  0  0
   22.8831  -22.2209  -12.7392 N   0  0  0  0  0  0  0  0  0  0  0  0
   21.5945  -22.2028  -12.0356 C   0  0  0  0  0  0  0  0  0  0  0  0
   20.7559  -21.1401  -12.6586 C   0  0  0  0  0  0  0  0  0  0  0  0
   20.0338  -20.2311  -11.8986 O   0  0  0  0  0  0  0  0  0  0  0  0
   20.6635  -21.0176  -13.9098 O   0  0  0  0  0  0  0  0  0  0  0  0
  2  1  1  6
  2  3  1  0
  4  3  1  0
  5  4  2  0
  6  5  1  0
  7  6  1  0
  7 12  2  0
  8  9  2  0
  8  7  1  0
  9 10  1  0
 10 11  2  0
 12 11  1  0
 12  4  1  0
 13 15  1  0
 13  2  1  0
 14 13  2  0
 15 19  1  0
 16 15  1  0
 17 16  1  0
 17 18  1  0
 18 19  1  0
 19 20  1  6
 20 21  2  0
 20 22  1  0
 22 23  1  0
 23 24  1  0
 24 25  1  0
 26 24  2  0
M  END
$$$$
