WPG.pdb
     RDKit          3D

 26 28  0  0  1  0  0  0  0  0999 V2000
   24.7832  -19.8885  -16.4763 N   0  0  0  0  0  0  0  0  0  0  0  0
   25.6182  -19.3264  -15.4167 C   0  0  1  0  0  0  0  0  0  0  0  0
   25.2148  -17.9035  -15.1104 C   0  0  0  0  0  0  0  0  0  0  0  0
   25.3536  -16.9669  -16.2280 C   0  0  0  0  0  0  0  0  0  0  0  0
   24.3643  -16.1268  -16.6760 C   0  0  0  0  0  0  0  0  0  0  0  0
   24.8471  -15.4480  -17.7200 N   0  0  0  0  0  0  0  0  0  0  0  0
   26.1200  -15.8122  -17.9739 C   0  0  0  0  0  0  0  0  0  0  0  0
   27.0410  -15.4149  -18.9138 C   0  0  0  0  0  0  0  0  0  0  0  0
   28.2953  -15.9752  -18.9178 C   0  0  0  0  0  0  0  0  0  0  0  0
   28.6656  -16.9358  -17.9973 C   0  0  0  0  0  0  0  0  0  0  0  0
   27.7334  -17.3273  -17.0587 C   0  0  0  0  0  0  0  0  0  0  0  0
   26.4475  -16.7694  -17.0370 C   0  0  0  0  0  0  0  0  0  0  0  0
   25.6250  -20.2004  -14.2358 C   0  0  0  0  0  0  0  0  0  0  0  0
   24.5955  -20.8710  -13.9763 O   0  0  0  0  0  0  0  0  0  0  0  0
   26.7354  -20.3473  -13.3510 N   0  0  0  0  0  0  0  0  0  0  0  0
   28.0361  -19.7886  -13.6489 C   0  0  0  0  0  0  0  0  0  0  0  0
   29.0035  -20.7289  -12.8896 C   0  0  0  0  0  0  0  0  0  0  0  0
   28.1969  -20.9587  -11.6055 C   0  0  0  0  0  0  0  0  0  0  0  0
   26.7964  -21.0274  -12.1070 C   0  0  1  0  0  0  0  0  0  0  0  0
   25.8409  -20.4708  -11.0946 C   0  0  0  0  0  0  0  0  0  0  0  0
   25.7172  -19.2267  -11.0489 O   0  0  0  0  0  0  0  0  0  0  0  0
   25.0879  -21.2649  -10.2077 N   0  0  0  0  0  0  0  0  0  0  0  0
   24.2362  -20.6880   -9.1600 C   0  0  0  0  0  0  0  0  0  0  0  0
   22.8231  -20.7869   -9.6228 C   0  0  0  0  0  0  0  0  0  0  0  0
   21.7528  -20.7186   -8.7424 O   0  0  0  0  0  0  0  0  0  0  0  0
   22.5340  -20.9381  -10.8405 O   0  0  0  0  0  0  0  0  0  0  0  0
  2  1  1  6
  2  3  1  0
  4  3  1  0
  5  4  2  0
  6  5  1  0
  7  6  1  0
  7 12  2  0
  8  9  2  0
  8  7  1  0
  9 10  1  0
 10 11  2  0
 12 11  1  0
 12  4  1  0
 13 15  1  0
 13  2  1  0
 14 13  2  0
 15 19  1  0
 16 15  1  0
 17 16  1  0
 17 18  1  0
 18 19  1  0
 19 20  1  1
 20 21  2  0
 20 22  1  0
 22 23  1  0
 23 24  1  0
 24 25  1  0
 26 24  2  0
M  END
$$$$
