WPG.pdb
     RDKit          3D

 26 28  0  0  1  0  0  0  0  0999 V2000
   24.3434  -20.0529  -11.4581 N   0  0  0  0  0  0  0  0  0  0  0  0
   25.7629  -20.3060  -11.6962 C   0  0  1  0  0  0  0  0  0  0  0  0
   26.3112  -21.2891  -10.6891 C   0  0  0  0  0  0  0  0  0  0  0  0
   26.2646  -20.8386   -9.2961 C   0  0  0  0  0  0  0  0  0  0  0  0
   25.1147  -20.5636   -8.5979 C   0  0  0  0  0  0  0  0  0  0  0  0
   25.4671  -20.1564   -7.3757 N   0  0  0  0  0  0  0  0  0  0  0  0
   26.8089  -20.1546   -7.2456 C   0  0  0  0  0  0  0  0  0  0  0  0
   27.6517  -19.8330   -6.2084 C   0  0  0  0  0  0  0  0  0  0  0  0
   29.0108  -19.9418   -6.3762 C   0  0  0  0  0  0  0  0  0  0  0  0
   29.5646  -20.3689   -7.5670 C   0  0  0  0  0  0  0  0  0  0  0  0
   28.7096  -20.6887   -8.6015 C   0  0  0  0  0  0  0  0  0  0  0  0
   27.3197  -20.5841   -8.4522 C   0  0  0  0  0  0  0  0  0  0  0  0
   25.9973  -20.7042  -13.0909 C   0  0  0  0  0  0  0  0  0  0  0  0
   25.2572  -21.5819  -13.5996 O   0  0  0  0  0  0  0  0  0  0  0  0
   27.0185  -20.1543  -13.9228 N   0  0  0  0  0  0  0  0  0  0  0  0
   27.8857  -19.0870  -13.4736 C   0  0  0  0  0  0  0  0  0  0  0  0
   28.2722  -18.3719  -14.7911 C   0  0  0  0  0  0  0  0  0  0  0  0
   28.4449  -19.5865  -15.7115 C   0  0  0  0  0  0  0  0  0  0  0  0
   27.3589  -20.4983  -15.2569 C   0  0  1  0  0  0  0  0  0  0  0  0
   27.7740  -21.9320  -15.3979 C   0  0  0  0  0  0  0  0  0  0  0  0
   28.3179  -22.4696  -14.4078 O   0  0  0  0  0  0  0  0  0  0  0  0
   27.5853  -22.6913  -16.5692 N   0  0  0  0  0  0  0  0  0  0  0  0
   27.1049  -24.0785  -16.5423 C   0  0  0  0  0  0  0  0  0  0  0  0
   25.8258  -24.1272  -17.3055 C   0  0  0  0  0  0  0  0  0  0  0  0
   25.7952  -24.2941  -18.6826 O   0  0  0  0  0  0  0  0  0  0  0  0
   24.7081  -24.0186  -16.7325 O   0  0  0  0  0  0  0  0  0  0  0  0
  2  1  1  6
  2  3  1  0
  4  3  1  0
  5  4  2  0
  6  5  1  0
  7  6  1  0
  7 12  2  0
  8  9  2  0
  8  7  1  0
  9 10  1  0
 10 11  2  0
 12 11  1  0
 12  4  1  0
 13 15  1  0
 13  2  1  0
 14 13  2  0
 15 19  1  0
 16 15  1  0
 17 16  1  0
 17 18  1  0
 18 19  1  0
 19 20  1  1
 20 21  2  0
 20 22  1  0
 22 23  1  0
 23 24  1  0
 24 25  1  0
 26 24  2  0
M  END
$$$$
