WPG.pdb
     RDKit          3D

 26 28  0  0  1  0  0  0  0  0999 V2000
   16.7131  -17.4160    4.8003 N   0  0  0  0  0  0  0  0  0  0  0  0
   17.0682  -18.7405    4.2948 C   0  0  1  0  0  0  0  0  0  0  0  0
   18.2876  -18.6690    3.4065 C   0  0  0  0  0  0  0  0  0  0  0  0
   18.4799  -17.3886    2.7216 C   0  0  0  0  0  0  0  0  0  0  0  0
   17.4842  -16.4795    2.4621 C   0  0  0  0  0  0  0  0  0  0  0  0
   18.0297  -15.4537    1.8034 N   0  0  0  0  0  0  0  0  0  0  0  0
   19.3500  -15.6563    1.6212 C   0  0  0  0  0  0  0  0  0  0  0  0
   20.3402  -14.9146    1.0220 C   0  0  0  0  0  0  0  0  0  0  0  0
   21.6286  -15.3906    0.9993 C   0  0  0  0  0  0  0  0  0  0  0  0
   21.9656  -16.6042    1.5657 C   0  0  0  0  0  0  0  0  0  0  0  0
   20.9640  -17.3405    2.1641 C   0  0  0  0  0  0  0  0  0  0  0  0
   19.6424  -16.8742    2.1978 C   0  0  0  0  0  0  0  0  0  0  0  0
   17.2018  -19.7033    5.3965 C   0  0  0  0  0  0  0  0  0  0  0  0
   17.6765  -19.3066    6.4893 O   0  0  0  0  0  0  0  0  0  0  0  0
   16.8216  -21.0766    5.3142 N   0  0  0  0  0  0  0  0  0  0  0  0
   16.1264  -21.6153    4.1656 C   0  0  0  0  0  0  0  0  0  0  0  0
   15.3329  -22.8033    4.7620 C   0  0  0  0  0  0  0  0  0  0  0  0
   16.3740  -23.3501    5.7466 C   0  0  0  0  0  0  0  0  0  0  0  0
   17.0149  -22.1107    6.2667 C   0  0  1  0  0  0  0  0  0  0  0  0
   18.4621  -22.3500    6.5768 C   0  0  0  0  0  0  0  0  0  0  0  0
   19.2833  -22.1635    5.6517 O   0  0  0  0  0  0  0  0  0  0  0  0
   18.9355  -22.7667    7.8364 N   0  0  0  0  0  0  0  0  0  0  0  0
   20.3604  -22.9922    8.1094 C   0  0  0  0  0  0  0  0  0  0  0  0
   20.6037  -24.4612    8.0495 C   0  0  0  0  0  0  0  0  0  0  0  0
   21.5132  -25.0923    8.8860 O   0  0  0  0  0  0  0  0  0  0  0  0
   19.9919  -25.2011    7.2325 O   0  0  0  0  0  0  0  0  0  0  0  0
  2  1  1  1
  2  3  1  0
  4  3  1  0
  5  4  2  0
  6  5  1  0
  7  6  1  0
  7 12  2  0
  8  9  2  0
  8  7  1  0
  9 10  1  0
 10 11  2  0
 12 11  1  0
 12  4  1  0
 13 15  1  0
 13  2  1  0
 14 13  2  0
 15 19  1  0
 16 15  1  0
 17 16  1  0
 17 18  1  0
 18 19  1  0
 19 20  1  6
 20 21  2  0
 20 22  1  0
 22 23  1  0
 23 24  1  0
 24 25  1  0
 26 24  2  0
M  END
$$$$
