VQA.pdb
     RDKit          3D

 22 21  0  0  1  0  0  0  0  0999 V2000
    7.2327  -13.5484   20.9500 C   0  0  0  0  0  0  0  0  0  0  0  0
    8.5244  -13.2051   20.2067 C   0  0  2  0  0  0  0  0  0  0  0  0
    8.1918  -12.0527   19.2797 C   0  0  0  0  0  0  0  0  0  0  0  0
    8.8642  -14.4230   19.3747 C   0  0  2  0  0  0  0  0  0  0  0  0
    7.7536  -14.7163   18.5232 N   0  0  0  0  0  0  0  0  0  0  0  0
    9.2272  -15.5856   20.2471 C   0  0  0  0  0  0  0  0  0  0  0  0
    8.3488  -16.4574   20.4695 O   0  0  0  0  0  0  0  0  0  0  0  0
   11.7449  -20.6748   22.0137 N   0  0  0  0  0  0  0  0  0  0  0  0
   12.5523  -19.5776   21.5812 C   0  0  0  0  0  0  0  0  0  0  0  0
   13.0998  -19.7194   20.4420 O   0  0  0  0  0  0  0  0  0  0  0  0
   12.7358  -18.3587   22.4092 C   0  0  0  0  0  0  0  0  0  0  0  0
   12.3449  -17.1764   21.5571 C   0  0  0  0  0  0  0  0  0  0  0  0
   10.8513  -16.8826   21.6726 C   0  0  2  0  0  0  0  0  0  0  0  0
   10.4987  -15.7509   20.8289 N   0  0  0  0  0  0  0  0  0  0  0  0
   10.5122  -16.5174   23.0697 C   0  0  0  0  0  0  0  0  0  0  0  0
   11.1555  -15.6202   23.7053 O   0  0  0  0  0  0  0  0  0  0  0  0
    7.6306  -17.1045   25.3361 C   0  0  0  0  0  0  0  0  0  0  0  0
    9.1103  -16.7880   25.1583 C   0  0  2  0  0  0  0  0  0  0  0  0
    9.4555  -17.1368   23.7915 N   0  0  0  0  0  0  0  0  0  0  0  0
    9.9117  -17.5282   26.1461 C   0  0  0  0  0  0  0  0  0  0  0  0
    9.8714  -17.3339   27.3871 O   0  0  0  0  0  0  0  0  0  0  0  0
   10.7716  -18.5087   25.6773 O   0  0  0  0  0  0  0  0  0  0  0  0
  2  1  1  1
  2  3  1  0
  4  2  1  0
  4  6  1  0
  4  5  1  1
  6  7  2  0
  6 14  1  0
  9  8  1  0
  9 11  1  0
 10  9  2  0
 12 11  1  0
 13 12  1  1
 14 13  1  0
 15 19  1  0
 15 13  1  0
 16 15  2  0
 18 17  1  1
 18 19  1  0
 18 20  1  0
 20 22  1  0
 21 20  2  0
M  END
$$$$
