VQA.pdb
     RDKit          3D

 22 21  0  0  1  0  0  0  0  0999 V2000
    8.1306  -12.4171   20.8491 C   0  0  0  0  0  0  0  0  0  0  0  0
    8.0582  -12.6084   19.3335 C   0  0  2  0  0  0  0  0  0  0  0  0
    6.9973  -13.6624   19.0850 C   0  0  0  0  0  0  0  0  0  0  0  0
    9.4052  -13.1589   18.9168 C   0  0  2  0  0  0  0  0  0  0  0  0
    9.4294  -13.2711   17.4916 N   0  0  0  0  0  0  0  0  0  0  0  0
    9.6817  -14.4687   19.5895 C   0  0  0  0  0  0  0  0  0  0  0  0
    8.8439  -14.8953   20.4246 O   0  0  0  0  0  0  0  0  0  0  0  0
   13.8169  -20.6067   18.9783 N   0  0  0  0  0  0  0  0  0  0  0  0
   12.9831  -19.5203   18.5698 C   0  0  0  0  0  0  0  0  0  0  0  0
   13.0431  -19.2214   17.3351 O   0  0  0  0  0  0  0  0  0  0  0  0
   12.1088  -18.7941   19.5256 C   0  0  0  0  0  0  0  0  0  0  0  0
   11.9855  -17.3747   19.0289 C   0  0  0  0  0  0  0  0  0  0  0  0
   11.0532  -16.5573   19.9194 C   0  0  2  0  0  0  0  0  0  0  0  0
   10.8291  -15.2440   19.3346 N   0  0  0  0  0  0  0  0  0  0  0  0
   11.6743  -16.3505   21.2504 C   0  0  0  0  0  0  0  0  0  0  0  0
   12.5529  -15.4500   21.4500 O   0  0  0  0  0  0  0  0  0  0  0  0
   10.7682  -17.2418   24.7070 C   0  0  0  0  0  0  0  0  0  0  0  0
   11.8691  -16.8879   23.7150 C   0  0  2  0  0  0  0  0  0  0  0  0
   11.3363  -17.1352   22.3869 N   0  0  0  0  0  0  0  0  0  0  0  0
   13.0779  -17.6806   23.9915 C   0  0  0  0  0  0  0  0  0  0  0  0
   13.5042  -18.6098   23.2604 O   0  0  0  0  0  0  0  0  0  0  0  0
   13.7980  -17.3835   25.1376 O   0  0  0  0  0  0  0  0  0  0  0  0
  2  1  1  1
  2  3  1  0
  4  2  1  0
  4  6  1  0
  4  5  1  6
  6  7  2  0
  6 14  1  0
  9  8  1  0
  9 11  1  0
 10  9  2  0
 12 11  1  0
 13 12  1  6
 14 13  1  0
 15 19  1  0
 15 13  1  0
 16 15  2  0
 18 17  1  1
 18 19  1  0
 18 20  1  0
 20 22  1  0
 21 20  2  0
M  END
$$$$
