VQA.pdb
     RDKit          3D

 22 21  0  0  1  0  0  0  0  0999 V2000
    7.6818  -13.6456   20.4745 C   0  0  0  0  0  0  0  0  0  0  0  0
    8.8068  -12.9477   19.7090 C   0  0  2  0  0  0  0  0  0  0  0  0
    8.2160  -11.6671   19.1527 C   0  0  0  0  0  0  0  0  0  0  0  0
    9.1618  -13.8654   18.5589 C   0  0  2  0  0  0  0  0  0  0  0  0
    7.9671  -14.1701   17.8347 N   0  0  0  0  0  0  0  0  0  0  0  0
    9.8526  -15.1005   19.0505 C   0  0  0  0  0  0  0  0  0  0  0  0
    9.1904  -16.1680   19.1069 O   0  0  0  0  0  0  0  0  0  0  0  0
   14.1549  -19.2015   18.2462 N   0  0  0  0  0  0  0  0  0  0  0  0
   13.0600  -18.3566   17.8856 C   0  0  0  0  0  0  0  0  0  0  0  0
   11.9947  -18.9611   17.5432 O   0  0  0  0  0  0  0  0  0  0  0  0
   13.1647  -16.8756   17.9110 C   0  0  0  0  0  0  0  0  0  0  0  0
   13.2488  -16.4581   19.3585 C   0  0  0  0  0  0  0  0  0  0  0  0
   11.8588  -16.3152   19.9734 C   0  0  2  0  0  0  0  0  0  0  0  0
   11.2021  -15.1264   19.4516 N   0  0  0  0  0  0  0  0  0  0  0  0
   11.9683  -16.1527   21.4437 C   0  0  0  0  0  0  0  0  0  0  0  0
   12.6105  -15.1852   21.9674 O   0  0  0  0  0  0  0  0  0  0  0  0
   10.2888  -17.5743   24.4326 C   0  0  0  0  0  0  0  0  0  0  0  0
   11.5292  -16.9522   23.8035 C   0  0  2  0  0  0  0  0  0  0  0  0
   11.3700  -17.0565   22.3638 N   0  0  0  0  0  0  0  0  0  0  0  0
   12.7411  -17.6345   24.2851 C   0  0  0  0  0  0  0  0  0  0  0  0
   13.4417  -18.4163   23.5943 O   0  0  0  0  0  0  0  0  0  0  0  0
   13.1394  -17.3998   25.5915 O   0  0  0  0  0  0  0  0  0  0  0  0
  2  1  1  1
  2  3  1  0
  4  2  1  0
  4  6  1  0
  4  5  1  1
  6  7  2  0
  6 14  1  0
  9  8  1  0
  9 11  1  0
 10  9  2  0
 12 11  1  0
 13 12  1  6
 14 13  1  0
 15 19  1  0
 15 13  1  0
 16 15  2  0
 18 17  1  1
 18 19  1  0
 18 20  1  0
 20 22  1  0
 21 20  2  0
M  END
$$$$
