VQA.pdb
     RDKit          3D

 22 21  0  0  1  0  0  0  0  0999 V2000
    7.3255  -13.0980   20.3718 C   0  0  0  0  0  0  0  0  0  0  0  0
    8.5871  -13.9609   20.4226 C   0  0  2  0  0  0  0  0  0  0  0  0
    9.1840  -13.9293   19.0294 C   0  0  0  0  0  0  0  0  0  0  0  0
    8.1192  -15.3682   20.7251 C   0  0  2  0  0  0  0  0  0  0  0  0
    7.3128  -15.8234   19.6356 N   0  0  0  0  0  0  0  0  0  0  0  0
    7.3848  -15.4215   22.0299 C   0  0  0  0  0  0  0  0  0  0  0  0
    6.1465  -15.2027   22.0230 O   0  0  0  0  0  0  0  0  0  0  0  0
    7.4412  -19.3856   26.9282 N   0  0  0  0  0  0  0  0  0  0  0  0
    7.7306  -19.3551   25.5290 C   0  0  0  0  0  0  0  0  0  0  0  0
    8.3791  -20.3548   25.0844 O   0  0  0  0  0  0  0  0  0  0  0  0
    7.3013  -18.2309   24.6590 C   0  0  0  0  0  0  0  0  0  0  0  0
    7.7221  -16.9522   25.3405 C   0  0  0  0  0  0  0  0  0  0  0  0
    7.2995  -15.7297   24.5298 C   0  0  2  0  0  0  0  0  0  0  0  0
    8.0092  -15.7033   23.2600 N   0  0  0  0  0  0  0  0  0  0  0  0
    7.6523  -14.4885   25.2614 C   0  0  0  0  0  0  0  0  0  0  0  0
    8.8454  -14.0434   25.2945 O   0  0  0  0  0  0  0  0  0  0  0  0
    5.7104  -11.8250   27.0565 C   0  0  0  0  0  0  0  0  0  0  0  0
    7.0265  -12.5076   26.7054 C   0  0  2  0  0  0  0  0  0  0  0  0
    6.6931  -13.7151   25.9707 N   0  0  0  0  0  0  0  0  0  0  0  0
    7.7962  -12.7889   27.9279 C   0  0  0  0  0  0  0  0  0  0  0  0
    8.0274  -13.9400   28.3762 O   0  0  0  0  0  0  0  0  0  0  0  0
    8.3024  -11.7104   28.6358 O   0  0  0  0  0  0  0  0  0  0  0  0
  2  1  1  6
  2  3  1  0
  4  2  1  0
  4  6  1  0
  4  5  1  6
  6  7  2  0
  6 14  1  0
  9  8  1  0
  9 11  1  0
 10  9  2  0
 12 11  1  0
 13 12  1  1
 14 13  1  0
 15 19  1  0
 15 13  1  0
 16 15  2  0
 18 17  1  1
 18 19  1  0
 18 20  1  0
 20 22  1  0
 21 20  2  0
M  END
$$$$
