VQA.pdb
     RDKit          3D

 22 21  0  0  1  0  0  0  0  0999 V2000
    6.7951  -14.5126   19.3304 C   0  0  0  0  0  0  0  0  0  0  0  0
    7.5062  -13.2293   19.7621 C   0  0  2  0  0  0  0  0  0  0  0  0
    8.0831  -12.6147   18.5021 C   0  0  0  0  0  0  0  0  0  0  0  0
    8.6429  -13.6637   20.6621 C   0  0  2  0  0  0  0  0  0  0  0  0
    9.4336  -14.6281   19.9627 N   0  0  0  0  0  0  0  0  0  0  0  0
    8.1247  -14.1971   21.9627 C   0  0  0  0  0  0  0  0  0  0  0  0
    7.2664  -13.5185   22.5824 O   0  0  0  0  0  0  0  0  0  0  0  0
    9.5635  -19.8267   24.3865 N   0  0  0  0  0  0  0  0  0  0  0  0
    9.4393  -19.3576   23.0421 C   0  0  0  0  0  0  0  0  0  0  0  0
    9.7765  -20.1895   22.1412 O   0  0  0  0  0  0  0  0  0  0  0  0
    8.9498  -17.9920   22.7252 C   0  0  0  0  0  0  0  0  0  0  0  0
    8.5657  -17.3405   24.0308 C   0  0  0  0  0  0  0  0  0  0  0  0
    8.0837  -15.9085   23.8124 C   0  0  2  0  0  0  0  0  0  0  0  0
    8.5491  -15.4164   22.5247 N   0  0  0  0  0  0  0  0  0  0  0  0
    8.6459  -15.0185   24.8574 C   0  0  0  0  0  0  0  0  0  0  0  0
    9.9017  -14.8983   25.0340 O   0  0  0  0  0  0  0  0  0  0  0  0
    7.2683  -12.4481   27.2025 C   0  0  0  0  0  0  0  0  0  0  0  0
    8.3629  -13.4315   26.8072 C   0  0  2  0  0  0  0  0  0  0  0  0
    7.8309  -14.2441   25.7277 N   0  0  0  0  0  0  0  0  0  0  0  0
    8.7673  -14.2378   27.9701 C   0  0  0  0  0  0  0  0  0  0  0  0
    8.5542  -15.4704   28.0922 O   0  0  0  0  0  0  0  0  0  0  0  0
    9.4293  -13.5951   29.0040 O   0  0  0  0  0  0  0  0  0  0  0  0
  2  1  1  6
  2  3  1  0
  4  2  1  0
  4  6  1  0
  4  5  1  6
  6  7  2  0
  6 14  1  0
  9  8  1  0
  9 11  1  0
 10  9  2  0
 12 11  1  0
 13 12  1  1
 14 13  1  0
 15 19  1  0
 15 13  1  0
 16 15  2  0
 18 17  1  1
 18 19  1  0
 18 20  1  0
 20 22  1  0
 21 20  2  0
M  END
$$$$
