VQA.pdb
     RDKit          3D

 22 21  0  0  1  0  0  0  0  0999 V2000
    7.3523  -12.3277   19.4020 C   0  0  0  0  0  0  0  0  0  0  0  0
    7.7583  -13.6080   20.1332 C   0  0  2  0  0  0  0  0  0  0  0  0
    8.8646  -13.2199   21.0944 C   0  0  0  0  0  0  0  0  0  0  0  0
    8.3265  -14.5307   19.0765 C   0  0  2  0  0  0  0  0  0  0  0  0
    7.2852  -14.8618   18.1543 N   0  0  0  0  0  0  0  0  0  0  0  0
    8.9359  -15.7496   19.6989 C   0  0  0  0  0  0  0  0  0  0  0  0
    8.1681  -16.6757   20.0652 O   0  0  0  0  0  0  0  0  0  0  0  0
   14.5377  -17.9997   18.4346 N   0  0  0  0  0  0  0  0  0  0  0  0
   14.1153  -18.8991   19.4618 C   0  0  0  0  0  0  0  0  0  0  0  0
   14.9015  -19.8721   19.6916 O   0  0  0  0  0  0  0  0  0  0  0  0
   12.8450  -18.7060   20.2062 C   0  0  0  0  0  0  0  0  0  0  0  0
   12.2669  -17.3830   19.7681 C   0  0  0  0  0  0  0  0  0  0  0  0
   10.9175  -17.1230   20.4332 C   0  0  2  0  0  0  0  0  0  0  0  0
   10.3211  -15.9104   19.8940 N   0  0  0  0  0  0  0  0  0  0  0  0
   11.1010  -16.9174   21.8907 C   0  0  0  0  0  0  0  0  0  0  0  0
   11.7127  -15.9010   22.3547 O   0  0  0  0  0  0  0  0  0  0  0  0
    9.6789  -18.4068   24.9886 C   0  0  0  0  0  0  0  0  0  0  0  0
   10.8083  -17.6580   24.2920 C   0  0  2  0  0  0  0  0  0  0  0  0
   10.6119  -17.8315   22.8636 N   0  0  0  0  0  0  0  0  0  0  0  0
   12.1125  -18.1675   24.7453 C   0  0  0  0  0  0  0  0  0  0  0  0
   12.5959  -17.9729   25.8890 O   0  0  0  0  0  0  0  0  0  0  0  0
   12.8618  -18.9141   23.8500 O   0  0  0  0  0  0  0  0  0  0  0  0
  2  1  1  6
  2  3  1  0
  4  2  1  0
  4  6  1  0
  4  5  1  6
  6  7  2  0
  6 14  1  0
  9  8  1  0
  9 11  1  0
 10  9  2  0
 12 11  1  0
 13 12  1  6
 14 13  1  0
 15 19  1  0
 15 13  1  0
 16 15  2  0
 18 17  1  1
 18 19  1  0
 18 20  1  0
 20 22  1  0
 21 20  2  0
M  END
$$$$
