VQA.pdb
     RDKit          3D

 22 21  0  0  1  0  0  0  0  0999 V2000
    7.6624  -12.1368   18.8571 C   0  0  0  0  0  0  0  0  0  0  0  0
    7.6716  -13.3660   19.7668 C   0  0  2  0  0  0  0  0  0  0  0  0
    8.3786  -12.9501   21.0417 C   0  0  0  0  0  0  0  0  0  0  0  0
    8.5111  -14.4058   19.0560 C   0  0  2  0  0  0  0  0  0  0  0  0
    7.8847  -14.7219   17.8101 N   0  0  0  0  0  0  0  0  0  0  0  0
    8.7030  -15.6192   19.9135 C   0  0  0  0  0  0  0  0  0  0  0  0
    7.8391  -16.5310   19.8530 O   0  0  0  0  0  0  0  0  0  0  0  0
   12.3536  -19.9349   19.8867 N   0  0  0  0  0  0  0  0  0  0  0  0
   12.9283  -18.6360   20.0452 C   0  0  0  0  0  0  0  0  0  0  0  0
   14.1313  -18.5201   19.6490 O   0  0  0  0  0  0  0  0  0  0  0  0
   12.1685  -17.5034   20.6325 C   0  0  0  0  0  0  0  0  0  0  0  0
   10.7892  -18.0159   20.9665 C   0  0  0  0  0  0  0  0  0  0  0  0
    9.9534  -16.9412   21.6573 C   0  0  2  0  0  0  0  0  0  0  0  0
    9.7985  -15.7899   20.7813 N   0  0  0  0  0  0  0  0  0  0  0  0
   10.6410  -16.4749   22.8861 C   0  0  0  0  0  0  0  0  0  0  0  0
   11.2359  -15.3497   22.9380 O   0  0  0  0  0  0  0  0  0  0  0  0
    9.6341  -15.6306   25.5003 C   0  0  0  0  0  0  0  0  0  0  0  0
   10.7585  -16.6545   25.4069 C   0  0  2  0  0  0  0  0  0  0  0  0
   10.6844  -17.2433   24.0815 N   0  0  0  0  0  0  0  0  0  0  0  0
   10.6235  -17.6578   26.4752 C   0  0  0  0  0  0  0  0  0  0  0  0
   10.7678  -17.4187   27.7006 O   0  0  0  0  0  0  0  0  0  0  0  0
   10.3160  -18.9577   26.1065 O   0  0  0  0  0  0  0  0  0  0  0  0
  2  1  1  6
  2  3  1  0
  4  2  1  0
  4  6  1  0
  4  5  1  6
  6  7  2  0
  6 14  1  0
  9  8  1  0
  9 11  1  0
 10  9  2  0
 12 11  1  0
 13 12  1  6
 14 13  1  0
 15 19  1  0
 15 13  1  0
 16 15  2  0
 18 17  1  6
 18 19  1  0
 18 20  1  0
 20 22  1  0
 21 20  2  0
M  END
$$$$
