VQA.pdb
     RDKit          3D

 22 21  0  0  1  0  0  0  0  0999 V2000
    7.3873  -12.5660   20.5993 C   0  0  0  0  0  0  0  0  0  0  0  0
    8.4423  -13.2431   19.7234 C   0  0  2  0  0  0  0  0  0  0  0  0
    7.8245  -13.3929   18.3472 C   0  0  0  0  0  0  0  0  0  0  0  0
    8.6589  -14.6183   20.3174 C   0  0  2  0  0  0  0  0  0  0  0  0
    7.5203  -15.4287   20.0151 N   0  0  0  0  0  0  0  0  0  0  0  0
    8.9138  -14.5329   21.7913 C   0  0  0  0  0  0  0  0  0  0  0  0
   10.0602  -14.1882   22.1761 O   0  0  0  0  0  0  0  0  0  0  0  0
    6.4947  -12.0509   26.1099 N   0  0  0  0  0  0  0  0  0  0  0  0
    7.1016  -13.0848   26.8880 C   0  0  0  0  0  0  0  0  0  0  0  0
    7.6245  -12.7066   27.9840 O   0  0  0  0  0  0  0  0  0  0  0  0
    7.1175  -14.5012   26.4425 C   0  0  0  0  0  0  0  0  0  0  0  0
    6.8918  -14.5032   24.9506 C   0  0  0  0  0  0  0  0  0  0  0  0
    8.1935  -14.7606   24.1957 C   0  0  2  0  0  0  0  0  0  0  0  0
    7.9373  -14.8184   22.7647 N   0  0  0  0  0  0  0  0  0  0  0  0
    8.7635  -16.0696   24.5980 C   0  0  0  0  0  0  0  0  0  0  0  0
    8.1049  -17.1539   24.4826 O   0  0  0  0  0  0  0  0  0  0  0  0
   12.0518  -17.5345   24.9528 C   0  0  0  0  0  0  0  0  0  0  0  0
   10.6441  -17.4801   25.5330 C   0  0  2  0  0  0  0  0  0  0  0  0
   10.0726  -16.2056   25.1357 N   0  0  0  0  0  0  0  0  0  0  0  0
   10.6892  -17.6437   26.9949 C   0  0  0  0  0  0  0  0  0  0  0  0
   11.1610  -18.6474   27.5861 O   0  0  0  0  0  0  0  0  0  0  0  0
   10.1761  -16.6207   27.7763 O   0  0  0  0  0  0  0  0  0  0  0  0
  2  1  1  1
  2  3  1  0
  4  2  1  0
  4  6  1  0
  4  5  1  1
  6  7  2  0
  6 14  1  0
  9  8  1  0
  9 11  1  0
 10  9  2  0
 12 11  1  0
 13 12  1  1
 14 13  1  0
 15 19  1  0
 15 13  1  0
 16 15  2  0
 18 17  1  1
 18 19  1  0
 18 20  1  0
 20 22  1  0
 21 20  2  0
M  END
$$$$
