VQA.pdb
     RDKit          3D

 22 21  0  0  1  0  0  0  0  0999 V2000
    7.9978  -13.3268   19.2712 C   0  0  0  0  0  0  0  0  0  0  0  0
    7.4435  -13.5842   20.6731 C   0  0  2  0  0  0  0  0  0  0  0  0
    8.3665  -12.8654   21.6372 C   0  0  0  0  0  0  0  0  0  0  0  0
    7.5597  -15.0760   20.9012 C   0  0  2  0  0  0  0  0  0  0  0  0
    6.7288  -15.7474   19.9508 N   0  0  0  0  0  0  0  0  0  0  0  0
    7.2034  -15.4332   22.3119 C   0  0  0  0  0  0  0  0  0  0  0  0
    6.0525  -15.1403   22.7255 O   0  0  0  0  0  0  0  0  0  0  0  0
    7.0630  -20.2415   26.4835 N   0  0  0  0  0  0  0  0  0  0  0  0
    6.8141  -19.8801   25.1233 C   0  0  0  0  0  0  0  0  0  0  0  0
    6.7666  -20.8498   24.3016 O   0  0  0  0  0  0  0  0  0  0  0  0
    6.6248  -18.4682   24.7041 C   0  0  0  0  0  0  0  0  0  0  0  0
    7.9201  -17.7437   24.9757 C   0  0  0  0  0  0  0  0  0  0  0  0
    7.8124  -16.2651   24.6117 C   0  0  2  0  0  0  0  0  0  0  0  0
    8.0895  -16.0784   23.1956 N   0  0  0  0  0  0  0  0  0  0  0  0
    8.8191  -15.4812   25.3682 C   0  0  0  0  0  0  0  0  0  0  0  0
   10.0606  -15.5317   25.0871 O   0  0  0  0  0  0  0  0  0  0  0  0
    8.7540  -12.6947   27.8312 C   0  0  0  0  0  0  0  0  0  0  0  0
    9.4542  -13.9185   27.2537 C   0  0  2  0  0  0  0  0  0  0  0  0
    8.4732  -14.6264   26.4503 N   0  0  0  0  0  0  0  0  0  0  0  0
    9.9992  -14.7520   28.3374 C   0  0  0  0  0  0  0  0  0  0  0  0
    9.5723  -15.8940   28.6424 O   0  0  0  0  0  0  0  0  0  0  0  0
   11.0571  -14.2440   29.0743 O   0  0  0  0  0  0  0  0  0  0  0  0
  2  1  1  6
  2  3  1  0
  4  2  1  0
  4  6  1  0
  4  5  1  6
  6  7  2  0
  6 14  1  0
  9  8  1  0
  9 11  1  0
 10  9  2  0
 12 11  1  0
 13 12  1  1
 14 13  1  0
 15 19  1  0
 15 13  1  0
 16 15  2  0
 18 17  1  1
 18 19  1  0
 18 20  1  0
 20 22  1  0
 21 20  2  0
M  END
$$$$
