AVR.pdb
     RDKit          3D

 24 23  0  0  1  0  0  0  0  0999 V2000
    7.0585  -18.6991   18.7618 C   0  0  0  0  0  0  0  0  0  0  0  0
    7.6548  -17.4346   18.1788 C   0  0  2  0  0  0  0  0  0  0  0  0
    8.4170  -17.8206   17.0056 N   0  0  0  0  0  0  0  0  0  0  0  0
    8.4571  -16.6731   19.1448 C   0  0  0  0  0  0  0  0  0  0  0  0
    9.6306  -17.0561   19.3862 O   0  0  0  0  0  0  0  0  0  0  0  0
    6.8934  -13.3749   21.5308 C   0  0  0  0  0  0  0  0  0  0  0  0
    8.2715  -13.4183   20.9448 C   0  0  2  0  0  0  0  0  0  0  0  0
    8.2281  -12.6600   19.6350 C   0  0  0  0  0  0  0  0  0  0  0  0
    8.8425  -14.8067   20.7640 C   0  0  2  0  0  0  0  0  0  0  0  0
    7.9738  -15.5404   19.8084 N   0  0  0  0  0  0  0  0  0  0  0  0
    8.8835  -15.5894   22.0253 C   0  0  0  0  0  0  0  0  0  0  0  0
    7.8025  -16.0713   22.5231 O   0  0  0  0  0  0  0  0  0  0  0  0
   12.4616  -20.2783   20.1132 N   0  0  0  0  0  0  0  0  0  0  0  0
   13.3790  -19.6534   21.0070 C   0  0  0  0  0  0  0  0  0  0  0  0
   14.5740  -19.3815   20.6230 N   0  0  0  0  0  0  0  0  0  0  0  0
   12.9884  -19.3159   22.3497 N   0  0  0  0  0  0  0  0  0  0  0  0
   11.8110  -19.9096   22.9552 C   0  0  0  0  0  0  0  0  0  0  0  0
   10.7186  -18.8270   22.9281 C   0  0  0  0  0  0  0  0  0  0  0  0
   10.9959  -17.7822   23.9706 C   0  0  0  0  0  0  0  0  0  0  0  0
    9.9844  -16.6952   24.0109 C   0  0  2  0  0  0  0  0  0  0  0  0
   10.0398  -15.8823   22.7798 N   0  0  0  0  0  0  0  0  0  0  0  0
   10.2372  -15.7850   25.1343 C   0  0  0  0  0  0  0  0  0  0  0  0
    9.8342  -16.1168   26.4114 O   0  0  0  0  0  0  0  0  0  0  0  0
   10.8221  -14.6851   24.9595 O   0  0  0  0  0  0  0  0  0  0  0  0
  2  1  1  1
  2  3  1  0
  4  2  1  0
  5  4  2  0
  7  6  1  6
  7  9  1  0
  7  8  1  0
  9 10  1  6
 10  4  1  0
 11 21  1  0
 11  9  1  0
 12 11  2  0
 14 13  1  0
 14 15  2  0
 16 14  1  0
 17 16  1  0
 18 17  1  0
 20 19  1  6
 19 18  1  0
 20 22  1  0
 20 21  1  0
 22 23  1  0
 24 22  2  0
M  END
$$$$
