AVR.pdb
     RDKit          3D

 24 23  0  0  1  0  0  0  0  0999 V2000
    7.2517  -18.9999   18.1641 C   0  0  0  0  0  0  0  0  0  0  0  0
    7.5826  -17.6748   17.5090 C   0  0  2  0  0  0  0  0  0  0  0  0
    8.4221  -17.9616   16.3604 N   0  0  0  0  0  0  0  0  0  0  0  0
    8.1994  -16.7110   18.4294 C   0  0  0  0  0  0  0  0  0  0  0  0
    9.4519  -16.7067   18.5449 O   0  0  0  0  0  0  0  0  0  0  0  0
    6.8514  -12.8655   19.3591 C   0  0  0  0  0  0  0  0  0  0  0  0
    7.1850  -13.7778   20.4995 C   0  0  2  0  0  0  0  0  0  0  0  0
    7.7257  -12.9170   21.6217 C   0  0  0  0  0  0  0  0  0  0  0  0
    8.1341  -14.9040   20.1569 C   0  0  2  0  0  0  0  0  0  0  0  0
    7.4555  -15.7973   19.1835 N   0  0  0  0  0  0  0  0  0  0  0  0
    8.5118  -15.7270   21.3338 C   0  0  0  0  0  0  0  0  0  0  0  0
    7.6207  -16.4058   21.9613 O   0  0  0  0  0  0  0  0  0  0  0  0
   10.7121  -23.4915   23.4057 N   0  0  0  0  0  0  0  0  0  0  0  0
   11.7386  -22.6783   23.9680 C   0  0  0  0  0  0  0  0  0  0  0  0
   12.8664  -23.1958   24.2991 N   0  0  0  0  0  0  0  0  0  0  0  0
   11.5343  -21.2696   24.1752 N   0  0  0  0  0  0  0  0  0  0  0  0
   11.4291  -20.3581   23.0511 C   0  0  0  0  0  0  0  0  0  0  0  0
   11.0090  -18.9985   23.6350 C   0  0  0  0  0  0  0  0  0  0  0  0
   10.6812  -18.0366   22.5294 C   0  0  0  0  0  0  0  0  0  0  0  0
   10.1018  -16.7543   23.0053 C   0  0  2  0  0  0  0  0  0  0  0  0
    9.8111  -15.8572   21.8695 N   0  0  0  0  0  0  0  0  0  0  0  0
   11.0446  -16.0448   23.8783 C   0  0  0  0  0  0  0  0  0  0  0  0
   11.2376  -16.4526   25.1821 O   0  0  0  0  0  0  0  0  0  0  0  0
   11.6937  -15.0514   23.4610 O   0  0  0  0  0  0  0  0  0  0  0  0
  2  1  1  1
  2  3  1  0
  4  2  1  0
  5  4  2  0
  7  6  1  6
  7  9  1  0
  7  8  1  0
  9 10  1  6
 10  4  1  0
 11 21  1  0
 11  9  1  0
 12 11  2  0
 14 13  1  0
 14 15  2  0
 16 14  1  0
 17 16  1  0
 18 17  1  0
 20 19  1  6
 19 18  1  0
 20 22  1  0
 20 21  1  0
 22 23  1  0
 24 22  2  0
M  END
$$$$
