AVR.pdb
     RDKit          3D

 24 23  0  0  1  0  0  0  0  0999 V2000
    8.3504  -19.0876   27.7231 C   0  0  0  0  0  0  0  0  0  0  0  0
    7.0202  -18.3970   27.9421 C   0  0  2  0  0  0  0  0  0  0  0  0
    5.9801  -19.3688   27.6591 N   0  0  0  0  0  0  0  0  0  0  0  0
    6.8691  -17.1666   27.1546 C   0  0  0  0  0  0  0  0  0  0  0  0
    5.7622  -16.5699   27.1780 O   0  0  0  0  0  0  0  0  0  0  0  0
    6.3491  -14.3642   27.7602 C   0  0  0  0  0  0  0  0  0  0  0  0
    7.6788  -14.3149   27.0718 C   0  0  2  0  0  0  0  0  0  0  0  0
    7.9373  -12.8717   26.6940 C   0  0  0  0  0  0  0  0  0  0  0  0
    7.8117  -15.2337   25.8783 C   0  0  2  0  0  0  0  0  0  0  0  0
    7.9021  -16.6289   26.3796 N   0  0  0  0  0  0  0  0  0  0  0  0
    9.0287  -14.9675   25.0699 C   0  0  0  0  0  0  0  0  0  0  0  0
   10.1711  -15.4078   25.4565 O   0  0  0  0  0  0  0  0  0  0  0  0
    8.7820  -12.6970   17.4840 N   0  0  0  0  0  0  0  0  0  0  0  0
    7.9934  -13.8354   17.1477 C   0  0  0  0  0  0  0  0  0  0  0  0
    8.1369  -14.4088   16.0075 N   0  0  0  0  0  0  0  0  0  0  0  0
    7.0262  -14.3631   18.0725 N   0  0  0  0  0  0  0  0  0  0  0  0
    6.9398  -13.8582   19.4301 C   0  0  0  0  0  0  0  0  0  0  0  0
    8.0397  -14.5774   20.2294 C   0  0  0  0  0  0  0  0  0  0  0  0
    8.0228  -14.1244   21.6611 C   0  0  0  0  0  0  0  0  0  0  0  0
    8.9171  -14.9121   22.5477 C   0  0  2  0  0  0  0  0  0  0  0  0
    9.0747  -14.2479   23.8566 N   0  0  0  0  0  0  0  0  0  0  0  0
   10.2595  -15.0315   21.9660 C   0  0  0  0  0  0  0  0  0  0  0  0
   10.5025  -15.9172   20.9364 O   0  0  0  0  0  0  0  0  0  0  0  0
   11.2159  -14.3345   22.3924 O   0  0  0  0  0  0  0  0  0  0  0  0
  2  1  1  6
  2  3  1  0
  4  2  1  0
  5  4  2  0
  7  6  1  6
  7  9  1  0
  7  8  1  0
  9 10  1  1
 10  4  1  0
 11 21  1  0
 11  9  1  0
 12 11  2  0
 14 13  1  0
 14 15  2  0
 16 14  1  0
 17 16  1  0
 18 17  1  0
 20 19  1  6
 19 18  1  0
 20 22  1  0
 20 21  1  0
 22 23  1  0
 24 22  2  0
M  END
$$$$
