AVR.pdb
     RDKit          3D

 24 23  0  0  1  0  0  0  0  0999 V2000
    7.4029  -18.7033   17.7861 C   0  0  0  0  0  0  0  0  0  0  0  0
    7.8794  -17.3804   17.2226 C   0  0  2  0  0  0  0  0  0  0  0  0
    8.8104  -17.6808   16.1505 N   0  0  0  0  0  0  0  0  0  0  0  0
    8.4596  -16.4927   18.2386 C   0  0  0  0  0  0  0  0  0  0  0  0
    9.7058  -16.5068   18.4083 O   0  0  0  0  0  0  0  0  0  0  0  0
    7.1225  -12.6972   19.2778 C   0  0  0  0  0  0  0  0  0  0  0  0
    7.3864  -13.6553   20.3988 C   0  0  2  0  0  0  0  0  0  0  0  0
    7.8858  -12.8447   21.5761 C   0  0  0  0  0  0  0  0  0  0  0  0
    8.3331  -14.7848   20.0608 C   0  0  2  0  0  0  0  0  0  0  0  0
    7.6874  -15.6322   19.0260 N   0  0  0  0  0  0  0  0  0  0  0  0
    8.6425  -15.6545   21.2241 C   0  0  0  0  0  0  0  0  0  0  0  0
    7.8045  -16.5506   21.6028 O   0  0  0  0  0  0  0  0  0  0  0  0
   12.7508  -21.2544   25.1112 N   0  0  0  0  0  0  0  0  0  0  0  0
   12.4557  -21.7141   23.7949 C   0  0  0  0  0  0  0  0  0  0  0  0
   12.0776  -22.9262   23.6017 N   0  0  0  0  0  0  0  0  0  0  0  0
   12.5743  -20.8357   22.6620 N   0  0  0  0  0  0  0  0  0  0  0  0
   12.7558  -19.4073   22.8417 C   0  0  0  0  0  0  0  0  0  0  0  0
   11.3798  -18.8428   23.2338 C   0  0  0  0  0  0  0  0  0  0  0  0
   10.9982  -17.7178   22.3150 C   0  0  0  0  0  0  0  0  0  0  0  0
   10.1635  -16.6739   22.9632 C   0  0  2  0  0  0  0  0  0  0  0  0
    9.8189  -15.6074   22.0024 N   0  0  0  0  0  0  0  0  0  0  0  0
   10.8880  -16.0345   24.0681 C   0  0  0  0  0  0  0  0  0  0  0  0
   11.0363  -16.6809   25.2779 O   0  0  0  0  0  0  0  0  0  0  0  0
   11.3858  -14.8865   23.9394 O   0  0  0  0  0  0  0  0  0  0  0  0
  2  1  1  1
  2  3  1  0
  4  2  1  0
  5  4  2  0
  7  6  1  6
  7  9  1  0
  7  8  1  0
  9 10  1  6
 10  4  1  0
 11 21  1  0
 11  9  1  0
 12 11  2  0
 14 13  1  0
 14 15  2  0
 16 14  1  0
 17 16  1  0
 18 17  1  0
 20 19  1  6
 19 18  1  0
 20 22  1  0
 20 21  1  0
 22 23  1  0
 24 22  2  0
M  END
$$$$
