AVR.pdb
     RDKit          3D

 24 23  0  0  1  0  0  0  0  0999 V2000
    8.0408  -18.4757   17.2448 C   0  0  0  0  0  0  0  0  0  0  0  0
    8.4989  -17.0644   16.9403 C   0  0  2  0  0  0  0  0  0  0  0  0
    9.5751  -17.1619   15.9714 N   0  0  0  0  0  0  0  0  0  0  0  0
    8.8882  -16.3099   18.1386 C   0  0  0  0  0  0  0  0  0  0  0  0
   10.1008  -16.2950   18.4722 O   0  0  0  0  0  0  0  0  0  0  0  0
    7.0197  -12.8021   19.3674 C   0  0  0  0  0  0  0  0  0  0  0  0
    7.3417  -13.8096   20.4283 C   0  0  2  0  0  0  0  0  0  0  0  0
    7.6697  -13.0434   21.6924 C   0  0  0  0  0  0  0  0  0  0  0  0
    8.4409  -14.7834   20.0682 C   0  0  2  0  0  0  0  0  0  0  0  0
    7.9698  -15.6069   18.9255 N   0  0  0  0  0  0  0  0  0  0  0  0
    8.7860  -15.7094   21.1767 C   0  0  0  0  0  0  0  0  0  0  0  0
    8.0701  -16.7527   21.3946 O   0  0  0  0  0  0  0  0  0  0  0  0
   15.1448  -22.0173   21.0756 N   0  0  0  0  0  0  0  0  0  0  0  0
   15.0505  -20.6320   21.3964 C   0  0  0  0  0  0  0  0  0  0  0  0
   16.0617  -19.8581   21.2287 N   0  0  0  0  0  0  0  0  0  0  0  0
   13.8286  -20.0747   21.9116 N   0  0  0  0  0  0  0  0  0  0  0  0
   13.6980  -18.6478   22.1405 C   0  0  0  0  0  0  0  0  0  0  0  0
   12.2851  -18.4286   22.7074 C   0  0  0  0  0  0  0  0  0  0  0  0
   11.6322  -17.2539   22.0372 C   0  0  0  0  0  0  0  0  0  0  0  0
   10.4586  -16.7211   22.7755 C   0  0  2  0  0  0  0  0  0  0  0  0
    9.8730  -15.5668   22.0656 N   0  0  0  0  0  0  0  0  0  0  0  0
   10.8486  -16.2482   24.1092 C   0  0  0  0  0  0  0  0  0  0  0  0
   11.1364  -17.1461   25.1164 O   0  0  0  0  0  0  0  0  0  0  0  0
   10.9264  -15.0190   24.3647 O   0  0  0  0  0  0  0  0  0  0  0  0
  2  1  1  1
  2  3  1  0
  4  2  1  0
  5  4  2  0
  7  6  1  6
  7  9  1  0
  7  8  1  0
  9 10  1  6
 10  4  1  0
 11 21  1  0
 11  9  1  0
 12 11  2  0
 14 13  1  0
 14 15  2  0
 16 14  1  0
 17 16  1  0
 18 17  1  0
 20 19  1  6
 19 18  1  0
 20 22  1  0
 20 21  1  0
 22 23  1  0
 24 22  2  0
M  END
$$$$
