DIP.pdb
     RDKit          3D

 24 24  0  0  1  0  0  0  0  0999 V2000
   28.1691  -18.7490  -19.7260 N   0  0  0  0  0  0  0  0  0  0  0  0
   26.8560  -19.1999  -19.3216 C   0  0  1  0  0  0  0  0  0  0  0  0
   26.1343  -19.9165  -20.4377 C   0  0  0  0  0  0  0  0  0  0  0  0
   25.9585  -19.0099  -21.6004 C   0  0  0  0  0  0  0  0  0  0  0  0
   25.6539  -17.8236  -21.4113 O   0  0  0  0  0  0  0  0  0  0  0  0
   26.9259  -20.0255  -18.0872 C   0  0  0  0  0  0  0  0  0  0  0  0
   27.9657  -20.6996  -17.8312 O   0  0  0  0  0  0  0  0  0  0  0  0
   26.1352  -19.4925  -22.8850 O   0  0  0  0  0  0  0  0  0  0  0  0
   28.2805  -19.3344  -13.1354 C   0  0  0  0  0  0  0  0  0  0  0  0
   27.2361  -20.2939  -13.7258 C   0  0  0  0  0  0  0  0  0  0  0  0
   26.9502  -19.8278  -15.1218 C   0  0  2  0  0  0  0  0  0  0  0  0
   26.3615  -18.4034  -14.9909 C   0  0  0  0  0  0  0  0  0  0  0  0
   25.9060  -20.6361  -15.8387 C   0  0  2  0  0  0  0  0  0  0  0  0
   25.8377  -20.0652  -17.1926 N   0  0  0  0  0  0  0  0  0  0  0  0
   24.5761  -20.6416  -15.2096 C   0  0  0  0  0  0  0  0  0  0  0  0
   23.8656  -19.5671  -15.3273 O   0  0  0  0  0  0  0  0  0  0  0  0
   23.9684  -21.6882  -14.4846 N   0  0  0  0  0  0  0  0  0  0  0  0
   24.7043  -22.8806  -14.0500 C   0  0  0  0  0  0  0  0  0  0  0  0
   23.6306  -23.9537  -13.9239 C   0  0  0  0  0  0  0  0  0  0  0  0
   22.4387  -23.1890  -13.4167 C   0  0  0  0  0  0  0  0  0  0  0  0
   22.6212  -21.8264  -14.0251 C   0  0  1  0  0  0  0  0  0  0  0  0
   22.2808  -20.8454  -12.9541 C   0  0  0  0  0  0  0  0  0  0  0  0
   20.9214  -20.7032  -12.6639 O   0  0  0  0  0  0  0  0  0  0  0  0
   23.0959  -20.1641  -12.3185 O   0  0  0  0  0  0  0  0  0  0  0  0
  2  1  1  6
  2  3  1  0
  3  4  1  0
  4  8  1  0
  4  5  2  0
  6  7  2  0
  6  2  1  0
  9 10  1  0
 10 11  1  0
 11 13  1  0
 11 12  1  1
 13 14  1  6
 14  6  1  0
 15 13  1  0
 16 15  2  0
 17 18  1  0
 17 15  1  0
 19 18  1  0
 20 19  1  0
 21 20  1  0
 21 17  1  0
 21 22  1  1
 23 22  1  0
 24 22  2  0
M  END
$$$$
