DIP.pdb
     RDKit          3D

 24 24  0  0  1  0  0  0  0  0999 V2000
   24.8453  -21.4284  -12.0886 N   0  0  0  0  0  0  0  0  0  0  0  0
   24.8667  -20.5118  -10.9704 C   0  0  1  0  0  0  0  0  0  0  0  0
   23.4783  -20.2059  -10.4617 C   0  0  0  0  0  0  0  0  0  0  0  0
   22.6856  -19.5211  -11.5139 C   0  0  0  0  0  0  0  0  0  0  0  0
   21.4700  -19.3460  -11.3482 O   0  0  0  0  0  0  0  0  0  0  0  0
   25.7578  -21.0038   -9.8868 C   0  0  0  0  0  0  0  0  0  0  0  0
   25.5258  -22.1153   -9.3284 O   0  0  0  0  0  0  0  0  0  0  0  0
   23.3060  -19.0832  -12.6706 O   0  0  0  0  0  0  0  0  0  0  0  0
   30.6070  -21.8281  -10.8553 C   0  0  0  0  0  0  0  0  0  0  0  0
   29.1941  -21.8441  -10.2523 C   0  0  0  0  0  0  0  0  0  0  0  0
   29.1519  -20.7749   -9.2022 C   0  0  2  0  0  0  0  0  0  0  0  0
   30.2040  -21.1698   -8.1393 C   0  0  0  0  0  0  0  0  0  0  0  0
   27.8442  -20.6850   -8.4677 C   0  0  2  0  0  0  0  0  0  0  0  0
   26.8666  -20.2391   -9.4722 N   0  0  0  0  0  0  0  0  0  0  0  0
   27.8396  -19.7856   -7.3035 C   0  0  0  0  0  0  0  0  0  0  0  0
   27.7352  -18.5181   -7.5401 O   0  0  0  0  0  0  0  0  0  0  0  0
   27.9345  -20.1372   -5.9406 N   0  0  0  0  0  0  0  0  0  0  0  0
   28.0795  -21.5259   -5.4902 C   0  0  0  0  0  0  0  0  0  0  0  0
   27.5063  -21.5201   -4.0790 C   0  0  0  0  0  0  0  0  0  0  0  0
   27.9182  -20.1749   -3.5466 C   0  0  0  0  0  0  0  0  0  0  0  0
   27.9291  -19.3084   -4.7751 C   0  0  1  0  0  0  0  0  0  0  0  0
   29.1519  -18.4601   -4.6731 C   0  0  0  0  0  0  0  0  0  0  0  0
   29.1212  -17.4563   -3.7017 O   0  0  0  0  0  0  0  0  0  0  0  0
   30.1681  -18.5781   -5.3702 O   0  0  0  0  0  0  0  0  0  0  0  0
  2  1  1  6
  2  3  1  0
  3  4  1  0
  4  8  1  0
  4  5  2  0
  6  7  2  0
  6  2  1  0
  9 10  1  0
 10 11  1  0
 11 13  1  0
 11 12  1  1
 13 14  1  6
 14  6  1  0
 15 13  1  0
 16 15  2  0
 17 18  1  0
 17 15  1  0
 19 18  1  0
 20 19  1  0
 21 20  1  0
 21 17  1  0
 21 22  1  1
 23 22  1  0
 24 22  2  0
M  END
$$$$
