DIP.pdb
     RDKit          3D

 24 24  0  0  1  0  0  0  0  0999 V2000
   16.7745  -12.3775  -15.8133 N   0  0  0  0  0  0  0  0  0  0  0  0
   17.3366  -11.1245  -16.2659 C   0  0  1  0  0  0  0  0  0  0  0  0
   16.2800  -10.0604  -16.4429 C   0  0  0  0  0  0  0  0  0  0  0  0
   15.3094  -10.4700  -17.4892 C   0  0  0  0  0  0  0  0  0  0  0  0
   15.3733  -11.6099  -17.9711 O   0  0  0  0  0  0  0  0  0  0  0  0
   18.4346  -10.6717  -15.3716 C   0  0  0  0  0  0  0  0  0  0  0  0
   18.3262  -10.7987  -14.1174 O   0  0  0  0  0  0  0  0  0  0  0  0
   14.3415   -9.5799  -17.9195 O   0  0  0  0  0  0  0  0  0  0  0  0
   24.2769  -11.0862  -15.5240 C   0  0  0  0  0  0  0  0  0  0  0  0
   23.1830  -10.2658  -14.8236 C   0  0  0  0  0  0  0  0  0  0  0  0
   21.9113  -10.4868  -15.5862 C   0  0  2  0  0  0  0  0  0  0  0  0
   22.1873  -10.0174  -17.0341 C   0  0  0  0  0  0  0  0  0  0  0  0
   20.7528   -9.6606  -15.1037 C   0  0  2  0  0  0  0  0  0  0  0  0
   19.6036  -10.0980  -15.9107 N   0  0  0  0  0  0  0  0  0  0  0  0
   20.9354   -8.2044  -15.2066 C   0  0  0  0  0  0  0  0  0  0  0  0
   20.8890   -7.6883  -16.3918 O   0  0  0  0  0  0  0  0  0  0  0  0
   21.1564   -7.2859  -14.1588 N   0  0  0  0  0  0  0  0  0  0  0  0
   21.2740   -7.6994  -12.7562 C   0  0  0  0  0  0  0  0  0  0  0  0
   20.8560   -6.4642  -11.9689 C   0  0  0  0  0  0  0  0  0  0  0  0
   21.3940   -5.3303  -12.7980 C   0  0  0  0  0  0  0  0  0  0  0  0
   21.3200   -5.8658  -14.2008 C   0  0  1  0  0  0  0  0  0  0  0  0
   22.5904   -5.4578  -14.8677 C   0  0  0  0  0  0  0  0  0  0  0  0
   22.6963   -4.1069  -15.2085 O   0  0  0  0  0  0  0  0  0  0  0  0
   23.5356   -6.2113  -15.1349 O   0  0  0  0  0  0  0  0  0  0  0  0
  2  1  1  1
  2  3  1  0
  3  4  1  0
  4  8  1  0
  4  5  2  0
  6  7  2  0
  6  2  1  0
  9 10  1  0
 10 11  1  0
 11 13  1  0
 11 12  1  6
 13 14  1  6
 14  6  1  0
 15 13  1  0
 16 15  2  0
 17 18  1  0
 17 15  1  0
 19 18  1  0
 20 19  1  0
 21 20  1  0
 21 17  1  0
 21 22  1  6
 23 22  1  0
 24 22  2  0
M  END
$$$$
