DIP.pdb
     RDKit          3D

 24 24  0  0  1  0  0  0  0  0999 V2000
   28.0235  -19.0296  -17.3962 N   0  0  0  0  0  0  0  0  0  0  0  0
   26.9349  -18.5914  -16.5512 C   0  0  1  0  0  0  0  0  0  0  0  0
   25.8666  -17.8660  -17.3339 C   0  0  0  0  0  0  0  0  0  0  0  0
   26.4478  -16.6871  -18.0246 C   0  0  0  0  0  0  0  0  0  0  0  0
   27.0786  -15.8441  -17.3711 O   0  0  0  0  0  0  0  0  0  0  0  0
   26.3742  -19.7216  -15.7646 C   0  0  0  0  0  0  0  0  0  0  0  0
   26.1475  -20.8341  -16.3230 O   0  0  0  0  0  0  0  0  0  0  0  0
   26.2828  -16.5362  -19.3900 O   0  0  0  0  0  0  0  0  0  0  0  0
   28.3176  -20.7771  -11.0023 C   0  0  0  0  0  0  0  0  0  0  0  0
   27.6814  -20.9517  -12.3897 C   0  0  0  0  0  0  0  0  0  0  0  0
   26.2363  -20.5740  -12.2616 C   0  0  2  0  0  0  0  0  0  0  0  0
   25.5845  -21.6524  -11.3644 C   0  0  0  0  0  0  0  0  0  0  0  0
   25.4746  -20.6062  -13.5563 C   0  0  2  0  0  0  0  0  0  0  0  0
   26.0906  -19.5651  -14.3930 N   0  0  0  0  0  0  0  0  0  0  0  0
   24.0250  -20.3859  -13.4366 C   0  0  0  0  0  0  0  0  0  0  0  0
   23.6408  -19.2465  -12.9596 O   0  0  0  0  0  0  0  0  0  0  0  0
   22.9853  -21.2740  -13.7835 N   0  0  0  0  0  0  0  0  0  0  0  0
   23.2374  -22.6211  -14.3072 C   0  0  0  0  0  0  0  0  0  0  0  0
   21.9880  -22.9445  -15.1164 C   0  0  0  0  0  0  0  0  0  0  0  0
   20.8876  -22.2944  -14.3233 C   0  0  0  0  0  0  0  0  0  0  0  0
   21.5674  -21.1050  -13.7043 C   0  0  1  0  0  0  0  0  0  0  0  0
   21.0794  -21.0350  -12.2964 C   0  0  0  0  0  0  0  0  0  0  0  0
   19.7824  -20.5456  -12.1218 O   0  0  0  0  0  0  0  0  0  0  0  0
   21.7248  -21.3710  -11.2949 O   0  0  0  0  0  0  0  0  0  0  0  0
  2  1  1  6
  2  3  1  0
  3  4  1  0
  4  8  1  0
  4  5  2  0
  6  7  2  0
  6  2  1  0
  9 10  1  0
 10 11  1  0
 11 13  1  0
 11 12  1  1
 13 14  1  6
 14  6  1  0
 15 13  1  0
 16 15  2  0
 17 18  1  0
 17 15  1  0
 19 18  1  0
 20 19  1  0
 21 20  1  0
 21 17  1  0
 21 22  1  1
 23 22  1  0
 24 22  2  0
M  END
$$$$
