DIP.pdb
     RDKit          3D

 24 24  0  0  1  0  0  0  0  0999 V2000
   24.7890  -18.8120  -10.1882 N   0  0  0  0  0  0  0  0  0  0  0  0
   25.3035  -20.0497   -9.6457 C   0  0  1  0  0  0  0  0  0  0  0  0
   25.3303  -21.1526  -10.6767 C   0  0  0  0  0  0  0  0  0  0  0  0
   23.9567  -21.4296  -11.1677 C   0  0  0  0  0  0  0  0  0  0  0  0
   23.7602  -21.5864  -12.3812 O   0  0  0  0  0  0  0  0  0  0  0  0
   26.6342  -19.8496   -9.0138 C   0  0  0  0  0  0  0  0  0  0  0  0
   27.6444  -19.5859   -9.7288 O   0  0  0  0  0  0  0  0  0  0  0  0
   22.9062  -21.5109  -10.2708 O   0  0  0  0  0  0  0  0  0  0  0  0
   27.3469  -16.7310   -4.7503 C   0  0  0  0  0  0  0  0  0  0  0  0
   27.6303  -17.4717   -6.0659 C   0  0  0  0  0  0  0  0  0  0  0  0
   27.7707  -18.9261   -5.7303 C   0  0  2  0  0  0  0  0  0  0  0  0
   29.0043  -19.0397   -4.8039 C   0  0  0  0  0  0  0  0  0  0  0  0
   28.0666  -19.8048   -6.9126 C   0  0  2  0  0  0  0  0  0  0  0  0
   26.7832  -19.9512   -7.6160 N   0  0  0  0  0  0  0  0  0  0  0  0
   28.6342  -21.1227   -6.5880 C   0  0  0  0  0  0  0  0  0  0  0  0
   27.8287  -22.0028   -6.0880 O   0  0  0  0  0  0  0  0  0  0  0  0
   29.9666  -21.5543   -6.7576 N   0  0  0  0  0  0  0  0  0  0  0  0
   30.9763  -20.7492   -7.4537 C   0  0  0  0  0  0  0  0  0  0  0  0
   31.9804  -21.7744   -7.9648 C   0  0  0  0  0  0  0  0  0  0  0  0
   32.0041  -22.8066   -6.8710 C   0  0  0  0  0  0  0  0  0  0  0  0
   30.6051  -22.7578   -6.3228 C   0  0  1  0  0  0  0  0  0  0  0  0
   30.7388  -22.8282   -4.8388 C   0  0  0  0  0  0  0  0  0  0  0  0
   30.4776  -21.6445   -4.1439 O   0  0  0  0  0  0  0  0  0  0  0  0
   31.0568  -23.8355   -4.1932 O   0  0  0  0  0  0  0  0  0  0  0  0
  2  1  1  6
  2  3  1  0
  3  4  1  0
  4  8  1  0
  4  5  2  0
  6  7  2  0
  6  2  1  0
  9 10  1  0
 10 11  1  0
 11 13  1  0
 11 12  1  1
 13 14  1  1
 14  6  1  0
 15 13  1  0
 16 15  2  0
 17 18  1  0
 17 15  1  0
 19 18  1  0
 20 19  1  0
 21 20  1  0
 21 17  1  0
 21 22  1  1
 23 22  1  0
 24 22  2  0
M  END
$$$$
