DIP.pdb
     RDKit          3D

 24 24  0  0  1  0  0  0  0  0999 V2000
   19.9058  -13.7106  -19.1997 N   0  0  0  0  0  0  0  0  0  0  0  0
   20.2487  -12.3059  -19.1788 C   0  0  1  0  0  0  0  0  0  0  0  0
   19.2303  -11.4631  -19.9087 C   0  0  0  0  0  0  0  0  0  0  0  0
   19.6243  -10.0321  -19.8674 C   0  0  0  0  0  0  0  0  0  0  0  0
   20.7817   -9.7067  -20.1678 O   0  0  0  0  0  0  0  0  0  0  0  0
   20.4717  -11.8259  -17.7895 C   0  0  0  0  0  0  0  0  0  0  0  0
   19.5948  -12.0255  -16.8995 O   0  0  0  0  0  0  0  0  0  0  0  0
   18.7001   -9.0721  -19.4951 O   0  0  0  0  0  0  0  0  0  0  0  0
   25.1341  -12.7202  -15.5898 C   0  0  0  0  0  0  0  0  0  0  0  0
   23.6321  -12.5102  -15.8340 C   0  0  0  0  0  0  0  0  0  0  0  0
   23.3916  -11.0304  -15.8495 C   0  0  2  0  0  0  0  0  0  0  0  0
   23.7176  -10.5237  -14.4248 C   0  0  0  0  0  0  0  0  0  0  0  0
   21.9626  -10.6417  -16.1034 C   0  0  2  0  0  0  0  0  0  0  0  0
   21.6587  -11.1457  -17.4514 N   0  0  0  0  0  0  0  0  0  0  0  0
   21.6789   -9.2011  -16.0113 C   0  0  0  0  0  0  0  0  0  0  0  0
   22.4152   -8.4102  -16.7225 O   0  0  0  0  0  0  0  0  0  0  0  0
   20.6886   -8.5642  -15.2343 N   0  0  0  0  0  0  0  0  0  0  0  0
   19.7310   -9.3083  -14.4087 C   0  0  0  0  0  0  0  0  0  0  0  0
   18.5320   -8.3752  -14.2990 C   0  0  0  0  0  0  0  0  0  0  0  0
   19.1629   -7.0111  -14.2376 C   0  0  0  0  0  0  0  0  0  0  0  0
   20.4091   -7.1721  -15.0630 C   0  0  1  0  0  0  0  0  0  0  0  0
   21.4912   -6.4604  -14.3229 C   0  0  0  0  0  0  0  0  0  0  0  0
   21.3842   -5.0681  -14.2717 O   0  0  0  0  0  0  0  0  0  0  0  0
   22.4545   -7.0007  -13.7638 O   0  0  0  0  0  0  0  0  0  0  0  0
  2  1  1  1
  2  3  1  0
  3  4  1  0
  4  8  1  0
  4  5  2  0
  6  7  2  0
  6  2  1  0
  9 10  1  0
 10 11  1  0
 11 13  1  0
 11 12  1  1
 13 14  1  6
 14  6  1  0
 15 13  1  0
 16 15  2  0
 17 18  1  0
 17 15  1  0
 19 18  1  0
 20 19  1  0
 21 20  1  0
 21 17  1  0
 21 22  1  1
 23 22  1  0
 24 22  2  0
M  END
$$$$
