RIN.pdb
     RDKit          3D

 28 27  0  0  1  0  0  0  0  0999 V2000
   17.0547  -24.6041  -12.0566 N   0  0  0  0  0  0  0  0  0  0  0  0
   16.5907  -23.3368  -11.6034 C   0  0  0  0  0  0  0  0  0  0  0  0
   15.3794  -23.1931  -11.1442 N   0  0  0  0  0  0  0  0  0  0  0  0
   17.4108  -22.1776  -11.6268 N   0  0  0  0  0  0  0  0  0  0  0  0
   17.8122  -21.5653  -12.8742 C   0  0  0  0  0  0  0  0  0  0  0  0
   19.0748  -22.2575  -13.3241 C   0  0  0  0  0  0  0  0  0  0  0  0
   20.2014  -21.2818  -13.6160 C   0  0  0  0  0  0  0  0  0  0  0  0
   21.0821  -21.2759  -12.3790 C   0  0  2  0  0  0  0  0  0  0  0  0
   20.4545  -20.5507  -11.2968 N   0  0  0  0  0  0  0  0  0  0  0  0
   22.4196  -20.6881  -12.6323 C   0  0  0  0  0  0  0  0  0  0  0  0
   22.5616  -19.4347  -12.7350 O   0  0  0  0  0  0  0  0  0  0  0  0
   14.9767  -22.3359  -10.7648 C   0  0  0  0  0  0  0  0  0  0  0  0
   26.1731  -21.5707   -9.4767 C   0  0  0  0  0  0  0  0  0  0  0  0
   25.3361  -21.0180  -10.5834 C   0  0  2  0  0  0  0  0  0  0  0  0
   25.8629  -21.3598  -11.9729 C   0  0  0  0  0  0  0  0  0  0  0  0
   27.2206  -20.7463  -12.0826 C   0  0  2  0  0  0  0  0  0  0  0  0
   24.9000  -20.8465  -12.9927 N   0  0  0  0  0  0  0  0  0  0  0  0
   23.5900  -21.4694  -12.7715 C   0  0  0  0  0  0  0  0  0  0  0  0
   25.3178  -21.0849  -14.4033 O   0  0  0  0  0  0  0  0  0  0  0  0
   25.6736  -22.2771  -14.7037 N   0  0  0  0  0  0  0  0  0  0  0  0
   23.4921  -22.5031  -17.7672 C   0  0  0  0  0  0  0  0  0  0  0  0
   23.4620  -21.1212  -17.4307 O   0  0  0  0  0  0  0  0  0  0  0  0
   22.3844  -20.7072  -16.9340 C   0  0  0  0  0  0  0  0  0  0  0  0
   24.6670  -20.3506  -17.6956 C   0  0  2  0  0  0  0  0  0  0  0  0
   25.8205  -20.5425  -16.7844 N   0  0  0  0  0  0  0  0  0  0  0  0
   25.3628  -20.1546  -15.4394 C   0  0  0  0  0  0  0  0  0  0  0  0
   26.9853  -19.7208  -17.1697 O   0  0  0  0  0  0  0  0  0  0  0  0
   27.2871  -18.5997  -16.3689 O   0  0  0  0  0  0  0  0  0  0  0  0
  2  1  1  0
  3  2  2  0
  4  2  1  0
  5  4  1  0
  6  5  1  0
  7  6  1  0
  8  7  1  0
  8  9  1  1
 10 17  1  0
 10  8  1  0
 11 10  2  0
 13 12  1  0
 14 13  1  0
 14 16  1  0
 14 15  1  6
 16 17  1  6
 18 25  1  0
 18 16  1  0
 19 18  2  0
 20 21  1  0
 21 22  2  0
 23 21  1  0
 24 23  1  1
 24 26  1  0
 24 25  1  0
 26 27  1  0
 28 26  2  0
M  END
$$$$
