RIN.pdb
     RDKit          3D

 28 27  0  0  1  0  0  0  0  0999 V2000
   18.4353  -25.5839   -5.5569 N   0  0  0  0  0  0  0  0  0  0  0  0
   17.4905  -24.6095   -5.9865 C   0  0  0  0  0  0  0  0  0  0  0  0
   16.5374  -24.2069   -5.1937 N   0  0  0  0  0  0  0  0  0  0  0  0
   17.5348  -24.0319   -7.2831 N   0  0  0  0  0  0  0  0  0  0  0  0
   18.5802  -24.3724   -8.2229 C   0  0  0  0  0  0  0  0  0  0  0  0
   19.8291  -23.6511   -7.7804 C   0  0  0  0  0  0  0  0  0  0  0  0
   20.1717  -22.4756   -8.6789 C   0  0  0  0  0  0  0  0  0  0  0  0
   21.5181  -21.9611   -8.2010 C   0  0  2  0  0  0  0  0  0  0  0  0
   21.3818  -21.2081   -6.9741 N   0  0  0  0  0  0  0  0  0  0  0  0
   22.1950  -21.1095   -9.2086 C   0  0  0  0  0  0  0  0  0  0  0  0
   22.0769  -19.8500   -9.1691 O   0  0  0  0  0  0  0  0  0  0  0  0
   15.7876  -23.5581   -5.4343 C   0  0  0  0  0  0  0  0  0  0  0  0
   27.2798  -20.3875  -12.3511 C   0  0  0  0  0  0  0  0  0  0  0  0
   25.8014  -20.1886  -12.2757 C   0  0  2  0  0  0  0  0  0  0  0  0
   25.1233  -21.0624  -11.2260 C   0  0  0  0  0  0  0  0  0  0  0  0
   25.4273  -22.4807  -11.5835 C   0  0  2  0  0  0  0  0  0  0  0  0
   23.6613  -20.7572  -11.2169 N   0  0  0  0  0  0  0  0  0  0  0  0
   22.9940  -21.6360  -10.2497 C   0  0  0  0  0  0  0  0  0  0  0  0
   22.9974  -20.9038  -12.5431 O   0  0  0  0  0  0  0  0  0  0  0  0
   22.6439  -22.0865  -12.8813 N   0  0  0  0  0  0  0  0  0  0  0  0
   20.2480  -20.1257  -16.8998 C   0  0  0  0  0  0  0  0  0  0  0  0
   19.9445  -19.2003  -15.8629 O   0  0  0  0  0  0  0  0  0  0  0  0
   18.9576  -18.4519  -16.0755 C   0  0  0  0  0  0  0  0  0  0  0  0
   20.7995  -19.2230  -14.6863 C   0  0  1  0  0  0  0  0  0  0  0  0
   21.9331  -20.1784  -14.6780 N   0  0  0  0  0  0  0  0  0  0  0  0
   22.7126  -19.8950  -13.4610 C   0  0  0  0  0  0  0  0  0  0  0  0
   22.7976  -20.0369  -15.8666 O   0  0  0  0  0  0  0  0  0  0  0  0
   22.4165  -20.7257  -17.0369 O   0  0  0  0  0  0  0  0  0  0  0  0
  2  1  1  0
  3  2  2  0
  4  2  1  0
  5  4  1  0
  6  5  1  0
  7  6  1  0
  8  7  1  0
  8  9  1  1
 10 17  1  0
 10  8  1  0
 11 10  2  0
 13 12  1  0
 14 13  1  0
 14 16  1  0
 14 15  1  1
 16 17  1  6
 18 25  1  0
 18 16  1  0
 19 18  2  0
 20 21  1  0
 21 22  2  0
 23 21  1  0
 24 23  1  1
 24 26  1  0
 24 25  1  0
 26 27  1  0
 28 26  2  0
M  END
$$$$
