RIN.pdb
     RDKit          3D

 28 27  0  0  1  0  0  0  0  0999 V2000
   22.2931  -20.3926  -20.6277 N   0  0  0  0  0  0  0  0  0  0  0  0
   22.8424  -21.5499  -21.2487 C   0  0  0  0  0  0  0  0  0  0  0  0
   23.5636  -21.4502  -22.3298 N   0  0  0  0  0  0  0  0  0  0  0  0
   22.6371  -22.8564  -20.7313 N   0  0  0  0  0  0  0  0  0  0  0  0
   21.9206  -23.0711  -19.4934 C   0  0  0  0  0  0  0  0  0  0  0  0
   22.7994  -22.5652  -18.3765 C   0  0  0  0  0  0  0  0  0  0  0  0
   22.2075  -22.8321  -17.0036 C   0  0  0  0  0  0  0  0  0  0  0  0
   23.1198  -22.1335  -16.0107 C   0  0  2  0  0  0  0  0  0  0  0  0
   24.4383  -22.7272  -16.0085 N   0  0  0  0  0  0  0  0  0  0  0  0
   22.5851  -22.1581  -14.6279 C   0  0  0  0  0  0  0  0  0  0  0  0
   23.0395  -22.9782  -13.7778 O   0  0  0  0  0  0  0  0  0  0  0  0
   23.9988  -22.2213  -22.8368 C   0  0  0  0  0  0  0  0  0  0  0  0
   20.7331  -18.5524  -10.1629 C   0  0  0  0  0  0  0  0  0  0  0  0
   20.6759  -19.8956  -10.8135 C   0  0  2  0  0  0  0  0  0  0  0  0
   21.1853  -19.8971  -12.2507 C   0  0  0  0  0  0  0  0  0  0  0  0
   20.3354  -18.9319  -13.0108 C   0  0  2  0  0  0  0  0  0  0  0  0
   21.1167  -21.2902  -12.7845 N   0  0  0  0  0  0  0  0  0  0  0  0
   21.5611  -21.2904  -14.1829 C   0  0  0  0  0  0  0  0  0  0  0  0
   19.7634  -21.9095  -12.7062 O   0  0  0  0  0  0  0  0  0  0  0  0
   18.9324  -21.5933  -13.6267 N   0  0  0  0  0  0  0  0  0  0  0  0
   16.4276  -26.3544  -11.5621 C   0  0  0  0  0  0  0  0  0  0  0  0
   16.6314  -25.2129  -10.7381 O   0  0  0  0  0  0  0  0  0  0  0  0
   15.6863  -24.9302   -9.9595 C   0  0  0  0  0  0  0  0  0  0  0  0
   17.8954  -24.5085  -10.8864 C   0  0  1  0  0  0  0  0  0  0  0  0
   17.9385  -23.3630  -11.8265 N   0  0  0  0  0  0  0  0  0  0  0  0
   19.2972  -22.8010  -11.7422 C   0  0  0  0  0  0  0  0  0  0  0  0
   16.9475  -22.3212  -11.4905 O   0  0  0  0  0  0  0  0  0  0  0  0
   15.6916  -22.3842  -12.1292 O   0  0  0  0  0  0  0  0  0  0  0  0
  2  1  1  0
  3  2  2  0
  4  2  1  0
  5  4  1  0
  6  5  1  0
  7  6  1  0
  8  7  1  0
  8  9  1  1
 10 17  1  0
 10  8  1  0
 11 10  2  0
 13 12  1  0
 14 13  1  0
 14 16  1  0
 14 15  1  6
 16 17  1  6
 18 25  1  0
 18 16  1  0
 19 18  2  0
 20 21  1  0
 21 22  2  0
 23 21  1  0
 24 23  1  6
 24 26  1  0
 24 25  1  0
 26 27  1  0
 28 26  2  0
M  END
$$$$
