RIN.pdb
     RDKit          3D

 28 27  0  0  1  0  0  0  0  0999 V2000
   19.3698  -25.0716  -13.8024 N   0  0  0  0  0  0  0  0  0  0  0  0
   18.8948  -24.3243  -14.9171 C   0  0  0  0  0  0  0  0  0  0  0  0
   18.5404  -24.9212  -16.0203 N   0  0  0  0  0  0  0  0  0  0  0  0
   18.7831  -22.9089  -14.8876 N   0  0  0  0  0  0  0  0  0  0  0  0
   19.2958  -22.1368  -13.7772 C   0  0  0  0  0  0  0  0  0  0  0  0
   20.7942  -22.3101  -13.7685 C   0  0  0  0  0  0  0  0  0  0  0  0
   21.5274  -21.0211  -13.4405 C   0  0  0  0  0  0  0  0  0  0  0  0
   22.0699  -20.4999  -14.7596 C   0  0  2  0  0  0  0  0  0  0  0  0
   22.9357  -21.4733  -15.3872 N   0  0  0  0  0  0  0  0  0  0  0  0
   22.8163  -19.2277  -14.6080 C   0  0  0  0  0  0  0  0  0  0  0  0
   22.3570  -18.2953  -13.8859 O   0  0  0  0  0  0  0  0  0  0  0  0
   18.2142  -24.4662  -16.8733 C   0  0  0  0  0  0  0  0  0  0  0  0
   28.2030  -19.0101  -14.4171 C   0  0  0  0  0  0  0  0  0  0  0  0
   26.7462  -18.7192  -14.2618 C   0  0  2  0  0  0  0  0  0  0  0  0
   26.1786  -17.8458  -15.3754 C   0  0  0  0  0  0  0  0  0  0  0  0
   26.9359  -16.5585  -15.3426 C   0  0  2  0  0  0  0  0  0  0  0  0
   24.7121  -17.6729  -15.1517 N   0  0  0  0  0  0  0  0  0  0  0  0
   24.0554  -18.9818  -15.2434 C   0  0  0  0  0  0  0  0  0  0  0  0
   24.0547  -16.7333  -16.1036 O   0  0  0  0  0  0  0  0  0  0  0  0
   24.1335  -17.0261  -17.3470 N   0  0  0  0  0  0  0  0  0  0  0  0
   20.7478  -13.1886  -18.3702 C   0  0  0  0  0  0  0  0  0  0  0  0
   21.0790  -12.8856  -17.0203 O   0  0  0  0  0  0  0  0  0  0  0  0
   20.8103  -11.7166  -16.6452 C   0  0  0  0  0  0  0  0  0  0  0  0
   21.6841  -13.9492  -16.2339 C   0  0  1  0  0  0  0  0  0  0  0  0
   22.7839  -14.7244  -16.8561 N   0  0  0  0  0  0  0  0  0  0  0  0
   23.3572  -15.5677  -15.7935 C   0  0  0  0  0  0  0  0  0  0  0  0
   23.8347  -13.8555  -17.4228 O   0  0  0  0  0  0  0  0  0  0  0  0
   23.8475  -13.6734  -18.8214 O   0  0  0  0  0  0  0  0  0  0  0  0
  2  1  1  0
  3  2  2  0
  4  2  1  0
  5  4  1  0
  6  5  1  0
  7  6  1  0
  8  7  1  0
  8  9  1  1
 10 17  1  0
 10  8  1  0
 11 10  2  0
 13 12  1  0
 14 13  1  0
 14 16  1  0
 14 15  1  6
 16 17  1  1
 18 25  1  0
 18 16  1  0
 19 18  2  0
 20 21  1  0
 21 22  2  0
 23 21  1  0
 24 23  1  6
 24 26  1  0
 24 25  1  0
 26 27  1  0
 28 26  2  0
M  END
$$$$
