RIN.pdb
     RDKit          3D

 28 27  0  0  1  0  0  0  0  0999 V2000
   22.0840  -17.6202  -15.6075 N   0  0  0  0  0  0  0  0  0  0  0  0
   22.1341  -18.5320  -16.6996 C   0  0  0  0  0  0  0  0  0  0  0  0
   21.7460  -18.1711  -17.8905 N   0  0  0  0  0  0  0  0  0  0  0  0
   22.6027  -19.8646  -16.5527 N   0  0  0  0  0  0  0  0  0  0  0  0
   23.0717  -20.3607  -15.2776 C   0  0  0  0  0  0  0  0  0  0  0  0
   24.5649  -20.1498  -15.2396 C   0  0  0  0  0  0  0  0  0  0  0  0
   25.0144  -19.3905  -14.0035 C   0  0  0  0  0  0  0  0  0  0  0  0
   25.9641  -20.3168  -13.2646 C   0  0  2  0  0  0  0  0  0  0  0  0
   26.3722  -21.4211  -14.1041 N   0  0  0  0  0  0  0  0  0  0  0  0
   25.3766  -20.8605  -12.0164 C   0  0  0  0  0  0  0  0  0  0  0  0
   24.8763  -22.0228  -11.9948 O   0  0  0  0  0  0  0  0  0  0  0  0
   21.7436  -18.7563  -18.7263 C   0  0  0  0  0  0  0  0  0  0  0  0
   27.4899  -19.2587   -7.5298 C   0  0  0  0  0  0  0  0  0  0  0  0
   26.7492  -20.2529   -8.3628 C   0  0  2  0  0  0  0  0  0  0  0  0
   25.2433  -20.0159   -8.3967 C   0  0  0  0  0  0  0  0  0  0  0  0
   24.6921  -20.5593   -7.1189 C   0  0  2  0  0  0  0  0  0  0  0  0
   24.6789  -20.6776   -9.6108 N   0  0  0  0  0  0  0  0  0  0  0  0
   25.3390  -20.1346  -10.8035 C   0  0  0  0  0  0  0  0  0  0  0  0
   23.2041  -20.5243   -9.7613 O   0  0  0  0  0  0  0  0  0  0  0  0
   22.7991  -19.5724  -10.5149 N   0  0  0  0  0  0  0  0  0  0  0  0
   18.5727  -21.9206  -11.2604 C   0  0  0  0  0  0  0  0  0  0  0  0
   19.8157  -22.2092  -11.8893 O   0  0  0  0  0  0  0  0  0  0  0  0
   19.7386  -22.6915  -13.0473 C   0  0  0  0  0  0  0  0  0  0  0  0
   21.0226  -21.9177  -11.1316 C   0  0  1  0  0  0  0  0  0  0  0  0
   20.8606  -21.3756   -9.7613 N   0  0  0  0  0  0  0  0  0  0  0  0
   22.2098  -21.3047   -9.1751 C   0  0  0  0  0  0  0  0  0  0  0  0
   19.9959  -22.2252   -8.9182 O   0  0  0  0  0  0  0  0  0  0  0  0
   18.6005  -22.0577   -9.0367 O   0  0  0  0  0  0  0  0  0  0  0  0
  2  1  1  0
  3  2  2  0
  4  2  1  0
  5  4  1  0
  6  5  1  0
  7  6  1  0
  8  7  1  0
  8  9  1  6
 10 17  1  0
 10  8  1  0
 11 10  2  0
 13 12  1  0
 14 13  1  0
 14 16  1  0
 14 15  1  6
 16 17  1  6
 18 25  1  0
 18 16  1  0
 19 18  2  0
 20 21  1  0
 21 22  2  0
 23 21  1  0
 24 23  1  6
 24 26  1  0
 24 25  1  0
 26 27  1  0
 28 26  2  0
M  END
$$$$
