RIN.pdb
     RDKit          3D

 28 27  0  0  1  0  0  0  0  0999 V2000
   25.2512  -16.3402  -19.3272 N   0  0  0  0  0  0  0  0  0  0  0  0
   24.7890  -17.6812  -19.2057 C   0  0  0  0  0  0  0  0  0  0  0  0
   23.9031  -18.1609  -20.0328 N   0  0  0  0  0  0  0  0  0  0  0  0
   25.2614  -18.5560  -18.1915 N   0  0  0  0  0  0  0  0  0  0  0  0
   26.1575  -18.0919  -17.1554 C   0  0  0  0  0  0  0  0  0  0  0  0
   26.5342  -19.2917  -16.3221 C   0  0  0  0  0  0  0  0  0  0  0  0
   27.4220  -18.9274  -15.1450 C   0  0  0  0  0  0  0  0  0  0  0  0
   27.8149  -20.2416  -14.4936 C   0  0  2  0  0  0  0  0  0  0  0  0
   28.2744  -21.1942  -15.4797 N   0  0  0  0  0  0  0  0  0  0  0  0
   26.7045  -20.8526  -13.7240 C   0  0  0  0  0  0  0  0  0  0  0  0
   26.1034  -21.8754  -14.1651 O   0  0  0  0  0  0  0  0  0  0  0  0
   23.4908  -19.0936  -19.9994 C   0  0  0  0  0  0  0  0  0  0  0  0
   26.8937  -20.7105   -8.3867 C   0  0  0  0  0  0  0  0  0  0  0  0
   26.5456  -21.2179   -9.7477 C   0  0  2  0  0  0  0  0  0  0  0  0
   25.2564  -20.6251  -10.3060 C   0  0  0  0  0  0  0  0  0  0  0  0
   24.1371  -21.1748   -9.4834 C   0  0  2  0  0  0  0  0  0  0  0  0
   25.1520  -20.9770  -11.7538 N   0  0  0  0  0  0  0  0  0  0  0  0
   26.2583  -20.3452  -12.4818 C   0  0  0  0  0  0  0  0  0  0  0  0
   23.8640  -20.5787  -12.3889 O   0  0  0  0  0  0  0  0  0  0  0  0
   23.6509  -19.3233  -12.5181 N   0  0  0  0  0  0  0  0  0  0  0  0
   19.3369  -20.3731  -14.9758 C   0  0  0  0  0  0  0  0  0  0  0  0
   20.0275  -21.5768  -15.2887 O   0  0  0  0  0  0  0  0  0  0  0  0
   19.5084  -22.2812  -16.1907 C   0  0  0  0  0  0  0  0  0  0  0  0
   21.2427  -21.8549  -14.5391 C   0  0  1  0  0  0  0  0  0  0  0  0
   21.6560  -20.8719  -13.5092 N   0  0  0  0  0  0  0  0  0  0  0  0
   22.8607  -21.4206  -12.8639 C   0  0  0  0  0  0  0  0  0  0  0  0
   20.6076  -20.6451  -12.4944 O   0  0  0  0  0  0  0  0  0  0  0  0
   19.6577  -19.6347  -12.7513 O   0  0  0  0  0  0  0  0  0  0  0  0
  2  1  1  0
  3  2  2  0
  4  2  1  0
  5  4  1  0
  6  5  1  0
  7  6  1  0
  8  7  1  0
  8  9  1  6
 10 17  1  0
 10  8  1  0
 11 10  2  0
 13 12  1  0
 14 13  1  0
 14 16  1  0
 14 15  1  6
 16 17  1  6
 18 25  1  0
 18 16  1  0
 19 18  2  0
 20 21  1  0
 21 22  2  0
 23 21  1  0
 24 23  1  6
 24 26  1  0
 24 25  1  0
 26 27  1  0
 28 26  2  0
M  END
$$$$
