RIN.pdb
     RDKit          3D

 28 27  0  0  1  0  0  0  0  0999 V2000
   29.9119  -23.9189  -18.0328 N   0  0  0  0  0  0  0  0  0  0  0  0
   29.1551  -24.4179  -19.1304 C   0  0  0  0  0  0  0  0  0  0  0  0
   29.6278  -25.3622  -19.8946 N   0  0  0  0  0  0  0  0  0  0  0  0
   27.8629  -23.9211  -19.4475 N   0  0  0  0  0  0  0  0  0  0  0  0
   26.9141  -23.5776  -18.4113 C   0  0  0  0  0  0  0  0  0  0  0  0
   26.6516  -24.8312  -17.6144 C   0  0  0  0  0  0  0  0  0  0  0  0
   25.4781  -24.6807  -16.6621 C   0  0  0  0  0  0  0  0  0  0  0  0
   25.7132  -23.3833  -15.9088 C   0  0  2  0  0  0  0  0  0  0  0  0
   27.0757  -23.2979  -15.4321 N   0  0  0  0  0  0  0  0  0  0  0  0
   24.7952  -23.2170  -14.7564 C   0  0  0  0  0  0  0  0  0  0  0  0
   24.1221  -24.1978  -14.3243 O   0  0  0  0  0  0  0  0  0  0  0  0
   29.1817  -25.7405  -20.7306 C   0  0  0  0  0  0  0  0  0  0  0  0
   26.3213  -20.7623  -10.4358 C   0  0  0  0  0  0  0  0  0  0  0  0
   25.5366  -21.6390  -11.3559 C   0  0  2  0  0  0  0  0  0  0  0  0
   24.2926  -20.9647  -11.9241 C   0  0  0  0  0  0  0  0  0  0  0  0
   23.3820  -20.6968  -10.7705 C   0  0  2  0  0  0  0  0  0  0  0  0
   23.6888  -21.8596  -12.9562 N   0  0  0  0  0  0  0  0  0  0  0  0
   24.6180  -21.9853  -14.0848 C   0  0  0  0  0  0  0  0  0  0  0  0
   22.3662  -21.3996  -13.4666 O   0  0  0  0  0  0  0  0  0  0  0  0
   22.3621  -20.3316  -14.1718 N   0  0  0  0  0  0  0  0  0  0  0  0
   17.2980  -20.7182  -14.5661 C   0  0  0  0  0  0  0  0  0  0  0  0
   17.4357  -21.9135  -13.8070 O   0  0  0  0  0  0  0  0  0  0  0  0
   16.3617  -22.4960  -13.5129 C   0  0  0  0  0  0  0  0  0  0  0  0
   18.7875  -22.3234  -13.4600 C   0  0  1  0  0  0  0  0  0  0  0  0
   19.8959  -21.4010  -13.8043 N   0  0  0  0  0  0  0  0  0  0  0  0
   21.1270  -22.0039  -13.2659 C   0  0  0  0  0  0  0  0  0  0  0  0
   19.7079  -20.0548  -13.2275 O   0  0  0  0  0  0  0  0  0  0  0  0
   19.3695  -19.0077  -14.1098 O   0  0  0  0  0  0  0  0  0  0  0  0
  2  1  1  0
  3  2  2  0
  4  2  1  0
  5  4  1  0
  6  5  1  0
  7  6  1  0
  8  7  1  0
  8  9  1  1
 10 17  1  0
 10  8  1  0
 11 10  2  0
 13 12  1  0
 14 13  1  0
 14 16  1  0
 14 15  1  6
 16 17  1  1
 18 25  1  0
 18 16  1  0
 19 18  2  0
 20 21  1  0
 21 22  2  0
 23 21  1  0
 24 23  1  6
 24 26  1  0
 24 25  1  0
 26 27  1  0
 28 26  2  0
M  END
$$$$
