YMY.pdb
     RDKit          3D

 33 34  0  0  1  0  0  0  0  0999 V2000
   30.4347  -16.4709  -18.7484 O   0  0  0  0  0  0  0  0  0  0  0  0
   29.5582  -17.0915  -17.8598 C   0  0  0  0  0  0  0  0  0  0  0  0
   28.2422  -17.3233  -18.2054 C   0  0  0  0  0  0  0  0  0  0  0  0
   27.3760  -17.9347  -17.3342 C   0  0  0  0  0  0  0  0  0  0  0  0
   27.7922  -18.3468  -16.0619 C   0  0  0  0  0  0  0  0  0  0  0  0
   26.8499  -19.0153  -15.1136 C   0  0  0  0  0  0  0  0  0  0  0  0
   27.4259  -20.3382  -14.7469 C   0  0  2  0  0  0  0  0  0  0  0  0
   27.5414  -21.1536  -15.9374 N   0  0  0  0  0  0  0  0  0  0  0  0
   26.6705  -21.0701  -13.6991 C   0  0  0  0  0  0  0  0  0  0  0  0
   25.7969  -21.9189  -14.0297 O   0  0  0  0  0  0  0  0  0  0  0  0
   29.1139  -18.1030  -15.7413 C   0  0  0  0  0  0  0  0  0  0  0  0
   30.0009  -17.4922  -16.5971 C   0  0  0  0  0  0  0  0  0  0  0  0
   26.5295  -18.7993   -7.3501 C   0  0  0  0  0  0  0  0  0  0  0  0
   26.3480  -20.5993   -7.2334 S   0  0  0  0  0  0  0  0  0  0  0  0
   25.6367  -21.2406   -8.7919 C   0  0  0  0  0  0  0  0  0  0  0  0
   26.4957  -20.7767   -9.9356 C   0  0  0  0  0  0  0  0  0  0  0  0
   25.9781  -21.2576  -11.2687 C   0  0  2  0  0  0  0  0  0  0  0  0
   26.8830  -20.8608  -12.3117 N   0  0  0  0  0  0  0  0  0  0  0  0
   24.6137  -20.7074  -11.5195 C   0  0  0  0  0  0  0  0  0  0  0  0
   24.4840  -19.4839  -11.6581 O   0  0  0  0  0  0  0  0  0  0  0  0
   23.1126  -17.8209  -17.2731 O   0  0  0  0  0  0  0  0  0  0  0  0
   22.7382  -18.7113  -16.2489 C   0  0  0  0  0  0  0  0  0  0  0  0
   23.4772  -19.8404  -15.9717 C   0  0  0  0  0  0  0  0  0  0  0  0
   23.0984  -20.7058  -14.9639 C   0  0  0  0  0  0  0  0  0  0  0  0
   21.9823  -20.4826  -14.2038 C   0  0  0  0  0  0  0  0  0  0  0  0
   21.5388  -21.3835  -13.1119 C   0  0  0  0  0  0  0  0  0  0  0  0
   22.1290  -20.9936  -11.7738 C   0  0  2  0  0  0  0  0  0  0  0  0
   23.4648  -21.5218  -11.6064 N   0  0  0  0  0  0  0  0  0  0  0  0
   21.2396  -21.3099  -10.6459 C   0  0  0  0  0  0  0  0  0  0  0  0
   21.7063  -22.1069   -9.5897 O   0  0  0  0  0  0  0  0  0  0  0  0
   21.2354  -19.3606  -14.4691 C   0  0  0  0  0  0  0  0  0  0  0  0
   21.6196  -18.5036  -15.4741 C   0  0  0  0  0  0  0  0  0  0  0  0
   20.0592  -20.9115  -10.5495 O   0  0  0  0  0  0  0  0  0  0  0  0
  2  1  1  0
  3  2  2  0
  4  3  1  0
  5  4  2  0
  5 11  1  0
  6  5  1  0
  7  6  1  0
  7  8  1  6
  9  7  1  0
  9 10  2  0
 11 12  2  0
 12  2  1  0
 13 14  1  0
 14 15  1  0
 15 16  1  0
 17 16  1  1
 17 19  1  0
 17 18  1  0
 18  9  1  0
 19 28  1  0
 20 19  2  0
 22 21  1  0
 22 32  2  0
 23 22  1  0
 24 23  2  0
 24 25  1  0
 25 31  2  0
 26 25  1  0
 27 26  1  6
 27 29  1  0
 28 27  1  0
 29 33  2  0
 29 30  1  0
 31 32  1  0
M  END
$$$$
