YMY.pdb
     RDKit          3D

 33 34  0  0  1  0  0  0  0  0999 V2000
   22.3892  -19.0369  -15.4321 O   0  0  0  0  0  0  0  0  0  0  0  0
   21.6816  -20.1852  -15.0803 C   0  0  0  0  0  0  0  0  0  0  0  0
   21.7855  -20.7236  -13.8137 C   0  0  0  0  0  0  0  0  0  0  0  0
   21.0903  -21.8534  -13.4626 C   0  0  0  0  0  0  0  0  0  0  0  0
   20.2492  -22.5040  -14.3743 C   0  0  0  0  0  0  0  0  0  0  0  0
   19.4895  -23.7330  -13.9918 C   0  0  0  0  0  0  0  0  0  0  0  0
   20.4627  -24.8501  -13.8458 C   0  0  2  0  0  0  0  0  0  0  0  0
   21.1151  -25.0823  -15.1170 N   0  0  0  0  0  0  0  0  0  0  0  0
   19.8768  -26.1150  -13.3350 C   0  0  0  0  0  0  0  0  0  0  0  0
   19.2670  -26.8898  -14.1229 O   0  0  0  0  0  0  0  0  0  0  0  0
   20.1632  -21.9447  -15.6349 C   0  0  0  0  0  0  0  0  0  0  0  0
   20.8499  -20.8133  -16.0102 C   0  0  0  0  0  0  0  0  0  0  0  0
   23.0505  -31.6569  -11.9859 C   0  0  0  0  0  0  0  0  0  0  0  0
   22.3763  -30.3935  -10.8741 S   0  0  0  0  0  0  0  0  0  0  0  0
   21.0921  -29.4328  -11.7538 C   0  0  0  0  0  0  0  0  0  0  0  0
   20.3954  -28.5448  -10.7602 C   0  0  0  0  0  0  0  0  0  0  0  0
   19.3473  -27.6753  -11.4097 C   0  0  2  0  0  0  0  0  0  0  0  0
   19.9675  -26.5089  -11.9746 N   0  0  0  0  0  0  0  0  0  0  0  0
   18.3099  -27.2864  -10.4099 C   0  0  0  0  0  0  0  0  0  0  0  0
   18.6696  -26.7046   -9.3778 O   0  0  0  0  0  0  0  0  0  0  0  0
   12.5142  -21.0939  -10.1964 O   0  0  0  0  0  0  0  0  0  0  0  0
   13.4390  -22.1262  -10.4436 C   0  0  0  0  0  0  0  0  0  0  0  0
   13.3087  -22.9636  -11.5296 C   0  0  0  0  0  0  0  0  0  0  0  0
   14.2233  -23.9727  -11.7604 C   0  0  0  0  0  0  0  0  0  0  0  0
   15.2890  -24.1839  -10.9279 C   0  0  0  0  0  0  0  0  0  0  0  0
   16.2953  -25.2536  -11.1373 C   0  0  0  0  0  0  0  0  0  0  0  0
   15.9079  -26.5453  -10.4502 C   0  0  2  0  0  0  0  0  0  0  0  0
   16.9361  -27.5526  -10.5904 N   0  0  0  0  0  0  0  0  0  0  0  0
   14.5754  -27.0239  -10.8483 C   0  0  0  0  0  0  0  0  0  0  0  0
   13.4876  -26.8698   -9.9755 O   0  0  0  0  0  0  0  0  0  0  0  0
   15.4316  -23.3565   -9.8406 C   0  0  0  0  0  0  0  0  0  0  0  0
   14.5167  -22.3537   -9.6180 C   0  0  0  0  0  0  0  0  0  0  0  0
   14.3254  -27.5767  -11.9407 O   0  0  0  0  0  0  0  0  0  0  0  0
  2  1  1  0
  3  2  2  0
  4  3  1  0
  5  4  2  0
  5 11  1  0
  6  5  1  0
  7  6  1  0
  7  8  1  6
  9  7  1  0
  9 10  2  0
 11 12  2  0
 12  2  1  0
 13 14  1  0
 14 15  1  0
 15 16  1  0
 17 16  1  1
 17 19  1  0
 17 18  1  0
 18  9  1  0
 19 28  1  0
 20 19  2  0
 22 21  1  0
 22 32  2  0
 23 22  1  0
 24 23  2  0
 24 25  1  0
 25 31  2  0
 26 25  1  0
 27 26  1  6
 27 29  1  0
 28 27  1  0
 29 33  2  0
 29 30  1  0
 31 32  1  0
M  END
$$$$
