YMY.pdb
     RDKit          3D

 33 34  0  0  1  0  0  0  0  0999 V2000
   28.5228  -34.6404   -5.6408 O   0  0  0  0  0  0  0  0  0  0  0  0
   28.2412  -34.4005   -4.2969 C   0  0  0  0  0  0  0  0  0  0  0  0
   29.1818  -33.8274   -3.4652 C   0  0  0  0  0  0  0  0  0  0  0  0
   28.9086  -33.5886   -2.1418 C   0  0  0  0  0  0  0  0  0  0  0  0
   27.6667  -33.9167   -1.5834 C   0  0  0  0  0  0  0  0  0  0  0  0
   27.3675  -33.6544   -0.1427 C   0  0  0  0  0  0  0  0  0  0  0  0
   28.4090  -34.3340    0.6758 C   0  0  2  0  0  0  0  0  0  0  0  0
   28.3002  -35.7656    0.4913 N   0  0  0  0  0  0  0  0  0  0  0  0
   28.3697  -34.0021    2.1223 C   0  0  0  0  0  0  0  0  0  0  0  0
   27.5663  -34.6065    2.8854 O   0  0  0  0  0  0  0  0  0  0  0  0
   26.7434  -34.4890   -2.4374 C   0  0  0  0  0  0  0  0  0  0  0  0
   26.9937  -34.7380   -3.7670 C   0  0  0  0  0  0  0  0  0  0  0  0
   31.7110  -31.4544    8.4621 C   0  0  0  0  0  0  0  0  0  0  0  0
   31.6440  -32.1298    6.7810 S   0  0  0  0  0  0  0  0  0  0  0  0
   30.3369  -31.2706    5.8327 C   0  0  0  0  0  0  0  0  0  0  0  0
   30.3644  -31.7749    4.4163 C   0  0  0  0  0  0  0  0  0  0  0  0
   29.1311  -32.5727    4.0713 C   0  0  2  0  0  0  0  0  0  0  0  0
   29.2071  -33.0169    2.7071 N   0  0  0  0  0  0  0  0  0  0  0  0
   27.9071  -31.7467    4.2874 C   0  0  0  0  0  0  0  0  0  0  0  0
   27.4078  -31.1614    3.3172 O   0  0  0  0  0  0  0  0  0  0  0  0
   20.0922  -28.5397    6.0154 O   0  0  0  0  0  0  0  0  0  0  0  0
   21.2811  -29.2533    5.7716 C   0  0  0  0  0  0  0  0  0  0  0  0
   22.0788  -28.9715    4.6844 C   0  0  0  0  0  0  0  0  0  0  0  0
   23.2428  -29.6796    4.4568 C   0  0  0  0  0  0  0  0  0  0  0  0
   23.6511  -30.6834    5.2929 C   0  0  0  0  0  0  0  0  0  0  0  0
   24.8930  -31.4686    5.0880 C   0  0  0  0  0  0  0  0  0  0  0  0
   26.0889  -30.8335    5.7641 C   0  0  2  0  0  0  0  0  0  0  0  0
   27.2936  -31.6043    5.5500 N   0  0  0  0  0  0  0  0  0  0  0  0
   25.8452  -30.5287    7.1822 C   0  0  0  0  0  0  0  0  0  0  0  0
   25.3702  -29.2616    7.5534 O   0  0  0  0  0  0  0  0  0  0  0  0
   22.8654  -30.9755    6.3811 C   0  0  0  0  0  0  0  0  0  0  0  0
   21.7079  -30.2656    6.6010 C   0  0  0  0  0  0  0  0  0  0  0  0
   26.0341  -31.3366    8.1164 O   0  0  0  0  0  0  0  0  0  0  0  0
  2  1  1  0
  3  2  2  0
  4  3  1  0
  5  4  2  0
  5 11  1  0
  6  5  1  0
  7  6  1  0
  7  8  1  1
  9  7  1  0
  9 10  2  0
 11 12  2  0
 12  2  1  0
 13 14  1  0
 14 15  1  0
 15 16  1  0
 17 16  1  6
 17 19  1  0
 17 18  1  0
 18  9  1  0
 19 28  1  0
 20 19  2  0
 22 21  1  0
 22 32  2  0
 23 22  1  0
 24 23  2  0
 24 25  1  0
 25 31  2  0
 26 25  1  0
 27 26  1  1
 27 29  1  0
 28 27  1  0
 29 33  2  0
 29 30  1  0
 31 32  1  0
M  END
$$$$
