YMY.pdb
     RDKit          3D

 33 34  0  0  1  0  0  0  0  0999 V2000
   24.9362  -25.9220  -16.5533 O   0  0  0  0  0  0  0  0  0  0  0  0
   25.9765  -26.8252  -16.7657 C   0  0  0  0  0  0  0  0  0  0  0  0
   27.2806  -26.4912  -16.4613 C   0  0  0  0  0  0  0  0  0  0  0  0
   28.3077  -27.3774  -16.6679 C   0  0  0  0  0  0  0  0  0  0  0  0
   28.0739  -28.6538  -17.1952 C   0  0  0  0  0  0  0  0  0  0  0  0
   29.1918  -29.6205  -17.4179 C   0  0  0  0  0  0  0  0  0  0  0  0
   29.8824  -29.2439  -18.6819 C   0  0  2  0  0  0  0  0  0  0  0  0
   29.0109  -29.5263  -19.8028 N   0  0  0  0  0  0  0  0  0  0  0  0
   31.1997  -29.8983  -18.8829 C   0  0  0  0  0  0  0  0  0  0  0  0
   31.3291  -30.7970  -19.7596 O   0  0  0  0  0  0  0  0  0  0  0  0
   26.7600  -28.9627  -17.4911 C   0  0  0  0  0  0  0  0  0  0  0  0
   25.7138  -28.0917  -17.2928 C   0  0  0  0  0  0  0  0  0  0  0  0
   36.0131  -29.1280  -22.5573 C   0  0  0  0  0  0  0  0  0  0  0  0
   35.2602  -28.4998  -21.0325 S   0  0  0  0  0  0  0  0  0  0  0  0
   35.5254  -29.7052  -19.6824 C   0  0  0  0  0  0  0  0  0  0  0  0
   34.7128  -29.2759  -18.4922 C   0  0  0  0  0  0  0  0  0  0  0  0
   33.6070  -30.2521  -18.1750 C   0  0  2  0  0  0  0  0  0  0  0  0
   32.3493  -29.5596  -18.1229 N   0  0  0  0  0  0  0  0  0  0  0  0
   33.8829  -30.9383  -16.8787 C   0  0  0  0  0  0  0  0  0  0  0  0
   34.0652  -30.2460  -15.8684 O   0  0  0  0  0  0  0  0  0  0  0  0
   27.0715  -35.6757  -14.9458 O   0  0  0  0  0  0  0  0  0  0  0  0
   28.1725  -34.9282  -15.4053 C   0  0  0  0  0  0  0  0  0  0  0  0
   28.8355  -34.0445  -14.5824 C   0  0  0  0  0  0  0  0  0  0  0  0
   29.9144  -33.3171  -15.0461 C   0  0  0  0  0  0  0  0  0  0  0  0
   30.3677  -33.4403  -16.3317 C   0  0  0  0  0  0  0  0  0  0  0  0
   31.5220  -32.6808  -16.8716 C   0  0  0  0  0  0  0  0  0  0  0  0
   32.8373  -33.1462  -16.2851 C   0  0  2  0  0  0  0  0  0  0  0  0
   33.9441  -32.3424  -16.7545 N   0  0  0  0  0  0  0  0  0  0  0  0
   33.0593  -34.5895  -16.4604 C   0  0  0  0  0  0  0  0  0  0  0  0
   33.0302  -35.4417  -15.3461 O   0  0  0  0  0  0  0  0  0  0  0  0
   29.7161  -34.3178  -17.1638 C   0  0  0  0  0  0  0  0  0  0  0  0
   28.6428  -35.0387  -16.6942 C   0  0  0  0  0  0  0  0  0  0  0  0
   33.2797  -35.1372  -17.5617 O   0  0  0  0  0  0  0  0  0  0  0  0
  2  1  1  0
  3  2  2  0
  4  3  1  0
  5  4  2  0
  5 11  1  0
  6  5  1  0
  7  6  1  0
  7  8  1  6
  9  7  1  0
  9 10  2  0
 11 12  2  0
 12  2  1  0
 13 14  1  0
 14 15  1  0
 15 16  1  0
 17 16  1  1
 17 19  1  0
 17 18  1  0
 18  9  1  0
 19 28  1  0
 20 19  2  0
 22 21  1  0
 22 32  2  0
 23 22  1  0
 24 23  2  0
 24 25  1  0
 25 31  2  0
 26 25  1  0
 27 26  1  6
 27 29  1  0
 28 27  1  0
 29 33  2  0
 29 30  1  0
 31 32  1  0
M  END
$$$$
