YMY.pdb
     RDKit          3D

 33 34  0  0  1  0  0  0  0  0999 V2000
   30.4689   -8.9876  -25.5759 O   0  0  0  0  0  0  0  0  0  0  0  0
   29.4993   -9.0507  -24.5764 C   0  0  0  0  0  0  0  0  0  0  0  0
   29.5476   -8.2067  -23.4854 C   0  0  0  0  0  0  0  0  0  0  0  0
   28.5949   -8.2647  -22.4995 C   0  0  0  0  0  0  0  0  0  0  0  0
   27.5376   -9.1813  -22.5610 C   0  0  0  0  0  0  0  0  0  0  0  0
   26.4980   -9.2431  -21.4889 C   0  0  0  0  0  0  0  0  0  0  0  0
   26.9358  -10.2457  -20.4792 C   0  0  2  0  0  0  0  0  0  0  0  0
   26.9681  -11.5564  -21.0929 N   0  0  0  0  0  0  0  0  0  0  0  0
   26.1091  -10.2803  -19.2465 C   0  0  0  0  0  0  0  0  0  0  0  0
   24.9850  -10.8542  -19.2582 O   0  0  0  0  0  0  0  0  0  0  0  0
   27.5127  -10.0142  -23.6632 C   0  0  0  0  0  0  0  0  0  0  0  0
   28.4558   -9.9750  -24.6640 C   0  0  0  0  0  0  0  0  0  0  0  0
   26.9937  -13.9832  -15.0585 C   0  0  0  0  0  0  0  0  0  0  0  0
   26.1602  -12.4018  -15.3600 S   0  0  0  0  0  0  0  0  0  0  0  0
   27.4116  -11.0798  -15.5391 C   0  0  0  0  0  0  0  0  0  0  0  0
   26.7007   -9.7574  -15.6246 C   0  0  0  0  0  0  0  0  0  0  0  0
   25.7655   -9.6886  -16.8066 C   0  0  2  0  0  0  0  0  0  0  0  0
   26.5251   -9.6875  -18.0261 N   0  0  0  0  0  0  0  0  0  0  0  0
   24.9131   -8.4668  -16.7176 C   0  0  0  0  0  0  0  0  0  0  0  0
   25.4629   -7.3575  -16.7386 O   0  0  0  0  0  0  0  0  0  0  0  0
   18.4833   -2.5496  -17.6040 O   0  0  0  0  0  0  0  0  0  0  0  0
   19.2977   -3.6978  -17.6178 C   0  0  0  0  0  0  0  0  0  0  0  0
   19.7152   -4.2975  -16.4500 C   0  0  0  0  0  0  0  0  0  0  0  0
   20.5143   -5.4239  -16.4780 C   0  0  0  0  0  0  0  0  0  0  0  0
   20.9236   -5.9883  -17.6558 C   0  0  0  0  0  0  0  0  0  0  0  0
   21.7802   -7.1970  -17.7331 C   0  0  0  0  0  0  0  0  0  0  0  0
   22.6726   -7.3437  -16.5195 C   0  0  2  0  0  0  0  0  0  0  0  0
   23.5073   -8.5212  -16.6112 N   0  0  0  0  0  0  0  0  0  0  0  0
   21.9286   -7.2629  -15.2534 C   0  0  0  0  0  0  0  0  0  0  0  0
   21.9692   -6.0846  -14.4926 O   0  0  0  0  0  0  0  0  0  0  0  0
   20.5151   -5.4008  -18.8284 C   0  0  0  0  0  0  0  0  0  0  0  0
   19.7191   -4.2796  -18.7921 C   0  0  0  0  0  0  0  0  0  0  0  0
   21.2387   -8.1930  -14.7839 O   0  0  0  0  0  0  0  0  0  0  0  0
  2  1  1  0
  3  2  2  0
  4  3  1  0
  5  4  2  0
  5 11  1  0
  6  5  1  0
  7  6  1  0
  7  8  1  6
  9  7  1  0
  9 10  2  0
 11 12  2  0
 12  2  1  0
 13 14  1  0
 14 15  1  0
 15 16  1  0
 17 16  1  1
 17 19  1  0
 17 18  1  0
 18  9  1  0
 19 28  1  0
 20 19  2  0
 22 21  1  0
 22 32  2  0
 23 22  1  0
 24 23  2  0
 24 25  1  0
 25 31  2  0
 26 25  1  0
 27 26  1  6
 27 29  1  0
 28 27  1  0
 29 33  2  0
 29 30  1  0
 31 32  1  0
M  END
$$$$
