YMY.pdb
     RDKit          3D

 33 34  0  0  1  0  0  0  0  0999 V2000
   11.2516  -23.9144  -23.7687 O   0  0  0  0  0  0  0  0  0  0  0  0
   12.2545  -23.6409  -22.8400 C   0  0  0  0  0  0  0  0  0  0  0  0
   12.9110  -22.4268  -22.8402 C   0  0  0  0  0  0  0  0  0  0  0  0
   13.8983  -22.1529  -21.9274 C   0  0  0  0  0  0  0  0  0  0  0  0
   14.2785  -23.0928  -20.9611 C   0  0  0  0  0  0  0  0  0  0  0  0
   15.3518  -22.7941  -19.9648 C   0  0  0  0  0  0  0  0  0  0  0  0
   16.6477  -23.2621  -20.5287 C   0  0  2  0  0  0  0  0  0  0  0  0
   16.6941  -24.7081  -20.4788 N   0  0  0  0  0  0  0  0  0  0  0  0
   17.8489  -22.6906  -19.8694 C   0  0  0  0  0  0  0  0  0  0  0  0
   18.4126  -23.3207  -18.9322 O   0  0  0  0  0  0  0  0  0  0  0  0
   13.6057  -24.2996  -20.9828 C   0  0  0  0  0  0  0  0  0  0  0  0
   12.6130  -24.5974  -21.8874 C   0  0  0  0  0  0  0  0  0  0  0  0
   23.5384  -17.1932  -20.5041 C   0  0  0  0  0  0  0  0  0  0  0  0
   22.1523  -18.1019  -21.2385 S   0  0  0  0  0  0  0  0  0  0  0  0
   21.4054  -19.1951  -19.9762 C   0  0  0  0  0  0  0  0  0  0  0  0
   20.2312  -19.9040  -20.5926 C   0  0  0  0  0  0  0  0  0  0  0  0
   19.5427  -20.8231  -19.6140 C   0  0  2  0  0  0  0  0  0  0  0  0
   18.4106  -21.4428  -20.2454 N   0  0  0  0  0  0  0  0  0  0  0  0
   19.1170  -20.0603  -18.4040 C   0  0  0  0  0  0  0  0  0  0  0  0
   18.1747  -19.2635  -18.5065 O   0  0  0  0  0  0  0  0  0  0  0  0
   18.3957  -17.3369   -9.9834 O   0  0  0  0  0  0  0  0  0  0  0  0
   18.8411  -17.9494  -11.1701 C   0  0  0  0  0  0  0  0  0  0  0  0
   18.2300  -19.0782  -11.6700 C   0  0  0  0  0  0  0  0  0  0  0  0
   18.6773  -19.6693  -12.8357 C   0  0  0  0  0  0  0  0  0  0  0  0
   19.7380  -19.1650  -13.5385 C   0  0  0  0  0  0  0  0  0  0  0  0
   20.2513  -19.7658  -14.7941 C   0  0  0  0  0  0  0  0  0  0  0  0
   19.3874  -19.4204  -15.9879 C   0  0  2  0  0  0  0  0  0  0  0  0
   19.7416  -20.2084  -17.1477 N   0  0  0  0  0  0  0  0  0  0  0  0
   19.3489  -17.9762  -16.2633 C   0  0  0  0  0  0  0  0  0  0  0  0
   18.2642  -17.2075  -15.8146 O   0  0  0  0  0  0  0  0  0  0  0  0
   20.3574  -18.0397  -13.0517 C   0  0  0  0  0  0  0  0  0  0  0  0
   19.9056  -17.4568  -11.8905 C   0  0  0  0  0  0  0  0  0  0  0  0
   20.2365  -17.3566  -16.8875 O   0  0  0  0  0  0  0  0  0  0  0  0
  2  1  1  0
  3  2  2  0
  4  3  1  0
  5  4  2  0
  5 11  1  0
  6  5  1  0
  7  6  1  0
  7  8  1  1
  9  7  1  0
  9 10  2  0
 11 12  2  0
 12  2  1  0
 13 14  1  0
 14 15  1  0
 15 16  1  0
 17 16  1  6
 17 19  1  0
 17 18  1  0
 18  9  1  0
 19 28  1  0
 20 19  2  0
 22 21  1  0
 22 32  2  0
 23 22  1  0
 24 23  2  0
 24 25  1  0
 25 31  2  0
 26 25  1  0
 27 26  1  1
 27 29  1  0
 28 27  1  0
 29 33  2  0
 29 30  1  0
 31 32  1  0
M  END
$$$$
