YMY.pdb
     RDKit          3D

 33 34  0  0  1  0  0  0  0  0999 V2000
   28.2887  -14.8548  -19.7107 O   0  0  0  0  0  0  0  0  0  0  0  0
   27.3960  -15.5794  -18.9226 C   0  0  0  0  0  0  0  0  0  0  0  0
   26.0386  -15.5428  -19.1699 C   0  0  0  0  0  0  0  0  0  0  0  0
   25.1562  -16.2552  -18.3973 C   0  0  0  0  0  0  0  0  0  0  0  0
   25.5972  -17.0462  -17.3288 C   0  0  0  0  0  0  0  0  0  0  0  0
   24.6370  -17.8246  -16.4887 C   0  0  0  0  0  0  0  0  0  0  0  0
   24.9114  -19.2731  -16.6963 C   0  0  2  0  0  0  0  0  0  0  0  0
   24.4932  -19.6504  -18.0298 N   0  0  0  0  0  0  0  0  0  0  0  0
   24.2841  -20.1692  -15.6927 C   0  0  0  0  0  0  0  0  0  0  0  0
   23.2027  -20.7604  -15.9651 O   0  0  0  0  0  0  0  0  0  0  0  0
   26.9603  -17.0653  -17.1030 C   0  0  0  0  0  0  0  0  0  0  0  0
   27.8642  -16.3602  -17.8634 C   0  0  0  0  0  0  0  0  0  0  0  0
   24.8574  -21.2134   -7.9193 C   0  0  0  0  0  0  0  0  0  0  0  0
   25.6689  -21.4308   -9.5258 S   0  0  0  0  0  0  0  0  0  0  0  0
   24.5026  -20.9820  -10.8615 C   0  0  0  0  0  0  0  0  0  0  0  0
   25.1592  -21.2653  -12.1843 C   0  0  0  0  0  0  0  0  0  0  0  0
   24.2027  -21.1086  -13.3405 C   0  0  2  0  0  0  0  0  0  0  0  0
   24.8487  -20.4018  -14.4116 N   0  0  0  0  0  0  0  0  0  0  0  0
   22.9754  -20.3839  -12.8981 C   0  0  0  0  0  0  0  0  0  0  0  0
   23.0662  -19.1820  -12.6146 O   0  0  0  0  0  0  0  0  0  0  0  0
   18.2613  -20.1354  -18.3940 O   0  0  0  0  0  0  0  0  0  0  0  0
   18.7812  -19.8703  -17.1129 C   0  0  0  0  0  0  0  0  0  0  0  0
   20.1356  -19.9088  -16.8644 C   0  0  0  0  0  0  0  0  0  0  0  0
   20.6325  -19.6466  -15.6024 C   0  0  0  0  0  0  0  0  0  0  0  0
   19.8091  -19.3407  -14.5527 C   0  0  0  0  0  0  0  0  0  0  0  0
   20.2984  -19.0515  -13.1825 C   0  0  0  0  0  0  0  0  0  0  0  0
   20.5172  -20.3131  -12.3755 C   0  0  2  0  0  0  0  0  0  0  0  0
   21.7153  -21.0093  -12.7895 N   0  0  0  0  0  0  0  0  0  0  0  0
   19.3299  -21.1805  -12.3427 C   0  0  0  0  0  0  0  0  0  0  0  0
   18.1175  -20.6872  -11.8373 O   0  0  0  0  0  0  0  0  0  0  0  0
   18.4560  -19.2989  -14.7857 C   0  0  0  0  0  0  0  0  0  0  0  0
   17.9692  -19.5608  -16.0453 C   0  0  0  0  0  0  0  0  0  0  0  0
   19.3138  -22.3640  -12.7432 O   0  0  0  0  0  0  0  0  0  0  0  0
  2  1  1  0
  3  2  2  0
  4  3  1  0
  5  4  2  0
  5 11  1  0
  6  5  1  0
  7  6  1  0
  7  8  1  6
  9  7  1  0
  9 10  2  0
 11 12  2  0
 12  2  1  0
 13 14  1  0
 14 15  1  0
 15 16  1  0
 17 16  1  1
 17 19  1  0
 17 18  1  0
 18  9  1  0
 19 28  1  0
 20 19  2  0
 22 21  1  0
 22 32  2  0
 23 22  1  0
 24 23  2  0
 24 25  1  0
 25 31  2  0
 26 25  1  0
 27 26  1  6
 27 29  1  0
 28 27  1  0
 29 33  2  0
 29 30  1  0
 31 32  1  0
M  END
$$$$
