CNI.pdb
     RDKit          3D

 23 22  0  0  1  0  0  0  0  0999 V2000
   12.5590  -10.6798   -8.9242 N   0  0  0  0  0  0  0  0  0  0  0  0
   13.8790  -10.7236   -9.5216 C   0  0  1  0  0  0  0  0  0  0  0  0
   13.8194  -11.8094  -10.6035 C   0  0  0  0  0  0  0  0  0  0  0  0
   13.4439  -13.3639   -9.7218 S   0  0  0  0  0  0  0  0  0  0  0  0
   14.2354   -9.4151  -10.1224 C   0  0  0  0  0  0  0  0  0  0  0  0
   13.3627   -8.6074  -10.5174 O   0  0  0  0  0  0  0  0  0  0  0  0
   16.8849   -4.9044   -8.3636 N   0  0  0  0  0  0  0  0  0  0  0  0
   16.1423   -5.5290   -9.3826 C   0  0  0  0  0  0  0  0  0  0  0  0
   15.9098   -4.8299  -10.4148 O   0  0  0  0  0  0  0  0  0  0  0  0
   15.6864   -6.9099   -9.2128 C   0  0  0  0  0  0  0  0  0  0  0  0
   16.0445   -7.7173  -10.4095 C   0  0  2  0  0  0  0  0  0  0  0  0
   15.5966   -9.0609  -10.2572 N   0  0  0  0  0  0  0  0  0  0  0  0
   17.5099   -7.6406  -10.7236 C   0  0  0  0  0  0  0  0  0  0  0  0
   18.2973   -7.9745   -9.8145 O   0  0  0  0  0  0  0  0  0  0  0  0
   20.0446  -10.4267  -13.9426 C   0  0  0  0  0  0  0  0  0  0  0  0
   19.6989   -9.4994  -12.7930 C   0  0  0  0  0  0  0  0  0  0  0  0
   19.9227   -8.0797  -13.2749 C   0  0  2  0  0  0  0  0  0  0  0  0
   21.4187   -7.9214  -13.3973 C   0  0  0  0  0  0  0  0  0  0  0  0
   19.3558   -7.0265  -12.3922 C   0  0  2  0  0  0  0  0  0  0  0  0
   18.0013   -7.2219  -11.9582 N   0  0  0  0  0  0  0  0  0  0  0  0
   19.6521   -5.6881  -12.8455 C   0  0  0  0  0  0  0  0  0  0  0  0
   20.8053   -5.2645  -13.0302 O   0  0  0  0  0  0  0  0  0  0  0  0
   18.5860   -4.7995  -13.0974 O   0  0  0  0  0  0  0  0  0  0  0  0
  2  1  1  6
  2  5  1  0
  3  2  1  0
  4  3  1  0
  5 12  1  0
  6  5  2  0
  7  8  1  0
  8  9  2  0
 10  8  1  0
 11 13  1  0
 11 10  1  1
 12 11  1  0
 13 14  2  0
 16 15  1  0
 17 16  1  0
 17 18  1  1
 19 17  1  0
 20 13  1  0
 19 20  1  6
 21 19  1  0
 22 21  2  0
 23 21  1  0
M  END
$$$$
