CNI.pdb
     RDKit          3D

 23 22  0  0  1  0  0  0  0  0999 V2000
   16.5763  -13.6516  -17.5266 N   0  0  0  0  0  0  0  0  0  0  0  0
   16.0708  -12.4025  -16.9922 C   0  0  1  0  0  0  0  0  0  0  0  0
   15.6749  -12.6919  -15.5388 C   0  0  0  0  0  0  0  0  0  0  0  0
   14.1789  -13.7350  -15.6336 S   0  0  0  0  0  0  0  0  0  0  0  0
   17.1075  -11.3429  -17.0437 C   0  0  0  0  0  0  0  0  0  0  0  0
   18.3291  -11.6134  -17.1094 O   0  0  0  0  0  0  0  0  0  0  0  0
   19.2399   -6.8390  -17.7416 N   0  0  0  0  0  0  0  0  0  0  0  0
   17.8572   -6.5805  -17.7757 C   0  0  0  0  0  0  0  0  0  0  0  0
   17.5145   -5.4132  -18.1339 O   0  0  0  0  0  0  0  0  0  0  0  0
   16.9078   -7.6330  -17.4092 C   0  0  0  0  0  0  0  0  0  0  0  0
   17.6326   -8.9029  -17.1364 C   0  0  2  0  0  0  0  0  0  0  0  0
   16.7148   -9.9858  -17.0182 N   0  0  0  0  0  0  0  0  0  0  0  0
   18.5348   -8.7919  -15.9425 C   0  0  0  0  0  0  0  0  0  0  0  0
   18.0053   -8.9429  -14.8223 O   0  0  0  0  0  0  0  0  0  0  0  0
   23.6443  -10.9835  -14.0044 C   0  0  0  0  0  0  0  0  0  0  0  0
   22.8275   -9.7122  -13.8723 C   0  0  0  0  0  0  0  0  0  0  0  0
   21.8771   -9.6614  -15.0522 C   0  0  2  0  0  0  0  0  0  0  0  0
   22.7532   -9.5868  -16.2789 C   0  0  0  0  0  0  0  0  0  0  0  0
   20.9144   -8.5290  -15.0273 C   0  0  2  0  0  0  0  0  0  0  0  0
   19.9003   -8.5341  -16.0435 N   0  0  0  0  0  0  0  0  0  0  0  0
   21.5509   -7.2493  -14.8229 C   0  0  0  0  0  0  0  0  0  0  0  0
   22.2219   -6.9684  -13.8158 O   0  0  0  0  0  0  0  0  0  0  0  0
   21.4138   -6.2517  -15.8106 O   0  0  0  0  0  0  0  0  0  0  0  0
  2  1  1  1
  2  5  1  0
  3  2  1  0
  4  3  1  0
  5 12  1  0
  6  5  2  0
  7  8  1  0
  8  9  2  0
 10  8  1  0
 11 13  1  0
 11 10  1  1
 12 11  1  0
 13 14  2  0
 16 15  1  0
 17 16  1  0
 17 18  1  6
 19 17  1  0
 20 13  1  0
 19 20  1  6
 21 19  1  0
 22 21  2  0
 23 21  1  0
M  END
$$$$
