CNI.pdb
     RDKit          3D

 23 22  0  0  1  0  0  0  0  0999 V2000
   29.0054  -20.9417  -17.9073 N   0  0  0  0  0  0  0  0  0  0  0  0
   28.0961  -21.7256  -17.0950 C   0  0  1  0  0  0  0  0  0  0  0  0
   28.9284  -22.2617  -15.9234 C   0  0  0  0  0  0  0  0  0  0  0  0
   29.6560  -23.8298  -16.5121 S   0  0  0  0  0  0  0  0  0  0  0  0
   26.9762  -20.8920  -16.5939 C   0  0  0  0  0  0  0  0  0  0  0  0
   27.1288  -19.6834  -16.3012 O   0  0  0  0  0  0  0  0  0  0  0  0
   22.2130  -18.6223  -17.2948 N   0  0  0  0  0  0  0  0  0  0  0  0
   22.4581  -19.7524  -16.4930 C   0  0  0  0  0  0  0  0  0  0  0  0
   21.7650  -19.8496  -15.4355 O   0  0  0  0  0  0  0  0  0  0  0  0
   23.4670  -20.7323  -16.9001 C   0  0  0  0  0  0  0  0  0  0  0  0
   24.5773  -20.7641  -15.9109 C   0  0  2  0  0  0  0  0  0  0  0  0
   25.6961  -21.4699  -16.4390 N   0  0  0  0  0  0  0  0  0  0  0  0
   24.1359  -21.3119  -14.5854 C   0  0  0  0  0  0  0  0  0  0  0  0
   23.8360  -22.5230  -14.5499 O   0  0  0  0  0  0  0  0  0  0  0  0
   25.4786  -21.1390   -8.7620 C   0  0  0  0  0  0  0  0  0  0  0  0
   24.2718  -21.2540   -9.6739 C   0  0  0  0  0  0  0  0  0  0  0  0
   24.6911  -20.7560  -11.0429 C   0  0  2  0  0  0  0  0  0  0  0  0
   25.0580  -19.3042  -10.8543 C   0  0  0  0  0  0  0  0  0  0  0  0
   23.6573  -20.9011  -12.1012 C   0  0  2  0  0  0  0  0  0  0  0  0
   24.0537  -20.5351  -13.4317 N   0  0  0  0  0  0  0  0  0  0  0  0
   22.3642  -20.3982  -11.7020 C   0  0  0  0  0  0  0  0  0  0  0  0
   21.7656  -20.7749  -10.6806 O   0  0  0  0  0  0  0  0  0  0  0  0
   21.7312  -19.4256  -12.5038 O   0  0  0  0  0  0  0  0  0  0  0  0
  2  1  1  6
  2  5  1  0
  3  2  1  0
  4  3  1  0
  5 12  1  0
  6  5  2  0
  7  8  1  0
  8  9  2  0
 10  8  1  0
 11 13  1  0
 11 10  1  6
 12 11  1  0
 13 14  2  0
 16 15  1  0
 17 16  1  0
 17 18  1  1
 19 17  1  0
 20 13  1  0
 19 20  1  6
 21 19  1  0
 22 21  2  0
 23 21  1  0
M  END
$$$$
