CNI.pdb
     RDKit          3D

 23 22  0  0  1  0  0  0  0  0999 V2000
   27.8135  -19.9188  -18.9704 N   0  0  0  0  0  0  0  0  0  0  0  0
   26.8352  -19.2514  -18.1345 C   0  0  1  0  0  0  0  0  0  0  0  0
   26.2035  -18.1607  -19.0088 C   0  0  0  0  0  0  0  0  0  0  0  0
   27.4635  -16.8458  -19.1440 S   0  0  0  0  0  0  0  0  0  0  0  0
   25.7980  -20.2024  -17.6656 C   0  0  0  0  0  0  0  0  0  0  0  0
   24.9834  -20.7364  -18.4538 O   0  0  0  0  0  0  0  0  0  0  0  0
   24.1027  -24.8754  -16.8314 N   0  0  0  0  0  0  0  0  0  0  0  0
   24.8659  -24.0841  -15.9531 C   0  0  0  0  0  0  0  0  0  0  0  0
   24.8939  -24.4597  -14.7421 O   0  0  0  0  0  0  0  0  0  0  0  0
   25.5697  -22.9035  -16.4575 C   0  0  0  0  0  0  0  0  0  0  0  0
   25.0528  -21.6773  -15.7929 C   0  0  2  0  0  0  0  0  0  0  0  0
   25.7189  -20.5211  -16.2913 N   0  0  0  0  0  0  0  0  0  0  0  0
   25.1263  -21.7731  -14.2972 C   0  0  0  0  0  0  0  0  0  0  0  0
   26.2669  -21.8254  -13.7931 O   0  0  0  0  0  0  0  0  0  0  0  0
   25.7790  -21.2828   -9.4628 C   0  0  0  0  0  0  0  0  0  0  0  0
   24.6403  -20.4182   -9.9693 C   0  0  0  0  0  0  0  0  0  0  0  0
   24.6587  -20.4887  -11.4835 C   0  0  2  0  0  0  0  0  0  0  0  0
   24.1139  -19.1644  -11.9602 C   0  0  0  0  0  0  0  0  0  0  0  0
   23.8797  -21.6141  -12.0634 C   0  0  2  0  0  0  0  0  0  0  0  0
   23.9971  -21.8044  -13.4816 N   0  0  0  0  0  0  0  0  0  0  0  0
   22.5286  -21.6863  -11.5594 C   0  0  0  0  0  0  0  0  0  0  0  0
   22.2419  -21.6348  -10.3517 O   0  0  0  0  0  0  0  0  0  0  0  0
   21.4637  -21.8230  -12.4742 O   0  0  0  0  0  0  0  0  0  0  0  0
  2  1  1  6
  2  5  1  0
  3  2  1  0
  4  3  1  0
  5 12  1  0
  6  5  2  0
  7  8  1  0
  8  9  2  0
 10  8  1  0
 11 13  1  0
 11 10  1  6
 12 11  1  0
 13 14  2  0
 16 15  1  0
 17 16  1  0
 17 18  1  6
 19 17  1  0
 20 13  1  0
 19 20  1  6
 21 19  1  0
 22 21  2  0
 23 21  1  0
M  END
$$$$
