CNI.pdb
     RDKit          3D

 23 22  0  0  1  0  0  0  0  0999 V2000
   19.6288  -21.5204  -16.0135 N   0  0  0  0  0  0  0  0  0  0  0  0
   19.8219  -22.4432  -14.9124 C   0  0  1  0  0  0  0  0  0  0  0  0
   21.2764  -22.2651  -14.4594 C   0  0  0  0  0  0  0  0  0  0  0  0
   22.2958  -23.0577  -15.7507 S   0  0  0  0  0  0  0  0  0  0  0  0
   18.8928  -22.1421  -13.7961 C   0  0  0  0  0  0  0  0  0  0  0  0
   18.2685  -21.0580  -13.7274 O   0  0  0  0  0  0  0  0  0  0  0  0
   13.9937  -22.7121  -11.6996 N   0  0  0  0  0  0  0  0  0  0  0  0
   15.3466  -22.4458  -11.4194 C   0  0  0  0  0  0  0  0  0  0  0  0
   15.6004  -21.9954  -10.2614 O   0  0  0  0  0  0  0  0  0  0  0  0
   16.3665  -22.6916  -12.4407 C   0  0  0  0  0  0  0  0  0  0  0  0
   17.6700  -23.0051  -11.7966 C   0  0  2  0  0  0  0  0  0  0  0  0
   18.7002  -23.1004  -12.7757 N   0  0  0  0  0  0  0  0  0  0  0  0
   17.5926  -24.2307  -10.9343 C   0  0  0  0  0  0  0  0  0  0  0  0
   17.5819  -25.3316  -11.5225 O   0  0  0  0  0  0  0  0  0  0  0  0
   19.7358  -24.5946   -7.1755 C   0  0  0  0  0  0  0  0  0  0  0  0
   18.4477  -23.9409   -6.7125 C   0  0  0  0  0  0  0  0  0  0  0  0
   17.3040  -24.8300   -7.1592 C   0  0  2  0  0  0  0  0  0  0  0  0
   17.3549  -26.0421   -6.2614 C   0  0  0  0  0  0  0  0  0  0  0  0
   17.3527  -25.2352   -8.5886 C   0  0  2  0  0  0  0  0  0  0  0  0
   17.5342  -24.1784   -9.5432 N   0  0  0  0  0  0  0  0  0  0  0  0
   16.3299  -26.1914   -8.9410 C   0  0  0  0  0  0  0  0  0  0  0  0
   15.1722  -25.8732   -9.2605 O   0  0  0  0  0  0  0  0  0  0  0  0
   16.6448  -27.5662   -8.9272 O   0  0  0  0  0  0  0  0  0  0  0  0
  2  1  1  6
  2  5  1  0
  3  2  1  0
  4  3  1  0
  5 12  1  0
  6  5  2  0
  7  8  1  0
  8  9  2  0
 10  8  1  0
 11 13  1  0
 11 10  1  6
 12 11  1  0
 13 14  2  0
 16 15  1  0
 17 16  1  0
 17 18  1  1
 19 17  1  0
 20 13  1  0
 19 20  1  6
 21 19  1  0
 22 21  2  0
 23 21  1  0
M  END
$$$$
