CNI.pdb
     RDKit          3D

 23 22  0  0  1  0  0  0  0  0999 V2000
   14.0649  -13.1245  -12.0411 N   0  0  0  0  0  0  0  0  0  0  0  0
   13.9487  -11.7757  -12.5592 C   0  0  1  0  0  0  0  0  0  0  0  0
   12.4730  -11.3870  -12.4040 C   0  0  0  0  0  0  0  0  0  0  0  0
   11.5732  -12.3532  -13.6656 S   0  0  0  0  0  0  0  0  0  0  0  0
   14.8121  -10.8378  -11.8010 C   0  0  0  0  0  0  0  0  0  0  0  0
   15.1472  -11.0577  -10.6139 O   0  0  0  0  0  0  0  0  0  0  0  0
   18.5543   -9.7058  -11.3274 N   0  0  0  0  0  0  0  0  0  0  0  0
   18.4421   -8.8050  -12.4026 C   0  0  0  0  0  0  0  0  0  0  0  0
   19.5067   -8.5723  -13.0514 O   0  0  0  0  0  0  0  0  0  0  0  0
   17.1473   -8.1970  -12.7145 C   0  0  0  0  0  0  0  0  0  0  0  0
   16.1068   -8.7021  -11.7793 C   0  0  2  0  0  0  0  0  0  0  0  0
   15.2749   -9.6591  -12.4281 N   0  0  0  0  0  0  0  0  0  0  0  0
   15.3137   -7.5872  -11.1628 C   0  0  0  0  0  0  0  0  0  0  0  0
   14.5551   -6.9507  -11.9226 O   0  0  0  0  0  0  0  0  0  0  0  0
   11.8287   -7.6426   -7.2811 C   0  0  0  0  0  0  0  0  0  0  0  0
   12.6450   -7.2852   -8.5086 C   0  0  0  0  0  0  0  0  0  0  0  0
   13.8418   -6.4830   -8.0372 C   0  0  2  0  0  0  0  0  0  0  0  0
   13.2743   -5.2280   -7.4200 C   0  0  0  0  0  0  0  0  0  0  0  0
   14.8227   -6.1450   -9.1018 C   0  0  2  0  0  0  0  0  0  0  0  0
   15.3962   -7.2526   -9.8128 N   0  0  0  0  0  0  0  0  0  0  0  0
   15.7734   -5.1369   -8.6962 C   0  0  0  0  0  0  0  0  0  0  0  0
   16.9119   -5.3968   -8.2722 O   0  0  0  0  0  0  0  0  0  0  0  0
   15.4063   -3.7776   -8.7794 O   0  0  0  0  0  0  0  0  0  0  0  0
  2  1  1  1
  2  5  1  0
  3  2  1  0
  4  3  1  0
  5 12  1  0
  6  5  2  0
  7  8  1  0
  8  9  2  0
 10  8  1  0
 11 13  1  0
 11 10  1  6
 12 11  1  0
 13 14  2  0
 16 15  1  0
 17 16  1  0
 17 18  1  6
 19 17  1  0
 20 13  1  0
 19 20  1  1
 21 19  1  0
 22 21  2  0
 23 21  1  0
M  END
$$$$
