CNI.pdb
     RDKit          3D

 23 22  0  0  1  0  0  0  0  0999 V2000
   18.2013  -13.6887  -16.7393 N   0  0  0  0  0  0  0  0  0  0  0  0
   18.3840  -12.4483  -16.0118 C   0  0  1  0  0  0  0  0  0  0  0  0
   18.8959  -12.8435  -14.6209 C   0  0  0  0  0  0  0  0  0  0  0  0
   17.5178  -13.7384  -13.8241 S   0  0  0  0  0  0  0  0  0  0  0  0
   19.3666  -11.5709  -16.6935 C   0  0  0  0  0  0  0  0  0  0  0  0
   20.2837  -12.0344  -17.4105 O   0  0  0  0  0  0  0  0  0  0  0  0
   20.6388   -5.8508  -17.7639 N   0  0  0  0  0  0  0  0  0  0  0  0
   20.3174   -7.1136  -18.2950 C   0  0  0  0  0  0  0  0  0  0  0  0
   20.8383   -7.3988  -19.4155 O   0  0  0  0  0  0  0  0  0  0  0  0
   19.4272   -8.0116  -17.5569 C   0  0  0  0  0  0  0  0  0  0  0  0
   20.1554   -9.2497  -17.1707 C   0  0  2  0  0  0  0  0  0  0  0  0
   19.2731  -10.1699  -16.5353 N   0  0  0  0  0  0  0  0  0  0  0  0
   21.3652   -8.9543  -16.3334 C   0  0  0  0  0  0  0  0  0  0  0  0
   21.1675   -8.7224  -15.1229 O   0  0  0  0  0  0  0  0  0  0  0  0
   26.7940  -10.7075  -15.0297 C   0  0  0  0  0  0  0  0  0  0  0  0
   26.2040   -9.3798  -15.4655 C   0  0  0  0  0  0  0  0  0  0  0  0
   24.9516   -9.6825  -16.2641 C   0  0  2  0  0  0  0  0  0  0  0  0
   25.4141   -9.8875  -17.6861 C   0  0  0  0  0  0  0  0  0  0  0  0
   23.9041   -8.6296  -16.2014 C   0  0  2  0  0  0  0  0  0  0  0  0
   22.6592   -8.9318  -16.8494 N   0  0  0  0  0  0  0  0  0  0  0  0
   24.4144   -7.3065  -16.4723 C   0  0  0  0  0  0  0  0  0  0  0  0
   24.0104   -6.5915  -17.4045 O   0  0  0  0  0  0  0  0  0  0  0  0
   25.4275   -6.7810  -15.6433 O   0  0  0  0  0  0  0  0  0  0  0  0
  2  1  1  6
  2  5  1  0
  3  2  1  0
  4  3  1  0
  5 12  1  0
  6  5  2  0
  7  8  1  0
  8  9  2  0
 10  8  1  0
 11 13  1  0
 11 10  1  1
 12 11  1  0
 13 14  2  0
 16 15  1  0
 17 16  1  0
 17 18  1  6
 19 17  1  0
 20 13  1  0
 19 20  1  6
 21 19  1  0
 22 21  2  0
 23 21  1  0
M  END
$$$$
