CNI.pdb
     RDKit          3D

 23 22  0  0  1  0  0  0  0  0999 V2000
   17.4344  -14.3905  -18.3296 N   0  0  0  0  0  0  0  0  0  0  0  0
   16.8905  -13.5230  -17.3034 C   0  0  1  0  0  0  0  0  0  0  0  0
   17.0327  -14.2881  -15.9817 C   0  0  0  0  0  0  0  0  0  0  0  0
   15.8787  -15.6984  -16.1016 S   0  0  0  0  0  0  0  0  0  0  0  0
   17.6342  -12.2412  -17.2405 C   0  0  0  0  0  0  0  0  0  0  0  0
   18.8547  -12.1688  -17.5146 O   0  0  0  0  0  0  0  0  0  0  0  0
   17.1192   -6.6204  -18.1808 N   0  0  0  0  0  0  0  0  0  0  0  0
   17.1162   -7.3892  -17.0022 C   0  0  0  0  0  0  0  0  0  0  0  0
   17.6671   -6.8624  -15.9887 O   0  0  0  0  0  0  0  0  0  0  0  0
   16.4990   -8.7169  -16.9975 C   0  0  0  0  0  0  0  0  0  0  0  0
   17.5475   -9.7678  -16.9050 C   0  0  2  0  0  0  0  0  0  0  0  0
   16.9542  -11.0620  -16.8614 N   0  0  0  0  0  0  0  0  0  0  0  0
   18.4810   -9.5331  -15.7538 C   0  0  0  0  0  0  0  0  0  0  0  0
   18.1009   -9.9292  -14.6328 O   0  0  0  0  0  0  0  0  0  0  0  0
   23.8451  -10.8065  -14.0320 C   0  0  0  0  0  0  0  0  0  0  0  0
   22.9031   -9.6257  -13.8937 C   0  0  0  0  0  0  0  0  0  0  0  0
   21.8986   -9.7143  -15.0257 C   0  0  2  0  0  0  0  0  0  0  0  0
   22.6918   -9.5036  -16.2923 C   0  0  0  0  0  0  0  0  0  0  0  0
   20.7789   -8.7402  -14.9415 C   0  0  2  0  0  0  0  0  0  0  0  0
   19.7178   -8.9073  -15.8941 N   0  0  0  0  0  0  0  0  0  0  0  0
   21.2255   -7.3773  -14.7755 C   0  0  0  0  0  0  0  0  0  0  0  0
   21.9318   -6.9961  -13.8271 O   0  0  0  0  0  0  0  0  0  0  0  0
   20.8487   -6.4126  -15.7331 O   0  0  0  0  0  0  0  0  0  0  0  0
  2  1  1  6
  2  5  1  0
  3  2  1  0
  4  3  1  0
  5 12  1  0
  6  5  2  0
  7  8  1  0
  8  9  2  0
 10  8  1  0
 11 13  1  0
 11 10  1  1
 12 11  1  0
 13 14  2  0
 16 15  1  0
 17 16  1  0
 17 18  1  6
 19 17  1  0
 20 13  1  0
 19 20  1  6
 21 19  1  0
 22 21  2  0
 23 21  1  0
M  END
$$$$
