CNI.pdb
     RDKit          3D

 23 22  0  0  1  0  0  0  0  0999 V2000
   19.8007  -14.8370  -19.3796 N   0  0  0  0  0  0  0  0  0  0  0  0
   18.9437  -13.8052  -18.8300 C   0  0  1  0  0  0  0  0  0  0  0  0
   18.4041  -14.3619  -17.5065 C   0  0  0  0  0  0  0  0  0  0  0  0
   17.2564  -13.0927  -16.8689 S   0  0  0  0  0  0  0  0  0  0  0  0
   19.7027  -12.5532  -18.5923 C   0  0  0  0  0  0  0  0  0  0  0  0
   20.8043  -12.5491  -17.9953 O   0  0  0  0  0  0  0  0  0  0  0  0
   21.3307   -7.8632  -19.1489 N   0  0  0  0  0  0  0  0  0  0  0  0
   20.0823   -7.8538  -19.7981 C   0  0  0  0  0  0  0  0  0  0  0  0
   19.7833   -6.7907  -20.4214 O   0  0  0  0  0  0  0  0  0  0  0  0
   19.2135   -9.0303  -19.7280 C   0  0  0  0  0  0  0  0  0  0  0  0
   19.8353  -10.0748  -18.8709 C   0  0  2  0  0  0  0  0  0  0  0  0
   19.1754  -11.3244  -19.0491 N   0  0  0  0  0  0  0  0  0  0  0  0
   19.8886   -9.6626  -17.4289 C   0  0  0  0  0  0  0  0  0  0  0  0
   18.8151   -9.7027  -16.7933 O   0  0  0  0  0  0  0  0  0  0  0  0
   24.0353  -11.2896  -14.5249 C   0  0  0  0  0  0  0  0  0  0  0  0
   22.6112  -10.9288  -14.9022 C   0  0  0  0  0  0  0  0  0  0  0  0
   22.4752   -9.4251  -14.7669 C   0  0  2  0  0  0  0  0  0  0  0  0
   22.4327   -9.1511  -13.2833 C   0  0  0  0  0  0  0  0  0  0  0  0
   21.2836   -8.8451  -15.4403 C   0  0  2  0  0  0  0  0  0  0  0  0
   21.0613   -9.2504  -16.7995 N   0  0  0  0  0  0  0  0  0  0  0  0
   21.1346   -7.4282  -15.2060 C   0  0  0  0  0  0  0  0  0  0  0  0
   20.8327   -6.9419  -14.1034 O   0  0  0  0  0  0  0  0  0  0  0  0
   21.3394   -6.5327  -16.2764 O   0  0  0  0  0  0  0  0  0  0  0  0
  2  1  1  1
  2  5  1  0
  3  2  1  0
  4  3  1  0
  5 12  1  0
  6  5  2  0
  7  8  1  0
  8  9  2  0
 10  8  1  0
 11 13  1  0
 11 10  1  6
 12 11  1  0
 13 14  2  0
 16 15  1  0
 17 16  1  0
 17 18  1  1
 19 17  1  0
 20 13  1  0
 19 20  1  6
 21 19  1  0
 22 21  2  0
 23 21  1  0
M  END
$$$$
