ICN.pdb
     RDKit          3D

 23 22  0  0  1  0  0  0  0  0999 V2000
   19.8325  -14.0525  -21.1476 C   0  0  0  0  0  0  0  0  0  0  0  0
   21.2091  -13.9642  -20.5837 C   0  0  0  0  0  0  0  0  0  0  0  0
   21.3208  -12.9815  -19.4193 C   0  0  2  0  0  0  0  0  0  0  0  0
   21.6039  -11.6413  -20.0550 C   0  0  0  0  0  0  0  0  0  0  0  0
   22.4956  -13.3666  -18.5348 C   0  0  2  0  0  0  0  0  0  0  0  0
   22.1861  -14.6553  -17.9141 N   0  0  0  0  0  0  0  0  0  0  0  0
   22.7306  -12.3732  -17.4891 C   0  0  0  0  0  0  0  0  0  0  0  0
   21.8025  -12.2194  -16.6076 O   0  0  0  0  0  0  0  0  0  0  0  0
   23.8800  -11.5661  -17.3485 N   0  0  0  0  0  0  0  0  0  0  0  0
   23.9706  -10.6016  -16.2497 C   0  0  1  0  0  0  0  0  0  0  0  0
   25.4223  -10.2174  -16.0453 C   0  0  0  0  0  0  0  0  0  0  0  0
   26.3262  -11.5336  -15.2190 S   0  0  0  0  0  0  0  0  0  0  0  0
   23.1546   -9.4176  -16.5861 C   0  0  0  0  0  0  0  0  0  0  0  0
   23.2638   -8.9238  -17.7612 O   0  0  0  0  0  0  0  0  0  0  0  0
   17.9369   -6.8953  -16.8666 N   0  0  0  0  0  0  0  0  0  0  0  0
   19.3628   -6.8365  -17.0692 C   0  0  0  0  0  0  0  0  0  0  0  0
   19.8242   -5.7999  -17.5776 O   0  0  0  0  0  0  0  0  0  0  0  0
   20.1759   -7.9822  -16.6716 C   0  0  0  0  0  0  0  0  0  0  0  0
   21.4993   -7.5749  -16.1239 C   0  0  2  0  0  0  0  0  0  0  0  0
   22.2523   -8.7680  -15.7334 N   0  0  0  0  0  0  0  0  0  0  0  0
   21.4004   -6.6733  -14.9847 C   0  0  0  0  0  0  0  0  0  0  0  0
   20.8887   -5.4952  -15.1258 O   0  0  0  0  0  0  0  0  0  0  0  0
   21.8200   -6.9727  -13.7112 O   0  0  0  0  0  0  0  0  0  0  0  0
  1  2  1  0
  2  3  1  0
  3  4  1  6
  5  3  1  0
  5  7  1  0
  5  6  1  1
  7  9  1  0
  8  7  2  0
  9 10  1  0
 10 11  1  6
 10 13  1  0
 11 12  1  0
 13 14  2  0
 13 20  1  0
 15 16  1  0
 16 18  1  0
 17 16  2  0
 19 18  1  1
 19 21  1  0
 20 19  1  0
 21 22  2  0
 21 23  1  0
M  END
$$$$
