ICN.pdb
     RDKit          3D

 23 22  0  0  1  0  0  0  0  0999 V2000
   24.8046  -20.3723   -7.9281 C   0  0  0  0  0  0  0  0  0  0  0  0
   25.7052  -20.9439   -8.9688 C   0  0  0  0  0  0  0  0  0  0  0  0
   25.4233  -20.4054  -10.3704 C   0  0  2  0  0  0  0  0  0  0  0  0
   24.0099  -20.8343  -10.6851 C   0  0  0  0  0  0  0  0  0  0  0  0
   26.3697  -21.0533  -11.3681 C   0  0  2  0  0  0  0  0  0  0  0  0
   27.7363  -20.6896  -10.9912 N   0  0  0  0  0  0  0  0  0  0  0  0
   26.1093  -20.5972  -12.7318 C   0  0  0  0  0  0  0  0  0  0  0  0
   26.2795  -19.3421  -12.9725 O   0  0  0  0  0  0  0  0  0  0  0  0
   25.6917  -21.4005  -13.8146 N   0  0  0  0  0  0  0  0  0  0  0  0
   25.4891  -20.8037  -15.1370 C   0  0  1  0  0  0  0  0  0  0  0  0
   26.2286  -21.6279  -16.1717 C   0  0  0  0  0  0  0  0  0  0  0  0
   26.0175  -20.9349  -17.8172 S   0  0  0  0  0  0  0  0  0  0  0  0
   24.0416  -20.7688  -15.4276 C   0  0  0  0  0  0  0  0  0  0  0  0
   23.3403  -21.7946  -15.1233 O   0  0  0  0  0  0  0  0  0  0  0  0
   19.2745  -19.6380  -16.9742 N   0  0  0  0  0  0  0  0  0  0  0  0
   19.7969  -18.5782  -16.1487 C   0  0  0  0  0  0  0  0  0  0  0  0
   19.0047  -17.6873  -15.7954 O   0  0  0  0  0  0  0  0  0  0  0  0
   21.2088  -18.6085  -15.7778 C   0  0  0  0  0  0  0  0  0  0  0  0
   21.9237  -19.7756  -16.3644 C   0  0  2  0  0  0  0  0  0  0  0  0
   23.3428  -19.7042  -16.0119 N   0  0  0  0  0  0  0  0  0  0  0  0
   21.7907  -19.8669  -17.8116 C   0  0  0  0  0  0  0  0  0  0  0  0
   20.9887  -20.7306  -18.3412 O   0  0  0  0  0  0  0  0  0  0  0  0
   22.4708  -19.0819  -18.7109 O   0  0  0  0  0  0  0  0  0  0  0  0
  1  2  1  0
  2  3  1  0
  3  4  1  6
  5  3  1  0
  5  7  1  0
  5  6  1  1
  7  9  1  0
  8  7  2  0
  9 10  1  0
 10 11  1  6
 10 13  1  0
 11 12  1  0
 13 14  2  0
 13 20  1  0
 15 16  1  0
 16 18  1  0
 17 16  2  0
 19 18  1  6
 19 21  1  0
 20 19  1  0
 21 22  2  0
 21 23  1  0
M  END
$$$$
