ICN.pdb
     RDKit          3D

 23 22  0  0  1  0  0  0  0  0999 V2000
   16.9351  -10.2348  -20.3046 C   0  0  0  0  0  0  0  0  0  0  0  0
   18.0240  -10.9939  -19.6274 C   0  0  0  0  0  0  0  0  0  0  0  0
   18.5092  -10.3306  -18.3395 C   0  0  2  0  0  0  0  0  0  0  0  0
   19.2112   -9.0687  -18.7815 C   0  0  0  0  0  0  0  0  0  0  0  0
   19.5126  -11.2360  -17.6435 C   0  0  2  0  0  0  0  0  0  0  0  0
   18.8130  -12.4582  -17.2454 N   0  0  0  0  0  0  0  0  0  0  0  0
   20.0804  -10.5988  -16.4573 C   0  0  0  0  0  0  0  0  0  0  0  0
   19.3199  -10.5075  -15.4203 O   0  0  0  0  0  0  0  0  0  0  0  0
   21.3856  -10.0753  -16.3357 N   0  0  0  0  0  0  0  0  0  0  0  0
   21.7755   -9.3473  -15.1258 C   0  0  1  0  0  0  0  0  0  0  0  0
   23.0278   -9.9772  -14.5498 C   0  0  0  0  0  0  0  0  0  0  0  0
   22.7900  -10.4199  -12.8236 S   0  0  0  0  0  0  0  0  0  0  0  0
   22.0108   -7.9321  -15.4760 C   0  0  0  0  0  0  0  0  0  0  0  0
   22.3164   -7.6529  -16.6865 O   0  0  0  0  0  0  0  0  0  0  0  0
   22.0948   -2.8814  -15.9364 N   0  0  0  0  0  0  0  0  0  0  0  0
   21.0430   -3.7283  -16.4404 C   0  0  0  0  0  0  0  0  0  0  0  0
   20.2165   -3.2125  -17.2130 O   0  0  0  0  0  0  0  0  0  0  0  0
   21.0063   -5.1265  -16.0215 C   0  0  0  0  0  0  0  0  0  0  0  0
   22.0760   -5.4515  -15.0379 C   0  0  2  0  0  0  0  0  0  0  0  0
   21.9292   -6.8410  -14.6008 N   0  0  0  0  0  0  0  0  0  0  0  0
   22.0750   -4.5774  -13.8733 C   0  0  0  0  0  0  0  0  0  0  0  0
   21.6627   -5.0135  -12.7290 O   0  0  0  0  0  0  0  0  0  0  0  0
   22.4925   -3.2686  -13.8770 O   0  0  0  0  0  0  0  0  0  0  0  0
  1  2  1  0
  2  3  1  0
  3  4  1  6
  5  3  1  0
  5  7  1  0
  5  6  1  1
  7  9  1  0
  8  7  2  0
  9 10  1  0
 10 11  1  6
 10 13  1  0
 11 12  1  0
 13 14  2  0
 13 20  1  0
 15 16  1  0
 16 18  1  0
 17 16  2  0
 19 18  1  6
 19 21  1  0
 20 19  1  0
 21 22  2  0
 21 23  1  0
M  END
$$$$
