DHW.pdb
     RDKit          3D

 33 35  0  0  1  0  0  0  0  0999 V2000
   34.1379  -31.9756  -19.7496 N   0  0  0  0  0  0  0  0  0  0  0  0
   34.0994  -31.0005  -18.6782 C   0  0  1  0  0  0  0  0  0  0  0  0
   35.2157  -29.9964  -18.8325 C   0  0  0  0  0  0  0  0  0  0  0  0
   36.5040  -30.6963  -18.6075 C   0  0  0  0  0  0  0  0  0  0  0  0
   36.5390  -31.9152  -18.2759 O   0  0  0  0  0  0  0  0  0  0  0  0
   32.7567  -30.3658  -18.6986 C   0  0  0  0  0  0  0  0  0  0  0  0
   32.4416  -29.4730  -17.8763 O   0  0  0  0  0  0  0  0  0  0  0  0
   37.6900  -30.0198  -18.7589 O   0  0  0  0  0  0  0  0  0  0  0  0
   31.7675  -30.7464  -19.6549 N   0  0  0  0  0  0  0  0  0  0  0  0
   30.4625  -30.1718  -19.7025 C   0  0  1  0  0  0  0  0  0  0  0  0
   30.0013  -29.7430  -21.0641 C   0  0  0  0  0  0  0  0  0  0  0  0
   28.6700  -29.1023  -21.0415 C   0  0  0  0  0  0  0  0  0  0  0  0
   28.3650  -27.8266  -20.6401 C   0  0  0  0  0  0  0  0  0  0  0  0
   27.0207  -27.6462  -20.7883 N   0  0  0  0  0  0  0  0  0  0  0  0
   26.5344  -28.7941  -21.2688 C   0  0  0  0  0  0  0  0  0  0  0  0
   27.5280  -29.6870  -21.4270 N   0  0  0  0  0  0  0  0  0  0  0  0
   29.4559  -31.0302  -18.9907 C   0  0  0  0  0  0  0  0  0  0  0  0
   29.4062  -32.2783  -19.2064 O   0  0  0  0  0  0  0  0  0  0  0  0
   28.5292  -30.4962  -18.0633 N   0  0  0  0  0  0  0  0  0  0  0  0
   27.4784  -31.2923  -17.4376 C   0  0  1  0  0  0  0  0  0  0  0  0
   26.8078  -30.5585  -16.3274 C   0  0  0  0  0  0  0  0  0  0  0  0
   25.7214  -31.2625  -15.6472 C   0  0  0  0  0  0  0  0  0  0  0  0
   25.9216  -32.2621  -14.7222 C   0  0  0  0  0  0  0  0  0  0  0  0
   24.7364  -32.6810  -14.2599 N   0  0  0  0  0  0  0  0  0  0  0  0
   23.7445  -31.9853  -14.8548 C   0  0  0  0  0  0  0  0  0  0  0  0
   22.3717  -32.0534  -14.7167 C   0  0  0  0  0  0  0  0  0  0  0  0
   21.5569  -31.2117  -15.4676 C   0  0  0  0  0  0  0  0  0  0  0  0
   22.1545  -30.3244  -16.3365 C   0  0  0  0  0  0  0  0  0  0  0  0
   23.5210  -30.2782  -16.4528 C   0  0  0  0  0  0  0  0  0  0  0  0
   24.3614  -31.1043  -15.7173 C   0  0  0  0  0  0  0  0  0  0  0  0
   26.6133  -31.9465  -18.4218 C   0  0  0  0  0  0  0  0  0  0  0  0
   26.1166  -33.2229  -18.2361 O   0  0  0  0  0  0  0  0  0  0  0  0
   26.2863  -31.3603  -19.4997 O   0  0  0  0  0  0  0  0  0  0  0  0
  2  1  1  6
  2  3  1  0
  3  4  1  0
  4  8  1  0
  5  4  2  0
  6  2  1  0
  6  7  2  0
  9  6  1  0
 10  9  1  0
 10 11  1  6
 12 11  1  0
 12 16  1  0
 13 14  1  0
 13 12  2  0
 14 15  1  0
 15 16  2  0
 17 10  1  0
 18 17  2  0
 19 17  1  0
 20 19  1  0
 21 22  1  0
 20 21  1  1
 22 30  1  0
 22 23  2  0
 23 24  1  0
 25 26  2  0
 25 24  1  0
 27 26  1  0
 28 27  2  0
 29 28  1  0
 29 30  2  0
 30 25  1  0
 31 20  1  0
 31 32  1  0
 33 31  2  0
M  END
$$$$
