DHW.pdb
     RDKit          3D

 33 35  0  0  1  0  0  0  0  0999 V2000
   28.4601  -32.4541  -17.3156 N   0  0  0  0  0  0  0  0  0  0  0  0
   27.6441  -31.8114  -18.3262 C   0  0  1  0  0  0  0  0  0  0  0  0
   26.9938  -32.8407  -19.2184 C   0  0  0  0  0  0  0  0  0  0  0  0
   28.0525  -33.4818  -20.0358 C   0  0  0  0  0  0  0  0  0  0  0  0
   27.9240  -34.6632  -20.4657 O   0  0  0  0  0  0  0  0  0  0  0  0
   26.6512  -30.9587  -17.6240 C   0  0  0  0  0  0  0  0  0  0  0  0
   26.3297  -31.1741  -16.4312 O   0  0  0  0  0  0  0  0  0  0  0  0
   29.2000  -32.7905  -20.3400 O   0  0  0  0  0  0  0  0  0  0  0  0
   26.0200  -29.8580  -18.2782 N   0  0  0  0  0  0  0  0  0  0  0  0
   25.0686  -29.0083  -17.6390 C   0  0  1  0  0  0  0  0  0  0  0  0
   25.3985  -27.5451  -17.6647 C   0  0  0  0  0  0  0  0  0  0  0  0
   26.7574  -27.2562  -17.1613 C   0  0  0  0  0  0  0  0  0  0  0  0
   27.2154  -27.3860  -15.8749 C   0  0  0  0  0  0  0  0  0  0  0  0
   28.5294  -27.0191  -15.8543 N   0  0  0  0  0  0  0  0  0  0  0  0
   28.8475  -26.6765  -17.1059 C   0  0  0  0  0  0  0  0  0  0  0  0
   27.7780  -26.8168  -17.9097 N   0  0  0  0  0  0  0  0  0  0  0  0
   23.6701  -29.2979  -18.1049 C   0  0  0  0  0  0  0  0  0  0  0  0
   23.4515  -29.6639  -19.2986 O   0  0  0  0  0  0  0  0  0  0  0  0
   22.5487  -29.1759  -17.2496 N   0  0  0  0  0  0  0  0  0  0  0  0
   21.1816  -29.4442  -17.6840 C   0  0  1  0  0  0  0  0  0  0  0  0
   20.3114  -29.8771  -16.5544 C   0  0  0  0  0  0  0  0  0  0  0  0
   18.9405  -30.2525  -16.8981 C   0  0  0  0  0  0  0  0  0  0  0  0
   18.5378  -31.5501  -17.1193 C   0  0  0  0  0  0  0  0  0  0  0  0
   17.2241  -31.5672  -17.3802 N   0  0  0  0  0  0  0  0  0  0  0  0
   16.7360  -30.3096  -17.3400 C   0  0  0  0  0  0  0  0  0  0  0  0
   15.4608  -29.8183  -17.5427 C   0  0  0  0  0  0  0  0  0  0  0  0
   15.2218  -28.4509  -17.4480 C   0  0  0  0  0  0  0  0  0  0  0  0
   16.2797  -27.6193  -17.1502 C   0  0  0  0  0  0  0  0  0  0  0  0
   17.5359  -28.1350  -16.9533 C   0  0  0  0  0  0  0  0  0  0  0  0
   17.8069  -29.4947  -17.0403 C   0  0  0  0  0  0  0  0  0  0  0  0
   20.6595  -28.3954  -18.5629 C   0  0  0  0  0  0  0  0  0  0  0  0
   19.8037  -28.6699  -19.6130 O   0  0  0  0  0  0  0  0  0  0  0  0
   20.9813  -27.1786  -18.3947 O   0  0  0  0  0  0  0  0  0  0  0  0
  2  1  1  1
  2  3  1  0
  3  4  1  0
  4  8  1  0
  5  4  2  0
  6  2  1  0
  6  7  2  0
  9  6  1  0
 10  9  1  0
 10 11  1  6
 12 11  1  0
 12 16  1  0
 13 14  1  0
 13 12  2  0
 14 15  1  0
 15 16  2  0
 17 10  1  0
 18 17  2  0
 19 17  1  0
 20 19  1  0
 21 22  1  0
 20 21  1  1
 22 30  1  0
 22 23  2  0
 23 24  1  0
 25 26  2  0
 25 24  1  0
 27 26  1  0
 28 27  2  0
 29 28  1  0
 29 30  2  0
 30 25  1  0
 31 20  1  0
 31 32  1  0
 33 31  2  0
M  END
$$$$
