DHW.pdb
     RDKit          3D

 33 35  0  0  1  0  0  0  0  0999 V2000
   17.8253  -10.9618  -14.9439 N   0  0  0  0  0  0  0  0  0  0  0  0
   16.8013  -10.2156  -14.2404 C   0  0  1  0  0  0  0  0  0  0  0  0
   15.8684  -11.1510  -13.5104 C   0  0  0  0  0  0  0  0  0  0  0  0
   15.0829  -11.9037  -14.5187 C   0  0  0  0  0  0  0  0  0  0  0  0
   14.6310  -13.0574  -14.2702 O   0  0  0  0  0  0  0  0  0  0  0  0
   17.4871   -9.2677  -13.3255 C   0  0  0  0  0  0  0  0  0  0  0  0
   18.2904   -9.6678  -12.4496 O   0  0  0  0  0  0  0  0  0  0  0  0
   14.8334  -11.3489  -15.7503 O   0  0  0  0  0  0  0  0  0  0  0  0
   17.2597   -7.8605  -13.4039 N   0  0  0  0  0  0  0  0  0  0  0  0
   17.8422   -6.9218  -12.5012 C   0  0  1  0  0  0  0  0  0  0  0  0
   18.9016   -6.0387  -13.0916 C   0  0  0  0  0  0  0  0  0  0  0  0
   20.0360   -6.8023  -13.6514 C   0  0  0  0  0  0  0  0  0  0  0  0
   20.3461   -6.9852  -14.9750 C   0  0  0  0  0  0  0  0  0  0  0  0
   21.4754   -7.7478  -15.0438 N   0  0  0  0  0  0  0  0  0  0  0  0
   21.8306   -8.0145  -13.7837 C   0  0  0  0  0  0  0  0  0  0  0  0
   20.9630   -7.4446  -12.9282 N   0  0  0  0  0  0  0  0  0  0  0  0
   16.7916   -6.1505  -11.7540 C   0  0  0  0  0  0  0  0  0  0  0  0
   15.7510   -5.7375  -12.3482 O   0  0  0  0  0  0  0  0  0  0  0  0
   16.9119   -5.8511  -10.3756 N   0  0  0  0  0  0  0  0  0  0  0  0
   15.8660   -5.1789   -9.6115 C   0  0  1  0  0  0  0  0  0  0  0  0
   15.5084   -5.9291   -8.3745 C   0  0  0  0  0  0  0  0  0  0  0  0
   14.8439   -7.2176   -8.5662 C   0  0  0  0  0  0  0  0  0  0  0  0
   15.5060   -8.3725   -8.9166 C   0  0  0  0  0  0  0  0  0  0  0  0
   14.6289   -9.3827   -8.9823 N   0  0  0  0  0  0  0  0  0  0  0  0
   13.3923   -8.9315   -8.6847 C   0  0  0  0  0  0  0  0  0  0  0  0
   12.1741   -9.5800   -8.6234 C   0  0  0  0  0  0  0  0  0  0  0  0
   11.0255   -8.8677   -8.2925 C   0  0  0  0  0  0  0  0  0  0  0  0
   11.1424   -7.5194   -8.0322 C   0  0  0  0  0  0  0  0  0  0  0  0
   12.3656   -6.9012   -8.1000 C   0  0  0  0  0  0  0  0  0  0  0  0
   13.5303   -7.5842   -8.4269 C   0  0  0  0  0  0  0  0  0  0  0  0
   16.1135   -3.7423   -9.4710 C   0  0  0  0  0  0  0  0  0  0  0  0
   15.1583   -2.8728   -8.9792 O   0  0  0  0  0  0  0  0  0  0  0  0
   17.2279   -3.2332   -9.8048 O   0  0  0  0  0  0  0  0  0  0  0  0
  2  1  1  1
  2  3  1  0
  3  4  1  0
  4  8  1  0
  5  4  2  0
  6  2  1  0
  6  7  2  0
  9  6  1  0
 10  9  1  0
 10 11  1  6
 12 11  1  0
 12 16  1  0
 13 14  1  0
 13 12  2  0
 14 15  1  0
 15 16  2  0
 17 10  1  0
 18 17  2  0
 19 17  1  0
 20 19  1  0
 21 22  1  0
 20 21  1  1
 22 30  1  0
 22 23  2  0
 23 24  1  0
 25 26  2  0
 25 24  1  0
 27 26  1  0
 28 27  2  0
 29 28  1  0
 29 30  2  0
 30 25  1  0
 31 20  1  0
 31 32  1  0
 33 31  2  0
M  END
$$$$
