DHW.pdb
     RDKit          3D

 33 35  0  0  1  0  0  0  0  0999 V2000
   27.1207  -18.2656  -17.4452 N   0  0  0  0  0  0  0  0  0  0  0  0
   25.8414  -17.6608  -17.7579 C   0  0  1  0  0  0  0  0  0  0  0  0
   25.7846  -17.2580  -19.2115 C   0  0  0  0  0  0  0  0  0  0  0  0
   26.9313  -16.3590  -19.4892 C   0  0  0  0  0  0  0  0  0  0  0  0
   27.3223  -15.5123  -18.6365 O   0  0  0  0  0  0  0  0  0  0  0  0
   24.7837  -18.6391  -17.3971 C   0  0  0  0  0  0  0  0  0  0  0  0
   23.9569  -19.0524  -18.2446 O   0  0  0  0  0  0  0  0  0  0  0  0
   27.5910  -16.4369  -20.6916 O   0  0  0  0  0  0  0  0  0  0  0  0
   24.6631  -19.1497  -16.0694 N   0  0  0  0  0  0  0  0  0  0  0  0
   23.6514  -20.0753  -15.6755 C   0  0  1  0  0  0  0  0  0  0  0  0
   24.1309  -21.2375  -14.8570 C   0  0  0  0  0  0  0  0  0  0  0  0
   25.0679  -22.1092  -15.5956 C   0  0  0  0  0  0  0  0  0  0  0  0
   24.8026  -23.3321  -16.1575 C   0  0  0  0  0  0  0  0  0  0  0  0
   25.9472  -23.7846  -16.7464 N   0  0  0  0  0  0  0  0  0  0  0  0
   26.8771  -22.8481  -16.5381 C   0  0  0  0  0  0  0  0  0  0  0  0
   26.3540  -21.8244  -15.8396 N   0  0  0  0  0  0  0  0  0  0  0  0
   22.4739  -19.3754  -15.0585 C   0  0  0  0  0  0  0  0  0  0  0  0
   22.5870  -18.7867  -13.9418 O   0  0  0  0  0  0  0  0  0  0  0  0
   21.2034  -19.3422  -15.6821 N   0  0  0  0  0  0  0  0  0  0  0  0
   20.0734  -18.5878  -15.1497 C   0  0  1  0  0  0  0  0  0  0  0  0
   19.9324  -17.2565  -15.8044 C   0  0  0  0  0  0  0  0  0  0  0  0
   19.4978  -17.2627  -17.2007 C   0  0  0  0  0  0  0  0  0  0  0  0
   18.2175  -17.5734  -17.5996 C   0  0  0  0  0  0  0  0  0  0  0  0
   18.1287  -17.4582  -18.9311 N   0  0  0  0  0  0  0  0  0  0  0  0
   19.3215  -17.0780  -19.4353 C   0  0  0  0  0  0  0  0  0  0  0  0
   19.7285  -16.8349  -20.7328 C   0  0  0  0  0  0  0  0  0  0  0  0
   21.0424  -16.4541  -20.9873 C   0  0  0  0  0  0  0  0  0  0  0  0
   21.9072  -16.3295  -19.9214 C   0  0  0  0  0  0  0  0  0  0  0  0
   21.4753  -16.5769  -18.6426 C   0  0  0  0  0  0  0  0  0  0  0  0
   20.1705  -16.9579  -18.3557 C   0  0  0  0  0  0  0  0  0  0  0  0
   18.8630  -19.4041  -15.0329 C   0  0  0  0  0  0  0  0  0  0  0  0
   17.7979  -19.0356  -14.2327 O   0  0  0  0  0  0  0  0  0  0  0  0
   18.7464  -20.4982  -15.6666 O   0  0  0  0  0  0  0  0  0  0  0  0
  2  1  1  6
  2  3  1  0
  3  4  1  0
  4  8  1  0
  5  4  2  0
  6  2  1  0
  6  7  2  0
  9  6  1  0
 10  9  1  0
 10 11  1  1
 12 11  1  0
 12 16  1  0
 13 14  1  0
 13 12  2  0
 14 15  1  0
 15 16  2  0
 17 10  1  0
 18 17  2  0
 19 17  1  0
 20 19  1  0
 21 22  1  0
 20 21  1  6
 22 30  1  0
 22 23  2  0
 23 24  1  0
 25 26  2  0
 25 24  1  0
 27 26  1  0
 28 27  2  0
 29 28  1  0
 29 30  2  0
 30 25  1  0
 31 20  1  0
 31 32  1  0
 33 31  2  0
M  END
$$$$
