DHW.pdb
     RDKit          3D

 33 35  0  0  1  0  0  0  0  0999 V2000
   17.6960  -10.9977  -14.4007 N   0  0  0  0  0  0  0  0  0  0  0  0
   16.5945  -10.2374  -13.8449 C   0  0  1  0  0  0  0  0  0  0  0  0
   15.7484  -11.1064  -12.9464 C   0  0  0  0  0  0  0  0  0  0  0  0
   14.9336  -12.0036  -13.8015 C   0  0  0  0  0  0  0  0  0  0  0  0
   14.4104  -11.5898  -14.8748 O   0  0  0  0  0  0  0  0  0  0  0  0
   17.1718   -9.0712  -13.1289 C   0  0  0  0  0  0  0  0  0  0  0  0
   17.9770   -9.2187  -12.1789 O   0  0  0  0  0  0  0  0  0  0  0  0
   14.7354  -13.3120  -13.4330 O   0  0  0  0  0  0  0  0  0  0  0  0
   16.8334   -7.7326  -13.4916 N   0  0  0  0  0  0  0  0  0  0  0  0
   17.3990   -6.5841  -12.8619 C   0  0  1  0  0  0  0  0  0  0  0  0
   18.2182   -5.7019  -13.7570 C   0  0  0  0  0  0  0  0  0  0  0  0
   19.4226   -6.3792  -14.2809 C   0  0  0  0  0  0  0  0  0  0  0  0
   20.5048   -6.8266  -13.5668 C   0  0  0  0  0  0  0  0  0  0  0  0
   21.3835   -7.3955  -14.4419 N   0  0  0  0  0  0  0  0  0  0  0  0
   20.8343   -7.2880  -15.6551 C   0  0  0  0  0  0  0  0  0  0  0  0
   19.6416   -6.6718  -15.5697 N   0  0  0  0  0  0  0  0  0  0  0  0
   16.3690   -5.8217  -12.0780 C   0  0  0  0  0  0  0  0  0  0  0  0
   15.2150   -5.6155  -12.5601 O   0  0  0  0  0  0  0  0  0  0  0  0
   16.6332   -5.3041  -10.7871 N   0  0  0  0  0  0  0  0  0  0  0  0
   15.6608   -4.5273  -10.0251 C   0  0  1  0  0  0  0  0  0  0  0  0
   15.5602   -4.9901   -8.6122 C   0  0  0  0  0  0  0  0  0  0  0  0
   14.9495   -6.3018   -8.4008 C   0  0  0  0  0  0  0  0  0  0  0  0
   15.6537   -7.4843   -8.4273 C   0  0  0  0  0  0  0  0  0  0  0  0
   14.8213   -8.5010   -8.1680 N   0  0  0  0  0  0  0  0  0  0  0  0
   13.5732   -8.0275   -7.9688 C   0  0  0  0  0  0  0  0  0  0  0  0
   12.3869   -8.6737   -7.6798 C   0  0  0  0  0  0  0  0  0  0  0  0
   11.2160   -7.9377   -7.5271 C   0  0  0  0  0  0  0  0  0  0  0  0
   11.2788   -6.5684   -7.6705 C   0  0  0  0  0  0  0  0  0  0  0  0
   12.4713   -5.9529   -7.9571 C   0  0  0  0  0  0  0  0  0  0  0  0
   13.6571   -6.6592   -8.1149 C   0  0  0  0  0  0  0  0  0  0  0  0
   15.8019   -3.0863  -10.2456 C   0  0  0  0  0  0  0  0  0  0  0  0
   14.7954   -2.1900   -9.9387 O   0  0  0  0  0  0  0  0  0  0  0  0
   16.8663   -2.5994  -10.7381 O   0  0  0  0  0  0  0  0  0  0  0  0
  2  1  1  1
  2  3  1  0
  3  4  1  0
  4  8  1  0
  5  4  2  0
  6  2  1  0
  6  7  2  0
  9  6  1  0
 10  9  1  0
 10 11  1  6
 12 11  1  0
 12 16  1  0
 13 14  1  0
 13 12  2  0
 14 15  1  0
 15 16  2  0
 17 10  1  0
 18 17  2  0
 19 17  1  0
 20 19  1  0
 21 22  1  0
 20 21  1  1
 22 30  1  0
 22 23  2  0
 23 24  1  0
 25 26  2  0
 25 24  1  0
 27 26  1  0
 28 27  2  0
 29 28  1  0
 29 30  2  0
 30 25  1  0
 31 20  1  0
 31 32  1  0
 33 31  2  0
M  END
$$$$
