DHW.pdb
     RDKit          3D

 33 35  0  0  1  0  0  0  0  0999 V2000
   29.2053  -20.5318  -18.9544 N   0  0  0  0  0  0  0  0  0  0  0  0
   28.5207  -21.4364  -18.0526 C   0  0  1  0  0  0  0  0  0  0  0  0
   29.3387  -22.6852  -17.8295 C   0  0  0  0  0  0  0  0  0  0  0  0
   28.9350  -23.6916  -18.8416 C   0  0  0  0  0  0  0  0  0  0  0  0
   28.0420  -23.4377  -19.6990 O   0  0  0  0  0  0  0  0  0  0  0  0
   28.2564  -20.6969  -16.7920 C   0  0  0  0  0  0  0  0  0  0  0  0
   29.1920  -20.2779  -16.0697 O   0  0  0  0  0  0  0  0  0  0  0  0
   29.5345  -24.9274  -18.8601 O   0  0  0  0  0  0  0  0  0  0  0  0
   26.9254  -20.4326  -16.3486 N   0  0  0  0  0  0  0  0  0  0  0  0
   26.6266  -19.7391  -15.1382 C   0  0  1  0  0  0  0  0  0  0  0  0
   25.9552  -18.4088  -15.3118 C   0  0  0  0  0  0  0  0  0  0  0  0
   26.8308  -17.4056  -15.9524 C   0  0  0  0  0  0  0  0  0  0  0  0
   28.1368  -17.5647  -16.3405 C   0  0  0  0  0  0  0  0  0  0  0  0
   28.5601  -16.3915  -16.8936 N   0  0  0  0  0  0  0  0  0  0  0  0
   27.5247  -15.5490  -16.8352 C   0  0  0  0  0  0  0  0  0  0  0  0
   26.4675  -16.1546  -16.2651 N   0  0  0  0  0  0  0  0  0  0  0  0
   25.9156  -20.6259  -14.1558 C   0  0  0  0  0  0  0  0  0  0  0  0
   24.9201  -21.3213  -14.5188 O   0  0  0  0  0  0  0  0  0  0  0  0
   26.3145  -20.7242  -12.8010 N   0  0  0  0  0  0  0  0  0  0  0  0
   25.6220  -21.5587  -11.8245 C   0  0  1  0  0  0  0  0  0  0  0  0
   26.5043  -21.9314  -10.6828 C   0  0  0  0  0  0  0  0  0  0  0  0
   26.6700  -20.9247   -9.6351 C   0  0  0  0  0  0  0  0  0  0  0  0
   25.7427  -19.9433   -9.3669 C   0  0  0  0  0  0  0  0  0  0  0  0
   26.1684  -19.2024   -8.3354 N   0  0  0  0  0  0  0  0  0  0  0  0
   27.3617  -19.6640   -7.9058 C   0  0  0  0  0  0  0  0  0  0  0  0
   28.1928  -19.2374   -6.8881 C   0  0  0  0  0  0  0  0  0  0  0  0
   29.3954  -19.8966   -6.6531 C   0  0  0  0  0  0  0  0  0  0  0  0
   29.7227  -20.9693   -7.4541 C   0  0  0  0  0  0  0  0  0  0  0  0
   28.8776  -21.3715   -8.4576 C   0  0  0  0  0  0  0  0  0  0  0  0
   27.6703  -20.7350   -8.7171 C   0  0  0  0  0  0  0  0  0  0  0  0
   24.2899  -21.0458  -11.4971 C   0  0  0  0  0  0  0  0  0  0  0  0
   23.9738  -19.7029  -11.5827 O   0  0  0  0  0  0  0  0  0  0  0  0
   23.3637  -21.8245  -11.1122 O   0  0  0  0  0  0  0  0  0  0  0  0
  2  1  1  6
  2  3  1  0
  3  4  1  0
  4  8  1  0
  5  4  2  0
  6  2  1  0
  6  7  2  0
  9  6  1  0
 10  9  1  0
 10 11  1  6
 12 11  1  0
 12 16  1  0
 13 14  1  0
 13 12  2  0
 14 15  1  0
 15 16  2  0
 17 10  1  0
 18 17  2  0
 19 17  1  0
 20 19  1  0
 21 22  1  0
 20 21  1  1
 22 30  1  0
 22 23  2  0
 23 24  1  0
 25 26  2  0
 25 24  1  0
 27 26  1  0
 28 27  2  0
 29 28  1  0
 29 30  2  0
 30 25  1  0
 31 20  1  0
 31 32  1  0
 33 31  2  0
M  END
$$$$
