DHW.pdb
     RDKit          3D

 33 35  0  0  1  0  0  0  0  0999 V2000
   45.3097  -14.8870  -12.5132 N   0  0  0  0  0  0  0  0  0  0  0  0
   44.6191  -14.7097  -11.2515 C   0  0  1  0  0  0  0  0  0  0  0  0
   44.6235  -15.9936  -10.4578 C   0  0  0  0  0  0  0  0  0  0  0  0
   43.7435  -16.9686  -11.1471 C   0  0  0  0  0  0  0  0  0  0  0  0
   43.1312  -16.6625  -12.2094 O   0  0  0  0  0  0  0  0  0  0  0  0
   45.2828  -13.5933  -10.5310 C   0  0  0  0  0  0  0  0  0  0  0  0
   44.8684  -13.1945   -9.4166 O   0  0  0  0  0  0  0  0  0  0  0  0
   43.5816  -18.2322  -10.6333 O   0  0  0  0  0  0  0  0  0  0  0  0
   46.4205  -12.9262  -11.0774 N   0  0  0  0  0  0  0  0  0  0  0  0
   47.1052  -11.8693  -10.4069 C   0  0  1  0  0  0  0  0  0  0  0  0
   48.5937  -11.8516  -10.5932 C   0  0  0  0  0  0  0  0  0  0  0  0
   49.2289  -13.1399  -10.2466 C   0  0  0  0  0  0  0  0  0  0  0  0
   49.7444  -14.0742  -11.1085 C   0  0  0  0  0  0  0  0  0  0  0  0
   50.2386  -15.1073  -10.3668 N   0  0  0  0  0  0  0  0  0  0  0  0
   50.0205  -14.7937   -9.0865 C   0  0  0  0  0  0  0  0  0  0  0  0
   49.4072  -13.5995   -9.0010 N   0  0  0  0  0  0  0  0  0  0  0  0
   46.4682  -10.5371  -10.6832 C   0  0  0  0  0  0  0  0  0  0  0  0
   46.1134  -10.2242  -11.8591 O   0  0  0  0  0  0  0  0  0  0  0  0
   46.2397   -9.5831   -9.6626 N   0  0  0  0  0  0  0  0  0  0  0  0
   45.7084   -8.2491   -9.9226 C   0  0  1  0  0  0  0  0  0  0  0  0
   44.2450   -8.1683   -9.6528 C   0  0  0  0  0  0  0  0  0  0  0  0
   43.6173   -6.8644   -9.8630 C   0  0  0  0  0  0  0  0  0  0  0  0
   42.9629   -6.5107  -11.0212 C   0  0  0  0  0  0  0  0  0  0  0  0
   42.4726   -5.2710  -10.8915 N   0  0  0  0  0  0  0  0  0  0  0  0
   42.7842   -4.7840   -9.6720 C   0  0  0  0  0  0  0  0  0  0  0  0
   42.5099   -3.5676   -9.0774 C   0  0  0  0  0  0  0  0  0  0  0  0
   42.9607   -3.3098   -7.7865 C   0  0  0  0  0  0  0  0  0  0  0  0
   43.6758   -4.2905   -7.1336 C   0  0  0  0  0  0  0  0  0  0  0  0
   43.9331   -5.4900   -7.7485 C   0  0  0  0  0  0  0  0  0  0  0  0
   43.4966   -5.7780   -9.0355 C   0  0  0  0  0  0  0  0  0  0  0  0
   46.5496   -7.1931   -9.3548 C   0  0  0  0  0  0  0  0  0  0  0  0
   47.3223   -7.3911   -8.2260 O   0  0  0  0  0  0  0  0  0  0  0  0
   46.5980   -6.0389   -9.8818 O   0  0  0  0  0  0  0  0  0  0  0  0
  2  1  1  6
  2  3  1  0
  3  4  1  0
  4  8  1  0
  5  4  2  0
  6  2  1  0
  6  7  2  0
  9  6  1  0
 10  9  1  0
 10 11  1  6
 12 11  1  0
 12 16  1  0
 13 14  1  0
 13 12  2  0
 14 15  1  0
 15 16  2  0
 17 10  1  0
 18 17  2  0
 19 17  1  0
 20 19  1  0
 21 22  1  0
 20 21  1  1
 22 30  1  0
 22 23  2  0
 23 24  1  0
 25 26  2  0
 25 24  1  0
 27 26  1  0
 28 27  2  0
 29 28  1  0
 29 30  2  0
 30 25  1  0
 31 20  1  0
 31 32  1  0
 33 31  2  0
M  END
$$$$
