DHW.pdb
     RDKit          3D

 33 35  0  0  1  0  0  0  0  0999 V2000
   35.2202  -26.6525  -21.9965 N   0  0  0  0  0  0  0  0  0  0  0  0
   34.0790  -26.8609  -21.1279 C   0  0  1  0  0  0  0  0  0  0  0  0
   32.8038  -26.9302  -21.9325 C   0  0  0  0  0  0  0  0  0  0  0  0
   31.6624  -27.0042  -20.9881 C   0  0  0  0  0  0  0  0  0  0  0  0
   31.7631  -26.5771  -19.8030 O   0  0  0  0  0  0  0  0  0  0  0  0
   34.3289  -28.1013  -20.3502 C   0  0  0  0  0  0  0  0  0  0  0  0
   34.1371  -29.2364  -20.8477 O   0  0  0  0  0  0  0  0  0  0  0  0
   30.4667  -27.5443  -21.3951 O   0  0  0  0  0  0  0  0  0  0  0  0
   34.7974  -28.0537  -19.0025 N   0  0  0  0  0  0  0  0  0  0  0  0
   35.0333  -29.2192  -18.2141 C   0  0  1  0  0  0  0  0  0  0  0  0
   35.8284  -28.9945  -16.9620 C   0  0  0  0  0  0  0  0  0  0  0  0
   36.1571  -30.2524  -16.2597 C   0  0  0  0  0  0  0  0  0  0  0  0
   35.9341  -31.5337  -16.6957 C   0  0  0  0  0  0  0  0  0  0  0  0
   36.3963  -32.3921  -15.7411 N   0  0  0  0  0  0  0  0  0  0  0  0
   36.8850  -31.6351  -14.7545 C   0  0  0  0  0  0  0  0  0  0  0  0
   36.7452  -30.3323  -15.0587 N   0  0  0  0  0  0  0  0  0  0  0  0
   33.7642  -29.9845  -17.9680 C   0  0  0  0  0  0  0  0  0  0  0  0
   32.8423  -29.4903  -17.2521 O   0  0  0  0  0  0  0  0  0  0  0  0
   33.5414  -31.2723  -18.5120 N   0  0  0  0  0  0  0  0  0  0  0  0
   32.3019  -32.0172  -18.3161 C   0  0  1  0  0  0  0  0  0  0  0  0
   31.5539  -32.2021  -19.5917 C   0  0  0  0  0  0  0  0  0  0  0  0
   30.2758  -32.9065  -19.4983 C   0  0  0  0  0  0  0  0  0  0  0  0
   29.3349  -32.6538  -18.5259 C   0  0  0  0  0  0  0  0  0  0  0  0
   28.2667  -33.4357  -18.7299 N   0  0  0  0  0  0  0  0  0  0  0  0
   28.4700  -34.2087  -19.8174 C   0  0  0  0  0  0  0  0  0  0  0  0
   27.6751  -35.1649  -20.4193 C   0  0  0  0  0  0  0  0  0  0  0  0
   28.1327  -35.8353  -21.5494 C   0  0  0  0  0  0  0  0  0  0  0  0
   29.3815  -35.5186  -22.0390 C   0  0  0  0  0  0  0  0  0  0  0  0
   30.1493  -34.5639  -21.4211 C   0  0  0  0  0  0  0  0  0  0  0  0
   29.7210  -33.8768  -20.2922 C   0  0  0  0  0  0  0  0  0  0  0  0
   32.4900  -33.2023  -17.4764 C   0  0  0  0  0  0  0  0  0  0  0  0
   31.6760  -33.4772  -16.3937 O   0  0  0  0  0  0  0  0  0  0  0  0
   33.4232  -34.0308  -17.7111 O   0  0  0  0  0  0  0  0  0  0  0  0
  2  1  1  6
  2  3  1  0
  3  4  1  0
  4  8  1  0
  5  4  2  0
  6  2  1  0
  6  7  2  0
  9  6  1  0
 10  9  1  0
 10 11  1  1
 12 11  1  0
 12 16  1  0
 13 14  1  0
 13 12  2  0
 14 15  1  0
 15 16  2  0
 17 10  1  0
 18 17  2  0
 19 17  1  0
 20 19  1  0
 21 22  1  0
 20 21  1  6
 22 30  1  0
 22 23  2  0
 23 24  1  0
 25 26  2  0
 25 24  1  0
 27 26  1  0
 28 27  2  0
 29 28  1  0
 29 30  2  0
 30 25  1  0
 31 20  1  0
 31 32  1  0
 33 31  2  0
M  END
$$$$
