DHW.pdb
     RDKit          3D

 33 35  0  0  1  0  0  0  0  0999 V2000
   20.3477  -21.1820  -13.9694 N   0  0  0  0  0  0  0  0  0  0  0  0
   21.2286  -20.2534  -13.2898 C   0  0  1  0  0  0  0  0  0  0  0  0
   20.4576  -19.4197  -12.2954 C   0  0  0  0  0  0  0  0  0  0  0  0
   19.4827  -18.5887  -13.0432 C   0  0  0  0  0  0  0  0  0  0  0  0
   19.7603  -18.1182  -14.1827 O   0  0  0  0  0  0  0  0  0  0  0  0
   22.3084  -21.0475  -12.6500 C   0  0  0  0  0  0  0  0  0  0  0  0
   22.0654  -21.8572  -11.7238 O   0  0  0  0  0  0  0  0  0  0  0  0
   18.2506  -18.3173  -12.4999 O   0  0  0  0  0  0  0  0  0  0  0  0
   23.6694  -20.9217  -13.0621 N   0  0  0  0  0  0  0  0  0  0  0  0
   24.7384  -21.6565  -12.4682 C   0  0  1  0  0  0  0  0  0  0  0  0
   25.6448  -22.3609  -13.4340 C   0  0  0  0  0  0  0  0  0  0  0  0
   26.3728  -21.4284  -14.3193 C   0  0  0  0  0  0  0  0  0  0  0  0
   26.2384  -20.0649  -14.3857 C   0  0  0  0  0  0  0  0  0  0  0  0
   27.1040  -19.5998  -15.3322 N   0  0  0  0  0  0  0  0  0  0  0  0
   27.7416  -20.6673  -15.8208 C   0  0  0  0  0  0  0  0  0  0  0  0
   27.3055  -21.7850  -15.2124 N   0  0  0  0  0  0  0  0  0  0  0  0
   25.4886  -20.8258  -11.4661 C   0  0  0  0  0  0  0  0  0  0  0  0
   25.6128  -19.5751  -11.6301 O   0  0  0  0  0  0  0  0  0  0  0  0
   26.0842  -21.3898  -10.3124 N   0  0  0  0  0  0  0  0  0  0  0  0
   26.9587  -20.6381   -9.4181 C   0  0  1  0  0  0  0  0  0  0  0  0
   26.6091  -20.8517   -7.9853 C   0  0  0  0  0  0  0  0  0  0  0  0
   27.2603  -19.9675   -7.0196 C   0  0  0  0  0  0  0  0  0  0  0  0
   27.2793  -18.5958   -7.1333 C   0  0  0  0  0  0  0  0  0  0  0  0
   27.9220  -18.0734   -6.0806 N   0  0  0  0  0  0  0  0  0  0  0  0
   28.3359  -19.0642   -5.2629 C   0  0  0  0  0  0  0  0  0  0  0  0
   29.0342  -19.0327   -4.0714 C   0  0  0  0  0  0  0  0  0  0  0  0
   29.3470  -20.2216   -3.4197 C   0  0  0  0  0  0  0  0  0  0  0  0
   28.9437  -21.4088   -3.9919 C   0  0  0  0  0  0  0  0  0  0  0  0
   28.2507  -21.4101   -5.1762 C   0  0  0  0  0  0  0  0  0  0  0  0
   27.9227  -20.2408   -5.8508 C   0  0  0  0  0  0  0  0  0  0  0  0
   28.3713  -20.7623   -9.7846 C   0  0  0  0  0  0  0  0  0  0  0  0
   29.3199  -19.8360   -9.3940 O   0  0  0  0  0  0  0  0  0  0  0  0
   28.7829  -21.7356  -10.4886 O   0  0  0  0  0  0  0  0  0  0  0  0
  2  1  1  1
  2  3  1  0
  3  4  1  0
  4  8  1  0
  5  4  2  0
  6  2  1  0
  6  7  2  0
  9  6  1  0
 10  9  1  0
 10 11  1  6
 12 11  1  0
 12 16  1  0
 13 14  1  0
 13 12  2  0
 14 15  1  0
 15 16  2  0
 17 10  1  0
 18 17  2  0
 19 17  1  0
 20 19  1  0
 21 22  1  0
 20 21  1  1
 22 30  1  0
 22 23  2  0
 23 24  1  0
 25 26  2  0
 25 24  1  0
 27 26  1  0
 28 27  2  0
 29 28  1  0
 29 30  2  0
 30 25  1  0
 31 20  1  0
 31 32  1  0
 33 31  2  0
M  END
$$$$
