GCI.pdb
     RDKit          3D

 19 18  0  0  1  0  0  0  0  0999 V2000
    9.1421  -15.1067   19.7503 N   0  0  0  0  0  0  0  0  0  0  0  0
    8.9794  -16.1850   20.7146 C   0  0  0  0  0  0  0  0  0  0  0  0
    8.9512  -15.5630   22.0793 C   0  0  0  0  0  0  0  0  0  0  0  0
    9.8938  -14.8386   22.4958 O   0  0  0  0  0  0  0  0  0  0  0  0
    7.8555  -15.7643   22.9654 N   0  0  0  0  0  0  0  0  0  0  0  0
    7.8605  -15.1531   24.2781 C   0  0  1  0  0  0  0  0  0  0  0  0
    6.4292  -15.1851   24.7905 C   0  0  0  0  0  0  0  0  0  0  0  0
    6.2851  -14.1892   26.2965 S   0  0  0  0  0  0  0  0  0  0  0  0
    8.7227  -15.8993   25.2291 C   0  0  0  0  0  0  0  0  0  0  0  0
    8.9966  -17.1020   24.9281 O   0  0  0  0  0  0  0  0  0  0  0  0
   10.8715  -13.5549   30.1284 C   0  0  0  0  0  0  0  0  0  0  0  0
   10.1266  -14.4862   29.2075 C   0  0  0  0  0  0  0  0  0  0  0  0
   10.9436  -15.1110   28.1425 C   0  0  2  0  0  0  0  0  0  0  0  0
   11.5502  -13.9631   27.3228 C   0  0  0  0  0  0  0  0  0  0  0  0
   10.2168  -16.0004   27.1782 C   0  0  2  0  0  0  0  0  0  0  0  0
    9.2162  -15.3016   26.4134 N   0  0  0  0  0  0  0  0  0  0  0  0
    9.6276  -17.2032   27.7649 C   0  0  0  0  0  0  0  0  0  0  0  0
   10.3870  -18.1899   28.3767 O   0  0  0  0  0  0  0  0  0  0  0  0
    8.3870  -17.3988   27.7396 O   0  0  0  0  0  0  0  0  0  0  0  0
  1  2  1  0
  3  4  2  0
  3  2  1  0
  5  3  1  0
  6  9  1  0
  6  5  1  0
  6  7  1  1
  8  7  1  0
  9 10  2  0
 11 12  1  0
 13 12  1  0
 13 14  1  6
 15 13  1  0
 15 16  1  1
 16  9  1  0
 17 15  1  0
 18 17  1  0
 19 17  2  0
M  END
$$$$
