GCI.pdb
     RDKit          3D

 19 18  0  0  1  0  0  0  0  0999 V2000
    4.2136  -19.7760   20.7152 N   0  0  0  0  0  0  0  0  0  0  0  0
    5.4195  -18.9981   20.9602 C   0  0  0  0  0  0  0  0  0  0  0  0
    5.3585  -18.5151   22.3789 C   0  0  0  0  0  0  0  0  0  0  0  0
    4.2619  -18.3659   22.9805 O   0  0  0  0  0  0  0  0  0  0  0  0
    6.5399  -18.2034   23.1094 N   0  0  0  0  0  0  0  0  0  0  0  0
    6.4445  -17.6434   24.4413 C   0  0  1  0  0  0  0  0  0  0  0  0
    6.7640  -18.7626   25.4198 C   0  0  0  0  0  0  0  0  0  0  0  0
    8.5577  -18.9603   25.5748 S   0  0  0  0  0  0  0  0  0  0  0  0
    7.4179  -16.5410   24.6455 C   0  0  0  0  0  0  0  0  0  0  0  0
    8.4333  -16.5277   23.8834 O   0  0  0  0  0  0  0  0  0  0  0  0
    6.0905  -11.5741   27.1440 C   0  0  0  0  0  0  0  0  0  0  0  0
    6.4281  -12.9901   26.7554 C   0  0  0  0  0  0  0  0  0  0  0  0
    7.5966  -13.1390   25.8584 C   0  0  2  0  0  0  0  0  0  0  0  0
    7.1152  -12.7792   24.4455 C   0  0  0  0  0  0  0  0  0  0  0  0
    8.2066  -14.5066   25.7775 C   0  0  2  0  0  0  0  0  0  0  0  0
    7.2257  -15.5524   25.6402 N   0  0  0  0  0  0  0  0  0  0  0  0
    9.1259  -14.8425   26.8638 C   0  0  0  0  0  0  0  0  0  0  0  0
    8.9880  -15.9853   27.6382 O   0  0  0  0  0  0  0  0  0  0  0  0
   10.0969  -14.0979   27.1481 O   0  0  0  0  0  0  0  0  0  0  0  0
  1  2  1  0
  3  4  2  0
  3  2  1  0
  5  3  1  0
  6  9  1  0
  6  5  1  0
  6  7  1  1
  8  7  1  0
  9 10  2  0
 11 12  1  0
 13 12  1  0
 13 14  1  6
 15 13  1  0
 15 16  1  1
 16  9  1  0
 17 15  1  0
 18 17  1  0
 19 17  2  0
M  END
$$$$
