GCI.pdb
     RDKit          3D

 19 18  0  0  1  0  0  0  0  0999 V2000
    9.2473  -17.2323   18.5610 N   0  0  0  0  0  0  0  0  0  0  0  0
    9.8058  -17.6730   19.8311 C   0  0  0  0  0  0  0  0  0  0  0  0
    8.8803  -17.2013   20.9133 C   0  0  0  0  0  0  0  0  0  0  0  0
    8.1899  -16.1557   20.7841 O   0  0  0  0  0  0  0  0  0  0  0  0
    8.7414  -17.9162   22.1364 N   0  0  0  0  0  0  0  0  0  0  0  0
    7.7638  -17.4946   23.1178 C   0  0  1  0  0  0  0  0  0  0  0  0
    7.4534  -18.7036   23.9862 C   0  0  0  0  0  0  0  0  0  0  0  0
    6.2292  -18.2661   25.2472 S   0  0  0  0  0  0  0  0  0  0  0  0
    8.2874  -16.4086   23.9844 C   0  0  0  0  0  0  0  0  0  0  0  0
    9.5457  -16.3658   24.1485 O   0  0  0  0  0  0  0  0  0  0  0  0
    6.6647  -10.9008   26.4161 C   0  0  0  0  0  0  0  0  0  0  0  0
    7.6087  -12.0681   26.2875 C   0  0  0  0  0  0  0  0  0  0  0  0
    7.0680  -13.2431   25.5672 C   0  0  2  0  0  0  0  0  0  0  0  0
    5.8931  -13.7696   26.4037 C   0  0  0  0  0  0  0  0  0  0  0  0
    8.0093  -14.3927   25.3631 C   0  0  2  0  0  0  0  0  0  0  0  0
    7.4282  -15.4662   24.5985 N   0  0  0  0  0  0  0  0  0  0  0  0
    8.6046  -14.9332   26.5845 C   0  0  0  0  0  0  0  0  0  0  0  0
    8.2248  -16.1509   27.1300 O   0  0  0  0  0  0  0  0  0  0  0  0
    9.5007  -14.3073   27.2036 O   0  0  0  0  0  0  0  0  0  0  0  0
  1  2  1  0
  3  4  2  0
  3  2  1  0
  5  3  1  0
  6  9  1  0
  6  5  1  0
  6  7  1  1
  8  7  1  0
  9 10  2  0
 11 12  1  0
 13 12  1  0
 13 14  1  1
 15 13  1  0
 15 16  1  1
 16  9  1  0
 17 15  1  0
 18 17  1  0
 19 17  2  0
M  END
$$$$
