GCI.pdb
     RDKit          3D

 19 18  0  0  1  0  0  0  0  0999 V2000
    7.6712  -13.5693   19.8643 N   0  0  0  0  0  0  0  0  0  0  0  0
    6.6675  -13.5409   20.9183 C   0  0  0  0  0  0  0  0  0  0  0  0
    7.3960  -13.4474   22.2261 C   0  0  0  0  0  0  0  0  0  0  0  0
    8.6504  -13.5411   22.2929 O   0  0  0  0  0  0  0  0  0  0  0  0
    6.7003  -13.2482   23.4519 N   0  0  0  0  0  0  0  0  0  0  0  0
    7.4261  -13.2275   24.7047 C   0  0  1  0  0  0  0  0  0  0  0  0
    6.5407  -12.5249   25.7218 C   0  0  0  0  0  0  0  0  0  0  0  0
    7.2972  -12.6046   27.3655 S   0  0  0  0  0  0  0  0  0  0  0  0
    7.7171  -14.5987   25.1945 C   0  0  0  0  0  0  0  0  0  0  0  0
    6.7370  -15.4036   25.2538 O   0  0  0  0  0  0  0  0  0  0  0  0
   10.9891  -19.2329   23.8776 C   0  0  0  0  0  0  0  0  0  0  0  0
   10.3472  -18.5104   25.0335 C   0  0  0  0  0  0  0  0  0  0  0  0
   10.0035  -17.0925   24.7816 C   0  0  2  0  0  0  0  0  0  0  0  0
   11.3304  -16.3486   24.5734 C   0  0  0  0  0  0  0  0  0  0  0  0
    9.2690  -16.3785   25.8770 C   0  0  2  0  0  0  0  0  0  0  0  0
    9.0221  -14.9915   25.5770 N   0  0  0  0  0  0  0  0  0  0  0  0
    9.8723  -16.4884   27.2044 C   0  0  0  0  0  0  0  0  0  0  0  0
   10.0361  -17.7017   27.8569 O   0  0  0  0  0  0  0  0  0  0  0  0
   10.2751  -15.4715   27.8223 O   0  0  0  0  0  0  0  0  0  0  0  0
  1  2  1  0
  3  4  2  0
  3  2  1  0
  5  3  1  0
  6  9  1  0
  6  5  1  0
  6  7  1  1
  8  7  1  0
  9 10  2  0
 11 12  1  0
 13 12  1  0
 13 14  1  1
 15 13  1  0
 15 16  1  6
 16  9  1  0
 17 15  1  0
 18 17  1  0
 19 17  2  0
M  END
$$$$
