GCI.pdb
     RDKit          3D

 19 18  0  0  1  0  0  0  0  0999 V2000
    6.5926  -18.3061   18.6150 N   0  0  0  0  0  0  0  0  0  0  0  0
    7.6704  -18.2457   19.5917 C   0  0  0  0  0  0  0  0  0  0  0  0
    7.0489  -17.9517   20.9248 C   0  0  0  0  0  0  0  0  0  0  0  0
    5.8835  -17.4836   21.0227 O   0  0  0  0  0  0  0  0  0  0  0  0
    7.7502  -18.1893   22.1405 N   0  0  0  0  0  0  0  0  0  0  0  0
    7.1539  -17.8211   23.4076 C   0  0  1  0  0  0  0  0  0  0  0  0
    7.3181  -19.0107   24.3404 C   0  0  0  0  0  0  0  0  0  0  0  0
    6.7234  -18.5881   25.9982 S   0  0  0  0  0  0  0  0  0  0  0  0
    7.8297  -16.6456   24.0128 C   0  0  0  0  0  0  0  0  0  0  0  0
    9.0822  -16.5497   23.8282 O   0  0  0  0  0  0  0  0  0  0  0  0
    6.6346  -10.9544   26.2417 C   0  0  0  0  0  0  0  0  0  0  0  0
    7.5719  -12.0877   25.9140 C   0  0  0  0  0  0  0  0  0  0  0  0
    6.9202  -13.3371   25.4600 C   0  0  2  0  0  0  0  0  0  0  0  0
    5.9151  -13.7310   26.5519 C   0  0  0  0  0  0  0  0  0  0  0  0
    7.8182  -14.5190   25.2453 C   0  0  2  0  0  0  0  0  0  0  0  0
    7.1151  -15.6782   24.7590 N   0  0  0  0  0  0  0  0  0  0  0  0
    8.6368  -14.8950   26.3970 C   0  0  0  0  0  0  0  0  0  0  0  0
    9.7822  -14.2028   26.7625 O   0  0  0  0  0  0  0  0  0  0  0  0
    8.3335  -15.8784   27.1175 O   0  0  0  0  0  0  0  0  0  0  0  0
  1  2  1  0
  3  4  2  0
  3  2  1  0
  5  3  1  0
  6  9  1  0
  6  5  1  0
  6  7  1  1
  8  7  1  0
  9 10  2  0
 11 12  1  0
 13 12  1  0
 13 14  1  1
 15 13  1  0
 15 16  1  1
 16  9  1  0
 17 15  1  0
 18 17  1  0
 19 17  2  0
M  END
$$$$
