KDN.pdb
     RDKit          3D

 26 25  0  0  1  0  0  0  0  0999 V2000
    9.2300  -14.6573   21.4702 N   0  0  0  0  0  0  0  0  0  0  0  0
    9.1490  -15.9711   20.8902 C   0  0  1  0  0  0  0  0  0  0  0  0
    8.5550  -16.0417   19.5299 C   0  0  0  0  0  0  0  0  0  0  0  0
    7.8147  -14.8787   19.0191 C   0  0  0  0  0  0  0  0  0  0  0  0
    8.1092  -14.4137   17.6400 C   0  0  0  0  0  0  0  0  0  0  0  0
    7.1630  -13.2846   17.2913 C   0  0  0  0  0  0  0  0  0  0  0  0
    7.4523  -12.8711   15.9302 N   0  0  0  0  0  0  0  0  0  0  0  0
   10.4007  -16.7598   21.0219 C   0  0  0  0  0  0  0  0  0  0  0  0
   10.4567  -17.9672   20.6008 O   0  0  0  0  0  0  0  0  0  0  0  0
   11.6087  -16.2898   21.5992 N   0  0  0  0  0  0  0  0  0  0  0  0
   12.8167  -17.1146   21.6278 C   0  0  1  0  0  0  0  0  0  0  0  0
   13.8523  -16.5566   20.7240 C   0  0  0  0  0  0  0  0  0  0  0  0
   15.1347  -17.3036   20.7259 C   0  0  0  0  0  0  0  0  0  0  0  0
   16.1758  -16.8338   20.1623 O   0  0  0  0  0  0  0  0  0  0  0  0
   13.2183  -17.2837   23.0168 C   0  0  0  0  0  0  0  0  0  0  0  0
   13.5333  -16.2869   23.7107 O   0  0  0  0  0  0  0  0  0  0  0  0
   15.3031  -18.5433   21.3249 O   0  0  0  0  0  0  0  0  0  0  0  0
   10.6687  -17.4088   27.2998 N   0  0  0  0  0  0  0  0  0  0  0  0
   10.9381  -18.5486   26.5027 C   0  0  0  0  0  0  0  0  0  0  0  0
   10.7481  -19.6926   26.9717 O   0  0  0  0  0  0  0  0  0  0  0  0
   11.4374  -18.3591   25.1357 C   0  0  0  0  0  0  0  0  0  0  0  0
   12.8927  -18.7503   25.0507 C   0  0  2  0  0  0  0  0  0  0  0  0
   13.2796  -18.5478   23.6635 N   0  0  0  0  0  0  0  0  0  0  0  0
   13.0464  -20.1412   25.4748 C   0  0  0  0  0  0  0  0  0  0  0  0
   13.5549  -20.5989   26.6580 O   0  0  0  0  0  0  0  0  0  0  0  0
   12.6640  -21.0413   24.6479 O   0  0  0  0  0  0  0  0  0  0  0  0
  2  8  1  0
  2  1  1  6
  3  2  1  0
  4  3  1  0
  5  4  1  0
  6  5  1  0
  7  6  1  0
  8  9  2  0
 10 11  1  0
 10  8  1  0
 11 12  1  6
 12 13  1  0
 13 17  1  0
 14 13  2  0
 15 11  1  0
 16 15  2  0
 19 18  1  0
 19 21  1  0
 20 19  2  0
 22 21  1  6
 22 23  1  0
 23 15  1  0
 24 25  1  0
 24 22  1  0
 26 24  2  0
M  END
$$$$
