KDN.pdb
     RDKit          3D

 26 25  0  0  1  0  0  0  0  0999 V2000
   10.3688  -13.8919   18.9545 N   0  0  0  0  0  0  0  0  0  0  0  0
    9.3579  -14.2581   19.9100 C   0  0  1  0  0  0  0  0  0  0  0  0
    7.9696  -14.3332   19.3855 C   0  0  0  0  0  0  0  0  0  0  0  0
    7.6226  -13.5568   18.1862 C   0  0  0  0  0  0  0  0  0  0  0  0
    8.2031  -13.9810   16.8870 C   0  0  0  0  0  0  0  0  0  0  0  0
    7.6888  -13.0639   15.7979 C   0  0  0  0  0  0  0  0  0  0  0  0
    8.1586  -13.5827   14.5261 N   0  0  0  0  0  0  0  0  0  0  0  0
    9.7272  -15.4245   20.7522 C   0  0  0  0  0  0  0  0  0  0  0  0
    8.8314  -16.0694   21.4000 O   0  0  0  0  0  0  0  0  0  0  0  0
   11.0431  -15.9268   20.9250 N   0  0  0  0  0  0  0  0  0  0  0  0
   11.3359  -16.9989   21.8765 C   0  0  1  0  0  0  0  0  0  0  0  0
   12.6503  -17.6185   21.5779 C   0  0  0  0  0  0  0  0  0  0  0  0
   12.7663  -18.1805   20.2092 C   0  0  0  0  0  0  0  0  0  0  0  0
   13.6663  -17.7788   19.4024 O   0  0  0  0  0  0  0  0  0  0  0  0
   11.1825  -16.4658   23.2225 C   0  0  0  0  0  0  0  0  0  0  0  0
   11.3945  -15.2502   23.4500 O   0  0  0  0  0  0  0  0  0  0  0  0
   11.9267  -19.1635   19.7064 O   0  0  0  0  0  0  0  0  0  0  0  0
    6.3069  -16.4046   25.6577 N   0  0  0  0  0  0  0  0  0  0  0  0
    7.6322  -15.9045   25.6436 C   0  0  0  0  0  0  0  0  0  0  0  0
    7.9625  -14.9997   26.4419 O   0  0  0  0  0  0  0  0  0  0  0  0
    8.5936  -16.4635   24.6858 C   0  0  0  0  0  0  0  0  0  0  0  0
    9.8972  -16.7810   25.3770 C   0  0  2  0  0  0  0  0  0  0  0  0
   10.7942  -17.2581   24.3366 N   0  0  0  0  0  0  0  0  0  0  0  0
    9.6639  -17.7843   26.4149 C   0  0  0  0  0  0  0  0  0  0  0  0
   10.0609  -17.7371   27.7219 O   0  0  0  0  0  0  0  0  0  0  0  0
    9.0143  -18.8320   26.0678 O   0  0  0  0  0  0  0  0  0  0  0  0
  2  8  1  0
  2  1  1  6
  3  2  1  0
  4  3  1  0
  5  4  1  0
  6  5  1  0
  7  6  1  0
  8  9  2  0
 10 11  1  0
 10  8  1  0
 11 12  1  1
 12 13  1  0
 13 17  1  0
 14 13  2  0
 15 11  1  0
 16 15  2  0
 19 18  1  0
 19 21  1  0
 20 19  2  0
 22 21  1  6
 22 23  1  0
 23 15  1  0
 24 25  1  0
 24 22  1  0
 26 24  2  0
M  END
$$$$
