KDN.pdb
     RDKit          3D

 26 25  0  0  1  0  0  0  0  0999 V2000
    9.6028  -12.5720   18.6594 N   0  0  0  0  0  0  0  0  0  0  0  0
    8.5247  -13.4821   18.9393 C   0  0  1  0  0  0  0  0  0  0  0  0
    7.5837  -13.7341   17.8172 C   0  0  0  0  0  0  0  0  0  0  0  0
    8.1237  -14.1960   16.5301 C   0  0  0  0  0  0  0  0  0  0  0  0
    7.1653  -14.4857   15.4337 C   0  0  0  0  0  0  0  0  0  0  0  0
    7.9414  -14.8922   14.1992 C   0  0  0  0  0  0  0  0  0  0  0  0
    6.9802  -15.2262   13.1639 N   0  0  0  0  0  0  0  0  0  0  0  0
    8.9564  -14.7247   19.6289 C   0  0  0  0  0  0  0  0  0  0  0  0
    8.1145  -15.6550   19.8819 O   0  0  0  0  0  0  0  0  0  0  0  0
   10.2783  -15.0045   20.0626 N   0  0  0  0  0  0  0  0  0  0  0  0
   10.6053  -16.2367   20.7803 C   0  0  1  0  0  0  0  0  0  0  0  0
   11.8943  -16.7940   20.3021 C   0  0  0  0  0  0  0  0  0  0  0  0
   12.2209  -18.1360   20.8449 C   0  0  0  0  0  0  0  0  0  0  0  0
   11.3763  -18.7958   21.5330 O   0  0  0  0  0  0  0  0  0  0  0  0
   10.5283  -15.9644   22.2084 C   0  0  0  0  0  0  0  0  0  0  0  0
   11.4545  -15.3455   22.7857 O   0  0  0  0  0  0  0  0  0  0  0  0
   13.4410  -18.7679   20.6544 O   0  0  0  0  0  0  0  0  0  0  0  0
    8.4700  -13.6702   23.8833 N   0  0  0  0  0  0  0  0  0  0  0  0
    7.5119  -14.5562   24.4343 C   0  0  0  0  0  0  0  0  0  0  0  0
    6.3364  -14.1667   24.6117 O   0  0  0  0  0  0  0  0  0  0  0  0
    7.9237  -15.9201   24.7867 C   0  0  0  0  0  0  0  0  0  0  0  0
    9.3814  -16.1290   24.4558 C   0  0  2  0  0  0  0  0  0  0  0  0
    9.4348  -16.3666   23.0221 N   0  0  0  0  0  0  0  0  0  0  0  0
    9.8968  -17.2591   25.2275 C   0  0  0  0  0  0  0  0  0  0  0  0
   10.2774  -17.2657   26.5402 O   0  0  0  0  0  0  0  0  0  0  0  0
   10.0086  -18.3753   24.6098 O   0  0  0  0  0  0  0  0  0  0  0  0
  2  8  1  0
  2  1  1  6
  3  2  1  0
  4  3  1  0
  5  4  1  0
  6  5  1  0
  7  6  1  0
  8  9  2  0
 10 11  1  0
 10  8  1  0
 11 12  1  1
 12 13  1  0
 13 17  1  0
 14 13  2  0
 15 11  1  0
 16 15  2  0
 19 18  1  0
 19 21  1  0
 20 19  2  0
 22 21  1  1
 22 23  1  0
 23 15  1  0
 24 25  1  0
 24 22  1  0
 26 24  2  0
M  END
$$$$
