KDN.pdb
     RDKit          3D

 26 25  0  0  1  0  0  0  0  0999 V2000
    8.5395  -17.5971   20.3899 N   0  0  0  0  0  0  0  0  0  0  0  0
    9.4687  -16.5048   20.5016 C   0  0  1  0  0  0  0  0  0  0  0  0
    8.9119  -15.2343   21.0344 C   0  0  0  0  0  0  0  0  0  0  0  0
    7.7447  -14.6382   20.3682 C   0  0  0  0  0  0  0  0  0  0  0  0
    7.8742  -13.2591   19.8332 C   0  0  0  0  0  0  0  0  0  0  0  0
    6.5408  -12.8290   19.2598 C   0  0  0  0  0  0  0  0  0  0  0  0
    6.6978  -11.4827   18.7401 N   0  0  0  0  0  0  0  0  0  0  0  0
   10.7617  -16.8829   21.1274 C   0  0  0  0  0  0  0  0  0  0  0  0
   10.8717  -17.9753   21.7852 O   0  0  0  0  0  0  0  0  0  0  0  0
   11.9548  -16.1167   21.0708 N   0  0  0  0  0  0  0  0  0  0  0  0
   13.2170  -16.6221   21.6110 C   0  0  1  0  0  0  0  0  0  0  0  0
   14.3461  -15.7500   21.2044 C   0  0  0  0  0  0  0  0  0  0  0  0
   15.6864  -16.2721   21.5701 C   0  0  0  0  0  0  0  0  0  0  0  0
   16.7419  -15.5897   21.3639 O   0  0  0  0  0  0  0  0  0  0  0  0
   13.0533  -16.8126   23.0450 C   0  0  0  0  0  0  0  0  0  0  0  0
   12.8206  -15.8314   23.7915 O   0  0  0  0  0  0  0  0  0  0  0  0
   15.8971  -17.5139   22.1510 O   0  0  0  0  0  0  0  0  0  0  0  0
   10.9274  -18.7561   27.5418 N   0  0  0  0  0  0  0  0  0  0  0  0
   11.6594  -19.6073   26.6776 C   0  0  0  0  0  0  0  0  0  0  0  0
   12.1581  -20.6641   27.1240 O   0  0  0  0  0  0  0  0  0  0  0  0
   11.8165  -19.2264   25.2690 C   0  0  0  0  0  0  0  0  0  0  0  0
   12.9712  -18.2674   25.1114 C   0  0  2  0  0  0  0  0  0  0  0  0
   13.1423  -18.0813   23.6792 N   0  0  0  0  0  0  0  0  0  0  0  0
   14.1612  -18.8329   25.7458 C   0  0  0  0  0  0  0  0  0  0  0  0
   14.5194  -18.7534   27.0624 O   0  0  0  0  0  0  0  0  0  0  0  0
   14.9669  -19.4779   24.9876 O   0  0  0  0  0  0  0  0  0  0  0  0
  2  8  1  0
  2  1  1  1
  3  2  1  0
  4  3  1  0
  5  4  1  0
  6  5  1  0
  7  6  1  0
  8  9  2  0
 10 11  1  0
 10  8  1  0
 11 12  1  1
 12 13  1  0
 13 17  1  0
 14 13  2  0
 15 11  1  0
 16 15  2  0
 19 18  1  0
 19 21  1  0
 20 19  2  0
 22 21  1  6
 22 23  1  0
 23 15  1  0
 24 25  1  0
 24 22  1  0
 26 24  2  0
M  END
$$$$
