KDN.pdb
     RDKit          3D

 26 25  0  0  1  0  0  0  0  0999 V2000
    8.7233  -17.8444   17.7983 N   0  0  0  0  0  0  0  0  0  0  0  0
    9.1968  -16.5899   18.3190 C   0  0  1  0  0  0  0  0  0  0  0  0
    8.2467  -15.8521   19.1914 C   0  0  0  0  0  0  0  0  0  0  0  0
    7.9934  -14.4297   18.9191 C   0  0  0  0  0  0  0  0  0  0  0  0
    8.1250  -13.4689   20.0435 C   0  0  0  0  0  0  0  0  0  0  0  0
    7.8014  -12.0784   19.5399 C   0  0  0  0  0  0  0  0  0  0  0  0
    7.7723  -11.1895   20.6872 N   0  0  0  0  0  0  0  0  0  0  0  0
   10.5711  -16.6565   18.8784 C   0  0  0  0  0  0  0  0  0  0  0  0
   10.9434  -17.6657   19.5720 O   0  0  0  0  0  0  0  0  0  0  0  0
   11.5709  -15.6625   18.7169 N   0  0  0  0  0  0  0  0  0  0  0  0
   12.8602  -15.7532   19.4024 C   0  0  1  0  0  0  0  0  0  0  0  0
   13.8504  -14.8431   18.7764 C   0  0  0  0  0  0  0  0  0  0  0  0
   15.2258  -14.9664   19.3198 C   0  0  0  0  0  0  0  0  0  0  0  0
   15.6154  -16.0307   19.9010 O   0  0  0  0  0  0  0  0  0  0  0  0
   12.6325  -15.5522   20.8262 C   0  0  0  0  0  0  0  0  0  0  0  0
   12.6890  -14.4001   21.3200 O   0  0  0  0  0  0  0  0  0  0  0  0
   16.1774  -13.9601   19.2434 O   0  0  0  0  0  0  0  0  0  0  0  0
    9.9834  -14.9640   22.7845 N   0  0  0  0  0  0  0  0  0  0  0  0
    9.7716  -16.2744   23.2792 C   0  0  0  0  0  0  0  0  0  0  0  0
    8.6052  -16.6849   23.4694 O   0  0  0  0  0  0  0  0  0  0  0  0
   10.9338  -17.1259   23.5591 C   0  0  0  0  0  0  0  0  0  0  0  0
   12.2077  -16.4200   23.1628 C   0  0  2  0  0  0  0  0  0  0  0  0
   12.3396  -16.6115   21.7273 N   0  0  0  0  0  0  0  0  0  0  0  0
   13.3298  -16.9909   23.9066 C   0  0  0  0  0  0  0  0  0  0  0  0
   13.6373  -16.8003   25.2246 O   0  0  0  0  0  0  0  0  0  0  0  0
   14.1216  -17.7584   23.2555 O   0  0  0  0  0  0  0  0  0  0  0  0
  2  8  1  0
  2  1  1  1
  3  2  1  0
  4  3  1  0
  5  4  1  0
  6  5  1  0
  7  6  1  0
  8  9  2  0
 10 11  1  0
 10  8  1  0
 11 12  1  6
 12 13  1  0
 13 17  1  0
 14 13  2  0
 15 11  1  0
 16 15  2  0
 19 18  1  0
 19 21  1  0
 20 19  2  0
 22 21  1  1
 22 23  1  0
 23 15  1  0
 24 25  1  0
 24 22  1  0
 26 24  2  0
M  END
$$$$
