KDN.pdb
     RDKit          3D

 26 25  0  0  1  0  0  0  0  0999 V2000
    8.0441  -19.7206   19.5009 N   0  0  0  0  0  0  0  0  0  0  0  0
    7.7814  -18.5009   20.2167 C   0  0  1  0  0  0  0  0  0  0  0  0
    6.3911  -18.3287   20.7121 C   0  0  0  0  0  0  0  0  0  0  0  0
    5.3422  -19.2253   20.2048 C   0  0  0  0  0  0  0  0  0  0  0  0
    3.9295  -18.9004   20.5262 C   0  0  0  0  0  0  0  0  0  0  0  0
    3.0237  -19.8317   19.7491 C   0  0  0  0  0  0  0  0  0  0  0  0
    1.6550  -19.4008   19.9688 N   0  0  0  0  0  0  0  0  0  0  0  0
    8.8093  -18.1753   21.2383 C   0  0  0  0  0  0  0  0  0  0  0  0
    9.1934  -19.0595   22.0802 O   0  0  0  0  0  0  0  0  0  0  0  0
    9.4454  -16.9157   21.3886 N   0  0  0  0  0  0  0  0  0  0  0  0
   10.4485  -16.6822   22.4277 C   0  0  1  0  0  0  0  0  0  0  0  0
   11.2675  -15.4882   22.1049 C   0  0  0  0  0  0  0  0  0  0  0  0
   12.2616  -15.7007   21.0236 C   0  0  0  0  0  0  0  0  0  0  0  0
   12.8743  -14.7222   20.4856 O   0  0  0  0  0  0  0  0  0  0  0  0
    9.7697  -16.6508   23.7152 C   0  0  0  0  0  0  0  0  0  0  0  0
    8.7154  -15.9859   23.8590 O   0  0  0  0  0  0  0  0  0  0  0  0
   12.5977  -16.9489   20.5208 O   0  0  0  0  0  0  0  0  0  0  0  0
    5.8820  -17.5386   25.1234 N   0  0  0  0  0  0  0  0  0  0  0  0
    7.1393  -17.0969   25.6038 C   0  0  0  0  0  0  0  0  0  0  0  0
    7.3233  -15.8811   25.8339 O   0  0  0  0  0  0  0  0  0  0  0  0
    8.2042  -18.0830   25.8218 C   0  0  0  0  0  0  0  0  0  0  0  0
    9.5097  -17.3868   26.1202 C   0  0  2  0  0  0  0  0  0  0  0  0
   10.2375  -17.3481   24.8617 N   0  0  0  0  0  0  0  0  0  0  0  0
   10.2280  -18.1268   27.1568 C   0  0  0  0  0  0  0  0  0  0  0  0
   11.4289  -18.7690   27.0398 O   0  0  0  0  0  0  0  0  0  0  0  0
    9.6750  -18.1861   28.3104 O   0  0  0  0  0  0  0  0  0  0  0  0
  2  8  1  0
  2  1  1  1
  3  2  1  0
  4  3  1  0
  5  4  1  0
  6  5  1  0
  7  6  1  0
  8  9  2  0
 10 11  1  0
 10  8  1  0
 11 12  1  6
 12 13  1  0
 13 17  1  0
 14 13  2  0
 15 11  1  0
 16 15  2  0
 19 18  1  0
 19 21  1  0
 20 19  2  0
 22 21  1  6
 22 23  1  0
 23 15  1  0
 24 25  1  0
 24 22  1  0
 26 24  2  0
M  END
$$$$
