KDN.pdb
     RDKit          3D

 26 25  0  0  1  0  0  0  0  0999 V2000
    8.5706  -16.8394   21.9732 N   0  0  0  0  0  0  0  0  0  0  0  0
    8.4102  -17.3834   20.6513 C   0  0  1  0  0  0  0  0  0  0  0  0
    8.0440  -16.4088   19.5911 C   0  0  0  0  0  0  0  0  0  0  0  0
    8.0289  -14.9761   19.9207 C   0  0  0  0  0  0  0  0  0  0  0  0
    7.5525  -14.0256   18.8842 C   0  0  0  0  0  0  0  0  0  0  0  0
    7.5843  -12.6233   19.4538 C   0  0  0  0  0  0  0  0  0  0  0  0
    7.1601  -11.7121   18.4064 N   0  0  0  0  0  0  0  0  0  0  0  0
    9.5058  -18.3012   20.2468 C   0  0  0  0  0  0  0  0  0  0  0  0
    9.3515  -19.1053   19.2630 O   0  0  0  0  0  0  0  0  0  0  0  0
   10.7767  -18.3863   20.8722 N   0  0  0  0  0  0  0  0  0  0  0  0
   12.0164  -18.1968   20.1187 C   0  0  1  0  0  0  0  0  0  0  0  0
   11.7375  -17.5747   18.8012 C   0  0  0  0  0  0  0  0  0  0  0  0
   12.9010  -17.5412   17.8804 C   0  0  0  0  0  0  0  0  0  0  0  0
   13.9842  -18.1503   18.1595 O   0  0  0  0  0  0  0  0  0  0  0  0
   12.9581  -17.4802   20.9666 C   0  0  0  0  0  0  0  0  0  0  0  0
   14.1845  -17.4922   20.7017 O   0  0  0  0  0  0  0  0  0  0  0  0
   12.9071  -16.8616   16.6712 O   0  0  0  0  0  0  0  0  0  0  0  0
   13.7152  -17.6118   25.9706 N   0  0  0  0  0  0  0  0  0  0  0  0
   13.2698  -18.6785   25.1516 C   0  0  0  0  0  0  0  0  0  0  0  0
   13.1409  -19.8232   25.6394 O   0  0  0  0  0  0  0  0  0  0  0  0
   12.9680  -18.4136   23.7400 C   0  0  0  0  0  0  0  0  0  0  0  0
   13.1533  -16.9480   23.4308 C   0  0  2  0  0  0  0  0  0  0  0  0
   12.5677  -16.7408   22.1158 N   0  0  0  0  0  0  0  0  0  0  0  0
   14.5783  -16.6218   23.4639 C   0  0  0  0  0  0  0  0  0  0  0  0
   15.3701  -16.2449   22.4155 O   0  0  0  0  0  0  0  0  0  0  0  0
   15.1600  -16.6960   24.6024 O   0  0  0  0  0  0  0  0  0  0  0  0
  2  8  1  0
  2  1  1  1
  3  2  1  0
  4  3  1  0
  5  4  1  0
  6  5  1  0
  7  6  1  0
  8  9  2  0
 10 11  1  0
 10  8  1  0
 11 12  1  6
 12 13  1  0
 13 17  1  0
 14 13  2  0
 15 11  1  0
 16 15  2  0
 19 18  1  0
 19 21  1  0
 20 19  2  0
 22 21  1  6
 22 23  1  0
 23 15  1  0
 24 25  1  0
 24 22  1  0
 26 24  2  0
M  END
$$$$
