KDN.pdb
     RDKit          3D

 26 25  0  0  1  0  0  0  0  0999 V2000
   11.1188  -14.0307   20.1484 N   0  0  0  0  0  0  0  0  0  0  0  0
   10.0640  -14.0062   21.1261 C   0  0  1  0  0  0  0  0  0  0  0  0
    8.7029  -13.7224   20.6017 C   0  0  0  0  0  0  0  0  0  0  0  0
    8.4521  -13.8782   19.1614 C   0  0  0  0  0  0  0  0  0  0  0  0
    7.0934  -13.5653   18.6509 C   0  0  0  0  0  0  0  0  0  0  0  0
    7.0719  -13.7789   17.1524 C   0  0  0  0  0  0  0  0  0  0  0  0
    8.1403  -12.9818   16.5778 N   0  0  0  0  0  0  0  0  0  0  0  0
   10.0983  -15.1527   22.0699 C   0  0  0  0  0  0  0  0  0  0  0  0
    9.1215  -15.3680   22.8684 O   0  0  0  0  0  0  0  0  0  0  0  0
   11.1604  -16.0864   22.1870 N   0  0  0  0  0  0  0  0  0  0  0  0
   11.1352  -17.1552   23.1857 C   0  0  1  0  0  0  0  0  0  0  0  0
   11.9092  -18.3297   22.7143 C   0  0  0  0  0  0  0  0  0  0  0  0
   11.9356  -19.4685   23.6657 C   0  0  0  0  0  0  0  0  0  0  0  0
   12.6492  -20.5000   23.4444 O   0  0  0  0  0  0  0  0  0  0  0  0
   11.5565  -16.5944   24.4615 C   0  0  0  0  0  0  0  0  0  0  0  0
   12.4115  -15.6769   24.4983 O   0  0  0  0  0  0  0  0  0  0  0  0
   11.2045  -19.5049   24.8439 O   0  0  0  0  0  0  0  0  0  0  0  0
    8.6871  -13.3575   27.7040 N   0  0  0  0  0  0  0  0  0  0  0  0
    9.9109  -14.0557   27.5565 C   0  0  0  0  0  0  0  0  0  0  0  0
   10.8464  -13.8445   28.3597 O   0  0  0  0  0  0  0  0  0  0  0  0
   10.0536  -15.0171   26.4568 C   0  0  0  0  0  0  0  0  0  0  0  0
   10.9405  -16.1642   26.8758 C   0  0  2  0  0  0  0  0  0  0  0  0
   11.0458  -17.0319   25.7134 N   0  0  0  0  0  0  0  0  0  0  0  0
   10.3447  -16.8430   28.0257 C   0  0  0  0  0  0  0  0  0  0  0  0
    9.7326  -18.0649   28.0453 O   0  0  0  0  0  0  0  0  0  0  0  0
   10.3969  -16.2285   29.1481 O   0  0  0  0  0  0  0  0  0  0  0  0
  2  8  1  0
  2  1  1  6
  3  2  1  0
  4  3  1  0
  5  4  1  0
  6  5  1  0
  7  6  1  0
  8  9  2  0
 10 11  1  0
 10  8  1  0
 11 12  1  6
 12 13  1  0
 13 17  1  0
 14 13  2  0
 15 11  1  0
 16 15  2  0
 19 18  1  0
 19 21  1  0
 20 19  2  0
 22 21  1  6
 22 23  1  0
 23 15  1  0
 24 25  1  0
 24 22  1  0
 26 24  2  0
M  END
$$$$
