KDN.pdb
     RDKit          3D

 26 25  0  0  1  0  0  0  0  0999 V2000
    9.2291  -12.1453   18.6673 N   0  0  0  0  0  0  0  0  0  0  0  0
    8.9562  -13.5543   18.7641 C   0  0  1  0  0  0  0  0  0  0  0  0
    8.0617  -14.1130   17.7174 C   0  0  0  0  0  0  0  0  0  0  0  0
    8.4637  -13.9994   16.3077 C   0  0  0  0  0  0  0  0  0  0  0  0
    7.6198  -14.6669   15.2845 C   0  0  0  0  0  0  0  0  0  0  0  0
    8.1516  -14.3216   13.9098 C   0  0  0  0  0  0  0  0  0  0  0  0
    7.2706  -14.9310   12.9302 N   0  0  0  0  0  0  0  0  0  0  0  0
   10.1670  -14.3818   18.9993 C   0  0  0  0  0  0  0  0  0  0  0  0
   10.0605  -15.6250   19.2845 O   0  0  0  0  0  0  0  0  0  0  0  0
   11.5049  -13.9127   18.9389 N   0  0  0  0  0  0  0  0  0  0  0  0
   12.6428  -14.8164   19.1084 C   0  0  1  0  0  0  0  0  0  0  0  0
   13.8246  -14.3142   18.3655 C   0  0  0  0  0  0  0  0  0  0  0  0
   13.9123  -14.7867   16.9614 C   0  0  0  0  0  0  0  0  0  0  0  0
   13.4931  -15.9410   16.6236 O   0  0  0  0  0  0  0  0  0  0  0  0
   12.8413  -15.0342   20.5341 C   0  0  0  0  0  0  0  0  0  0  0  0
   13.0135  -14.0597   21.3054 O   0  0  0  0  0  0  0  0  0  0  0  0
   14.4444  -14.0319   15.9264 O   0  0  0  0  0  0  0  0  0  0  0  0
   11.4942  -15.0869   24.3454 N   0  0  0  0  0  0  0  0  0  0  0  0
   10.8544  -16.2602   23.8753 C   0  0  0  0  0  0  0  0  0  0  0  0
    9.6928  -16.5279   24.2547 O   0  0  0  0  0  0  0  0  0  0  0  0
   11.5745  -17.1404   22.9475 C   0  0  0  0  0  0  0  0  0  0  0  0
   12.9029  -16.5305   22.5714 C   0  0  2  0  0  0  0  0  0  0  0  0
   12.8533  -16.3230   21.1328 N   0  0  0  0  0  0  0  0  0  0  0  0
   13.9813  -17.4353   22.9671 C   0  0  0  0  0  0  0  0  0  0  0  0
   14.9867  -17.1909   23.8601 O   0  0  0  0  0  0  0  0  0  0  0  0
   13.9935  -18.5920   22.4177 O   0  0  0  0  0  0  0  0  0  0  0  0
  2  8  1  0
  2  1  1  6
  3  2  1  0
  4  3  1  0
  5  4  1  0
  6  5  1  0
  7  6  1  0
  8  9  2  0
 10 11  1  0
 10  8  1  0
 11 12  1  1
 12 13  1  0
 13 17  1  0
 14 13  2  0
 15 11  1  0
 16 15  2  0
 19 18  1  0
 19 21  1  0
 20 19  2  0
 22 21  1  6
 22 23  1  0
 23 15  1  0
 24 25  1  0
 24 22  1  0
 26 24  2  0
M  END
$$$$
