KDN.pdb
     RDKit          3D

 26 25  0  0  1  0  0  0  0  0999 V2000
   10.6629  -19.6232   15.9218 N   0  0  0  0  0  0  0  0  0  0  0  0
   11.7333  -18.6630   15.8835 C   0  0  1  0  0  0  0  0  0  0  0  0
   11.4867  -17.4525   15.0579 C   0  0  0  0  0  0  0  0  0  0  0  0
   10.9013  -17.6154   13.7191 C   0  0  0  0  0  0  0  0  0  0  0  0
   10.7620  -16.4083   12.8658 C   0  0  0  0  0  0  0  0  0  0  0  0
   10.0222  -16.7859   11.6001 C   0  0  0  0  0  0  0  0  0  0  0  0
    9.9407  -15.6003   10.7664 N   0  0  0  0  0  0  0  0  0  0  0  0
   12.3039  -18.3520   17.2191 C   0  0  0  0  0  0  0  0  0  0  0  0
   11.6841  -17.5770   18.0275 O   0  0  0  0  0  0  0  0  0  0  0  0
   13.5340  -18.8506   17.7213 N   0  0  0  0  0  0  0  0  0  0  0  0
   13.9701  -18.5778   19.0909 C   0  0  1  0  0  0  0  0  0  0  0  0
   14.3334  -19.8377   19.7846 C   0  0  0  0  0  0  0  0  0  0  0  0
   14.7632  -19.6596   21.1939 C   0  0  0  0  0  0  0  0  0  0  0  0
   15.8176  -20.2176   21.6403 O   0  0  0  0  0  0  0  0  0  0  0  0
   15.0127  -17.5629   19.0417 C   0  0  0  0  0  0  0  0  0  0  0  0
   15.8778  -17.5874   18.1332 O   0  0  0  0  0  0  0  0  0  0  0  0
   14.0714  -18.8919   22.1190 O   0  0  0  0  0  0  0  0  0  0  0  0
   15.9772  -14.5307   17.5178 N   0  0  0  0  0  0  0  0  0  0  0  0
   15.4880  -13.7064   18.5610 C   0  0  0  0  0  0  0  0  0  0  0  0
   14.9951  -12.5892   18.2895 O   0  0  0  0  0  0  0  0  0  0  0  0
   15.5718  -14.1859   19.9455 C   0  0  0  0  0  0  0  0  0  0  0  0
   16.2153  -15.5505   19.9891 C   0  0  2  0  0  0  0  0  0  0  0  0
   15.1204  -16.5078   19.9877 N   0  0  0  0  0  0  0  0  0  0  0  0
   17.0466  -15.6566   21.1874 C   0  0  0  0  0  0  0  0  0  0  0  0
   16.6275  -15.7893   22.4816 O   0  0  0  0  0  0  0  0  0  0  0  0
   18.3149  -15.6210   21.0137 O   0  0  0  0  0  0  0  0  0  0  0  0
  2  8  1  0
  2  1  1  1
  3  2  1  0
  4  3  1  0
  5  4  1  0
  6  5  1  0
  7  6  1  0
  8  9  2  0
 10 11  1  0
 10  8  1  0
 11 12  1  6
 12 13  1  0
 13 17  1  0
 14 13  2  0
 15 11  1  0
 16 15  2  0
 19 18  1  0
 19 21  1  0
 20 19  2  0
 22 21  1  1
 22 23  1  0
 23 15  1  0
 24 25  1  0
 24 22  1  0
 26 24  2  0
M  END
$$$$
