NVM.pdb
     RDKit          3D

 24 23  0  0  1  0  0  0  0  0999 V2000
   30.0221  -23.0228  -17.3043 N   0  0  0  0  0  0  0  0  0  0  0  0
   29.5651  -21.8145  -17.8947 C   0  0  0  0  0  0  0  0  0  0  0  0
   30.2402  -21.2513  -18.7960 O   0  0  0  0  0  0  0  0  0  0  0  0
   28.2915  -21.2053  -17.4572 C   0  0  0  0  0  0  0  0  0  0  0  0
   27.7727  -21.9674  -16.2746 C   0  0  2  0  0  0  0  0  0  0  0  0
   26.9499  -23.0760  -16.6799 N   0  0  0  0  0  0  0  0  0  0  0  0
   27.1097  -21.1086  -15.2635 C   0  0  0  0  0  0  0  0  0  0  0  0
   27.7738  -20.1501  -14.7861 O   0  0  0  0  0  0  0  0  0  0  0  0
   22.8298  -19.5694  -13.3805 C   0  0  0  0  0  0  0  0  0  0  0  0
   23.7556  -20.2028  -14.3596 C   0  0  1  0  0  0  0  0  0  0  0  0
   23.8046  -19.5051  -15.6678 C   0  0  0  0  0  0  0  0  0  0  0  0
   25.1573  -20.4144  -13.7885 C   0  0  2  0  0  0  0  0  0  0  0  0
   25.7981  -21.2905  -14.8051 N   0  0  0  0  0  0  0  0  0  0  0  0
   25.0912  -21.1189  -12.5115 C   0  0  0  0  0  0  0  0  0  0  0  0
   24.5515  -22.2558  -12.3665 O   0  0  0  0  0  0  0  0  0  0  0  0
   27.4932  -18.2040   -7.1294 C   0  0  0  0  0  0  0  0  0  0  0  0
   27.4367  -19.9468   -6.6256 S   0  0  0  0  0  0  0  0  0  0  0  0
   26.2602  -20.8824   -7.6667 C   0  0  0  0  0  0  0  0  0  0  0  0
   26.3736  -20.4743   -9.0972 C   0  0  0  0  0  0  0  0  0  0  0  0
   25.4485  -21.1977  -10.0415 C   0  0  2  0  0  0  0  0  0  0  0  0
   25.6461  -20.5534  -11.3439 N   0  0  0  0  0  0  0  0  0  0  0  0
   24.0528  -20.9735   -9.6319 C   0  0  0  0  0  0  0  0  0  0  0  0
   23.3363  -21.7992   -8.7728 O   0  0  0  0  0  0  0  0  0  0  0  0
   23.3989  -19.9675  -10.0633 O   0  0  0  0  0  0  0  0  0  0  0  0
  1  2  1  0
  2  3  2  0
  4  2  1  0
  5  4  1  0
  5  6  1  6
  7  5  1  0
  7  8  2  0
 10 12  1  0
 10  9  1  1
 11 10  1  0
 12 13  1  6
 13  7  1  0
 14 12  1  0
 15 14  2  0
 17 16  1  0
 18 17  1  0
 19 18  1  0
 20 19  1  1
 20 22  1  0
 20 21  1  0
 21 14  1  0
 22 23  1  0
 24 22  2  0
M  END
$$$$
