NVM.pdb
     RDKit          3D

 24 23  0  0  1  0  0  0  0  0999 V2000
   15.3193  -13.7261  -18.7166 N   0  0  0  0  0  0  0  0  0  0  0  0
   16.6117  -13.1581  -18.5599 C   0  0  0  0  0  0  0  0  0  0  0  0
   17.6150  -13.8980  -18.3830 O   0  0  0  0  0  0  0  0  0  0  0  0
   16.7926  -11.6918  -18.6032 C   0  0  0  0  0  0  0  0  0  0  0  0
   17.6269  -11.2733  -17.4295 C   0  0  2  0  0  0  0  0  0  0  0  0
   16.9163  -11.4402  -16.1897 N   0  0  0  0  0  0  0  0  0  0  0  0
   18.2079   -9.9163  -17.5722 C   0  0  0  0  0  0  0  0  0  0  0  0
   19.0240   -9.7268  -18.5134 O   0  0  0  0  0  0  0  0  0  0  0  0
   16.5473   -6.8624  -15.5244 C   0  0  0  0  0  0  0  0  0  0  0  0
   17.4334   -6.5268  -16.6729 C   0  0  1  0  0  0  0  0  0  0  0  0
   17.9176   -5.1248  -16.6596 C   0  0  0  0  0  0  0  0  0  0  0  0
   18.5896   -7.5139  -16.8289 C   0  0  2  0  0  0  0  0  0  0  0  0
   17.9109   -8.8337  -16.7336 N   0  0  0  0  0  0  0  0  0  0  0  0
   19.5375   -7.3738  -15.7275 C   0  0  0  0  0  0  0  0  0  0  0  0
   19.3390   -7.8462  -14.5690 O   0  0  0  0  0  0  0  0  0  0  0  0
   26.2285  -10.2318  -14.5075 C   0  0  0  0  0  0  0  0  0  0  0  0
   24.7932   -9.7548  -15.5108 S   0  0  0  0  0  0  0  0  0  0  0  0
   23.9009   -8.3580  -14.7386 C   0  0  0  0  0  0  0  0  0  0  0  0
   22.7180   -7.9636  -15.5576 C   0  0  0  0  0  0  0  0  0  0  0  0
   21.8608   -6.8789  -14.9581 C   0  0  2  0  0  0  0  0  0  0  0  0
   20.7586   -6.6899  -15.9066 N   0  0  0  0  0  0  0  0  0  0  0  0
   22.6265   -5.6235  -14.8970 C   0  0  0  0  0  0  0  0  0  0  0  0
   23.4228   -5.2318  -13.8265 O   0  0  0  0  0  0  0  0  0  0  0  0
   22.5974   -4.7927  -15.8637 O   0  0  0  0  0  0  0  0  0  0  0  0
  1  2  1  0
  2  3  2  0
  4  2  1  0
  5  4  1  0
  5  6  1  1
  7  5  1  0
  7  8  2  0
 10 12  1  0
 10  9  1  1
 11 10  1  0
 12 13  1  1
 13  7  1  0
 14 12  1  0
 15 14  2  0
 17 16  1  0
 18 17  1  0
 19 18  1  0
 20 19  1  6
 20 22  1  0
 20 21  1  0
 21 14  1  0
 22 23  1  0
 24 22  2  0
M  END
$$$$
