NVM.pdb
     RDKit          3D

 24 23  0  0  1  0  0  0  0  0999 V2000
   21.1445  -18.9158  -13.8538 N   0  0  0  0  0  0  0  0  0  0  0  0
   20.7849  -18.9870  -12.4816 C   0  0  0  0  0  0  0  0  0  0  0  0
   19.7866  -18.3517  -12.0513 O   0  0  0  0  0  0  0  0  0  0  0  0
   21.5790  -19.8084  -11.5437 C   0  0  0  0  0  0  0  0  0  0  0  0
   22.6645  -20.5032  -12.3102 C   0  0  2  0  0  0  0  0  0  0  0  0
   22.1309  -21.5157  -13.1819 N   0  0  0  0  0  0  0  0  0  0  0  0
   23.7596  -21.0143  -11.4506 C   0  0  0  0  0  0  0  0  0  0  0  0
   23.5248  -22.0365  -10.7523 O   0  0  0  0  0  0  0  0  0  0  0  0
   28.5900  -21.3608  -10.7566 C   0  0  0  0  0  0  0  0  0  0  0  0
   27.3286  -20.9707  -11.4447 C   0  0  1  0  0  0  0  0  0  0  0  0
   27.0616  -21.7467  -12.6804 C   0  0  0  0  0  0  0  0  0  0  0  0
   26.1216  -20.9836  -10.5073 C   0  0  2  0  0  0  0  0  0  0  0  0
   25.0343  -20.4388  -11.3633 N   0  0  0  0  0  0  0  0  0  0  0  0
   26.3416  -20.0908   -9.3735 C   0  0  0  0  0  0  0  0  0  0  0  0
   26.1076  -18.8462   -9.4070 O   0  0  0  0  0  0  0  0  0  0  0  0
   25.5609  -20.0269   -2.5662 C   0  0  0  0  0  0  0  0  0  0  0  0
   27.2427  -20.4733   -3.0824 S   0  0  0  0  0  0  0  0  0  0  0  0
   27.6912  -19.6160   -4.6339 C   0  0  0  0  0  0  0  0  0  0  0  0
   27.1795  -20.3607   -5.8211 C   0  0  0  0  0  0  0  0  0  0  0  0
   27.3840  -19.6688   -7.1441 C   0  0  2  0  0  0  0  0  0  0  0  0
   26.8350  -20.5861   -8.1479 N   0  0  0  0  0  0  0  0  0  0  0  0
   28.8249  -19.5210   -7.4050 C   0  0  0  0  0  0  0  0  0  0  0  0
   29.5854  -18.4126   -7.0493 O   0  0  0  0  0  0  0  0  0  0  0  0
   29.4792  -20.4407   -7.9980 O   0  0  0  0  0  0  0  0  0  0  0  0
  1  2  1  0
  2  3  2  0
  4  2  1  0
  5  4  1  0
  5  6  1  1
  7  5  1  0
  7  8  2  0
 10 12  1  0
 10  9  1  1
 11 10  1  0
 12 13  1  6
 13  7  1  0
 14 12  1  0
 15 14  2  0
 17 16  1  0
 18 17  1  0
 19 18  1  0
 20 19  1  1
 20 22  1  0
 20 21  1  0
 21 14  1  0
 22 23  1  0
 24 22  2  0
M  END
$$$$
