NVM.pdb
     RDKit          3D

 24 23  0  0  1  0  0  0  0  0999 V2000
   19.4154  -18.3004  -15.1926 N   0  0  0  0  0  0  0  0  0  0  0  0
   19.0110  -16.9481  -15.0347 C   0  0  0  0  0  0  0  0  0  0  0  0
   18.0863  -16.6495  -14.2341 O   0  0  0  0  0  0  0  0  0  0  0  0
   19.6720  -15.8763  -15.8088 C   0  0  0  0  0  0  0  0  0  0  0  0
   18.6183  -15.0262  -16.4535 C   0  0  2  0  0  0  0  0  0  0  0  0
   17.8726  -15.7646  -17.4378 N   0  0  0  0  0  0  0  0  0  0  0  0
   19.1380  -13.7415  -16.9818 C   0  0  0  0  0  0  0  0  0  0  0  0
   19.8757  -13.7859  -18.0023 O   0  0  0  0  0  0  0  0  0  0  0  0
   17.4146  -10.7729  -18.3606 C   0  0  0  0  0  0  0  0  0  0  0  0
   18.1988  -10.3506  -17.1675 C   0  0  1  0  0  0  0  0  0  0  0  0
   17.3864  -10.2413  -15.9311 C   0  0  0  0  0  0  0  0  0  0  0  0
   19.4384  -11.2161  -16.9446 C   0  0  2  0  0  0  0  0  0  0  0  0
   18.8643  -12.4854  -16.4242 N   0  0  0  0  0  0  0  0  0  0  0  0
   20.3046  -10.6223  -15.9306 C   0  0  0  0  0  0  0  0  0  0  0  0
   20.0538  -10.6557  -14.6892 O   0  0  0  0  0  0  0  0  0  0  0  0
   26.2971  -12.0039  -15.3446 C   0  0  0  0  0  0  0  0  0  0  0  0
   26.4473  -10.2062  -15.1449 S   0  0  0  0  0  0  0  0  0  0  0  0
   24.8402   -9.4719  -14.6744 C   0  0  0  0  0  0  0  0  0  0  0  0
   23.7558   -9.9324  -15.5897 C   0  0  0  0  0  0  0  0  0  0  0  0
   22.3815   -9.4065  -15.2648 C   0  0  2  0  0  0  0  0  0  0  0  0
   21.5006   -9.9677  -16.2940 N   0  0  0  0  0  0  0  0  0  0  0  0
   22.3685   -7.9416  -15.4067 C   0  0  0  0  0  0  0  0  0  0  0  0
   22.5590   -7.0424  -14.3635 O   0  0  0  0  0  0  0  0  0  0  0  0
   22.1719   -7.3970  -16.5426 O   0  0  0  0  0  0  0  0  0  0  0  0
  1  2  1  0
  2  3  2  0
  4  2  1  0
  5  4  1  0
  5  6  1  6
  7  5  1  0
  7  8  2  0
 10 12  1  0
 10  9  1  6
 11 10  1  0
 12 13  1  1
 13  7  1  0
 14 12  1  0
 15 14  2  0
 17 16  1  0
 18 17  1  0
 19 18  1  0
 20 19  1  6
 20 22  1  0
 20 21  1  0
 21 14  1  0
 22 23  1  0
 24 22  2  0
M  END
$$$$
