NVM.pdb
     RDKit          3D

 24 23  0  0  1  0  0  0  0  0999 V2000
   16.8345  -19.9257  -13.4039 N   0  0  0  0  0  0  0  0  0  0  0  0
   17.4718  -20.2613  -12.1797 C   0  0  0  0  0  0  0  0  0  0  0  0
   17.0025  -19.8532  -11.0849 O   0  0  0  0  0  0  0  0  0  0  0  0
   18.6932  -21.0937  -12.1780 C   0  0  0  0  0  0  0  0  0  0  0  0
   19.1035  -21.3522  -13.5969 C   0  0  2  0  0  0  0  0  0  0  0  0
   18.2016  -22.2632  -14.2502 N   0  0  0  0  0  0  0  0  0  0  0  0
   20.5223  -21.7610  -13.7360 C   0  0  0  0  0  0  0  0  0  0  0  0
   20.8214  -22.9452  -13.4266 O   0  0  0  0  0  0  0  0  0  0  0  0
   24.7830  -20.8722  -15.9980 C   0  0  0  0  0  0  0  0  0  0  0  0
   23.3154  -20.8695  -15.7468 C   0  0  1  0  0  0  0  0  0  0  0  0
   22.5336  -21.5816  -16.7871 C   0  0  0  0  0  0  0  0  0  0  0  0
   22.9598  -21.3657  -14.3458 C   0  0  2  0  0  0  0  0  0  0  0  0
   21.5495  -20.9215  -14.1874 N   0  0  0  0  0  0  0  0  0  0  0  0
   23.7920  -20.7100  -13.3415 C   0  0  0  0  0  0  0  0  0  0  0  0
   23.8163  -19.4560  -13.1631 O   0  0  0  0  0  0  0  0  0  0  0  0
   26.0618  -19.2199   -8.0838 C   0  0  0  0  0  0  0  0  0  0  0  0
   26.8033  -20.8756   -8.1394 S   0  0  0  0  0  0  0  0  0  0  0  0
   27.2778  -21.3137   -9.8501 C   0  0  0  0  0  0  0  0  0  0  0  0
   26.0834  -21.7188  -10.6470 C   0  0  0  0  0  0  0  0  0  0  0  0
   25.7704  -20.8298  -11.8228 C   0  0  2  0  0  0  0  0  0  0  0  0
   24.6302  -21.4635  -12.4926 N   0  0  0  0  0  0  0  0  0  0  0  0
   26.9058  -20.8339  -12.7593 C   0  0  0  0  0  0  0  0  0  0  0  0
   27.7171  -19.7368  -13.0264 O   0  0  0  0  0  0  0  0  0  0  0  0
   27.2174  -21.8891  -13.4036 O   0  0  0  0  0  0  0  0  0  0  0  0
  1  2  1  0
  2  3  2  0
  4  2  1  0
  5  4  1  0
  5  6  1  1
  7  5  1  0
  7  8  2  0
 10 12  1  0
 10  9  1  6
 11 10  1  0
 12 13  1  1
 13  7  1  0
 14 12  1  0
 15 14  2  0
 17 16  1  0
 18 17  1  0
 19 18  1  0
 20 19  1  1
 20 22  1  0
 20 21  1  0
 21 14  1  0
 22 23  1  0
 24 22  2  0
M  END
$$$$
