NVM.pdb
     RDKit          3D

 24 23  0  0  1  0  0  0  0  0999 V2000
   16.6357  -16.2859  -16.6873 N   0  0  0  0  0  0  0  0  0  0  0  0
   16.8863  -15.0659  -17.3700 C   0  0  0  0  0  0  0  0  0  0  0  0
   16.1259  -14.6891  -18.3002 O   0  0  0  0  0  0  0  0  0  0  0  0
   18.0427  -14.2250  -16.9953 C   0  0  0  0  0  0  0  0  0  0  0  0
   18.9402  -14.0792  -18.1876 C   0  0  2  0  0  0  0  0  0  0  0  0
   19.6385  -15.3036  -18.4763 N   0  0  0  0  0  0  0  0  0  0  0  0
   19.8522  -12.9129  -18.1007 C   0  0  0  0  0  0  0  0  0  0  0  0
   21.0118  -13.1112  -17.6495 O   0  0  0  0  0  0  0  0  0  0  0  0
   20.6467   -8.2199  -19.4857 C   0  0  0  0  0  0  0  0  0  0  0  0
   20.0734   -9.5916  -19.5665 C   0  0  1  0  0  0  0  0  0  0  0  0
   20.3848  -10.2916  -20.8368 C   0  0  0  0  0  0  0  0  0  0  0  0
   20.4344  -10.4500  -18.3547 C   0  0  2  0  0  0  0  0  0  0  0  0
   19.5122  -11.6092  -18.4861 N   0  0  0  0  0  0  0  0  0  0  0  0
   20.1450   -9.7363  -17.1145 C   0  0  0  0  0  0  0  0  0  0  0  0
   18.9873   -9.3359  -16.7913 O   0  0  0  0  0  0  0  0  0  0  0  0
   22.5702   -9.3494   -9.6734 C   0  0  0  0  0  0  0  0  0  0  0  0
   22.8017   -9.8763  -11.3947 S   0  0  0  0  0  0  0  0  0  0  0  0
   21.6362   -9.0026  -12.5000 C   0  0  0  0  0  0  0  0  0  0  0  0
   21.7101   -9.5450  -13.8878 C   0  0  0  0  0  0  0  0  0  0  0  0
   20.8523   -8.8285  -14.8985 C   0  0  2  0  0  0  0  0  0  0  0  0
   21.1695   -9.4542  -16.1863 N   0  0  0  0  0  0  0  0  0  0  0  0
   21.2533   -7.4143  -14.9707 C   0  0  0  0  0  0  0  0  0  0  0  0
   20.7043   -6.3943  -14.2016 O   0  0  0  0  0  0  0  0  0  0  0  0
   22.1636   -7.0337  -15.7783 O   0  0  0  0  0  0  0  0  0  0  0  0
  1  2  1  0
  2  3  2  0
  4  2  1  0
  5  4  1  0
  5  6  1  1
  7  5  1  0
  7  8  2  0
 10 12  1  0
 10  9  1  1
 11 10  1  0
 12 13  1  1
 13  7  1  0
 14 12  1  0
 15 14  2  0
 17 16  1  0
 18 17  1  0
 19 18  1  0
 20 19  1  1
 20 22  1  0
 20 21  1  0
 21 14  1  0
 22 23  1  0
 24 22  2  0
M  END
$$$$
