NVM.pdb
     RDKit          3D

 24 23  0  0  1  0  0  0  0  0999 V2000
   21.3394  -19.1119  -14.2796 N   0  0  0  0  0  0  0  0  0  0  0  0
   21.0042  -20.2064  -13.4387 C   0  0  0  0  0  0  0  0  0  0  0  0
   19.8673  -20.7423  -13.5141 O   0  0  0  0  0  0  0  0  0  0  0  0
   21.9869  -20.7283  -12.4657 C   0  0  0  0  0  0  0  0  0  0  0  0
   23.1952  -21.2106  -13.2113 C   0  0  2  0  0  0  0  0  0  0  0  0
   22.8613  -22.2618  -14.1352 N   0  0  0  0  0  0  0  0  0  0  0  0
   24.3294  -21.5718  -12.3267 C   0  0  0  0  0  0  0  0  0  0  0  0
   24.3036  -22.7060  -11.7783 O   0  0  0  0  0  0  0  0  0  0  0  0
   29.0075  -20.8151  -11.0506 C   0  0  0  0  0  0  0  0  0  0  0  0
   27.7724  -20.6675  -11.8689 C   0  0  1  0  0  0  0  0  0  0  0  0
   27.8576  -21.3239  -13.1965 C   0  0  0  0  0  0  0  0  0  0  0  0
   26.5148  -21.0978  -11.1147 C   0  0  2  0  0  0  0  0  0  0  0  0
   25.4248  -20.7394  -12.0607 N   0  0  0  0  0  0  0  0  0  0  0  0
   26.3641  -20.3267   -9.8843 C   0  0  0  0  0  0  0  0  0  0  0  0
   25.8376  -19.1753   -9.8400 O   0  0  0  0  0  0  0  0  0  0  0  0
   28.7022  -22.8032   -4.4321 C   0  0  0  0  0  0  0  0  0  0  0  0
   28.5600  -21.0791   -3.8834 S   0  0  0  0  0  0  0  0  0  0  0  0
   27.5378  -20.1118   -5.0509 C   0  0  0  0  0  0  0  0  0  0  0  0
   27.4616  -20.7880   -6.3785 C   0  0  0  0  0  0  0  0  0  0  0  0
   26.6462  -20.0622   -7.4174 C   0  0  2  0  0  0  0  0  0  0  0  0
   26.8056  -20.8438   -8.6479 N   0  0  0  0  0  0  0  0  0  0  0  0
   27.2211  -18.7275   -7.6505 C   0  0  0  0  0  0  0  0  0  0  0  0
   26.7450  -17.5496   -7.0855 O   0  0  0  0  0  0  0  0  0  0  0  0
   28.2284  -18.5748   -8.4171 O   0  0  0  0  0  0  0  0  0  0  0  0
  1  2  1  0
  2  3  2  0
  4  2  1  0
  5  4  1  0
  5  6  1  1
  7  5  1  0
  7  8  2  0
 10 12  1  0
 10  9  1  1
 11 10  1  0
 12 13  1  6
 13  7  1  0
 14 12  1  0
 15 14  2  0
 17 16  1  0
 18 17  1  0
 19 18  1  0
 20 19  1  1
 20 22  1  0
 20 21  1  0
 21 14  1  0
 22 23  1  0
 24 22  2  0
M  END
$$$$
