NVM.pdb
     RDKit          3D

 24 23  0  0  1  0  0  0  0  0999 V2000
   30.0075  -22.6933  -17.0651 N   0  0  0  0  0  0  0  0  0  0  0  0
   28.7509  -22.6267  -16.4065 C   0  0  0  0  0  0  0  0  0  0  0  0
   27.8529  -23.4716  -16.6616 O   0  0  0  0  0  0  0  0  0  0  0  0
   28.4839  -21.5643  -15.4141 C   0  0  0  0  0  0  0  0  0  0  0  0
   27.1813  -20.9033  -15.7529 C   0  0  2  0  0  0  0  0  0  0  0  0
   27.3159  -20.0152  -16.8769 N   0  0  0  0  0  0  0  0  0  0  0  0
   26.5298  -20.2524  -14.5904 C   0  0  0  0  0  0  0  0  0  0  0  0
   26.7558  -19.0268  -14.4054 O   0  0  0  0  0  0  0  0  0  0  0  0
   23.1741  -21.8251  -13.1173 C   0  0  0  0  0  0  0  0  0  0  0  0
   23.5342  -20.4039  -12.8575 C   0  0  1  0  0  0  0  0  0  0  0  0
   22.6825  -19.7534  -11.8319 C   0  0  0  0  0  0  0  0  0  0  0  0
   25.0191  -20.2235  -12.5443 C   0  0  2  0  0  0  0  0  0  0  0  0
   25.6818  -20.9068  -13.6869 N   0  0  0  0  0  0  0  0  0  0  0  0
   25.3688  -20.9043  -11.3012 C   0  0  0  0  0  0  0  0  0  0  0  0
   25.3841  -22.1647  -11.1739 O   0  0  0  0  0  0  0  0  0  0  0  0
   29.0398  -18.1114   -6.8653 C   0  0  0  0  0  0  0  0  0  0  0  0
   27.9854  -19.0646   -5.7366 S   0  0  0  0  0  0  0  0  0  0  0  0
   27.0448  -20.3378   -6.6518 C   0  0  0  0  0  0  0  0  0  0  0  0
   26.7749  -19.8974   -8.0514 C   0  0  0  0  0  0  0  0  0  0  0  0
   25.9547  -20.8569   -8.8744 C   0  0  2  0  0  0  0  0  0  0  0  0
   25.7221  -20.1704  -10.1491 N   0  0  0  0  0  0  0  0  0  0  0  0
   24.6492  -21.0683   -8.2286 C   0  0  0  0  0  0  0  0  0  0  0  0
   24.3958  -22.0178   -7.2450 O   0  0  0  0  0  0  0  0  0  0  0  0
   23.6381  -20.3622   -8.5524 O   0  0  0  0  0  0  0  0  0  0  0  0
  1  2  1  0
  2  3  2  0
  4  2  1  0
  5  4  1  0
  5  6  1  6
  7  5  1  0
  7  8  2  0
 10 12  1  0
 10  9  1  1
 11 10  1  0
 12 13  1  6
 13  7  1  0
 14 12  1  0
 15 14  2  0
 17 16  1  0
 18 17  1  0
 19 18  1  0
 20 19  1  1
 20 22  1  0
 20 21  1  0
 21 14  1  0
 22 23  1  0
 24 22  2  0
M  END
$$$$
