NVM.pdb
     RDKit          3D

 24 23  0  0  1  0  0  0  0  0999 V2000
   20.9216  -18.9773  -13.6288 N   0  0  0  0  0  0  0  0  0  0  0  0
   20.5214  -19.1220  -12.2737 C   0  0  0  0  0  0  0  0  0  0  0  0
   19.5004  -18.5234  -11.8441 O   0  0  0  0  0  0  0  0  0  0  0  0
   21.2994  -19.9775  -11.3530 C   0  0  0  0  0  0  0  0  0  0  0  0
   22.4916  -20.5162  -12.0858 C   0  0  2  0  0  0  0  0  0  0  0  0
   22.1056  -21.4582  -13.1026 N   0  0  0  0  0  0  0  0  0  0  0  0
   23.5446  -21.0500  -11.1882 C   0  0  0  0  0  0  0  0  0  0  0  0
   23.2460  -22.0324  -10.4579 O   0  0  0  0  0  0  0  0  0  0  0  0
   26.7689  -22.3719  -12.2074 C   0  0  0  0  0  0  0  0  0  0  0  0
   27.0617  -21.3340  -11.1808 C   0  0  1  0  0  0  0  0  0  0  0  0
   27.5369  -20.0504  -11.7527 C   0  0  0  0  0  0  0  0  0  0  0  0
   25.8949  -21.1166  -10.2180 C   0  0  2  0  0  0  0  0  0  0  0  0
   24.8455  -20.5371  -11.0982 N   0  0  0  0  0  0  0  0  0  0  0  0
   26.2533  -20.1483   -9.1860 C   0  0  0  0  0  0  0  0  0  0  0  0
   25.9974  -18.9103   -9.2687 O   0  0  0  0  0  0  0  0  0  0  0  0
   26.0074  -21.3048   -3.0706 C   0  0  0  0  0  0  0  0  0  0  0  0
   27.4716  -20.2370   -2.9703 S   0  0  0  0  0  0  0  0  0  0  0  0
   27.7533  -19.3762   -4.5588 C   0  0  0  0  0  0  0  0  0  0  0  0
   27.1909  -20.1602   -5.6966 C   0  0  0  0  0  0  0  0  0  0  0  0
   27.4235  -19.5614   -7.0597 C   0  0  2  0  0  0  0  0  0  0  0  0
   26.9170  -20.5569   -8.0098 N   0  0  0  0  0  0  0  0  0  0  0  0
   28.8690  -19.4089   -7.2905 C   0  0  0  0  0  0  0  0  0  0  0  0
   29.6236  -18.3102   -6.8944 O   0  0  0  0  0  0  0  0  0  0  0  0
   29.5336  -20.3149   -7.8932 O   0  0  0  0  0  0  0  0  0  0  0  0
  1  2  1  0
  2  3  2  0
  4  2  1  0
  5  4  1  0
  5  6  1  6
  7  5  1  0
  7  8  2  0
 10 12  1  0
 10  9  1  6
 11 10  1  0
 12 13  1  6
 13  7  1  0
 14 12  1  0
 15 14  2  0
 17 16  1  0
 18 17  1  0
 19 18  1  0
 20 19  1  1
 20 22  1  0
 20 21  1  0
 21 14  1  0
 22 23  1  0
 24 22  2  0
M  END
$$$$
