NVM.pdb
     RDKit          3D

 24 23  0  0  1  0  0  0  0  0999 V2000
   20.5978  -18.0379  -15.5964 N   0  0  0  0  0  0  0  0  0  0  0  0
   21.7059  -18.0737  -14.7086 C   0  0  0  0  0  0  0  0  0  0  0  0
   22.6706  -17.2792  -14.8622 O   0  0  0  0  0  0  0  0  0  0  0  0
   21.7383  -19.0444  -13.5944 C   0  0  0  0  0  0  0  0  0  0  0  0
   23.0413  -19.7853  -13.6372 C   0  0  2  0  0  0  0  0  0  0  0  0
   23.0805  -20.7229  -14.7278 N   0  0  0  0  0  0  0  0  0  0  0  0
   23.4101  -20.4061  -12.3418 C   0  0  0  0  0  0  0  0  0  0  0  0
   22.7153  -21.3781  -11.9416 O   0  0  0  0  0  0  0  0  0  0  0  0
   24.7364  -22.7254  -12.1581 C   0  0  0  0  0  0  0  0  0  0  0  0
   25.7552  -21.9598  -11.3881 C   0  0  1  0  0  0  0  0  0  0  0  0
   26.8600  -21.4326  -12.2258 C   0  0  0  0  0  0  0  0  0  0  0  0
   25.1346  -20.8595  -10.5279 C   0  0  2  0  0  0  0  0  0  0  0  0
   24.4764  -19.9859  -11.5355 N   0  0  0  0  0  0  0  0  0  0  0  0
   26.1722  -20.1038   -9.8326 C   0  0  0  0  0  0  0  0  0  0  0  0
   26.8454  -19.1775  -10.3745 O   0  0  0  0  0  0  0  0  0  0  0  0
   28.8506  -20.3064   -3.2844 C   0  0  0  0  0  0  0  0  0  0  0  0
   27.6925  -19.0155   -3.8199 S   0  0  0  0  0  0  0  0  0  0  0  0
   27.9872  -18.5681   -5.5681 C   0  0  0  0  0  0  0  0  0  0  0  0
   27.0210  -19.2647   -6.4664 C   0  0  0  0  0  0  0  0  0  0  0  0
   27.5714  -19.6558   -7.8136 C   0  0  2  0  0  0  0  0  0  0  0  0
   26.4810  -20.3728   -8.4823 N   0  0  0  0  0  0  0  0  0  0  0  0
   28.6895  -20.5960   -7.6347 C   0  0  0  0  0  0  0  0  0  0  0  0
   30.0216  -20.2250   -7.4883 O   0  0  0  0  0  0  0  0  0  0  0  0
   28.4866  -21.8544   -7.6048 O   0  0  0  0  0  0  0  0  0  0  0  0
  1  2  1  0
  2  3  2  0
  4  2  1  0
  5  4  1  0
  5  6  1  6
  7  5  1  0
  7  8  2  0
 10 12  1  0
 10  9  1  6
 11 10  1  0
 12 13  1  6
 13  7  1  0
 14 12  1  0
 15 14  2  0
 17 16  1  0
 18 17  1  0
 19 18  1  0
 20 19  1  1
 20 22  1  0
 20 21  1  0
 21 14  1  0
 22 23  1  0
 24 22  2  0
M  END
$$$$
