RWG.pdb
     RDKit          3D

 30 31  0  0  1  0  0  0  0  0999 V2000
    8.5267  -12.9617   17.4692 N   0  0  0  0  0  0  0  0  0  0  0  0
    8.0814  -14.0198   16.6368 C   0  0  0  0  0  0  0  0  0  0  0  0
    7.6355  -13.7839   15.4347 N   0  0  0  0  0  0  0  0  0  0  0  0
    8.0861  -15.3720   17.0309 N   0  0  0  0  0  0  0  0  0  0  0  0
    7.9156  -15.7194   18.4174 C   0  0  0  0  0  0  0  0  0  0  0  0
    9.2900  -15.8831   19.0040 C   0  0  0  0  0  0  0  0  0  0  0  0
    9.3312  -16.3165   20.4271 C   0  0  0  0  0  0  0  0  0  0  0  0
    8.4087  -15.5181   21.3029 C   0  0  2  0  0  0  0  0  0  0  0  0
    7.9108  -14.3682   20.6141 N   0  0  0  0  0  0  0  0  0  0  0  0
    9.0011  -15.1867   22.6062 C   0  0  0  0  0  0  0  0  0  0  0  0
    9.5780  -14.0705   22.8164 O   0  0  0  0  0  0  0  0  0  0  0  0
    7.3570  -14.6132   14.8715 N   0  0  0  0  0  0  0  0  0  0  0  0
    8.9279  -16.1442   23.6633 C   0  0  1  0  0  0  0  0  0  0  0  0
    9.6293  -15.9649   24.8893 C   0  0  0  0  0  0  0  0  0  0  0  0
    8.7120  -16.1515   26.0647 C   0  0  0  0  0  0  0  0  0  0  0  0
    7.5541  -15.2380   26.0915 C   0  0  0  0  0  0  0  0  0  0  0  0
    6.2518  -15.6473   25.7941 N   0  0  0  0  0  0  0  0  0  0  0  0
    5.4201  -14.5959   25.9310 C   0  0  0  0  0  0  0  0  0  0  0  0
    6.1051  -13.5109   26.3033 C   0  0  0  0  0  0  0  0  0  0  0  0
    5.7184  -12.2096   26.5593 C   0  0  0  0  0  0  0  0  0  0  0  0
    6.6661  -11.2880   26.9196 C   0  0  0  0  0  0  0  0  0  0  0  0
    7.9789  -11.6790   27.0179 C   0  0  0  0  0  0  0  0  0  0  0  0
    8.3713  -12.9892   26.7610 C   0  0  0  0  0  0  0  0  0  0  0  0
    7.4312  -13.9139   26.4017 C   0  0  0  0  0  0  0  0  0  0  0  0
   10.8169  -16.8650   24.9940 O   0  0  0  0  0  0  0  0  0  0  0  0
   11.4848  -16.9608   26.0599 N   0  0  0  0  0  0  0  0  0  0  0  0
   11.2139  -17.6303   23.8892 C   0  0  0  0  0  0  0  0  0  0  0  0
   12.3701  -18.5306   23.9736 C   0  0  0  0  0  0  0  0  0  0  0  0
   13.6183  -17.8510   23.6401 O   0  0  0  0  0  0  0  0  0  0  0  0
   13.6146  -16.6405   23.3293 O   0  0  0  0  0  0  0  0  0  0  0  0
  2  1  1  0
  2  3  2  0
  4  5  1  0
  4  2  1  0
  6  5  1  0
  7  6  1  0
  8  7  1  0
  8  9  1  6
 10  8  1  0
 10 11  2  0
 12 10  1  0
 13 14  1  6
 13 12  1  0
 15 14  1  0
 15 23  1  0
 16 15  2  0
 17 16  1  0
 17 18  1  0
 18 19  1  0
 18 23  2  0
 19 20  2  0
 20 21  1  0
 22 21  2  0
 23 22  1  0
 24 13  1  0
 25 24  2  0
 26 24  1  0
 27 26  1  0
 28 30  1  0
 28 27  1  0
 29 28  2  0
M  END
$$$$
