RWG.pdb
     RDKit          3D

 30 31  0  0  1  0  0  0  0  0999 V2000
    9.5199  -12.9989   17.2656 N   0  0  0  0  0  0  0  0  0  0  0  0
    8.4327  -13.5622   16.5504 C   0  0  0  0  0  0  0  0  0  0  0  0
    8.5512  -13.8784   15.2913 N   0  0  0  0  0  0  0  0  0  0  0  0
    7.1736  -13.8187   17.1275 N   0  0  0  0  0  0  0  0  0  0  0  0
    6.9912  -13.6840   18.5490 C   0  0  0  0  0  0  0  0  0  0  0  0
    7.8892  -14.6941   19.2073 C   0  0  0  0  0  0  0  0  0  0  0  0
    7.7691  -14.7889   20.6876 C   0  0  0  0  0  0  0  0  0  0  0  0
    8.6777  -15.8293   21.2771 C   0  0  2  0  0  0  0  0  0  0  0  0
    7.9988  -17.0779   21.4333 N   0  0  0  0  0  0  0  0  0  0  0  0
    9.3343  -15.3815   22.5133 C   0  0  0  0  0  0  0  0  0  0  0  0
   10.0416  -14.3226   22.5514 O   0  0  0  0  0  0  0  0  0  0  0  0
    7.7341  -14.3490   14.8516 N   0  0  0  0  0  0  0  0  0  0  0  0
    9.1744  -16.1569   23.7019 C   0  0  1  0  0  0  0  0  0  0  0  0
    9.8230  -15.8070   24.9200 C   0  0  0  0  0  0  0  0  0  0  0  0
    8.8778  -15.9188   26.0827 C   0  0  0  0  0  0  0  0  0  0  0  0
    7.6661  -15.0849   25.9719 C   0  0  0  0  0  0  0  0  0  0  0  0
    6.4070  -15.6053   25.6624 N   0  0  0  0  0  0  0  0  0  0  0  0
    5.5068  -14.6024   25.6610 C   0  0  0  0  0  0  0  0  0  0  0  0
    6.1055  -13.4443   25.9532 C   0  0  0  0  0  0  0  0  0  0  0  0
    5.6281  -12.1528   26.0641 C   0  0  0  0  0  0  0  0  0  0  0  0
    6.4992  -11.1408   26.3713 C   0  0  0  0  0  0  0  0  0  0  0  0
    7.8274  -11.4337   26.5616 C   0  0  0  0  0  0  0  0  0  0  0  0
    8.3112  -12.7338   26.4509 C   0  0  0  0  0  0  0  0  0  0  0  0
    7.4476  -13.7482   26.1455 C   0  0  0  0  0  0  0  0  0  0  0  0
   11.0534  -16.6208   25.1554 O   0  0  0  0  0  0  0  0  0  0  0  0
   11.2569  -17.2145   26.2497 N   0  0  0  0  0  0  0  0  0  0  0  0
   12.0176  -16.7388   24.1453 C   0  0  0  0  0  0  0  0  0  0  0  0
   13.2743  -17.4585   24.3847 C   0  0  0  0  0  0  0  0  0  0  0  0
   13.1461  -18.8876   24.1166 O   0  0  0  0  0  0  0  0  0  0  0  0
   12.4526  -19.6105   24.8640 O   0  0  0  0  0  0  0  0  0  0  0  0
  2  1  1  0
  2  3  2  0
  4  5  1  0
  4  2  1  0
  6  5  1  0
  7  6  1  0
  8  7  1  0
  8  9  1  1
 10  8  1  0
 10 11  2  0
 12 10  1  0
 13 14  1  6
 13 12  1  0
 15 14  1  0
 15 23  1  0
 16 15  2  0
 17 16  1  0
 17 18  1  0
 18 19  1  0
 18 23  2  0
 19 20  2  0
 20 21  1  0
 22 21  2  0
 23 22  1  0
 24 13  1  0
 25 24  2  0
 26 24  1  0
 27 26  1  0
 28 30  1  0
 28 27  1  0
 29 28  2  0
M  END
$$$$
