RWG.pdb
     RDKit          3D

 30 31  0  0  1  0  0  0  0  0999 V2000
    8.8345  -13.0227   16.5144 N   0  0  0  0  0  0  0  0  0  0  0  0
    8.0166  -13.8230   17.3519 C   0  0  0  0  0  0  0  0  0  0  0  0
    7.5979  -14.9933   16.9587 N   0  0  0  0  0  0  0  0  0  0  0  0
    7.6035  -13.4287   18.6395 N   0  0  0  0  0  0  0  0  0  0  0  0
    6.6900  -14.2524   19.3872 C   0  0  0  0  0  0  0  0  0  0  0  0
    7.5040  -15.3349   20.0396 C   0  0  0  0  0  0  0  0  0  0  0  0
    8.3054  -14.9103   21.2195 C   0  0  0  0  0  0  0  0  0  0  0  0
    9.1130  -16.0327   21.8056 C   0  0  2  0  0  0  0  0  0  0  0  0
    8.3708  -17.2549   21.8088 N   0  0  0  0  0  0  0  0  0  0  0  0
    9.6746  -15.7061   23.1237 C   0  0  0  0  0  0  0  0  0  0  0  0
   10.3890  -14.6679   23.3099 O   0  0  0  0  0  0  0  0  0  0  0  0
    7.1598  -15.5975   17.6836 N   0  0  0  0  0  0  0  0  0  0  0  0
    9.4119  -16.5786   24.2235 C   0  0  1  0  0  0  0  0  0  0  0  0
    9.9694  -16.3502   25.5135 C   0  0  0  0  0  0  0  0  0  0  0  0
    8.9049  -16.3913   26.5731 C   0  0  0  0  0  0  0  0  0  0  0  0
    7.7378  -15.5298   26.3054 C   0  0  0  0  0  0  0  0  0  0  0  0
    6.5096  -16.0249   25.8602 N   0  0  0  0  0  0  0  0  0  0  0  0
    5.6437  -15.0000   25.7345 C   0  0  0  0  0  0  0  0  0  0  0  0
    6.2358  -13.8513   26.0731 C   0  0  0  0  0  0  0  0  0  0  0  0
    5.7844  -12.5460   26.1032 C   0  0  0  0  0  0  0  0  0  0  0  0
    6.6413  -11.5498   26.4914 C   0  0  0  0  0  0  0  0  0  0  0  0
    7.9296  -11.8718   26.8416 C   0  0  0  0  0  0  0  0  0  0  0  0
    8.3870  -13.1857   26.8127 C   0  0  0  0  0  0  0  0  0  0  0  0
    7.5375  -14.1845   26.4271 C   0  0  0  0  0  0  0  0  0  0  0  0
   11.0697  -17.3103   25.8282 O   0  0  0  0  0  0  0  0  0  0  0  0
   11.6716  -17.2895   26.9366 N   0  0  0  0  0  0  0  0  0  0  0  0
   11.4566  -18.2660   24.8789 C   0  0  0  0  0  0  0  0  0  0  0  0
   12.4834  -19.2665   25.1936 C   0  0  0  0  0  0  0  0  0  0  0  0
   13.7804  -18.9182   24.6215 O   0  0  0  0  0  0  0  0  0  0  0  0
   14.3936  -19.7362   23.9026 O   0  0  0  0  0  0  0  0  0  0  0  0
  2  1  1  0
  2  3  2  0
  4  5  1  0
  4  2  1  0
  6  5  1  0
  7  6  1  0
  8  7  1  0
  8  9  1  1
 10  8  1  0
 10 11  2  0
 12 10  1  0
 13 14  1  6
 13 12  1  0
 15 14  1  0
 15 23  1  0
 16 15  2  0
 17 16  1  0
 17 18  1  0
 18 19  1  0
 18 23  2  0
 19 20  2  0
 20 21  1  0
 22 21  2  0
 23 22  1  0
 24 13  1  0
 25 24  2  0
 26 24  1  0
 27 26  1  0
 28 30  1  0
 28 27  1  0
 29 28  2  0
M  END
$$$$
