RWG.pdb
     RDKit          3D

 30 31  0  0  1  0  0  0  0  0999 V2000
    7.2699  -13.7597   15.3638 N   0  0  0  0  0  0  0  0  0  0  0  0
    8.0143  -13.7736   16.5706 C   0  0  0  0  0  0  0  0  0  0  0  0
    8.7696  -12.7644   16.9033 N   0  0  0  0  0  0  0  0  0  0  0  0
    7.9969  -14.8482   17.4810 N   0  0  0  0  0  0  0  0  0  0  0  0
    7.1167  -14.8144   18.6195 C   0  0  0  0  0  0  0  0  0  0  0  0
    7.7371  -13.8905   19.6302 C   0  0  0  0  0  0  0  0  0  0  0  0
    7.6310  -14.3291   21.0484 C   0  0  0  0  0  0  0  0  0  0  0  0
    8.6070  -15.4172   21.3929 C   0  0  2  0  0  0  0  0  0  0  0  0
    7.9725  -16.6985   21.3908 N   0  0  0  0  0  0  0  0  0  0  0  0
    9.3453  -15.1514   22.6355 C   0  0  0  0  0  0  0  0  0  0  0  0
   10.0038  -14.0744   22.8071 O   0  0  0  0  0  0  0  0  0  0  0  0
    9.2097  -12.8042   17.8452 N   0  0  0  0  0  0  0  0  0  0  0  0
    9.3233  -16.1291   23.6763 C   0  0  1  0  0  0  0  0  0  0  0  0
    9.9978  -15.9247   24.9134 C   0  0  0  0  0  0  0  0  0  0  0  0
    9.0748  -16.1661   26.0742 C   0  0  0  0  0  0  0  0  0  0  0  0
    7.8664  -15.3201   26.0846 C   0  0  0  0  0  0  0  0  0  0  0  0
    6.5929  -15.8042   25.7751 N   0  0  0  0  0  0  0  0  0  0  0  0
    5.7011  -14.8015   25.8985 C   0  0  0  0  0  0  0  0  0  0  0  0
    6.3190  -13.6778   26.2733 C   0  0  0  0  0  0  0  0  0  0  0  0
    5.8560  -12.3997   26.5194 C   0  0  0  0  0  0  0  0  0  0  0  0
    6.7456  -11.4241   26.8857 C   0  0  0  0  0  0  0  0  0  0  0  0
    8.0774  -11.7392   26.9997 C   0  0  0  0  0  0  0  0  0  0  0  0
    8.5467  -13.0258   26.7529 C   0  0  0  0  0  0  0  0  0  0  0  0
    7.6648  -14.0040   26.3877 C   0  0  0  0  0  0  0  0  0  0  0  0
   11.2274  -16.7652   25.0286 O   0  0  0  0  0  0  0  0  0  0  0  0
   11.8429  -16.8940   26.1221 N   0  0  0  0  0  0  0  0  0  0  0  0
   11.7243  -17.4353   23.9025 C   0  0  0  0  0  0  0  0  0  0  0  0
   12.8820  -18.3312   24.0100 C   0  0  0  0  0  0  0  0  0  0  0  0
   14.0798  -17.7521   23.4093 O   0  0  0  0  0  0  0  0  0  0  0  0
   13.9881  -17.0088   22.4088 O   0  0  0  0  0  0  0  0  0  0  0  0
  2  1  1  0
  2  3  2  0
  4  5  1  0
  4  2  1  0
  6  5  1  0
  7  6  1  0
  8  7  1  0
  8  9  1  1
 10  8  1  0
 10 11  2  0
 12 10  1  0
 13 14  1  1
 13 12  1  0
 15 14  1  0
 15 23  1  0
 16 15  2  0
 17 16  1  0
 17 18  1  0
 18 19  1  0
 18 23  2  0
 19 20  2  0
 20 21  1  0
 22 21  2  0
 23 22  1  0
 24 13  1  0
 25 24  2  0
 26 24  1  0
 27 26  1  0
 28 30  1  0
 28 27  1  0
 29 28  2  0
M  END
$$$$
