RWG.pdb
     RDKit          3D

 30 31  0  0  1  0  0  0  0  0999 V2000
    8.6289  -15.4576   16.9475 N   0  0  0  0  0  0  0  0  0  0  0  0
    8.0368  -14.2831   16.4176 C   0  0  0  0  0  0  0  0  0  0  0  0
    7.7005  -14.2115   15.1601 N   0  0  0  0  0  0  0  0  0  0  0  0
    7.7716  -13.1329   17.1861 N   0  0  0  0  0  0  0  0  0  0  0  0
    8.3184  -13.0099   18.5120 C   0  0  0  0  0  0  0  0  0  0  0  0
    7.3884  -13.7373   19.4426 C   0  0  0  0  0  0  0  0  0  0  0  0
    7.7895  -13.7396   20.8758 C   0  0  0  0  0  0  0  0  0  0  0  0
    8.8614  -14.7477   21.1758 C   0  0  2  0  0  0  0  0  0  0  0  0
    8.4357  -16.0696   20.8354 N   0  0  0  0  0  0  0  0  0  0  0  0
    9.3687  -14.6514   22.5516 C   0  0  0  0  0  0  0  0  0  0  0  0
    9.7539  -13.5433   23.0484 O   0  0  0  0  0  0  0  0  0  0  0  0
    7.2272  -13.3366   14.8550 N   0  0  0  0  0  0  0  0  0  0  0  0
    9.4317  -15.8335   23.3505 C   0  0  1  0  0  0  0  0  0  0  0  0
    9.8689  -15.8025   24.7051 C   0  0  0  0  0  0  0  0  0  0  0  0
    8.7715  -16.2401   25.6335 C   0  0  0  0  0  0  0  0  0  0  0  0
    7.6195  -15.3212   25.6993 C   0  0  0  0  0  0  0  0  0  0  0  0
    6.3056  -15.7251   25.4492 N   0  0  0  0  0  0  0  0  0  0  0  0
    5.4841  -14.6695   25.6131 C   0  0  0  0  0  0  0  0  0  0  0  0
    6.1868  -13.5870   25.9584 C   0  0  0  0  0  0  0  0  0  0  0  0
    5.8154  -12.2834   26.2250 C   0  0  0  0  0  0  0  0  0  0  0  0
    6.7794  -11.3654   26.5494 C   0  0  0  0  0  0  0  0  0  0  0  0
    8.0931  -11.7623   26.6020 C   0  0  0  0  0  0  0  0  0  0  0  0
    8.4702  -13.0748   26.3343 C   0  0  0  0  0  0  0  0  0  0  0  0
    7.5137  -13.9959   26.0107 C   0  0  0  0  0  0  0  0  0  0  0  0
   11.1013  -16.6199   24.9166 O   0  0  0  0  0  0  0  0  0  0  0  0
   11.5656  -16.8340   26.0698 N   0  0  0  0  0  0  0  0  0  0  0  0
   11.7722  -17.1710   23.8165 C   0  0  0  0  0  0  0  0  0  0  0  0
   12.9571  -18.0167   24.0040 C   0  0  0  0  0  0  0  0  0  0  0  0
   13.4303  -18.5829   22.7445 O   0  0  0  0  0  0  0  0  0  0  0  0
   12.6160  -18.9199   21.8583 O   0  0  0  0  0  0  0  0  0  0  0  0
  2  1  1  0
  2  3  2  0
  4  5  1  0
  4  2  1  0
  6  5  1  0
  7  6  1  0
  8  7  1  0
  8  9  1  1
 10  8  1  0
 10 11  2  0
 12 10  1  0
 13 14  1  1
 13 12  1  0
 15 14  1  0
 15 23  1  0
 16 15  2  0
 17 16  1  0
 17 18  1  0
 18 19  1  0
 18 23  2  0
 19 20  2  0
 20 21  1  0
 22 21  2  0
 23 22  1  0
 24 13  1  0
 25 24  2  0
 26 24  1  0
 27 26  1  0
 28 30  1  0
 28 27  1  0
 29 28  2  0
M  END
$$$$
