RWG.pdb
     RDKit          3D

 30 31  0  0  1  0  0  0  0  0999 V2000
    9.8732  -19.8375   15.5421 N   0  0  0  0  0  0  0  0  0  0  0  0
   10.7174  -19.5935   16.6550 C   0  0  0  0  0  0  0  0  0  0  0  0
   11.9707  -19.9516   16.6361 N   0  0  0  0  0  0  0  0  0  0  0  0
   10.2817  -18.9617   17.8360 N   0  0  0  0  0  0  0  0  0  0  0  0
   11.2014  -18.7533   18.9235 C   0  0  0  0  0  0  0  0  0  0  0  0
   10.7583  -17.5110   19.6449 C   0  0  0  0  0  0  0  0  0  0  0  0
   10.8120  -17.5799   21.1306 C   0  0  0  0  0  0  0  0  0  0  0  0
    9.5830  -17.0131   21.7816 C   0  0  2  0  0  0  0  0  0  0  0  0
    8.8498  -16.1905   20.8705 N   0  0  0  0  0  0  0  0  0  0  0  0
    9.8701  -16.3351   23.0535 C   0  0  0  0  0  0  0  0  0  0  0  0
   10.3643  -15.1615   23.0914 O   0  0  0  0  0  0  0  0  0  0  0  0
   12.5461  -19.6724   17.4567 N   0  0  0  0  0  0  0  0  0  0  0  0
    9.5878  -17.0131   24.2783 C   0  0  1  0  0  0  0  0  0  0  0  0
    9.9261  -16.4525   25.5426 C   0  0  0  0  0  0  0  0  0  0  0  0
    8.7352  -16.4370   26.4588 C   0  0  0  0  0  0  0  0  0  0  0  0
    7.6625  -15.5080   26.0564 C   0  0  0  0  0  0  0  0  0  0  0  0
    6.5318  -15.9111   25.3414 N   0  0  0  0  0  0  0  0  0  0  0  0
    5.7309  -14.8443   25.1504 C   0  0  0  0  0  0  0  0  0  0  0  0
    6.2736  -13.7551   25.7018 C   0  0  0  0  0  0  0  0  0  0  0  0
    5.8559  -12.4399   25.7680 C   0  0  0  0  0  0  0  0  0  0  0  0
    6.6451  -11.5178   26.4037 C   0  0  0  0  0  0  0  0  0  0  0  0
    7.8336  -11.9221   26.9605 C   0  0  0  0  0  0  0  0  0  0  0  0
    8.2568  -13.2462   26.8957 C   0  0  0  0  0  0  0  0  0  0  0  0
    7.4742  -14.1715   26.2637 C   0  0  0  0  0  0  0  0  0  0  0  0
   11.0779  -17.1584   26.1803 O   0  0  0  0  0  0  0  0  0  0  0  0
   11.5423  -16.7969   27.2960 N   0  0  0  0  0  0  0  0  0  0  0  0
   11.6704  -18.2531   25.5362 C   0  0  0  0  0  0  0  0  0  0  0  0
   12.7342  -19.0251   26.1895 C   0  0  0  0  0  0  0  0  0  0  0  0
   12.2056  -19.9478   27.1894 O   0  0  0  0  0  0  0  0  0  0  0  0
   12.7842  -20.0871   28.2884 O   0  0  0  0  0  0  0  0  0  0  0  0
  2  1  1  0
  2  3  2  0
  4  5  1  0
  4  2  1  0
  6  5  1  0
  7  6  1  0
  8  7  1  0
  8  9  1  6
 10  8  1  0
 10 11  2  0
 12 10  1  0
 13 14  1  1
 13 12  1  0
 15 14  1  0
 15 23  1  0
 16 15  2  0
 17 16  1  0
 17 18  1  0
 18 19  1  0
 18 23  2  0
 19 20  2  0
 20 21  1  0
 22 21  2  0
 23 22  1  0
 24 13  1  0
 25 24  2  0
 26 24  1  0
 27 26  1  0
 28 30  1  0
 28 27  1  0
 29 28  2  0
M  END
$$$$
