RWG.pdb
     RDKit          3D

 30 31  0  0  1  0  0  0  0  0999 V2000
    8.4056  -11.6729   18.9451 N   0  0  0  0  0  0  0  0  0  0  0  0
    8.1104  -12.8885   18.2774 C   0  0  0  0  0  0  0  0  0  0  0  0
    8.5892  -13.1337   17.0899 N   0  0  0  0  0  0  0  0  0  0  0  0
    7.2999  -13.8999   18.8287 N   0  0  0  0  0  0  0  0  0  0  0  0
    7.4735  -14.2942   20.2023 C   0  0  0  0  0  0  0  0  0  0  0  0
    8.1693  -15.6268   20.1948 C   0  0  0  0  0  0  0  0  0  0  0  0
    7.5564  -16.6739   21.0566 C   0  0  0  0  0  0  0  0  0  0  0  0
    8.5722  -17.4189   21.8742 C   0  0  2  0  0  0  0  0  0  0  0  0
    7.9866  -18.5569   22.5119 N   0  0  0  0  0  0  0  0  0  0  0  0
    9.2975  -16.5524   22.8137 C   0  0  0  0  0  0  0  0  0  0  0  0
    9.9266  -15.5164   22.4216 O   0  0  0  0  0  0  0  0  0  0  0  0
    8.3103  -14.0362   16.6539 N   0  0  0  0  0  0  0  0  0  0  0  0
    9.2965  -16.8839   24.2029 C   0  0  1  0  0  0  0  0  0  0  0  0
    9.9203  -16.0509   25.1744 C   0  0  0  0  0  0  0  0  0  0  0  0
    9.0593  -15.9165   26.3985 C   0  0  0  0  0  0  0  0  0  0  0  0
    7.8067  -15.1661   26.1892 C   0  0  0  0  0  0  0  0  0  0  0  0
    6.5692  -15.7851   25.9961 N   0  0  0  0  0  0  0  0  0  0  0  0
    5.6213  -14.8368   25.8608 C   0  0  0  0  0  0  0  0  0  0  0  0
    6.1680  -13.6213   25.9538 C   0  0  0  0  0  0  0  0  0  0  0  0
    5.6302  -12.3513   25.8738 C   0  0  0  0  0  0  0  0  0  0  0  0
    6.4563  -11.2652   25.9975 C   0  0  0  0  0  0  0  0  0  0  0  0
    7.8003  -11.4641   26.1981 C   0  0  0  0  0  0  0  0  0  0  0  0
    8.3448  -12.7421   26.2795 C   0  0  0  0  0  0  0  0  0  0  0  0
    7.5265  -13.8300   26.1576 C   0  0  0  0  0  0  0  0  0  0  0  0
   11.2863  -16.5355   25.5363 O   0  0  0  0  0  0  0  0  0  0  0  0
   11.6562  -16.6411   26.7377 N   0  0  0  0  0  0  0  0  0  0  0  0
   12.1938  -16.8863   24.5276 C   0  0  0  0  0  0  0  0  0  0  0  0
   13.5461  -17.3500   24.8599 C   0  0  0  0  0  0  0  0  0  0  0  0
   14.2710  -17.8135   23.6807 O   0  0  0  0  0  0  0  0  0  0  0  0
   13.6574  -18.0680   22.6220 O   0  0  0  0  0  0  0  0  0  0  0  0
  2  1  1  0
  2  3  2  0
  4  5  1  0
  4  2  1  0
  6  5  1  0
  7  6  1  0
  8  7  1  0
  8  9  1  1
 10  8  1  0
 10 11  2  0
 12 10  1  0
 13 14  1  1
 13 12  1  0
 15 14  1  0
 15 23  1  0
 16 15  2  0
 17 16  1  0
 17 18  1  0
 18 19  1  0
 18 23  2  0
 19 20  2  0
 20 21  1  0
 22 21  2  0
 23 22  1  0
 24 13  1  0
 25 24  2  0
 26 24  1  0
 27 26  1  0
 28 30  1  0
 28 27  1  0
 29 28  2  0
M  END
$$$$
