RWG.pdb
     RDKit          3D

 30 31  0  0  1  0  0  0  0  0999 V2000
    7.8956  -14.0926   16.9730 N   0  0  0  0  0  0  0  0  0  0  0  0
    7.6199  -13.4151   18.1878 C   0  0  0  0  0  0  0  0  0  0  0  0
    8.2802  -12.3415   18.5207 N   0  0  0  0  0  0  0  0  0  0  0  0
    6.6378  -13.8359   19.1056 N   0  0  0  0  0  0  0  0  0  0  0  0
    7.0014  -14.6775   20.2153 C   0  0  0  0  0  0  0  0  0  0  0  0
    8.2548  -15.4090   19.8229 C   0  0  0  0  0  0  0  0  0  0  0  0
    9.4254  -15.1991   20.7176 C   0  0  0  0  0  0  0  0  0  0  0  0
    9.6798  -16.3699   21.6231 C   0  0  2  0  0  0  0  0  0  0  0  0
    8.5279  -17.2123   21.7125 N   0  0  0  0  0  0  0  0  0  0  0  0
   10.1964  -15.9729   22.9403 C   0  0  0  0  0  0  0  0  0  0  0  0
   11.0592  -15.0447   23.0705 O   0  0  0  0  0  0  0  0  0  0  0  0
    8.1215  -11.9780   19.4826 N   0  0  0  0  0  0  0  0  0  0  0  0
    9.7175  -16.6485   24.1039 C   0  0  1  0  0  0  0  0  0  0  0  0
   10.0994  -16.2480   25.4157 C   0  0  0  0  0  0  0  0  0  0  0  0
    8.9216  -16.2721   26.3485 C   0  0  0  0  0  0  0  0  0  0  0  0
    7.8016  -15.4004   25.9465 C   0  0  0  0  0  0  0  0  0  0  0  0
    6.6583  -15.8760   25.2993 N   0  0  0  0  0  0  0  0  0  0  0  0
    5.8133  -14.8472   25.0904 C   0  0  0  0  0  0  0  0  0  0  0  0
    6.3387  -13.7145   25.5657 C   0  0  0  0  0  0  0  0  0  0  0  0
    5.8777  -12.4124   25.5857 C   0  0  0  0  0  0  0  0  0  0  0  0
    6.6585  -11.4341   26.1431 C   0  0  0  0  0  0  0  0  0  0  0  0
    7.8817  -11.7705   26.6690 C   0  0  0  0  0  0  0  0  0  0  0  0
    8.3485  -13.0813   26.6506 C   0  0  0  0  0  0  0  0  0  0  0  0
    7.5746  -14.0623   26.0968 C   0  0  0  0  0  0  0  0  0  0  0  0
   11.2196  -17.0776   25.9528 O   0  0  0  0  0  0  0  0  0  0  0  0
   11.4925  -17.1066   27.1840 N   0  0  0  0  0  0  0  0  0  0  0  0
   11.9981  -17.8502   25.0804 C   0  0  0  0  0  0  0  0  0  0  0  0
   12.9889  -18.8014   25.5981 C   0  0  0  0  0  0  0  0  0  0  0  0
   13.5915  -19.5977   24.5333 O   0  0  0  0  0  0  0  0  0  0  0  0
   13.0765  -19.6224   23.3948 O   0  0  0  0  0  0  0  0  0  0  0  0
  2  1  1  0
  2  3  2  0
  4  5  1  0
  4  2  1  0
  6  5  1  0
  7  6  1  0
  8  7  1  0
  8  9  1  1
 10  8  1  0
 10 11  2  0
 12 10  1  0
 13 14  1  1
 13 12  1  0
 15 14  1  0
 15 23  1  0
 16 15  2  0
 17 16  1  0
 17 18  1  0
 18 19  1  0
 18 23  2  0
 19 20  2  0
 20 21  1  0
 22 21  2  0
 23 22  1  0
 24 13  1  0
 25 24  2  0
 26 24  1  0
 27 26  1  0
 28 30  1  0
 28 27  1  0
 29 28  2  0
M  END
$$$$
