RWG.pdb
     RDKit          3D

 30 31  0  0  1  0  0  0  0  0999 V2000
    6.9158  -14.5996   13.3021 N   0  0  0  0  0  0  0  0  0  0  0  0
    7.8487  -14.0327   14.2072 C   0  0  0  0  0  0  0  0  0  0  0  0
    8.4103  -12.8830   13.9575 N   0  0  0  0  0  0  0  0  0  0  0  0
    8.2315  -14.6488   15.4146 N   0  0  0  0  0  0  0  0  0  0  0  0
    7.7249  -15.9537   15.7503 C   0  0  0  0  0  0  0  0  0  0  0  0
    8.4320  -16.3936   17.0019 C   0  0  0  0  0  0  0  0  0  0  0  0
    8.3339  -15.4580   18.1551 C   0  0  0  0  0  0  0  0  0  0  0  0
    8.9281  -16.0243   19.4127 C   0  0  2  0  0  0  0  0  0  0  0  0
    8.4957  -17.3703   19.6266 N   0  0  0  0  0  0  0  0  0  0  0  0
    8.7115  -15.1653   20.5852 C   0  0  0  0  0  0  0  0  0  0  0  0
    7.9053  -14.1794   20.5546 O   0  0  0  0  0  0  0  0  0  0  0  0
    9.1088  -12.5468   14.6514 N   0  0  0  0  0  0  0  0  0  0  0  0
    9.4263  -15.4449   21.7896 C   0  0  1  0  0  0  0  0  0  0  0  0
    8.9921  -14.9519   23.0527 C   0  0  0  0  0  0  0  0  0  0  0  0
    7.6050  -15.4351   23.3694 C   0  0  0  0  0  0  0  0  0  0  0  0
    7.0449  -14.9118   24.6297 C   0  0  0  0  0  0  0  0  0  0  0  0
    6.3437  -15.7054   25.5411 N   0  0  0  0  0  0  0  0  0  0  0  0
    5.9861  -14.9481   26.5969 C   0  0  0  0  0  0  0  0  0  0  0  0
    6.4141  -13.6934   26.4311 C   0  0  0  0  0  0  0  0  0  0  0  0
    6.2947  -12.5595   27.2111 C   0  0  0  0  0  0  0  0  0  0  0  0
    6.8374  -11.3819   26.7683 C   0  0  0  0  0  0  0  0  0  0  0  0
    7.4877  -11.3558   25.5590 C   0  0  0  0  0  0  0  0  0  0  0  0
    7.6100  -12.4965   24.7713 C   0  0  0  0  0  0  0  0  0  0  0  0
    7.0715  -13.6747   25.2071 C   0  0  0  0  0  0  0  0  0  0  0  0
    9.9415  -15.3054   24.1505 O   0  0  0  0  0  0  0  0  0  0  0  0
    9.8296  -14.8159   25.3077 N   0  0  0  0  0  0  0  0  0  0  0  0
   10.9899  -16.2028   23.9063 C   0  0  0  0  0  0  0  0  0  0  0  0
   11.9134  -16.5911   24.9791 C   0  0  0  0  0  0  0  0  0  0  0  0
   12.9647  -17.4833   24.4999 O   0  0  0  0  0  0  0  0  0  0  0  0
   12.9860  -17.8495   23.3052 O   0  0  0  0  0  0  0  0  0  0  0  0
  2  1  1  0
  2  3  2  0
  4  5  1  0
  4  2  1  0
  6  5  1  0
  7  6  1  0
  8  7  1  0
  8  9  1  1
 10  8  1  0
 10 11  2  0
 12 10  1  0
 13 14  1  1
 13 12  1  0
 15 14  1  0
 15 23  1  0
 16 15  2  0
 17 16  1  0
 17 18  1  0
 18 19  1  0
 18 23  2  0
 19 20  2  0
 20 21  1  0
 22 21  2  0
 23 22  1  0
 24 13  1  0
 25 24  2  0
 26 24  1  0
 27 26  1  0
 28 30  1  0
 28 27  1  0
 29 28  2  0
M  END
$$$$
