RWG.pdb
     RDKit          3D

 30 31  0  0  1  0  0  0  0  0999 V2000
    7.7393  -12.1457   18.0786 N   0  0  0  0  0  0  0  0  0  0  0  0
    7.7764  -13.5298   17.7728 C   0  0  0  0  0  0  0  0  0  0  0  0
    7.8721  -13.9409   16.5394 N   0  0  0  0  0  0  0  0  0  0  0  0
    7.7153  -14.5425   18.7499 N   0  0  0  0  0  0  0  0  0  0  0  0
    7.3163  -14.2228   20.0955 C   0  0  0  0  0  0  0  0  0  0  0  0
    7.8239  -15.3266   20.9809 C   0  0  0  0  0  0  0  0  0  0  0  0
    9.2954  -15.5468   20.9498 C   0  0  0  0  0  0  0  0  0  0  0  0
    9.7360  -16.6481   21.8709 C   0  0  2  0  0  0  0  0  0  0  0  0
    8.7900  -17.7202   21.8821 N   0  0  0  0  0  0  0  0  0  0  0  0
   10.0659  -16.1681   23.2201 C   0  0  0  0  0  0  0  0  0  0  0  0
   10.8032  -15.1460   23.4067 O   0  0  0  0  0  0  0  0  0  0  0  0
    7.8781  -14.9708   16.3921 N   0  0  0  0  0  0  0  0  0  0  0  0
    9.5457  -16.8688   24.3506 C   0  0  1  0  0  0  0  0  0  0  0  0
    9.8225  -16.4541   25.6841 C   0  0  0  0  0  0  0  0  0  0  0  0
    8.5820  -16.5052   26.5305 C   0  0  0  0  0  0  0  0  0  0  0  0
    7.5311  -15.5469   26.1390 C   0  0  0  0  0  0  0  0  0  0  0  0
    6.3737  -15.9216   25.4520 N   0  0  0  0  0  0  0  0  0  0  0  0
    5.6033  -14.8319   25.2647 C   0  0  0  0  0  0  0  0  0  0  0  0
    6.1916  -13.7545   25.7920 C   0  0  0  0  0  0  0  0  0  0  0  0
    5.8172  -12.4261   25.8512 C   0  0  0  0  0  0  0  0  0  0  0  0
    6.6483  -11.5226   26.4599 C   0  0  0  0  0  0  0  0  0  0  0  0
    7.8346  -11.9585   26.9971 C   0  0  0  0  0  0  0  0  0  0  0  0
    8.2142  -13.2961   26.9394 C   0  0  0  0  0  0  0  0  0  0  0  0
    7.3897  -14.2028   26.3343 C   0  0  0  0  0  0  0  0  0  0  0  0
   10.9221  -17.2528   26.3043 O   0  0  0  0  0  0  0  0  0  0  0  0
   11.2534  -17.0999   27.5118 N   0  0  0  0  0  0  0  0  0  0  0  0
   11.6146  -18.2011   25.5393 C   0  0  0  0  0  0  0  0  0  0  0  0
   12.6487  -19.0476   26.1463 C   0  0  0  0  0  0  0  0  0  0  0  0
   13.2990  -19.9077   25.1622 O   0  0  0  0  0  0  0  0  0  0  0  0
   13.3658  -19.5581   23.9642 O   0  0  0  0  0  0  0  0  0  0  0  0
  2  1  1  0
  2  3  2  0
  4  5  1  0
  4  2  1  0
  6  5  1  0
  7  6  1  0
  8  7  1  0
  8  9  1  1
 10  8  1  0
 10 11  2  0
 12 10  1  0
 13 14  1  6
 13 12  1  0
 15 14  1  0
 15 23  1  0
 16 15  2  0
 17 16  1  0
 17 18  1  0
 18 19  1  0
 18 23  2  0
 19 20  2  0
 20 21  1  0
 22 21  2  0
 23 22  1  0
 24 13  1  0
 25 24  2  0
 26 24  1  0
 27 26  1  0
 28 30  1  0
 28 27  1  0
 29 28  2  0
M  END
$$$$
