WMH.pdb
     RDKit          3D

 33 35  0  0  1  0  0  0  0  0999 V2000
   10.9522  -16.1149   21.1894 N   0  0  0  0  0  0  0  0  0  0  0  0
    9.6847  -15.7426   21.8409 C   0  0  1  0  0  0  0  0  0  0  0  0
    8.5641  -16.4147   21.0973 C   0  0  0  0  0  0  0  0  0  0  0  0
    7.9792  -15.6744   19.9840 C   0  0  0  0  0  0  0  0  0  0  0  0
    7.2890  -16.2885   18.9297 C   0  0  0  0  0  0  0  0  0  0  0  0
    6.8976  -15.3558   18.0427 N   0  0  0  0  0  0  0  0  0  0  0  0
    7.3021  -14.1322   18.4677 C   0  0  0  0  0  0  0  0  0  0  0  0
    7.1407  -12.8686   17.9346 C   0  0  0  0  0  0  0  0  0  0  0  0
    7.6373  -11.7657   18.5792 C   0  0  0  0  0  0  0  0  0  0  0  0
    8.3004  -11.9764   19.7761 C   0  0  0  0  0  0  0  0  0  0  0  0
    8.4672  -13.2309   20.3159 C   0  0  0  0  0  0  0  0  0  0  0  0
    7.9621  -14.3382   19.6560 C   0  0  0  0  0  0  0  0  0  0  0  0
    9.7602  -16.0507   23.2520 C   0  0  0  0  0  0  0  0  0  0  0  0
   10.8087  -16.5452   23.7351 O   0  0  0  0  0  0  0  0  0  0  0  0
    6.4321  -11.0164   26.5128 C   0  0  0  0  0  0  0  0  0  0  0  0
    6.5352  -12.7346   27.0170 S   0  0  0  0  0  0  0  0  0  0  0  0
    7.7139  -13.6512   26.0218 C   0  0  0  0  0  0  0  0  0  0  0  0
    7.9425  -15.0532   26.4310 C   0  0  0  0  0  0  0  0  0  0  0  0
    8.8912  -15.8646   25.6313 C   0  0  2  0  0  0  0  0  0  0  0  0
    8.6936  -15.8343   24.2039 N   0  0  0  0  0  0  0  0  0  0  0  0
    9.0946  -17.2546   26.1316 C   0  0  0  0  0  0  0  0  0  0  0  0
    8.6992  -18.2789   25.5101 O   0  0  0  0  0  0  0  0  0  0  0  0
    9.7618  -17.4883   27.3621 N   0  0  0  0  0  0  0  0  0  0  0  0
   10.4757  -18.7440   27.6344 C   0  0  1  0  0  0  0  0  0  0  0  0
   11.6338  -18.7313   26.6267 C   0  0  0  0  0  0  0  0  0  0  0  0
   11.3351  -19.4344   25.3898 C   0  0  0  0  0  0  0  0  0  0  0  0
   10.1734  -20.0986   25.0949 C   0  0  0  0  0  0  0  0  0  0  0  0
   10.2719  -20.6186   23.8682 N   0  0  0  0  0  0  0  0  0  0  0  0
   11.4732  -20.2901   23.3948 C   0  0  0  0  0  0  0  0  0  0  0  0
   12.1396  -19.5579   24.3267 N   0  0  0  0  0  0  0  0  0  0  0  0
   10.9438  -18.8175   29.0152 C   0  0  0  0  0  0  0  0  0  0  0  0
   11.5563  -19.8175   29.4264 O   0  0  0  0  0  0  0  0  0  0  0  0
   10.7145  -17.7755   29.8927 O   0  0  0  0  0  0  0  0  0  0  0  0
  2  1  1  6
  3  4  1  0
  3  2  1  0
  4  5  2  0
  6  5  1  0
  7  6  1  0
  8  7  2  0
  9  8  1  0
 10 11  1  0
 10  9  2  0
 11 12  2  0
 12  7  1  0
 12  4  1  0
 13  2  1  0
 13 14  2  0
 16 15  1  0
 17 16  1  0
 17 18  1  0
 19 20  1  0
 19 18  1  1
 20 13  1  0
 21 19  1  0
 22 21  2  0
 23 21  1  0
 24 23  1  0
 25 26  1  0
 24 25  1  6
 26 27  2  0
 28 27  1  0
 29 28  1  0
 30 29  2  0
 30 26  1  0
 31 33  1  0
 31 24  1  0
 32 31  2  0
M  END
$$$$
