WMH.pdb
     RDKit          3D

 33 35  0  0  1  0  0  0  0  0999 V2000
    6.4844  -17.2854   25.3484 N   0  0  0  0  0  0  0  0  0  0  0  0
    7.2730  -16.2839   24.6102 C   0  0  1  0  0  0  0  0  0  0  0  0
    8.4352  -15.8784   25.4733 C   0  0  0  0  0  0  0  0  0  0  0  0
    8.2270  -14.7384   26.3603 C   0  0  0  0  0  0  0  0  0  0  0  0
    8.7492  -14.6687   27.6594 C   0  0  0  0  0  0  0  0  0  0  0  0
    8.3633  -13.5180   28.2397 N   0  0  0  0  0  0  0  0  0  0  0  0
    7.5981  -12.8099   27.3711 C   0  0  0  0  0  0  0  0  0  0  0  0
    6.9808  -11.5791   27.4743 C   0  0  0  0  0  0  0  0  0  0  0  0
    6.2642  -11.0626   26.4263 C   0  0  0  0  0  0  0  0  0  0  0  0
    6.1899  -11.8248   25.2730 C   0  0  0  0  0  0  0  0  0  0  0  0
    6.8005  -13.0524   25.1596 C   0  0  0  0  0  0  0  0  0  0  0  0
    7.5214  -13.5650   26.2247 C   0  0  0  0  0  0  0  0  0  0  0  0
    7.6248  -16.8112   23.3103 C   0  0  0  0  0  0  0  0  0  0  0  0
    7.6232  -18.0510   23.1102 O   0  0  0  0  0  0  0  0  0  0  0  0
    7.1270  -12.2120   20.5496 C   0  0  0  0  0  0  0  0  0  0  0  0
    8.0667  -13.0856   19.2962 S   0  0  0  0  0  0  0  0  0  0  0  0
    7.9482  -14.8651   19.4944 C   0  0  0  0  0  0  0  0  0  0  0  0
    9.1549  -15.5305   20.0297 C   0  0  0  0  0  0  0  0  0  0  0  0
    8.9954  -16.4147   21.2091 C   0  0  2  0  0  0  0  0  0  0  0  0
    7.9963  -16.0096   22.1657 N   0  0  0  0  0  0  0  0  0  0  0  0
   10.2734  -16.7994   21.8741 C   0  0  0  0  0  0  0  0  0  0  0  0
   10.3807  -16.9747   23.1189 O   0  0  0  0  0  0  0  0  0  0  0  0
   11.4548  -16.9907   21.1114 N   0  0  0  0  0  0  0  0  0  0  0  0
   12.3869  -18.0942   21.3836 C   0  0  1  0  0  0  0  0  0  0  0  0
   11.5242  -19.3520   21.2097 C   0  0  0  0  0  0  0  0  0  0  0  0
   11.0205  -19.8886   22.4635 C   0  0  0  0  0  0  0  0  0  0  0  0
   11.2031  -19.3470   23.7088 C   0  0  0  0  0  0  0  0  0  0  0  0
   10.5955  -20.1227   24.6111 N   0  0  0  0  0  0  0  0  0  0  0  0
   10.0385  -21.1364   23.9501 C   0  0  0  0  0  0  0  0  0  0  0  0
   10.2945  -21.0025   22.6214 N   0  0  0  0  0  0  0  0  0  0  0  0
   13.5315  -18.0780   20.4775 C   0  0  0  0  0  0  0  0  0  0  0  0
   14.6187  -18.5744   20.8177 O   0  0  0  0  0  0  0  0  0  0  0  0
   13.4280  -17.5096   19.2227 O   0  0  0  0  0  0  0  0  0  0  0  0
  2  1  1  1
  3  4  1  0
  3  2  1  0
  4  5  2  0
  6  5  1  0
  7  6  1  0
  8  7  2  0
  9  8  1  0
 10 11  1  0
 10  9  2  0
 11 12  2  0
 12  7  1  0
 12  4  1  0
 13  2  1  0
 13 14  2  0
 16 15  1  0
 17 16  1  0
 17 18  1  0
 19 20  1  0
 19 18  1  6
 20 13  1  0
 21 19  1  0
 22 21  2  0
 23 21  1  0
 24 23  1  0
 25 26  1  0
 24 25  1  6
 26 27  2  0
 28 27  1  0
 29 28  1  0
 30 29  2  0
 30 26  1  0
 31 33  1  0
 31 24  1  0
 32 31  2  0
M  END
$$$$
