WMH.pdb
     RDKit          3D

 33 35  0  0  1  0  0  0  0  0999 V2000
   10.5326  -15.2922   21.8052 N   0  0  0  0  0  0  0  0  0  0  0  0
    9.0908  -15.3383   22.1032 C   0  0  1  0  0  0  0  0  0  0  0  0
    8.4637  -16.3723   21.2100 C   0  0  0  0  0  0  0  0  0  0  0  0
    7.9928  -15.9144   19.9069 C   0  0  0  0  0  0  0  0  0  0  0  0
    7.3882  -16.7601   18.9665 C   0  0  0  0  0  0  0  0  0  0  0  0
    7.0933  -16.0616   17.8552 N   0  0  0  0  0  0  0  0  0  0  0  0
    7.4799  -14.7712   18.0184 C   0  0  0  0  0  0  0  0  0  0  0  0
    7.3886  -13.6675   17.1936 C   0  0  0  0  0  0  0  0  0  0  0  0
    7.8453  -12.4428   17.6059 C   0  0  0  0  0  0  0  0  0  0  0  0
    8.3959  -12.3659   18.8738 C   0  0  0  0  0  0  0  0  0  0  0  0
    8.4923  -13.4591   19.7035 C   0  0  0  0  0  0  0  0  0  0  0  0
    8.0283  -14.6918   19.2767 C   0  0  0  0  0  0  0  0  0  0  0  0
    8.8989  -15.5502   23.5210 C   0  0  0  0  0  0  0  0  0  0  0  0
    9.8288  -16.0229   24.2203 O   0  0  0  0  0  0  0  0  0  0  0  0
    6.9755  -10.4213   27.0671 C   0  0  0  0  0  0  0  0  0  0  0  0
    7.1636  -12.1798   27.3665 S   0  0  0  0  0  0  0  0  0  0  0  0
    6.3517  -13.1612   26.1025 C   0  0  0  0  0  0  0  0  0  0  0  0
    6.4271  -14.6264   26.2841 C   0  0  0  0  0  0  0  0  0  0  0  0
    7.5746  -15.3435   25.6784 C   0  0  2  0  0  0  0  0  0  0  0  0
    7.6815  -15.2567   24.2436 N   0  0  0  0  0  0  0  0  0  0  0  0
    7.7587  -16.7418   26.1626 C   0  0  0  0  0  0  0  0  0  0  0  0
    7.0115  -17.6980   25.8176 O   0  0  0  0  0  0  0  0  0  0  0  0
    8.8135  -17.0632   27.0560 N   0  0  0  0  0  0  0  0  0  0  0  0
    9.4291  -18.3976   27.0858 C   0  0  1  0  0  0  0  0  0  0  0  0
   10.0210  -18.5580   25.6784 C   0  0  0  0  0  0  0  0  0  0  0  0
   10.7698  -19.7913   25.5004 C   0  0  0  0  0  0  0  0  0  0  0  0
   10.9501  -20.7731   26.4391 C   0  0  0  0  0  0  0  0  0  0  0  0
   11.6943  -21.7475   25.9084 N   0  0  0  0  0  0  0  0  0  0  0  0
   11.9801  -21.3900   24.6572 C   0  0  0  0  0  0  0  0  0  0  0  0
   11.4139  -20.1822   24.3935 N   0  0  0  0  0  0  0  0  0  0  0  0
   10.4441  -18.5075   28.1293 C   0  0  0  0  0  0  0  0  0  0  0  0
   10.6670  -19.5951   28.6874 O   0  0  0  0  0  0  0  0  0  0  0  0
   11.1773  -17.4028   28.5172 O   0  0  0  0  0  0  0  0  0  0  0  0
  2  1  1  1
  3  4  1  0
  3  2  1  0
  4  5  2  0
  6  5  1  0
  7  6  1  0
  8  7  2  0
  9  8  1  0
 10 11  1  0
 10  9  2  0
 11 12  2  0
 12  7  1  0
 12  4  1  0
 13  2  1  0
 13 14  2  0
 16 15  1  0
 17 16  1  0
 17 18  1  0
 19 20  1  0
 19 18  1  6
 20 13  1  0
 21 19  1  0
 22 21  2  0
 23 21  1  0
 24 23  1  0
 25 26  1  0
 24 25  1  6
 26 27  2  0
 28 27  1  0
 29 28  1  0
 30 29  2  0
 30 26  1  0
 31 33  1  0
 31 24  1  0
 32 31  2  0
M  END
$$$$
