WMH.pdb
     RDKit          3D

 33 35  0  0  1  0  0  0  0  0999 V2000
    9.3199  -17.4994   21.0200 N   0  0  0  0  0  0  0  0  0  0  0  0
    9.1853  -16.3500   21.9313 C   0  0  1  0  0  0  0  0  0  0  0  0
    7.7731  -15.8432   21.8358 C   0  0  0  0  0  0  0  0  0  0  0  0
    7.5106  -14.5232   22.3998 C   0  0  0  0  0  0  0  0  0  0  0  0
    7.6060  -13.3370   21.6590 C   0  0  0  0  0  0  0  0  0  0  0  0
    7.3396  -12.2853   22.4546 N   0  0  0  0  0  0  0  0  0  0  0  0
    7.0667  -12.7268   23.7084 C   0  0  0  0  0  0  0  0  0  0  0  0
    6.7235  -12.0611   24.8685 C   0  0  0  0  0  0  0  0  0  0  0  0
    6.4741  -12.7506   26.0265 C   0  0  0  0  0  0  0  0  0  0  0  0
    6.5814  -14.1300   25.9780 C   0  0  0  0  0  0  0  0  0  0  0  0
    6.9231  -14.8033   24.8279 C   0  0  0  0  0  0  0  0  0  0  0  0
    7.1734  -14.0968   23.6639 C   0  0  0  0  0  0  0  0  0  0  0  0
    9.6138  -16.7348   23.2580 C   0  0  0  0  0  0  0  0  0  0  0  0
   10.2003  -17.8305   23.4390 O   0  0  0  0  0  0  0  0  0  0  0  0
   11.4719  -14.1350   30.6314 C   0  0  0  0  0  0  0  0  0  0  0  0
   10.6486  -13.7998   29.0735 S   0  0  0  0  0  0  0  0  0  0  0  0
   10.8132  -15.1689   27.9251 C   0  0  0  0  0  0  0  0  0  0  0  0
   10.1687  -14.9798   26.6082 C   0  0  0  0  0  0  0  0  0  0  0  0
   10.2150  -16.1050   25.6439 C   0  0  2  0  0  0  0  0  0  0  0  0
    9.4218  -15.9418   24.4516 N   0  0  0  0  0  0  0  0  0  0  0  0
   10.0262  -17.4529   26.2530 C   0  0  0  0  0  0  0  0  0  0  0  0
    8.9046  -17.8922   26.6283 O   0  0  0  0  0  0  0  0  0  0  0  0
   11.1325  -18.3221   26.4392 N   0  0  0  0  0  0  0  0  0  0  0  0
   11.0025  -19.6091   27.1373 C   0  0  1  0  0  0  0  0  0  0  0  0
   12.1355  -20.4604   26.5471 C   0  0  0  0  0  0  0  0  0  0  0  0
   11.9434  -20.7912   25.1445 C   0  0  0  0  0  0  0  0  0  0  0  0
   10.7534  -20.7825   24.4652 C   0  0  0  0  0  0  0  0  0  0  0  0
   10.9760  -21.1444   23.1985 N   0  0  0  0  0  0  0  0  0  0  0  0
   12.2821  -21.3777   23.0776 C   0  0  0  0  0  0  0  0  0  0  0  0
   12.8907  -21.1627   24.2743 N   0  0  0  0  0  0  0  0  0  0  0  0
   11.1187  -19.4591   28.5848 C   0  0  0  0  0  0  0  0  0  0  0  0
   11.4250  -18.3651   29.0881 O   0  0  0  0  0  0  0  0  0  0  0  0
   10.8901  -20.5322   29.4242 O   0  0  0  0  0  0  0  0  0  0  0  0
  2  1  1  6
  3  4  1  0
  3  2  1  0
  4  5  2  0
  6  5  1  0
  7  6  1  0
  8  7  2  0
  9  8  1  0
 10 11  1  0
 10  9  2  0
 11 12  2  0
 12  7  1  0
 12  4  1  0
 13  2  1  0
 13 14  2  0
 16 15  1  0
 17 16  1  0
 17 18  1  0
 19 20  1  0
 19 18  1  1
 20 13  1  0
 21 19  1  0
 22 21  2  0
 23 21  1  0
 24 23  1  0
 25 26  1  0
 24 25  1  6
 26 27  2  0
 28 27  1  0
 29 28  1  0
 30 29  2  0
 30 26  1  0
 31 33  1  0
 31 24  1  0
 32 31  2  0
M  END
$$$$
