WMH.pdb
     RDKit          3D

 33 35  0  0  1  0  0  0  0  0999 V2000
    9.0651  -17.2415   21.9286 N   0  0  0  0  0  0  0  0  0  0  0  0
   10.3924  -16.7538   22.3412 C   0  0  1  0  0  0  0  0  0  0  0  0
   10.4589  -15.2808   22.0478 C   0  0  0  0  0  0  0  0  0  0  0  0
    9.1949  -14.6128   21.7548 C   0  0  0  0  0  0  0  0  0  0  0  0
    8.0792  -14.6714   22.6014 C   0  0  0  0  0  0  0  0  0  0  0  0
    7.0588  -13.9890   22.0511 N   0  0  0  0  0  0  0  0  0  0  0  0
    7.4532  -13.4717   20.8602 C   0  0  0  0  0  0  0  0  0  0  0  0
    6.7967  -12.6929   19.9278 C   0  0  0  0  0  0  0  0  0  0  0  0
    7.4337  -12.2741   18.7889 C   0  0  0  0  0  0  0  0  0  0  0  0
    8.7512  -12.6644   18.6198 C   0  0  0  0  0  0  0  0  0  0  0  0
    9.4146  -13.4406   19.5419 C   0  0  0  0  0  0  0  0  0  0  0  0
    8.7613  -13.8586   20.6888 C   0  0  0  0  0  0  0  0  0  0  0  0
   10.6323  -17.1194   23.7197 C   0  0  0  0  0  0  0  0  0  0  0  0
   11.7010  -17.6940   24.0438 O   0  0  0  0  0  0  0  0  0  0  0  0
    6.8923  -13.0158   27.0963 C   0  0  0  0  0  0  0  0  0  0  0  0
    8.4460  -12.8956   27.9845 S   0  0  0  0  0  0  0  0  0  0  0  0
    9.5385  -14.2674   27.6039 C   0  0  0  0  0  0  0  0  0  0  0  0
    9.2030  -15.0326   26.3844 C   0  0  0  0  0  0  0  0  0  0  0  0
   10.0859  -16.1626   26.0082 C   0  0  2  0  0  0  0  0  0  0  0  0
    9.7161  -16.8756   24.8114 N   0  0  0  0  0  0  0  0  0  0  0  0
   10.4144  -17.0929   27.1264 C   0  0  0  0  0  0  0  0  0  0  0  0
   10.7901  -16.7012   28.2653 O   0  0  0  0  0  0  0  0  0  0  0  0
   10.3133  -18.4974   26.9500 N   0  0  0  0  0  0  0  0  0  0  0  0
   10.8531  -19.4465   27.9341 C   0  0  1  0  0  0  0  0  0  0  0  0
   11.8682  -20.2695   27.1286 C   0  0  0  0  0  0  0  0  0  0  0  0
   11.3035  -20.8850   25.9387 C   0  0  0  0  0  0  0  0  0  0  0  0
   10.0215  -20.7346   25.4788 C   0  0  0  0  0  0  0  0  0  0  0  0
    9.8750  -21.4544   24.3629 N   0  0  0  0  0  0  0  0  0  0  0  0
   11.0421  -22.0495   24.1202 C   0  0  0  0  0  0  0  0  0  0  0  0
   11.9330  -21.7050   25.0879 N   0  0  0  0  0  0  0  0  0  0  0  0
   11.4685  -18.7651   29.0691 C   0  0  0  0  0  0  0  0  0  0  0  0
   12.1692  -17.7530   28.8993 O   0  0  0  0  0  0  0  0  0  0  0  0
   11.2837  -19.2331   30.3556 O   0  0  0  0  0  0  0  0  0  0  0  0
  2  1  1  1
  3  4  1  0
  3  2  1  0
  4  5  2  0
  6  5  1  0
  7  6  1  0
  8  7  2  0
  9  8  1  0
 10 11  1  0
 10  9  2  0
 11 12  2  0
 12  7  1  0
 12  4  1  0
 13  2  1  0
 13 14  2  0
 16 15  1  0
 17 16  1  0
 17 18  1  0
 19 20  1  0
 19 18  1  1
 20 13  1  0
 21 19  1  0
 22 21  2  0
 23 21  1  0
 24 23  1  0
 25 26  1  0
 24 25  1  6
 26 27  2  0
 28 27  1  0
 29 28  1  0
 30 29  2  0
 30 26  1  0
 31 33  1  0
 31 24  1  0
 32 31  2  0
M  END
$$$$
