WMH.pdb
     RDKit          3D

 33 35  0  0  1  0  0  0  0  0999 V2000
    7.0848  -18.7587   25.0392 N   0  0  0  0  0  0  0  0  0  0  0  0
    7.2391  -17.3358   24.6909 C   0  0  1  0  0  0  0  0  0  0  0  0
    7.6912  -16.6015   25.9224 C   0  0  0  0  0  0  0  0  0  0  0  0
    6.9941  -15.3588   26.2378 C   0  0  0  0  0  0  0  0  0  0  0  0
    5.6075  -15.2812   26.4283 C   0  0  0  0  0  0  0  0  0  0  0  0
    5.2561  -14.0056   26.6716 N   0  0  0  0  0  0  0  0  0  0  0  0
    6.3635  -13.2217   26.6517 C   0  0  0  0  0  0  0  0  0  0  0  0
    6.5411  -11.8674   26.8548 C   0  0  0  0  0  0  0  0  0  0  0  0
    7.7904  -11.3067   26.7990 C   0  0  0  0  0  0  0  0  0  0  0  0
    8.8533  -12.1528   26.5325 C   0  0  0  0  0  0  0  0  0  0  0  0
    8.6877  -13.5032   26.3281 C   0  0  0  0  0  0  0  0  0  0  0  0
    7.4211  -14.0592   26.3862 C   0  0  0  0  0  0  0  0  0  0  0  0
    8.1121  -17.2129   23.5445 C   0  0  0  0  0  0  0  0  0  0  0  0
    9.0623  -18.0185   23.3851 O   0  0  0  0  0  0  0  0  0  0  0  0
    8.1657  -11.8669   19.3713 C   0  0  0  0  0  0  0  0  0  0  0  0
    6.9641  -13.1848   19.1804 S   0  0  0  0  0  0  0  0  0  0  0  0
    7.2495  -14.5202   20.3446 C   0  0  0  0  0  0  0  0  0  0  0  0
    8.6538  -14.9622   20.4786 C   0  0  0  0  0  0  0  0  0  0  0  0
    8.9548  -16.0326   21.4593 C   0  0  2  0  0  0  0  0  0  0  0  0
    7.9902  -16.2033   22.5166 N   0  0  0  0  0  0  0  0  0  0  0  0
   10.3513  -16.0211   21.9820 C   0  0  0  0  0  0  0  0  0  0  0  0
   10.6310  -15.9149   23.2077 O   0  0  0  0  0  0  0  0  0  0  0  0
   11.4543  -16.1340   21.0963 N   0  0  0  0  0  0  0  0  0  0  0  0
   12.6917  -16.8292   21.4785 C   0  0  1  0  0  0  0  0  0  0  0  0
   12.2556  -18.2932   21.6311 C   0  0  0  0  0  0  0  0  0  0  0  0
   12.2012  -18.7419   23.0129 C   0  0  0  0  0  0  0  0  0  0  0  0
   12.4456  -17.9777   24.1237 C   0  0  0  0  0  0  0  0  0  0  0  0
   12.3007  -18.7385   25.2124 N   0  0  0  0  0  0  0  0  0  0  0  0
   11.9706  -19.9613   24.7992 C   0  0  0  0  0  0  0  0  0  0  0  0
   11.9062  -19.9757   23.4412 N   0  0  0  0  0  0  0  0  0  0  0  0
   13.7415  -16.6656   20.4771 C   0  0  0  0  0  0  0  0  0  0  0  0
   13.4614  -16.5914   19.2688 O   0  0  0  0  0  0  0  0  0  0  0  0
   15.0683  -16.5901   20.8542 O   0  0  0  0  0  0  0  0  0  0  0  0
  2  1  1  1
  3  4  1  0
  3  2  1  0
  4  5  2  0
  6  5  1  0
  7  6  1  0
  8  7  2  0
  9  8  1  0
 10 11  1  0
 10  9  2  0
 11 12  2  0
 12  7  1  0
 12  4  1  0
 13  2  1  0
 13 14  2  0
 16 15  1  0
 17 16  1  0
 17 18  1  0
 19 20  1  0
 19 18  1  1
 20 13  1  0
 21 19  1  0
 22 21  2  0
 23 21  1  0
 24 23  1  0
 25 26  1  0
 24 25  1  6
 26 27  2  0
 28 27  1  0
 29 28  1  0
 30 29  2  0
 30 26  1  0
 31 33  1  0
 31 24  1  0
 32 31  2  0
M  END
$$$$
