WMH.pdb
     RDKit          3D

 33 35  0  0  1  0  0  0  0  0999 V2000
   10.8537  -17.6221   21.4725 N   0  0  0  0  0  0  0  0  0  0  0  0
    9.8395  -16.5948   21.7658 C   0  0  1  0  0  0  0  0  0  0  0  0
    8.5280  -17.0597   21.1965 C   0  0  0  0  0  0  0  0  0  0  0  0
    7.6785  -16.0402   20.5894 C   0  0  0  0  0  0  0  0  0  0  0  0
    6.4274  -16.3192   20.0219 C   0  0  0  0  0  0  0  0  0  0  0  0
    5.8995  -15.1900   19.5158 N   0  0  0  0  0  0  0  0  0  0  0  0
    6.7562  -14.1588   19.7259 C   0  0  0  0  0  0  0  0  0  0  0  0
    6.6785  -12.8151   19.4172 C   0  0  0  0  0  0  0  0  0  0  0  0
    7.6897  -11.9560   19.7604 C   0  0  0  0  0  0  0  0  0  0  0  0
    8.7798  -12.4932   20.4235 C   0  0  0  0  0  0  0  0  0  0  0  0
    8.8677  -13.8303   20.7355 C   0  0  0  0  0  0  0  0  0  0  0  0
    7.8407  -14.6895   20.3836 C   0  0  0  0  0  0  0  0  0  0  0  0
    9.8319  -16.3175   23.1851 C   0  0  0  0  0  0  0  0  0  0  0  0
   10.5500  -16.9918   23.9642 O   0  0  0  0  0  0  0  0  0  0  0  0
    5.8253  -11.9797   26.4188 C   0  0  0  0  0  0  0  0  0  0  0  0
    7.0124  -12.3945   27.6979 S   0  0  0  0  0  0  0  0  0  0  0  0
    8.1213  -13.7059   27.1774 C   0  0  0  0  0  0  0  0  0  0  0  0
    8.1960  -13.9389   25.7195 C   0  0  0  0  0  0  0  0  0  0  0  0
    9.1192  -14.9908   25.2304 C   0  0  2  0  0  0  0  0  0  0  0  0
    9.0389  -15.2903   23.8228 N   0  0  0  0  0  0  0  0  0  0  0  0
    9.1426  -16.2306   26.0586 C   0  0  0  0  0  0  0  0  0  0  0  0
    8.1427  -16.9865   26.2019 O   0  0  0  0  0  0  0  0  0  0  0  0
   10.3255  -16.6226   26.7378 N   0  0  0  0  0  0  0  0  0  0  0  0
   10.3759  -17.8238   27.5834 C   0  0  1  0  0  0  0  0  0  0  0  0
   11.4908  -18.6687   26.9510 C   0  0  0  0  0  0  0  0  0  0  0  0
   11.7903  -19.8832   27.6918 C   0  0  0  0  0  0  0  0  0  0  0  0
   11.3804  -20.1777   28.9658 C   0  0  0  0  0  0  0  0  0  0  0  0
   11.8534  -21.3803   29.3051 N   0  0  0  0  0  0  0  0  0  0  0  0
   12.5495  -21.8391   28.2658 C   0  0  0  0  0  0  0  0  0  0  0  0
   12.5177  -20.9221   27.2624 N   0  0  0  0  0  0  0  0  0  0  0  0
   10.6523  -17.4976   28.9793 C   0  0  0  0  0  0  0  0  0  0  0  0
   10.7302  -18.3925   29.8379 O   0  0  0  0  0  0  0  0  0  0  0  0
   10.8326  -16.1859   29.3733 O   0  0  0  0  0  0  0  0  0  0  0  0
  2  1  1  1
  3  4  1  0
  3  2  1  0
  4  5  2  0
  6  5  1  0
  7  6  1  0
  8  7  2  0
  9  8  1  0
 10 11  1  0
 10  9  2  0
 11 12  2  0
 12  7  1  0
 12  4  1  0
 13  2  1  0
 13 14  2  0
 16 15  1  0
 17 16  1  0
 17 18  1  0
 19 20  1  0
 19 18  1  1
 20 13  1  0
 21 19  1  0
 22 21  2  0
 23 21  1  0
 24 23  1  0
 25 26  1  0
 24 25  1  6
 26 27  2  0
 28 27  1  0
 29 28  1  0
 30 29  2  0
 30 26  1  0
 31 33  1  0
 31 24  1  0
 32 31  2  0
M  END
$$$$
