EGT.pdb
     RDKit          3D

 21 20  0  0  1  0  0  0  0  0999 V2000
   25.7510  -20.7923  -10.6231 N   0  0  0  0  0  0  0  0  0  0  0  0
   26.1731  -21.6175  -11.7898 C   0  0  1  0  0  0  0  0  0  0  0  0
   24.9418  -22.2679  -12.3233 C   0  0  0  0  0  0  0  0  0  0  0  0
   23.7012  -21.7889  -11.6470 C   0  0  0  0  0  0  0  0  0  0  0  0
   22.9799  -20.8288  -12.4975 C   0  0  0  0  0  0  0  0  0  0  0  0
   23.4686  -20.4401  -13.5733 O   0  0  0  0  0  0  0  0  0  0  0  0
   26.7541  -20.7102  -12.8072 C   0  0  0  0  0  0  0  0  0  0  0  0
   27.4098  -21.1321  -13.7997 O   0  0  0  0  0  0  0  0  0  0  0  0
   21.7290  -20.3132  -12.1449 O   0  0  0  0  0  0  0  0  0  0  0  0
   26.5477  -19.2975  -12.6334 N   0  0  0  0  0  0  0  0  0  0  0  0
   27.1826  -18.4314  -13.5850 C   0  0  0  0  0  0  0  0  0  0  0  0
   26.2321  -18.0184  -14.6757 C   0  0  0  0  0  0  0  0  0  0  0  0
   25.0933  -18.5705  -14.7541 O   0  0  0  0  0  0  0  0  0  0  0  0
   26.4639  -14.2488  -15.9519 C   0  0  0  0  0  0  0  0  0  0  0  0
   25.2713  -15.1251  -16.2235 C   0  0  1  0  0  0  0  0  0  0  0  0
   24.5010  -14.6022  -17.2459 O   0  0  0  0  0  0  0  0  0  0  0  0
   25.7661  -16.5330  -16.5819 C   0  0  2  0  0  0  0  0  0  0  0  0
   26.6596  -17.0180  -15.5769 N   0  0  0  0  0  0  0  0  0  0  0  0
   26.4573  -16.4294  -17.9008 C   0  0  0  0  0  0  0  0  0  0  0  0
   27.6927  -16.4878  -17.9825 O   0  0  0  0  0  0  0  0  0  0  0  0
   25.6988  -16.2669  -19.0338 O   0  0  0  0  0  0  0  0  0  0  0  0
  2  1  1  1
  3  2  1  0
  4  5  1  0
  4  3  1  0
  5  6  2  0
  7 10  1  0
  7  2  1  0
  8  7  2  0
  9  5  1  0
 11 12  1  0
 11 10  1  0
 12 18  1  0
 13 12  2  0
 15 16  1  0
 15 14  1  6
 17 15  1  0
 17 18  1  1
 19 17  1  0
 19 21  1  0
 20 19  2  0
M  END
$$$$
