EGT.pdb
     RDKit          3D

 21 20  0  0  1  0  0  0  0  0999 V2000
   17.6251  -10.7454  -17.1468 N   0  0  0  0  0  0  0  0  0  0  0  0
   18.6262  -10.9982  -16.0725 C   0  0  1  0  0  0  0  0  0  0  0  0
   19.2444  -12.3234  -16.3652 C   0  0  0  0  0  0  0  0  0  0  0  0
   18.2887  -13.4546  -16.1840 C   0  0  0  0  0  0  0  0  0  0  0  0
   18.9338  -14.7392  -16.4991 C   0  0  0  0  0  0  0  0  0  0  0  0
   19.2888  -15.5119  -15.5913 O   0  0  0  0  0  0  0  0  0  0  0  0
   19.6509   -9.9300  -16.1397 C   0  0  0  0  0  0  0  0  0  0  0  0
   20.6047   -9.8495  -15.3169 O   0  0  0  0  0  0  0  0  0  0  0  0
   19.1763  -15.1493  -17.8135 O   0  0  0  0  0  0  0  0  0  0  0  0
   19.5310   -8.9591  -17.1941 N   0  0  0  0  0  0  0  0  0  0  0  0
   20.5298   -7.9299  -17.2394 C   0  0  0  0  0  0  0  0  0  0  0  0
   20.2622   -6.8558  -16.2203 C   0  0  0  0  0  0  0  0  0  0  0  0
   19.0909   -6.3850  -16.1019 O   0  0  0  0  0  0  0  0  0  0  0  0
   20.0523   -6.8960  -12.8471 C   0  0  0  0  0  0  0  0  0  0  0  0
   21.2152   -5.9611  -13.0409 C   0  0  1  0  0  0  0  0  0  0  0  0
   22.4136   -6.6195  -12.8358 O   0  0  0  0  0  0  0  0  0  0  0  0
   21.1500   -5.3818  -14.4607 C   0  0  2  0  0  0  0  0  0  0  0  0
   21.3465   -6.4144  -15.4297 N   0  0  0  0  0  0  0  0  0  0  0  0
   22.2240   -4.3499  -14.5601 C   0  0  0  0  0  0  0  0  0  0  0  0
   23.1802   -4.4938  -15.3354 O   0  0  0  0  0  0  0  0  0  0  0  0
   22.1375   -3.2279  -13.7735 O   0  0  0  0  0  0  0  0  0  0  0  0
  2  1  1  6
  3  2  1  0
  4  5  1  0
  4  3  1  0
  5  6  2  0
  7 10  1  0
  7  2  1  0
  8  7  2  0
  9  5  1  0
 11 12  1  0
 11 10  1  0
 12 18  1  0
 13 12  2  0
 15 16  1  0
 15 14  1  6
 17 15  1  0
 17 18  1  6
 19 17  1  0
 19 21  1  0
 20 19  2  0
M  END
$$$$
