EGT.pdb
     RDKit          3D

 21 20  0  0  1  0  0  0  0  0999 V2000
   19.0959  -10.2679  -17.2866 N   0  0  0  0  0  0  0  0  0  0  0  0
   18.8068  -10.1379  -15.8307 C   0  0  1  0  0  0  0  0  0  0  0  0
   18.3242  -11.4710  -15.3683 C   0  0  0  0  0  0  0  0  0  0  0  0
   16.9855  -11.8213  -15.9259 C   0  0  0  0  0  0  0  0  0  0  0  0
   16.5577  -13.1507  -15.4617 C   0  0  0  0  0  0  0  0  0  0  0  0
   15.4839  -13.2957  -14.8508 O   0  0  0  0  0  0  0  0  0  0  0  0
   20.0702   -9.7844  -15.1418 C   0  0  0  0  0  0  0  0  0  0  0  0
   20.1319   -9.5764  -13.8984 O   0  0  0  0  0  0  0  0  0  0  0  0
   17.3243  -14.2993  -15.6805 O   0  0  0  0  0  0  0  0  0  0  0  0
   21.2588   -9.6809  -15.9450 N   0  0  0  0  0  0  0  0  0  0  0  0
   22.4732   -9.3442  -15.2588 C   0  0  0  0  0  0  0  0  0  0  0  0
   22.7839   -7.8766  -15.3744 C   0  0  0  0  0  0  0  0  0  0  0  0
   23.8983   -7.5101  -15.8557 O   0  0  0  0  0  0  0  0  0  0  0  0
   20.8165   -5.2907  -17.1977 C   0  0  0  0  0  0  0  0  0  0  0  0
   20.8356   -4.8801  -15.7502 C   0  0  1  0  0  0  0  0  0  0  0  0
   19.6519   -5.2279  -15.1259 O   0  0  0  0  0  0  0  0  0  0  0  0
   22.0306   -5.5544  -15.0628 C   0  0  2  0  0  0  0  0  0  0  0  0
   21.8034   -6.9600  -14.9340 N   0  0  0  0  0  0  0  0  0  0  0  0
   22.1790   -4.9162  -13.7216 C   0  0  0  0  0  0  0  0  0  0  0  0
   22.5358   -3.7344  -13.6110 O   0  0  0  0  0  0  0  0  0  0  0  0
   21.9122   -5.6632  -12.6009 O   0  0  0  0  0  0  0  0  0  0  0  0
  2  1  1  6
  3  2  1  0
  4  5  1  0
  4  3  1  0
  5  6  2  0
  7 10  1  0
  7  2  1  0
  8  7  2  0
  9  5  1  0
 11 12  1  0
 11 10  1  0
 12 18  1  0
 13 12  2  0
 15 16  1  0
 15 14  1  6
 17 15  1  0
 17 18  1  1
 19 17  1  0
 19 21  1  0
 20 19  2  0
M  END
$$$$
