EGT.pdb
     RDKit          3D

 21 20  0  0  1  0  0  0  0  0999 V2000
   17.7088  -10.8642  -14.4499 N   0  0  0  0  0  0  0  0  0  0  0  0
   17.9364  -11.0672  -15.9085 C   0  0  1  0  0  0  0  0  0  0  0  0
   16.7067  -11.7153  -16.4485 C   0  0  0  0  0  0  0  0  0  0  0  0
   16.3653  -12.9808  -15.7360 C   0  0  0  0  0  0  0  0  0  0  0  0
   15.1216  -13.5606  -16.2677 C   0  0  0  0  0  0  0  0  0  0  0  0
   14.6921  -14.6464  -15.8389 O   0  0  0  0  0  0  0  0  0  0  0  0
   18.1293   -9.7369  -16.5322 C   0  0  0  0  0  0  0  0  0  0  0  0
   18.4388   -9.5938  -17.7474 O   0  0  0  0  0  0  0  0  0  0  0  0
   14.3722  -12.9305  -17.2657 O   0  0  0  0  0  0  0  0  0  0  0  0
   17.9506   -8.5792  -15.6977 N   0  0  0  0  0  0  0  0  0  0  0  0
   18.2432   -7.3058  -16.2906 C   0  0  0  0  0  0  0  0  0  0  0  0
   18.8969   -6.3753  -15.3055 C   0  0  0  0  0  0  0  0  0  0  0  0
   18.2389   -5.3971  -14.8388 O   0  0  0  0  0  0  0  0  0  0  0  0
   20.2334   -7.9036  -12.2627 C   0  0  0  0  0  0  0  0  0  0  0  0
   21.3685   -7.0981  -12.8343 C   0  0  1  0  0  0  0  0  0  0  0  0
   22.2572   -7.9137  -13.5103 O   0  0  0  0  0  0  0  0  0  0  0  0
   20.7908   -6.0295  -13.7722 C   0  0  2  0  0  0  0  0  0  0  0  0
   20.2358   -6.6391  -14.9402 N   0  0  0  0  0  0  0  0  0  0  0  0
   21.9131   -5.1144  -14.1341 C   0  0  0  0  0  0  0  0  0  0  0  0
   22.4695   -4.4135  -13.2766 O   0  0  0  0  0  0  0  0  0  0  0  0
   22.3252   -5.0589  -15.4427 O   0  0  0  0  0  0  0  0  0  0  0  0
  2  1  1  1
  3  2  1  0
  4  5  1  0
  4  3  1  0
  5  6  2  0
  7 10  1  0
  7  2  1  0
  8  7  2  0
  9  5  1  0
 11 12  1  0
 11 10  1  0
 12 18  1  0
 13 12  2  0
 15 16  1  0
 15 14  1  6
 17 15  1  0
 17 18  1  6
 19 17  1  0
 19 21  1  0
 20 19  2  0
M  END
$$$$
