EGT.pdb
     RDKit          3D

 21 20  0  0  1  0  0  0  0  0999 V2000
   17.3340  -13.8715  -15.1639 N   0  0  0  0  0  0  0  0  0  0  0  0
   17.1485  -13.5009  -16.5952 C   0  0  1  0  0  0  0  0  0  0  0  0
   15.7025  -13.6940  -16.9044 C   0  0  0  0  0  0  0  0  0  0  0  0
   15.2869  -15.1251  -16.8332 C   0  0  0  0  0  0  0  0  0  0  0  0
   13.8419  -15.2623  -17.0757 C   0  0  0  0  0  0  0  0  0  0  0  0
   13.1459  -14.2683  -17.3492 O   0  0  0  0  0  0  0  0  0  0  0  0
   17.5188  -12.0746  -16.7514 C   0  0  0  0  0  0  0  0  0  0  0  0
   17.7756  -11.5575  -17.8738 O   0  0  0  0  0  0  0  0  0  0  0  0
   13.1890  -16.4969  -17.0118 O   0  0  0  0  0  0  0  0  0  0  0  0
   17.5804  -11.2696  -15.5612 N   0  0  0  0  0  0  0  0  0  0  0  0
   17.9275   -9.8882  -15.7345 C   0  0  0  0  0  0  0  0  0  0  0  0
   19.0397   -9.4780  -14.8080 C   0  0  0  0  0  0  0  0  0  0  0  0
   19.0157   -9.8553  -13.5977 O   0  0  0  0  0  0  0  0  0  0  0  0
   22.3650  -10.4279  -14.7155 C   0  0  0  0  0  0  0  0  0  0  0  0
   22.4678   -8.9482  -14.9683 C   0  0  1  0  0  0  0  0  0  0  0  0
   22.6990   -8.6943  -16.3077 O   0  0  0  0  0  0  0  0  0  0  0  0
   21.1671   -8.2780  -14.5052 C   0  0  2  0  0  0  0  0  0  0  0  0
   20.0763   -8.6781  -15.3383 N   0  0  0  0  0  0  0  0  0  0  0  0
   21.3836   -6.8034  -14.5869 C   0  0  0  0  0  0  0  0  0  0  0  0
   20.7940   -6.1156  -15.4328 O   0  0  0  0  0  0  0  0  0  0  0  0
   22.2534   -6.2130  -13.7036 O   0  0  0  0  0  0  0  0  0  0  0  0
  2  1  1  1
  3  2  1  0
  4  5  1  0
  4  3  1  0
  5  6  2  0
  7 10  1  0
  7  2  1  0
  8  7  2  0
  9  5  1  0
 11 12  1  0
 11 10  1  0
 12 18  1  0
 13 12  2  0
 15 16  1  0
 15 14  1  6
 17 15  1  0
 17 18  1  6
 19 17  1  0
 19 21  1  0
 20 19  2  0
M  END
$$$$
