EGT.pdb
     RDKit          3D

 21 20  0  0  1  0  0  0  0  0999 V2000
   15.7746   -4.3956  -17.5651 N   0  0  0  0  0  0  0  0  0  0  0  0
   16.6480   -3.6282  -18.4970 C   0  0  1  0  0  0  0  0  0  0  0  0
   16.6380   -2.2129  -18.0270 C   0  0  0  0  0  0  0  0  0  0  0  0
   17.1624   -2.0661  -16.6381 C   0  0  0  0  0  0  0  0  0  0  0  0
   17.1963   -0.6500  -16.2393 C   0  0  0  0  0  0  0  0  0  0  0  0
   16.1601    0.0380  -16.2481 O   0  0  0  0  0  0  0  0  0  0  0  0
   18.0175   -4.1871  -18.4072 C   0  0  0  0  0  0  0  0  0  0  0  0
   18.9684   -3.7765  -19.1286 O   0  0  0  0  0  0  0  0  0  0  0  0
   18.3761   -0.0166  -15.8370 O   0  0  0  0  0  0  0  0  0  0  0  0
   18.2454   -5.2378  -17.4519 N   0  0  0  0  0  0  0  0  0  0  0  0
   19.5966   -5.6996  -17.3117 C   0  0  0  0  0  0  0  0  0  0  0  0
   19.8932   -6.1174  -15.8970 C   0  0  0  0  0  0  0  0  0  0  0  0
   19.0490   -5.8722  -14.9832 O   0  0  0  0  0  0  0  0  0  0  0  0
   21.4274   -9.6363  -15.0299 C   0  0  0  0  0  0  0  0  0  0  0  0
   22.2618   -8.5411  -14.4231 C   0  0  1  0  0  0  0  0  0  0  0  0
   23.4027   -8.3210  -15.1727 O   0  0  0  0  0  0  0  0  0  0  0  0
   21.4132   -7.2650  -14.3383 C   0  0  2  0  0  0  0  0  0  0  0  0
   21.1188   -6.7743  -15.6484 N   0  0  0  0  0  0  0  0  0  0  0  0
   22.2058   -6.2653  -13.5633 C   0  0  0  0  0  0  0  0  0  0  0  0
   22.7397   -5.2977  -14.1244 O   0  0  0  0  0  0  0  0  0  0  0  0
   22.3366   -6.4336  -12.2069 O   0  0  0  0  0  0  0  0  0  0  0  0
  2  1  1  1
  3  2  1  0
  4  5  1  0
  4  3  1  0
  5  6  2  0
  7 10  1  0
  7  2  1  0
  8  7  2  0
  9  5  1  0
 11 12  1  0
 11 10  1  0
 12 18  1  0
 13 12  2  0
 15 16  1  0
 15 14  1  6
 17 15  1  0
 17 18  1  6
 19 17  1  0
 19 21  1  0
 20 19  2  0
M  END
$$$$
