AQI.pdb
     RDKit          3D

 23 22  0  0  1  0  0  0  0  0999 V2000
   23.6782  -12.2771  -16.7116 C   0  0  0  0  0  0  0  0  0  0  0  0
   22.1751  -12.4958  -16.7053 C   0  0  2  0  0  0  0  0  0  0  0  0
   21.8515  -13.3955  -17.7987 N   0  0  0  0  0  0  0  0  0  0  0  0
   21.5116  -11.1804  -16.9061 C   0  0  0  0  0  0  0  0  0  0  0  0
   21.7389  -10.4557  -17.9259 O   0  0  0  0  0  0  0  0  0  0  0  0
   15.9441  -10.0173  -14.7540 N   0  0  0  0  0  0  0  0  0  0  0  0
   16.2320   -8.7113  -15.1926 C   0  0  0  0  0  0  0  0  0  0  0  0
   15.3673   -7.8211  -15.2023 O   0  0  0  0  0  0  0  0  0  0  0  0
   17.6387   -8.4083  -15.6598 C   0  0  0  0  0  0  0  0  0  0  0  0
   18.4460   -9.6646  -15.5471 C   0  0  0  0  0  0  0  0  0  0  0  0
   19.8310   -9.5103  -16.0699 C   0  0  2  0  0  0  0  0  0  0  0  0
   20.5990  -10.7415  -15.9132 N   0  0  0  0  0  0  0  0  0  0  0  0
   20.5546   -8.4347  -15.3582 C   0  0  0  0  0  0  0  0  0  0  0  0
   21.1379   -8.6705  -14.2694 O   0  0  0  0  0  0  0  0  0  0  0  0
   24.2766   -3.8760  -16.5837 C   0  0  0  0  0  0  0  0  0  0  0  0
   23.3338   -4.5272  -15.5744 C   0  0  0  0  0  0  0  0  0  0  0  0
   22.4361   -5.5288  -16.2397 C   0  0  2  0  0  0  0  0  0  0  0  0
   21.6951   -4.8143  -17.3521 C   0  0  0  0  0  0  0  0  0  0  0  0
   21.5264   -6.1663  -15.2523 C   0  0  2  0  0  0  0  0  0  0  0  0
   20.6086   -7.0991  -15.8914 N   0  0  0  0  0  0  0  0  0  0  0  0
   20.7314   -5.1928  -14.4656 C   0  0  0  0  0  0  0  0  0  0  0  0
   19.3269   -5.1168  -14.6307 O   0  0  0  0  0  0  0  0  0  0  0  0
   21.2122   -4.3949  -13.6300 O   0  0  0  0  0  0  0  0  0  0  0  0
  2  3  1  0
  2  1  1  6
  4  5  2  0
  4  2  1  0
  6  7  1  0
  7  8  2  0
  9  7  1  0
  9 10  1  0
 11 10  1  1
 11 13  1  0
 11 12  1  0
 12  4  1  0
 13 20  1  0
 14 13  2  0
 16 15  1  0
 17 19  1  0
 17 16  1  0
 17 18  1  6
 19 21  1  0
 19 20  1  6
 21 23  2  0
 21 22  1  0
M  END
$$$$
