AQI.pdb
     RDKit          3D

 23 22  0  0  1  0  0  0  0  0999 V2000
   27.4937  -16.2544  -16.6259 C   0  0  0  0  0  0  0  0  0  0  0  0
   27.6557  -17.6906  -16.1586 C   0  0  2  0  0  0  0  0  0  0  0  0
   27.2412  -18.5616  -17.2445 N   0  0  0  0  0  0  0  0  0  0  0  0
   26.7844  -17.8959  -14.9715 C   0  0  0  0  0  0  0  0  0  0  0  0
   26.6495  -17.0104  -14.0689 O   0  0  0  0  0  0  0  0  0  0  0  0
   21.6084  -19.3294  -14.5892 N   0  0  0  0  0  0  0  0  0  0  0  0
   21.7860  -19.9501  -13.3386 C   0  0  0  0  0  0  0  0  0  0  0  0
   20.8809  -19.9778  -12.4899 O   0  0  0  0  0  0  0  0  0  0  0  0
   23.1232  -20.5935  -13.0438 C   0  0  0  0  0  0  0  0  0  0  0  0
   24.0539  -20.2672  -14.1706 C   0  0  0  0  0  0  0  0  0  0  0  0
   25.1937  -19.4080  -13.7485 C   0  0  2  0  0  0  0  0  0  0  0  0
   26.0912  -19.1286  -14.8649 N   0  0  0  0  0  0  0  0  0  0  0  0
   25.9881  -20.0584  -12.6841 C   0  0  0  0  0  0  0  0  0  0  0  0
   26.7819  -20.9933  -12.9616 O   0  0  0  0  0  0  0  0  0  0  0  0
   27.8190  -19.4751   -6.7876 C   0  0  0  0  0  0  0  0  0  0  0  0
   27.7124  -20.2591   -8.0936 C   0  0  0  0  0  0  0  0  0  0  0  0
   26.7537  -19.6023   -9.0429 C   0  0  2  0  0  0  0  0  0  0  0  0
   25.4078  -19.5175   -8.3514 C   0  0  0  0  0  0  0  0  0  0  0  0
   26.6976  -20.3356  -10.3343 C   0  0  2  0  0  0  0  0  0  0  0  0
   25.8727  -19.6395  -11.3122 N   0  0  0  0  0  0  0  0  0  0  0  0
   26.1967  -21.7252  -10.2045 C   0  0  0  0  0  0  0  0  0  0  0  0
   24.8057  -21.9900  -10.2339 O   0  0  0  0  0  0  0  0  0  0  0  0
   26.9264  -22.7322  -10.0646 O   0  0  0  0  0  0  0  0  0  0  0  0
  2  3  1  0
  2  1  1  6
  4  5  2  0
  4  2  1  0
  6  7  1  0
  7  8  2  0
  9  7  1  0
  9 10  1  0
 11 10  1  6
 11 13  1  0
 11 12  1  0
 12  4  1  0
 13 20  1  0
 14 13  2  0
 16 15  1  0
 17 19  1  0
 17 16  1  0
 17 18  1  1
 19 21  1  0
 19 20  1  6
 21 23  2  0
 21 22  1  0
M  END
$$$$
