AQI.pdb
     RDKit          3D

 23 22  0  0  1  0  0  0  0  0999 V2000
   23.8450  -17.8677  -17.0534 C   0  0  0  0  0  0  0  0  0  0  0  0
   24.3903  -18.0187  -15.6438 C   0  0  2  0  0  0  0  0  0  0  0  0
   25.4845  -17.0765  -15.4864 N   0  0  0  0  0  0  0  0  0  0  0  0
   24.8822  -19.4123  -15.4808 C   0  0  0  0  0  0  0  0  0  0  0  0
   24.1977  -20.4194  -15.8467 O   0  0  0  0  0  0  0  0  0  0  0  0
   27.1752  -21.6435  -18.7629 N   0  0  0  0  0  0  0  0  0  0  0  0
   27.9291  -21.7983  -17.5846 C   0  0  0  0  0  0  0  0  0  0  0  0
   28.3867  -22.9002  -17.2431 O   0  0  0  0  0  0  0  0  0  0  0  0
   28.1749  -20.5758  -16.7279 C   0  0  0  0  0  0  0  0  0  0  0  0
   28.1147  -20.9956  -15.2917 C   0  0  0  0  0  0  0  0  0  0  0  0
   26.7392  -20.9275  -14.7269 C   0  0  2  0  0  0  0  0  0  0  0  0
   26.1604  -19.5983  -14.8950 N   0  0  0  0  0  0  0  0  0  0  0  0
   26.7386  -21.2393  -13.2813 C   0  0  0  0  0  0  0  0  0  0  0  0
   27.6773  -21.9027  -12.7715 O   0  0  0  0  0  0  0  0  0  0  0  0
   27.0705  -17.8877  -10.0666 C   0  0  0  0  0  0  0  0  0  0  0  0
   27.1824  -19.3769  -10.3851 C   0  0  0  0  0  0  0  0  0  0  0  0
   25.8908  -20.0886  -10.1077 C   0  0  2  0  0  0  0  0  0  0  0  0
   25.9004  -20.5072   -8.6511 C   0  0  0  0  0  0  0  0  0  0  0  0
   25.7027  -21.2316  -11.0389 C   0  0  2  0  0  0  0  0  0  0  0  0
   25.6694  -20.7935  -12.4275 N   0  0  0  0  0  0  0  0  0  0  0  0
   24.4767  -22.0202  -10.7677 C   0  0  0  0  0  0  0  0  0  0  0  0
   24.5162  -23.1204   -9.8768 O   0  0  0  0  0  0  0  0  0  0  0  0
   23.3579  -21.7906  -11.2791 O   0  0  0  0  0  0  0  0  0  0  0  0
  2  3  1  0
  2  1  1  6
  4  5  2  0
  4  2  1  0
  6  7  1  0
  7  8  2  0
  9  7  1  0
  9 10  1  0
 11 10  1  1
 11 13  1  0
 11 12  1  0
 12  4  1  0
 13 20  1  0
 14 13  2  0
 16 15  1  0
 17 19  1  0
 17 16  1  0
 17 18  1  1
 19 21  1  0
 19 20  1  6
 21 23  2  0
 21 22  1  0
M  END
$$$$
