AQI.pdb
     RDKit          3D

 23 22  0  0  1  0  0  0  0  0999 V2000
   28.8811  -17.5984  -16.0823 C   0  0  0  0  0  0  0  0  0  0  0  0
   28.0524  -18.8467  -15.8330 C   0  0  2  0  0  0  0  0  0  0  0  0
   27.0540  -18.9356  -16.8842 N   0  0  0  0  0  0  0  0  0  0  0  0
   27.3941  -18.7124  -14.5066 C   0  0  0  0  0  0  0  0  0  0  0  0
   27.1861  -17.5808  -13.9651 O   0  0  0  0  0  0  0  0  0  0  0  0
   22.7555  -22.1663  -14.5251 N   0  0  0  0  0  0  0  0  0  0  0  0
   22.4446  -21.5494  -13.2989 C   0  0  0  0  0  0  0  0  0  0  0  0
   21.3201  -21.6518  -12.7839 O   0  0  0  0  0  0  0  0  0  0  0  0
   23.5252  -20.7459  -12.6092 C   0  0  0  0  0  0  0  0  0  0  0  0
   24.7181  -20.7001  -13.5132 C   0  0  0  0  0  0  0  0  0  0  0  0
   25.8498  -19.9233  -12.9376 C   0  0  2  0  0  0  0  0  0  0  0  0
   26.9942  -19.9004  -13.8432 N   0  0  0  0  0  0  0  0  0  0  0  0
   26.3017  -20.5064  -11.6559 C   0  0  0  0  0  0  0  0  0  0  0  0
   26.9653  -21.5744  -11.6397 O   0  0  0  0  0  0  0  0  0  0  0  0
   28.7542  -19.5140   -6.3317 C   0  0  0  0  0  0  0  0  0  0  0  0
   27.8341  -20.4017   -7.1667 C   0  0  0  0  0  0  0  0  0  0  0  0
   27.3183  -19.6674   -8.3693 C   0  0  2  0  0  0  0  0  0  0  0  0
   26.6167  -18.4169   -7.8784 C   0  0  0  0  0  0  0  0  0  0  0  0
   26.4400  -20.5415   -9.1899 C   0  0  2  0  0  0  0  0  0  0  0  0
   25.9946  -19.8692  -10.4026 N   0  0  0  0  0  0  0  0  0  0  0  0
   25.2452  -21.0314   -8.4610 C   0  0  0  0  0  0  0  0  0  0  0  0
   23.9462  -20.7796   -8.9657 O   0  0  0  0  0  0  0  0  0  0  0  0
   25.2831  -21.6774   -7.3899 O   0  0  0  0  0  0  0  0  0  0  0  0
  2  3  1  0
  2  1  1  6
  4  5  2  0
  4  2  1  0
  6  7  1  0
  7  8  2  0
  9  7  1  0
  9 10  1  0
 11 10  1  6
 11 13  1  0
 11 12  1  0
 12  4  1  0
 13 20  1  0
 14 13  2  0
 16 15  1  0
 17 19  1  0
 17 16  1  0
 17 18  1  1
 19 21  1  0
 19 20  1  6
 21 23  2  0
 21 22  1  0
M  END
$$$$
