AQI.pdb
     RDKit          3D

 23 22  0  0  1  0  0  0  0  0999 V2000
   26.9175  -20.2902  -17.1868 C   0  0  0  0  0  0  0  0  0  0  0  0
   27.5311  -20.9038  -15.9401 C   0  0  2  0  0  0  0  0  0  0  0  0
   28.2644  -22.0911  -16.3430 N   0  0  0  0  0  0  0  0  0  0  0  0
   26.4302  -21.2684  -15.0096 C   0  0  0  0  0  0  0  0  0  0  0  0
   25.7147  -22.3057  -15.1801 O   0  0  0  0  0  0  0  0  0  0  0  0
   24.5433  -21.2489   -9.5216 N   0  0  0  0  0  0  0  0  0  0  0  0
   25.9421  -21.1599   -9.6488 C   0  0  0  0  0  0  0  0  0  0  0  0
   26.7066  -21.6679   -8.8135 O   0  0  0  0  0  0  0  0  0  0  0  0
   26.5053  -20.4210  -10.8429 C   0  0  0  0  0  0  0  0  0  0  0  0
   25.3569  -19.9271  -11.6672 C   0  0  0  0  0  0  0  0  0  0  0  0
   25.1591  -20.7156  -12.9140 C   0  0  2  0  0  0  0  0  0  0  0  0
   26.1899  -20.4151  -13.9026 N   0  0  0  0  0  0  0  0  0  0  0  0
   23.8465  -20.4233  -13.5293 C   0  0  0  0  0  0  0  0  0  0  0  0
   23.6660  -19.3568  -14.1706 O   0  0  0  0  0  0  0  0  0  0  0  0
   20.0586  -22.1690  -17.4601 C   0  0  0  0  0  0  0  0  0  0  0  0
   20.1169  -21.4988  -16.0893 C   0  0  0  0  0  0  0  0  0  0  0  0
   21.4280  -21.7673  -15.4105 C   0  0  2  0  0  0  0  0  0  0  0  0
   21.5551  -23.2670  -15.2333 C   0  0  0  0  0  0  0  0  0  0  0  0
   21.5260  -21.0210  -14.1290 C   0  0  2  0  0  0  0  0  0  0  0  0
   22.7496  -21.3471  -13.4096 N   0  0  0  0  0  0  0  0  0  0  0  0
   20.3753  -21.2487  -13.2221 C   0  0  0  0  0  0  0  0  0  0  0  0
   20.5280  -22.0399  -12.0574 O   0  0  0  0  0  0  0  0  0  0  0  0
   19.2277  -20.7831  -13.4015 O   0  0  0  0  0  0  0  0  0  0  0  0
  2  3  1  0
  2  1  1  6
  4  5  2  0
  4  2  1  0
  6  7  1  0
  7  8  2  0
  9  7  1  0
  9 10  1  0
 11 10  1  1
 11 13  1  0
 11 12  1  0
 12  4  1  0
 13 20  1  0
 14 13  2  0
 16 15  1  0
 17 19  1  0
 17 16  1  0
 17 18  1  1
 19 21  1  0
 19 20  1  1
 21 23  2  0
 21 22  1  0
M  END
$$$$
