CII.pdb
     RDKit          3D

 23 22  0  0  1  0  0  0  0  0999 V2000
    9.3163  -15.8329   19.8668 N   0  0  0  0  0  0  0  0  0  0  0  0
    8.7449  -16.4970   21.0001 C   0  0  1  0  0  0  0  0  0  0  0  0
    9.1853  -17.9299   21.1388 C   0  0  0  0  0  0  0  0  0  0  0  0
    8.2051  -18.8499   22.3418 S   0  0  0  0  0  0  0  0  0  0  0  0
    9.0190  -15.8068   22.2764 C   0  0  0  0  0  0  0  0  0  0  0  0
   10.1907  -15.3946   22.4772 O   0  0  0  0  0  0  0  0  0  0  0  0
    6.4323  -12.3524   26.5297 C   0  0  0  0  0  0  0  0  0  0  0  0
    7.6695  -13.1279   26.1130 C   0  0  0  0  0  0  0  0  0  0  0  0
    7.2384  -14.1441   25.0962 C   0  0  2  0  0  0  0  0  0  0  0  0
    6.3477  -15.1610   25.7572 C   0  0  0  0  0  0  0  0  0  0  0  0
    8.4051  -14.8883   24.4848 C   0  0  2  0  0  0  0  0  0  0  0  0
    8.0562  -15.5790   23.2844 N   0  0  0  0  0  0  0  0  0  0  0  0
    9.0566  -15.7932   25.4650 C   0  0  0  0  0  0  0  0  0  0  0  0
    8.6224  -16.9574   25.6328 O   0  0  0  0  0  0  0  0  0  0  0  0
   10.6730  -13.9851   30.3752 C   0  0  0  0  0  0  0  0  0  0  0  0
   10.1546  -14.8926   29.2702 C   0  0  0  0  0  0  0  0  0  0  0  0
   11.2221  -15.3053   28.3308 C   0  0  2  0  0  0  0  0  0  0  0  0
   11.9466  -14.1372   27.6922 C   0  0  0  0  0  0  0  0  0  0  0  0
   10.8191  -16.2271   27.2159 C   0  0  2  0  0  0  0  0  0  0  0  0
   10.1689  -15.3725   26.2253 N   0  0  0  0  0  0  0  0  0  0  0  0
    9.9432  -17.2949   27.6807 C   0  0  0  0  0  0  0  0  0  0  0  0
    8.5975  -17.2685   27.4245 O   0  0  0  0  0  0  0  0  0  0  0  0
   10.3684  -18.2911   28.3394 O   0  0  0  0  0  0  0  0  0  0  0  0
  2  1  1  6
  3  2  1  0
  3  4  1  0
  5  6  2  0
  5  2  1  0
  8  7  1  0
  8  9  1  0
  9 11  1  0
  9 10  1  1
 11 13  1  0
 11 12  1  6
 12  5  1  0
 13 20  1  0
 14 13  2  0
 15 16  1  0
 17 19  1  0
 17 16  1  0
 17 18  1  6
 19 21  1  0
 19 20  1  6
 21 23  2  0
 21 22  1  0
M  END
$$$$
