CII.pdb
     RDKit          3D

 23 22  0  0  1  0  0  0  0  0999 V2000
    7.9280  -17.4614   20.4017 N   0  0  0  0  0  0  0  0  0  0  0  0
    7.4290  -17.5389   21.7422 C   0  0  1  0  0  0  0  0  0  0  0  0
    7.6140  -18.8937   22.3720 C   0  0  0  0  0  0  0  0  0  0  0  0
    6.6936  -19.0809   23.9122 S   0  0  0  0  0  0  0  0  0  0  0  0
    8.0225  -16.5295   22.6418 C   0  0  0  0  0  0  0  0  0  0  0  0
    9.2309  -16.2274   22.4637 O   0  0  0  0  0  0  0  0  0  0  0  0
    6.7990  -11.7661   26.2374 C   0  0  0  0  0  0  0  0  0  0  0  0
    7.8241  -12.7957   25.7962 C   0  0  0  0  0  0  0  0  0  0  0  0
    7.0778  -13.9057   25.1154 C   0  0  2  0  0  0  0  0  0  0  0  0
    6.1657  -14.5732   26.1088 C   0  0  0  0  0  0  0  0  0  0  0  0
    7.9973  -14.9682   24.5547 C   0  0  2  0  0  0  0  0  0  0  0  0
    7.3262  -15.8821   23.6863 N   0  0  0  0  0  0  0  0  0  0  0  0
    8.7375  -15.6790   25.6276 C   0  0  0  0  0  0  0  0  0  0  0  0
    8.1751  -16.5853   26.2867 O   0  0  0  0  0  0  0  0  0  0  0  0
    9.8016  -13.3686   29.5840 C   0  0  0  0  0  0  0  0  0  0  0  0
   10.2442  -13.9219   28.2382 C   0  0  0  0  0  0  0  0  0  0  0  0
   10.4178  -15.3922   28.2613 C   0  0  2  0  0  0  0  0  0  0  0  0
   11.3844  -15.8675   29.3275 C   0  0  0  0  0  0  0  0  0  0  0  0
   10.8389  -16.0411   26.9742 C   0  0  2  0  0  0  0  0  0  0  0  0
   10.0780  -15.3576   25.9310 N   0  0  0  0  0  0  0  0  0  0  0  0
   10.5940  -17.4775   26.9819 C   0  0  0  0  0  0  0  0  0  0  0  0
    9.3512  -17.9852   26.7082 O   0  0  0  0  0  0  0  0  0  0  0  0
   11.5006  -18.3251   27.2401 O   0  0  0  0  0  0  0  0  0  0  0  0
  2  1  1  6
  3  2  1  0
  3  4  1  0
  5  6  2  0
  5  2  1  0
  8  7  1  0
  8  9  1  0
  9 11  1  0
  9 10  1  1
 11 13  1  0
 11 12  1  1
 12  5  1  0
 13 20  1  0
 14 13  2  0
 15 16  1  0
 17 19  1  0
 17 16  1  0
 17 18  1  1
 19 21  1  0
 19 20  1  6
 21 23  2  0
 21 22  1  0
M  END
$$$$
