CII.pdb
     RDKit          3D

 23 22  0  0  1  0  0  0  0  0999 V2000
    9.2618  -15.7397   19.7475 N   0  0  0  0  0  0  0  0  0  0  0  0
    8.5360  -16.2506   20.8717 C   0  0  1  0  0  0  0  0  0  0  0  0
    8.7296  -17.7279   21.0876 C   0  0  0  0  0  0  0  0  0  0  0  0
    7.9031  -18.7320   19.8375 S   0  0  0  0  0  0  0  0  0  0  0  0
    8.8575  -15.5560   22.1345 C   0  0  0  0  0  0  0  0  0  0  0  0
   10.0574  -15.2346   22.3347 O   0  0  0  0  0  0  0  0  0  0  0  0
    6.5151  -11.8837   26.3636 C   0  0  0  0  0  0  0  0  0  0  0  0
    7.6882  -12.7634   25.9694 C   0  0  0  0  0  0  0  0  0  0  0  0
    7.1942  -13.7279   24.9311 C   0  0  2  0  0  0  0  0  0  0  0  0
    6.2197  -14.6836   25.5647 C   0  0  0  0  0  0  0  0  0  0  0  0
    8.3086  -14.5499   24.3217 C   0  0  2  0  0  0  0  0  0  0  0  0
    7.9104  -15.2291   23.1301 N   0  0  0  0  0  0  0  0  0  0  0  0
    8.9074  -15.4841   25.3080 C   0  0  0  0  0  0  0  0  0  0  0  0
    8.4374  -16.6380   25.4483 O   0  0  0  0  0  0  0  0  0  0  0  0
   10.2487  -14.2044   30.3965 C   0  0  0  0  0  0  0  0  0  0  0  0
    9.8318  -14.9293   29.1261 C   0  0  0  0  0  0  0  0  0  0  0  0
   10.9825  -15.2323   28.2450 C   0  0  2  0  0  0  0  0  0  0  0  0
   11.7433  -13.9983   27.8028 C   0  0  0  0  0  0  0  0  0  0  0  0
   10.6908  -16.0288   27.0059 C   0  0  2  0  0  0  0  0  0  0  0  0
   10.0085  -15.1033   26.1046 N   0  0  0  0  0  0  0  0  0  0  0  0
    9.8870  -17.2098   27.2932 C   0  0  0  0  0  0  0  0  0  0  0  0
    8.5376  -17.2224   27.0561 O   0  0  0  0  0  0  0  0  0  0  0  0
   10.3811  -18.2741   27.7728 O   0  0  0  0  0  0  0  0  0  0  0  0
  2  1  1  6
  3  2  1  0
  3  4  1  0
  5  6  2  0
  5  2  1  0
  8  7  1  0
  8  9  1  0
  9 11  1  0
  9 10  1  1
 11 13  1  0
 11 12  1  6
 12  5  1  0
 13 20  1  0
 14 13  2  0
 15 16  1  0
 17 19  1  0
 17 16  1  0
 17 18  1  6
 19 21  1  0
 19 20  1  6
 21 23  2  0
 21 22  1  0
M  END
$$$$
