CII.pdb
     RDKit          3D

 23 22  0  0  1  0  0  0  0  0999 V2000
    7.7211  -13.9527   19.9474 N   0  0  0  0  0  0  0  0  0  0  0  0
    7.0852  -14.6271   21.0395 C   0  0  1  0  0  0  0  0  0  0  0  0
    6.9172  -16.1059   20.8132 C   0  0  0  0  0  0  0  0  0  0  0  0
    5.4317  -16.5053   19.8709 S   0  0  0  0  0  0  0  0  0  0  0  0
    7.7844  -14.4359   22.3260 C   0  0  0  0  0  0  0  0  0  0  0  0
    9.0426  -14.4426   22.3130 O   0  0  0  0  0  0  0  0  0  0  0  0
    5.9499  -11.4095   26.5651 C   0  0  0  0  0  0  0  0  0  0  0  0
    6.7923  -12.0040   25.4504 C   0  0  0  0  0  0  0  0  0  0  0  0
    7.1648  -13.3971   25.8663 C   0  0  2  0  0  0  0  0  0  0  0  0
    8.0793  -13.3313   27.0595 C   0  0  0  0  0  0  0  0  0  0  0  0
    7.8899  -14.1564   24.7771 C   0  0  2  0  0  0  0  0  0  0  0  0
    7.1370  -14.2466   23.5669 N   0  0  0  0  0  0  0  0  0  0  0  0
    8.3380  -15.4935   25.2416 C   0  0  0  0  0  0  0  0  0  0  0  0
    7.4953  -16.3548   25.5880 O   0  0  0  0  0  0  0  0  0  0  0  0
   12.4708  -17.5955   22.5693 C   0  0  0  0  0  0  0  0  0  0  0  0
   11.1988  -17.2910   23.3456 C   0  0  0  0  0  0  0  0  0  0  0  0
   11.3913  -17.3978   24.8098 C   0  0  2  0  0  0  0  0  0  0  0  0
   11.9821  -18.7243   25.2440 C   0  0  0  0  0  0  0  0  0  0  0  0
   10.1817  -17.1606   25.6674 C   0  0  2  0  0  0  0  0  0  0  0  0
    9.7080  -15.8269   25.3051 N   0  0  0  0  0  0  0  0  0  0  0  0
   10.4904  -17.2676   27.0875 C   0  0  0  0  0  0  0  0  0  0  0  0
   10.3770  -18.4624   27.7485 O   0  0  0  0  0  0  0  0  0  0  0  0
   10.8727  -16.2780   27.7813 O   0  0  0  0  0  0  0  0  0  0  0  0
  2  1  1  6
  3  2  1  0
  3  4  1  0
  5  6  2  0
  5  2  1  0
  8  7  1  0
  8  9  1  0
  9 11  1  0
  9 10  1  1
 11 13  1  0
 11 12  1  6
 12  5  1  0
 13 20  1  0
 14 13  2  0
 15 16  1  0
 17 19  1  0
 17 16  1  0
 17 18  1  6
 19 21  1  0
 19 20  1  1
 21 23  2  0
 21 22  1  0
M  END
$$$$
