CII.pdb
     RDKit          3D

 23 22  0  0  1  0  0  0  0  0999 V2000
    8.7215  -14.9938   20.2237 N   0  0  0  0  0  0  0  0  0  0  0  0
    7.8693  -15.5007   21.2574 C   0  0  1  0  0  0  0  0  0  0  0  0
    7.5960  -16.9763   21.1375 C   0  0  0  0  0  0  0  0  0  0  0  0
    6.3976  -17.5668   22.3497 S   0  0  0  0  0  0  0  0  0  0  0  0
    8.3853  -15.2383   22.6159 C   0  0  0  0  0  0  0  0  0  0  0  0
    9.6329  -15.2496   22.7786 O   0  0  0  0  0  0  0  0  0  0  0  0
    6.0619  -11.8271   26.2490 C   0  0  0  0  0  0  0  0  0  0  0  0
    7.0172  -12.5496   25.3158 C   0  0  0  0  0  0  0  0  0  0  0  0
    7.3069  -13.8908   25.9239 C   0  0  2  0  0  0  0  0  0  0  0  0
    8.0560  -13.6994   27.2148 C   0  0  0  0  0  0  0  0  0  0  0  0
    8.1568  -14.7655   25.0287 C   0  0  2  0  0  0  0  0  0  0  0  0
    7.5740  -14.9760   23.7419 N   0  0  0  0  0  0  0  0  0  0  0  0
    8.5080  -16.0500   25.6852 C   0  0  0  0  0  0  0  0  0  0  0  0
    7.6100  -16.8763   25.9730 O   0  0  0  0  0  0  0  0  0  0  0  0
   12.8379  -18.4980   23.7767 C   0  0  0  0  0  0  0  0  0  0  0  0
   11.4753  -18.1891   24.3777 C   0  0  0  0  0  0  0  0  0  0  0  0
   11.5336  -18.0071   25.8460 C   0  0  2  0  0  0  0  0  0  0  0  0
   12.1233  -19.1967   26.5770 C   0  0  0  0  0  0  0  0  0  0  0  0
   10.2422  -17.6718   26.5351 C   0  0  2  0  0  0  0  0  0  0  0  0
    9.8459  -16.3717   25.9993 N   0  0  0  0  0  0  0  0  0  0  0  0
   10.3877  -17.6479   27.9848 C   0  0  0  0  0  0  0  0  0  0  0  0
   10.6495  -16.4796   28.6508 O   0  0  0  0  0  0  0  0  0  0  0  0
   10.2844  -18.6893   28.7003 O   0  0  0  0  0  0  0  0  0  0  0  0
  2  1  1  6
  3  2  1  0
  3  4  1  0
  5  6  2  0
  5  2  1  0
  8  7  1  0
  8  9  1  0
  9 11  1  0
  9 10  1  1
 11 13  1  0
 11 12  1  6
 12  5  1  0
 13 20  1  0
 14 13  2  0
 15 16  1  0
 17 19  1  0
 17 16  1  0
 17 18  1  1
 19 21  1  0
 19 20  1  6
 21 23  2  0
 21 22  1  0
M  END
$$$$
