CII.pdb
     RDKit          3D

 23 22  0  0  1  0  0  0  0  0999 V2000
   12.4740  -16.9500   19.1736 N   0  0  0  0  0  0  0  0  0  0  0  0
   11.3955  -17.4885   19.9474 C   0  0  1  0  0  0  0  0  0  0  0  0
   11.7022  -18.8359   20.5446 C   0  0  0  0  0  0  0  0  0  0  0  0
   11.9871  -20.1063   19.2959 S   0  0  0  0  0  0  0  0  0  0  0  0
   10.9586  -16.5922   21.0366 C   0  0  0  0  0  0  0  0  0  0  0  0
   11.8070  -15.7931   21.5106 O   0  0  0  0  0  0  0  0  0  0  0  0
    6.7703  -13.3704   20.7822 C   0  0  0  0  0  0  0  0  0  0  0  0
    8.1287  -14.0043   21.0236 C   0  0  0  0  0  0  0  0  0  0  0  0
    8.0030  -14.8829   22.2338 C   0  0  2  0  0  0  0  0  0  0  0  0
    7.6359  -14.0389   23.4243 C   0  0  0  0  0  0  0  0  0  0  0  0
    9.2901  -15.6052   22.5661 C   0  0  2  0  0  0  0  0  0  0  0  0
    9.6552  -16.5721   21.5805 N   0  0  0  0  0  0  0  0  0  0  0  0
    9.2535  -16.1997   23.9261 C   0  0  0  0  0  0  0  0  0  0  0  0
    8.7962  -17.3546   24.0964 O   0  0  0  0  0  0  0  0  0  0  0  0
    9.7402  -13.0125   28.6803 C   0  0  0  0  0  0  0  0  0  0  0  0
    9.2591  -14.0259   27.6533 C   0  0  0  0  0  0  0  0  0  0  0  0
   10.3151  -14.9927   27.2759 C   0  0  2  0  0  0  0  0  0  0  0  0
   11.5345  -14.3405   26.6556 C   0  0  0  0  0  0  0  0  0  0  0  0
    9.9085  -16.1110   26.3598 C   0  0  2  0  0  0  0  0  0  0  0  0
    9.7269  -15.4895   25.0502 N   0  0  0  0  0  0  0  0  0  0  0  0
    8.7009  -16.7829   26.8219 C   0  0  0  0  0  0  0  0  0  0  0  0
    7.4906  -16.5557   26.2215 O   0  0  0  0  0  0  0  0  0  0  0  0
    8.7006  -17.6005   27.7908 O   0  0  0  0  0  0  0  0  0  0  0  0
  2  1  1  1
  3  2  1  0
  3  4  1  0
  5  6  2  0
  5  2  1  0
  8  7  1  0
  8  9  1  0
  9 11  1  0
  9 10  1  1
 11 13  1  0
 11 12  1  6
 12  5  1  0
 13 20  1  0
 14 13  2  0
 15 16  1  0
 17 19  1  0
 17 16  1  0
 17 18  1  6
 19 21  1  0
 19 20  1  6
 21 23  2  0
 21 22  1  0
M  END
$$$$
