CII.pdb
     RDKit          3D

 23 22  0  0  1  0  0  0  0  0999 V2000
    8.8698  -15.5295   19.9421 N   0  0  0  0  0  0  0  0  0  0  0  0
    8.3447  -16.2082   21.0890 C   0  0  1  0  0  0  0  0  0  0  0  0
    8.7526  -17.6553   21.1666 C   0  0  0  0  0  0  0  0  0  0  0  0
    8.0251  -18.5127   22.5772 S   0  0  0  0  0  0  0  0  0  0  0  0
    8.7088  -15.5595   22.3646 C   0  0  0  0  0  0  0  0  0  0  0  0
    9.8967  -15.1679   22.5021 O   0  0  0  0  0  0  0  0  0  0  0  0
    5.5051  -12.2234   25.3535 C   0  0  0  0  0  0  0  0  0  0  0  0
    6.6225  -12.8650   24.5502 C   0  0  0  0  0  0  0  0  0  0  0  0
    7.1767  -13.9896   25.3751 C   0  0  2  0  0  0  0  0  0  0  0  0
    7.7734  -13.4314   26.6387 C   0  0  0  0  0  0  0  0  0  0  0  0
    8.2647  -14.7578   24.6575 C   0  0  2  0  0  0  0  0  0  0  0  0
    7.8151  -15.3497   23.4380 N   0  0  0  0  0  0  0  0  0  0  0  0
    8.9096  -15.7588   25.5443 C   0  0  0  0  0  0  0  0  0  0  0  0
    8.5232  -16.9515   25.5334 O   0  0  0  0  0  0  0  0  0  0  0  0
   10.6254  -14.2382   30.5448 C   0  0  0  0  0  0  0  0  0  0  0  0
   10.0462  -15.0577   29.4020 C   0  0  0  0  0  0  0  0  0  0  0  0
   11.0900  -15.5511   28.4749 C   0  0  2  0  0  0  0  0  0  0  0  0
   11.9757  -14.4507   27.9253 C   0  0  0  0  0  0  0  0  0  0  0  0
   10.6199  -16.3572   27.2985 C   0  0  2  0  0  0  0  0  0  0  0  0
    9.9623  -15.3991   26.4129 N   0  0  0  0  0  0  0  0  0  0  0  0
    9.7279  -17.4376   27.6990 C   0  0  0  0  0  0  0  0  0  0  0  0
   10.2216  -18.6507   28.1014 O   0  0  0  0  0  0  0  0  0  0  0  0
    8.4657  -17.3199   27.6960 O   0  0  0  0  0  0  0  0  0  0  0  0
  2  1  1  6
  3  2  1  0
  3  4  1  0
  5  6  2  0
  5  2  1  0
  8  7  1  0
  8  9  1  0
  9 11  1  0
  9 10  1  1
 11 13  1  0
 11 12  1  6
 12  5  1  0
 13 20  1  0
 14 13  2  0
 15 16  1  0
 17 19  1  0
 17 16  1  0
 17 18  1  6
 19 21  1  0
 19 20  1  6
 21 23  2  0
 21 22  1  0
M  END
$$$$
