CII.pdb
     RDKit          3D

 23 22  0  0  1  0  0  0  0  0999 V2000
    7.9881  -14.5152   19.9242 N   0  0  0  0  0  0  0  0  0  0  0  0
    7.2068  -14.9591   21.0397 C   0  0  1  0  0  0  0  0  0  0  0  0
    6.8286  -16.4143   20.9640 C   0  0  0  0  0  0  0  0  0  0  0  0
    6.1890  -16.8877   19.3450 S   0  0  0  0  0  0  0  0  0  0  0  0
    7.8652  -14.7229   22.3402 C   0  0  0  0  0  0  0  0  0  0  0  0
    9.1227  -14.7516   22.3715 O   0  0  0  0  0  0  0  0  0  0  0  0
    5.9196  -11.5143   26.4186 C   0  0  0  0  0  0  0  0  0  0  0  0
    6.7896  -12.1505   25.3490 C   0  0  0  0  0  0  0  0  0  0  0  0
    7.1295  -13.5359   25.8153 C   0  0  2  0  0  0  0  0  0  0  0  0
    7.9926  -13.4482   27.0448 C   0  0  0  0  0  0  0  0  0  0  0  0
    7.8928  -14.3295   24.7778 C   0  0  2  0  0  0  0  0  0  0  0  0
    7.1794  -14.4675   23.5483 N   0  0  0  0  0  0  0  0  0  0  0  0
    8.3323  -15.6463   25.3042 C   0  0  0  0  0  0  0  0  0  0  0  0
    7.4831  -16.5048   25.6416 O   0  0  0  0  0  0  0  0  0  0  0  0
   12.4371  -17.9232   22.7777 C   0  0  0  0  0  0  0  0  0  0  0  0
   11.1631  -17.5979   23.5420 C   0  0  0  0  0  0  0  0  0  0  0  0
   11.3768  -17.5614   25.0067 C   0  0  2  0  0  0  0  0  0  0  0  0
   12.0143  -18.8230   25.5536 C   0  0  0  0  0  0  0  0  0  0  0  0
   10.1709  -17.2816   25.8567 C   0  0  2  0  0  0  0  0  0  0  0  0
    9.7012  -15.9633   25.4373 N   0  0  0  0  0  0  0  0  0  0  0  0
   10.4837  -17.3270   27.2792 C   0  0  0  0  0  0  0  0  0  0  0  0
   10.4315  -18.5042   27.9783 O   0  0  0  0  0  0  0  0  0  0  0  0
   10.8142  -16.2973   27.9405 O   0  0  0  0  0  0  0  0  0  0  0  0
  2  1  1  6
  3  2  1  0
  3  4  1  0
  5  6  2  0
  5  2  1  0
  8  7  1  0
  8  9  1  0
  9 11  1  0
  9 10  1  1
 11 13  1  0
 11 12  1  6
 12  5  1  0
 13 20  1  0
 14 13  2  0
 15 16  1  0
 17 19  1  0
 17 16  1  0
 17 18  1  1
 19 21  1  0
 19 20  1  6
 21 23  2  0
 21 22  1  0
M  END
$$$$
