CII.pdb
     RDKit          3D

 23 22  0  0  1  0  0  0  0  0999 V2000
    6.1799  -19.4909   21.1473 N   0  0  0  0  0  0  0  0  0  0  0  0
    6.0606  -18.3836   22.0481 C   0  0  1  0  0  0  0  0  0  0  0  0
    6.0179  -18.7924   23.4964 C   0  0  0  0  0  0  0  0  0  0  0  0
    5.2889  -17.5298   24.5587 S   0  0  0  0  0  0  0  0  0  0  0  0
    7.1352  -17.3840   21.8848 C   0  0  0  0  0  0  0  0  0  0  0  0
    8.3143  -17.8080   21.7710 O   0  0  0  0  0  0  0  0  0  0  0  0
    6.8585  -12.4562   19.2607 C   0  0  0  0  0  0  0  0  0  0  0  0
    7.2634  -13.8473   19.7151 C   0  0  0  0  0  0  0  0  0  0  0  0
    7.6544  -13.7488   21.1607 C   0  0  2  0  0  0  0  0  0  0  0  0
    8.8468  -12.8402   21.2918 C   0  0  0  0  0  0  0  0  0  0  0  0
    8.0336  -15.0876   21.7545 C   0  0  2  0  0  0  0  0  0  0  0  0
    6.9283  -15.9873   21.8478 N   0  0  0  0  0  0  0  0  0  0  0  0
    8.7251  -14.9361   23.0595 C   0  0  0  0  0  0  0  0  0  0  0  0
    9.9733  -14.8251   23.1017 O   0  0  0  0  0  0  0  0  0  0  0  0
    6.7696  -11.6648   27.6132 C   0  0  0  0  0  0  0  0  0  0  0  0
    7.7062  -12.8378   27.3682 C   0  0  0  0  0  0  0  0  0  0  0  0
    7.4292  -13.5236   26.0855 C   0  0  2  0  0  0  0  0  0  0  0  0
    6.2092  -14.4216   26.1344 C   0  0  0  0  0  0  0  0  0  0  0  0
    8.5462  -14.3414   25.5038 C   0  0  2  0  0  0  0  0  0  0  0  0
    8.0048  -14.9130   24.2732 N   0  0  0  0  0  0  0  0  0  0  0  0
    9.0103  -15.3671   26.4290 C   0  0  0  0  0  0  0  0  0  0  0  0
    8.8626  -16.6986   26.1418 O   0  0  0  0  0  0  0  0  0  0  0  0
    9.5657  -15.0910   27.5346 O   0  0  0  0  0  0  0  0  0  0  0  0
  2  1  1  6
  3  2  1  0
  3  4  1  0
  5  6  2  0
  5  2  1  0
  8  7  1  0
  8  9  1  0
  9 11  1  0
  9 10  1  6
 11 13  1  0
 11 12  1  1
 12  5  1  0
 13 20  1  0
 14 13  2  0
 15 16  1  0
 17 19  1  0
 17 16  1  0
 17 18  1  1
 19 21  1  0
 19 20  1  6
 21 23  2  0
 21 22  1  0
M  END
$$$$
