CII.pdb
     RDKit          3D

 23 22  0  0  1  0  0  0  0  0999 V2000
    9.8586  -16.1067   19.9431 N   0  0  0  0  0  0  0  0  0  0  0  0
    8.9411  -16.5054   20.9683 C   0  0  1  0  0  0  0  0  0  0  0  0
    8.9387  -17.9888   21.2251 C   0  0  0  0  0  0  0  0  0  0  0  0
    8.2793  -18.9377   19.8397 S   0  0  0  0  0  0  0  0  0  0  0  0
    9.1726  -15.8173   22.2542 C   0  0  0  0  0  0  0  0  0  0  0  0
   10.3420  -15.4258   22.5044 O   0  0  0  0  0  0  0  0  0  0  0  0
    6.4134  -12.4361   26.4989 C   0  0  0  0  0  0  0  0  0  0  0  0
    7.6734  -13.1768   26.0875 C   0  0  0  0  0  0  0  0  0  0  0  0
    7.2881  -14.1513   25.0131 C   0  0  2  0  0  0  0  0  0  0  0  0
    6.3630  -15.1878   25.5913 C   0  0  0  0  0  0  0  0  0  0  0  0
    8.4801  -14.8780   24.4303 C   0  0  2  0  0  0  0  0  0  0  0  0
    8.1717  -15.5698   23.2195 N   0  0  0  0  0  0  0  0  0  0  0  0
    9.1182  -15.7769   25.4248 C   0  0  0  0  0  0  0  0  0  0  0  0
    8.8554  -17.0028   25.4255 O   0  0  0  0  0  0  0  0  0  0  0  0
   10.2605  -14.0062   30.5583 C   0  0  0  0  0  0  0  0  0  0  0  0
    9.8513  -14.8944   29.3934 C   0  0  0  0  0  0  0  0  0  0  0  0
   10.9980  -15.2578   28.5301 C   0  0  2  0  0  0  0  0  0  0  0  0
   11.7534  -14.0574   27.9957 C   0  0  0  0  0  0  0  0  0  0  0  0
   10.7016  -16.1423   27.3534 C   0  0  2  0  0  0  0  0  0  0  0  0
   10.0267  -15.2817   26.3847 N   0  0  0  0  0  0  0  0  0  0  0  0
    9.8890  -17.2928   27.7267 C   0  0  0  0  0  0  0  0  0  0  0  0
   10.4637  -18.4370   28.2143 O   0  0  0  0  0  0  0  0  0  0  0  0
    8.6257  -17.3017   27.6215 O   0  0  0  0  0  0  0  0  0  0  0  0
  2  1  1  6
  3  2  1  0
  3  4  1  0
  5  6  2  0
  5  2  1  0
  8  7  1  0
  8  9  1  0
  9 11  1  0
  9 10  1  1
 11 13  1  0
 11 12  1  6
 12  5  1  0
 13 20  1  0
 14 13  2  0
 15 16  1  0
 17 19  1  0
 17 16  1  0
 17 18  1  6
 19 21  1  0
 19 20  1  6
 21 23  2  0
 21 22  1  0
M  END
$$$$
