KVA.pdb
     RDKit          3D

 22 21  0  0  1  0  0  0  0  0999 V2000
    9.2098  -17.6282   16.6480 N   0  0  0  0  0  0  0  0  0  0  0  0
    8.5415  -17.7303   17.9129 C   0  0  1  0  0  0  0  0  0  0  0  0
    8.6657  -19.1124   18.4699 C   0  0  0  0  0  0  0  0  0  0  0  0
    7.4184  -19.9042   18.4568 C   0  0  0  0  0  0  0  0  0  0  0  0
    7.4262  -21.1325   17.6255 C   0  0  0  0  0  0  0  0  0  0  0  0
    6.1359  -21.9176   17.7366 C   0  0  0  0  0  0  0  0  0  0  0  0
    6.0832  -22.9818   16.7725 N   0  0  0  0  0  0  0  0  0  0  0  0
    9.0757  -16.7166   18.8825 C   0  0  0  0  0  0  0  0  0  0  0  0
   10.3247  -16.4857   18.8326 O   0  0  0  0  0  0  0  0  0  0  0  0
    7.2603  -13.3644   19.9637 C   0  0  0  0  0  0  0  0  0  0  0  0
    7.6778  -14.1476   21.1939 C   0  0  2  0  0  0  0  0  0  0  0  0
    8.0855  -13.2490   22.3256 C   0  0  0  0  0  0  0  0  0  0  0  0
    8.8036  -15.0760   20.7720 C   0  0  2  0  0  0  0  0  0  0  0  0
    8.2591  -16.0326   19.8198 N   0  0  0  0  0  0  0  0  0  0  0  0
    9.2847  -15.8115   21.9588 C   0  0  0  0  0  0  0  0  0  0  0  0
    8.5498  -16.6186   22.6070 O   0  0  0  0  0  0  0  0  0  0  0  0
   12.6241  -16.3974   23.5070 C   0  0  0  0  0  0  0  0  0  0  0  0
   11.1123  -16.3981   23.5807 C   0  0  2  0  0  0  0  0  0  0  0  0
   10.6128  -15.6541   22.4464 N   0  0  0  0  0  0  0  0  0  0  0  0
   10.6910  -15.7945   24.8692 C   0  0  0  0  0  0  0  0  0  0  0  0
   10.9595  -16.4612   26.0385 O   0  0  0  0  0  0  0  0  0  0  0  0
   10.0962  -14.6874   24.8888 O   0  0  0  0  0  0  0  0  0  0  0  0
  2  8  1  0
  2  1  1  6
  3  2  1  0
  4  3  1  0
  5  4  1  0
  6  5  1  0
  7  6  1  0
  8  9  2  0
 11 10  1  6
 11 13  1  0
 12 11  1  0
 13 14  1  6
 14  8  1  0
 15 13  1  0
 16 15  2  0
 18 17  1  1
 18 19  1  0
 18 20  1  0
 19 15  1  0
 20 22  2  0
 20 21  1  0
M  END
$$$$
