KVA.pdb
     RDKit          3D

 22 21  0  0  1  0  0  0  0  0999 V2000
    8.7424  -15.3642   20.8905 N   0  0  0  0  0  0  0  0  0  0  0  0
    7.8667  -15.6239   21.9963 C   0  0  1  0  0  0  0  0  0  0  0  0
    7.6453  -17.0930   22.1655 C   0  0  0  0  0  0  0  0  0  0  0  0
    6.8818  -17.7378   21.0773 C   0  0  0  0  0  0  0  0  0  0  0  0
    6.5978  -19.1845   21.2390 C   0  0  0  0  0  0  0  0  0  0  0  0
    5.8262  -19.7595   20.0696 C   0  0  0  0  0  0  0  0  0  0  0  0
    5.5254  -21.1502   20.2708 N   0  0  0  0  0  0  0  0  0  0  0  0
    8.4072  -15.0189   23.2591 C   0  0  0  0  0  0  0  0  0  0  0  0
    9.6650  -15.0877   23.4292 O   0  0  0  0  0  0  0  0  0  0  0  0
    6.7150  -11.8863   25.1022 C   0  0  0  0  0  0  0  0  0  0  0  0
    7.0547  -12.9764   26.1009 C   0  0  2  0  0  0  0  0  0  0  0  0
    7.4928  -12.4161   27.4232 C   0  0  0  0  0  0  0  0  0  0  0  0
    8.1289  -13.8438   25.4676 C   0  0  2  0  0  0  0  0  0  0  0  0
    7.5869  -14.3950   24.2344 N   0  0  0  0  0  0  0  0  0  0  0  0
    8.4442  -14.9573   26.3850 C   0  0  0  0  0  0  0  0  0  0  0  0
    7.5671  -15.7848   26.7823 O   0  0  0  0  0  0  0  0  0  0  0  0
   11.3011  -16.9626   27.2386 C   0  0  0  0  0  0  0  0  0  0  0  0
   10.0857  -16.2452   27.7856 C   0  0  2  0  0  0  0  0  0  0  0  0
    9.7626  -15.1662   26.8795 N   0  0  0  0  0  0  0  0  0  0  0  0
   10.3904  -15.7505   29.1510 C   0  0  0  0  0  0  0  0  0  0  0  0
   10.4166  -14.3975   29.3808 O   0  0  0  0  0  0  0  0  0  0  0  0
   10.6213  -16.5600   30.0842 O   0  0  0  0  0  0  0  0  0  0  0  0
  2  8  1  0
  2  1  1  6
  3  2  1  0
  4  3  1  0
  5  4  1  0
  6  5  1  0
  7  6  1  0
  8  9  2  0
 11 10  1  6
 11 13  1  0
 12 11  1  0
 13 14  1  6
 14  8  1  0
 15 13  1  0
 16 15  2  0
 18 17  1  6
 18 19  1  0
 18 20  1  0
 19 15  1  0
 20 22  2  0
 20 21  1  0
M  END
$$$$
