KVA.pdb
     RDKit          3D

 22 21  0  0  1  0  0  0  0  0999 V2000
    8.4142  -18.2384   16.8260 N   0  0  0  0  0  0  0  0  0  0  0  0
    7.6401  -17.8661   17.9746 C   0  0  1  0  0  0  0  0  0  0  0  0
    7.2510  -19.0728   18.7674 C   0  0  0  0  0  0  0  0  0  0  0  0
    6.4989  -20.0976   18.0144 C   0  0  0  0  0  0  0  0  0  0  0  0
    6.1325  -21.3264   18.7595 C   0  0  0  0  0  0  0  0  0  0  0  0
    5.4599  -22.3603   17.8806 C   0  0  0  0  0  0  0  0  0  0  0  0
    6.4142  -23.0542   17.0605 N   0  0  0  0  0  0  0  0  0  0  0  0
    8.3906  -16.8875   18.8302 C   0  0  0  0  0  0  0  0  0  0  0  0
    9.6575  -16.9918   18.8350 O   0  0  0  0  0  0  0  0  0  0  0  0
    7.0731  -13.1557   19.4775 C   0  0  0  0  0  0  0  0  0  0  0  0
    7.5536  -13.7906   20.7686 C   0  0  2  0  0  0  0  0  0  0  0  0
    8.2031  -12.7922   21.6828 C   0  0  0  0  0  0  0  0  0  0  0  0
    8.5029  -14.9138   20.3882 C   0  0  2  0  0  0  0  0  0  0  0  0
    7.7528  -15.8855   19.6062 N   0  0  0  0  0  0  0  0  0  0  0  0
    8.9841  -15.5690   21.6212 C   0  0  0  0  0  0  0  0  0  0  0  0
    8.2283  -16.2696   22.3624 O   0  0  0  0  0  0  0  0  0  0  0  0
   10.7207  -17.6283   22.9605 C   0  0  0  0  0  0  0  0  0  0  0  0
   10.8401  -16.1411   23.2157 C   0  0  2  0  0  0  0  0  0  0  0  0
   10.3360  -15.4495   22.0507 N   0  0  0  0  0  0  0  0  0  0  0  0
   12.2611  -15.8097   23.4857 C   0  0  0  0  0  0  0  0  0  0  0  0
   12.8116  -16.1631   24.6924 O   0  0  0  0  0  0  0  0  0  0  0  0
   12.9509  -15.2135   22.6207 O   0  0  0  0  0  0  0  0  0  0  0  0
  2  8  1  0
  2  1  1  6
  3  2  1  0
  4  3  1  0
  5  4  1  0
  6  5  1  0
  7  6  1  0
  8  9  2  0
 11 10  1  6
 11 13  1  0
 12 11  1  0
 13 14  1  6
 14  8  1  0
 15 13  1  0
 16 15  2  0
 18 17  1  6
 18 19  1  0
 18 20  1  0
 19 15  1  0
 20 22  2  0
 20 21  1  0
M  END
$$$$
