KVA.pdb
     RDKit          3D

 22 21  0  0  1  0  0  0  0  0999 V2000
    8.3686  -17.7093   16.3156 N   0  0  0  0  0  0  0  0  0  0  0  0
    7.6441  -17.6261   17.5506 C   0  0  1  0  0  0  0  0  0  0  0  0
    7.3855  -18.9893   18.1082 C   0  0  0  0  0  0  0  0  0  0  0  0
    6.4404  -19.8134   17.3269 C   0  0  0  0  0  0  0  0  0  0  0  0
    6.0390  -21.1071   17.9308 C   0  0  0  0  0  0  0  0  0  0  0  0
    5.0062  -21.8405   17.1006 C   0  0  0  0  0  0  0  0  0  0  0  0
    4.6793  -23.1164   17.6749 N   0  0  0  0  0  0  0  0  0  0  0  0
    8.3797  -16.7759   18.5451 C   0  0  0  0  0  0  0  0  0  0  0  0
    9.6489  -16.7927   18.4783 O   0  0  0  0  0  0  0  0  0  0  0  0
    6.9471  -13.2606   19.6772 C   0  0  0  0  0  0  0  0  0  0  0  0
    7.4565  -14.0213   20.8868 C   0  0  2  0  0  0  0  0  0  0  0  0
    8.0690  -13.1104   21.9114 C   0  0  0  0  0  0  0  0  0  0  0  0
    8.4482  -15.0543   20.3801 C   0  0  2  0  0  0  0  0  0  0  0  0
    7.7257  -15.9825   19.5228 N   0  0  0  0  0  0  0  0  0  0  0  0
    8.9904  -15.8001   21.5337 C   0  0  0  0  0  0  0  0  0  0  0  0
    8.2706  -16.5511   22.2615 O   0  0  0  0  0  0  0  0  0  0  0  0
   12.4079  -16.5204   22.8460 C   0  0  0  0  0  0  0  0  0  0  0  0
   10.9082  -16.4310   23.0299 C   0  0  2  0  0  0  0  0  0  0  0  0
   10.3643  -15.7170   21.8968 N   0  0  0  0  0  0  0  0  0  0  0  0
   10.6187  -15.7408   24.3114 C   0  0  0  0  0  0  0  0  0  0  0  0
   10.9077  -16.3772   25.4927 O   0  0  0  0  0  0  0  0  0  0  0  0
   10.1158  -14.5891   24.3142 O   0  0  0  0  0  0  0  0  0  0  0  0
  2  8  1  0
  2  1  1  6
  3  2  1  0
  4  3  1  0
  5  4  1  0
  6  5  1  0
  7  6  1  0
  8  9  2  0
 11 10  1  6
 11 13  1  0
 12 11  1  0
 13 14  1  6
 14  8  1  0
 15 13  1  0
 16 15  2  0
 18 17  1  6
 18 19  1  0
 18 20  1  0
 19 15  1  0
 20 22  2  0
 20 21  1  0
M  END
$$$$
