KVA.pdb
     RDKit          3D

 22 21  0  0  1  0  0  0  0  0999 V2000
   -3.0097  -24.4552   23.1121 N   0  0  0  0  0  0  0  0  0  0  0  0
   -2.0618  -23.8340   23.9911 C   0  0  1  0  0  0  0  0  0  0  0  0
   -1.6382  -24.7790   25.0698 C   0  0  0  0  0  0  0  0  0  0  0  0
   -2.7254  -25.2376   25.9591 C   0  0  0  0  0  0  0  0  0  0  0  0
   -2.3257  -26.0985   27.0987 C   0  0  0  0  0  0  0  0  0  0  0  0
   -3.5110  -26.5672   27.9167 C   0  0  0  0  0  0  0  0  0  0  0  0
   -3.1235  -27.5542   28.8864 N   0  0  0  0  0  0  0  0  0  0  0  0
   -0.8716  -23.3337   23.2255 C   0  0  0  0  0  0  0  0  0  0  0  0
   -0.5388  -23.9983   22.1944 O   0  0  0  0  0  0  0  0  0  0  0  0
    0.1928  -19.4942   23.7283 C   0  0  0  0  0  0  0  0  0  0  0  0
    0.5132  -20.1924   22.4203 C   0  0  2  0  0  0  0  0  0  0  0  0
   -0.6375  -20.1452   21.4569 C   0  0  0  0  0  0  0  0  0  0  0  0
    0.9109  -21.6184   22.7605 C   0  0  2  0  0  0  0  0  0  0  0  0
   -0.1327  -22.1829   23.6035 N   0  0  0  0  0  0  0  0  0  0  0  0
    2.1738  -21.5911   23.5255 C   0  0  0  0  0  0  0  0  0  0  0  0
    2.2052  -21.6217   24.7943 O   0  0  0  0  0  0  0  0  0  0  0  0
    4.6723  -22.8728   24.4226 C   0  0  0  0  0  0  0  0  0  0  0  0
    4.6855  -21.6000   23.6034 C   0  0  2  0  0  0  0  0  0  0  0  0
    3.4387  -21.5282   22.8755 N   0  0  0  0  0  0  0  0  0  0  0  0
    5.8581  -21.6227   22.6942 C   0  0  0  0  0  0  0  0  0  0  0  0
    7.1175  -21.4968   23.2253 O   0  0  0  0  0  0  0  0  0  0  0  0
    5.6995  -21.7554   21.4545 O   0  0  0  0  0  0  0  0  0  0  0  0
  2  8  1  0
  2  1  1  6
  3  2  1  0
  4  3  1  0
  5  4  1  0
  6  5  1  0
  7  6  1  0
  8  9  2  0
 11 10  1  1
 11 13  1  0
 12 11  1  0
 13 14  1  1
 14  8  1  0
 15 13  1  0
 16 15  2  0
 18 17  1  6
 18 19  1  0
 18 20  1  0
 19 15  1  0
 20 22  2  0
 20 21  1  0
M  END
$$$$
