KVA.pdb
     RDKit          3D

 22 21  0  0  1  0  0  0  0  0999 V2000
    7.8096  -14.8192   20.5661 N   0  0  0  0  0  0  0  0  0  0  0  0
    7.1521  -15.2935   21.7492 C   0  0  1  0  0  0  0  0  0  0  0  0
    7.0241  -16.7831   21.7256 C   0  0  0  0  0  0  0  0  0  0  0  0
    6.4262  -17.3379   20.4938 C   0  0  0  0  0  0  0  0  0  0  0  0
    5.2445  -18.2162   20.6724 C   0  0  0  0  0  0  0  0  0  0  0  0
    4.9689  -19.0743   19.4553 C   0  0  0  0  0  0  0  0  0  0  0  0
    5.5701  -20.3734   19.5807 N   0  0  0  0  0  0  0  0  0  0  0  0
    7.8798  -14.8421   22.9820 C   0  0  0  0  0  0  0  0  0  0  0  0
    9.1496  -14.8802   22.9383 O   0  0  0  0  0  0  0  0  0  0  0  0
    6.6259  -11.9514   25.3927 C   0  0  0  0  0  0  0  0  0  0  0  0
    7.0107  -13.1682   26.2127 C   0  0  2  0  0  0  0  0  0  0  0  0
    7.6398  -12.7917   27.5231 C   0  0  0  0  0  0  0  0  0  0  0  0
    7.9424  -14.0082   25.3561 C   0  0  2  0  0  0  0  0  0  0  0  0
    7.2180  -14.3904   24.1529 N   0  0  0  0  0  0  0  0  0  0  0  0
    8.3009  -15.2318   26.1012 C   0  0  0  0  0  0  0  0  0  0  0  0
    7.4326  -16.0657   26.5042 O   0  0  0  0  0  0  0  0  0  0  0  0
   11.2704  -17.3095   26.4667 C   0  0  0  0  0  0  0  0  0  0  0  0
   10.0235  -16.7520   27.1192 C   0  0  2  0  0  0  0  0  0  0  0  0
    9.6539  -15.5468   26.4117 N   0  0  0  0  0  0  0  0  0  0  0  0
   10.3042  -16.4898   28.5525 C   0  0  0  0  0  0  0  0  0  0  0  0
   10.5350  -17.5503   29.3927 O   0  0  0  0  0  0  0  0  0  0  0  0
   10.3301  -15.3121   28.9907 O   0  0  0  0  0  0  0  0  0  0  0  0
  2  8  1  0
  2  1  1  6
  3  2  1  0
  4  3  1  0
  5  4  1  0
  6  5  1  0
  7  6  1  0
  8  9  2  0
 11 10  1  6
 11 13  1  0
 12 11  1  0
 13 14  1  6
 14  8  1  0
 15 13  1  0
 16 15  2  0
 18 17  1  6
 18 19  1  0
 18 20  1  0
 19 15  1  0
 20 22  2  0
 20 21  1  0
M  END
$$$$
