KVA.pdb
     RDKit          3D

 22 21  0  0  1  0  0  0  0  0999 V2000
    8.2621  -14.6017   20.5962 N   0  0  0  0  0  0  0  0  0  0  0  0
    7.7819  -15.3295   21.7350 C   0  0  1  0  0  0  0  0  0  0  0  0
    8.1002  -16.7851   21.6086 C   0  0  0  0  0  0  0  0  0  0  0  0
    7.2628  -17.5247   20.6419 C   0  0  0  0  0  0  0  0  0  0  0  0
    6.6372  -18.7762   21.1341 C   0  0  0  0  0  0  0  0  0  0  0  0
    5.8451  -19.4915   20.0595 C   0  0  0  0  0  0  0  0  0  0  0  0
    5.1881  -20.6588   20.5798 N   0  0  0  0  0  0  0  0  0  0  0  0
    8.3514  -14.7694   23.0058 C   0  0  0  0  0  0  0  0  0  0  0  0
    9.6052  -14.5608   23.0231 O   0  0  0  0  0  0  0  0  0  0  0  0
    6.5359  -12.0840   25.2001 C   0  0  0  0  0  0  0  0  0  0  0  0
    7.0286  -13.1934   26.1097 C   0  0  2  0  0  0  0  0  0  0  0  0
    7.4951  -12.6711   27.4379 C   0  0  0  0  0  0  0  0  0  0  0  0
    8.1342  -13.9231   25.3664 C   0  0  2  0  0  0  0  0  0  0  0  0
    7.5620  -14.4760   24.1477 N   0  0  0  0  0  0  0  0  0  0  0  0
    8.6202  -15.0353   26.2077 C   0  0  0  0  0  0  0  0  0  0  0  0
    7.8707  -15.9912   26.5767 O   0  0  0  0  0  0  0  0  0  0  0  0
   11.9250  -16.4126   27.0687 C   0  0  0  0  0  0  0  0  0  0  0  0
   10.4731  -16.2017   27.4410 C   0  0  2  0  0  0  0  0  0  0  0  0
    9.9699  -15.0973   26.6557 N   0  0  0  0  0  0  0  0  0  0  0  0
   10.3817  -15.9336   28.8977 C   0  0  0  0  0  0  0  0  0  0  0  0
   10.6036  -16.9605   29.7809 O   0  0  0  0  0  0  0  0  0  0  0  0
   10.1047  -14.7814   29.3163 O   0  0  0  0  0  0  0  0  0  0  0  0
  2  8  1  0
  2  1  1  6
  3  2  1  0
  4  3  1  0
  5  4  1  0
  6  5  1  0
  7  6  1  0
  8  9  2  0
 11 10  1  6
 11 13  1  0
 12 11  1  0
 13 14  1  6
 14  8  1  0
 15 13  1  0
 16 15  2  0
 18 17  1  6
 18 19  1  0
 18 20  1  0
 19 15  1  0
 20 22  2  0
 20 21  1  0
M  END
$$$$
