KVA.pdb
     RDKit          3D

 22 21  0  0  1  0  0  0  0  0999 V2000
    6.3901  -15.1753   21.6672 N   0  0  0  0  0  0  0  0  0  0  0  0
    7.6631  -14.5312   21.5200 C   0  0  1  0  0  0  0  0  0  0  0  0
    7.5308  -13.2650   20.7356 C   0  0  0  0  0  0  0  0  0  0  0  0
    8.1974  -13.2759   19.4172 C   0  0  0  0  0  0  0  0  0  0  0  0
    7.8037  -14.3632   18.4885 C   0  0  0  0  0  0  0  0  0  0  0  0
    8.4961  -14.2596   17.1455 C   0  0  0  0  0  0  0  0  0  0  0  0
    8.1074  -15.3302   16.2695 N   0  0  0  0  0  0  0  0  0  0  0  0
    8.2845  -14.2638   22.8600 C   0  0  0  0  0  0  0  0  0  0  0  0
    9.5264  -13.9929   22.8666 O   0  0  0  0  0  0  0  0  0  0  0  0
    6.7925  -12.0737   25.5296 C   0  0  0  0  0  0  0  0  0  0  0  0
    7.1844  -13.3489   26.2516 C   0  0  2  0  0  0  0  0  0  0  0  0
    7.7381  -13.0770   27.6205 C   0  0  0  0  0  0  0  0  0  0  0  0
    8.1850  -14.0735   25.3679 C   0  0  2  0  0  0  0  0  0  0  0  0
    7.5547  -14.3027   24.0761 N   0  0  0  0  0  0  0  0  0  0  0  0
    8.5010  -15.3805   25.9785 C   0  0  0  0  0  0  0  0  0  0  0  0
    7.6099  -16.2461   26.2400 O   0  0  0  0  0  0  0  0  0  0  0  0
   11.4996  -17.4638   26.3676 C   0  0  0  0  0  0  0  0  0  0  0  0
   10.1613  -17.0174   26.9159 C   0  0  2  0  0  0  0  0  0  0  0  0
    9.8362  -15.7455   26.3109 N   0  0  0  0  0  0  0  0  0  0  0  0
   10.2523  -16.9215   28.3940 C   0  0  0  0  0  0  0  0  0  0  0  0
   10.2842  -18.0750   29.1373 O   0  0  0  0  0  0  0  0  0  0  0  0
   10.2996  -15.7989   28.9570 O   0  0  0  0  0  0  0  0  0  0  0  0
  2  8  1  0
  2  1  1  1
  3  2  1  0
  4  3  1  0
  5  4  1  0
  6  5  1  0
  7  6  1  0
  8  9  2  0
 11 10  1  6
 11 13  1  0
 12 11  1  0
 13 14  1  6
 14  8  1  0
 15 13  1  0
 16 15  2  0
 18 17  1  6
 18 19  1  0
 18 20  1  0
 19 15  1  0
 20 22  2  0
 20 21  1  0
M  END
$$$$
