KVA.pdb
     RDKit          3D

 22 21  0  0  1  0  0  0  0  0999 V2000
    8.6948  -17.4741   16.1118 N   0  0  0  0  0  0  0  0  0  0  0  0
    7.7784  -17.1894   17.1777 C   0  0  1  0  0  0  0  0  0  0  0  0
    7.1256  -18.4426   17.6666 C   0  0  0  0  0  0  0  0  0  0  0  0
    7.2044  -19.5895   16.7386 C   0  0  0  0  0  0  0  0  0  0  0  0
    6.4763  -20.8164   17.1437 C   0  0  0  0  0  0  0  0  0  0  0  0
    6.6823  -21.9614   16.1741 C   0  0  0  0  0  0  0  0  0  0  0  0
    5.9613  -23.1346   16.5848 N   0  0  0  0  0  0  0  0  0  0  0  0
    8.4721  -16.4778   18.3026 C   0  0  0  0  0  0  0  0  0  0  0  0
    9.7313  -16.6320   18.3819 O   0  0  0  0  0  0  0  0  0  0  0  0
    7.1808  -12.9822   19.7038 C   0  0  0  0  0  0  0  0  0  0  0  0
    7.5452  -13.8986   20.8564 C   0  0  2  0  0  0  0  0  0  0  0  0
    8.1523  -13.1477   22.0063 C   0  0  0  0  0  0  0  0  0  0  0  0
    8.4883  -14.9548   20.3066 C   0  0  2  0  0  0  0  0  0  0  0  0
    7.7902  -15.6673   19.2468 N   0  0  0  0  0  0  0  0  0  0  0  0
    8.8134  -15.9106   21.3846 C   0  0  0  0  0  0  0  0  0  0  0  0
    7.9301  -16.6168   21.9612 O   0  0  0  0  0  0  0  0  0  0  0  0
   11.4960  -17.9683   22.4713 C   0  0  0  0  0  0  0  0  0  0  0  0
   10.4735  -16.9609   22.9516 C   0  0  2  0  0  0  0  0  0  0  0  0
   10.1492  -16.0943   21.8410 N   0  0  0  0  0  0  0  0  0  0  0  0
   11.0398  -16.2062   24.0970 C   0  0  0  0  0  0  0  0  0  0  0  0
   11.2386  -16.8540   25.2907 O   0  0  0  0  0  0  0  0  0  0  0  0
   11.3331  -14.9902   23.9751 O   0  0  0  0  0  0  0  0  0  0  0  0
  2  8  1  0
  2  1  1  6
  3  2  1  0
  4  3  1  0
  5  4  1  0
  6  5  1  0
  7  6  1  0
  8  9  2  0
 11 10  1  6
 11 13  1  0
 12 11  1  0
 13 14  1  6
 14  8  1  0
 15 13  1  0
 16 15  2  0
 18 17  1  6
 18 19  1  0
 18 20  1  0
 19 15  1  0
 20 22  2  0
 20 21  1  0
M  END
$$$$
