KVA.pdb
     RDKit          3D

 22 21  0  0  1  0  0  0  0  0999 V2000
    8.7750  -17.5544   16.2242 N   0  0  0  0  0  0  0  0  0  0  0  0
    7.9377  -17.4917   17.3871 C   0  0  1  0  0  0  0  0  0  0  0  0
    7.6229  -18.8642   17.8902 C   0  0  0  0  0  0  0  0  0  0  0  0
    6.6278  -19.6082   17.0906 C   0  0  0  0  0  0  0  0  0  0  0  0
    6.2664  -20.9604   17.5808 C   0  0  0  0  0  0  0  0  0  0  0  0
    5.3044  -21.6762   16.6556 C   0  0  0  0  0  0  0  0  0  0  0  0
    4.9953  -22.9946   17.1361 N   0  0  0  0  0  0  0  0  0  0  0  0
    8.5795  -16.6654   18.4633 C   0  0  0  0  0  0  0  0  0  0  0  0
    9.8407  -16.7690   18.5832 O   0  0  0  0  0  0  0  0  0  0  0  0
    7.1480  -13.0517   19.6459 C   0  0  0  0  0  0  0  0  0  0  0  0
    7.4791  -13.9579   20.8166 C   0  0  2  0  0  0  0  0  0  0  0  0
    7.9828  -13.1882   22.0033 C   0  0  0  0  0  0  0  0  0  0  0  0
    8.4973  -14.9715   20.3233 C   0  0  2  0  0  0  0  0  0  0  0  0
    7.8482  -15.8032   19.3206 N   0  0  0  0  0  0  0  0  0  0  0  0
    8.9048  -15.8271   21.4559 C   0  0  0  0  0  0  0  0  0  0  0  0
    8.0716  -16.4951   22.1423 O   0  0  0  0  0  0  0  0  0  0  0  0
   11.2085  -18.0463   22.5149 C   0  0  0  0  0  0  0  0  0  0  0  0
   10.6757  -16.7157   23.0015 C   0  0  2  0  0  0  0  0  0  0  0  0
   10.2687  -15.9511   21.8442 N   0  0  0  0  0  0  0  0  0  0  0  0
   11.7356  -16.0255   23.7777 C   0  0  0  0  0  0  0  0  0  0  0  0
   12.2762  -14.8645   23.2839 O   0  0  0  0  0  0  0  0  0  0  0  0
   12.1324  -16.4982   24.8726 O   0  0  0  0  0  0  0  0  0  0  0  0
  2  8  1  0
  2  1  1  6
  3  2  1  0
  4  3  1  0
  5  4  1  0
  6  5  1  0
  7  6  1  0
  8  9  2  0
 11 10  1  6
 11 13  1  0
 12 11  1  0
 13 14  1  6
 14  8  1  0
 15 13  1  0
 16 15  2  0
 18 17  1  6
 18 19  1  0
 18 20  1  0
 19 15  1  0
 20 22  2  0
 20 21  1  0
M  END
$$$$
