KVA.pdb
     RDKit          3D

 22 21  0  0  1  0  0  0  0  0999 V2000
    5.2841  -17.1645   23.8177 N   0  0  0  0  0  0  0  0  0  0  0  0
    6.5963  -17.1413   23.2391 C   0  0  1  0  0  0  0  0  0  0  0  0
    6.5231  -16.9022   21.7649 C   0  0  0  0  0  0  0  0  0  0  0  0
    6.1442  -18.0819   20.9601 C   0  0  0  0  0  0  0  0  0  0  0  0
    6.7869  -18.2059   19.6293 C   0  0  0  0  0  0  0  0  0  0  0  0
    6.3420  -19.4460   18.8823 C   0  0  0  0  0  0  0  0  0  0  0  0
    5.6802  -19.1096   17.6519 N   0  0  0  0  0  0  0  0  0  0  0  0
    7.4547  -16.1047   23.9037 C   0  0  0  0  0  0  0  0  0  0  0  0
    8.6438  -15.9884   23.4697 O   0  0  0  0  0  0  0  0  0  0  0  0
    6.2550  -12.6128   25.3961 C   0  0  0  0  0  0  0  0  0  0  0  0
    7.0336  -13.3860   26.4435 C   0  0  2  0  0  0  0  0  0  0  0  0
    7.8594  -12.4842   27.3150 C   0  0  0  0  0  0  0  0  0  0  0  0
    7.8888  -14.4015   25.7055 C   0  0  2  0  0  0  0  0  0  0  0  0
    6.9966  -15.2801   24.9635 N   0  0  0  0  0  0  0  0  0  0  0  0
    8.6314  -15.2078   26.6951 C   0  0  0  0  0  0  0  0  0  0  0  0
    8.0521  -15.9703   27.5286 O   0  0  0  0  0  0  0  0  0  0  0  0
   12.2261  -16.0851   27.1802 C   0  0  0  0  0  0  0  0  0  0  0  0
   10.7985  -16.0149   27.6784 C   0  0  2  0  0  0  0  0  0  0  0  0
   10.0526  -15.1740   26.7696 N   0  0  0  0  0  0  0  0  0  0  0  0
   10.7953  -15.4768   29.0613 C   0  0  0  0  0  0  0  0  0  0  0  0
   11.1436  -16.3032   30.1003 O   0  0  0  0  0  0  0  0  0  0  0  0
   10.4777  -14.2801   29.2776 O   0  0  0  0  0  0  0  0  0  0  0  0
  2  8  1  0
  2  1  1  1
  3  2  1  0
  4  3  1  0
  5  4  1  0
  6  5  1  0
  7  6  1  0
  8  9  2  0
 11 10  1  6
 11 13  1  0
 12 11  1  0
 13 14  1  1
 14  8  1  0
 15 13  1  0
 16 15  2  0
 18 17  1  6
 18 19  1  0
 18 20  1  0
 19 15  1  0
 20 22  2  0
 20 21  1  0
M  END
$$$$
