SML.pdb
     RDKit          3D

 23 22  0  0  1  0  0  0  0  0999 V2000
   12.3610  -17.6595   20.9323 O   0  0  0  0  0  0  0  0  0  0  0  0
   11.1124  -17.7332   20.3087 C   0  0  0  0  0  0  0  0  0  0  0  0
   10.4983  -16.3661   20.1843 C   0  0  2  0  0  0  0  0  0  0  0  0
   11.4408  -15.4781   19.5344 N   0  0  0  0  0  0  0  0  0  0  0  0
   10.0677  -15.7824   21.4501 C   0  0  0  0  0  0  0  0  0  0  0  0
   10.8300  -14.9877   22.0595 O   0  0  0  0  0  0  0  0  0  0  0  0
    6.4289  -12.0777   26.0238 C   0  0  0  0  0  0  0  0  0  0  0  0
    7.1971  -13.6525   25.5087 S   0  0  0  0  0  0  0  0  0  0  0  0
    6.3376  -14.3036   24.0252 C   0  0  0  0  0  0  0  0  0  0  0  0
    6.9689  -15.6135   23.6469 C   0  0  0  0  0  0  0  0  0  0  0  0
    8.4300  -15.5316   23.3744 C   0  0  2  0  0  0  0  0  0  0  0  0
    8.8193  -16.0407   22.0783 N   0  0  0  0  0  0  0  0  0  0  0  0
    9.2627  -16.0897   24.4685 C   0  0  0  0  0  0  0  0  0  0  0  0
    9.7747  -17.2479   24.4072 O   0  0  0  0  0  0  0  0  0  0  0  0
   10.7620  -15.9476   29.9259 C   0  0  0  0  0  0  0  0  0  0  0  0
   11.1609  -14.8827   28.9835 C   0  0  2  0  0  0  0  0  0  0  0  0
   10.9795  -13.5250   29.7117 C   0  0  0  0  0  0  0  0  0  0  0  0
   10.4794  -14.7473   27.6938 C   0  0  0  0  0  0  0  0  0  0  0  0
   10.4210  -15.8654   26.7234 C   0  0  2  0  0  0  0  0  0  0  0  0
    9.5201  -15.3362   25.6411 N   0  0  0  0  0  0  0  0  0  0  0  0
    9.7662  -17.0535   27.2465 C   0  0  0  0  0  0  0  0  0  0  0  0
    8.4057  -17.2464   27.4417 O   0  0  0  0  0  0  0  0  0  0  0  0
   10.4880  -18.0542   27.5824 O   0  0  0  0  0  0  0  0  0  0  0  0
  1  2  1  0
  3  2  1  0
  3  5  1  0
  3  4  1  1
  5 12  1  0
  6  5  2  0
  8  9  1  0
  8  7  1  0
 10  9  1  0
 11 10  1  1
 11 13  1  0
 12 11  1  0
 13 14  2  0
 16 18  1  0
 16 15  1  1
 17 16  1  0
 19 18  1  1
 20 13  1  0
 20 19  1  0
 21 22  1  0
 21 19  1  0
 23 21  2  0
M  END
$$$$
