SML.pdb
     RDKit          3D

 23 22  0  0  1  0  0  0  0  0999 V2000
    8.4898  -19.4101   23.4392 O   0  0  0  0  0  0  0  0  0  0  0  0
    7.2675  -19.0114   22.8912 C   0  0  0  0  0  0  0  0  0  0  0  0
    7.4566  -17.8456   21.9602 C   0  0  2  0  0  0  0  0  0  0  0  0
    8.2618  -18.2642   20.8307 N   0  0  0  0  0  0  0  0  0  0  0  0
    8.0575  -16.6705   22.5818 C   0  0  0  0  0  0  0  0  0  0  0  0
    9.2843  -16.4404   22.4200 O   0  0  0  0  0  0  0  0  0  0  0  0
    5.1790  -11.9287   26.6685 C   0  0  0  0  0  0  0  0  0  0  0  0
    6.4722  -11.1613   25.6320 S   0  0  0  0  0  0  0  0  0  0  0  0
    7.7446  -12.4111   25.2049 C   0  0  0  0  0  0  0  0  0  0  0  0
    7.0656  -13.5689   24.5296 C   0  0  0  0  0  0  0  0  0  0  0  0
    7.9807  -14.6836   24.1611 C   0  0  2  0  0  0  0  0  0  0  0  0
    7.3555  -15.7291   23.3822 N   0  0  0  0  0  0  0  0  0  0  0  0
    8.7412  -15.2237   25.3152 C   0  0  0  0  0  0  0  0  0  0  0  0
    8.4023  -14.9974   26.5158 O   0  0  0  0  0  0  0  0  0  0  0  0
   10.8172  -13.6746   28.1816 C   0  0  0  0  0  0  0  0  0  0  0  0
   10.2521  -15.0388   28.1509 C   0  0  2  0  0  0  0  0  0  0  0  0
   10.3540  -15.6171   29.5868 C   0  0  0  0  0  0  0  0  0  0  0  0
   10.8243  -16.0531   27.2619 C   0  0  0  0  0  0  0  0  0  0  0  0
   11.1725  -15.7472   25.8546 C   0  0  2  0  0  0  0  0  0  0  0  0
    9.8928  -16.0252   25.1144 N   0  0  0  0  0  0  0  0  0  0  0  0
   12.1656  -16.6490   25.2940 C   0  0  0  0  0  0  0  0  0  0  0  0
   11.9495  -17.6814   24.3920 O   0  0  0  0  0  0  0  0  0  0  0  0
   13.3866  -16.5146   25.6495 O   0  0  0  0  0  0  0  0  0  0  0  0
  1  2  1  0
  3  2  1  0
  3  5  1  0
  3  4  1  6
  5 12  1  0
  6  5  2  0
  8  9  1  0
  8  7  1  0
 10  9  1  0
 11 10  1  1
 11 13  1  0
 12 11  1  0
 13 14  2  0
 16 18  1  0
 16 15  1  1
 17 16  1  0
 19 18  1  1
 20 13  1  0
 20 19  1  0
 21 22  1  0
 21 19  1  0
 23 21  2  0
M  END
$$$$
