SML.pdb
     RDKit          3D

 23 22  0  0  1  0  0  0  0  0999 V2000
    6.8195  -19.0027   25.1088 O   0  0  0  0  0  0  0  0  0  0  0  0
    5.7291  -18.8871   24.2423 C   0  0  0  0  0  0  0  0  0  0  0  0
    6.1800  -18.9455   22.8088 C   0  0  2  0  0  0  0  0  0  0  0  0
    6.6528  -20.2827   22.5126 N   0  0  0  0  0  0  0  0  0  0  0  0
    7.2109  -17.9732   22.4622 C   0  0  0  0  0  0  0  0  0  0  0  0
    8.4195  -18.3242   22.4555 O   0  0  0  0  0  0  0  0  0  0  0  0
    7.1202  -12.6636   18.3969 C   0  0  0  0  0  0  0  0  0  0  0  0
    7.9074  -12.0396   19.9221 S   0  0  0  0  0  0  0  0  0  0  0  0
    8.6328  -13.4386   20.8603 C   0  0  0  0  0  0  0  0  0  0  0  0
    7.5321  -14.4018   21.2040 C   0  0  0  0  0  0  0  0  0  0  0  0
    7.9874  -15.6125   21.9407 C   0  0  2  0  0  0  0  0  0  0  0  0
    6.9625  -16.6165   22.1192 N   0  0  0  0  0  0  0  0  0  0  0  0
    8.6896  -15.2972   23.2094 C   0  0  0  0  0  0  0  0  0  0  0  0
    9.8565  -14.8021   23.2333 O   0  0  0  0  0  0  0  0  0  0  0  0
    7.9893  -11.8698   26.3486 C   0  0  0  0  0  0  0  0  0  0  0  0
    7.1348  -13.0378   26.0541 C   0  0  2  0  0  0  0  0  0  0  0  0
    5.7743  -12.8098   26.7638 C   0  0  0  0  0  0  0  0  0  0  0  0
    7.5713  -14.3839   26.4333 C   0  0  0  0  0  0  0  0  0  0  0  0
    8.6941  -15.0611   25.7433 C   0  0  2  0  0  0  0  0  0  0  0  0
    8.0713  -15.5420   24.4612 N   0  0  0  0  0  0  0  0  0  0  0  0
    9.1650  -16.2513   26.4329 C   0  0  0  0  0  0  0  0  0  0  0  0
    9.0660  -17.5670   26.0021 O   0  0  0  0  0  0  0  0  0  0  0  0
    9.7352  -16.1166   27.5695 O   0  0  0  0  0  0  0  0  0  0  0  0
  1  2  1  0
  3  2  1  0
  3  5  1  0
  3  4  1  1
  5 12  1  0
  6  5  2  0
  8  9  1  0
  8  7  1  0
 10  9  1  0
 11 10  1  1
 11 13  1  0
 12 11  1  0
 13 14  2  0
 16 18  1  0
 16 15  1  1
 17 16  1  0
 19 18  1  1
 20 13  1  0
 20 19  1  0
 21 22  1  0
 21 19  1  0
 23 21  2  0
M  END
$$$$
