SML.pdb
     RDKit          3D

 23 22  0  0  1  0  0  0  0  0999 V2000
   10.2781  -18.8538   21.6840 O   0  0  0  0  0  0  0  0  0  0  0  0
   11.0296  -17.9448   20.9341 C   0  0  0  0  0  0  0  0  0  0  0  0
   10.3405  -16.6097   20.8701 C   0  0  2  0  0  0  0  0  0  0  0  0
   11.1403  -15.6987   20.0765 N   0  0  0  0  0  0  0  0  0  0  0  0
   10.0639  -16.0122   22.1720 C   0  0  0  0  0  0  0  0  0  0  0  0
   11.0120  -15.5464   22.8563 O   0  0  0  0  0  0  0  0  0  0  0  0
    6.2689  -12.0203   25.1958 C   0  0  0  0  0  0  0  0  0  0  0  0
    7.4138  -13.1655   26.0403 S   0  0  0  0  0  0  0  0  0  0  0  0
    6.8112  -14.8881   25.8585 C   0  0  0  0  0  0  0  0  0  0  0  0
    7.0762  -15.3380   24.4496 C   0  0  0  0  0  0  0  0  0  0  0  0
    8.5191  -15.4990   24.1208 C   0  0  2  0  0  0  0  0  0  0  0  0
    8.7730  -15.9058   22.7567 N   0  0  0  0  0  0  0  0  0  0  0  0
    9.2538  -16.3365   25.1009 C   0  0  0  0  0  0  0  0  0  0  0  0
    9.5145  -17.5587   24.8873 O   0  0  0  0  0  0  0  0  0  0  0  0
   10.7805  -13.3327   27.9847 C   0  0  0  0  0  0  0  0  0  0  0  0
   10.0003  -14.4437   28.5663 C   0  0  2  0  0  0  0  0  0  0  0  0
    9.7715  -14.1168   30.0655 C   0  0  0  0  0  0  0  0  0  0  0  0
   10.5221  -15.8119   28.5229 C   0  0  0  0  0  0  0  0  0  0  0  0
   10.5797  -16.5831   27.2591 C   0  0  2  0  0  0  0  0  0  0  0  0
    9.6982  -15.7919   26.3318 N   0  0  0  0  0  0  0  0  0  0  0  0
    9.9781  -17.9030   27.3574 C   0  0  0  0  0  0  0  0  0  0  0  0
   10.5552  -19.0533   27.8771 O   0  0  0  0  0  0  0  0  0  0  0  0
    8.7868  -18.0682   26.9228 O   0  0  0  0  0  0  0  0  0  0  0  0
  1  2  1  0
  3  2  1  0
  3  5  1  0
  3  4  1  6
  5 12  1  0
  6  5  2  0
  8  9  1  0
  8  7  1  0
 10  9  1  0
 11 10  1  1
 11 13  1  0
 12 11  1  0
 13 14  2  0
 16 18  1  0
 16 15  1  1
 17 16  1  0
 19 18  1  1
 20 13  1  0
 20 19  1  0
 21 22  1  0
 21 19  1  0
 23 21  2  0
M  END
$$$$
