SML.pdb
     RDKit          3D

 23 22  0  0  1  0  0  0  0  0999 V2000
   11.3085  -18.3306   21.3085 O   0  0  0  0  0  0  0  0  0  0  0  0
   10.2327  -18.0094   20.4761 C   0  0  0  0  0  0  0  0  0  0  0  0
   10.0564  -16.5187   20.3857 C   0  0  2  0  0  0  0  0  0  0  0  0
   11.2052  -15.9431   19.7162 N   0  0  0  0  0  0  0  0  0  0  0  0
    9.8559  -15.8575   21.6707 C   0  0  0  0  0  0  0  0  0  0  0  0
   10.8091  -15.2315   22.2032 O   0  0  0  0  0  0  0  0  0  0  0  0
    5.6071  -12.5462   26.0474 C   0  0  0  0  0  0  0  0  0  0  0  0
    6.7865  -12.2561   24.6834 S   0  0  0  0  0  0  0  0  0  0  0  0
    6.5827  -13.5535   23.4033 C   0  0  0  0  0  0  0  0  0  0  0  0
    7.0292  -14.8662   23.9820 C   0  0  0  0  0  0  0  0  0  0  0  0
    8.4446  -15.2164   23.6819 C   0  0  2  0  0  0  0  0  0  0  0  0
    8.6362  -15.8576   22.4002 N   0  0  0  0  0  0  0  0  0  0  0  0
    9.1119  -15.9545   24.7827 C   0  0  0  0  0  0  0  0  0  0  0  0
    9.4423  -17.1741   24.6783 O   0  0  0  0  0  0  0  0  0  0  0  0
   10.6248  -14.3572   30.5898 C   0  0  0  0  0  0  0  0  0  0  0  0
   10.8317  -15.3018   29.4736 C   0  0  2  0  0  0  0  0  0  0  0  0
   12.3602  -15.5250   29.3302 C   0  0  0  0  0  0  0  0  0  0  0  0
   10.3402  -14.9761   28.1324 C   0  0  0  0  0  0  0  0  0  0  0  0
   10.2016  -16.0116   27.0818 C   0  0  2  0  0  0  0  0  0  0  0  0
    9.4091  -15.3127   26.0110 N   0  0  0  0  0  0  0  0  0  0  0  0
    9.4010  -17.1528   27.4946 C   0  0  0  0  0  0  0  0  0  0  0  0
    9.8580  -18.4079   27.8719 O   0  0  0  0  0  0  0  0  0  0  0  0
    8.1283  -17.0317   27.5218 O   0  0  0  0  0  0  0  0  0  0  0  0
  1  2  1  0
  3  2  1  0
  3  5  1  0
  3  4  1  1
  5 12  1  0
  6  5  2  0
  8  9  1  0
  8  7  1  0
 10  9  1  0
 11 10  1  1
 11 13  1  0
 12 11  1  0
 13 14  2  0
 16 18  1  0
 16 15  1  1
 17 16  1  0
 19 18  1  1
 20 13  1  0
 20 19  1  0
 21 22  1  0
 21 19  1  0
 23 21  2  0
M  END
$$$$
