SML.pdb
     RDKit          3D

 23 22  0  0  1  0  0  0  0  0999 V2000
    9.3336  -18.4041   20.6132 O   0  0  0  0  0  0  0  0  0  0  0  0
    8.1254  -17.7459   20.3677 C   0  0  0  0  0  0  0  0  0  0  0  0
    8.3545  -16.2751   20.1542 C   0  0  2  0  0  0  0  0  0  0  0  0
    9.2165  -16.0895   19.0045 N   0  0  0  0  0  0  0  0  0  0  0  0
    8.9182  -15.5804   21.3067 C   0  0  0  0  0  0  0  0  0  0  0  0
   10.1454  -15.3018   21.3254 O   0  0  0  0  0  0  0  0  0  0  0  0
    6.7146  -12.1550   26.9607 C   0  0  0  0  0  0  0  0  0  0  0  0
    5.7739  -12.6442   25.4737 S   0  0  0  0  0  0  0  0  0  0  0  0
    6.9324  -13.1906   24.1612 C   0  0  0  0  0  0  0  0  0  0  0  0
    7.7956  -14.2882   24.7161 C   0  0  0  0  0  0  0  0  0  0  0  0
    8.7588  -14.8622   23.7370 C   0  0  2  0  0  0  0  0  0  0  0  0
    8.1781  -15.1761   22.4506 N   0  0  0  0  0  0  0  0  0  0  0  0
    9.5490  -15.9920   24.2855 C   0  0  0  0  0  0  0  0  0  0  0  0
   10.4808  -16.5486   23.6301 O   0  0  0  0  0  0  0  0  0  0  0  0
    9.9316  -14.2274   29.8203 C   0  0  0  0  0  0  0  0  0  0  0  0
   10.6189  -14.9547   28.7342 C   0  0  2  0  0  0  0  0  0  0  0  0
   11.8053  -14.0735   28.2622 C   0  0  0  0  0  0  0  0  0  0  0  0
    9.8866  -15.3341   27.5234 C   0  0  0  0  0  0  0  0  0  0  0  0
   10.3343  -16.4533   26.6618 C   0  0  2  0  0  0  0  0  0  0  0  0
    9.2869  -16.4986   25.5830 N   0  0  0  0  0  0  0  0  0  0  0  0
   10.2878  -17.7478   27.3222 C   0  0  0  0  0  0  0  0  0  0  0  0
   11.3638  -18.5063   27.7618 O   0  0  0  0  0  0  0  0  0  0  0  0
    9.1482  -18.2867   27.5363 O   0  0  0  0  0  0  0  0  0  0  0  0
  1  2  1  0
  3  2  1  0
  3  5  1  0
  3  4  1  6
  5 12  1  0
  6  5  2  0
  8  9  1  0
  8  7  1  0
 10  9  1  0
 11 10  1  1
 11 13  1  0
 12 11  1  0
 13 14  2  0
 16 18  1  0
 16 15  1  1
 17 16  1  0
 19 18  1  1
 20 13  1  0
 20 19  1  0
 21 22  1  0
 21 19  1  0
 23 21  2  0
M  END
$$$$
