SML.pdb
     RDKit          3D

 23 22  0  0  1  0  0  0  0  0999 V2000
    8.8414  -19.3112   24.1492 O   0  0  0  0  0  0  0  0  0  0  0  0
    8.7931  -19.4830   22.7630 C   0  0  0  0  0  0  0  0  0  0  0  0
    7.8355  -18.5058   22.1388 C   0  0  2  0  0  0  0  0  0  0  0  0
    7.8575  -18.6710   20.6995 N   0  0  0  0  0  0  0  0  0  0  0  0
    8.0949  -17.1103   22.4760 C   0  0  0  0  0  0  0  0  0  0  0  0
    8.8978  -16.4403   21.7756 O   0  0  0  0  0  0  0  0  0  0  0  0
    5.9191  -10.8435   26.8173 C   0  0  0  0  0  0  0  0  0  0  0  0
    6.3103  -12.6100   26.5683 S   0  0  0  0  0  0  0  0  0  0  0  0
    6.8514  -12.8854   24.8377 C   0  0  0  0  0  0  0  0  0  0  0  0
    6.5847  -14.3200   24.4791 C   0  0  0  0  0  0  0  0  0  0  0  0
    7.7538  -15.0306   23.8925 C   0  0  2  0  0  0  0  0  0  0  0  0
    7.4999  -16.4156   23.5637 N   0  0  0  0  0  0  0  0  0  0  0  0
    8.9990  -14.8615   24.6816 C   0  0  0  0  0  0  0  0  0  0  0  0
    9.5143  -13.7237   24.8992 O   0  0  0  0  0  0  0  0  0  0  0  0
   10.3904  -13.6004   28.1477 C   0  0  0  0  0  0  0  0  0  0  0  0
    9.8935  -14.9907   28.1116 C   0  0  2  0  0  0  0  0  0  0  0  0
    9.8169  -15.4957   29.5765 C   0  0  0  0  0  0  0  0  0  0  0  0
   10.6273  -16.0159   27.3654 C   0  0  0  0  0  0  0  0  0  0  0  0
   10.9866  -15.8329   25.9396 C   0  0  2  0  0  0  0  0  0  0  0  0
    9.6689  -15.9839   25.2298 N   0  0  0  0  0  0  0  0  0  0  0  0
   11.8466  -16.8832   25.4191 C   0  0  0  0  0  0  0  0  0  0  0  0
   13.2336  -16.9253   25.4477 O   0  0  0  0  0  0  0  0  0  0  0  0
   11.3059  -17.8976   24.8588 O   0  0  0  0  0  0  0  0  0  0  0  0
  1  2  1  0
  3  2  1  0
  3  5  1  0
  3  4  1  6
  5 12  1  0
  6  5  2  0
  8  9  1  0
  8  7  1  0
 10  9  1  0
 11 10  1  1
 11 13  1  0
 12 11  1  0
 13 14  2  0
 16 18  1  0
 16 15  1  1
 17 16  1  0
 19 18  1  1
 20 13  1  0
 20 19  1  0
 21 22  1  0
 21 19  1  0
 23 21  2  0
M  END
$$$$
