SML.pdb
     RDKit          3D

 23 22  0  0  1  0  0  0  0  0999 V2000
    8.8867  -17.1814   18.9425 O   0  0  0  0  0  0  0  0  0  0  0  0
   10.0399  -17.8619   19.3430 C   0  0  0  0  0  0  0  0  0  0  0  0
   10.0295  -18.0987   20.8280 C   0  0  2  0  0  0  0  0  0  0  0  0
    8.8890  -18.9241   21.1705 N   0  0  0  0  0  0  0  0  0  0  0  0
   10.0122  -16.8811   21.6314 C   0  0  0  0  0  0  0  0  0  0  0  0
   10.9854  -16.0850   21.5747 O   0  0  0  0  0  0  0  0  0  0  0  0
    6.2371  -11.9507   26.5684 C   0  0  0  0  0  0  0  0  0  0  0  0
    6.3995  -13.5937   25.7875 S   0  0  0  0  0  0  0  0  0  0  0  0
    7.5632  -13.4940   24.3736 C   0  0  0  0  0  0  0  0  0  0  0  0
    7.5854  -14.8275   23.6816 C   0  0  0  0  0  0  0  0  0  0  0  0
    8.9469  -15.2996   23.3082 C   0  0  2  0  0  0  0  0  0  0  0  0
    8.9563  -16.5006   22.5032 N   0  0  0  0  0  0  0  0  0  0  0  0
    9.8725  -15.3930   24.4643 C   0  0  0  0  0  0  0  0  0  0  0  0
   10.9899  -14.7944   24.4880 O   0  0  0  0  0  0  0  0  0  0  0  0
   11.3095  -13.5363   28.2648 C   0  0  0  0  0  0  0  0  0  0  0  0
   10.0809  -14.2569   27.8742 C   0  0  2  0  0  0  0  0  0  0  0  0
    8.9614  -13.8378   28.8631 C   0  0  0  0  0  0  0  0  0  0  0  0
   10.0658  -15.7214   27.8389 C   0  0  0  0  0  0  0  0  0  0  0  0
   10.5575  -16.4765   26.6628 C   0  0  2  0  0  0  0  0  0  0  0  0
    9.5359  -16.1675   25.6027 N   0  0  0  0  0  0  0  0  0  0  0  0
   10.5248  -17.9186   26.8447 C   0  0  0  0  0  0  0  0  0  0  0  0
    9.6405  -18.8189   26.2670 O   0  0  0  0  0  0  0  0  0  0  0  0
   11.3862  -18.4588   27.6202 O   0  0  0  0  0  0  0  0  0  0  0  0
  1  2  1  0
  3  2  1  0
  3  5  1  0
  3  4  1  6
  5 12  1  0
  6  5  2  0
  8  9  1  0
  8  7  1  0
 10  9  1  0
 11 10  1  1
 11 13  1  0
 12 11  1  0
 13 14  2  0
 16 18  1  0
 16 15  1  1
 17 16  1  0
 19 18  1  1
 20 13  1  0
 20 19  1  0
 21 22  1  0
 21 19  1  0
 23 21  2  0
M  END
$$$$
