HLA.pdb
     RDKit          3D

 24 24  0  0  1  0  0  0  0  0999 V2000
   28.0712  -21.2193  -15.5442 N   0  0  0  0  0  0  0  0  0  0  0  0
   27.2786  -20.3087  -14.7552 C   0  0  1  0  0  0  0  0  0  0  0  0
   26.5504  -19.3909  -15.6763 C   0  0  0  0  0  0  0  0  0  0  0  0
   27.5389  -18.4904  -16.3249 C   0  0  0  0  0  0  0  0  0  0  0  0
   28.3251  -18.7029  -17.4381 C   0  0  0  0  0  0  0  0  0  0  0  0
   29.0834  -17.6314  -17.6904 N   0  0  0  0  0  0  0  0  0  0  0  0
   28.7917  -16.7248  -16.7446 C   0  0  0  0  0  0  0  0  0  0  0  0
   27.8617  -17.2340  -15.9173 N   0  0  0  0  0  0  0  0  0  0  0  0
   26.4047  -21.0212  -13.8063 C   0  0  0  0  0  0  0  0  0  0  0  0
   25.9008  -22.0979  -14.1529 O   0  0  0  0  0  0  0  0  0  0  0  0
   25.8481  -19.9014   -8.1618 C   0  0  0  0  0  0  0  0  0  0  0  0
   26.2068  -20.6236   -9.4763 C   0  0  1  0  0  0  0  0  0  0  0  0
   26.8137  -21.9299   -9.1182 C   0  0  0  0  0  0  0  0  0  0  0  0
   24.9554  -20.6490  -10.2804 C   0  0  0  0  0  0  0  0  0  0  0  0
   25.0263  -20.9952  -11.6990 C   0  0  2  0  0  0  0  0  0  0  0  0
   26.0925  -20.5606  -12.5075 N   0  0  0  0  0  0  0  0  0  0  0  0
   23.7022  -20.6522  -12.3351 C   0  0  0  0  0  0  0  0  0  0  0  0
   23.2966  -19.4641  -12.4159 O   0  0  0  0  0  0  0  0  0  0  0  0
   21.2691  -22.3561  -14.6079 C   0  0  0  0  0  0  0  0  0  0  0  0
   21.5806  -21.3598  -13.5015 C   0  0  2  0  0  0  0  0  0  0  0  0
   22.8513  -21.6579  -12.8728 N   0  0  0  0  0  0  0  0  0  0  0  0
   20.4819  -21.2681  -12.5214 C   0  0  0  0  0  0  0  0  0  0  0  0
   19.2435  -20.7772  -12.8978 O   0  0  0  0  0  0  0  0  0  0  0  0
   20.6697  -21.6360  -11.3429 O   0  0  0  0  0  0  0  0  0  0  0  0
  2  1  1  6
  3  2  1  0
  4  3  1  0
  5  4  2  0
  6  7  1  0
  6  5  1  0
  7  8  2  0
  8  4  1  0
  9 10  2  0
  9  2  1  0
 12 11  1  1
 12 14  1  0
 12 13  1  0
 15 14  1  1
 15 16  1  0
 16  9  1  0
 17 15  1  0
 18 17  2  0
 20 19  1  6
 20 21  1  0
 21 17  1  0
 22 23  1  0
 22 20  1  0
 24 22  2  0
M  END
$$$$
