HLA.pdb
     RDKit          3D

 24 24  0  0  1  0  0  0  0  0999 V2000
   20.4445  -35.3695   -8.5470 N   0  0  0  0  0  0  0  0  0  0  0  0
   20.8586  -34.5774   -7.4152 C   0  0  1  0  0  0  0  0  0  0  0  0
   20.0268  -34.9575   -6.2385 C   0  0  0  0  0  0  0  0  0  0  0  0
   18.6400  -34.4732   -6.4642 C   0  0  0  0  0  0  0  0  0  0  0  0
   18.1821  -33.1937   -6.6999 C   0  0  0  0  0  0  0  0  0  0  0  0
   16.8539  -33.1891   -6.8500 N   0  0  0  0  0  0  0  0  0  0  0  0
   16.4488  -34.4614   -6.7124 C   0  0  0  0  0  0  0  0  0  0  0  0
   17.5187  -35.2422   -6.4797 N   0  0  0  0  0  0  0  0  0  0  0  0
   22.3099  -34.6742   -7.1782 C   0  0  0  0  0  0  0  0  0  0  0  0
   22.8585  -35.7796   -7.2817 O   0  0  0  0  0  0  0  0  0  0  0  0
   27.1735  -32.3391   -8.9516 C   0  0  0  0  0  0  0  0  0  0  0  0
   25.7153  -32.8103   -8.7797 C   0  0  1  0  0  0  0  0  0  0  0  0
   25.6197  -34.1829   -9.3365 C   0  0  0  0  0  0  0  0  0  0  0  0
   25.3992  -32.6348   -7.3365 C   0  0  0  0  0  0  0  0  0  0  0  0
   24.5351  -33.6092   -6.6723 C   0  0  2  0  0  0  0  0  0  0  0  0
   23.1379  -33.5817   -6.8355 N   0  0  0  0  0  0  0  0  0  0  0  0
   24.8991  -33.6421   -5.2087 C   0  0  0  0  0  0  0  0  0  0  0  0
   26.0929  -33.7534   -4.8276 O   0  0  0  0  0  0  0  0  0  0  0  0
   23.1612  -32.7810   -1.9890 C   0  0  0  0  0  0  0  0  0  0  0  0
   24.2293  -33.5208   -2.7799 C   0  0  2  0  0  0  0  0  0  0  0  0
   23.9079  -33.5488   -4.1922 N   0  0  0  0  0  0  0  0  0  0  0  0
   24.4765  -34.8703   -2.2377 C   0  0  0  0  0  0  0  0  0  0  0  0
   24.9508  -35.0332   -0.9475 O   0  0  0  0  0  0  0  0  0  0  0  0
   24.2565  -35.8738   -2.9476 O   0  0  0  0  0  0  0  0  0  0  0  0
  2  1  1  6
  3  2  1  0
  4  3  1  0
  5  4  2  0
  6  7  1  0
  6  5  1  0
  7  8  2  0
  8  4  1  0
  9 10  2  0
  9  2  1  0
 12 11  1  1
 12 14  1  0
 12 13  1  0
 15 14  1  1
 15 16  1  0
 16  9  1  0
 17 15  1  0
 18 17  2  0
 20 19  1  1
 20 21  1  0
 21 17  1  0
 22 23  1  0
 22 20  1  0
 24 22  2  0
M  END
$$$$
