HLA.pdb
     RDKit          3D

 24 24  0  0  1  0  0  0  0  0999 V2000
   15.8866  -13.5501  -13.9530 N   0  0  0  0  0  0  0  0  0  0  0  0
   15.8998  -12.1108  -13.8627 C   0  0  1  0  0  0  0  0  0  0  0  0
   16.1493  -11.5510  -15.2211 C   0  0  0  0  0  0  0  0  0  0  0  0
   17.5043  -11.9714  -15.6637 C   0  0  0  0  0  0  0  0  0  0  0  0
   18.7426  -11.5836  -15.1960 C   0  0  0  0  0  0  0  0  0  0  0  0
   19.7159  -12.2023  -15.8717 N   0  0  0  0  0  0  0  0  0  0  0  0
   19.1132  -12.9899  -16.7761 C   0  0  0  0  0  0  0  0  0  0  0  0
   17.7801  -12.8571  -16.6578 N   0  0  0  0  0  0  0  0  0  0  0  0
   14.6829  -11.5898  -13.2151 C   0  0  0  0  0  0  0  0  0  0  0  0
   13.5831  -12.0414  -13.5615 O   0  0  0  0  0  0  0  0  0  0  0  0
   11.0424  -10.3537   -9.7859 C   0  0  0  0  0  0  0  0  0  0  0  0
   12.1998   -9.3647   -9.5401 C   0  0  1  0  0  0  0  0  0  0  0  0
   12.2356   -9.0700   -8.0858 C   0  0  0  0  0  0  0  0  0  0  0  0
   13.4068   -9.9948  -10.1395 C   0  0  0  0  0  0  0  0  0  0  0  0
   13.5411  -10.0366  -11.5947 C   0  0  2  0  0  0  0  0  0  0  0  0
   14.6756  -10.5959  -12.2107 N   0  0  0  0  0  0  0  0  0  0  0  0
   13.2707   -8.6537  -12.1333 C   0  0  0  0  0  0  0  0  0  0  0  0
   14.0923   -7.7133  -11.9805 O   0  0  0  0  0  0  0  0  0  0  0  0
   11.5800   -6.0739  -12.0796 C   0  0  0  0  0  0  0  0  0  0  0  0
   11.7316   -7.0095  -13.2692 C   0  0  2  0  0  0  0  0  0  0  0  0
   12.0732   -8.3501  -12.8391 N   0  0  0  0  0  0  0  0  0  0  0  0
   12.6865   -6.4827  -14.2626 C   0  0  0  0  0  0  0  0  0  0  0  0
   13.7604   -7.2497  -14.6806 O   0  0  0  0  0  0  0  0  0  0  0  0
   12.5255   -5.3361  -14.7304 O   0  0  0  0  0  0  0  0  0  0  0  0
  2  1  1  6
  3  2  1  0
  4  3  1  0
  5  4  2  0
  6  7  1  0
  6  5  1  0
  7  8  2  0
  8  4  1  0
  9 10  2  0
  9  2  1  0
 12 11  1  1
 12 14  1  0
 12 13  1  0
 15 14  1  1
 15 16  1  0
 16  9  1  0
 17 15  1  0
 18 17  2  0
 20 19  1  1
 20 21  1  0
 21 17  1  0
 22 23  1  0
 22 20  1  0
 24 22  2  0
M  END
$$$$
