HLA.pdb
     RDKit          3D

 24 24  0  0  1  0  0  0  0  0999 V2000
   26.9398  -20.0808  -17.3053 N   0  0  0  0  0  0  0  0  0  0  0  0
   26.0390  -19.1519  -16.6683 C   0  0  1  0  0  0  0  0  0  0  0  0
   25.4365  -18.2793  -17.7155 C   0  0  0  0  0  0  0  0  0  0  0  0
   26.5066  -17.4228  -18.2898 C   0  0  0  0  0  0  0  0  0  0  0  0
   27.2208  -16.3970  -17.7065 C   0  0  0  0  0  0  0  0  0  0  0  0
   28.0977  -15.8814  -18.5737 N   0  0  0  0  0  0  0  0  0  0  0  0
   27.9547  -16.5694  -19.7173 C   0  0  0  0  0  0  0  0  0  0  0  0
   26.9979  -17.5004  -19.5553 N   0  0  0  0  0  0  0  0  0  0  0  0
   25.0492  -19.8399  -15.8206 C   0  0  0  0  0  0  0  0  0  0  0  0
   24.3429  -20.7229  -16.3255 O   0  0  0  0  0  0  0  0  0  0  0  0
   25.4219  -20.8493  -10.1452 C   0  0  0  0  0  0  0  0  0  0  0  0
   25.4171  -21.0085  -11.6790 C   0  0  1  0  0  0  0  0  0  0  0  0
   25.5438  -22.4566  -11.9792 C   0  0  0  0  0  0  0  0  0  0  0  0
   24.1891  -20.3168  -12.1554 C   0  0  0  0  0  0  0  0  0  0  0  0
   23.9386  -20.2177  -13.5923 C   0  0  2  0  0  0  0  0  0  0  0  0
   24.8411  -19.5634  -14.4506 N   0  0  0  0  0  0  0  0  0  0  0  0
   22.5386  -19.6925  -13.7920 C   0  0  0  0  0  0  0  0  0  0  0  0
   22.2019  -18.5451  -13.4011 O   0  0  0  0  0  0  0  0  0  0  0  0
   19.5705  -20.5240  -15.8948 C   0  0  0  0  0  0  0  0  0  0  0  0
   20.1683  -20.0178  -14.5910 C   0  0  2  0  0  0  0  0  0  0  0  0
   21.5349  -20.4719  -14.4319 N   0  0  0  0  0  0  0  0  0  0  0  0
   19.3268  -20.3663  -13.4305 C   0  0  0  0  0  0  0  0  0  0  0  0
   18.2216  -19.5977  -13.1079 O   0  0  0  0  0  0  0  0  0  0  0  0
   19.6130  -21.3621  -12.7335 O   0  0  0  0  0  0  0  0  0  0  0  0
  2  1  1  6
  3  2  1  0
  4  3  1  0
  5  4  2  0
  6  7  1  0
  6  5  1  0
  7  8  2  0
  8  4  1  0
  9 10  2  0
  9  2  1  0
 12 11  1  1
 12 14  1  0
 12 13  1  0
 15 14  1  1
 15 16  1  0
 16  9  1  0
 17 15  1  0
 18 17  2  0
 20 19  1  6
 20 21  1  0
 21 17  1  0
 22 23  1  0
 22 20  1  0
 24 22  2  0
M  END
$$$$
