HLA.pdb
     RDKit          3D

 24 24  0  0  1  0  0  0  0  0999 V2000
   37.3518  -27.0014    4.1981 N   0  0  0  0  0  0  0  0  0  0  0  0
   36.2178  -26.9549    5.0880 C   0  0  1  0  0  0  0  0  0  0  0  0
   36.3698  -28.0299    6.1090 C   0  0  0  0  0  0  0  0  0  0  0  0
   36.0773  -29.3372    5.4656 C   0  0  0  0  0  0  0  0  0  0  0  0
   36.9365  -30.2361    4.8688 C   0  0  0  0  0  0  0  0  0  0  0  0
   36.2642  -31.2965    4.4101 N   0  0  0  0  0  0  0  0  0  0  0  0
   34.9720  -31.0884    4.7074 C   0  0  0  0  0  0  0  0  0  0  0  0
   34.8500  -29.9098    5.3437 N   0  0  0  0  0  0  0  0  0  0  0  0
   36.0223  -25.6106    5.6592 C   0  0  0  0  0  0  0  0  0  0  0  0
   37.0135  -24.9776    6.0468 O   0  0  0  0  0  0  0  0  0  0  0  0
   31.8485  -21.8668    4.2902 C   0  0  0  0  0  0  0  0  0  0  0  0
   33.2436  -22.5092    4.4280 C   0  0  1  0  0  0  0  0  0  0  0  0
   34.2362  -21.5423    3.8961 C   0  0  0  0  0  0  0  0  0  0  0  0
   33.3705  -22.9022    5.8573 C   0  0  0  0  0  0  0  0  0  0  0  0
   34.5351  -23.6765    6.2831 C   0  0  2  0  0  0  0  0  0  0  0  0
   34.7669  -24.9777    5.8008 N   0  0  0  0  0  0  0  0  0  0  0  0
   34.5943  -23.6494    7.7902 C   0  0  0  0  0  0  0  0  0  0  0  0
   34.0066  -24.5141    8.4897 O   0  0  0  0  0  0  0  0  0  0  0  0
   36.5848  -21.8150   10.4156 C   0  0  0  0  0  0  0  0  0  0  0  0
   35.3459  -22.5551    9.9350 C   0  0  2  0  0  0  0  0  0  0  0  0
   35.3182  -22.6435    8.4892 N   0  0  0  0  0  0  0  0  0  0  0  0
   34.1089  -21.9652   10.4810 C   0  0  0  0  0  0  0  0  0  0  0  0
   33.8350  -22.0364   11.8361 O   0  0  0  0  0  0  0  0  0  0  0  0
   33.3022  -21.3971    9.7155 O   0  0  0  0  0  0  0  0  0  0  0  0
  2  1  1  1
  3  2  1  0
  4  3  1  0
  5  4  2  0
  6  7  1  0
  6  5  1  0
  7  8  2  0
  8  4  1  0
  9 10  2  0
  9  2  1  0
 12 11  1  1
 12 14  1  0
 12 13  1  0
 15 14  1  1
 15 16  1  0
 16  9  1  0
 17 15  1  0
 18 17  2  0
 20 19  1  6
 20 21  1  0
 21 17  1  0
 22 23  1  0
 22 20  1  0
 24 22  2  0
M  END
$$$$
