HLA.pdb
     RDKit          3D

 24 24  0  0  1  0  0  0  0  0999 V2000
   11.2925  -20.4711   -0.0789 N   0  0  0  0  0  0  0  0  0  0  0  0
   11.9793  -19.7245    0.9463 C   0  0  1  0  0  0  0  0  0  0  0  0
   10.9828  -18.8909    1.6763 C   0  0  0  0  0  0  0  0  0  0  0  0
   10.4514  -17.8640    0.7426 C   0  0  0  0  0  0  0  0  0  0  0  0
   10.9524  -16.6183    0.4269 C   0  0  0  0  0  0  0  0  0  0  0  0
   10.1660  -16.0067   -0.4643 N   0  0  0  0  0  0  0  0  0  0  0  0
    9.1567  -16.8514   -0.7276 C   0  0  0  0  0  0  0  0  0  0  0  0
    9.3206  -17.9735   -0.0045 N   0  0  0  0  0  0  0  0  0  0  0  0
   12.7814  -20.5998    1.8194 C   0  0  0  0  0  0  0  0  0  0  0  0
   12.5357  -21.8134    1.8349 O   0  0  0  0  0  0  0  0  0  0  0  0
   15.6809  -23.6830    4.2204 C   0  0  0  0  0  0  0  0  0  0  0  0
   16.5927  -22.4594    3.9984 C   0  0  1  0  0  0  0  0  0  0  0  0
   17.9154  -22.9621    3.5505 C   0  0  0  0  0  0  0  0  0  0  0  0
   15.8518  -21.5639    3.0696 C   0  0  0  0  0  0  0  0  0  0  0  0
   14.6073  -20.9425    3.5195 C   0  0  2  0  0  0  0  0  0  0  0  0
   13.8286  -20.1511    2.6553 N   0  0  0  0  0  0  0  0  0  0  0  0
   14.8854  -20.2081    4.8074 C   0  0  0  0  0  0  0  0  0  0  0  0
   15.7513  -19.2978    4.8748 O   0  0  0  0  0  0  0  0  0  0  0  0
   13.1316  -19.3031    7.8601 C   0  0  0  0  0  0  0  0  0  0  0  0
   14.4264  -19.8274    7.2584 C   0  0  2  0  0  0  0  0  0  0  0  0
   14.1805  -20.5119    6.0054 N   0  0  0  0  0  0  0  0  0  0  0  0
   15.1747  -20.6659    8.2139 C   0  0  0  0  0  0  0  0  0  0  0  0
   15.6165  -20.1389    9.4153 O   0  0  0  0  0  0  0  0  0  0  0  0
   15.4118  -21.8604    7.9376 O   0  0  0  0  0  0  0  0  0  0  0  0
  2  1  1  6
  3  2  1  0
  4  3  1  0
  5  4  2  0
  6  7  1  0
  6  5  1  0
  7  8  2  0
  8  4  1  0
  9 10  2  0
  9  2  1  0
 12 11  1  6
 12 14  1  0
 12 13  1  0
 15 14  1  6
 15 16  1  0
 16  9  1  0
 17 15  1  0
 18 17  2  0
 20 19  1  1
 20 21  1  0
 21 17  1  0
 22 23  1  0
 22 20  1  0
 24 22  2  0
M  END
$$$$
