HLA.pdb
     RDKit          3D

 24 24  0  0  1  0  0  0  0  0999 V2000
   18.8135  -23.7209  -13.3340 N   0  0  0  0  0  0  0  0  0  0  0  0
   18.2082  -23.0212  -12.2277 C   0  0  1  0  0  0  0  0  0  0  0  0
   16.7311  -23.2070  -12.2980 C   0  0  0  0  0  0  0  0  0  0  0  0
   16.2059  -22.3936  -13.4255 C   0  0  0  0  0  0  0  0  0  0  0  0
   15.9481  -21.0401  -13.4888 C   0  0  0  0  0  0  0  0  0  0  0  0
   15.4796  -20.7061  -14.6953 N   0  0  0  0  0  0  0  0  0  0  0  0
   15.4326  -21.8383  -15.4147 C   0  0  0  0  0  0  0  0  0  0  0  0
   15.8686  -22.8605  -14.6572 N   0  0  0  0  0  0  0  0  0  0  0  0
   18.8001  -23.4166  -10.9374 C   0  0  0  0  0  0  0  0  0  0  0  0
   19.0753  -24.6090  -10.7481 O   0  0  0  0  0  0  0  0  0  0  0  0
   22.1254  -20.2762   -7.4160 C   0  0  0  0  0  0  0  0  0  0  0  0
   21.6768  -21.4010   -8.3708 C   0  0  1  0  0  0  0  0  0  0  0  0
   22.7909  -22.3769   -8.4678 C   0  0  0  0  0  0  0  0  0  0  0  0
   20.3800  -21.8956   -7.8349 C   0  0  0  0  0  0  0  0  0  0  0  0
   19.6050  -22.8566   -8.6178 C   0  0  2  0  0  0  0  0  0  0  0  0
   19.0827  -22.5221   -9.8807 N   0  0  0  0  0  0  0  0  0  0  0  0
   18.5269  -23.4277   -7.7306 C   0  0  0  0  0  0  0  0  0  0  0  0
   17.4205  -22.8485   -7.5795 O   0  0  0  0  0  0  0  0  0  0  0  0
   17.0368  -26.4064   -6.7050 C   0  0  0  0  0  0  0  0  0  0  0  0
   17.7258  -25.1875   -6.1107 C   0  0  2  0  0  0  0  0  0  0  0  0
   18.7130  -24.6486   -7.0239 N   0  0  0  0  0  0  0  0  0  0  0  0
   18.2950  -25.4741   -4.7803 C   0  0  0  0  0  0  0  0  0  0  0  0
   19.6648  -25.4483   -4.5816 O   0  0  0  0  0  0  0  0  0  0  0  0
   17.5361  -25.7421   -3.8255 O   0  0  0  0  0  0  0  0  0  0  0  0
  2  1  1  6
  3  2  1  0
  4  3  1  0
  5  4  2  0
  6  7  1  0
  6  5  1  0
  7  8  2  0
  8  4  1  0
  9 10  2  0
  9  2  1  0
 12 11  1  1
 12 14  1  0
 12 13  1  0
 15 14  1  1
 15 16  1  0
 16  9  1  0
 17 15  1  0
 18 17  2  0
 20 19  1  6
 20 21  1  0
 21 17  1  0
 22 23  1  0
 22 20  1  0
 24 22  2  0
M  END
$$$$
