HLA.pdb
     RDKit          3D

 24 24  0  0  1  0  0  0  0  0999 V2000
   27.3690  -19.6047  -16.8840 N   0  0  0  0  0  0  0  0  0  0  0  0
   26.1515  -19.0113  -16.3883 C   0  0  1  0  0  0  0  0  0  0  0  0
   25.4036  -18.4287  -17.5382 C   0  0  0  0  0  0  0  0  0  0  0  0
   26.2126  -17.3246  -18.1172 C   0  0  0  0  0  0  0  0  0  0  0  0
   26.3754  -16.0280  -17.6760 C   0  0  0  0  0  0  0  0  0  0  0  0
   27.1929  -15.3529  -18.4899 N   0  0  0  0  0  0  0  0  0  0  0  0
   27.5610  -16.2073  -19.4575 C   0  0  0  0  0  0  0  0  0  0  0  0
   26.9748  -17.3981  -19.2408 N   0  0  0  0  0  0  0  0  0  0  0  0
   25.3649  -19.9623  -15.5831 C   0  0  0  0  0  0  0  0  0  0  0  0
   25.1424  -21.0907  -16.0420 O   0  0  0  0  0  0  0  0  0  0  0  0
   25.5101  -20.5314   -9.9552 C   0  0  0  0  0  0  0  0  0  0  0  0
   25.6409  -20.7809  -11.4714 C   0  0  1  0  0  0  0  0  0  0  0  0
   26.2611  -22.1170  -11.6534 C   0  0  0  0  0  0  0  0  0  0  0  0
   24.2795  -20.5769  -12.0355 C   0  0  0  0  0  0  0  0  0  0  0  0
   24.1042  -20.5605  -13.4868 C   0  0  2  0  0  0  0  0  0  0  0  0
   24.8356  -19.6792  -14.3039 N   0  0  0  0  0  0  0  0  0  0  0  0
   22.6284  -20.4594  -13.7826 C   0  0  0  0  0  0  0  0  0  0  0  0
   22.0075  -19.3701  -13.6796 O   0  0  0  0  0  0  0  0  0  0  0  0
   20.0842  -22.6026  -15.5288 C   0  0  0  0  0  0  0  0  0  0  0  0
   20.4652  -21.5179  -14.5329 C   0  0  2  0  0  0  0  0  0  0  0  0
   21.8713  -21.5924  -14.1919 N   0  0  0  0  0  0  0  0  0  0  0  0
   19.6001  -21.5423  -13.3382 C   0  0  0  0  0  0  0  0  0  0  0  0
   18.3811  -20.8864  -13.3399 O   0  0  0  0  0  0  0  0  0  0  0  0
   19.9697  -22.1592  -12.3173 O   0  0  0  0  0  0  0  0  0  0  0  0
  2  1  1  6
  3  2  1  0
  4  3  1  0
  5  4  2  0
  6  7  1  0
  6  5  1  0
  7  8  2  0
  8  4  1  0
  9 10  2  0
  9  2  1  0
 12 11  1  1
 12 14  1  0
 12 13  1  0
 15 14  1  1
 15 16  1  0
 16  9  1  0
 17 15  1  0
 18 17  2  0
 20 19  1  6
 20 21  1  0
 21 17  1  0
 22 23  1  0
 22 20  1  0
 24 22  2  0
M  END
$$$$
