QSN.pdb
     RDKit          3D

 24 23  0  0  1  0  0  0  0  0999 V2000
    9.3087  -19.8441   14.7354 N   0  0  0  0  0  0  0  0  0  0  0  0
    8.2183  -18.9210   14.5330 C   0  0  0  0  0  0  0  0  0  0  0  0
    7.4570  -19.2117   13.5770 O   0  0  0  0  0  0  0  0  0  0  0  0
    8.0584  -17.7406   15.4151 C   0  0  0  0  0  0  0  0  0  0  0  0
    9.1498  -17.5547   16.4111 C   0  0  0  0  0  0  0  0  0  0  0  0
    8.6901  -17.6271   17.8297 C   0  0  2  0  0  0  0  0  0  0  0  0
    7.2264  -17.6086   17.8176 N   0  0  0  0  0  0  0  0  0  0  0  0
    9.1571  -16.4916   18.6495 C   0  0  0  0  0  0  0  0  0  0  0  0
   10.3147  -16.0411   18.4776 O   0  0  0  0  0  0  0  0  0  0  0  0
    6.8465  -15.8986   22.0750 O   0  0  0  0  0  0  0  0  0  0  0  0
    7.6337  -14.8367   21.6503 C   0  0  0  0  0  0  0  0  0  0  0  0
    8.8712  -15.3499   20.9000 C   0  0  2  0  0  0  0  0  0  0  0  0
    8.3651  -15.8614   19.6420 N   0  0  0  0  0  0  0  0  0  0  0  0
    9.4422  -16.4267   21.7454 C   0  0  0  0  0  0  0  0  0  0  0  0
    9.6743  -17.5809   21.2986 O   0  0  0  0  0  0  0  0  0  0  0  0
   14.3898  -17.2739   23.2531 N   0  0  0  0  0  0  0  0  0  0  0  0
   13.4277  -16.3689   23.7357 C   0  0  0  0  0  0  0  0  0  0  0  0
   13.6641  -15.7869   24.8381 O   0  0  0  0  0  0  0  0  0  0  0  0
   12.1663  -16.0376   23.0692 C   0  0  0  0  0  0  0  0  0  0  0  0
   10.9476  -16.5745   23.7593 C   0  0  2  0  0  0  0  0  0  0  0  0
    9.7322  -16.1477   23.0883 N   0  0  0  0  0  0  0  0  0  0  0  0
   10.8591  -16.1825   25.1823 C   0  0  0  0  0  0  0  0  0  0  0  0
   10.6022  -14.9923   25.5300 O   0  0  0  0  0  0  0  0  0  0  0  0
   11.0543  -17.1037   26.2002 O   0  0  0  0  0  0  0  0  0  0  0  0
  1  2  1  0
  2  3  2  0
  4  2  1  0
  4  5  1  0
  6  5  1  0
  6  7  1  6
  8  6  1  0
  9  8  2  0
 12 11  1  1
 11 10  1  0
 12 13  1  0
 13  8  1  0
 14 21  1  0
 14 12  1  0
 15 14  2  0
 17 16  1  0
 18 17  2  0
 19 17  1  0
 20 19  1  6
 20 21  1  0
 22 20  1  0
 22 24  1  0
 23 22  2  0
M  END
$$$$
