QSN.pdb
     RDKit          3D

 24 23  0  0  1  0  0  0  0  0999 V2000
   12.7989  -18.1459   15.4526 N   0  0  0  0  0  0  0  0  0  0  0  0
   12.2701  -17.1163   16.3142 C   0  0  0  0  0  0  0  0  0  0  0  0
   12.6126  -15.9479   16.0049 O   0  0  0  0  0  0  0  0  0  0  0  0
   11.3959  -17.4684   17.4582 C   0  0  0  0  0  0  0  0  0  0  0  0
   11.3058  -18.9263   17.7479 C   0  0  0  0  0  0  0  0  0  0  0  0
   10.5163  -19.2498   18.9730 C   0  0  2  0  0  0  0  0  0  0  0  0
    9.1398  -18.8114   18.7360 N   0  0  0  0  0  0  0  0  0  0  0  0
   11.0148  -18.5648   20.1821 C   0  0  0  0  0  0  0  0  0  0  0  0
   12.2152  -18.7013   20.5182 O   0  0  0  0  0  0  0  0  0  0  0  0
    9.8748  -15.4362   23.7598 O   0  0  0  0  0  0  0  0  0  0  0  0
    9.4950  -16.2177   22.6769 C   0  0  0  0  0  0  0  0  0  0  0  0
   10.6401  -17.1515   22.2587 C   0  0  2  0  0  0  0  0  0  0  0  0
   10.2075  -17.7432   21.0084 N   0  0  0  0  0  0  0  0  0  0  0  0
   10.7558  -18.1622   23.3382 C   0  0  0  0  0  0  0  0  0  0  0  0
    9.9482  -19.1218   23.4505 O   0  0  0  0  0  0  0  0  0  0  0  0
   15.3292  -18.9489   23.8073 N   0  0  0  0  0  0  0  0  0  0  0  0
   14.2180  -19.6183   24.3505 C   0  0  0  0  0  0  0  0  0  0  0  0
   13.8001  -20.6545   23.7491 O   0  0  0  0  0  0  0  0  0  0  0  0
   13.4964  -19.2189   25.5608 C   0  0  0  0  0  0  0  0  0  0  0  0
   12.0307  -18.9793   25.3509 C   0  0  2  0  0  0  0  0  0  0  0  0
   11.8011  -18.0427   24.2648 N   0  0  0  0  0  0  0  0  0  0  0  0
   11.3403  -18.4754   26.5574 C   0  0  0  0  0  0  0  0  0  0  0  0
   10.8251  -17.3192   26.5954 O   0  0  0  0  0  0  0  0  0  0  0  0
   11.2271  -19.2490   27.7027 O   0  0  0  0  0  0  0  0  0  0  0  0
  1  2  1  0
  2  3  2  0
  4  2  1  0
  4  5  1  0
  6  5  1  0
  6  7  1  6
  8  6  1  0
  9  8  2  0
 12 11  1  1
 11 10  1  0
 12 13  1  0
 13  8  1  0
 14 21  1  0
 14 12  1  0
 15 14  2  0
 17 16  1  0
 18 17  2  0
 19 17  1  0
 20 19  1  1
 20 21  1  0
 22 20  1  0
 22 24  1  0
 23 22  2  0
M  END
$$$$
