QSN.pdb
     RDKit          3D

 24 23  0  0  1  0  0  0  0  0999 V2000
    7.5714  -15.0730   16.7673 N   0  0  0  0  0  0  0  0  0  0  0  0
    8.0784  -13.8889   17.4177 C   0  0  0  0  0  0  0  0  0  0  0  0
    9.2061  -13.5116   17.0129 O   0  0  0  0  0  0  0  0  0  0  0  0
    7.2868  -13.2128   18.4728 C   0  0  0  0  0  0  0  0  0  0  0  0
    8.0062  -13.0159   19.7617 C   0  0  0  0  0  0  0  0  0  0  0  0
    7.9960  -14.2177   20.6474 C   0  0  2  0  0  0  0  0  0  0  0  0
    6.6170  -14.7050   20.7093 N   0  0  0  0  0  0  0  0  0  0  0  0
    8.4429  -13.9274   22.0242 C   0  0  0  0  0  0  0  0  0  0  0  0
    9.6110  -13.5155   22.2201 O   0  0  0  0  0  0  0  0  0  0  0  0
    5.7859  -14.3351   25.2048 O   0  0  0  0  0  0  0  0  0  0  0  0
    6.7452  -13.3320   25.2369 C   0  0  0  0  0  0  0  0  0  0  0  0
    8.0270  -13.7895   24.5258 C   0  0  2  0  0  0  0  0  0  0  0  0
    7.6197  -14.0870   23.1672 N   0  0  0  0  0  0  0  0  0  0  0  0
    8.4803  -15.0045   25.2460 C   0  0  0  0  0  0  0  0  0  0  0  0
    7.8265  -15.5047   26.1989 O   0  0  0  0  0  0  0  0  0  0  0  0
    8.8295  -18.2921   27.4986 N   0  0  0  0  0  0  0  0  0  0  0  0
    8.4080  -18.5545   26.1829 C   0  0  0  0  0  0  0  0  0  0  0  0
    7.4659  -19.3885   26.0192 O   0  0  0  0  0  0  0  0  0  0  0  0
    8.9677  -17.9424   24.9757 C   0  0  0  0  0  0  0  0  0  0  0  0
   10.0690  -16.9590   25.2399 C   0  0  2  0  0  0  0  0  0  0  0  0
    9.6787  -15.6152   24.8507 N   0  0  0  0  0  0  0  0  0  0  0  0
   11.3339  -17.2966   24.5526 C   0  0  0  0  0  0  0  0  0  0  0  0
   11.4661  -17.1664   23.3000 O   0  0  0  0  0  0  0  0  0  0  0  0
   12.4329  -17.7719   25.2520 O   0  0  0  0  0  0  0  0  0  0  0  0
  1  2  1  0
  2  3  2  0
  4  2  1  0
  4  5  1  0
  6  5  1  0
  6  7  1  1
  8  6  1  0
  9  8  2  0
 12 11  1  1
 11 10  1  0
 12 13  1  0
 13  8  1  0
 14 21  1  0
 14 12  1  0
 15 14  2  0
 17 16  1  0
 18 17  2  0
 19 17  1  0
 20 19  1  6
 20 21  1  0
 22 20  1  0
 22 24  1  0
 23 22  2  0
M  END
$$$$
