CQA.pdb
     RDKit          3D

 21 20  0  0  1  0  0  0  0  0999 V2000
   23.9822  -11.1952  -17.3656 N   0  0  0  0  0  0  0  0  0  0  0  0
   22.8716  -10.6846  -16.6168 C   0  0  1  0  0  0  0  0  0  0  0  0
   23.0491  -10.9131  -15.1184 C   0  0  0  0  0  0  0  0  0  0  0  0
   23.0403  -12.6716  -14.7175 S   0  0  0  0  0  0  0  0  0  0  0  0
   22.7610   -9.1927  -16.7957 C   0  0  0  0  0  0  0  0  0  0  0  0
   23.7925   -8.4742  -16.7801 O   0  0  0  0  0  0  0  0  0  0  0  0
   18.7259   -7.7399  -20.2594 N   0  0  0  0  0  0  0  0  0  0  0  0
   20.0365   -7.4579  -20.7018 C   0  0  0  0  0  0  0  0  0  0  0  0
   20.3190   -7.5948  -21.9086 O   0  0  0  0  0  0  0  0  0  0  0  0
   21.0461   -6.9986  -19.6829 C   0  0  0  0  0  0  0  0  0  0  0  0
   20.4290   -6.8927  -18.3281 C   0  0  0  0  0  0  0  0  0  0  0  0
   21.4342   -7.1357  -17.2408 C   0  0  2  0  0  0  0  0  0  0  0  0
   21.5209   -8.5639  -16.9830 N   0  0  0  0  0  0  0  0  0  0  0  0
   21.2131   -6.3657  -16.0219 C   0  0  0  0  0  0  0  0  0  0  0  0
   20.7087   -6.9201  -15.0189 O   0  0  0  0  0  0  0  0  0  0  0  0
   22.2637   -4.9092  -13.5938 C   0  0  0  0  0  0  0  0  0  0  0  0
   21.3430   -4.3161  -14.6400 C   0  0  2  0  0  0  0  0  0  0  0  0
   21.5508   -4.9754  -15.9091 N   0  0  0  0  0  0  0  0  0  0  0  0
   21.5569   -2.8593  -14.7181 C   0  0  0  0  0  0  0  0  0  0  0  0
   21.2267   -1.9992  -13.6879 O   0  0  0  0  0  0  0  0  0  0  0  0
   22.0579   -2.3741  -15.7576 O   0  0  0  0  0  0  0  0  0  0  0  0
  2  1  1  6
  2  5  1  0
  3  2  1  0
  4  3  1  0
  5  6  2  0
  7  8  1  0
  8  9  2  0
  8 10  1  0
 10 11  1  0
 12 11  1  6
 12 14  1  0
 13 12  1  0
 13  5  1  0
 14 15  2  0
 14 18  1  0
 17 16  1  1
 18 17  1  0
 19 17  1  0
 19 20  1  0
 21 19  2  0
M  END
$$$$
