CQA.pdb
     RDKit          3D

 21 20  0  0  1  0  0  0  0  0999 V2000
   24.5985  -11.6393  -18.0325 N   0  0  0  0  0  0  0  0  0  0  0  0
   24.5466  -11.0488  -16.7274 C   0  0  1  0  0  0  0  0  0  0  0  0
   25.8828  -10.4228  -16.3382 C   0  0  0  0  0  0  0  0  0  0  0  0
   27.0713  -11.6790  -15.8258 S   0  0  0  0  0  0  0  0  0  0  0  0
   23.5422   -9.9260  -16.7001 C   0  0  0  0  0  0  0  0  0  0  0  0
   23.4099   -9.1695  -17.6955 O   0  0  0  0  0  0  0  0  0  0  0  0
   17.9724  -10.3305  -14.5818 N   0  0  0  0  0  0  0  0  0  0  0  0
   18.5266  -10.7617  -15.8066 C   0  0  0  0  0  0  0  0  0  0  0  0
   17.9136  -11.6014  -16.4950 O   0  0  0  0  0  0  0  0  0  0  0  0
   19.8496  -10.1801  -16.2307 C   0  0  0  0  0  0  0  0  0  0  0  0
   20.3957   -9.2708  -15.1808 C   0  0  0  0  0  0  0  0  0  0  0  0
   21.7028   -8.6638  -15.5988 C   0  0  2  0  0  0  0  0  0  0  0  0
   22.7323   -9.6900  -15.5791 N   0  0  0  0  0  0  0  0  0  0  0  0
   22.0917   -7.4751  -14.8480 C   0  0  0  0  0  0  0  0  0  0  0  0
   22.9786   -7.5579  -13.9681 O   0  0  0  0  0  0  0  0  0  0  0  0
   23.4620   -4.8243  -14.6711 C   0  0  0  0  0  0  0  0  0  0  0  0
   22.0057   -5.0570  -14.3259 C   0  0  2  0  0  0  0  0  0  0  0  0
   21.4982   -6.1874  -15.0696 N   0  0  0  0  0  0  0  0  0  0  0  0
   21.2355   -3.8246  -14.5749 C   0  0  0  0  0  0  0  0  0  0  0  0
   21.2116   -2.7659  -13.6869 O   0  0  0  0  0  0  0  0  0  0  0  0
   20.5731   -3.7260  -15.6326 O   0  0  0  0  0  0  0  0  0  0  0  0
  2  1  1  6
  2  5  1  0
  3  2  1  0
  4  3  1  0
  5  6  2  0
  7  8  1  0
  8  9  2  0
  8 10  1  0
 10 11  1  0
 12 11  1  1
 12 14  1  0
 13 12  1  0
 13  5  1  0
 14 15  2  0
 14 18  1  0
 17 16  1  6
 18 17  1  0
 19 17  1  0
 19 20  1  0
 21 19  2  0
M  END
$$$$
