CQA.pdb
     RDKit          3D

 21 20  0  0  1  0  0  0  0  0999 V2000
   25.1017  -11.7177  -18.0601 N   0  0  0  0  0  0  0  0  0  0  0  0
   24.9305  -11.1123  -16.7720 C   0  0  1  0  0  0  0  0  0  0  0  0
   26.1940  -10.3873  -16.3173 C   0  0  0  0  0  0  0  0  0  0  0  0
   27.5044  -11.5534  -15.8980 S   0  0  0  0  0  0  0  0  0  0  0  0
   23.8504  -10.0631  -16.8259 C   0  0  0  0  0  0  0  0  0  0  0  0
   23.6097   -9.4557  -17.9000 O   0  0  0  0  0  0  0  0  0  0  0  0
   18.7493  -10.0271  -16.8313 N   0  0  0  0  0  0  0  0  0  0  0  0
   18.5906   -8.7729  -16.2028 C   0  0  0  0  0  0  0  0  0  0  0  0
   17.5907   -8.0766  -16.4675 O   0  0  0  0  0  0  0  0  0  0  0  0
   19.6500   -8.3280  -15.2289 C   0  0  0  0  0  0  0  0  0  0  0  0
   20.7758   -9.3065  -15.1788 C   0  0  0  0  0  0  0  0  0  0  0  0
   22.0329   -8.7352  -15.7662 C   0  0  2  0  0  0  0  0  0  0  0  0
   23.0877   -9.7332  -15.6955 N   0  0  0  0  0  0  0  0  0  0  0  0
   22.4437   -7.4548  -15.2011 C   0  0  0  0  0  0  0  0  0  0  0  0
   22.9036   -7.4074  -14.0374 O   0  0  0  0  0  0  0  0  0  0  0  0
   22.6751   -3.8375  -16.2296 C   0  0  0  0  0  0  0  0  0  0  0  0
   22.7329   -4.9970  -15.2569 C   0  0  2  0  0  0  0  0  0  0  0  0
   22.3463   -6.2191  -15.9245 N   0  0  0  0  0  0  0  0  0  0  0  0
   21.8884   -4.7017  -14.0848 C   0  0  0  0  0  0  0  0  0  0  0  0
   22.3244   -3.9292  -13.0251 O   0  0  0  0  0  0  0  0  0  0  0  0
   20.7269   -5.1667  -14.0408 O   0  0  0  0  0  0  0  0  0  0  0  0
  2  1  1  6
  2  5  1  0
  3  2  1  0
  4  3  1  0
  5  6  2  0
  7  8  1  0
  8  9  2  0
  8 10  1  0
 10 11  1  0
 12 11  1  1
 12 14  1  0
 13 12  1  0
 13  5  1  0
 14 15  2  0
 14 18  1  0
 17 16  1  6
 18 17  1  0
 19 17  1  0
 19 20  1  0
 21 19  2  0
M  END
$$$$
