CQA.pdb
     RDKit          3D

 21 20  0  0  1  0  0  0  0  0999 V2000
   22.9152  -12.3077  -17.4091 N   0  0  0  0  0  0  0  0  0  0  0  0
   23.1625  -11.6095  -16.1818 C   0  0  1  0  0  0  0  0  0  0  0  0
   24.6008  -11.1062  -16.0995 C   0  0  0  0  0  0  0  0  0  0  0  0
   25.7646  -12.4724  -15.9210 S   0  0  0  0  0  0  0  0  0  0  0  0
   22.2913  -10.3835  -16.0922 C   0  0  0  0  0  0  0  0  0  0  0  0
   21.8923   -9.8114  -17.1382 O   0  0  0  0  0  0  0  0  0  0  0  0
   17.7896   -9.6048  -12.1723 N   0  0  0  0  0  0  0  0  0  0  0  0
   17.6913   -8.3860  -12.8780 C   0  0  0  0  0  0  0  0  0  0  0  0
   16.6813   -7.6704  -12.7280 O   0  0  0  0  0  0  0  0  0  0  0  0
   18.8255   -8.0014  -13.7914 C   0  0  0  0  0  0  0  0  0  0  0  0
   19.8669   -9.0697  -13.8305 C   0  0  0  0  0  0  0  0  0  0  0  0
   20.9762   -8.7275  -14.7814 C   0  0  2  0  0  0  0  0  0  0  0  0
   21.9014   -9.8464  -14.8561 N   0  0  0  0  0  0  0  0  0  0  0  0
   21.6538   -7.4667  -14.5006 C   0  0  0  0  0  0  0  0  0  0  0  0
   22.4469   -7.3886  -13.5348 O   0  0  0  0  0  0  0  0  0  0  0  0
   22.0181   -4.0466  -16.0294 C   0  0  0  0  0  0  0  0  0  0  0  0
   22.2058   -5.0968  -14.9542 C   0  0  2  0  0  0  0  0  0  0  0  0
   21.4550   -6.2850  -15.2903 N   0  0  0  0  0  0  0  0  0  0  0  0
   21.8228   -4.5376  -13.6447 C   0  0  0  0  0  0  0  0  0  0  0  0
   20.7149   -4.9719  -12.9418 O   0  0  0  0  0  0  0  0  0  0  0  0
   22.5256   -3.6316  -13.1424 O   0  0  0  0  0  0  0  0  0  0  0  0
  2  1  1  6
  2  5  1  0
  3  2  1  0
  4  3  1  0
  5  6  2  0
  7  8  1  0
  8  9  2  0
  8 10  1  0
 10 11  1  0
 12 11  1  1
 12 14  1  0
 13 12  1  0
 13  5  1  0
 14 15  2  0
 14 18  1  0
 17 16  1  6
 18 17  1  0
 19 17  1  0
 19 20  1  0
 21 19  2  0
M  END
$$$$
