CQA.pdb
     RDKit          3D

 21 20  0  0  1  0  0  0  0  0999 V2000
   20.6619  -11.8917  -19.8747 N   0  0  0  0  0  0  0  0  0  0  0  0
   20.5724  -10.4696  -20.0317 C   0  0  1  0  0  0  0  0  0  0  0  0
   19.6532  -10.0867  -21.1881 C   0  0  0  0  0  0  0  0  0  0  0  0
   20.4271  -10.4265  -22.7814 S   0  0  0  0  0  0  0  0  0  0  0  0
   19.9689   -9.8438  -18.8011 C   0  0  0  0  0  0  0  0  0  0  0  0
   18.9169  -10.3164  -18.3006 O   0  0  0  0  0  0  0  0  0  0  0  0
   22.1037   -9.2406  -13.5426 N   0  0  0  0  0  0  0  0  0  0  0  0
   20.9628   -8.4370  -13.3288 C   0  0  0  0  0  0  0  0  0  0  0  0
   20.6385   -8.1300  -12.1646 O   0  0  0  0  0  0  0  0  0  0  0  0
   20.1797   -7.9818  -14.5322 C   0  0  0  0  0  0  0  0  0  0  0  0
   20.7376   -8.5673  -15.7865 C   0  0  0  0  0  0  0  0  0  0  0  0
   19.9596   -8.1337  -16.9942 C   0  0  2  0  0  0  0  0  0  0  0  0
   20.5520   -8.7285  -18.1811 N   0  0  0  0  0  0  0  0  0  0  0  0
   19.7887   -6.6909  -17.1246 C   0  0  0  0  0  0  0  0  0  0  0  0
   20.7671   -5.9745  -17.4366 O   0  0  0  0  0  0  0  0  0  0  0  0
   17.0060   -4.1913  -17.2977 C   0  0  0  0  0  0  0  0  0  0  0  0
   18.4517   -4.6077  -17.1229 C   0  0  2  0  0  0  0  0  0  0  0  0
   18.5305   -6.0349  -16.9096 N   0  0  0  0  0  0  0  0  0  0  0  0
   19.0585   -3.8373  -16.0218 C   0  0  0  0  0  0  0  0  0  0  0  0
   19.6995   -2.6290  -16.2197 O   0  0  0  0  0  0  0  0  0  0  0  0
   18.9943   -4.2902  -14.8566 O   0  0  0  0  0  0  0  0  0  0  0  0
  2  1  1  1
  2  5  1  0
  3  2  1  0
  4  3  1  0
  5  6  2  0
  7  8  1  0
  8  9  2  0
  8 10  1  0
 10 11  1  0
 12 11  1  1
 12 14  1  0
 13 12  1  0
 13  5  1  0
 14 15  2  0
 14 18  1  0
 17 16  1  1
 18 17  1  0
 19 17  1  0
 19 20  1  0
 21 19  2  0
M  END
$$$$
