CQA.pdb
     RDKit          3D

 21 20  0  0  1  0  0  0  0  0999 V2000
   24.9562  -12.3024  -17.9054 N   0  0  0  0  0  0  0  0  0  0  0  0
   24.8848  -11.5217  -16.7053 C   0  0  1  0  0  0  0  0  0  0  0  0
   26.2507  -10.9664  -16.3119 C   0  0  0  0  0  0  0  0  0  0  0  0
   27.3406  -12.2712  -15.7099 S   0  0  0  0  0  0  0  0  0  0  0  0
   23.9968  -10.3223  -16.9129 C   0  0  0  0  0  0  0  0  0  0  0  0
   24.0603   -9.6639  -17.9820 O   0  0  0  0  0  0  0  0  0  0  0  0
   18.1887  -10.1491  -15.4947 N   0  0  0  0  0  0  0  0  0  0  0  0
   18.3180   -8.8823  -16.1042 C   0  0  0  0  0  0  0  0  0  0  0  0
   17.2930   -8.2463  -16.4198 O   0  0  0  0  0  0  0  0  0  0  0  0
   19.7058   -8.3505  -16.3483 C   0  0  0  0  0  0  0  0  0  0  0  0
   20.7398   -9.3510  -15.9520 C   0  0  0  0  0  0  0  0  0  0  0  0
   22.1288   -8.8410  -16.2015 C   0  0  2  0  0  0  0  0  0  0  0  0
   23.0821   -9.9055  -15.9341 N   0  0  0  0  0  0  0  0  0  0  0  0
   22.4626   -7.6089  -15.4957 C   0  0  0  0  0  0  0  0  0  0  0  0
   22.8821   -7.6615  -14.3171 O   0  0  0  0  0  0  0  0  0  0  0  0
   22.7539   -3.9284  -16.2330 C   0  0  0  0  0  0  0  0  0  0  0  0
   22.7971   -5.1604  -15.3531 C   0  0  2  0  0  0  0  0  0  0  0  0
   22.3328   -6.3110  -16.0942 N   0  0  0  0  0  0  0  0  0  0  0  0
   22.0106   -4.9216  -14.1289 C   0  0  0  0  0  0  0  0  0  0  0  0
   20.7893   -5.5249  -13.8956 O   0  0  0  0  0  0  0  0  0  0  0  0
   22.4616   -4.1410  -13.2603 O   0  0  0  0  0  0  0  0  0  0  0  0
  2  1  1  6
  2  5  1  0
  3  2  1  0
  4  3  1  0
  5  6  2  0
  7  8  1  0
  8  9  2  0
  8 10  1  0
 10 11  1  0
 12 11  1  1
 12 14  1  0
 13 12  1  0
 13  5  1  0
 14 15  2  0
 14 18  1  0
 17 16  1  6
 18 17  1  0
 19 17  1  0
 19 20  1  0
 21 19  2  0
M  END
$$$$
