GNY.pdb
     RDKit          3D

 25 25  0  0  1  0  0  0  0  0999 V2000
   24.4743  -13.1895  -20.4070 N   0  0  0  0  0  0  0  0  0  0  0  0
   25.3378  -13.8875  -19.5012 C   0  0  0  0  0  0  0  0  0  0  0  0
   24.9423  -15.3011  -19.3586 C   0  0  0  0  0  0  0  0  0  0  0  0
   23.7917  -15.6532  -19.7214 O   0  0  0  0  0  0  0  0  0  0  0  0
   28.7521  -18.4118  -19.9172 N   0  0  0  0  0  0  0  0  0  0  0  0
   27.3320  -18.6038  -19.9629 C   0  0  0  0  0  0  0  0  0  0  0  0
   26.8309  -18.7940  -21.0836 O   0  0  0  0  0  0  0  0  0  0  0  0
   26.6265  -18.5526  -18.6704 C   0  0  0  0  0  0  0  0  0  0  0  0
   25.4137  -17.6859  -18.6666 C   0  0  2  0  0  0  0  0  0  0  0  0
   25.8215  -16.2852  -18.8219 N   0  0  0  0  0  0  0  0  0  0  0  0
   24.6446  -17.8216  -17.4298 C   0  0  0  0  0  0  0  0  0  0  0  0
   25.0737  -17.6993  -16.2537 O   0  0  0  0  0  0  0  0  0  0  0  0
   17.7686  -17.2966  -11.9228 O   0  0  0  0  0  0  0  0  0  0  0  0
   18.6354  -17.2633  -13.0179 C   0  0  0  0  0  0  0  0  0  0  0  0
   19.5869  -16.2804  -13.1543 C   0  0  0  0  0  0  0  0  0  0  0  0
   20.4369  -16.2575  -14.2399 C   0  0  0  0  0  0  0  0  0  0  0  0
   20.3702  -17.2305  -15.2495 C   0  0  0  0  0  0  0  0  0  0  0  0
   21.2894  -17.1766  -16.4010 C   0  0  0  0  0  0  0  0  0  0  0  0
   22.3867  -18.2029  -16.3320 C   0  0  2  0  0  0  0  0  0  0  0  0
   23.2385  -18.1293  -17.5102 N   0  0  0  0  0  0  0  0  0  0  0  0
   21.8643  -19.5666  -16.1193 C   0  0  0  0  0  0  0  0  0  0  0  0
   21.8634  -20.0328  -14.9587 O   0  0  0  0  0  0  0  0  0  0  0  0
   19.4134  -18.2192  -15.1115 C   0  0  0  0  0  0  0  0  0  0  0  0
   18.5806  -18.2117  -14.0143 C   0  0  0  0  0  0  0  0  0  0  0  0
   21.3702  -20.3722  -17.1295 O   0  0  0  0  0  0  0  0  0  0  0  0
  1  2  1  0
  2  3  1  0
  3 10  1  0
  4  3  2  0
  6  7  2  0
  6  5  1  0
  8  6  1  0
  9  8  1  1
  9 11  1  0
 10  9  1  0
 11 12  2  0
 11 20  1  0
 13 14  1  0
 14 15  2  0
 15 16  1  0
 17 18  1  0
 17 16  2  0
 19 18  1  6
 19 21  1  0
 20 19  1  0
 21 25  1  0
 22 21  2  0
 23 17  1  0
 24 23  2  0
 24 14  1  0
M  END
$$$$
