GNY.pdb
     RDKit          3D

 25 25  0  0  1  0  0  0  0  0999 V2000
   19.3092  -12.5716  -19.1858 N   0  0  0  0  0  0  0  0  0  0  0  0
   20.7098  -12.8702  -19.2380 C   0  0  0  0  0  0  0  0  0  0  0  0
   21.5231  -11.7289  -18.7789 C   0  0  0  0  0  0  0  0  0  0  0  0
   22.1965  -11.8436  -17.7240 O   0  0  0  0  0  0  0  0  0  0  0  0
   24.9875   -7.3596  -20.1274 N   0  0  0  0  0  0  0  0  0  0  0  0
   23.5992   -7.3477  -19.7692 C   0  0  0  0  0  0  0  0  0  0  0  0
   23.1851   -6.3378  -19.1762 O   0  0  0  0  0  0  0  0  0  0  0  0
   22.8197   -8.5398  -20.1461 C   0  0  0  0  0  0  0  0  0  0  0  0
   22.3265   -9.3418  -18.9904 C   0  0  2  0  0  0  0  0  0  0  0  0
   21.5724  -10.4962  -19.4913 N   0  0  0  0  0  0  0  0  0  0  0  0
   21.4634   -8.5590  -18.1061 C   0  0  0  0  0  0  0  0  0  0  0  0
   20.2557   -8.2621  -18.2947 O   0  0  0  0  0  0  0  0  0  0  0  0
   17.1314  -12.2315  -15.1720 O   0  0  0  0  0  0  0  0  0  0  0  0
   18.0791  -11.2133  -15.0415 C   0  0  0  0  0  0  0  0  0  0  0  0
   17.7095   -9.8924  -14.9486 C   0  0  0  0  0  0  0  0  0  0  0  0
   18.6539   -8.8958  -14.8205 C   0  0  0  0  0  0  0  0  0  0  0  0
   20.0275   -9.1821  -14.7794 C   0  0  0  0  0  0  0  0  0  0  0  0
   21.0139   -8.0944  -14.6469 C   0  0  0  0  0  0  0  0  0  0  0  0
   21.1996   -7.3051  -15.9137 C   0  0  2  0  0  0  0  0  0  0  0  0
   22.0054   -8.0475  -16.8721 N   0  0  0  0  0  0  0  0  0  0  0  0
   21.7529   -5.9611  -15.6590 C   0  0  0  0  0  0  0  0  0  0  0  0
   21.0973   -5.1690  -14.9468 O   0  0  0  0  0  0  0  0  0  0  0  0
   20.3986  -10.5110  -14.8724 C   0  0  0  0  0  0  0  0  0  0  0  0
   19.4288  -11.4809  -14.9995 C   0  0  0  0  0  0  0  0  0  0  0  0
   22.9620   -5.5141  -16.1612 O   0  0  0  0  0  0  0  0  0  0  0  0
  1  2  1  0
  2  3  1  0
  3 10  1  0
  4  3  2  0
  6  7  2  0
  6  5  1  0
  8  6  1  0
  9  8  1  6
  9 11  1  0
 10  9  1  0
 11 12  2  0
 11 20  1  0
 13 14  1  0
 14 15  2  0
 15 16  1  0
 17 18  1  0
 17 16  2  0
 19 18  1  1
 19 21  1  0
 20 19  1  0
 21 25  1  0
 22 21  2  0
 23 17  1  0
 24 23  2  0
 24 14  1  0
M  END
$$$$
