GNY.pdb
     RDKit          3D

 25 25  0  0  1  0  0  0  0  0999 V2000
   21.2109  -19.7750  -17.4123 N   0  0  0  0  0  0  0  0  0  0  0  0
   22.0804  -20.8138  -17.8793 C   0  0  0  0  0  0  0  0  0  0  0  0
   22.9906  -21.2758  -16.8149 C   0  0  0  0  0  0  0  0  0  0  0  0
   22.8059  -22.4082  -16.3019 O   0  0  0  0  0  0  0  0  0  0  0  0
   26.9169  -22.8450  -15.1989 N   0  0  0  0  0  0  0  0  0  0  0  0
   27.3865  -21.5157  -15.4599 C   0  0  0  0  0  0  0  0  0  0  0  0
   28.6147  -21.3713  -15.5770 O   0  0  0  0  0  0  0  0  0  0  0  0
   26.3545  -20.4689  -15.5589 C   0  0  0  0  0  0  0  0  0  0  0  0
   24.9695  -20.9432  -15.2781 C   0  0  2  0  0  0  0  0  0  0  0  0
   24.0757  -20.4809  -16.3456 N   0  0  0  0  0  0  0  0  0  0  0  0
   24.4693  -20.4514  -13.9945 C   0  0  0  0  0  0  0  0  0  0  0  0
   23.9817  -19.3166  -13.7562 O   0  0  0  0  0  0  0  0  0  0  0  0
   29.1290  -21.4891   -7.6344 O   0  0  0  0  0  0  0  0  0  0  0  0
   28.0790  -21.0655   -8.4529 C   0  0  0  0  0  0  0  0  0  0  0  0
   27.0200  -20.3460   -7.9521 C   0  0  0  0  0  0  0  0  0  0  0  0
   25.9889  -19.9335   -8.7696 C   0  0  0  0  0  0  0  0  0  0  0  0
   25.9731  -20.2273  -10.1421 C   0  0  0  0  0  0  0  0  0  0  0  0
   24.8541  -19.7770  -10.9899 C   0  0  0  0  0  0  0  0  0  0  0  0
   24.0306  -20.9109  -11.5359 C   0  0  2  0  0  0  0  0  0  0  0  0
   24.5178  -21.3202  -12.8451 N   0  0  0  0  0  0  0  0  0  0  0  0
   22.5899  -20.5929  -11.5635 C   0  0  0  0  0  0  0  0  0  0  0  0
   21.8422  -21.1296  -10.7166 O   0  0  0  0  0  0  0  0  0  0  0  0
   27.0389  -20.9506  -10.6454 C   0  0  0  0  0  0  0  0  0  0  0  0
   28.0519  -21.3467   -9.8002 C   0  0  0  0  0  0  0  0  0  0  0  0
   22.0050  -19.7311  -12.4740 O   0  0  0  0  0  0  0  0  0  0  0  0
  1  2  1  0
  2  3  1  0
  3 10  1  0
  4  3  2  0
  6  7  2  0
  6  5  1  0
  8  6  1  0
  9  8  1  6
  9 11  1  0
 10  9  1  0
 11 12  2  0
 11 20  1  0
 13 14  1  0
 14 15  2  0
 15 16  1  0
 17 18  1  0
 17 16  2  0
 19 18  1  6
 19 21  1  0
 20 19  1  0
 21 25  1  0
 22 21  2  0
 23 17  1  0
 24 23  2  0
 24 14  1  0
M  END
$$$$
