GNY.pdb
     RDKit          3D

 25 25  0  0  1  0  0  0  0  0999 V2000
   27.1406  -16.3183  -14.8728 N   0  0  0  0  0  0  0  0  0  0  0  0
   27.6305  -17.6639  -14.8206 C   0  0  0  0  0  0  0  0  0  0  0  0
   26.6993  -18.5503  -14.0980 C   0  0  0  0  0  0  0  0  0  0  0  0
   25.5930  -18.0929  -13.7155 O   0  0  0  0  0  0  0  0  0  0  0  0
   23.6646  -22.1434  -14.9406 N   0  0  0  0  0  0  0  0  0  0  0  0
   25.0684  -21.8971  -15.0965 C   0  0  0  0  0  0  0  0  0  0  0  0
   25.4562  -21.5820  -16.2338 O   0  0  0  0  0  0  0  0  0  0  0  0
   25.8937  -22.0471  -13.8853 C   0  0  0  0  0  0  0  0  0  0  0  0
   26.0748  -20.7895  -13.1058 C   0  0  2  0  0  0  0  0  0  0  0  0
   27.0108  -19.9118  -13.8170 N   0  0  0  0  0  0  0  0  0  0  0  0
   26.5925  -21.0451  -11.7618 C   0  0  0  0  0  0  0  0  0  0  0  0
   27.7709  -21.3560  -11.4504 O   0  0  0  0  0  0  0  0  0  0  0  0
   29.2069  -19.8282   -3.6957 O   0  0  0  0  0  0  0  0  0  0  0  0
   28.7229  -19.8497   -5.0061 C   0  0  0  0  0  0  0  0  0  0  0  0
   27.7886  -18.9414   -5.4443 C   0  0  0  0  0  0  0  0  0  0  0  0
   27.3179  -18.9725   -6.7400 C   0  0  0  0  0  0  0  0  0  0  0  0
   27.7679  -19.9271   -7.6656 C   0  0  0  0  0  0  0  0  0  0  0  0
   27.2421  -19.9384   -9.0429 C   0  0  0  0  0  0  0  0  0  0  0  0
   26.1688  -20.9696   -9.2591 C   0  0  2  0  0  0  0  0  0  0  0  0
   25.6974  -20.9445  -10.6361 N   0  0  0  0  0  0  0  0  0  0  0  0
   25.0576  -20.8302   -8.2982 C   0  0  0  0  0  0  0  0  0  0  0  0
   25.1357  -21.4277   -7.2022 O   0  0  0  0  0  0  0  0  0  0  0  0
   28.7081  -20.8402   -7.2244 C   0  0  0  0  0  0  0  0  0  0  0  0
   29.1565  -20.7802   -5.9233 C   0  0  0  0  0  0  0  0  0  0  0  0
   23.9229  -20.0741   -8.5317 O   0  0  0  0  0  0  0  0  0  0  0  0
  1  2  1  0
  2  3  1  0
  3 10  1  0
  4  3  2  0
  6  7  2  0
  6  5  1  0
  8  6  1  0
  9  8  1  6
  9 11  1  0
 10  9  1  0
 11 12  2  0
 11 20  1  0
 13 14  1  0
 14 15  2  0
 15 16  1  0
 17 18  1  0
 17 16  2  0
 19 18  1  6
 19 21  1  0
 20 19  1  0
 21 25  1  0
 22 21  2  0
 23 17  1  0
 24 23  2  0
 24 14  1  0
M  END
$$$$
