GNY.pdb
     RDKit          3D

 25 25  0  0  1  0  0  0  0  0999 V2000
   29.3209  -20.3414  -18.2993 N   0  0  0  0  0  0  0  0  0  0  0  0
   28.3436  -21.2040  -17.7042 C   0  0  0  0  0  0  0  0  0  0  0  0
   27.8893  -20.6870  -16.3999 C   0  0  0  0  0  0  0  0  0  0  0  0
   28.4737  -21.0679  -15.3545 O   0  0  0  0  0  0  0  0  0  0  0  0
   27.2601  -15.9911  -14.4526 N   0  0  0  0  0  0  0  0  0  0  0  0
   26.8121  -16.8161  -15.5363 C   0  0  0  0  0  0  0  0  0  0  0  0
   27.2982  -16.5798  -16.6548 O   0  0  0  0  0  0  0  0  0  0  0  0
   25.8218  -17.8533  -15.1982 C   0  0  0  0  0  0  0  0  0  0  0  0
   26.4014  -19.2104  -14.9876 C   0  0  2  0  0  0  0  0  0  0  0  0
   26.8072  -19.7678  -16.2825 N   0  0  0  0  0  0  0  0  0  0  0  0
   25.4490  -20.1234  -14.3558 C   0  0  0  0  0  0  0  0  0  0  0  0
   24.4141  -20.6160  -14.8740 O   0  0  0  0  0  0  0  0  0  0  0  0
   27.4498  -18.5820   -7.1565 O   0  0  0  0  0  0  0  0  0  0  0  0
   26.9645  -19.4499   -8.1379 C   0  0  0  0  0  0  0  0  0  0  0  0
   27.7708  -19.9187   -9.1479 C   0  0  0  0  0  0  0  0  0  0  0  0
   27.2806  -20.7748  -10.1114 C   0  0  0  0  0  0  0  0  0  0  0  0
   25.9442  -21.2042  -10.1056 C   0  0  0  0  0  0  0  0  0  0  0  0
   25.4477  -22.1160  -11.1525 C   0  0  0  0  0  0  0  0  0  0  0  0
   24.7486  -21.4026  -12.2769 C   0  0  2  0  0  0  0  0  0  0  0  0
   25.6725  -20.5343  -12.9922 N   0  0  0  0  0  0  0  0  0  0  0  0
   23.5540  -20.6688  -11.8166 C   0  0  0  0  0  0  0  0  0  0  0  0
   22.5374  -21.3224  -11.4945 O   0  0  0  0  0  0  0  0  0  0  0  0
   25.1338  -20.7327   -9.0891 C   0  0  0  0  0  0  0  0  0  0  0  0
   25.6564  -19.8787   -8.1431 C   0  0  0  0  0  0  0  0  0  0  0  0
   23.4831  -19.2909  -11.7164 O   0  0  0  0  0  0  0  0  0  0  0  0
  1  2  1  0
  2  3  1  0
  3 10  1  0
  4  3  2  0
  6  7  2  0
  6  5  1  0
  8  6  1  0
  9  8  1  6
  9 11  1  0
 10  9  1  0
 11 12  2  0
 11 20  1  0
 13 14  1  0
 14 15  2  0
 15 16  1  0
 17 18  1  0
 17 16  2  0
 19 18  1  1
 19 21  1  0
 20 19  1  0
 21 25  1  0
 22 21  2  0
 23 17  1  0
 24 23  2  0
 24 14  1  0
M  END
$$$$
