GNY.pdb
     RDKit          3D

 25 25  0  0  1  0  0  0  0  0999 V2000
   28.4320  -18.6328  -14.9073 N   0  0  0  0  0  0  0  0  0  0  0  0
   27.2065  -19.3512  -15.0957 C   0  0  0  0  0  0  0  0  0  0  0  0
   26.3866  -19.3517  -13.8698 C   0  0  0  0  0  0  0  0  0  0  0  0
   26.1782  -18.2651  -13.2737 O   0  0  0  0  0  0  0  0  0  0  0  0
   22.3521  -20.9765  -14.3815 N   0  0  0  0  0  0  0  0  0  0  0  0
   22.6146  -20.7011  -12.9991 C   0  0  0  0  0  0  0  0  0  0  0  0
   21.8488  -19.9024  -12.4347 O   0  0  0  0  0  0  0  0  0  0  0  0
   23.7676  -21.3991  -12.4042 C   0  0  0  0  0  0  0  0  0  0  0  0
   24.9509  -20.5278  -12.1541 C   0  0  2  0  0  0  0  0  0  0  0  0
   25.8206  -20.5448  -13.3353 N   0  0  0  0  0  0  0  0  0  0  0  0
   25.7217  -20.9673  -10.9912 C   0  0  0  0  0  0  0  0  0  0  0  0
   26.3876  -22.0287  -10.8810 O   0  0  0  0  0  0  0  0  0  0  0  0
   29.9043  -20.2423   -3.1535 O   0  0  0  0  0  0  0  0  0  0  0  0
   29.2758  -20.0124   -4.3798 C   0  0  0  0  0  0  0  0  0  0  0  0
   28.1650  -19.2087   -4.4808 C   0  0  0  0  0  0  0  0  0  0  0  0
   27.5526  -18.9893   -5.6967 C   0  0  0  0  0  0  0  0  0  0  0  0
   28.0320  -19.5728   -6.8799 C   0  0  0  0  0  0  0  0  0  0  0  0
   27.3528  -19.3236   -8.1645 C   0  0  0  0  0  0  0  0  0  0  0  0
   26.5174  -20.4852   -8.6283 C   0  0  2  0  0  0  0  0  0  0  0  0
   25.7548  -20.1317   -9.8169 N   0  0  0  0  0  0  0  0  0  0  0  0
   25.6488  -21.0119   -7.5581 C   0  0  0  0  0  0  0  0  0  0  0  0
   24.4346  -20.7120   -7.5707 O   0  0  0  0  0  0  0  0  0  0  0  0
   29.1497  -20.3807   -6.7778 C   0  0  0  0  0  0  0  0  0  0  0  0
   29.7362  -20.5782   -5.5472 C   0  0  0  0  0  0  0  0  0  0  0  0
   26.0931  -21.8245   -6.5305 O   0  0  0  0  0  0  0  0  0  0  0  0
  1  2  1  0
  2  3  1  0
  3 10  1  0
  4  3  2  0
  6  7  2  0
  6  5  1  0
  8  6  1  0
  9  8  1  6
  9 11  1  0
 10  9  1  0
 11 12  2  0
 11 20  1  0
 13 14  1  0
 14 15  2  0
 15 16  1  0
 17 18  1  0
 17 16  2  0
 19 18  1  1
 19 21  1  0
 20 19  1  0
 21 25  1  0
 22 21  2  0
 23 17  1  0
 24 23  2  0
 24 14  1  0
M  END
$$$$
