GNY.pdb
     RDKit          3D

 25 25  0  0  1  0  0  0  0  0999 V2000
   24.6094  -15.3107  -16.6062 N   0  0  0  0  0  0  0  0  0  0  0  0
   23.3978  -15.2353  -17.3676 C   0  0  0  0  0  0  0  0  0  0  0  0
   22.3718  -16.1557  -16.8431 C   0  0  0  0  0  0  0  0  0  0  0  0
   21.4468  -15.6958  -16.1273 O   0  0  0  0  0  0  0  0  0  0  0  0
   20.7655  -19.6046  -20.0693 N   0  0  0  0  0  0  0  0  0  0  0  0
   20.3230  -19.1160  -18.7961 C   0  0  0  0  0  0  0  0  0  0  0  0
   19.3166  -18.3878  -18.7975 O   0  0  0  0  0  0  0  0  0  0  0  0
   21.1162  -19.5345  -17.6271 C   0  0  0  0  0  0  0  0  0  0  0  0
   21.3479  -18.4563  -16.6243 C   0  0  2  0  0  0  0  0  0  0  0  0
   22.3924  -17.5531  -17.1198 N   0  0  0  0  0  0  0  0  0  0  0  0
   21.7600  -18.9912  -15.3267 C   0  0  0  0  0  0  0  0  0  0  0  0
   22.9013  -19.4144  -15.0098 O   0  0  0  0  0  0  0  0  0  0  0  0
   20.6834  -21.9411   -6.9640 O   0  0  0  0  0  0  0  0  0  0  0  0
   20.5230  -21.2884   -8.1887 C   0  0  0  0  0  0  0  0  0  0  0  0
   21.1047  -20.0676   -8.4364 C   0  0  0  0  0  0  0  0  0  0  0  0
   20.9390  -19.4325   -9.6491 C   0  0  0  0  0  0  0  0  0  0  0  0
   20.1736  -19.9994  -10.6802 C   0  0  0  0  0  0  0  0  0  0  0  0
   20.0104  -19.2938  -11.9644 C   0  0  0  0  0  0  0  0  0  0  0  0
   21.1276  -19.5630  -12.9346 C   0  0  2  0  0  0  0  0  0  0  0  0
   20.7922  -19.0647  -14.2607 N   0  0  0  0  0  0  0  0  0  0  0  0
   21.5094  -20.9881  -12.9665 C   0  0  0  0  0  0  0  0  0  0  0  0
   22.4561  -21.3703  -12.2439 O   0  0  0  0  0  0  0  0  0  0  0  0
   19.5892  -21.2276  -10.4307 C   0  0  0  0  0  0  0  0  0  0  0  0
   19.7754  -21.8339   -9.2079 C   0  0  0  0  0  0  0  0  0  0  0  0
   20.8828  -21.9397  -13.7510 O   0  0  0  0  0  0  0  0  0  0  0  0
  1  2  1  0
  2  3  1  0
  3 10  1  0
  4  3  2  0
  6  7  2  0
  6  5  1  0
  8  6  1  0
  9  8  1  6
  9 11  1  0
 10  9  1  0
 11 12  2  0
 11 20  1  0
 13 14  1  0
 14 15  2  0
 15 16  1  0
 17 18  1  0
 17 16  2  0
 19 18  1  1
 19 21  1  0
 20 19  1  0
 21 25  1  0
 22 21  2  0
 23 17  1  0
 24 23  2  0
 24 14  1  0
M  END
$$$$
