GNY.pdb
     RDKit          3D

 25 25  0  0  1  0  0  0  0  0999 V2000
   18.5781  -27.0737   -2.2244 N   0  0  0  0  0  0  0  0  0  0  0  0
   18.0267  -27.2839   -3.5302 C   0  0  0  0  0  0  0  0  0  0  0  0
   17.4933  -26.0324   -4.0994 C   0  0  0  0  0  0  0  0  0  0  0  0
   17.3836  -25.0226   -3.3593 O   0  0  0  0  0  0  0  0  0  0  0  0
   19.0983  -24.2016   -6.6701 N   0  0  0  0  0  0  0  0  0  0  0  0
   18.2205  -24.4045   -7.7855 C   0  0  0  0  0  0  0  0  0  0  0  0
   18.7390  -24.3829   -8.9141 O   0  0  0  0  0  0  0  0  0  0  0  0
   16.7982  -24.6154   -7.4642 C   0  0  0  0  0  0  0  0  0  0  0  0
   16.5040  -24.6991   -6.0053 C   0  0  2  0  0  0  0  0  0  0  0  0
   17.0962  -25.9271   -5.4635 N   0  0  0  0  0  0  0  0  0  0  0  0
   15.0667  -24.7058   -5.7335 C   0  0  0  0  0  0  0  0  0  0  0  0
   14.2805  -25.6820   -5.8388 O   0  0  0  0  0  0  0  0  0  0  0  0
   14.4515  -21.4917    1.0163 O   0  0  0  0  0  0  0  0  0  0  0  0
   14.0238  -22.1484   -0.1403 C   0  0  0  0  0  0  0  0  0  0  0  0
   12.7328  -22.0333   -0.5988 C   0  0  0  0  0  0  0  0  0  0  0  0
   12.3218  -22.6865   -1.7415 C   0  0  0  0  0  0  0  0  0  0  0  0
   13.1970  -23.4940   -2.4848 C   0  0  0  0  0  0  0  0  0  0  0  0
   12.7269  -24.1840   -3.6999 C   0  0  0  0  0  0  0  0  0  0  0  0
   13.0157  -23.4215   -4.9637 C   0  0  2  0  0  0  0  0  0  0  0  0
   14.4315  -23.4880   -5.2957 N   0  0  0  0  0  0  0  0  0  0  0  0
   12.5343  -22.0281   -4.8985 C   0  0  0  0  0  0  0  0  0  0  0  0
   13.3772  -21.1046   -4.8668 O   0  0  0  0  0  0  0  0  0  0  0  0
   14.4955  -23.6090   -2.0234 C   0  0  0  0  0  0  0  0  0  0  0  0
   14.8722  -22.9427   -0.8782 C   0  0  0  0  0  0  0  0  0  0  0  0
   11.1979  -21.6717   -4.8700 O   0  0  0  0  0  0  0  0  0  0  0  0
  1  2  1  0
  2  3  1  0
  3 10  1  0
  4  3  2  0
  6  7  2  0
  6  5  1  0
  8  6  1  0
  9  8  1  6
  9 11  1  0
 10  9  1  0
 11 12  2  0
 11 20  1  0
 13 14  1  0
 14 15  2  0
 15 16  1  0
 17 18  1  0
 17 16  2  0
 19 18  1  1
 19 21  1  0
 20 19  1  0
 21 25  1  0
 22 21  2  0
 23 17  1  0
 24 23  2  0
 24 14  1  0
M  END
$$$$
