NAW.pdb
     RDKit          3D

 28 29  0  0  1  0  0  0  0  0999 V2000
    7.5088  -20.2843   17.0672 N   0  0  0  0  0  0  0  0  0  0  0  0
    8.6444  -19.9730   17.8454 C   0  0  0  0  0  0  0  0  0  0  0  0
    9.4618  -20.8788   18.1170 O   0  0  0  0  0  0  0  0  0  0  0  0
    8.8809  -18.6040   18.3405 C   0  0  0  0  0  0  0  0  0  0  0  0
    8.8377  -18.5205   19.8582 C   0  0  2  0  0  0  0  0  0  0  0  0
    7.5264  -18.8605   20.3650 N   0  0  0  0  0  0  0  0  0  0  0  0
    9.1439  -17.0909   20.1878 C   0  0  0  0  0  0  0  0  0  0  0  0
   10.2612  -16.6253   19.8763 O   0  0  0  0  0  0  0  0  0  0  0  0
    7.1087  -14.1642   21.1645 C   0  0  0  0  0  0  0  0  0  0  0  0
    8.4496  -14.8668   21.1670 C   0  0  2  0  0  0  0  0  0  0  0  0
    8.2171  -16.2495   20.8377 N   0  0  0  0  0  0  0  0  0  0  0  0
    9.1316  -14.7169   22.4836 C   0  0  0  0  0  0  0  0  0  0  0  0
    9.4309  -13.5525   22.8471 O   0  0  0  0  0  0  0  0  0  0  0  0
    9.4455  -15.7965   23.3151 N   0  0  0  0  0  0  0  0  0  0  0  0
   10.1257  -15.7057   24.5783 C   0  0  1  0  0  0  0  0  0  0  0  0
    9.2475  -16.1672   25.7248 C   0  0  0  0  0  0  0  0  0  0  0  0
    7.9384  -15.4654   25.7079 C   0  0  0  0  0  0  0  0  0  0  0  0
    6.7436  -16.0512   25.3110 C   0  0  0  0  0  0  0  0  0  0  0  0
    5.7610  -15.1327   25.4187 N   0  0  0  0  0  0  0  0  0  0  0  0
    6.2560  -13.9665   25.8694 C   0  0  0  0  0  0  0  0  0  0  0  0
    5.7095  -12.7277   26.1558 C   0  0  0  0  0  0  0  0  0  0  0  0
    6.4686  -11.6847   26.6168 C   0  0  0  0  0  0  0  0  0  0  0  0
    7.8153  -11.9107   26.7894 C   0  0  0  0  0  0  0  0  0  0  0  0
    8.3994  -13.1379   26.5133 C   0  0  0  0  0  0  0  0  0  0  0  0
    7.6241  -14.1712   26.0524 C   0  0  0  0  0  0  0  0  0  0  0  0
   11.3960  -16.4613   24.5996 C   0  0  0  0  0  0  0  0  0  0  0  0
   11.7749  -17.1843   23.6623 O   0  0  0  0  0  0  0  0  0  0  0  0
   12.2030  -16.3559   25.7225 O   0  0  0  0  0  0  0  0  0  0  0  0
  2  3  2  0
  2  1  1  0
  4  2  1  0
  5  6  1  6
  5  4  1  0
  5  7  1  0
  7  8  2  0
  7 11  1  0
 10  9  1  1
 11 10  1  0
 12 10  1  0
 12 14  1  0
 13 12  2  0
 15 14  1  0
 15 26  1  0
 15 16  1  1
 17 16  1  0
 17 18  2  0
 19 18  1  0
 20 25  2  0
 20 19  1  0
 21 20  1  0
 22 23  1  0
 22 21  2  0
 23 24  2  0
 24 25  1  0
 25 17  1  0
 26 28  1  0
 27 26  2  0
M  END
$$$$
