NAW.pdb
     RDKit          3D

 28 29  0  0  1  0  0  0  0  0999 V2000
    8.1250  -20.3911   17.9616 N   0  0  0  0  0  0  0  0  0  0  0  0
    7.6521  -19.1631   17.4513 C   0  0  0  0  0  0  0  0  0  0  0  0
    7.2042  -19.1218   16.2851 O   0  0  0  0  0  0  0  0  0  0  0  0
    7.6775  -17.9348   18.2672 C   0  0  0  0  0  0  0  0  0  0  0  0
    8.2019  -18.1829   19.6728 C   0  0  2  0  0  0  0  0  0  0  0  0
    7.1497  -18.6447   20.5512 N   0  0  0  0  0  0  0  0  0  0  0  0
    8.7032  -16.8541   20.1517 C   0  0  0  0  0  0  0  0  0  0  0  0
    9.8595  -16.4967   19.8395 O   0  0  0  0  0  0  0  0  0  0  0  0
    7.1379  -13.9208   21.8335 C   0  0  0  0  0  0  0  0  0  0  0  0
    8.3666  -14.7329   21.4838 C   0  0  2  0  0  0  0  0  0  0  0  0
    7.9181  -15.9903   20.9432 N   0  0  0  0  0  0  0  0  0  0  0  0
    9.2422  -14.9216   22.6749 C   0  0  0  0  0  0  0  0  0  0  0  0
   10.1600  -14.0828   22.8529 O   0  0  0  0  0  0  0  0  0  0  0  0
    9.0876  -15.9718   23.5851 N   0  0  0  0  0  0  0  0  0  0  0  0
   10.0402  -16.3477   24.5941 C   0  0  1  0  0  0  0  0  0  0  0  0
    9.7415  -15.6856   25.9247 C   0  0  0  0  0  0  0  0  0  0  0  0
    8.3377  -15.2026   25.9752 C   0  0  0  0  0  0  0  0  0  0  0  0
    7.2254  -16.0169   25.8083 C   0  0  0  0  0  0  0  0  0  0  0  0
    6.1176  -15.2537   25.9127 N   0  0  0  0  0  0  0  0  0  0  0  0
    6.4510  -13.9711   26.1414 C   0  0  0  0  0  0  0  0  0  0  0  0
    5.7346  -12.8015   26.3260 C   0  0  0  0  0  0  0  0  0  0  0  0
    6.3489  -11.5976   26.5488 C   0  0  0  0  0  0  0  0  0  0  0  0
    7.7248  -11.5867   26.5840 C   0  0  0  0  0  0  0  0  0  0  0  0
    8.4772  -12.7377   26.4033 C   0  0  0  0  0  0  0  0  0  0  0  0
    7.8454  -13.9347   26.1814 C   0  0  0  0  0  0  0  0  0  0  0  0
   10.1254  -17.8113   24.7834 C   0  0  0  0  0  0  0  0  0  0  0  0
    9.2950  -18.6088   24.3151 O   0  0  0  0  0  0  0  0  0  0  0  0
   11.1857  -18.3165   25.5207 O   0  0  0  0  0  0  0  0  0  0  0  0
  2  3  2  0
  2  1  1  0
  4  2  1  0
  5  6  1  1
  5  4  1  0
  5  7  1  0
  7  8  2  0
  7 11  1  0
 10  9  1  1
 11 10  1  0
 12 10  1  0
 12 14  1  0
 13 12  2  0
 15 14  1  0
 15 26  1  0
 15 16  1  1
 17 16  1  0
 17 18  2  0
 19 18  1  0
 20 25  2  0
 20 19  1  0
 21 20  1  0
 22 23  1  0
 22 21  2  0
 23 24  2  0
 24 25  1  0
 25 17  1  0
 26 28  1  0
 27 26  2  0
M  END
$$$$
