NAW.pdb
     RDKit          3D

 28 29  0  0  1  0  0  0  0  0999 V2000
    8.1434  -12.0935   17.5036 N   0  0  0  0  0  0  0  0  0  0  0  0
    8.1191  -13.5039   17.5502 C   0  0  0  0  0  0  0  0  0  0  0  0
    8.6220  -14.1518   16.6069 O   0  0  0  0  0  0  0  0  0  0  0  0
    7.5137  -14.2216   18.6875 C   0  0  0  0  0  0  0  0  0  0  0  0
    8.4582  -14.3296   19.8743 C   0  0  2  0  0  0  0  0  0  0  0  0
    9.7746  -14.7619   19.4593 N   0  0  0  0  0  0  0  0  0  0  0  0
    7.8535  -15.3664   20.7720 C   0  0  0  0  0  0  0  0  0  0  0  0
    6.7576  -15.8760   20.4535 O   0  0  0  0  0  0  0  0  0  0  0  0
    9.2812  -17.9226   21.2701 C   0  0  0  0  0  0  0  0  0  0  0  0
    8.6015  -17.1603   22.3874 C   0  0  2  0  0  0  0  0  0  0  0  0
    8.4755  -15.7892   21.9652 N   0  0  0  0  0  0  0  0  0  0  0  0
    9.3654  -17.2808   23.6614 C   0  0  0  0  0  0  0  0  0  0  0  0
    9.6096  -18.4402   24.0783 O   0  0  0  0  0  0  0  0  0  0  0  0
    9.8134  -16.1793   24.3972 N   0  0  0  0  0  0  0  0  0  0  0  0
   10.4636  -16.2408   25.6779 C   0  0  1  0  0  0  0  0  0  0  0  0
    9.9427  -15.1779   26.6252 C   0  0  0  0  0  0  0  0  0  0  0  0
    8.5023  -14.9083   26.3818 C   0  0  0  0  0  0  0  0  0  0  0  0
    7.5544  -15.8929   26.1362 C   0  0  0  0  0  0  0  0  0  0  0  0
    6.3563  -15.2978   25.9596 N   0  0  0  0  0  0  0  0  0  0  0  0
    6.4729  -13.9634   26.0781 C   0  0  0  0  0  0  0  0  0  0  0  0
    5.5889  -12.9020   25.9940 C   0  0  0  0  0  0  0  0  0  0  0  0
    5.9906  -11.6033   26.1631 C   0  0  0  0  0  0  0  0  0  0  0  0
    7.3239  -11.3826   26.4238 C   0  0  0  0  0  0  0  0  0  0  0  0
    8.2398  -12.4200   26.5155 C   0  0  0  0  0  0  0  0  0  0  0  0
    7.8201  -13.7144   26.3435 C   0  0  0  0  0  0  0  0  0  0  0  0
   10.3434  -17.5682   26.3173 C   0  0  0  0  0  0  0  0  0  0  0  0
   10.8479  -17.8421   27.4197 O   0  0  0  0  0  0  0  0  0  0  0  0
    9.6316  -18.5547   25.6515 O   0  0  0  0  0  0  0  0  0  0  0  0
  2  3  2  0
  2  1  1  0
  4  2  1  0
  5  6  1  6
  5  4  1  0
  5  7  1  0
  7  8  2  0
  7 11  1  0
 10  9  1  6
 11 10  1  0
 12 10  1  0
 12 14  1  0
 13 12  2  0
 15 14  1  0
 15 26  1  0
 15 16  1  1
 17 16  1  0
 17 18  2  0
 19 18  1  0
 20 25  2  0
 20 19  1  0
 21 20  1  0
 22 23  1  0
 22 21  2  0
 23 24  2  0
 24 25  1  0
 25 17  1  0
 26 28  1  0
 27 26  2  0
M  END
$$$$
