NAW.pdb
     RDKit          3D

 28 29  0  0  1  0  0  0  0  0999 V2000
    9.7081  -21.0012   18.5766 N   0  0  0  0  0  0  0  0  0  0  0  0
    9.5887  -19.8736   17.7362 C   0  0  0  0  0  0  0  0  0  0  0  0
    9.7161  -20.0197   16.5013 O   0  0  0  0  0  0  0  0  0  0  0  0
    9.3172  -18.5331   18.2882 C   0  0  0  0  0  0  0  0  0  0  0  0
    9.1495  -18.5513   19.7995 C   0  0  2  0  0  0  0  0  0  0  0  0
    7.8841  -19.1399   20.1796 N   0  0  0  0  0  0  0  0  0  0  0  0
    9.1765  -17.1133   20.2210 C   0  0  0  0  0  0  0  0  0  0  0  0
   10.2215  -16.4513   20.0426 O   0  0  0  0  0  0  0  0  0  0  0  0
    6.6082  -14.7515   21.5752 C   0  0  0  0  0  0  0  0  0  0  0  0
    8.0477  -15.1158   21.2808 C   0  0  2  0  0  0  0  0  0  0  0  0
    8.0652  -16.4778   20.8129 N   0  0  0  0  0  0  0  0  0  0  0  0
    8.9051  -14.9319   22.4858 C   0  0  0  0  0  0  0  0  0  0  0  0
    9.5095  -13.8367   22.6001 O   0  0  0  0  0  0  0  0  0  0  0  0
    9.0616  -15.9075   23.4753 N   0  0  0  0  0  0  0  0  0  0  0  0
    9.9632  -15.8254   24.5920 C   0  0  1  0  0  0  0  0  0  0  0  0
    9.2466  -16.0393   25.9108 C   0  0  0  0  0  0  0  0  0  0  0  0
    8.0056  -15.2259   25.9799 C   0  0  0  0  0  0  0  0  0  0  0  0
    6.7277  -15.7334   25.7863 C   0  0  0  0  0  0  0  0  0  0  0  0
    5.8424  -14.7237   25.9186 N   0  0  0  0  0  0  0  0  0  0  0  0
    6.4811  -13.5721   26.1912 C   0  0  0  0  0  0  0  0  0  0  0  0
    6.0750  -12.2686   26.4173 C   0  0  0  0  0  0  0  0  0  0  0  0
    6.9664  -11.2624   26.6810 C   0  0  0  0  0  0  0  0  0  0  0  0
    8.3020  -11.5936   26.7146 C   0  0  0  0  0  0  0  0  0  0  0  0
    8.7475  -12.8882   26.4931 C   0  0  0  0  0  0  0  0  0  0  0  0
    7.8408  -13.8833   26.2306 C   0  0  0  0  0  0  0  0  0  0  0  0
   11.0910  -16.7752   24.4877 C   0  0  0  0  0  0  0  0  0  0  0  0
   11.1641  -17.6530   23.6108 O   0  0  0  0  0  0  0  0  0  0  0  0
   12.1170  -16.6795   25.4159 O   0  0  0  0  0  0  0  0  0  0  0  0
  2  3  2  0
  2  1  1  0
  4  2  1  0
  5  6  1  6
  5  4  1  0
  5  7  1  0
  7  8  2  0
  7 11  1  0
 10  9  1  1
 11 10  1  0
 12 10  1  0
 12 14  1  0
 13 12  2  0
 15 14  1  0
 15 26  1  0
 15 16  1  1
 17 16  1  0
 17 18  2  0
 19 18  1  0
 20 25  2  0
 20 19  1  0
 21 20  1  0
 22 23  1  0
 22 21  2  0
 23 24  2  0
 24 25  1  0
 25 17  1  0
 26 28  1  0
 27 26  2  0
M  END
$$$$
