NAW.pdb
     RDKit          3D

 28 29  0  0  1  0  0  0  0  0999 V2000
   10.2715  -19.7386   16.4737 N   0  0  0  0  0  0  0  0  0  0  0  0
    9.3203  -19.4858   17.4853 C   0  0  0  0  0  0  0  0  0  0  0  0
    8.5981  -20.4231   17.8883 O   0  0  0  0  0  0  0  0  0  0  0  0
    9.1657  -18.1414   18.0717 C   0  0  0  0  0  0  0  0  0  0  0  0
    9.1095  -18.1742   19.5909 C   0  0  2  0  0  0  0  0  0  0  0  0
    7.8252  -18.6478   20.0581 N   0  0  0  0  0  0  0  0  0  0  0  0
    9.3056  -16.7540   20.0279 C   0  0  0  0  0  0  0  0  0  0  0  0
   10.3366  -16.1475   19.6652 O   0  0  0  0  0  0  0  0  0  0  0  0
    7.1347  -14.0742   21.2310 C   0  0  0  0  0  0  0  0  0  0  0  0
    8.5052  -14.7145   21.2876 C   0  0  2  0  0  0  0  0  0  0  0  0
    8.3692  -16.0749   20.8348 N   0  0  0  0  0  0  0  0  0  0  0  0
    9.0752  -14.6416   22.6627 C   0  0  0  0  0  0  0  0  0  0  0  0
    9.2998  -13.4985   23.1324 O   0  0  0  0  0  0  0  0  0  0  0  0
    9.3641  -15.7697   23.4369 N   0  0  0  0  0  0  0  0  0  0  0  0
   10.0163  -15.7570   24.7180 C   0  0  1  0  0  0  0  0  0  0  0  0
    9.1011  -16.2523   25.8204 C   0  0  0  0  0  0  0  0  0  0  0  0
    7.8179  -15.5041   25.8228 C   0  0  0  0  0  0  0  0  0  0  0  0
    6.6017  -16.0388   25.4189 C   0  0  0  0  0  0  0  0  0  0  0  0
    5.6529  -15.0882   25.5488 N   0  0  0  0  0  0  0  0  0  0  0  0
    6.1906  -13.9497   26.0210 C   0  0  0  0  0  0  0  0  0  0  0  0
    5.6897  -12.6982   26.3344 C   0  0  0  0  0  0  0  0  0  0  0  0
    6.4870  -11.6926   26.8133 C   0  0  0  0  0  0  0  0  0  0  0  0
    7.8254  -11.9698   26.9760 C   0  0  0  0  0  0  0  0  0  0  0  0
    8.3644  -13.2113   26.6730 C   0  0  0  0  0  0  0  0  0  0  0  0
    7.5511  -14.2068   26.1945 C   0  0  0  0  0  0  0  0  0  0  0  0
   11.2681  -16.5431   24.7304 C   0  0  0  0  0  0  0  0  0  0  0  0
   11.5989  -17.3127   23.8122 O   0  0  0  0  0  0  0  0  0  0  0  0
   12.1132  -16.4132   25.8222 O   0  0  0  0  0  0  0  0  0  0  0  0
  2  3  2  0
  2  1  1  0
  4  2  1  0
  5  6  1  6
  5  4  1  0
  5  7  1  0
  7  8  2  0
  7 11  1  0
 10  9  1  1
 11 10  1  0
 12 10  1  0
 12 14  1  0
 13 12  2  0
 15 14  1  0
 15 26  1  0
 15 16  1  1
 17 16  1  0
 17 18  2  0
 19 18  1  0
 20 25  2  0
 20 19  1  0
 21 20  1  0
 22 23  1  0
 22 21  2  0
 23 24  2  0
 24 25  1  0
 25 17  1  0
 26 28  1  0
 27 26  2  0
M  END
$$$$
