NAW.pdb
     RDKit          3D

 28 29  0  0  1  0  0  0  0  0999 V2000
    6.4410  -14.9849   17.8701 N   0  0  0  0  0  0  0  0  0  0  0  0
    7.6683  -14.3080   18.0362 C   0  0  0  0  0  0  0  0  0  0  0  0
    8.6030  -14.5403   17.2395 O   0  0  0  0  0  0  0  0  0  0  0  0
    7.8646  -13.3363   19.1282 C   0  0  0  0  0  0  0  0  0  0  0  0
    9.1898  -13.5324   19.8477 C   0  0  2  0  0  0  0  0  0  0  0  0
   10.2155  -13.9974   18.9402 N   0  0  0  0  0  0  0  0  0  0  0  0
    8.9289  -14.5826   20.8848 C   0  0  0  0  0  0  0  0  0  0  0  0
    7.9774  -14.4233   21.6794 O   0  0  0  0  0  0  0  0  0  0  0  0
   10.3319  -17.9831   21.5478 C   0  0  0  0  0  0  0  0  0  0  0  0
    9.5288  -16.7770   21.9857 C   0  0  2  0  0  0  0  0  0  0  0  0
    9.7184  -15.7458   20.9983 N   0  0  0  0  0  0  0  0  0  0  0  0
    9.9376  -16.3250   23.3457 C   0  0  0  0  0  0  0  0  0  0  0  0
   10.8450  -15.4594   23.4157 O   0  0  0  0  0  0  0  0  0  0  0  0
    9.3643  -16.8138   24.5238 N   0  0  0  0  0  0  0  0  0  0  0  0
    9.7415  -16.4292   25.8567 C   0  0  1  0  0  0  0  0  0  0  0  0
    8.5341  -16.2710   26.7597 C   0  0  0  0  0  0  0  0  0  0  0  0
    7.5497  -15.3271   26.1711 C   0  0  0  0  0  0  0  0  0  0  0  0
    6.4062  -15.7177   25.4869 C   0  0  0  0  0  0  0  0  0  0  0  0
    5.7460  -14.6096   25.0907 N   0  0  0  0  0  0  0  0  0  0  0  0
    6.4045  -13.5050   25.4839 C   0  0  0  0  0  0  0  0  0  0  0  0
    6.1827  -12.1455   25.3509 C   0  0  0  0  0  0  0  0  0  0  0  0
    7.0431  -11.2124   25.8662 C   0  0  0  0  0  0  0  0  0  0  0  0
    8.1546  -11.6768   26.5320 C   0  0  0  0  0  0  0  0  0  0  0  0
    8.4111  -13.0311   26.6857 C   0  0  0  0  0  0  0  0  0  0  0  0
    7.5387  -13.9515   26.1633 C   0  0  0  0  0  0  0  0  0  0  0  0
   10.6960  -17.3729   26.4758 C   0  0  0  0  0  0  0  0  0  0  0  0
   11.2080  -17.1897   27.5935 O   0  0  0  0  0  0  0  0  0  0  0  0
   11.0350  -18.5189   25.7722 O   0  0  0  0  0  0  0  0  0  0  0  0
  2  3  2  0
  2  1  1  0
  4  2  1  0
  5  6  1  6
  5  4  1  0
  5  7  1  0
  7  8  2  0
  7 11  1  0
 10  9  1  6
 11 10  1  0
 12 10  1  0
 12 14  1  0
 13 12  2  0
 15 14  1  0
 15 26  1  0
 15 16  1  1
 17 16  1  0
 17 18  2  0
 19 18  1  0
 20 25  2  0
 20 19  1  0
 21 20  1  0
 22 23  1  0
 22 21  2  0
 23 24  2  0
 24 25  1  0
 25 17  1  0
 26 28  1  0
 27 26  2  0
M  END
$$$$
