NAW.pdb
     RDKit          3D

 28 29  0  0  1  0  0  0  0  0999 V2000
    8.5811  -12.3826   17.2687 N   0  0  0  0  0  0  0  0  0  0  0  0
    7.7701  -13.5377   17.2803 C   0  0  0  0  0  0  0  0  0  0  0  0
    7.1987  -13.8895   16.2257 O   0  0  0  0  0  0  0  0  0  0  0  0
    7.5870  -14.3319   18.5095 C   0  0  0  0  0  0  0  0  0  0  0  0
    8.8447  -15.0911   18.9022 C   0  0  2  0  0  0  0  0  0  0  0  0
    9.1889  -16.0848   17.9092 N   0  0  0  0  0  0  0  0  0  0  0  0
    8.5117  -15.7729   20.1947 C   0  0  0  0  0  0  0  0  0  0  0  0
    7.4014  -15.5528   20.7249 O   0  0  0  0  0  0  0  0  0  0  0  0
    9.5402  -18.7894   21.8898 C   0  0  0  0  0  0  0  0  0  0  0  0
    9.1392  -17.3414   22.0743 C   0  0  2  0  0  0  0  0  0  0  0  0
    9.4057  -16.6548   20.8366 N   0  0  0  0  0  0  0  0  0  0  0  0
    9.8672  -16.7246   23.2191 C   0  0  0  0  0  0  0  0  0  0  0  0
   10.9168  -16.0865   22.9567 O   0  0  0  0  0  0  0  0  0  0  0  0
    9.4391  -16.8237   24.5466 N   0  0  0  0  0  0  0  0  0  0  0  0
   10.2422  -16.5406   25.7049 C   0  0  1  0  0  0  0  0  0  0  0  0
    9.9160  -15.1841   26.2981 C   0  0  0  0  0  0  0  0  0  0  0  0
    8.4626  -14.8945   26.1959 C   0  0  0  0  0  0  0  0  0  0  0  0
    7.4831  -15.8645   26.0297 C   0  0  0  0  0  0  0  0  0  0  0  0
    6.2814  -15.2532   25.9748 N   0  0  0  0  0  0  0  0  0  0  0  0
    6.4259  -13.9219   26.0977 C   0  0  0  0  0  0  0  0  0  0  0  0
    5.5517  -12.8492   26.1106 C   0  0  0  0  0  0  0  0  0  0  0  0
    5.9843  -11.5576   26.2563 C   0  0  0  0  0  0  0  0  0  0  0  0
    7.3391  -11.3560   26.3919 C   0  0  0  0  0  0  0  0  0  0  0  0
    8.2462  -12.4052   26.3837 C   0  0  0  0  0  0  0  0  0  0  0  0
    7.7953  -13.6922   26.2368 C   0  0  0  0  0  0  0  0  0  0  0  0
   10.1194  -17.5758   26.7530 C   0  0  0  0  0  0  0  0  0  0  0  0
   10.8012  -17.5781   27.7922 O   0  0  0  0  0  0  0  0  0  0  0  0
    9.1966  -18.5937   26.5643 O   0  0  0  0  0  0  0  0  0  0  0  0
  2  3  2  0
  2  1  1  0
  4  2  1  0
  5  6  1  6
  5  4  1  0
  5  7  1  0
  7  8  2  0
  7 11  1  0
 10  9  1  6
 11 10  1  0
 12 10  1  0
 12 14  1  0
 13 12  2  0
 15 14  1  0
 15 26  1  0
 15 16  1  1
 17 16  1  0
 17 18  2  0
 19 18  1  0
 20 25  2  0
 20 19  1  0
 21 20  1  0
 22 23  1  0
 22 21  2  0
 23 24  2  0
 24 25  1  0
 25 17  1  0
 26 28  1  0
 27 26  2  0
M  END
$$$$
