NAW.pdb
     RDKit          3D

 28 29  0  0  1  0  0  0  0  0999 V2000
    8.6993  -13.5379   16.2105 N   0  0  0  0  0  0  0  0  0  0  0  0
    7.4555  -13.6045   16.8742 C   0  0  0  0  0  0  0  0  0  0  0  0
    6.4202  -13.2678   16.2600 O   0  0  0  0  0  0  0  0  0  0  0  0
    7.3579  -14.0624   18.2727 C   0  0  0  0  0  0  0  0  0  0  0  0
    8.7196  -14.3523   18.8844 C   0  0  2  0  0  0  0  0  0  0  0  0
    9.5332  -15.1539   17.9971 N   0  0  0  0  0  0  0  0  0  0  0  0
    8.4376  -15.1261   20.1367 C   0  0  0  0  0  0  0  0  0  0  0  0
    7.7627  -14.5874   21.0404 O   0  0  0  0  0  0  0  0  0  0  0  0
    8.9285  -18.6791   21.1570 C   0  0  0  0  0  0  0  0  0  0  0  0
    8.6706  -17.2312   21.5156 C   0  0  2  0  0  0  0  0  0  0  0  0
    8.9063  -16.4416   20.3344 N   0  0  0  0  0  0  0  0  0  0  0  0
    9.5307  -16.7987   22.6531 C   0  0  0  0  0  0  0  0  0  0  0  0
   10.6323  -16.2652   22.3710 O   0  0  0  0  0  0  0  0  0  0  0  0
    9.1699  -16.9578   23.9947 N   0  0  0  0  0  0  0  0  0  0  0  0
    9.9556  -16.5416   25.1245 C   0  0  1  0  0  0  0  0  0  0  0  0
    9.8100  -15.0570   25.3949 C   0  0  0  0  0  0  0  0  0  0  0  0
    8.3847  -14.6903   25.5966 C   0  0  0  0  0  0  0  0  0  0  0  0
    7.3411  -15.6055   25.6348 C   0  0  0  0  0  0  0  0  0  0  0  0
    6.1888  -14.9314   25.8314 N   0  0  0  0  0  0  0  0  0  0  0  0
    6.4272  -13.6113   25.9246 C   0  0  0  0  0  0  0  0  0  0  0  0
    5.6338  -12.4945   26.1207 C   0  0  0  0  0  0  0  0  0  0  0  0
    6.1562  -11.2294   26.1765 C   0  0  0  0  0  0  0  0  0  0  0  0
    7.5186  -11.1009   26.0289 C   0  0  0  0  0  0  0  0  0  0  0  0
    8.3464  -12.1959   25.8307 C   0  0  0  0  0  0  0  0  0  0  0  0
    7.8061  -13.4554   25.7776 C   0  0  0  0  0  0  0  0  0  0  0  0
    9.6348  -17.2971   26.3538 C   0  0  0  0  0  0  0  0  0  0  0  0
    8.6482  -18.0461   26.4558 O   0  0  0  0  0  0  0  0  0  0  0  0
   10.4788  -17.1615   27.4459 O   0  0  0  0  0  0  0  0  0  0  0  0
  2  3  2  0
  2  1  1  0
  4  2  1  0
  5  6  1  6
  5  4  1  0
  5  7  1  0
  7  8  2  0
  7 11  1  0
 10  9  1  6
 11 10  1  0
 12 10  1  0
 12 14  1  0
 13 12  2  0
 15 14  1  0
 15 26  1  0
 15 16  1  1
 17 16  1  0
 17 18  2  0
 19 18  1  0
 20 25  2  0
 20 19  1  0
 21 20  1  0
 22 23  1  0
 22 21  2  0
 23 24  2  0
 24 25  1  0
 25 17  1  0
 26 28  1  0
 27 26  2  0
M  END
$$$$
