LWI.pdb
     RDKit          3D

 31 32  0  0  1  0  0  0  0  0999 V2000
    7.7675  -13.0662   17.3690 C   0  0  0  0  0  0  0  0  0  0  0  0
    8.3610  -14.2977   17.9776 C   0  0  1  0  0  0  0  0  0  0  0  0
    9.3579  -14.8995   17.0155 C   0  0  0  0  0  0  0  0  0  0  0  0
    8.9411  -14.0675   19.3403 C   0  0  0  0  0  0  0  0  0  0  0  0
    9.4564  -15.3220   19.9957 C   0  0  2  0  0  0  0  0  0  0  0  0
    8.6376  -16.4664   19.7481 N   0  0  0  0  0  0  0  0  0  0  0  0
    9.4825  -15.0636   21.4592 C   0  0  0  0  0  0  0  0  0  0  0  0
   10.1442  -14.0811   21.9054 O   0  0  0  0  0  0  0  0  0  0  0  0
    8.7829  -15.8915   22.3772 N   0  0  0  0  0  0  0  0  0  0  0  0
    8.5549  -15.4334   23.7710 C   0  0  1  0  0  0  0  0  0  0  0  0
    7.2340  -16.0093   24.1665 C   0  0  0  0  0  0  0  0  0  0  0  0
    6.3978  -15.1600   25.0306 C   0  0  0  0  0  0  0  0  0  0  0  0
    5.2063  -15.4779   25.6361 C   0  0  0  0  0  0  0  0  0  0  0  0
    4.7581  -14.4189   26.3166 N   0  0  0  0  0  0  0  0  0  0  0  0
    5.6297  -13.3902   26.1795 C   0  0  0  0  0  0  0  0  0  0  0  0
    5.6349  -12.0978   26.6728 C   0  0  0  0  0  0  0  0  0  0  0  0
    6.6619  -11.2464   26.3729 C   0  0  0  0  0  0  0  0  0  0  0  0
    7.6951  -11.6981   25.5684 C   0  0  0  0  0  0  0  0  0  0  0  0
    7.6970  -12.9718   25.0778 C   0  0  0  0  0  0  0  0  0  0  0  0
    6.6610  -13.8578   25.3701 C   0  0  0  0  0  0  0  0  0  0  0  0
    9.6692  -15.9612   24.5855 C   0  0  0  0  0  0  0  0  0  0  0  0
   10.4157  -16.8891   24.1003 O   0  0  0  0  0  0  0  0  0  0  0  0
   10.9056  -13.2298   29.1782 C   0  0  0  0  0  0  0  0  0  0  0  0
   11.0031  -13.9660   27.8876 C   0  0  0  0  0  0  0  0  0  0  0  0
   11.1816  -15.4295   27.9541 C   0  0  2  0  0  0  0  0  0  0  0  0
   12.3334  -15.8980   28.8173 C   0  0  0  0  0  0  0  0  0  0  0  0
   11.0416  -16.2132   26.6752 C   0  0  2  0  0  0  0  0  0  0  0  0
   10.0077  -15.5232   25.8938 N   0  0  0  0  0  0  0  0  0  0  0  0
   10.8059  -17.6428   26.8265 C   0  0  0  0  0  0  0  0  0  0  0  0
   11.7621  -18.4469   26.9957 O   0  0  0  0  0  0  0  0  0  0  0  0
    9.5316  -18.1972   26.7943 O   0  0  0  0  0  0  0  0  0  0  0  0
  2  1  1  6
  2  3  1  0
  4  2  1  0
  5  4  1  0
  5  6  1  1
  7  8  2  0
  7  5  1  0
  9  7  1  0
 10 21  1  0
 10  9  1  0
 10 11  1  1
 12 11  1  0
 13 12  2  0
 14 13  1  0
 15 14  1  0
 15 20  2  0
 16 15  1  0
 17 16  2  0
 17 18  1  0
 18 19  2  0
 19 20  1  0
 20 12  1  0
 21 28  1  0
 22 21  2  0
 23 24  1  0
 24 25  1  0
 25 26  1  6
 25 27  1  0
 27 28  1  1
 27 29  1  0
 29 30  2  0
 29 31  1  0
M  END
$$$$
