LWI.pdb
     RDKit          3D

 31 32  0  0  1  0  0  0  0  0999 V2000
    7.6313  -12.4318   19.9069 C   0  0  0  0  0  0  0  0  0  0  0  0
    7.6729  -13.8558   20.3647 C   0  0  1  0  0  0  0  0  0  0  0  0
    6.5898  -14.6385   19.6605 C   0  0  0  0  0  0  0  0  0  0  0  0
    9.0251  -14.4868   20.2235 C   0  0  0  0  0  0  0  0  0  0  0  0
    9.1092  -15.8700   20.8136 C   0  0  2  0  0  0  0  0  0  0  0  0
    7.8911  -16.6081   20.7002 N   0  0  0  0  0  0  0  0  0  0  0  0
    9.4324  -15.7043   22.2549 C   0  0  0  0  0  0  0  0  0  0  0  0
   10.3500  -14.9028   22.5983 O   0  0  0  0  0  0  0  0  0  0  0  0
    8.7379  -16.4229   23.2642 N   0  0  0  0  0  0  0  0  0  0  0  0
    9.1515  -16.3017   24.6851 C   0  0  1  0  0  0  0  0  0  0  0  0
    7.9076  -16.5307   25.4809 C   0  0  0  0  0  0  0  0  0  0  0  0
    7.0254  -15.3630   25.6408 C   0  0  0  0  0  0  0  0  0  0  0  0
    5.7158  -15.2286   25.2481 C   0  0  0  0  0  0  0  0  0  0  0  0
    5.2837  -14.0025   25.5570 N   0  0  0  0  0  0  0  0  0  0  0  0
    6.2826  -13.3068   26.1528 C   0  0  0  0  0  0  0  0  0  0  0  0
    6.3546  -12.0198   26.6549 C   0  0  0  0  0  0  0  0  0  0  0  0
    7.5129  -11.5597   27.2172 C   0  0  0  0  0  0  0  0  0  0  0  0
    8.6112  -12.4018   27.2759 C   0  0  0  0  0  0  0  0  0  0  0  0
    8.5479  -13.6730   26.7827 C   0  0  0  0  0  0  0  0  0  0  0  0
    7.3780  -14.1641   26.2049 C   0  0  0  0  0  0  0  0  0  0  0  0
   10.1761  -17.3390   24.9254 C   0  0  0  0  0  0  0  0  0  0  0  0
   10.1220  -18.4392   24.2618 O   0  0  0  0  0  0  0  0  0  0  0  0
   16.0489  -18.1809   26.0616 C   0  0  0  0  0  0  0  0  0  0  0  0
   14.6761  -18.7547   26.1194 C   0  0  0  0  0  0  0  0  0  0  0  0
   13.5469  -17.8361   25.8757 C   0  0  2  0  0  0  0  0  0  0  0  0
   13.7381  -16.4291   26.4002 C   0  0  0  0  0  0  0  0  0  0  0  0
   12.1525  -18.3647   26.0897 C   0  0  2  0  0  0  0  0  0  0  0  0
   11.2526  -17.2305   25.8461 N   0  0  0  0  0  0  0  0  0  0  0  0
   11.9148  -19.0398   27.3586 C   0  0  0  0  0  0  0  0  0  0  0  0
   11.1859  -18.5208   28.2467 O   0  0  0  0  0  0  0  0  0  0  0  0
   12.4688  -20.2783   27.6609 O   0  0  0  0  0  0  0  0  0  0  0  0
  2  1  1  6
  2  3  1  0
  4  2  1  0
  5  4  1  0
  5  6  1  1
  7  8  2  0
  7  5  1  0
  9  7  1  0
 10 21  1  0
 10  9  1  0
 10 11  1  1
 12 11  1  0
 13 12  2  0
 14 13  1  0
 15 14  1  0
 15 20  2  0
 16 15  1  0
 17 16  2  0
 17 18  1  0
 18 19  2  0
 19 20  1  0
 20 12  1  0
 21 28  1  0
 22 21  2  0
 23 24  1  0
 24 25  1  0
 25 26  1  1
 25 27  1  0
 27 28  1  1
 27 29  1  0
 29 30  2  0
 29 31  1  0
M  END
$$$$
