LWI.pdb
     RDKit          3D

 31 32  0  0  1  0  0  0  0  0999 V2000
    7.6689  -12.8983   17.6151 C   0  0  0  0  0  0  0  0  0  0  0  0
    8.3031  -14.1244   18.1925 C   0  0  1  0  0  0  0  0  0  0  0  0
    9.4364  -14.5689   17.2982 C   0  0  0  0  0  0  0  0  0  0  0  0
    8.7264  -13.9588   19.6208 C   0  0  0  0  0  0  0  0  0  0  0  0
    9.3298  -15.2027   20.2187 C   0  0  2  0  0  0  0  0  0  0  0  0
    8.5841  -16.3871   19.9312 N   0  0  0  0  0  0  0  0  0  0  0  0
    9.3566  -15.0033   21.6913 C   0  0  0  0  0  0  0  0  0  0  0  0
   10.0080  -14.0320   22.1755 O   0  0  0  0  0  0  0  0  0  0  0  0
    8.6687  -15.8755   22.5765 N   0  0  0  0  0  0  0  0  0  0  0  0
    8.5079  -15.5119   24.0070 C   0  0  1  0  0  0  0  0  0  0  0  0
    7.2274  -16.1508   24.4370 C   0  0  0  0  0  0  0  0  0  0  0  0
    6.2759  -15.2715   25.1361 C   0  0  0  0  0  0  0  0  0  0  0  0
    4.9930  -15.5567   25.5361 C   0  0  0  0  0  0  0  0  0  0  0  0
    4.4593  -14.4781   26.1168 N   0  0  0  0  0  0  0  0  0  0  0  0
    5.3633  -13.4684   26.1149 C   0  0  0  0  0  0  0  0  0  0  0  0
    5.3130  -12.1682   26.5845 C   0  0  0  0  0  0  0  0  0  0  0  0
    6.3938  -11.3414   26.4506 C   0  0  0  0  0  0  0  0  0  0  0  0
    7.5378  -11.8259   25.8382 C   0  0  0  0  0  0  0  0  0  0  0  0
    7.5951  -13.1076   25.3722 C   0  0  0  0  0  0  0  0  0  0  0  0
    6.5060  -13.9689   25.4974 C   0  0  0  0  0  0  0  0  0  0  0  0
    9.6803  -16.0556   24.7239 C   0  0  0  0  0  0  0  0  0  0  0  0
   10.6271  -16.6061   24.0502 O   0  0  0  0  0  0  0  0  0  0  0  0
   10.5705  -13.8174   29.3868 C   0  0  0  0  0  0  0  0  0  0  0  0
   11.0807  -14.4200   28.1244 C   0  0  0  0  0  0  0  0  0  0  0  0
   11.2154  -15.8891   28.0809 C   0  0  2  0  0  0  0  0  0  0  0  0
   12.3296  -16.4579   28.9331 C   0  0  0  0  0  0  0  0  0  0  0  0
   11.0878  -16.5669   26.7415 C   0  0  2  0  0  0  0  0  0  0  0  0
    9.8685  -16.0221   26.1316 N   0  0  0  0  0  0  0  0  0  0  0  0
   11.1356  -18.0228   26.7572 C   0  0  0  0  0  0  0  0  0  0  0  0
   12.2345  -18.6395   26.7197 O   0  0  0  0  0  0  0  0  0  0  0  0
    9.9893  -18.8071   26.8141 O   0  0  0  0  0  0  0  0  0  0  0  0
  2  1  1  6
  2  3  1  0
  4  2  1  0
  5  4  1  0
  5  6  1  1
  7  8  2  0
  7  5  1  0
  9  7  1  0
 10 21  1  0
 10  9  1  0
 10 11  1  1
 12 11  1  0
 13 12  2  0
 14 13  1  0
 15 14  1  0
 15 20  2  0
 16 15  1  0
 17 16  2  0
 17 18  1  0
 18 19  2  0
 19 20  1  0
 20 12  1  0
 21 28  1  0
 22 21  2  0
 23 24  1  0
 24 25  1  0
 25 26  1  6
 25 27  1  0
 27 28  1  1
 27 29  1  0
 29 30  2  0
 29 31  1  0
M  END
$$$$
