LWI.pdb
     RDKit          3D

 31 32  0  0  1  0  0  0  0  0999 V2000
    7.3326  -12.2332   18.8843 C   0  0  0  0  0  0  0  0  0  0  0  0
    7.6241  -13.6647   19.2083 C   0  0  1  0  0  0  0  0  0  0  0  0
    8.3391  -14.3051   18.0419 C   0  0  0  0  0  0  0  0  0  0  0  0
    8.3573  -13.8441   20.5032 C   0  0  0  0  0  0  0  0  0  0  0  0
    8.6311  -15.2850   20.8462 C   0  0  2  0  0  0  0  0  0  0  0  0
    7.4506  -16.0886   20.8954 N   0  0  0  0  0  0  0  0  0  0  0  0
    9.2691  -15.2944   22.1886 C   0  0  0  0  0  0  0  0  0  0  0  0
   10.2489  -14.5262   22.4167 O   0  0  0  0  0  0  0  0  0  0  0  0
    8.8090  -16.1450   23.2290 N   0  0  0  0  0  0  0  0  0  0  0  0
    9.4529  -16.1033   24.5663 C   0  0  1  0  0  0  0  0  0  0  0  0
    8.3484  -16.3364   25.5454 C   0  0  0  0  0  0  0  0  0  0  0  0
    7.3253  -15.2805   25.6204 C   0  0  0  0  0  0  0  0  0  0  0  0
    5.9999  -15.3563   25.2673 C   0  0  0  0  0  0  0  0  0  0  0  0
    5.4191  -14.1696   25.4670 N   0  0  0  0  0  0  0  0  0  0  0  0
    6.3332  -13.2933   25.9500 C   0  0  0  0  0  0  0  0  0  0  0  0
    6.2489  -11.9619   26.3159 C   0  0  0  0  0  0  0  0  0  0  0  0
    7.3510  -11.3011   26.7833 C   0  0  0  0  0  0  0  0  0  0  0  0
    8.5512  -11.9854   26.8842 C   0  0  0  0  0  0  0  0  0  0  0  0
    8.6423  -13.2992   26.5251 C   0  0  0  0  0  0  0  0  0  0  0  0
    7.5323  -13.9936   26.0460 C   0  0  0  0  0  0  0  0  0  0  0  0
   10.4665  -17.1784   24.5899 C   0  0  0  0  0  0  0  0  0  0  0  0
   10.1203  -18.3735   24.2654 O   0  0  0  0  0  0  0  0  0  0  0  0
   15.4278  -16.0676   23.0633 C   0  0  0  0  0  0  0  0  0  0  0  0
   14.1170  -16.6853   23.4054 C   0  0  0  0  0  0  0  0  0  0  0  0
   14.0877  -17.6275   24.5410 C   0  0  2  0  0  0  0  0  0  0  0  0
   15.1712  -18.6845   24.5273 C   0  0  0  0  0  0  0  0  0  0  0  0
   12.7475  -18.1574   24.9799 C   0  0  2  0  0  0  0  0  0  0  0  0
   11.8320  -17.0102   24.9438 N   0  0  0  0  0  0  0  0  0  0  0  0
   12.7314  -18.8809   26.2442 C   0  0  0  0  0  0  0  0  0  0  0  0
   13.0969  -20.0857   26.3107 O   0  0  0  0  0  0  0  0  0  0  0  0
   12.3189  -18.2945   27.4351 O   0  0  0  0  0  0  0  0  0  0  0  0
  2  1  1  6
  2  3  1  0
  4  2  1  0
  5  4  1  0
  5  6  1  1
  7  8  2  0
  7  5  1  0
  9  7  1  0
 10 21  1  0
 10  9  1  0
 10 11  1  1
 12 11  1  0
 13 12  2  0
 14 13  1  0
 15 14  1  0
 15 20  2  0
 16 15  1  0
 17 16  2  0
 17 18  1  0
 18 19  2  0
 19 20  1  0
 20 12  1  0
 21 28  1  0
 22 21  2  0
 23 24  1  0
 24 25  1  0
 25 26  1  6
 25 27  1  0
 27 28  1  1
 27 29  1  0
 29 30  2  0
 29 31  1  0
M  END
$$$$
