TRM.pdb
     RDKit          3D

 27 26  0  0  1  0  0  0  0  0999 V2000
    7.3733  -12.1149   19.1000 C   0  0  0  0  0  0  0  0  0  0  0  0
    8.0495  -13.2514   18.3424 C   0  0  1  0  0  0  0  0  0  0  0  0
    8.6327  -12.6972   17.2187 O   0  0  0  0  0  0  0  0  0  0  0  0
    9.0425  -13.8888   19.2712 C   0  0  2  0  0  0  0  0  0  0  0  0
    9.7579  -14.9058   18.5233 N   0  0  0  0  0  0  0  0  0  0  0  0
    8.4447  -14.5244   20.4432 C   0  0  0  0  0  0  0  0  0  0  0  0
    7.7524  -13.8859   21.2498 O   0  0  0  0  0  0  0  0  0  0  0  0
    8.9921  -21.6817   19.3722 N   0  0  0  0  0  0  0  0  0  0  0  0
    8.1672  -20.9520   18.4885 C   0  0  0  0  0  0  0  0  0  0  0  0
    7.4506  -21.5599   17.6143 N   0  0  0  0  0  0  0  0  0  0  0  0
    8.1093  -19.5364   18.5439 N   0  0  0  0  0  0  0  0  0  0  0  0
    8.5843  -18.8897   19.7266 C   0  0  0  0  0  0  0  0  0  0  0  0
    7.5072  -18.6884   20.7744 C   0  0  0  0  0  0  0  0  0  0  0  0
    8.1986  -18.0333   21.9612 C   0  0  0  0  0  0  0  0  0  0  0  0
    8.1205  -16.5405   21.9252 C   0  0  2  0  0  0  0  0  0  0  0  0
    8.6087  -15.9205   20.7506 N   0  0  0  0  0  0  0  0  0  0  0  0
    8.6782  -15.9909   23.1856 C   0  0  0  0  0  0  0  0  0  0  0  0
    9.9190  -15.8285   23.2486 O   0  0  0  0  0  0  0  0  0  0  0  0
    6.8007  -21.0297   17.0209 C   0  0  0  0  0  0  0  0  0  0  0  0
    6.6769  -11.1750   27.5238 S   0  0  0  0  0  0  0  0  0  0  0  0
    5.8355  -12.1205   26.2306 C   0  0  0  0  0  0  0  0  0  0  0  0
    7.0472  -13.1317   25.3076 C   0  0  0  0  0  0  0  0  0  0  0  0
    7.5972  -14.1910   26.2174 C   0  0  2  0  0  0  0  0  0  0  0  0
    8.5652  -15.0802   25.4721 N   0  0  0  0  0  0  0  0  0  0  0  0
    7.9158  -15.6368   24.3211 C   0  0  0  0  0  0  0  0  0  0  0  0
    9.1436  -16.1219   26.3603 O   0  0  0  0  0  0  0  0  0  0  0  0
    8.7493  -17.3116   26.4084 O   0  0  0  0  0  0  0  0  0  0  0  0
  2  1  1  1
  3  2  1  0
  4  5  1  6
  4  2  1  0
  6  4  1  0
  7  6  2  0
  8  9  1  0
  9 10  2  0
  9 11  1  0
 11 12  1  0
 13 14  1  0
 13 12  1  0
 15 14  1  6
 15 16  1  0
 16  6  1  0
 17 18  2  0
 17 15  1  0
 19 20  1  0
 20 21  1  0
 22 21  1  0
 23 22  1  6
 23 24  1  0
 24 17  1  0
 25 27  1  0
 25 23  1  0
 26 25  2  0
M  END
$$$$
