TRM.pdb
     RDKit          3D

 27 26  0  0  1  0  0  0  0  0999 V2000
    5.4608  -20.7987   25.2573 C   0  0  0  0  0  0  0  0  0  0  0  0
    6.3635  -19.6459   24.8341 C   0  0  1  0  0  0  0  0  0  0  0  0
    7.6123  -19.8919   25.3724 O   0  0  0  0  0  0  0  0  0  0  0  0
    6.3651  -19.5977   23.3332 C   0  0  2  0  0  0  0  0  0  0  0  0
    6.7659  -20.9056   22.8491 N   0  0  0  0  0  0  0  0  0  0  0  0
    7.2762  -18.6059   22.7664 C   0  0  0  0  0  0  0  0  0  0  0  0
    8.4925  -18.8226   22.6603 O   0  0  0  0  0  0  0  0  0  0  0  0
    8.9959  -14.9097   17.4756 N   0  0  0  0  0  0  0  0  0  0  0  0
    8.1942  -13.7514   17.5721 C   0  0  0  0  0  0  0  0  0  0  0  0
    8.4384  -12.7270   16.8384 N   0  0  0  0  0  0  0  0  0  0  0  0
    7.1045  -13.6902   18.4771 N   0  0  0  0  0  0  0  0  0  0  0  0
    7.3423  -13.1550   19.7808 C   0  0  0  0  0  0  0  0  0  0  0  0
    8.0973  -14.1041   20.6906 C   0  0  0  0  0  0  0  0  0  0  0  0
    7.0884  -15.1589   21.1208 C   0  0  0  0  0  0  0  0  0  0  0  0
    7.7159  -16.2860   21.8773 C   0  0  2  0  0  0  0  0  0  0  0  0
    6.8419  -17.3183   22.2932 N   0  0  0  0  0  0  0  0  0  0  0  0
    8.5707  -15.7341   22.9573 C   0  0  0  0  0  0  0  0  0  0  0  0
    8.1424  -14.7371   23.5838 O   0  0  0  0  0  0  0  0  0  0  0  0
    7.8913  -11.8654   16.9568 C   0  0  0  0  0  0  0  0  0  0  0  0
   10.4979  -13.0121   29.1052 S   0  0  0  0  0  0  0  0  0  0  0  0
    9.6291  -14.1499   27.9985 C   0  0  0  0  0  0  0  0  0  0  0  0
   10.6503  -14.4844   26.5194 C   0  0  0  0  0  0  0  0  0  0  0  0
    9.8451  -15.2840   25.5373 C   0  0  2  0  0  0  0  0  0  0  0  0
   10.6412  -15.5341   24.2776 N   0  0  0  0  0  0  0  0  0  0  0  0
    9.8320  -16.2479   23.3331 C   0  0  0  0  0  0  0  0  0  0  0  0
   11.9222  -16.2282   24.5706 O   0  0  0  0  0  0  0  0  0  0  0  0
   12.1799  -17.4106   24.2405 O   0  0  0  0  0  0  0  0  0  0  0  0
  2  1  1  6
  3  2  1  0
  4  5  1  6
  4  2  1  0
  6  4  1  0
  7  6  2  0
  8  9  1  0
  9 10  2  0
  9 11  1  0
 11 12  1  0
 13 14  1  0
 13 12  1  0
 15 14  1  1
 15 16  1  0
 16  6  1  0
 17 18  2  0
 17 15  1  0
 19 20  1  0
 20 21  1  0
 22 21  1  0
 23 22  1  6
 23 24  1  0
 24 17  1  0
 25 27  1  0
 25 23  1  0
 26 25  2  0
M  END
$$$$
