TRM.pdb
     RDKit          3D

 27 26  0  0  1  0  0  0  0  0999 V2000
    9.1042  -12.0961   20.3413 C   0  0  0  0  0  0  0  0  0  0  0  0
    7.9943  -12.6349   19.4465 C   0  0  1  0  0  0  0  0  0  0  0  0
    7.9178  -11.7982   18.3493 O   0  0  0  0  0  0  0  0  0  0  0  0
    8.3465  -14.0500   19.0882 C   0  0  2  0  0  0  0  0  0  0  0  0
    7.3812  -14.5113   18.1079 N   0  0  0  0  0  0  0  0  0  0  0  0
    8.3245  -14.9774   20.2171 C   0  0  0  0  0  0  0  0  0  0  0  0
    7.2659  -15.2979   20.7777 O   0  0  0  0  0  0  0  0  0  0  0  0
    9.9351  -20.4138   18.3360 N   0  0  0  0  0  0  0  0  0  0  0  0
   11.3205  -20.1469   18.2792 C   0  0  0  0  0  0  0  0  0  0  0  0
   11.9589  -20.2495   17.1704 N   0  0  0  0  0  0  0  0  0  0  0  0
   12.0385  -19.7606   19.4391 N   0  0  0  0  0  0  0  0  0  0  0  0
   11.3053  -19.5683   20.6508 C   0  0  0  0  0  0  0  0  0  0  0  0
   10.2766  -18.4583   20.5601 C   0  0  0  0  0  0  0  0  0  0  0  0
   10.4763  -17.6034   21.8031 C   0  0  0  0  0  0  0  0  0  0  0  0
    9.5213  -16.4550   21.8756 C   0  0  2  0  0  0  0  0  0  0  0  0
    9.5109  -15.5837   20.7606 N   0  0  0  0  0  0  0  0  0  0  0  0
    9.6743  -15.7734   23.1847 C   0  0  0  0  0  0  0  0  0  0  0  0
   10.6059  -14.9438   23.3014 O   0  0  0  0  0  0  0  0  0  0  0  0
   12.9696  -20.0678   17.1383 C   0  0  0  0  0  0  0  0  0  0  0  0
    6.8224  -11.7777   27.3881 S   0  0  0  0  0  0  0  0  0  0  0  0
    5.9907  -12.8690   26.2083 C   0  0  0  0  0  0  0  0  0  0  0  0
    6.9309  -14.4266   26.0283 C   0  0  0  0  0  0  0  0  0  0  0  0
    8.3640  -14.1026   25.7223 C   0  0  1  0  0  0  0  0  0  0  0  0
    9.1719  -15.3694   25.5626 N   0  0  0  0  0  0  0  0  0  0  0  0
    8.8487  -15.9894   24.3107 C   0  0  0  0  0  0  0  0  0  0  0  0
    8.9845  -16.2852   26.7179 O   0  0  0  0  0  0  0  0  0  0  0  0
    8.4603  -17.4224   26.6438 O   0  0  0  0  0  0  0  0  0  0  0  0
  2  1  1  1
  3  2  1  0
  4  5  1  6
  4  2  1  0
  6  4  1  0
  7  6  2  0
  8  9  1  0
  9 10  2  0
  9 11  1  0
 11 12  1  0
 13 14  1  0
 13 12  1  0
 15 14  1  6
 15 16  1  0
 16  6  1  0
 17 18  2  0
 17 15  1  0
 19 20  1  0
 20 21  1  0
 22 21  1  0
 23 22  1  6
 23 24  1  0
 24 17  1  0
 25 27  1  0
 25 23  1  0
 26 25  2  0
M  END
$$$$
