TRM.pdb
     RDKit          3D

 27 26  0  0  1  0  0  0  0  0999 V2000
   10.8274  -14.0048   19.5517 C   0  0  0  0  0  0  0  0  0  0  0  0
    9.7071  -13.1435   18.9807 C   0  0  1  0  0  0  0  0  0  0  0  0
   10.1661  -12.6240   17.7852 O   0  0  0  0  0  0  0  0  0  0  0  0
    8.4979  -14.0193   18.8200 C   0  0  2  0  0  0  0  0  0  0  0  0
    7.4549  -13.2236   18.1999 N   0  0  0  0  0  0  0  0  0  0  0  0
    7.9742  -14.5543   20.0748 C   0  0  0  0  0  0  0  0  0  0  0  0
    7.3281  -13.8503   20.8651 O   0  0  0  0  0  0  0  0  0  0  0  0
    7.3719  -22.7197   23.5895 N   0  0  0  0  0  0  0  0  0  0  0  0
    6.5409  -21.9052   24.3894 C   0  0  0  0  0  0  0  0  0  0  0  0
    5.6659  -22.4319   25.1668 N   0  0  0  0  0  0  0  0  0  0  0  0
    6.6510  -20.4921   24.3549 N   0  0  0  0  0  0  0  0  0  0  0  0
    7.1921  -19.8883   23.1780 C   0  0  0  0  0  0  0  0  0  0  0  0
    7.1688  -18.3728   23.2160 C   0  0  0  0  0  0  0  0  0  0  0  0
    7.7255  -17.9145   21.8759 C   0  0  0  0  0  0  0  0  0  0  0  0
    7.7990  -16.4256   21.7582 C   0  0  2  0  0  0  0  0  0  0  0  0
    8.1634  -15.9196   20.4878 N   0  0  0  0  0  0  0  0  0  0  0  0
    8.5977  -15.8845   22.8856 C   0  0  0  0  0  0  0  0  0  0  0  0
    9.3868  -14.9432   22.6383 O   0  0  0  0  0  0  0  0  0  0  0  0
    5.0616  -21.8338   25.7436 C   0  0  0  0  0  0  0  0  0  0  0  0
    6.3790  -10.9545   27.4729 S   0  0  0  0  0  0  0  0  0  0  0  0
    6.2444  -12.2125   26.1792 C   0  0  0  0  0  0  0  0  0  0  0  0
    7.6450  -13.3817   26.2968 C   0  0  0  0  0  0  0  0  0  0  0  0
    7.5239  -14.4045   25.2053 C   0  0  2  0  0  0  0  0  0  0  0  0
    8.6371  -15.4214   25.3051 N   0  0  0  0  0  0  0  0  0  0  0  0
    8.5361  -16.3508   24.2178 C   0  0  0  0  0  0  0  0  0  0  0  0
    8.6450  -16.0930   26.6308 O   0  0  0  0  0  0  0  0  0  0  0  0
    7.9916  -17.1278   26.9056 O   0  0  0  0  0  0  0  0  0  0  0  0
  2  1  1  6
  3  2  1  0
  4  5  1  1
  4  2  1  0
  6  4  1  0
  7  6  2  0
  8  9  1  0
  9 10  2  0
  9 11  1  0
 11 12  1  0
 13 14  1  0
 13 12  1  0
 15 14  1  6
 15 16  1  0
 16  6  1  0
 17 18  2  0
 17 15  1  0
 19 20  1  0
 20 21  1  0
 22 21  1  0
 23 22  1  6
 23 24  1  0
 24 17  1  0
 25 27  1  0
 25 23  1  0
 26 25  2  0
M  END
$$$$
