TRM.pdb
     RDKit          3D

 27 26  0  0  1  0  0  0  0  0999 V2000
    6.1914  -19.2073   25.3933 C   0  0  0  0  0  0  0  0  0  0  0  0
    7.0029  -20.3425   24.7806 C   0  0  1  0  0  0  0  0  0  0  0  0
    6.3793  -21.5232   25.1370 O   0  0  0  0  0  0  0  0  0  0  0  0
    7.0456  -20.1205   23.2961 C   0  0  2  0  0  0  0  0  0  0  0  0
    7.6983  -21.2690   22.6957 N   0  0  0  0  0  0  0  0  0  0  0  0
    7.7749  -18.9211   22.8901 C   0  0  0  0  0  0  0  0  0  0  0  0
    9.0143  -18.8808   22.8875 O   0  0  0  0  0  0  0  0  0  0  0  0
    8.4704  -13.7129   16.7396 N   0  0  0  0  0  0  0  0  0  0  0  0
    8.2750  -13.2151   18.0464 C   0  0  0  0  0  0  0  0  0  0  0  0
    8.9183  -12.1815   18.4529 N   0  0  0  0  0  0  0  0  0  0  0  0
    7.3677  -13.8405   18.9386 N   0  0  0  0  0  0  0  0  0  0  0  0
    7.2900  -13.3438   20.2765 C   0  0  0  0  0  0  0  0  0  0  0  0
    8.0181  -14.2133   21.2827 C   0  0  0  0  0  0  0  0  0  0  0  0
    7.1578  -15.4562   21.4581 C   0  0  0  0  0  0  0  0  0  0  0  0
    7.7552  -16.4447   22.4079 C   0  0  2  0  0  0  0  0  0  0  0  0
    7.1237  -17.7096   22.4675 N   0  0  0  0  0  0  0  0  0  0  0  0
    7.9545  -15.7962   23.7276 C   0  0  0  0  0  0  0  0  0  0  0  0
    6.9434  -15.6225   24.4471 O   0  0  0  0  0  0  0  0  0  0  0  0
    8.9046  -11.9234   19.4473 C   0  0  0  0  0  0  0  0  0  0  0  0
    5.5580  -11.3874   26.5748 S   0  0  0  0  0  0  0  0  0  0  0  0
    7.2027  -12.0472   26.9408 C   0  0  0  0  0  0  0  0  0  0  0  0
    7.7451  -13.1561   25.5923 C   0  0  0  0  0  0  0  0  0  0  0  0
    8.0240  -14.5177   26.1584 C   0  0  2  0  0  0  0  0  0  0  0  0
    9.3339  -15.0541   25.6294 N   0  0  0  0  0  0  0  0  0  0  0  0
    9.1985  -15.3592   24.2347 C   0  0  0  0  0  0  0  0  0  0  0  0
    9.8080  -16.2169   26.4242 O   0  0  0  0  0  0  0  0  0  0  0  0
    9.8574  -17.3952   25.9972 O   0  0  0  0  0  0  0  0  0  0  0  0
  2  1  1  1
  3  2  1  0
  4  5  1  6
  4  2  1  0
  6  4  1  0
  7  6  2  0
  8  9  1  0
  9 10  2  0
  9 11  1  0
 11 12  1  0
 13 14  1  0
 13 12  1  0
 15 14  1  6
 15 16  1  0
 16  6  1  0
 17 18  2  0
 17 15  1  0
 19 20  1  0
 20 21  1  0
 22 21  1  0
 23 22  1  6
 23 24  1  0
 24 17  1  0
 25 27  1  0
 25 23  1  0
 26 25  2  0
M  END
$$$$
