TRM.pdb
     RDKit          3D

 27 26  0  0  1  0  0  0  0  0999 V2000
   10.0339  -12.1869   20.4613 C   0  0  0  0  0  0  0  0  0  0  0  0
    8.7951  -12.2287   19.5745 C   0  0  1  0  0  0  0  0  0  0  0  0
    9.0101  -11.3405   18.5378 O   0  0  0  0  0  0  0  0  0  0  0  0
    8.6155  -13.6460   19.1118 C   0  0  2  0  0  0  0  0  0  0  0  0
    7.4530  -13.6840   18.2442 N   0  0  0  0  0  0  0  0  0  0  0  0
    8.4063  -14.6073   20.1922 C   0  0  0  0  0  0  0  0  0  0  0  0
    7.3111  -14.7191   20.7631 O   0  0  0  0  0  0  0  0  0  0  0  0
    9.1085  -20.4655   17.0569 N   0  0  0  0  0  0  0  0  0  0  0  0
   10.0901  -19.9555   17.9345 C   0  0  0  0  0  0  0  0  0  0  0  0
   10.7830  -18.9253   17.6092 N   0  0  0  0  0  0  0  0  0  0  0  0
   10.3343  -20.5649   19.1913 N   0  0  0  0  0  0  0  0  0  0  0  0
   10.5465  -19.7152   20.3207 C   0  0  0  0  0  0  0  0  0  0  0  0
    9.7062  -18.4537   20.2890 C   0  0  0  0  0  0  0  0  0  0  0  0
   10.0248  -17.7091   21.5774 C   0  0  0  0  0  0  0  0  0  0  0  0
    9.2598  -16.4314   21.7121 C   0  0  2  0  0  0  0  0  0  0  0  0
    9.4380  -15.4875   20.6730 N   0  0  0  0  0  0  0  0  0  0  0  0
    9.4571  -15.8847   23.0774 C   0  0  0  0  0  0  0  0  0  0  0  0
    9.7860  -14.6798   23.1778 O   0  0  0  0  0  0  0  0  0  0  0  0
   11.4928  -18.5563   18.2540 C   0  0  0  0  0  0  0  0  0  0  0  0
    6.7376  -11.6761   26.0150 S   0  0  0  0  0  0  0  0  0  0  0  0
    6.3243  -13.2747   26.7553 C   0  0  0  0  0  0  0  0  0  0  0  0
    7.8119  -14.3356   26.8215 C   0  0  0  0  0  0  0  0  0  0  0  0
    7.9725  -15.0389   25.5056 C   0  0  1  0  0  0  0  0  0  0  0  0
    9.1917  -15.9314   25.5263 N   0  0  0  0  0  0  0  0  0  0  0  0
    9.3026  -16.6203   24.2736 C   0  0  0  0  0  0  0  0  0  0  0  0
    9.1691  -16.8588   26.6874 O   0  0  0  0  0  0  0  0  0  0  0  0
    8.8733  -18.0757   26.6174 O   0  0  0  0  0  0  0  0  0  0  0  0
  2  1  1  1
  3  2  1  0
  4  5  1  6
  4  2  1  0
  6  4  1  0
  7  6  2  0
  8  9  1  0
  9 10  2  0
  9 11  1  0
 11 12  1  0
 13 14  1  0
 13 12  1  0
 15 14  1  6
 15 16  1  0
 16  6  1  0
 17 18  2  0
 17 15  1  0
 19 20  1  0
 20 21  1  0
 22 21  1  0
 23 22  1  6
 23 24  1  0
 24 17  1  0
 25 27  1  0
 25 23  1  0
 26 25  2  0
M  END
$$$$
