TRM.pdb
     RDKit          3D

 27 26  0  0  1  0  0  0  0  0999 V2000
    8.7731  -12.1433   19.9795 C   0  0  0  0  0  0  0  0  0  0  0  0
    7.6939  -12.9413   19.2574 C   0  0  1  0  0  0  0  0  0  0  0  0
    7.3340  -12.2141   18.1387 O   0  0  0  0  0  0  0  0  0  0  0  0
    8.2695  -14.2884   18.9276 C   0  0  2  0  0  0  0  0  0  0  0  0
    7.2771  -15.0174   18.1600 N   0  0  0  0  0  0  0  0  0  0  0  0
    8.6195  -15.0931   20.0960 C   0  0  0  0  0  0  0  0  0  0  0  0
    7.7595  -15.4892   20.8967 O   0  0  0  0  0  0  0  0  0  0  0  0
   14.4410  -14.2484   19.8095 N   0  0  0  0  0  0  0  0  0  0  0  0
   15.0529  -15.3063   19.1022 C   0  0  0  0  0  0  0  0  0  0  0  0
   15.8435  -15.0625   18.1210 N   0  0  0  0  0  0  0  0  0  0  0  0
   14.8111  -16.6579   19.4557 N   0  0  0  0  0  0  0  0  0  0  0  0
   13.9277  -16.9195   20.5483 C   0  0  0  0  0  0  0  0  0  0  0  0
   12.5266  -16.3836   20.3288 C   0  0  0  0  0  0  0  0  0  0  0  0
   11.7607  -16.6850   21.6088 C   0  0  0  0  0  0  0  0  0  0  0  0
   10.3411  -16.2178   21.5578 C   0  0  2  0  0  0  0  0  0  0  0  0
    9.9690  -15.4842   20.4063 N   0  0  0  0  0  0  0  0  0  0  0  0
    9.9964  -15.5592   22.8421 C   0  0  0  0  0  0  0  0  0  0  0  0
   10.6508  -14.5409   23.1657 O   0  0  0  0  0  0  0  0  0  0  0  0
   16.3336  -15.8328   17.6497 C   0  0  0  0  0  0  0  0  0  0  0  0
    6.9904  -11.2487   26.8222 S   0  0  0  0  0  0  0  0  0  0  0  0
    6.2347  -12.8889   26.7085 C   0  0  0  0  0  0  0  0  0  0  0  0
    7.5350  -14.1727   26.6461 C   0  0  0  0  0  0  0  0  0  0  0  0
    7.6406  -14.6970   25.2439 C   0  0  1  0  0  0  0  0  0  0  0  0
    8.9286  -15.4655   25.0604 N   0  0  0  0  0  0  0  0  0  0  0  0
    8.9859  -15.9938   23.7285 C   0  0  0  0  0  0  0  0  0  0  0  0
    9.0892  -16.5167   26.0985 O   0  0  0  0  0  0  0  0  0  0  0  0
    9.1431  -17.7469   25.8597 O   0  0  0  0  0  0  0  0  0  0  0  0
  2  1  1  6
  3  2  1  0
  4  5  1  1
  4  2  1  0
  6  4  1  0
  7  6  2  0
  8  9  1  0
  9 10  2  0
  9 11  1  0
 11 12  1  0
 13 14  1  0
 13 12  1  0
 15 14  1  1
 15 16  1  0
 16  6  1  0
 17 18  2  0
 17 15  1  0
 19 20  1  0
 20 21  1  0
 22 21  1  0
 23 22  1  6
 23 24  1  0
 24 17  1  0
 25 27  1  0
 25 23  1  0
 26 25  2  0
M  END
$$$$
