TRM.pdb
     RDKit          3D

 27 26  0  0  1  0  0  0  0  0999 V2000
    7.3723  -20.6336   21.5304 C   0  0  0  0  0  0  0  0  0  0  0  0
    7.9481  -19.3129   22.0275 C   0  0  1  0  0  0  0  0  0  0  0  0
    9.1092  -19.6115   22.7150 O   0  0  0  0  0  0  0  0  0  0  0  0
    8.1785  -18.4382   20.8289 C   0  0  2  0  0  0  0  0  0  0  0  0
    9.0567  -19.1533   19.9217 N   0  0  0  0  0  0  0  0  0  0  0  0
    8.7963  -17.1502   21.1366 C   0  0  0  0  0  0  0  0  0  0  0  0
   10.0191  -17.0379   21.3094 O   0  0  0  0  0  0  0  0  0  0  0  0
    9.8384  -14.6801   16.4763 N   0  0  0  0  0  0  0  0  0  0  0  0
    8.5317  -14.1770   16.2935 C   0  0  0  0  0  0  0  0  0  0  0  0
    8.1318  -13.8097   15.1305 N   0  0  0  0  0  0  0  0  0  0  0  0
    7.6324  -14.0655   17.3839 N   0  0  0  0  0  0  0  0  0  0  0  0
    8.1737  -13.7808   18.6756 C   0  0  0  0  0  0  0  0  0  0  0  0
    7.1264  -13.7487   19.7714 C   0  0  0  0  0  0  0  0  0  0  0  0
    7.8834  -13.4723   21.0623 C   0  0  0  0  0  0  0  0  0  0  0  0
    8.6191  -14.6710   21.5701 C   0  0  2  0  0  0  0  0  0  0  0  0
    8.0472  -15.9282   21.2620 N   0  0  0  0  0  0  0  0  0  0  0  0
    8.9369  -14.4776   23.0066 C   0  0  0  0  0  0  0  0  0  0  0  0
    9.0988  -13.3031   23.4118 O   0  0  0  0  0  0  0  0  0  0  0  0
    7.2067  -13.3777   15.0157 C   0  0  0  0  0  0  0  0  0  0  0  0
    6.9070  -11.5728   27.1763 S   0  0  0  0  0  0  0  0  0  0  0  0
    6.1792  -13.2082   27.4407 C   0  0  0  0  0  0  0  0  0  0  0  0
    7.4346  -14.5051   27.1493 C   0  0  0  0  0  0  0  0  0  0  0  0
    7.5938  -14.7112   25.6713 C   0  0  1  0  0  0  0  0  0  0  0  0
    8.9784  -15.2260   25.3535 N   0  0  0  0  0  0  0  0  0  0  0  0
    9.0713  -15.5182   23.9527 C   0  0  0  0  0  0  0  0  0  0  0  0
    9.3358  -16.3911   26.2042 O   0  0  0  0  0  0  0  0  0  0  0  0
    9.5136  -17.5556   25.7735 O   0  0  0  0  0  0  0  0  0  0  0  0
  2  1  1  6
  3  2  1  0
  4  5  1  6
  4  2  1  0
  6  4  1  0
  7  6  2  0
  8  9  1  0
  9 10  2  0
  9 11  1  0
 11 12  1  0
 13 14  1  0
 13 12  1  0
 15 14  1  1
 15 16  1  0
 16  6  1  0
 17 18  2  0
 17 15  1  0
 19 20  1  0
 20 21  1  0
 22 21  1  0
 23 22  1  6
 23 24  1  0
 24 17  1  0
 25 27  1  0
 25 23  1  0
 26 25  2  0
M  END
$$$$
