TRM.pdb
     RDKit          3D

 27 26  0  0  1  0  0  0  0  0999 V2000
    9.0209  -12.7565   19.7686 C   0  0  0  0  0  0  0  0  0  0  0  0
    8.1858  -13.5281   18.7538 C   0  0  1  0  0  0  0  0  0  0  0  0
    8.6117  -13.1367   17.4987 O   0  0  0  0  0  0  0  0  0  0  0  0
    8.3893  -14.9924   19.0178 C   0  0  2  0  0  0  0  0  0  0  0  0
    7.7474  -15.7286   17.9447 N   0  0  0  0  0  0  0  0  0  0  0  0
    7.8284  -15.4566   20.2847 C   0  0  0  0  0  0  0  0  0  0  0  0
    6.6133  -15.3916   20.5230 O   0  0  0  0  0  0  0  0  0  0  0  0
    8.7106  -21.3668   24.4459 N   0  0  0  0  0  0  0  0  0  0  0  0
    7.3063  -21.2190   24.4479 C   0  0  0  0  0  0  0  0  0  0  0  0
    6.6136  -21.5893   25.4630 N   0  0  0  0  0  0  0  0  0  0  0  0
    6.6286  -20.6606   23.3347 N   0  0  0  0  0  0  0  0  0  0  0  0
    7.4132  -20.1885   22.2374 C   0  0  0  0  0  0  0  0  0  0  0  0
    7.1872  -18.7223   21.9249 C   0  0  0  0  0  0  0  0  0  0  0  0
    8.1661  -17.9544   22.8012 C   0  0  0  0  0  0  0  0  0  0  0  0
    8.1104  -16.4774   22.5747 C   0  0  2  0  0  0  0  0  0  0  0  0
    8.6286  -16.0176   21.3408 N   0  0  0  0  0  0  0  0  0  0  0  0
    8.6535  -15.7790   23.7660 C   0  0  0  0  0  0  0  0  0  0  0  0
    9.8779  -15.5131   23.7745 O   0  0  0  0  0  0  0  0  0  0  0  0
    5.5878  -21.5414   25.4328 C   0  0  0  0  0  0  0  0  0  0  0  0
    6.4616  -10.4948   27.5010 S   0  0  0  0  0  0  0  0  0  0  0  0
    5.6782  -11.7767   26.4922 C   0  0  0  0  0  0  0  0  0  0  0  0
    6.9565  -12.7852   25.6607 C   0  0  0  0  0  0  0  0  0  0  0  0
    7.5091  -13.7810   26.6381 C   0  0  2  0  0  0  0  0  0  0  0  0
    8.5227  -14.6777   25.9660 N   0  0  0  0  0  0  0  0  0  0  0  0
    7.8942  -15.3911   24.8925 C   0  0  0  0  0  0  0  0  0  0  0  0
    9.1829  -15.5826   26.9428 O   0  0  0  0  0  0  0  0  0  0  0  0
    9.0361  -16.8280   26.9673 O   0  0  0  0  0  0  0  0  0  0  0  0
  2  1  1  1
  3  2  1  0
  4  5  1  6
  4  2  1  0
  6  4  1  0
  7  6  2  0
  8  9  1  0
  9 10  2  0
  9 11  1  0
 11 12  1  0
 13 14  1  0
 13 12  1  0
 15 14  1  1
 15 16  1  0
 16  6  1  0
 17 18  2  0
 17 15  1  0
 19 20  1  0
 20 21  1  0
 22 21  1  0
 23 22  1  6
 23 24  1  0
 24 17  1  0
 25 27  1  0
 25 23  1  0
 26 25  2  0
M  END
$$$$
