KEE.pdb
     RDKit          3D

 28 27  0  0  1  0  0  0  0  0999 V2000
   22.1811  -10.3667  -19.0368 N   0  0  0  0  0  0  0  0  0  0  0  0
   21.1564  -10.9976  -18.2361 C   0  0  1  0  0  0  0  0  0  0  0  0
   21.6185  -12.2919  -17.7403 C   0  0  0  0  0  0  0  0  0  0  0  0
   21.9749  -13.2853  -18.8261 C   0  0  0  0  0  0  0  0  0  0  0  0
   22.2459  -14.6422  -18.2030 C   0  0  0  0  0  0  0  0  0  0  0  0
   22.6951  -15.6284  -19.2556 C   0  0  0  0  0  0  0  0  0  0  0  0
   23.9649  -15.1910  -19.7907 N   0  0  0  0  0  0  0  0  0  0  0  0
   20.6469  -10.0424  -17.2558 C   0  0  0  0  0  0  0  0  0  0  0  0
   19.8180  -10.4460  -16.4023 O   0  0  0  0  0  0  0  0  0  0  0  0
   21.0153   -8.6789  -17.1878 N   0  0  0  0  0  0  0  0  0  0  0  0
   20.4607   -7.7191  -16.2388 C   0  0  1  0  0  0  0  0  0  0  0  0
   21.4729   -6.6521  -16.0508 C   0  0  0  0  0  0  0  0  0  0  0  0
   21.9395   -6.4515  -14.6366 C   0  0  0  0  0  0  0  0  0  0  0  0
   22.9638   -5.3972  -14.5971 C   0  0  0  0  0  0  0  0  0  0  0  0
   24.0187   -5.5254  -15.2644 O   0  0  0  0  0  0  0  0  0  0  0  0
   19.1511   -7.2015  -16.7288 C   0  0  0  0  0  0  0  0  0  0  0  0
   19.0241   -6.9199  -17.9449 O   0  0  0  0  0  0  0  0  0  0  0  0
   22.7702   -4.2656  -13.8317 O   0  0  0  0  0  0  0  0  0  0  0  0
   18.0384   -7.0135  -15.8744 N   0  0  0  0  0  0  0  0  0  0  0  0
   16.8033   -6.4310  -16.2688 C   0  0  1  0  0  0  0  0  0  0  0  0
   15.6086   -7.2268  -15.8850 C   0  0  0  0  0  0  0  0  0  0  0  0
   15.5681   -8.6627  -16.2050 C   0  0  0  0  0  0  0  0  0  0  0  0
   14.4025   -9.4203  -15.7494 C   0  0  0  0  0  0  0  0  0  0  0  0
   14.0452   -9.3958  -14.5495 O   0  0  0  0  0  0  0  0  0  0  0  0
   16.6871   -4.9987  -15.8816 C   0  0  0  0  0  0  0  0  0  0  0  0
   15.6141   -4.2211  -16.2754 O   0  0  0  0  0  0  0  0  0  0  0  0
   13.6383  -10.2008  -16.6172 O   0  0  0  0  0  0  0  0  0  0  0  0
   17.5817   -4.4776  -15.1814 O   0  0  0  0  0  0  0  0  0  0  0  0
  2  1  1  1
  2  3  1  0
  4  3  1  0
  5  4  1  0
  6  5  1  0
  7  6  1  0
  8  9  2  0
  8  2  1  0
 10  8  1  0
 11 10  1  0
 11 12  1  6
 13 14  1  0
 13 12  1  0
 14 15  2  0
 16 17  2  0
 16 11  1  0
 18 14  1  0
 19 16  1  0
 20 21  1  1
 20 19  1  0
 22 23  1  0
 22 21  1  0
 23 27  1  0
 24 23  2  0
 25 20  1  0
 26 25  1  0
 28 25  2  0
M  END
$$$$
