KEE.pdb
     RDKit          3D

 28 27  0  0  1  0  0  0  0  0999 V2000
   19.0313  -23.7650  -13.7214 N   0  0  0  0  0  0  0  0  0  0  0  0
   19.3665  -22.3976  -13.3946 C   0  0  1  0  0  0  0  0  0  0  0  0
   19.2567  -22.1735  -11.9550 C   0  0  0  0  0  0  0  0  0  0  0  0
   18.7958  -23.3825  -11.1685 C   0  0  0  0  0  0  0  0  0  0  0  0
   17.3715  -23.1648  -10.6922 C   0  0  0  0  0  0  0  0  0  0  0  0
   16.8882  -24.3593   -9.9035 C   0  0  0  0  0  0  0  0  0  0  0  0
   15.5212  -24.1248   -9.4957 N   0  0  0  0  0  0  0  0  0  0  0  0
   20.6265  -22.0373  -14.0393 C   0  0  0  0  0  0  0  0  0  0  0  0
   21.5080  -22.9233  -14.1666 O   0  0  0  0  0  0  0  0  0  0  0  0
   20.9408  -20.7525  -14.5394 N   0  0  0  0  0  0  0  0  0  0  0  0
   22.2079  -20.3984  -15.1706 C   0  0  1  0  0  0  0  0  0  0  0  0
   21.9493  -19.2353  -16.0532 C   0  0  0  0  0  0  0  0  0  0  0  0
   23.1587  -18.6727  -16.7451 C   0  0  0  0  0  0  0  0  0  0  0  0
   22.7542  -17.5763  -17.6376 C   0  0  0  0  0  0  0  0  0  0  0  0
   21.7455  -16.8837  -17.3593 O   0  0  0  0  0  0  0  0  0  0  0  0
   23.2458  -20.1260  -14.1354 C   0  0  0  0  0  0  0  0  0  0  0  0
   22.9101  -19.5473  -13.0740 O   0  0  0  0  0  0  0  0  0  0  0  0
   23.4795  -17.3032  -18.7792 O   0  0  0  0  0  0  0  0  0  0  0  0
   24.6021  -20.4955  -14.3008 N   0  0  0  0  0  0  0  0  0  0  0  0
   25.5890  -20.4334  -13.2798 C   0  0  1  0  0  0  0  0  0  0  0  0
   25.1808  -21.0751  -12.0032 C   0  0  0  0  0  0  0  0  0  0  0  0
   26.1422  -21.1382  -10.8907 C   0  0  0  0  0  0  0  0  0  0  0  0
   25.6021  -21.3392   -9.5462 C   0  0  0  0  0  0  0  0  0  0  0  0
   24.3892  -21.5954   -9.3692 O   0  0  0  0  0  0  0  0  0  0  0  0
   26.9315  -20.8792  -13.7423 C   0  0  0  0  0  0  0  0  0  0  0  0
   27.1239  -21.4409  -14.9908 O   0  0  0  0  0  0  0  0  0  0  0  0
   26.4002  -21.2561   -8.4049 O   0  0  0  0  0  0  0  0  0  0  0  0
   27.9171  -20.7457  -12.9853 O   0  0  0  0  0  0  0  0  0  0  0  0
  2  1  1  1
  2  3  1  0
  4  3  1  0
  5  4  1  0
  6  5  1  0
  7  6  1  0
  8  9  2  0
  8  2  1  0
 10  8  1  0
 11 10  1  0
 11 12  1  1
 13 14  1  0
 13 12  1  0
 14 15  2  0
 16 17  2  0
 16 11  1  0
 18 14  1  0
 19 16  1  0
 20 21  1  1
 20 19  1  0
 22 23  1  0
 22 21  1  0
 23 27  1  0
 24 23  2  0
 25 20  1  0
 26 25  1  0
 28 25  2  0
M  END
$$$$
