KEE.pdb
     RDKit          3D

 28 27  0  0  1  0  0  0  0  0999 V2000
   25.4565  -21.4178  -15.5207 N   0  0  0  0  0  0  0  0  0  0  0  0
   25.3071  -20.6482  -14.3064 C   0  0  1  0  0  0  0  0  0  0  0  0
   26.5222  -19.8850  -14.0313 C   0  0  0  0  0  0  0  0  0  0  0  0
   27.7859  -20.4977  -14.5975 C   0  0  0  0  0  0  0  0  0  0  0  0
   27.7763  -20.3732  -16.1098 C   0  0  0  0  0  0  0  0  0  0  0  0
   28.9936  -21.0421  -16.7042 C   0  0  0  0  0  0  0  0  0  0  0  0
   28.8728  -21.0315  -18.1449 N   0  0  0  0  0  0  0  0  0  0  0  0
   24.0445  -19.9152  -14.3461 C   0  0  0  0  0  0  0  0  0  0  0  0
   23.7197  -19.2288  -13.3453 O   0  0  0  0  0  0  0  0  0  0  0  0
   23.1432  -19.9152  -15.4356 N   0  0  0  0  0  0  0  0  0  0  0  0
   21.8914  -19.1662  -15.4728 C   0  0  1  0  0  0  0  0  0  0  0  0
   21.9962  -18.1901  -16.5840 C   0  0  0  0  0  0  0  0  0  0  0  0
   21.9503  -18.7813  -17.9647 C   0  0  0  0  0  0  0  0  0  0  0  0
   21.9990  -17.7061  -18.9665 C   0  0  0  0  0  0  0  0  0  0  0  0
   23.0364  -17.5369  -19.6519 O   0  0  0  0  0  0  0  0  0  0  0  0
   20.7343  -20.0952  -15.6193 C   0  0  0  0  0  0  0  0  0  0  0  0
   20.9065  -21.1961  -16.1960 O   0  0  0  0  0  0  0  0  0  0  0  0
   20.9085  -16.8828  -19.1589 O   0  0  0  0  0  0  0  0  0  0  0  0
   19.4421  -19.7853  -15.1317 N   0  0  0  0  0  0  0  0  0  0  0  0
   18.2924  -20.6022  -15.3076 C   0  0  1  0  0  0  0  0  0  0  0  0
   18.2063  -21.7396  -14.3553 C   0  0  0  0  0  0  0  0  0  0  0  0
   17.6767  -21.5059  -13.0023 C   0  0  0  0  0  0  0  0  0  0  0  0
   17.5201  -22.6706  -12.1312 C   0  0  0  0  0  0  0  0  0  0  0  0
   16.4356  -22.9005  -11.5491 O   0  0  0  0  0  0  0  0  0  0  0  0
   17.0293  -19.8187  -15.3810 C   0  0  0  0  0  0  0  0  0  0  0  0
   16.9897  -18.4687  -15.0859 O   0  0  0  0  0  0  0  0  0  0  0  0
   18.5586  -23.5746  -11.9056 O   0  0  0  0  0  0  0  0  0  0  0  0
   15.9705  -20.3912  -15.7177 O   0  0  0  0  0  0  0  0  0  0  0  0
  2  1  1  6
  2  3  1  0
  4  3  1  0
  5  4  1  0
  6  5  1  0
  7  6  1  0
  8  9  2  0
  8  2  1  0
 10  8  1  0
 11 10  1  0
 11 12  1  6
 13 14  1  0
 13 12  1  0
 14 15  2  0
 16 17  2  0
 16 11  1  0
 18 14  1  0
 19 16  1  0
 20 21  1  1
 20 19  1  0
 22 23  1  0
 22 21  1  0
 23 27  1  0
 24 23  2  0
 25 20  1  0
 26 25  1  0
 28 25  2  0
M  END
$$$$
