KEE.pdb
     RDKit          3D

 28 27  0  0  1  0  0  0  0  0999 V2000
   17.9680  -12.0464  -15.0319 N   0  0  0  0  0  0  0  0  0  0  0  0
   17.6285  -10.9257  -15.8791 C   0  0  1  0  0  0  0  0  0  0  0  0
   16.3220  -11.1306  -16.5002 C   0  0  0  0  0  0  0  0  0  0  0  0
   16.3034  -12.1928  -17.5792 C   0  0  0  0  0  0  0  0  0  0  0  0
   14.8808  -12.3953  -18.0670 C   0  0  0  0  0  0  0  0  0  0  0  0
   14.8325  -13.4691  -19.1285 C   0  0  0  0  0  0  0  0  0  0  0  0
   13.4528  -13.7001  -19.4937 N   0  0  0  0  0  0  0  0  0  0  0  0
   17.8395   -9.6797  -15.1469 C   0  0  0  0  0  0  0  0  0  0  0  0
   17.0224   -9.3709  -14.2440 O   0  0  0  0  0  0  0  0  0  0  0  0
   18.9046   -8.7780  -15.3748 N   0  0  0  0  0  0  0  0  0  0  0  0
   19.0836   -7.5143  -14.6674 C   0  0  1  0  0  0  0  0  0  0  0  0
   20.5277   -7.1824  -14.7194 C   0  0  0  0  0  0  0  0  0  0  0  0
   20.9141   -5.8906  -14.0559 C   0  0  0  0  0  0  0  0  0  0  0  0
   22.3694   -5.7015  -14.1484 C   0  0  0  0  0  0  0  0  0  0  0  0
   22.8933   -4.6541  -13.6977 O   0  0  0  0  0  0  0  0  0  0  0  0
   18.2197   -6.4569  -15.2662 C   0  0  0  0  0  0  0  0  0  0  0  0
   18.0698   -6.4259  -16.5115 O   0  0  0  0  0  0  0  0  0  0  0  0
   23.1629   -6.6711  -14.7263 O   0  0  0  0  0  0  0  0  0  0  0  0
   17.5575   -5.4807  -14.4838 N   0  0  0  0  0  0  0  0  0  0  0  0
   16.7036   -4.4697  -15.0024 C   0  0  1  0  0  0  0  0  0  0  0  0
   15.2865   -4.8914  -15.1509 C   0  0  0  0  0  0  0  0  0  0  0  0
   14.2825   -3.9018  -15.5732 C   0  0  0  0  0  0  0  0  0  0  0  0
   12.8989   -4.3598  -15.6992 C   0  0  0  0  0  0  0  0  0  0  0  0
   11.9995   -3.5919  -16.1108 O   0  0  0  0  0  0  0  0  0  0  0  0
   16.8438   -3.1702  -14.2907 C   0  0  0  0  0  0  0  0  0  0  0  0
   16.3551   -1.9910  -14.8216 O   0  0  0  0  0  0  0  0  0  0  0  0
   12.5138   -5.6598  -15.3705 O   0  0  0  0  0  0  0  0  0  0  0  0
   17.4191   -3.1366  -13.1816 O   0  0  0  0  0  0  0  0  0  0  0  0
  2  1  1  1
  2  3  1  0
  4  3  1  0
  5  4  1  0
  6  5  1  0
  7  6  1  0
  8  9  2  0
  8  2  1  0
 10  8  1  0
 11 10  1  0
 11 12  1  6
 13 14  1  0
 13 12  1  0
 14 15  2  0
 16 17  2  0
 16 11  1  0
 18 14  1  0
 19 16  1  0
 20 21  1  1
 20 19  1  0
 22 23  1  0
 22 21  1  0
 23 27  1  0
 24 23  2  0
 25 20  1  0
 26 25  1  0
 28 25  2  0
M  END
$$$$
