KEE.pdb
     RDKit          3D

 28 27  0  0  1  0  0  0  0  0999 V2000
   19.5430  -12.9073  -15.0564 N   0  0  0  0  0  0  0  0  0  0  0  0
   19.7048  -11.7942  -15.9640 C   0  0  1  0  0  0  0  0  0  0  0  0
   19.0637  -12.0810  -17.2452 C   0  0  0  0  0  0  0  0  0  0  0  0
   17.5855  -12.3941  -17.1474 C   0  0  0  0  0  0  0  0  0  0  0  0
   17.0443  -12.7227  -18.5265 C   0  0  0  0  0  0  0  0  0  0  0  0
   15.5426  -12.8815  -18.4824 C   0  0  0  0  0  0  0  0  0  0  0  0
   15.0774  -13.2686  -19.7954 N   0  0  0  0  0  0  0  0  0  0  0  0
   19.3336  -10.5549  -15.2863 C   0  0  0  0  0  0  0  0  0  0  0  0
   18.2878  -10.5438  -14.5903 O   0  0  0  0  0  0  0  0  0  0  0  0
   20.0661   -9.3471  -15.3508 N   0  0  0  0  0  0  0  0  0  0  0  0
   19.7306   -8.1362  -14.6088 C   0  0  1  0  0  0  0  0  0  0  0  0
   21.0021   -7.4286  -14.3244 C   0  0  0  0  0  0  0  0  0  0  0  0
   20.8612   -6.1236  -13.5927 C   0  0  0  0  0  0  0  0  0  0  0  0
   22.1716   -5.4632  -13.4996 C   0  0  0  0  0  0  0  0  0  0  0  0
   23.0164   -5.8657  -12.6637 O   0  0  0  0  0  0  0  0  0  0  0  0
   18.7608   -7.3065  -15.3797 C   0  0  0  0  0  0  0  0  0  0  0  0
   18.9518   -7.1291  -16.6070 O   0  0  0  0  0  0  0  0  0  0  0  0
   22.4787   -4.4038  -14.3288 O   0  0  0  0  0  0  0  0  0  0  0  0
   17.6266   -6.7072  -14.7813 N   0  0  0  0  0  0  0  0  0  0  0  0
   16.6361   -5.9678  -15.4829 C   0  0  1  0  0  0  0  0  0  0  0  0
   15.3104   -5.9431  -14.8120 C   0  0  0  0  0  0  0  0  0  0  0  0
   14.2282   -5.1290  -15.3882 C   0  0  0  0  0  0  0  0  0  0  0  0
   12.9494   -5.1111  -14.6780 C   0  0  0  0  0  0  0  0  0  0  0  0
   12.6765   -5.9789  -13.8175 O   0  0  0  0  0  0  0  0  0  0  0  0
   17.1004   -4.6124  -15.8859 C   0  0  0  0  0  0  0  0  0  0  0  0
   16.7139   -4.0340  -17.0806 O   0  0  0  0  0  0  0  0  0  0  0  0
   11.9788   -4.1387  -14.9200 O   0  0  0  0  0  0  0  0  0  0  0  0
   17.8619   -3.9738  -15.1280 O   0  0  0  0  0  0  0  0  0  0  0  0
  2  1  1  1
  2  3  1  0
  4  3  1  0
  5  4  1  0
  6  5  1  0
  7  6  1  0
  8  9  2  0
  8  2  1  0
 10  8  1  0
 11 10  1  0
 11 12  1  6
 13 14  1  0
 13 12  1  0
 14 15  2  0
 16 17  2  0
 16 11  1  0
 18 14  1  0
 19 16  1  0
 20 21  1  1
 20 19  1  0
 22 23  1  0
 22 21  1  0
 23 27  1  0
 24 23  2  0
 25 20  1  0
 26 25  1  0
 28 25  2  0
M  END
$$$$
