KEE.pdb
     RDKit          3D

 28 27  0  0  1  0  0  0  0  0999 V2000
   17.5982  -12.7533  -18.4296 N   0  0  0  0  0  0  0  0  0  0  0  0
   18.4354  -12.1723  -17.4047 C   0  0  1  0  0  0  0  0  0  0  0  0
   19.5596  -13.0547  -17.1009 C   0  0  0  0  0  0  0  0  0  0  0  0
   19.2538  -14.5300  -17.2518 C   0  0  0  0  0  0  0  0  0  0  0  0
   18.5514  -15.0325  -16.0040 C   0  0  0  0  0  0  0  0  0  0  0  0
   18.1608  -16.4831  -16.1637 C   0  0  0  0  0  0  0  0  0  0  0  0
   17.3709  -16.8805  -15.0198 N   0  0  0  0  0  0  0  0  0  0  0  0
   18.7398  -10.7867  -17.7514 C   0  0  0  0  0  0  0  0  0  0  0  0
   19.7165  -10.5603  -18.5084 O   0  0  0  0  0  0  0  0  0  0  0  0
   18.0142   -9.6611  -17.2974 N   0  0  0  0  0  0  0  0  0  0  0  0
   18.3205   -8.2803  -17.6565 C   0  0  1  0  0  0  0  0  0  0  0  0
   17.0528   -7.6490  -18.0959 C   0  0  0  0  0  0  0  0  0  0  0  0
   17.1653   -6.2132  -18.5245 C   0  0  0  0  0  0  0  0  0  0  0  0
   15.8446   -5.7132  -18.9345 C   0  0  0  0  0  0  0  0  0  0  0  0
   15.2962   -4.7907  -18.2843 O   0  0  0  0  0  0  0  0  0  0  0  0
   18.9569   -7.5738  -16.5080 C   0  0  0  0  0  0  0  0  0  0  0  0
   18.6888   -7.9457  -15.3401 O   0  0  0  0  0  0  0  0  0  0  0  0
   15.2056   -6.2515  -20.0326 O   0  0  0  0  0  0  0  0  0  0  0  0
   19.8564   -6.4947  -16.6813 N   0  0  0  0  0  0  0  0  0  0  0  0
   20.5366   -5.8295  -15.6254 C   0  0  1  0  0  0  0  0  0  0  0  0
   21.2380   -6.7431  -14.6866 C   0  0  0  0  0  0  0  0  0  0  0  0
   20.5028   -7.2971  -13.5385 C   0  0  0  0  0  0  0  0  0  0  0  0
   21.2052   -8.2622  -12.6927 C   0  0  0  0  0  0  0  0  0  0  0  0
   22.3173   -8.7278  -13.0309 O   0  0  0  0  0  0  0  0  0  0  0  0
   21.4058   -4.7199  -16.1030 C   0  0  0  0  0  0  0  0  0  0  0  0
   21.5340   -4.4198  -17.4464 O   0  0  0  0  0  0  0  0  0  0  0  0
   20.6786   -8.7093  -11.4807 O   0  0  0  0  0  0  0  0  0  0  0  0
   22.0412   -4.0365  -15.2715 O   0  0  0  0  0  0  0  0  0  0  0  0
  2  1  1  6
  2  3  1  0
  4  3  1  0
  5  4  1  0
  6  5  1  0
  7  6  1  0
  8  9  2  0
  8  2  1  0
 10  8  1  0
 11 10  1  0
 11 12  1  1
 13 14  1  0
 13 12  1  0
 14 15  2  0
 16 17  2  0
 16 11  1  0
 18 14  1  0
 19 16  1  0
 20 21  1  6
 20 19  1  0
 22 23  1  0
 22 21  1  0
 23 27  1  0
 24 23  2  0
 25 20  1  0
 26 25  1  0
 28 25  2  0
M  END
$$$$
