QFQ.pdb
     RDKit          3D

 30 30  0  0  1  0  0  0  0  0999 V2000
   18.0277  -18.1570  -15.7276 N   0  0  0  0  0  0  0  0  0  0  0  0
   17.5955  -19.4988  -15.4431 C   0  0  0  0  0  0  0  0  0  0  0  0
   16.3772  -19.7599  -15.5232 O   0  0  0  0  0  0  0  0  0  0  0  0
   18.5640  -20.5210  -15.0677 C   0  0  0  0  0  0  0  0  0  0  0  0
   19.9974  -20.1082  -15.0023 C   0  0  0  0  0  0  0  0  0  0  0  0
   20.6817  -20.3469  -13.6859 C   0  0  2  0  0  0  0  0  0  0  0  0
   20.0367  -19.7841  -12.5784 N   0  0  0  0  0  0  0  0  0  0  0  0
   22.1416  -20.0731  -13.7662 C   0  0  0  0  0  0  0  0  0  0  0  0
   22.5057  -19.1682  -14.5481 O   0  0  0  0  0  0  0  0  0  0  0  0
   23.1329  -20.7606  -13.0253 N   0  0  0  0  0  0  0  0  0  0  0  0
   24.5369  -20.5912  -13.0891 C   0  0  1  0  0  0  0  0  0  0  0  0
   25.2899  -20.7442  -11.7828 C   0  0  0  0  0  0  0  0  0  0  0  0
   26.7316  -20.5596  -11.8766 C   0  0  0  0  0  0  0  0  0  0  0  0
   27.5586  -21.5111  -11.3144 C   0  0  0  0  0  0  0  0  0  0  0  0
   28.9204  -21.3880  -11.3651 C   0  0  0  0  0  0  0  0  0  0  0  0
   29.4937  -20.2924  -11.9896 C   0  0  0  0  0  0  0  0  0  0  0  0
   28.7010  -19.3300  -12.5574 C   0  0  0  0  0  0  0  0  0  0  0  0
   27.3158  -19.4809  -12.4909 C   0  0  0  0  0  0  0  0  0  0  0  0
   25.2439  -21.3655  -14.1173 C   0  0  0  0  0  0  0  0  0  0  0  0
   25.3053  -22.6267  -14.0498 O   0  0  0  0  0  0  0  0  0  0  0  0
   25.3112  -23.9847  -18.8351 N   0  0  0  0  0  0  0  0  0  0  0  0
   24.2761  -23.0790  -18.3923 C   0  0  0  0  0  0  0  0  0  0  0  0
   23.1190  -23.4484  -18.6028 O   0  0  0  0  0  0  0  0  0  0  0  0
   24.6572  -21.8446  -17.7562 C   0  0  0  0  0  0  0  0  0  0  0  0
   26.0745  -21.5038  -17.5686 C   0  0  0  0  0  0  0  0  0  0  0  0
   26.6621  -21.5419  -16.2142 C   0  0  2  0  0  0  0  0  0  0  0  0
   25.8983  -20.7839  -15.2394 N   0  0  0  0  0  0  0  0  0  0  0  0
   28.0782  -21.2380  -16.0950 C   0  0  0  0  0  0  0  0  0  0  0  0
   29.0073  -22.2361  -15.8484 O   0  0  0  0  0  0  0  0  0  0  0  0
   28.4975  -20.0651  -16.2068 O   0  0  0  0  0  0  0  0  0  0  0  0
  2  3  2  0
  2  1  1  0
  4  2  1  0
  5  6  1  0
  5  4  1  0
  6  7  1  1
  8  6  1  0
  9  8  2  0
 10  8  1  0
 11 12  1  1
 11 10  1  0
 12 13  1  0
 13 18  2  0
 14 13  1  0
 14 15  2  0
 15 16  1  0
 16 17  2  0
 18 17  1  0
 19 20  2  0
 19 11  1  0
 22 21  1  0
 22 24  1  0
 23 22  2  0
 25 24  1  0
 26 25  1  6
 26 27  1  0
 27 19  1  0
 28 26  1  0
 28 29  1  0
 30 28  2  0
M  END
$$$$
