QFQ.pdb
     RDKit          3D

 30 30  0  0  1  0  0  0  0  0999 V2000
   24.8567  -21.1646  -20.4160 N   0  0  0  0  0  0  0  0  0  0  0  0
   26.1573  -20.7090  -20.8271 C   0  0  0  0  0  0  0  0  0  0  0  0
   26.4499  -20.7642  -22.0396 O   0  0  0  0  0  0  0  0  0  0  0  0
   27.1047  -20.2002  -19.8437 C   0  0  0  0  0  0  0  0  0  0  0  0
   26.6615  -20.1831  -18.4180 C   0  0  0  0  0  0  0  0  0  0  0  0
   27.4365  -21.0724  -17.4871 C   0  0  2  0  0  0  0  0  0  0  0  0
   27.9625  -22.2264  -18.0797 N   0  0  0  0  0  0  0  0  0  0  0  0
   26.7089  -21.3006  -16.2099 C   0  0  0  0  0  0  0  0  0  0  0  0
   25.7095  -22.0504  -16.2538 O   0  0  0  0  0  0  0  0  0  0  0  0
   27.0687  -20.7322  -14.9642 N   0  0  0  0  0  0  0  0  0  0  0  0
   26.4070  -20.8770  -13.7211 C   0  0  1  0  0  0  0  0  0  0  0  0
   27.2223  -20.5493  -12.4864 C   0  0  0  0  0  0  0  0  0  0  0  0
   26.4885  -20.6063  -11.2295 C   0  0  0  0  0  0  0  0  0  0  0  0
   26.2575  -21.8393  -10.6535 C   0  0  0  0  0  0  0  0  0  0  0  0
   25.5682  -21.9557   -9.4772 C   0  0  0  0  0  0  0  0  0  0  0  0
   25.0873  -20.8228   -8.8415 C   0  0  0  0  0  0  0  0  0  0  0  0
   25.2994  -19.5841   -9.3869 C   0  0  0  0  0  0  0  0  0  0  0  0
   26.0052  -19.4948  -10.5870 C   0  0  0  0  0  0  0  0  0  0  0  0
   25.1007  -20.2183  -13.5940 C   0  0  0  0  0  0  0  0  0  0  0  0
   24.9345  -19.0285  -13.9887 O   0  0  0  0  0  0  0  0  0  0  0  0
   21.5350  -19.3112  -17.3192 N   0  0  0  0  0  0  0  0  0  0  0  0
   21.2254  -18.3843  -16.2548 C   0  0  0  0  0  0  0  0  0  0  0  0
   20.6746  -17.3379  -16.6030 O   0  0  0  0  0  0  0  0  0  0  0  0
   21.5726  -18.7367  -14.9025 C   0  0  0  0  0  0  0  0  0  0  0  0
   22.2891  -19.9870  -14.6136 C   0  0  0  0  0  0  0  0  0  0  0  0
   22.5949  -20.3473  -13.2144 C   0  0  2  0  0  0  0  0  0  0  0  0
   23.9489  -20.8401  -13.0351 N   0  0  0  0  0  0  0  0  0  0  0  0
   21.6475  -21.2089  -12.5273 C   0  0  0  0  0  0  0  0  0  0  0  0
   20.3133  -20.8546  -12.4066 O   0  0  0  0  0  0  0  0  0  0  0  0
   22.0115  -22.2929  -12.0209 O   0  0  0  0  0  0  0  0  0  0  0  0
  2  3  2  0
  2  1  1  0
  4  2  1  0
  5  6  1  0
  5  4  1  0
  6  7  1  6
  8  6  1  0
  9  8  2  0
 10  8  1  0
 11 12  1  1
 11 10  1  0
 12 13  1  0
 13 18  2  0
 14 13  1  0
 14 15  2  0
 15 16  1  0
 16 17  2  0
 18 17  1  0
 19 20  2  0
 19 11  1  0
 22 21  1  0
 22 24  1  0
 23 22  2  0
 25 24  1  0
 26 25  1  6
 26 27  1  0
 27 19  1  0
 28 26  1  0
 28 29  1  0
 30 28  2  0
M  END
$$$$
