QFQ.pdb
     RDKit          3D

 30 30  0  0  1  0  0  0  0  0999 V2000
   21.7605  -12.9851  -23.2140 N   0  0  0  0  0  0  0  0  0  0  0  0
   21.4026  -11.9181  -22.3187 C   0  0  0  0  0  0  0  0  0  0  0  0
   20.1912  -11.6893  -22.1217 O   0  0  0  0  0  0  0  0  0  0  0  0
   22.4369  -11.1266  -21.6649 C   0  0  0  0  0  0  0  0  0  0  0  0
   22.3207  -10.9430  -20.1877 C   0  0  0  0  0  0  0  0  0  0  0  0
   23.5997  -10.6095  -19.4729 C   0  0  2  0  0  0  0  0  0  0  0  0
   24.4570  -11.6965  -19.2654 N   0  0  0  0  0  0  0  0  0  0  0  0
   23.3560   -9.7663  -18.2719 C   0  0  0  0  0  0  0  0  0  0  0  0
   22.9552  -10.3504  -17.2419 O   0  0  0  0  0  0  0  0  0  0  0  0
   23.5454   -8.3643  -18.2192 N   0  0  0  0  0  0  0  0  0  0  0  0
   23.2480   -7.4885  -17.1474 C   0  0  1  0  0  0  0  0  0  0  0  0
   24.4209   -7.0565  -16.2904 C   0  0  0  0  0  0  0  0  0  0  0  0
   25.2254   -8.1447  -15.7521 C   0  0  0  0  0  0  0  0  0  0  0  0
   26.4727   -8.3772  -16.2958 C   0  0  0  0  0  0  0  0  0  0  0  0
   27.2706   -9.3893  -15.8360 C   0  0  0  0  0  0  0  0  0  0  0  0
   26.8307  -10.2039  -14.8056 C   0  0  0  0  0  0  0  0  0  0  0  0
   25.5978   -9.9999  -14.2442 C   0  0  0  0  0  0  0  0  0  0  0  0
   24.8053   -8.9609  -14.7326 C   0  0  0  0  0  0  0  0  0  0  0  0
   22.4589   -6.2946  -17.4770 C   0  0  0  0  0  0  0  0  0  0  0  0
   22.6493   -5.6717  -18.5608 O   0  0  0  0  0  0  0  0  0  0  0  0
   16.5138   -3.8059  -19.0063 N   0  0  0  0  0  0  0  0  0  0  0  0
   17.7333   -4.4364  -19.4567 C   0  0  0  0  0  0  0  0  0  0  0  0
   17.5911   -5.3506  -20.2714 O   0  0  0  0  0  0  0  0  0  0  0  0
   18.9918   -3.9678  -18.9369 C   0  0  0  0  0  0  0  0  0  0  0  0
   19.9805   -4.9135  -18.4003 C   0  0  0  0  0  0  0  0  0  0  0  0
   20.5260   -4.7086  -17.0432 C   0  0  2  0  0  0  0  0  0  0  0  0
   21.4470   -5.7543  -16.6347 N   0  0  0  0  0  0  0  0  0  0  0  0
   19.5759   -4.4271  -15.9802 C   0  0  0  0  0  0  0  0  0  0  0  0
   19.1170   -3.1399  -15.7513 O   0  0  0  0  0  0  0  0  0  0  0  0
   19.1495   -5.3393  -15.2383 O   0  0  0  0  0  0  0  0  0  0  0  0
  2  3  2  0
  2  1  1  0
  4  2  1  0
  5  6  1  0
  5  4  1  0
  6  7  1  1
  8  6  1  0
  9  8  2  0
 10  8  1  0
 11 12  1  6
 11 10  1  0
 12 13  1  0
 13 18  2  0
 14 13  1  0
 14 15  2  0
 15 16  1  0
 16 17  2  0
 18 17  1  0
 19 20  2  0
 19 11  1  0
 22 21  1  0
 22 24  1  0
 23 22  2  0
 25 24  1  0
 26 25  1  6
 26 27  1  0
 27 19  1  0
 28 26  1  0
 28 29  1  0
 30 28  2  0
M  END
$$$$
