QFQ.pdb
     RDKit          3D

 30 30  0  0  1  0  0  0  0  0999 V2000
   26.5830  -19.8257  -18.2795 N   0  0  0  0  0  0  0  0  0  0  0  0
   27.7463  -19.1211  -17.8122 C   0  0  0  0  0  0  0  0  0  0  0  0
   28.4447  -18.5086  -18.6464 O   0  0  0  0  0  0  0  0  0  0  0  0
   28.0946  -19.1308  -16.3972 C   0  0  0  0  0  0  0  0  0  0  0  0
   27.1158  -19.7578  -15.4602 C   0  0  0  0  0  0  0  0  0  0  0  0
   27.6768  -20.8073  -14.5426 C   0  0  2  0  0  0  0  0  0  0  0  0
   28.4098  -21.8144  -15.1813 N   0  0  0  0  0  0  0  0  0  0  0  0
   26.6584  -21.2931  -13.5733 C   0  0  0  0  0  0  0  0  0  0  0  0
   26.1721  -22.4254  -13.7829 O   0  0  0  0  0  0  0  0  0  0  0  0
   26.2095  -20.5671  -12.4437 N   0  0  0  0  0  0  0  0  0  0  0  0
   25.0601  -20.8135  -11.6550 C   0  0  1  0  0  0  0  0  0  0  0  0
   25.1176  -20.3324  -10.2190 C   0  0  0  0  0  0  0  0  0  0  0  0
   26.4015  -20.5188   -9.5570 C   0  0  0  0  0  0  0  0  0  0  0  0
   26.6392  -19.8491   -8.3736 C   0  0  0  0  0  0  0  0  0  0  0  0
   27.8288  -19.9797   -7.7102 C   0  0  0  0  0  0  0  0  0  0  0  0
   28.8224  -20.7964   -8.2246 C   0  0  0  0  0  0  0  0  0  0  0  0
   28.6183  -21.4749   -9.3971 C   0  0  0  0  0  0  0  0  0  0  0  0
   27.3961  -21.3233  -10.0525 C   0  0  0  0  0  0  0  0  0  0  0  0
   23.7728  -20.3961  -12.2253 C   0  0  0  0  0  0  0  0  0  0  0  0
   23.6989  -19.3921  -12.9905 O   0  0  0  0  0  0  0  0  0  0  0  0
   23.4063  -21.4844  -16.0721 N   0  0  0  0  0  0  0  0  0  0  0  0
   22.5197  -22.5396  -15.6379 C   0  0  0  0  0  0  0  0  0  0  0  0
   22.7425  -23.6535  -16.1167 O   0  0  0  0  0  0  0  0  0  0  0  0
   21.4687  -22.2253  -14.7050 C   0  0  0  0  0  0  0  0  0  0  0  0
   21.3680  -20.8841  -14.1126 C   0  0  0  0  0  0  0  0  0  0  0  0
   21.2935  -20.7374  -12.6449 C   0  0  2  0  0  0  0  0  0  0  0  0
   22.5402  -21.0620  -11.9750 N   0  0  0  0  0  0  0  0  0  0  0  0
   20.1751  -21.3733  -11.9690 C   0  0  0  0  0  0  0  0  0  0  0  0
   20.3801  -22.2762  -10.9381 O   0  0  0  0  0  0  0  0  0  0  0  0
   18.9953  -21.1268  -12.3029 O   0  0  0  0  0  0  0  0  0  0  0  0
  2  3  2  0
  2  1  1  0
  4  2  1  0
  5  6  1  0
  5  4  1  0
  6  7  1  6
  8  6  1  0
  9  8  2  0
 10  8  1  0
 11 12  1  1
 11 10  1  0
 12 13  1  0
 13 18  2  0
 14 13  1  0
 14 15  2  0
 15 16  1  0
 16 17  2  0
 18 17  1  0
 19 20  2  0
 19 11  1  0
 22 21  1  0
 22 24  1  0
 23 22  2  0
 25 24  1  0
 26 25  1  6
 26 27  1  0
 27 19  1  0
 28 26  1  0
 28 29  1  0
 30 28  2  0
M  END
$$$$
