QFQ.pdb
     RDKit          3D

 30 30  0  0  1  0  0  0  0  0999 V2000
   28.1850  -17.9032  -20.8148 N   0  0  0  0  0  0  0  0  0  0  0  0
   27.3090  -19.0113  -21.0846 C   0  0  0  0  0  0  0  0  0  0  0  0
   27.5266  -19.7074  -22.0980 O   0  0  0  0  0  0  0  0  0  0  0  0
   26.1948  -19.3041  -20.1921 C   0  0  0  0  0  0  0  0  0  0  0  0
   26.3975  -20.3867  -19.1840 C   0  0  0  0  0  0  0  0  0  0  0  0
   27.3724  -20.0745  -18.0839 C   0  0  2  0  0  0  0  0  0  0  0  0
   28.7046  -20.3930  -18.3723 N   0  0  0  0  0  0  0  0  0  0  0  0
   26.8854  -20.5554  -16.7632 C   0  0  0  0  0  0  0  0  0  0  0  0
   26.3281  -21.6740  -16.7384 O   0  0  0  0  0  0  0  0  0  0  0  0
   27.0099  -19.8391  -15.5484 N   0  0  0  0  0  0  0  0  0  0  0  0
   26.5210  -20.2055  -14.2713 C   0  0  1  0  0  0  0  0  0  0  0  0
   27.2026  -19.5586  -13.0824 C   0  0  0  0  0  0  0  0  0  0  0  0
   26.6979  -19.9738  -11.7808 C   0  0  0  0  0  0  0  0  0  0  0  0
   25.7250  -19.2063  -11.1727 C   0  0  0  0  0  0  0  0  0  0  0  0
   25.2178  -19.5427   -9.9472 C   0  0  0  0  0  0  0  0  0  0  0  0
   25.6804  -20.6727   -9.2929 C   0  0  0  0  0  0  0  0  0  0  0  0
   26.6455  -21.4559   -9.8691 C   0  0  0  0  0  0  0  0  0  0  0  0
   27.1449  -21.0893  -11.1190 C   0  0  0  0  0  0  0  0  0  0  0  0
   25.0690  -20.1089  -14.0737 C   0  0  0  0  0  0  0  0  0  0  0  0
   24.4593  -19.0197  -14.2751 O   0  0  0  0  0  0  0  0  0  0  0  0
   23.3997  -24.6012  -15.3819 N   0  0  0  0  0  0  0  0  0  0  0  0
   22.6377  -23.6785  -16.1917 C   0  0  0  0  0  0  0  0  0  0  0  0
   22.5533  -23.9638  -17.3880 O   0  0  0  0  0  0  0  0  0  0  0  0
   22.0489  -22.5242  -15.5637 C   0  0  0  0  0  0  0  0  0  0  0  0
   22.1374  -22.3349  -14.1089 C   0  0  0  0  0  0  0  0  0  0  0  0
   22.8028  -21.1327  -13.5676 C   0  0  2  0  0  0  0  0  0  0  0  0
   24.2510  -21.1950  -13.6530 N   0  0  0  0  0  0  0  0  0  0  0  0
   22.3924  -20.6827  -12.2481 C   0  0  0  0  0  0  0  0  0  0  0  0
   21.3015  -19.8443  -12.0839 O   0  0  0  0  0  0  0  0  0  0  0  0
   23.0163  -21.0362  -11.2234 O   0  0  0  0  0  0  0  0  0  0  0  0
  2  3  2  0
  2  1  1  0
  4  2  1  0
  5  6  1  0
  5  4  1  0
  6  7  1  6
  8  6  1  0
  9  8  2  0
 10  8  1  0
 11 12  1  1
 11 10  1  0
 12 13  1  0
 13 18  2  0
 14 13  1  0
 14 15  2  0
 15 16  1  0
 16 17  2  0
 18 17  1  0
 19 20  2  0
 19 11  1  0
 22 21  1  0
 22 24  1  0
 23 22  2  0
 25 24  1  0
 26 25  1  1
 26 27  1  0
 27 19  1  0
 28 26  1  0
 28 29  1  0
 30 28  2  0
M  END
$$$$
