QFQ.pdb
     RDKit          3D

 30 30  0  0  1  0  0  0  0  0999 V2000
   26.7118  -21.3608  -20.5648 N   0  0  0  0  0  0  0  0  0  0  0  0
   28.0856  -21.7858  -20.5525 C   0  0  0  0  0  0  0  0  0  0  0  0
   28.7758  -21.5942  -21.5751 O   0  0  0  0  0  0  0  0  0  0  0  0
   28.6481  -22.4270  -19.3709 C   0  0  0  0  0  0  0  0  0  0  0  0
   27.7298  -22.6461  -18.2141 C   0  0  0  0  0  0  0  0  0  0  0  0
   27.1978  -21.4006  -17.5632 C   0  0  2  0  0  0  0  0  0  0  0  0
   28.0428  -20.2878  -17.6467 N   0  0  0  0  0  0  0  0  0  0  0  0
   26.6581  -21.6763  -16.2047 C   0  0  0  0  0  0  0  0  0  0  0  0
   25.8668  -22.6377  -16.0943 O   0  0  0  0  0  0  0  0  0  0  0  0
   26.9773  -20.9315  -15.0438 N   0  0  0  0  0  0  0  0  0  0  0  0
   26.3805  -21.0227  -13.7633 C   0  0  1  0  0  0  0  0  0  0  0  0
   27.2631  -20.6603  -12.5859 C   0  0  0  0  0  0  0  0  0  0  0  0
   26.5701  -20.5358  -11.3108 C   0  0  0  0  0  0  0  0  0  0  0  0
   26.2931  -21.6821  -10.5935 C   0  0  0  0  0  0  0  0  0  0  0  0
   25.6386  -21.6280   -9.3930 C   0  0  0  0  0  0  0  0  0  0  0  0
   25.2408  -20.4061   -8.8758 C   0  0  0  0  0  0  0  0  0  0  0  0
   25.5003  -19.2496   -9.5629 C   0  0  0  0  0  0  0  0  0  0  0  0
   26.1689  -19.3341  -10.7844 C   0  0  0  0  0  0  0  0  0  0  0  0
   25.0896  -20.3438  -13.5926 C   0  0  0  0  0  0  0  0  0  0  0  0
   25.0151  -19.0817  -13.6074 O   0  0  0  0  0  0  0  0  0  0  0  0
   20.8421  -18.4096  -16.6250 N   0  0  0  0  0  0  0  0  0  0  0  0
   21.7469  -19.5198  -16.8167 C   0  0  0  0  0  0  0  0  0  0  0  0
   21.9351  -19.8577  -17.9872 O   0  0  0  0  0  0  0  0  0  0  0  0
   22.3465  -20.1361  -15.6617 C   0  0  0  0  0  0  0  0  0  0  0  0
   22.0578  -19.6363  -14.3101 C   0  0  0  0  0  0  0  0  0  0  0  0
   22.5934  -20.3541  -13.1358 C   0  0  2  0  0  0  0  0  0  0  0  0
   23.8539  -21.0239  -13.4025 N   0  0  0  0  0  0  0  0  0  0  0  0
   21.6868  -21.2439  -12.4299 C   0  0  0  0  0  0  0  0  0  0  0  0
   20.5605  -20.7566  -11.7864 O   0  0  0  0  0  0  0  0  0  0  0  0
   21.9010  -22.4751  -12.3793 O   0  0  0  0  0  0  0  0  0  0  0  0
  2  3  2  0
  2  1  1  0
  4  2  1  0
  5  6  1  0
  5  4  1  0
  6  7  1  1
  8  6  1  0
  9  8  2  0
 10  8  1  0
 11 12  1  1
 11 10  1  0
 12 13  1  0
 13 18  2  0
 14 13  1  0
 14 15  2  0
 15 16  1  0
 16 17  2  0
 18 17  1  0
 19 20  2  0
 19 11  1  0
 22 21  1  0
 22 24  1  0
 23 22  2  0
 25 24  1  0
 26 25  1  6
 26 27  1  0
 27 19  1  0
 28 26  1  0
 28 29  1  0
 30 28  2  0
M  END
$$$$
