QFQ.pdb
     RDKit          3D

 30 30  0  0  1  0  0  0  0  0999 V2000
   35.3920  -37.7940   -0.3948 N   0  0  0  0  0  0  0  0  0  0  0  0
   36.3199  -37.4443   -1.4364 C   0  0  0  0  0  0  0  0  0  0  0  0
   37.4215  -38.0306   -1.4718 O   0  0  0  0  0  0  0  0  0  0  0  0
   35.9741  -36.4261   -2.4199 C   0  0  0  0  0  0  0  0  0  0  0  0
   34.6419  -35.7673   -2.2771 C   0  0  0  0  0  0  0  0  0  0  0  0
   33.4961  -36.4680   -2.9511 C   0  0  2  0  0  0  0  0  0  0  0  0
   33.7317  -36.8320   -4.2821 N   0  0  0  0  0  0  0  0  0  0  0  0
   32.2053  -35.7684   -2.7125 C   0  0  0  0  0  0  0  0  0  0  0  0
   31.9552  -35.4272   -1.5362 O   0  0  0  0  0  0  0  0  0  0  0  0
   31.2536  -35.4675   -3.7165 N   0  0  0  0  0  0  0  0  0  0  0  0
   29.9866  -34.8568   -3.5558 C   0  0  1  0  0  0  0  0  0  0  0  0
   29.5662  -33.8901   -4.6445 C   0  0  0  0  0  0  0  0  0  0  0  0
   28.2200  -33.3517   -4.5053 C   0  0  0  0  0  0  0  0  0  0  0  0
   27.9236  -32.5899   -3.3930 C   0  0  0  0  0  0  0  0  0  0  0  0
   26.6747  -32.0636   -3.2048 C   0  0  0  0  0  0  0  0  0  0  0  0
   25.6790  -32.2918   -4.1404 C   0  0  0  0  0  0  0  0  0  0  0  0
   25.9404  -33.0438   -5.2554 C   0  0  0  0  0  0  0  0  0  0  0  0
   27.2224  -33.5682   -5.4218 C   0  0  0  0  0  0  0  0  0  0  0  0
   28.8573  -35.7544   -3.2809 C   0  0  0  0  0  0  0  0  0  0  0  0
   28.7656  -36.8752   -3.8589 O   0  0  0  0  0  0  0  0  0  0  0  0
   26.6135  -40.1122    0.2659 N   0  0  0  0  0  0  0  0  0  0  0  0
   27.9069  -39.4797    0.1435 C   0  0  0  0  0  0  0  0  0  0  0  0
   28.8369  -40.2252   -0.1711 O   0  0  0  0  0  0  0  0  0  0  0  0
   28.0161  -38.0655    0.3915 C   0  0  0  0  0  0  0  0  0  0  0  0
   28.3646  -37.1383   -0.6943 C   0  0  0  0  0  0  0  0  0  0  0  0
   27.2973  -36.3825   -1.3804 C   0  0  2  0  0  0  0  0  0  0  0  0
   27.8050  -35.4510   -2.3719 N   0  0  0  0  0  0  0  0  0  0  0  0
   26.2970  -35.7383   -0.5459 C   0  0  0  0  0  0  0  0  0  0  0  0
   26.5251  -34.4910    0.0129 O   0  0  0  0  0  0  0  0  0  0  0  0
   25.2032  -36.2947   -0.3047 O   0  0  0  0  0  0  0  0  0  0  0  0
  2  3  2  0
  2  1  1  0
  4  2  1  0
  5  6  1  0
  5  4  1  0
  6  7  1  6
  8  6  1  0
  9  8  2  0
 10  8  1  0
 11 12  1  6
 11 10  1  0
 12 13  1  0
 13 18  2  0
 14 13  1  0
 14 15  2  0
 15 16  1  0
 16 17  2  0
 18 17  1  0
 19 20  2  0
 19 11  1  0
 22 21  1  0
 22 24  1  0
 23 22  2  0
 25 24  1  0
 26 25  1  1
 26 27  1  0
 27 19  1  0
 28 26  1  0
 28 29  1  0
 30 28  2  0
M  END
$$$$
