TTS.pdb
     RDKit          3D

 21 20  0  0  1  0  0  0  0  0999 V2000
   24.6642  -11.5792  -15.1562 C   0  0  0  0  0  0  0  0  0  0  0  0
   23.9875  -12.5169  -16.0919 C   0  0  1  0  0  0  0  0  0  0  0  0
   24.0947  -13.8060  -15.5693 O   0  0  0  0  0  0  0  0  0  0  0  0
   22.5558  -12.2045  -16.3708 C   0  0  2  0  0  0  0  0  0  0  0  0
   21.9302  -13.2280  -17.1708 N   0  0  0  0  0  0  0  0  0  0  0  0
   22.3091  -10.8868  -16.9434 C   0  0  0  0  0  0  0  0  0  0  0  0
   22.8626  -10.4596  -17.9944 O   0  0  0  0  0  0  0  0  0  0  0  0
   19.6079   -9.5242  -18.3758 C   0  0  0  0  0  0  0  0  0  0  0  0
   19.6791   -8.6121  -17.1569 C   0  0  1  0  0  0  0  0  0  0  0  0
   18.7627   -9.1117  -16.2385 O   0  0  0  0  0  0  0  0  0  0  0  0
   21.0948   -8.6784  -16.6543 C   0  0  2  0  0  0  0  0  0  0  0  0
   21.3902  -10.0232  -16.2841 N   0  0  0  0  0  0  0  0  0  0  0  0
   21.4048   -7.6742  -15.6039 C   0  0  0  0  0  0  0  0  0  0  0  0
   21.5154   -8.0669  -14.4213 O   0  0  0  0  0  0  0  0  0  0  0  0
   23.1269   -3.3955  -14.3044 O   0  0  0  0  0  0  0  0  0  0  0  0
   22.7584   -4.2183  -15.3525 C   0  0  0  0  0  0  0  0  0  0  0  0
   21.9238   -5.3710  -14.8140 C   0  0  2  0  0  0  0  0  0  0  0  0
   21.5803   -6.3036  -15.8706 N   0  0  0  0  0  0  0  0  0  0  0  0
   20.7312   -4.8232  -14.1439 C   0  0  0  0  0  0  0  0  0  0  0  0
   20.7626   -4.4976  -12.7980 O   0  0  0  0  0  0  0  0  0  0  0  0
   19.6662   -4.6435  -14.7861 O   0  0  0  0  0  0  0  0  0  0  0  0
  2  1  1  1
  2  4  1  0
  3  2  1  0
  4  5  1  6
  6  4  1  0
  6  7  2  0
  9  8  1  6
  9 11  1  0
 10  9  1  0
 11 12  1  1
 11 13  1  0
 12  6  1  0
 13 14  2  0
 13 18  1  0
 17 16  1  6
 16 15  1  0
 17 19  1  0
 18 17  1  0
 19 20  1  0
 21 19  2  0
M  END
$$$$
