TTS.pdb
     RDKit          3D

 21 20  0  0  1  0  0  0  0  0999 V2000
   17.3785  -13.2421  -16.8925 C   0  0  0  0  0  0  0  0  0  0  0  0
   18.4774  -12.5502  -16.1669 C   0  0  1  0  0  0  0  0  0  0  0  0
   19.6921  -13.0087  -16.6774 O   0  0  0  0  0  0  0  0  0  0  0  0
   18.4347  -11.0605  -16.2314 C   0  0  2  0  0  0  0  0  0  0  0  0
   18.4197  -10.5833  -17.5919 N   0  0  0  0  0  0  0  0  0  0  0  0
   19.4671  -10.3770  -15.4618 C   0  0  0  0  0  0  0  0  0  0  0  0
   19.6425  -10.5339  -14.2216 O   0  0  0  0  0  0  0  0  0  0  0  0
   22.9150  -10.5138  -15.6690 C   0  0  0  0  0  0  0  0  0  0  0  0
   22.6819   -9.0682  -16.0920 C   0  0  1  0  0  0  0  0  0  0  0  0
   22.7083   -9.0566  -17.4819 O   0  0  0  0  0  0  0  0  0  0  0  0
   21.3422   -8.6702  -15.5367 C   0  0  2  0  0  0  0  0  0  0  0  0
   20.3342   -9.4767  -16.1418 N   0  0  0  0  0  0  0  0  0  0  0  0
   21.0768   -7.2097  -15.6031 C   0  0  0  0  0  0  0  0  0  0  0  0
   20.4909   -6.7581  -16.6120 O   0  0  0  0  0  0  0  0  0  0  0  0
   19.4398   -4.8276  -13.2575 O   0  0  0  0  0  0  0  0  0  0  0  0
   19.8223   -4.4772  -14.5390 C   0  0  0  0  0  0  0  0  0  0  0  0
   21.2743   -4.8775  -14.7547 C   0  0  2  0  0  0  0  0  0  0  0  0
   21.4504   -6.3079  -14.5895 N   0  0  0  0  0  0  0  0  0  0  0  0
   22.1243   -4.1009  -13.8351 C   0  0  0  0  0  0  0  0  0  0  0  0
   22.2681   -2.7320  -13.9901 O   0  0  0  0  0  0  0  0  0  0  0  0
   22.7321   -4.6714  -12.8949 O   0  0  0  0  0  0  0  0  0  0  0  0
  2  1  1  6
  2  4  1  0
  3  2  1  0
  4  5  1  6
  6  4  1  0
  6  7  2  0
  9  8  1  6
  9 11  1  0
 10  9  1  0
 11 12  1  6
 11 13  1  0
 12  6  1  0
 13 14  2  0
 13 18  1  0
 17 16  1  1
 16 15  1  0
 17 19  1  0
 18 17  1  0
 19 20  1  0
 21 19  2  0
M  END
$$$$
