TTS.pdb
     RDKit          3D

 21 20  0  0  1  0  0  0  0  0999 V2000
   16.4286  -11.8509  -16.8288 C   0  0  0  0  0  0  0  0  0  0  0  0
   17.9046  -12.0348  -16.8485 C   0  0  1  0  0  0  0  0  0  0  0  0
   18.1958  -13.1287  -17.6638 O   0  0  0  0  0  0  0  0  0  0  0  0
   18.6814  -10.8459  -17.3050 C   0  0  2  0  0  0  0  0  0  0  0  0
   19.7546  -11.2163  -18.1938 N   0  0  0  0  0  0  0  0  0  0  0  0
   19.1755   -9.9821  -16.2398 C   0  0  0  0  0  0  0  0  0  0  0  0
   18.4982   -9.6542  -15.2263 O   0  0  0  0  0  0  0  0  0  0  0  0
   22.2356  -10.6571  -14.5109 C   0  0  0  0  0  0  0  0  0  0  0  0
   22.5018   -9.2617  -15.0632 C   0  0  1  0  0  0  0  0  0  0  0  0
   23.2844   -9.4318  -16.1996 O   0  0  0  0  0  0  0  0  0  0  0  0
   21.1588   -8.6598  -15.3719 C   0  0  2  0  0  0  0  0  0  0  0  0
   20.5005   -9.4732  -16.3404 N   0  0  0  0  0  0  0  0  0  0  0  0
   21.2159   -7.2173  -15.7239 C   0  0  0  0  0  0  0  0  0  0  0  0
   21.3653   -6.9050  -16.9261 O   0  0  0  0  0  0  0  0  0  0  0  0
   19.6501   -4.1834  -13.5171 O   0  0  0  0  0  0  0  0  0  0  0  0
   19.9700   -4.0165  -14.8517 C   0  0  0  0  0  0  0  0  0  0  0  0
   21.2417   -4.7921  -15.1620 C   0  0  2  0  0  0  0  0  0  0  0  0
   21.1107   -6.1838  -14.7746 N   0  0  0  0  0  0  0  0  0  0  0  0
   22.3774   -4.1317  -14.4947 C   0  0  0  0  0  0  0  0  0  0  0  0
   22.7837   -2.8642  -14.8778 O   0  0  0  0  0  0  0  0  0  0  0  0
   22.9947   -4.7110  -13.5661 O   0  0  0  0  0  0  0  0  0  0  0  0
  2  1  1  6
  2  4  1  0
  3  2  1  0
  4  5  1  1
  6  4  1  0
  6  7  2  0
  9  8  1  6
  9 11  1  0
 10  9  1  0
 11 12  1  6
 11 13  1  0
 12  6  1  0
 13 14  2  0
 13 18  1  0
 17 16  1  1
 16 15  1  0
 17 19  1  0
 18 17  1  0
 19 20  1  0
 21 19  2  0
M  END
$$$$
