TTS.pdb
     RDKit          3D

 21 20  0  0  1  0  0  0  0  0999 V2000
  714.6447  724.6654  657.5522 C   0  0  0  0  0  0  0  0  0  0  0  0
  715.5356  725.8364  657.3341 C   0  0  1  0  0  0  0  0  0  0  0  0
  716.7955  725.3629  656.9694 O   0  0  0  0  0  0  0  0  0  0  0  0
  715.0521  726.8151  656.3174 C   0  0  2  0  0  0  0  0  0  0  0  0
  713.6387  727.0679  656.4467 N   0  0  0  0  0  0  0  0  0  0  0  0
  715.3890  726.4911  654.9369 C   0  0  0  0  0  0  0  0  0  0  0  0
  716.5275  726.6812  654.4252 O   0  0  0  0  0  0  0  0  0  0  0  0
  716.2361  726.1164  652.5099 C   0  0  0  0  0  0  0  0  0  0  0  0
  715.3788  724.8929  652.2064 C   0  0  1  0  0  0  0  0  0  0  0  0
  716.2592  723.8325  652.0225 O   0  0  0  0  0  0  0  0  0  0  0  0
  714.4774  724.6959  653.3939 C   0  0  2  0  0  0  0  0  0  0  0  0
  714.3800  725.9263  654.1077 N   0  0  0  0  0  0  0  0  0  0  0  0
  714.8446  723.5286  654.2366 C   0  0  0  0  0  0  0  0  0  0  0  0
  714.6443  723.6003  655.4697 O   0  0  0  0  0  0  0  0  0  0  0  0
  715.5630  722.1209  656.3824 O   0  0  0  0  0  0  0  0  0  0  0  0
  715.7467  720.9360  655.6946 C   0  0  0  0  0  0  0  0  0  0  0  0
  715.1170  721.0551  654.3149 C   0  0  2  0  0  0  0  0  0  0  0  0
  715.4061  722.3463  653.7202 N   0  0  0  0  0  0  0  0  0  0  0  0
  713.6694  720.8045  654.4283 C   0  0  0  0  0  0  0  0  0  0  0  0
  713.1889  719.5278  654.6686 O   0  0  0  0  0  0  0  0  0  0  0  0
  712.8484  721.7480  654.3076 O   0  0  0  0  0  0  0  0  0  0  0  0
  2  1  1  6
  2  4  1  0
  3  2  1  0
  4  5  1  6
  6  4  1  0
  6  7  2  0
  9  8  1  1
  9 11  1  0
 10  9  1  0
 11 12  1  1
 11 13  1  0
 12  6  1  0
 13 14  2  0
 13 18  1  0
 17 16  1  1
 16 15  1  0
 17 19  1  0
 18 17  1  0
 19 20  1  0
 21 19  2  0
M  END
$$$$
