TTS.pdb
     RDKit          3D

 21 20  0  0  1  0  0  0  0  0999 V2000
   23.7190  -11.1692  -16.0349 C   0  0  0  0  0  0  0  0  0  0  0  0
   22.7925  -11.9517  -16.8964 C   0  0  1  0  0  0  0  0  0  0  0  0
   23.2443  -13.2710  -16.9352 O   0  0  0  0  0  0  0  0  0  0  0  0
   21.3624  -11.9218  -16.4733 C   0  0  2  0  0  0  0  0  0  0  0  0
   20.5573  -12.8389  -17.2411 N   0  0  0  0  0  0  0  0  0  0  0  0
   20.7499  -10.5991  -16.4519 C   0  0  0  0  0  0  0  0  0  0  0  0
   20.3773   -9.9775  -17.4855 O   0  0  0  0  0  0  0  0  0  0  0  0
   17.8844   -9.5792  -14.5246 C   0  0  0  0  0  0  0  0  0  0  0  0
   18.9736   -8.6706  -13.9668 C   0  0  1  0  0  0  0  0  0  0  0  0
   19.3834   -9.2399  -12.7665 O   0  0  0  0  0  0  0  0  0  0  0  0
   20.0711   -8.6370  -14.9943 C   0  0  2  0  0  0  0  0  0  0  0  0
   20.5565   -9.9627  -15.1940 N   0  0  0  0  0  0  0  0  0  0  0  0
   21.1307   -7.6361  -14.7058 C   0  0  0  0  0  0  0  0  0  0  0  0
   22.1948   -8.0326  -14.1808 O   0  0  0  0  0  0  0  0  0  0  0  0
   23.1755   -3.3797  -15.4897 O   0  0  0  0  0  0  0  0  0  0  0  0
   22.1149   -4.2233  -15.7627 C   0  0  0  0  0  0  0  0  0  0  0  0
   22.0791   -5.3343  -14.7236 C   0  0  2  0  0  0  0  0  0  0  0  0
   20.9992   -6.2647  -14.9926 N   0  0  0  0  0  0  0  0  0  0  0  0
   21.9744   -4.7303  -13.3837 C   0  0  0  0  0  0  0  0  0  0  0  0
   23.1069   -4.3085  -12.7070 O   0  0  0  0  0  0  0  0  0  0  0  0
   20.8528   -4.5890  -12.8349 O   0  0  0  0  0  0  0  0  0  0  0  0
  2  1  1  1
  2  4  1  0
  3  2  1  0
  4  5  1  6
  6  4  1  0
  6  7  2  0
  9  8  1  6
  9 11  1  0
 10  9  1  0
 11 12  1  1
 11 13  1  0
 12  6  1  0
 13 14  2  0
 13 18  1  0
 17 16  1  6
 16 15  1  0
 17 19  1  0
 18 17  1  0
 19 20  1  0
 21 19  2  0
M  END
$$$$
