TTS.pdb
     RDKit          3D

 21 20  0  0  1  0  0  0  0  0999 V2000
   24.2321  -13.4081  -18.9240 C   0  0  0  0  0  0  0  0  0  0  0  0
   23.4265  -13.1756  -17.6953 C   0  0  1  0  0  0  0  0  0  0  0  0
   23.5291  -14.3081  -16.8871 O   0  0  0  0  0  0  0  0  0  0  0  0
   23.8058  -11.9633  -16.9133 C   0  0  2  0  0  0  0  0  0  0  0  0
   23.7868  -12.2140  -15.4936 N   0  0  0  0  0  0  0  0  0  0  0  0
   23.0472  -10.7594  -17.2296 C   0  0  0  0  0  0  0  0  0  0  0  0
   23.0193  -10.2230  -18.3719 O   0  0  0  0  0  0  0  0  0  0  0  0
   19.6143  -10.1330  -17.0845 C   0  0  0  0  0  0  0  0  0  0  0  0
   20.1161   -9.1850  -16.0016 C   0  0  1  0  0  0  0  0  0  0  0  0
   19.9326   -9.8409  -14.7896 O   0  0  0  0  0  0  0  0  0  0  0  0
   21.5658   -8.9211  -16.3015 C   0  0  2  0  0  0  0  0  0  0  0  0
   22.2892  -10.1450  -16.1938 N   0  0  0  0  0  0  0  0  0  0  0  0
   22.1445   -7.7991  -15.5179 C   0  0  0  0  0  0  0  0  0  0  0  0
   22.8754   -8.0728  -14.5400 O   0  0  0  0  0  0  0  0  0  0  0  0
   22.8522   -3.0482  -14.8731 O   0  0  0  0  0  0  0  0  0  0  0  0
   22.2748   -4.0255  -15.6623 C   0  0  0  0  0  0  0  0  0  0  0  0
   22.5037   -5.3862  -15.0210 C   0  0  2  0  0  0  0  0  0  0  0  0
   21.9130   -6.4440  -15.8187 N   0  0  0  0  0  0  0  0  0  0  0  0
   21.9724   -5.3607  -13.6468 C   0  0  0  0  0  0  0  0  0  0  0  0
   22.8070   -5.1114  -12.5699 O   0  0  0  0  0  0  0  0  0  0  0  0
   20.7513   -5.5654  -13.4324 O   0  0  0  0  0  0  0  0  0  0  0  0
  2  1  1  6
  2  4  1  0
  3  2  1  0
  4  5  1  1
  6  4  1  0
  6  7  2  0
  9  8  1  6
  9 11  1  0
 10  9  1  0
 11 12  1  1
 11 13  1  0
 12  6  1  0
 13 14  2  0
 13 18  1  0
 17 16  1  6
 16 15  1  0
 17 19  1  0
 18 17  1  0
 19 20  1  0
 21 19  2  0
M  END
$$$$
