TTS.pdb
     RDKit          3D

 21 20  0  0  1  0  0  0  0  0999 V2000
   24.8942  -12.7864  -15.6208 C   0  0  0  0  0  0  0  0  0  0  0  0
   24.0740  -11.6809  -16.1848 C   0  0  1  0  0  0  0  0  0  0  0  0
   24.3909  -11.5503  -17.5371 O   0  0  0  0  0  0  0  0  0  0  0  0
   22.6000  -11.8464  -16.0270 C   0  0  2  0  0  0  0  0  0  0  0  0
   22.1241  -13.0474  -16.6672 N   0  0  0  0  0  0  0  0  0  0  0  0
   21.8002  -10.6983  -16.4361 C   0  0  0  0  0  0  0  0  0  0  0  0
   20.9410  -10.7306  -17.3604 O   0  0  0  0  0  0  0  0  0  0  0  0
   19.5898   -8.9360  -14.3043 C   0  0  0  0  0  0  0  0  0  0  0  0
   19.7765   -8.5862  -15.7759 C   0  0  1  0  0  0  0  0  0  0  0  0
   18.9585   -7.4902  -16.0259 O   0  0  0  0  0  0  0  0  0  0  0  0
   21.2354   -8.2716  -15.9597 C   0  0  2  0  0  0  0  0  0  0  0  0
   21.9930   -9.4624  -15.7578 N   0  0  0  0  0  0  0  0  0  0  0  0
   21.7021   -7.1086  -15.1612 C   0  0  0  0  0  0  0  0  0  0  0  0
   21.9153   -7.2744  -13.9396 O   0  0  0  0  0  0  0  0  0  0  0  0
   22.2381   -3.3688  -16.8135 O   0  0  0  0  0  0  0  0  0  0  0  0
   23.1296   -3.7031  -15.8111 C   0  0  0  0  0  0  0  0  0  0  0  0
   22.5034   -4.7641  -14.9181 C   0  0  2  0  0  0  0  0  0  0  0  0
   21.9167   -5.8298  -15.7081 N   0  0  0  0  0  0  0  0  0  0  0  0
   21.5185   -4.1198  -14.0314 C   0  0  0  0  0  0  0  0  0  0  0  0
   21.9219   -3.2089  -13.0691 O   0  0  0  0  0  0  0  0  0  0  0  0
   20.2956   -4.3885  -14.1364 O   0  0  0  0  0  0  0  0  0  0  0  0
  2  1  1  6
  2  4  1  0
  3  2  1  0
  4  5  1  6
  6  4  1  0
  6  7  2  0
  9  8  1  1
  9 11  1  0
 10  9  1  0
 11 12  1  1
 11 13  1  0
 12  6  1  0
 13 14  2  0
 13 18  1  0
 17 16  1  6
 16 15  1  0
 17 19  1  0
 18 17  1  0
 19 20  1  0
 21 19  2  0
M  END
$$$$
