TTS.pdb
     RDKit          3D

 21 20  0  0  1  0  0  0  0  0999 V2000
   19.1854   -8.7698  -18.8797 C   0  0  0  0  0  0  0  0  0  0  0  0
   18.9696  -10.1949  -18.5122 C   0  0  1  0  0  0  0  0  0  0  0  0
   18.5433  -10.8782  -19.6513 O   0  0  0  0  0  0  0  0  0  0  0  0
   20.1581  -10.8819  -17.9286 C   0  0  2  0  0  0  0  0  0  0  0  0
   19.9317  -12.2962  -17.7629 N   0  0  0  0  0  0  0  0  0  0  0  0
   20.6670  -10.2981  -16.6936 C   0  0  0  0  0  0  0  0  0  0  0  0
   20.0830  -10.3876  -15.5781 O   0  0  0  0  0  0  0  0  0  0  0  0
   23.8876  -10.7643  -15.2314 C   0  0  0  0  0  0  0  0  0  0  0  0
   23.9051   -9.2636  -15.4971 C   0  0  1  0  0  0  0  0  0  0  0  0
   24.6553   -9.0781  -16.6528 O   0  0  0  0  0  0  0  0  0  0  0  0
   22.4716   -8.8416  -15.6653 C   0  0  2  0  0  0  0  0  0  0  0  0
   21.8959   -9.5822  -16.7391 N   0  0  0  0  0  0  0  0  0  0  0  0
   22.2891   -7.3708  -15.7715 C   0  0  0  0  0  0  0  0  0  0  0  0
   22.4071   -6.8377  -16.8971 O   0  0  0  0  0  0  0  0  0  0  0  0
   19.8786   -5.1169  -16.0385 O   0  0  0  0  0  0  0  0  0  0  0  0
   20.4563   -4.6461  -14.8741 C   0  0  0  0  0  0  0  0  0  0  0  0
   21.9057   -5.1050  -14.8137 C   0  0  2  0  0  0  0  0  0  0  0  0
   21.9904   -6.5461  -14.6711 N   0  0  0  0  0  0  0  0  0  0  0  0
   22.5850   -4.3949  -13.7158 C   0  0  0  0  0  0  0  0  0  0  0  0
   22.7559   -3.0211  -13.7604 O   0  0  0  0  0  0  0  0  0  0  0  0
   23.0198   -5.0276  -12.7211 O   0  0  0  0  0  0  0  0  0  0  0  0
  2  1  1  6
  2  4  1  0
  3  2  1  0
  4  5  1  1
  6  4  1  0
  6  7  2  0
  9  8  1  6
  9 11  1  0
 10  9  1  0
 11 12  1  6
 11 13  1  0
 12  6  1  0
 13 14  2  0
 13 18  1  0
 17 16  1  1
 16 15  1  0
 17 19  1  0
 18 17  1  0
 19 20  1  0
 21 19  2  0
M  END
$$$$
