HWV.pdb
     RDKit          3D

 32 34  0  0  1  0  0  0  0  0999 V2000
   28.5118  -21.2432  -15.1970 N   0  0  0  0  0  0  0  0  0  0  0  0
   27.8559  -20.1945  -14.4537 C   0  0  1  0  0  0  0  0  0  0  0  0
   27.1322  -19.2757  -15.4070 C   0  0  0  0  0  0  0  0  0  0  0  0
   28.0482  -18.4858  -16.2417 C   0  0  0  0  0  0  0  0  0  0  0  0
   28.3251  -18.6892  -17.5736 C   0  0  0  0  0  0  0  0  0  0  0  0
   29.1966  -17.7653  -17.9545 N   0  0  0  0  0  0  0  0  0  0  0  0
   29.4706  -16.9910  -16.8951 C   0  0  0  0  0  0  0  0  0  0  0  0
   28.7641  -17.4346  -15.8422 N   0  0  0  0  0  0  0  0  0  0  0  0
   26.8392  -20.8152  -13.5627 C   0  0  0  0  0  0  0  0  0  0  0  0
   26.2303  -21.8161  -14.0164 O   0  0  0  0  0  0  0  0  0  0  0  0
   26.5246  -20.3606  -12.2737 N   0  0  0  0  0  0  0  0  0  0  0  0
   25.4947  -20.9232  -11.4333 C   0  0  1  0  0  0  0  0  0  0  0  0
   25.5926  -20.5044  -10.0119 C   0  0  0  0  0  0  0  0  0  0  0  0
   26.9287  -20.8521   -9.4695 C   0  0  0  0  0  0  0  0  0  0  0  0
   27.9134  -21.6478  -10.0271 C   0  0  0  0  0  0  0  0  0  0  0  0
   28.9748  -21.7139   -9.2108 N   0  0  0  0  0  0  0  0  0  0  0  0
   28.7235  -20.9782   -8.1148 C   0  0  0  0  0  0  0  0  0  0  0  0
   29.4622  -20.6959   -6.9584 C   0  0  0  0  0  0  0  0  0  0  0  0
   28.9010  -19.8822   -5.9952 C   0  0  0  0  0  0  0  0  0  0  0  0
   27.6428  -19.3292   -6.1130 C   0  0  0  0  0  0  0  0  0  0  0  0
   26.9399  -19.6288   -7.2690 C   0  0  0  0  0  0  0  0  0  0  0  0
   27.4612  -20.4374   -8.2582 C   0  0  0  0  0  0  0  0  0  0  0  0
   24.1811  -20.4929  -11.9763 C   0  0  0  0  0  0  0  0  0  0  0  0
   23.9378  -19.2950  -12.2462 O   0  0  0  0  0  0  0  0  0  0  0  0
   20.2866  -21.7432  -14.5978 C   0  0  0  0  0  0  0  0  0  0  0  0
   21.6088  -22.0691  -13.9499 C   0  0  1  0  0  0  0  0  0  0  0  0
   22.7555  -21.9985  -14.9288 C   0  0  0  0  0  0  0  0  0  0  0  0
   21.8589  -21.1541  -12.7432 C   0  0  2  0  0  0  0  0  0  0  0  0
   23.1506  -21.4657  -12.2033 N   0  0  0  0  0  0  0  0  0  0  0  0
   20.7557  -21.4319  -11.7987 C   0  0  0  0  0  0  0  0  0  0  0  0
   19.8196  -20.4311  -11.5827 O   0  0  0  0  0  0  0  0  0  0  0  0
   20.6047  -22.5128  -11.1757 O   0  0  0  0  0  0  0  0  0  0  0  0
  2  3  1  0
  2  1  1  6
  3  4  1  0
  4  8  1  0
  4  5  2  0
  5  6  1  0
  7  6  1  0
  8  7  2  0
  9 10  2  0
  9  2  1  0
 11  9  1  0
 12 11  1  0
 12 13  1  1
 13 14  1  0
 14 22  1  0
 14 15  2  0
 15 16  1  0
 17 16  1  0
 17 18  2  0
 19 18  1  0
 20 19  2  0
 21 20  1  0
 21 22  2  0
 22 17  1  0
 23 29  1  0
 23 12  1  0
 24 23  2  0
 26 28  1  0
 26 25  1  6
 27 26  1  0
 28 29  1  1
 28 30  1  0
 30 31  1  0
 32 30  2  0
M  END
$$$$
