HWV.pdb
     RDKit          3D

 32 34  0  0  1  0  0  0  0  0999 V2000
   28.1079  -21.6206  -14.2670 N   0  0  0  0  0  0  0  0  0  0  0  0
   27.5586  -20.4656  -13.5986 C   0  0  1  0  0  0  0  0  0  0  0  0
   26.7613  -19.6442  -14.5818 C   0  0  0  0  0  0  0  0  0  0  0  0
   27.6082  -18.9493  -15.5613 C   0  0  0  0  0  0  0  0  0  0  0  0
   28.4439  -17.8853  -15.3137 C   0  0  0  0  0  0  0  0  0  0  0  0
   29.0296  -17.5524  -16.4558 N   0  0  0  0  0  0  0  0  0  0  0  0
   28.5811  -18.3810  -17.4093 C   0  0  0  0  0  0  0  0  0  0  0  0
   27.7071  -19.2397  -16.8586 N   0  0  0  0  0  0  0  0  0  0  0  0
   26.6260  -20.9350  -12.5390 C   0  0  0  0  0  0  0  0  0  0  0  0
   25.9212  -21.9378  -12.8145 O   0  0  0  0  0  0  0  0  0  0  0  0
   26.4879  -20.3387  -11.2771 N   0  0  0  0  0  0  0  0  0  0  0  0
   25.5229  -20.7390  -10.2811 C   0  0  1  0  0  0  0  0  0  0  0  0
   25.7646  -20.1391   -8.9442 C   0  0  0  0  0  0  0  0  0  0  0  0
   27.1133  -20.5144   -8.4540 C   0  0  0  0  0  0  0  0  0  0  0  0
   28.1596  -21.0965   -9.1471 C   0  0  0  0  0  0  0  0  0  0  0  0
   29.2105  -21.2786   -8.3349 N   0  0  0  0  0  0  0  0  0  0  0  0
   28.8918  -20.8304   -7.1088 C   0  0  0  0  0  0  0  0  0  0  0  0
   29.5914  -20.7726   -5.8963 C   0  0  0  0  0  0  0  0  0  0  0  0
   28.9601  -20.2384   -4.7914 C   0  0  0  0  0  0  0  0  0  0  0  0
   27.6682  -19.7556   -4.8193 C   0  0  0  0  0  0  0  0  0  0  0  0
   27.0056  -19.8280   -6.0341 C   0  0  0  0  0  0  0  0  0  0  0  0
   27.5971  -20.3538   -7.1645 C   0  0  0  0  0  0  0  0  0  0  0  0
   24.1789  -20.3283  -10.7611 C   0  0  0  0  0  0  0  0  0  0  0  0
   23.9628  -19.1851  -11.2230 O   0  0  0  0  0  0  0  0  0  0  0  0
   20.2779  -21.5789  -13.1551 C   0  0  0  0  0  0  0  0  0  0  0  0
   21.6337  -21.8115  -12.5370 C   0  0  1  0  0  0  0  0  0  0  0  0
   22.7573  -21.5100  -13.4987 C   0  0  0  0  0  0  0  0  0  0  0  0
   21.7840  -20.9989  -11.2436 C   0  0  2  0  0  0  0  0  0  0  0  0
   23.0860  -21.2565  -10.7000 N   0  0  0  0  0  0  0  0  0  0  0  0
   20.6888  -21.4528  -10.3599 C   0  0  0  0  0  0  0  0  0  0  0  0
   19.6374  -20.5778  -10.1285 O   0  0  0  0  0  0  0  0  0  0  0  0
   20.6420  -22.5776   -9.8016 O   0  0  0  0  0  0  0  0  0  0  0  0
  2  3  1  0
  2  1  1  6
  3  4  1  0
  4  8  1  0
  4  5  2  0
  5  6  1  0
  7  6  1  0
  8  7  2  0
  9 10  2  0
  9  2  1  0
 11  9  1  0
 12 11  1  0
 12 13  1  1
 13 14  1  0
 14 22  1  0
 14 15  2  0
 15 16  1  0
 17 16  1  0
 17 18  2  0
 19 18  1  0
 20 19  2  0
 21 20  1  0
 21 22  2  0
 22 17  1  0
 23 29  1  0
 23 12  1  0
 24 23  2  0
 26 28  1  0
 26 25  1  6
 27 26  1  0
 28 29  1  1
 28 30  1  0
 30 31  1  0
 32 30  2  0
M  END
$$$$
