HWV.pdb
     RDKit          3D

 32 34  0  0  1  0  0  0  0  0999 V2000
   27.5894  -21.3382  -14.8408 N   0  0  0  0  0  0  0  0  0  0  0  0
   27.2414  -20.2104  -14.0104 C   0  0  1  0  0  0  0  0  0  0  0  0
   26.0902  -19.4599  -14.6335 C   0  0  0  0  0  0  0  0  0  0  0  0
   26.4868  -18.6969  -15.8251 C   0  0  0  0  0  0  0  0  0  0  0  0
   27.7709  -18.3982  -16.2174 C   0  0  0  0  0  0  0  0  0  0  0  0
   27.7016  -17.6987  -17.3417 N   0  0  0  0  0  0  0  0  0  0  0  0
   26.4078  -17.5532  -17.6610 C   0  0  0  0  0  0  0  0  0  0  0  0
   25.6614  -18.1672  -16.7281 N   0  0  0  0  0  0  0  0  0  0  0  0
   26.7870  -20.7218  -12.6895 C   0  0  0  0  0  0  0  0  0  0  0  0
   25.8869  -21.5981  -12.7054 O   0  0  0  0  0  0  0  0  0  0  0  0
   27.2912  -20.2942  -11.4525 N   0  0  0  0  0  0  0  0  0  0  0  0
   26.7890  -20.7225  -10.1688 C   0  0  1  0  0  0  0  0  0  0  0  0
   27.6784  -20.3671   -9.0338 C   0  0  0  0  0  0  0  0  0  0  0  0
   26.9921  -20.6339   -7.7462 C   0  0  0  0  0  0  0  0  0  0  0  0
   25.8534  -21.3821   -7.5065 C   0  0  0  0  0  0  0  0  0  0  0  0
   25.5562  -21.3698   -6.1992 N   0  0  0  0  0  0  0  0  0  0  0  0
   26.4727  -20.6279   -5.5547 C   0  0  0  0  0  0  0  0  0  0  0  0
   26.6517  -20.2794   -4.2096 C   0  0  0  0  0  0  0  0  0  0  0  0
   27.7240  -19.4801   -3.8688 C   0  0  0  0  0  0  0  0  0  0  0  0
   28.6339  -19.0037   -4.7896 C   0  0  0  0  0  0  0  0  0  0  0  0
   28.4272  -19.3675   -6.1106 C   0  0  0  0  0  0  0  0  0  0  0  0
   27.3692  -20.1646   -6.4971 C   0  0  0  0  0  0  0  0  0  0  0  0
   25.4637  -20.0843   -9.9646 C   0  0  0  0  0  0  0  0  0  0  0  0
   25.3507  -18.8677   -9.6927 O   0  0  0  0  0  0  0  0  0  0  0  0
   22.9278  -19.6404  -12.3409 C   0  0  0  0  0  0  0  0  0  0  0  0
   22.2300  -20.4695  -11.2921 C   0  0  1  0  0  0  0  0  0  0  0  0
   22.1037  -21.9168  -11.7015 C   0  0  0  0  0  0  0  0  0  0  0  0
   22.9435  -20.3409   -9.9393 C   0  0  2  0  0  0  0  0  0  0  0  0
   24.2688  -20.8712  -10.0782 N   0  0  0  0  0  0  0  0  0  0  0  0
   22.1147  -21.1012   -8.9793 C   0  0  0  0  0  0  0  0  0  0  0  0
   20.9212  -20.5318   -8.5600 O   0  0  0  0  0  0  0  0  0  0  0  0
   22.4148  -22.2296   -8.5147 O   0  0  0  0  0  0  0  0  0  0  0  0
  2  3  1  0
  2  1  1  6
  3  4  1  0
  4  8  1  0
  4  5  2  0
  5  6  1  0
  7  6  1  0
  8  7  2  0
  9 10  2  0
  9  2  1  0
 11  9  1  0
 12 11  1  0
 12 13  1  1
 13 14  1  0
 14 22  1  0
 14 15  2  0
 15 16  1  0
 17 16  1  0
 17 18  2  0
 19 18  1  0
 20 19  2  0
 21 20  1  0
 21 22  2  0
 22 17  1  0
 23 29  1  0
 23 12  1  0
 24 23  2  0
 26 28  1  0
 26 25  1  6
 27 26  1  0
 28 29  1  6
 28 30  1  0
 30 31  1  0
 32 30  2  0
M  END
$$$$
