HWV.pdb
     RDKit          3D

 32 34  0  0  1  0  0  0  0  0999 V2000
   26.3757  -19.2504  -19.1608 N   0  0  0  0  0  0  0  0  0  0  0  0
   26.1453  -18.3960  -18.0209 C   0  0  1  0  0  0  0  0  0  0  0  0
   25.0119  -17.4463  -18.3217 C   0  0  0  0  0  0  0  0  0  0  0  0
   25.3904  -16.3915  -19.2721 C   0  0  0  0  0  0  0  0  0  0  0  0
   25.0093  -16.3008  -20.5907 C   0  0  0  0  0  0  0  0  0  0  0  0
   25.5590  -15.2068  -21.0997 N   0  0  0  0  0  0  0  0  0  0  0  0
   26.2730  -14.6126  -20.1331 C   0  0  0  0  0  0  0  0  0  0  0  0
   26.1689  -15.3416  -19.0097 N   0  0  0  0  0  0  0  0  0  0  0  0
   25.7317  -19.2460  -16.8723 C   0  0  0  0  0  0  0  0  0  0  0  0
   24.9256  -20.1763  -17.1232 O   0  0  0  0  0  0  0  0  0  0  0  0
   26.1771  -19.0758  -15.5533 N   0  0  0  0  0  0  0  0  0  0  0  0
   25.7490  -19.8781  -14.4323 C   0  0  1  0  0  0  0  0  0  0  0  0
   26.6696  -19.8130  -13.2687 C   0  0  0  0  0  0  0  0  0  0  0  0
   26.1864  -20.7052  -12.1867 C   0  0  0  0  0  0  0  0  0  0  0  0
   25.8247  -22.0387  -12.2557 C   0  0  0  0  0  0  0  0  0  0  0  0
   25.4369  -22.4778  -11.0498 N   0  0  0  0  0  0  0  0  0  0  0  0
   25.5306  -21.4658  -10.1708 C   0  0  0  0  0  0  0  0  0  0  0  0
   25.2614  -21.3571   -8.8002 C   0  0  0  0  0  0  0  0  0  0  0  0
   25.4682  -20.1426   -8.1781 C   0  0  0  0  0  0  0  0  0  0  0  0
   25.9292  -19.0235   -8.8399 C   0  0  0  0  0  0  0  0  0  0  0  0
   26.1854  -19.1661  -10.1942 C   0  0  0  0  0  0  0  0  0  0  0  0
   25.9931  -20.3608  -10.8575 C   0  0  0  0  0  0  0  0  0  0  0  0
   24.4071  -19.3968  -14.0164 C   0  0  0  0  0  0  0  0  0  0  0  0
   24.1838  -18.1891  -13.7743 O   0  0  0  0  0  0  0  0  0  0  0  0
   21.2686  -19.1334  -15.5929 C   0  0  0  0  0  0  0  0  0  0  0  0
   21.0069  -20.1415  -14.5022 C   0  0  1  0  0  0  0  0  0  0  0  0
   20.9886  -21.5565  -15.0271 C   0  0  0  0  0  0  0  0  0  0  0  0
   22.0305  -19.9886  -13.3687 C   0  0  2  0  0  0  0  0  0  0  0  0
   23.3249  -20.3301  -13.8833 N   0  0  0  0  0  0  0  0  0  0  0  0
   21.5758  -20.9006  -12.2973 C   0  0  0  0  0  0  0  0  0  0  0  0
   22.2081  -22.1299  -12.1805 O   0  0  0  0  0  0  0  0  0  0  0  0
   20.6549  -20.6413  -11.4825 O   0  0  0  0  0  0  0  0  0  0  0  0
  2  3  1  0
  2  1  1  6
  3  4  1  0
  4  8  1  0
  4  5  2  0
  5  6  1  0
  7  6  1  0
  8  7  2  0
  9 10  2  0
  9  2  1  0
 11  9  1  0
 12 11  1  0
 12 13  1  1
 13 14  1  0
 14 22  1  0
 14 15  2  0
 15 16  1  0
 17 16  1  0
 17 18  2  0
 19 18  1  0
 20 19  2  0
 21 20  1  0
 21 22  2  0
 22 17  1  0
 23 29  1  0
 23 12  1  0
 24 23  2  0
 26 28  1  0
 26 25  1  6
 27 26  1  0
 28 29  1  6
 28 30  1  0
 30 31  1  0
 32 30  2  0
M  END
$$$$
