HWV.pdb
     RDKit          3D

 32 34  0  0  1  0  0  0  0  0999 V2000
   27.3666  -20.0751  -17.6825 N   0  0  0  0  0  0  0  0  0  0  0  0
   26.3592  -20.9745  -17.1739 C   0  0  1  0  0  0  0  0  0  0  0  0
   26.4042  -22.2715  -17.9438 C   0  0  0  0  0  0  0  0  0  0  0  0
   26.2538  -22.0786  -19.3927 C   0  0  0  0  0  0  0  0  0  0  0  0
   25.1140  -21.6827  -20.0531 C   0  0  0  0  0  0  0  0  0  0  0  0
   25.3917  -21.6268  -21.3484 N   0  0  0  0  0  0  0  0  0  0  0  0
   26.6750  -21.9774  -21.5133 C   0  0  0  0  0  0  0  0  0  0  0  0
   27.2045  -22.2551  -20.3105 N   0  0  0  0  0  0  0  0  0  0  0  0
   26.6759  -21.2798  -15.7528 C   0  0  0  0  0  0  0  0  0  0  0  0
   26.3790  -22.4306  -15.3456 O   0  0  0  0  0  0  0  0  0  0  0  0
   27.2730  -20.3800  -14.8578 N   0  0  0  0  0  0  0  0  0  0  0  0
   27.4325  -20.6140  -13.4424 C   0  0  1  0  0  0  0  0  0  0  0  0
   28.6419  -19.9729  -12.8664 C   0  0  0  0  0  0  0  0  0  0  0  0
   29.6965  -20.9902  -12.6359 C   0  0  0  0  0  0  0  0  0  0  0  0
   30.3134  -21.8257  -13.5497 C   0  0  0  0  0  0  0  0  0  0  0  0
   31.2129  -22.6054  -12.9328 N   0  0  0  0  0  0  0  0  0  0  0  0
   31.2132  -22.3107  -11.6218 C   0  0  0  0  0  0  0  0  0  0  0  0
   31.9365  -22.8033  -10.5276 C   0  0  0  0  0  0  0  0  0  0  0  0
   31.6914  -22.2722   -9.2776 C   0  0  0  0  0  0  0  0  0  0  0  0
   30.7658  -21.2755   -9.0483 C   0  0  0  0  0  0  0  0  0  0  0  0
   30.0685  -20.8115  -10.1522 C   0  0  0  0  0  0  0  0  0  0  0  0
   30.2804  -21.3128  -11.4202 C   0  0  0  0  0  0  0  0  0  0  0  0
   26.2279  -20.0812  -12.7563 C   0  0  0  0  0  0  0  0  0  0  0  0
   25.8742  -18.8863  -12.8743 O   0  0  0  0  0  0  0  0  0  0  0  0
   21.8259  -20.7363  -10.9643 C   0  0  0  0  0  0  0  0  0  0  0  0
   23.0537  -21.2015  -11.7062 C   0  0  1  0  0  0  0  0  0  0  0  0
   22.9305  -20.9963  -13.1964 C   0  0  0  0  0  0  0  0  0  0  0  0
   24.3099  -20.5107  -11.1580 C   0  0  2  0  0  0  0  0  0  0  0  0
   25.4364  -20.9480  -11.9305 N   0  0  0  0  0  0  0  0  0  0  0  0
   24.3943  -20.9096   -9.7366 C   0  0  0  0  0  0  0  0  0  0  0  0
   23.6768  -20.1661   -8.8109 O   0  0  0  0  0  0  0  0  0  0  0  0
   25.0713  -21.8766   -9.3058 O   0  0  0  0  0  0  0  0  0  0  0  0
  2  3  1  0
  2  1  1  6
  3  4  1  0
  4  8  1  0
  4  5  2  0
  5  6  1  0
  7  6  1  0
  8  7  2  0
  9 10  2  0
  9  2  1  0
 11  9  1  0
 12 11  1  0
 12 13  1  1
 13 14  1  0
 14 22  1  0
 14 15  2  0
 15 16  1  0
 17 16  1  0
 17 18  2  0
 19 18  1  0
 20 19  2  0
 21 20  1  0
 21 22  2  0
 22 17  1  0
 23 29  1  0
 23 12  1  0
 24 23  2  0
 26 28  1  0
 26 25  1  1
 27 26  1  0
 28 29  1  6
 28 30  1  0
 30 31  1  0
 32 30  2  0
M  END
$$$$
