HWV.pdb
     RDKit          3D

 32 34  0  0  1  0  0  0  0  0999 V2000
   27.6027  -24.2083  -16.8800 N   0  0  0  0  0  0  0  0  0  0  0  0
   27.5451  -22.7825  -16.6651 C   0  0  1  0  0  0  0  0  0  0  0  0
   26.7409  -22.1372  -17.7668 C   0  0  0  0  0  0  0  0  0  0  0  0
   27.5015  -21.9906  -19.0155 C   0  0  0  0  0  0  0  0  0  0  0  0
   28.4984  -21.0764  -19.2656 C   0  0  0  0  0  0  0  0  0  0  0  0
   28.9298  -21.2721  -20.5040 N   0  0  0  0  0  0  0  0  0  0  0  0
   28.2282  -22.2845  -21.0330 C   0  0  0  0  0  0  0  0  0  0  0  0
   27.3501  -22.7258  -20.1172 N   0  0  0  0  0  0  0  0  0  0  0  0
   26.8392  -22.5289  -15.3805 C   0  0  0  0  0  0  0  0  0  0  0  0
   25.8708  -23.2832  -15.1129 O   0  0  0  0  0  0  0  0  0  0  0  0
   27.1811  -21.5197  -14.4684 N   0  0  0  0  0  0  0  0  0  0  0  0
   26.5532  -21.3277  -13.1829 C   0  0  1  0  0  0  0  0  0  0  0  0
   27.3289  -20.4529  -12.2672 C   0  0  0  0  0  0  0  0  0  0  0  0
   26.6625  -20.3830  -10.9439 C   0  0  0  0  0  0  0  0  0  0  0  0
   25.3405  -20.1011  -10.6498 C   0  0  0  0  0  0  0  0  0  0  0  0
   25.1428  -20.1317   -9.3241 N   0  0  0  0  0  0  0  0  0  0  0  0
   26.3060  -20.4287   -8.7205 C   0  0  0  0  0  0  0  0  0  0  0  0
   26.6778  -20.5885   -7.3792 C   0  0  0  0  0  0  0  0  0  0  0  0
   27.9900  -20.9011   -7.0876 C   0  0  0  0  0  0  0  0  0  0  0  0
   28.9603  -21.0653   -8.0542 C   0  0  0  0  0  0  0  0  0  0  0  0
   28.5585  -20.9001   -9.3700 C   0  0  0  0  0  0  0  0  0  0  0  0
   27.2577  -20.5875   -9.7082 C   0  0  0  0  0  0  0  0  0  0  0  0
   25.2176  -20.7220  -13.4167 C   0  0  0  0  0  0  0  0  0  0  0  0
   25.0864  -19.5937  -13.9428 O   0  0  0  0  0  0  0  0  0  0  0  0
   20.5212  -21.3973  -14.3285 C   0  0  0  0  0  0  0  0  0  0  0  0
   21.9427  -21.8663  -14.1453 C   0  0  1  0  0  0  0  0  0  0  0  0
   22.6693  -22.0088  -15.4606 C   0  0  0  0  0  0  0  0  0  0  0  0
   22.7024  -20.9295  -13.1961 C   0  0  2  0  0  0  0  0  0  0  0  0
   24.0338  -21.4375  -13.0339 N   0  0  0  0  0  0  0  0  0  0  0  0
   21.9277  -20.9268  -11.9366 C   0  0  0  0  0  0  0  0  0  0  0  0
   21.1262  -19.8261  -11.6708 O   0  0  0  0  0  0  0  0  0  0  0  0
   21.9434  -21.8527  -11.0872 O   0  0  0  0  0  0  0  0  0  0  0  0
  2  3  1  0
  2  1  1  6
  3  4  1  0
  4  8  1  0
  4  5  2  0
  5  6  1  0
  7  6  1  0
  8  7  2  0
  9 10  2  0
  9  2  1  0
 11  9  1  0
 12 11  1  0
 12 13  1  1
 13 14  1  0
 14 22  1  0
 14 15  2  0
 15 16  1  0
 17 16  1  0
 17 18  2  0
 19 18  1  0
 20 19  2  0
 21 20  1  0
 21 22  2  0
 22 17  1  0
 23 29  1  0
 23 12  1  0
 24 23  2  0
 26 28  1  0
 26 25  1  6
 27 26  1  0
 28 29  1  1
 28 30  1  0
 30 31  1  0
 32 30  2  0
M  END
$$$$
