HWV.pdb
     RDKit          3D

 32 34  0  0  1  0  0  0  0  0999 V2000
   32.7526  -23.9827  -17.5322 N   0  0  0  0  0  0  0  0  0  0  0  0
   31.9923  -25.2080  -17.4755 C   0  0  1  0  0  0  0  0  0  0  0  0
   30.6807  -25.0230  -18.1983 C   0  0  0  0  0  0  0  0  0  0  0  0
   29.7805  -24.0854  -17.5127 C   0  0  0  0  0  0  0  0  0  0  0  0
   29.8156  -23.7402  -16.1817 C   0  0  0  0  0  0  0  0  0  0  0  0
   28.8408  -22.8690  -15.9606 N   0  0  0  0  0  0  0  0  0  0  0  0
   28.1985  -22.6617  -17.1189 C   0  0  0  0  0  0  0  0  0  0  0  0
   28.7769  -23.4100  -18.0728 N   0  0  0  0  0  0  0  0  0  0  0  0
   32.7559  -26.2683  -18.1865 C   0  0  0  0  0  0  0  0  0  0  0  0
   33.4780  -25.8946  -19.1442 O   0  0  0  0  0  0  0  0  0  0  0  0
   32.7198  -27.6319  -17.8601 N   0  0  0  0  0  0  0  0  0  0  0  0
   33.4801  -28.6577  -18.5333 C   0  0  1  0  0  0  0  0  0  0  0  0
   33.8320  -29.8063  -17.6602 C   0  0  0  0  0  0  0  0  0  0  0  0
   34.7791  -30.7073  -18.3612 C   0  0  0  0  0  0  0  0  0  0  0  0
   36.0071  -30.4097  -18.9245 C   0  0  0  0  0  0  0  0  0  0  0  0
   36.5471  -31.5095  -19.4690 N   0  0  0  0  0  0  0  0  0  0  0  0
   35.7064  -32.5411  -19.2830 C   0  0  0  0  0  0  0  0  0  0  0  0
   35.7570  -33.8959  -19.6361 C   0  0  0  0  0  0  0  0  0  0  0  0
   34.7003  -34.7121  -19.2868 C   0  0  0  0  0  0  0  0  0  0  0  0
   33.5903  -34.2602  -18.6038 C   0  0  0  0  0  0  0  0  0  0  0  0
   33.5729  -32.9154  -18.2702 C   0  0  0  0  0  0  0  0  0  0  0  0
   34.6067  -32.0625  -18.5988 C   0  0  0  0  0  0  0  0  0  0  0  0
   32.6678  -29.1480  -19.6758 C   0  0  0  0  0  0  0  0  0  0  0  0
   31.4454  -29.3923  -19.5611 O   0  0  0  0  0  0  0  0  0  0  0  0
   32.4858  -27.5287  -23.1686 C   0  0  0  0  0  0  0  0  0  0  0  0
   33.0247  -28.9302  -23.3088 C   0  0  1  0  0  0  0  0  0  0  0  0
   34.5257  -28.9499  -23.4663 C   0  0  0  0  0  0  0  0  0  0  0  0
   32.5848  -29.7991  -22.1226 C   0  0  2  0  0  0  0  0  0  0  0  0
   33.2869  -29.3530  -20.9542 N   0  0  0  0  0  0  0  0  0  0  0  0
   32.9194  -31.1885  -22.5023 C   0  0  0  0  0  0  0  0  0  0  0  0
   31.9552  -31.9278  -23.1717 O   0  0  0  0  0  0  0  0  0  0  0  0
   34.0179  -31.7492  -22.2615 O   0  0  0  0  0  0  0  0  0  0  0  0
  2  3  1  0
  2  1  1  6
  3  4  1  0
  4  8  1  0
  4  5  2  0
  5  6  1  0
  7  6  1  0
  8  7  2  0
  9 10  2  0
  9  2  1  0
 11  9  1  0
 12 11  1  0
 12 13  1  1
 13 14  1  0
 14 22  1  0
 14 15  2  0
 15 16  1  0
 17 16  1  0
 17 18  2  0
 19 18  1  0
 20 19  2  0
 21 20  1  0
 21 22  2  0
 22 17  1  0
 23 29  1  0
 23 12  1  0
 24 23  2  0
 26 28  1  0
 26 25  1  1
 27 26  1  0
 28 29  1  1
 28 30  1  0
 30 31  1  0
 32 30  2  0
M  END
$$$$
