NKV.pdb
     RDKit          3D

 25 24  0  0  1  0  0  0  0  0999 V2000
    7.9215  -12.5662   17.5647 N   0  0  0  0  0  0  0  0  0  0  0  0
    8.5817  -13.3413   18.5379 C   0  0  0  0  0  0  0  0  0  0  0  0
    9.7821  -13.6795   18.3841 O   0  0  0  0  0  0  0  0  0  0  0  0
    7.8707  -13.7819   19.7797 C   0  0  0  0  0  0  0  0  0  0  0  0
    7.9085  -15.2805   19.9289 C   0  0  2  0  0  0  0  0  0  0  0  0
    7.0712  -15.8666   18.9104 N   0  0  0  0  0  0  0  0  0  0  0  0
    7.3501  -15.6334   21.2560 C   0  0  0  0  0  0  0  0  0  0  0  0
    6.0986  -15.5160   21.4162 O   0  0  0  0  0  0  0  0  0  0  0  0
    8.1399  -16.0917   22.3459 N   0  0  0  0  0  0  0  0  0  0  0  0
    7.6001  -16.3788   23.6590 C   0  0  1  0  0  0  0  0  0  0  0  0
    8.0006  -17.7927   24.0218 C   0  0  0  0  0  0  0  0  0  0  0  0
    7.5567  -18.1158   25.4088 C   0  0  0  0  0  0  0  0  0  0  0  0
    8.0507  -19.5066   25.7452 C   0  0  0  0  0  0  0  0  0  0  0  0
    7.5775  -19.9643   27.1070 C   0  0  0  0  0  0  0  0  0  0  0  0
    8.1543  -21.2961   27.3116 N   0  0  0  0  0  0  0  0  0  0  0  0
    8.1006  -15.3831   24.6051 C   0  0  0  0  0  0  0  0  0  0  0  0
    9.3356  -15.1865   24.7415 O   0  0  0  0  0  0  0  0  0  0  0  0
    6.0855  -11.9173   25.6769 C   0  0  0  0  0  0  0  0  0  0  0  0
    6.7176  -12.6395   26.8408 C   0  0  2  0  0  0  0  0  0  0  0  0
    7.2203  -11.6614   27.8530 C   0  0  0  0  0  0  0  0  0  0  0  0
    7.7784  -13.6146   26.3826 C   0  0  2  0  0  0  0  0  0  0  0  0
    7.2561  -14.5730   25.4307 N   0  0  0  0  0  0  0  0  0  0  0  0
    8.2628  -14.3498   27.5625 C   0  0  0  0  0  0  0  0  0  0  0  0
    9.2532  -13.8073   28.3496 O   0  0  0  0  0  0  0  0  0  0  0  0
    7.7888  -15.4665   27.8668 O   0  0  0  0  0  0  0  0  0  0  0  0
  2  1  1  0
  2  3  2  0
  4  2  1  0
  5  4  1  0
  5  6  1  6
  7  5  1  0
  7  8  2  0
  9  7  1  0
 10  9  1  0
 10 11  1  1
 12 11  1  0
 13 12  1  0
 13 14  1  0
 14 15  1  0
 16 10  1  0
 17 16  2  0
 19 18  1  6
 20 19  1  0
 21 19  1  0
 21 22  1  6
 22 16  1  0
 23 24  1  0
 23 21  1  0
 25 23  2  0
M  END
$$$$
