NKV.pdb
     RDKit          3D

 25 24  0  0  1  0  0  0  0  0999 V2000
    7.6837  -12.4341   17.5551 N   0  0  0  0  0  0  0  0  0  0  0  0
    7.7447  -13.7411   18.0764 C   0  0  0  0  0  0  0  0  0  0  0  0
    8.1811  -14.6912   17.3791 O   0  0  0  0  0  0  0  0  0  0  0  0
    7.2916  -14.0320   19.4735 C   0  0  0  0  0  0  0  0  0  0  0  0
    8.3619  -14.7450   20.2581 C   0  0  2  0  0  0  0  0  0  0  0  0
    8.5891  -16.0377   19.6589 N   0  0  0  0  0  0  0  0  0  0  0  0
    7.8709  -14.9488   21.6419 C   0  0  0  0  0  0  0  0  0  0  0  0
    7.2802  -13.9788   22.2038 O   0  0  0  0  0  0  0  0  0  0  0  0
    8.0280  -16.1647   22.3620 N   0  0  0  0  0  0  0  0  0  0  0  0
    7.5463  -16.3609   23.7138 C   0  0  1  0  0  0  0  0  0  0  0  0
    7.7325  -17.8224   24.0608 C   0  0  0  0  0  0  0  0  0  0  0  0
    6.4173  -18.5263   24.0563 C   0  0  0  0  0  0  0  0  0  0  0  0
    6.6545  -19.9564   23.6202 C   0  0  0  0  0  0  0  0  0  0  0  0
    5.3787  -20.7690   23.6168 C   0  0  0  0  0  0  0  0  0  0  0  0
    5.7217  -22.0621   23.0183 N   0  0  0  0  0  0  0  0  0  0  0  0
    8.2733  -15.4642   24.6108 C   0  0  0  0  0  0  0  0  0  0  0  0
    9.5266  -15.3718   24.5539 O   0  0  0  0  0  0  0  0  0  0  0  0
    6.3289  -12.7920   27.5021 C   0  0  0  0  0  0  0  0  0  0  0  0
    7.6492  -12.5174   26.8259 C   0  0  2  0  0  0  0  0  0  0  0  0
    7.4529  -11.6422   25.6304 C   0  0  0  0  0  0  0  0  0  0  0  0
    8.3894  -13.7968   26.5074 C   0  0  2  0  0  0  0  0  0  0  0  0
    7.6423  -14.6412   25.5984 N   0  0  0  0  0  0  0  0  0  0  0  0
    8.5895  -14.5337   27.7662 C   0  0  0  0  0  0  0  0  0  0  0  0
    9.4189  -14.0199   28.7372 O   0  0  0  0  0  0  0  0  0  0  0  0
    8.0165  -15.6261   27.9728 O   0  0  0  0  0  0  0  0  0  0  0  0
  2  1  1  0
  2  3  2  0
  4  2  1  0
  5  4  1  0
  5  6  1  6
  7  5  1  0
  7  8  2  0
  9  7  1  0
 10  9  1  0
 10 11  1  1
 12 11  1  0
 13 12  1  0
 13 14  1  0
 14 15  1  0
 16 10  1  0
 17 16  2  0
 19 18  1  6
 20 19  1  0
 21 19  1  0
 21 22  1  6
 22 16  1  0
 23 24  1  0
 23 21  1  0
 25 23  2  0
M  END
$$$$
