NKV.pdb
     RDKit          3D

 25 24  0  0  1  0  0  0  0  0999 V2000
    7.8182  -12.4544   17.4158 N   0  0  0  0  0  0  0  0  0  0  0  0
    8.3767  -13.3614   18.3373 C   0  0  0  0  0  0  0  0  0  0  0  0
    9.5166  -13.8537   18.1440 O   0  0  0  0  0  0  0  0  0  0  0  0
    7.6272  -13.7619   19.5701 C   0  0  0  0  0  0  0  0  0  0  0  0
    7.9128  -15.1934   19.9427 C   0  0  2  0  0  0  0  0  0  0  0  0
    7.1978  -16.0576   19.0352 N   0  0  0  0  0  0  0  0  0  0  0  0
    7.4047  -15.4304   21.3151 C   0  0  0  0  0  0  0  0  0  0  0  0
    6.1880  -15.1615   21.5449 O   0  0  0  0  0  0  0  0  0  0  0  0
    8.2056  -15.9387   22.3743 N   0  0  0  0  0  0  0  0  0  0  0  0
    7.7050  -16.1731   23.7131 C   0  0  1  0  0  0  0  0  0  0  0  0
    8.0330  -17.6037   24.0827 C   0  0  0  0  0  0  0  0  0  0  0  0
    9.4412  -17.7031   24.5647 C   0  0  0  0  0  0  0  0  0  0  0  0
   10.2336  -18.4795   23.5348 C   0  0  0  0  0  0  0  0  0  0  0  0
   11.6573  -18.7280   23.9815 C   0  0  0  0  0  0  0  0  0  0  0  0
   11.5951  -19.8342   24.9410 N   0  0  0  0  0  0  0  0  0  0  0  0
    8.3052  -15.1970   24.6210 C   0  0  0  0  0  0  0  0  0  0  0  0
    9.5393  -14.9565   24.5852 O   0  0  0  0  0  0  0  0  0  0  0  0
    5.9538  -12.8358   27.4108 C   0  0  0  0  0  0  0  0  0  0  0  0
    7.2290  -12.3334   26.7806 C   0  0  2  0  0  0  0  0  0  0  0  0
    6.9244  -11.4729   25.5972 C   0  0  0  0  0  0  0  0  0  0  0  0
    8.1768  -13.4669   26.4598 C   0  0  2  0  0  0  0  0  0  0  0  0
    7.5642  -14.4554   25.5967 N   0  0  0  0  0  0  0  0  0  0  0  0
    8.5491  -14.1223   27.7244 C   0  0  0  0  0  0  0  0  0  0  0  0
    8.1752  -15.4265   27.9569 O   0  0  0  0  0  0  0  0  0  0  0  0
    9.2036  -13.5132   28.5990 O   0  0  0  0  0  0  0  0  0  0  0  0
  2  1  1  0
  2  3  2  0
  4  2  1  0
  5  4  1  0
  5  6  1  6
  7  5  1  0
  7  8  2  0
  9  7  1  0
 10  9  1  0
 10 11  1  1
 12 11  1  0
 13 12  1  0
 13 14  1  0
 14 15  1  0
 16 10  1  0
 17 16  2  0
 19 18  1  6
 20 19  1  0
 21 19  1  0
 21 22  1  6
 22 16  1  0
 23 24  1  0
 23 21  1  0
 25 23  2  0
M  END
$$$$
