NKV.pdb
     RDKit          3D

 25 24  0  0  1  0  0  0  0  0999 V2000
   13.0241  -15.8076   19.0612 N   0  0  0  0  0  0  0  0  0  0  0  0
   12.6441  -14.5582   19.5889 C   0  0  0  0  0  0  0  0  0  0  0  0
   13.3925  -13.5559   19.4696 O   0  0  0  0  0  0  0  0  0  0  0  0
   11.3397  -14.3925   20.3051 C   0  0  0  0  0  0  0  0  0  0  0  0
   10.5608  -15.6818   20.3279 C   0  0  2  0  0  0  0  0  0  0  0  0
    9.8185  -15.7939   19.0957 N   0  0  0  0  0  0  0  0  0  0  0  0
    9.5973  -15.6271   21.4531 C   0  0  0  0  0  0  0  0  0  0  0  0
    8.5615  -14.9124   21.3045 O   0  0  0  0  0  0  0  0  0  0  0  0
    9.7752  -16.3286   22.6770 N   0  0  0  0  0  0  0  0  0  0  0  0
    8.7589  -16.4120   23.7055 C   0  0  1  0  0  0  0  0  0  0  0  0
    8.8428  -17.7908   24.3242 C   0  0  0  0  0  0  0  0  0  0  0  0
    7.8557  -17.9197   25.4352 C   0  0  0  0  0  0  0  0  0  0  0  0
    7.9518  -19.3271   25.9844 C   0  0  0  0  0  0  0  0  0  0  0  0
    6.8416  -19.6317   26.9656 C   0  0  0  0  0  0  0  0  0  0  0  0
    6.9264  -21.0685   27.2424 N   0  0  0  0  0  0  0  0  0  0  0  0
    8.9750  -15.3379   24.6734 C   0  0  0  0  0  0  0  0  0  0  0  0
   10.1345  -15.0442   25.0628 O   0  0  0  0  0  0  0  0  0  0  0  0
    5.7144  -13.2721   26.7539 C   0  0  0  0  0  0  0  0  0  0  0  0
    7.0041  -12.5839   26.3815 C   0  0  2  0  0  0  0  0  0  0  0  0
    6.8215  -11.7629   25.1461 C   0  0  0  0  0  0  0  0  0  0  0  0
    8.1495  -13.5653   26.2757 C   0  0  2  0  0  0  0  0  0  0  0  0
    7.9202  -14.5539   25.2426 N   0  0  0  0  0  0  0  0  0  0  0  0
    8.2732  -14.2632   27.5661 C   0  0  0  0  0  0  0  0  0  0  0  0
    8.0543  -15.6203   27.6355 O   0  0  0  0  0  0  0  0  0  0  0  0
    8.5756  -13.6428   28.6092 O   0  0  0  0  0  0  0  0  0  0  0  0
  2  1  1  0
  2  3  2  0
  4  2  1  0
  5  4  1  0
  5  6  1  6
  7  5  1  0
  7  8  2  0
  9  7  1  0
 10  9  1  0
 10 11  1  1
 12 11  1  0
 13 12  1  0
 13 14  1  0
 14 15  1  0
 16 10  1  0
 17 16  2  0
 19 18  1  6
 20 19  1  0
 21 19  1  0
 21 22  1  6
 22 16  1  0
 23 24  1  0
 23 21  1  0
 25 23  2  0
M  END
$$$$
