NKV.pdb
     RDKit          3D

 25 24  0  0  1  0  0  0  0  0999 V2000
    8.9483  -15.3492   17.3322 N   0  0  0  0  0  0  0  0  0  0  0  0
    8.2528  -14.2659   17.9035 C   0  0  0  0  0  0  0  0  0  0  0  0
    8.1201  -13.1850   17.2765 O   0  0  0  0  0  0  0  0  0  0  0  0
    7.6541  -14.3742   19.2716 C   0  0  0  0  0  0  0  0  0  0  0  0
    7.8959  -15.7364   19.8679 C   0  0  2  0  0  0  0  0  0  0  0  0
    7.2340  -16.7226   19.0487 N   0  0  0  0  0  0  0  0  0  0  0  0
    7.2923  -15.7690   21.2215 C   0  0  0  0  0  0  0  0  0  0  0  0
    6.2034  -15.1443   21.3936 O   0  0  0  0  0  0  0  0  0  0  0  0
    7.8678  -16.4584   22.3239 N   0  0  0  0  0  0  0  0  0  0  0  0
    7.2528  -16.5260   23.6335 C   0  0  1  0  0  0  0  0  0  0  0  0
    7.3635  -17.9549   24.1203 C   0  0  0  0  0  0  0  0  0  0  0  0
    6.3571  -18.8147   23.4325 C   0  0  0  0  0  0  0  0  0  0  0  0
    6.6075  -20.2491   23.8463 C   0  0  0  0  0  0  0  0  0  0  0  0
    5.6543  -21.2104   23.1713 C   0  0  0  0  0  0  0  0  0  0  0  0
    6.0004  -22.5442   23.6707 N   0  0  0  0  0  0  0  0  0  0  0  0
    7.9150  -15.5687   24.5179 C   0  0  0  0  0  0  0  0  0  0  0  0
    9.1580  -15.3859   24.4556 O   0  0  0  0  0  0  0  0  0  0  0  0
    6.2330  -12.0236   25.6663 C   0  0  0  0  0  0  0  0  0  0  0  0
    6.9289  -12.7280   26.8044 C   0  0  2  0  0  0  0  0  0  0  0  0
    7.5691  -11.7360   27.7208 C   0  0  0  0  0  0  0  0  0  0  0  0
    7.8935  -13.7791   26.3033 C   0  0  2  0  0  0  0  0  0  0  0  0
    7.2283  -14.7830   25.4989 N   0  0  0  0  0  0  0  0  0  0  0  0
    8.4921  -14.4438   27.4727 C   0  0  0  0  0  0  0  0  0  0  0  0
    9.4825  -13.8108   28.1889 O   0  0  0  0  0  0  0  0  0  0  0  0
    8.1158  -15.5814   27.8314 O   0  0  0  0  0  0  0  0  0  0  0  0
  2  1  1  0
  2  3  2  0
  4  2  1  0
  5  4  1  0
  5  6  1  6
  7  5  1  0
  7  8  2  0
  9  7  1  0
 10  9  1  0
 10 11  1  1
 12 11  1  0
 13 12  1  0
 13 14  1  0
 14 15  1  0
 16 10  1  0
 17 16  2  0
 19 18  1  6
 20 19  1  0
 21 19  1  0
 21 22  1  6
 22 16  1  0
 23 24  1  0
 23 21  1  0
 25 23  2  0
M  END
$$$$
