NKV.pdb
     RDKit          3D

 25 24  0  0  1  0  0  0  0  0999 V2000
   11.6606  -21.1345   16.5489 N   0  0  0  0  0  0  0  0  0  0  0  0
   10.6564  -20.3346   17.1283 C   0  0  0  0  0  0  0  0  0  0  0  0
    9.4640  -20.4197   16.7412 O   0  0  0  0  0  0  0  0  0  0  0  0
   10.9838  -19.3632   18.2197 C   0  0  0  0  0  0  0  0  0  0  0  0
   10.0003  -19.4658   19.3561 C   0  0  2  0  0  0  0  0  0  0  0  0
    8.6815  -19.1660   18.8533 N   0  0  0  0  0  0  0  0  0  0  0  0
   10.3556  -18.4505   20.3762 C   0  0  0  0  0  0  0  0  0  0  0  0
   11.5071  -18.5232   20.9002 O   0  0  0  0  0  0  0  0  0  0  0  0
    9.4788  -17.4111   20.7913 N   0  0  0  0  0  0  0  0  0  0  0  0
    9.8521  -16.3817   21.7394 C   0  0  1  0  0  0  0  0  0  0  0  0
    8.9125  -15.2116   21.5415 C   0  0  0  0  0  0  0  0  0  0  0  0
    9.0903  -14.6307   20.1791 C   0  0  0  0  0  0  0  0  0  0  0  0
    8.0264  -13.5724   19.9801 C   0  0  0  0  0  0  0  0  0  0  0  0
    8.0762  -12.9694   18.5937 C   0  0  0  0  0  0  0  0  0  0  0  0
    6.9684  -12.0121   18.5265 N   0  0  0  0  0  0  0  0  0  0  0  0
    9.7943  -16.9380   23.0901 C   0  0  0  0  0  0  0  0  0  0  0  0
    8.7030  -17.3238   23.5827 O   0  0  0  0  0  0  0  0  0  0  0  0
   12.9885  -18.9177   25.0743 C   0  0  0  0  0  0  0  0  0  0  0  0
   11.5113  -18.9949   25.3706 C   0  0  2  0  0  0  0  0  0  0  0  0
   10.8571  -20.0236   24.5062 C   0  0  0  0  0  0  0  0  0  0  0  0
   10.8521  -17.6374   25.2771 C   0  0  2  0  0  0  0  0  0  0  0  0
   10.9371  -17.0865   23.9404 N   0  0  0  0  0  0  0  0  0  0  0  0
   11.5502  -16.7265   26.1993 C   0  0  0  0  0  0  0  0  0  0  0  0
   11.4789  -16.9384   27.5574 O   0  0  0  0  0  0  0  0  0  0  0  0
   12.2123  -15.7560   25.7701 O   0  0  0  0  0  0  0  0  0  0  0  0
  2  1  1  0
  2  3  2  0
  4  2  1  0
  5  4  1  0
  5  6  1  6
  7  5  1  0
  7  8  2  0
  9  7  1  0
 10  9  1  0
 10 11  1  1
 12 11  1  0
 13 12  1  0
 13 14  1  0
 14 15  1  0
 16 10  1  0
 17 16  2  0
 19 18  1  6
 20 19  1  0
 21 19  1  0
 21 22  1  6
 22 16  1  0
 23 24  1  0
 23 21  1  0
 25 23  2  0
M  END
$$$$
