WWQ.pdb
     RDKit          3D

 38 41  0  0  1  0  0  0  0  0999 V2000
    6.8966  -18.0975   20.7872 N   0  0  0  0  0  0  0  0  0  0  0  0
    7.6345  -18.4243   21.9636 C   0  0  1  0  0  0  0  0  0  0  0  0
    8.3571  -19.7297   21.8998 C   0  0  0  0  0  0  0  0  0  0  0  0
    7.5028  -20.8018   22.4493 C   0  0  0  0  0  0  0  0  0  0  0  0
    6.6818  -21.6644   21.7176 C   0  0  0  0  0  0  0  0  0  0  0  0
    6.0891  -22.5279   22.5458 N   0  0  0  0  0  0  0  0  0  0  0  0
    6.4773  -22.2815   23.8054 C   0  0  0  0  0  0  0  0  0  0  0  0
    6.1705  -22.8612   25.0310 C   0  0  0  0  0  0  0  0  0  0  0  0
    6.7516  -22.3516   26.1778 C   0  0  0  0  0  0  0  0  0  0  0  0
    7.6237  -21.2868   26.1401 C   0  0  0  0  0  0  0  0  0  0  0  0
    7.9221  -20.7182   24.9233 C   0  0  0  0  0  0  0  0  0  0  0  0
    7.3615  -21.2028   23.7600 C   0  0  0  0  0  0  0  0  0  0  0  0
    8.5060  -17.2853   22.3832 C   0  0  0  0  0  0  0  0  0  0  0  0
    9.1098  -16.5681   21.5190 O   0  0  0  0  0  0  0  0  0  0  0  0
    8.6405  -17.0261   23.7630 N   0  0  0  0  0  0  0  0  0  0  0  0
    9.5708  -15.9821   24.2553 C   0  0  1  0  0  0  0  0  0  0  0  0
    9.1748  -15.6564   25.6382 C   0  0  0  0  0  0  0  0  0  0  0  0
    7.8772  -14.9696   25.7168 C   0  0  0  0  0  0  0  0  0  0  0  0
    6.6500  -15.5911   25.6236 C   0  0  0  0  0  0  0  0  0  0  0  0
    5.7006  -14.6431   25.7141 N   0  0  0  0  0  0  0  0  0  0  0  0
    6.2843  -13.4347   25.8621 C   0  0  0  0  0  0  0  0  0  0  0  0
    5.7441  -12.1524   26.0009 C   0  0  0  0  0  0  0  0  0  0  0  0
    6.5966  -11.0640   26.1425 C   0  0  0  0  0  0  0  0  0  0  0  0
    7.9555  -11.2669   26.1436 C   0  0  0  0  0  0  0  0  0  0  0  0
    8.5013  -12.5217   26.0083 C   0  0  0  0  0  0  0  0  0  0  0  0
    7.6402  -13.6097   25.8668 C   0  0  0  0  0  0  0  0  0  0  0  0
   10.9256  -16.4355   23.9983 C   0  0  0  0  0  0  0  0  0  0  0  0
   11.2102  -17.6512   24.3063 O   0  0  0  0  0  0  0  0  0  0  0  0
   16.6639  -15.8913   19.4419 N   0  0  0  0  0  0  0  0  0  0  0  0
   15.4190  -15.6294   20.0686 C   0  0  0  0  0  0  0  0  0  0  0  0
   14.5287  -14.8652   19.5601 O   0  0  0  0  0  0  0  0  0  0  0  0
   15.0587  -16.2368   21.3698 C   0  0  0  0  0  0  0  0  0  0  0  0
   13.7345  -15.7797   21.8337 C   0  0  0  0  0  0  0  0  0  0  0  0
   13.2938  -16.3183   23.1528 C   0  0  2  0  0  0  0  0  0  0  0  0
   11.9647  -15.6865   23.4432 N   0  0  0  0  0  0  0  0  0  0  0  0
   14.1460  -16.0932   24.3085 C   0  0  0  0  0  0  0  0  0  0  0  0
   13.8761  -15.2264   25.1908 O   0  0  0  0  0  0  0  0  0  0  0  0
   15.3301  -16.8101   24.5656 O   0  0  0  0  0  0  0  0  0  0  0  0
  2  1  1  6
  2 13  1  0
  2  3  1  0
  4  5  2  0
  4  3  1  0
  6  5  1  0
  7 12  2  0
  7  6  1  0
  8  7  1  0
  9 10  1  0
  9  8  2  0
 10 11  2  0
 11 12  1  0
 12  4  1  0
 13 15  1  0
 14 13  2  0
 15 16  1  0
 16 17  1  1
 16 27  1  0
 18 17  1  0
 19 18  2  0
 20 21  1  0
 20 19  1  0
 21 26  2  0
 22 23  2  0
 22 21  1  0
 23 24  1  0
 24 25  2  0
 26 25  1  0
 26 18  1  0
 27 28  2  0
 27 35  1  0
 29 30  1  0
 30 32  1  0
 31 30  2  0
 32 33  1  0
 34 33  1  6
 34 36  1  0
 35 34  1  0
 36 37  2  0
 36 38  1  0
M  END
$$$$
