WWQ.pdb
     RDKit          3D

 38 41  0  0  1  0  0  0  0  0999 V2000
    9.5628  -14.3533   21.7488 N   0  0  0  0  0  0  0  0  0  0  0  0
    9.2387  -15.7299   21.9365 C   0  0  1  0  0  0  0  0  0  0  0  0
    9.5661  -16.6082   20.7738 C   0  0  0  0  0  0  0  0  0  0  0  0
    8.9640  -16.0552   19.5438 C   0  0  0  0  0  0  0  0  0  0  0  0
    8.8647  -16.6995   18.3075 C   0  0  0  0  0  0  0  0  0  0  0  0
    8.2273  -15.9088   17.4407 N   0  0  0  0  0  0  0  0  0  0  0  0
    7.8939  -14.7581   18.0430 C   0  0  0  0  0  0  0  0  0  0  0  0
    7.2389  -13.6095   17.6141 C   0  0  0  0  0  0  0  0  0  0  0  0
    7.0558  -12.5694   18.5069 C   0  0  0  0  0  0  0  0  0  0  0  0
    7.5042  -12.6388   19.8068 C   0  0  0  0  0  0  0  0  0  0  0  0
    8.1519  -13.7788   20.2237 C   0  0  0  0  0  0  0  0  0  0  0  0
    8.3498  -14.8355   19.3596 C   0  0  0  0  0  0  0  0  0  0  0  0
    9.7827  -16.2368   23.2326 C   0  0  0  0  0  0  0  0  0  0  0  0
   11.0327  -16.1947   23.4809 O   0  0  0  0  0  0  0  0  0  0  0  0
    8.8731  -16.7620   24.1739 N   0  0  0  0  0  0  0  0  0  0  0  0
    9.2951  -17.0428   25.5670 C   0  0  1  0  0  0  0  0  0  0  0  0
    8.0830  -17.0199   26.4070 C   0  0  0  0  0  0  0  0  0  0  0  0
    7.3752  -15.7322   26.3580 C   0  0  0  0  0  0  0  0  0  0  0  0
    6.1134  -15.5463   25.8343 C   0  0  0  0  0  0  0  0  0  0  0  0
    5.8116  -14.2403   25.9415 N   0  0  0  0  0  0  0  0  0  0  0  0
    6.8426  -13.5862   26.5177 C   0  0  0  0  0  0  0  0  0  0  0  0
    7.0205  -12.2390   26.8477 C   0  0  0  0  0  0  0  0  0  0  0  0
    8.2062  -11.8343   27.4490 C   0  0  0  0  0  0  0  0  0  0  0  0
    9.1831  -12.7649   27.7088 C   0  0  0  0  0  0  0  0  0  0  0  0
    9.0225  -14.0928   27.3903 C   0  0  0  0  0  0  0  0  0  0  0  0
    7.8301  -14.4924   26.7871 C   0  0  0  0  0  0  0  0  0  0  0  0
   10.1190  -18.2379   25.5508 C   0  0  0  0  0  0  0  0  0  0  0  0
   10.0579  -18.9834   24.5046 O   0  0  0  0  0  0  0  0  0  0  0  0
   16.2256  -20.5689   26.0791 N   0  0  0  0  0  0  0  0  0  0  0  0
   15.2151  -20.1758   25.1651 C   0  0  0  0  0  0  0  0  0  0  0  0
   15.4152  -19.3353   24.2223 O   0  0  0  0  0  0  0  0  0  0  0  0
   13.8422  -20.7249   25.2381 C   0  0  0  0  0  0  0  0  0  0  0  0
   12.8393  -19.6567   25.4135 C   0  0  0  0  0  0  0  0  0  0  0  0
   11.7633  -19.9412   26.4062 C   0  0  2  0  0  0  0  0  0  0  0  0
   10.9833  -18.6689   26.5586 N   0  0  0  0  0  0  0  0  0  0  0  0
   12.1515  -20.3772   27.7373 C   0  0  0  0  0  0  0  0  0  0  0  0
   12.7683  -21.4637   27.9413 O   0  0  0  0  0  0  0  0  0  0  0  0
   11.8961  -19.6443   28.9120 O   0  0  0  0  0  0  0  0  0  0  0  0
  2  1  1  6
  2 13  1  0
  2  3  1  0
  4  5  2  0
  4  3  1  0
  6  5  1  0
  7 12  2  0
  7  6  1  0
  8  7  1  0
  9 10  1  0
  9  8  2  0
 10 11  2  0
 11 12  1  0
 12  4  1  0
 13 15  1  0
 14 13  2  0
 15 16  1  0
 16 17  1  1
 16 27  1  0
 18 17  1  0
 19 18  2  0
 20 21  1  0
 20 19  1  0
 21 26  2  0
 22 23  2  0
 22 21  1  0
 23 24  1  0
 24 25  2  0
 26 25  1  0
 26 18  1  0
 27 28  2  0
 27 35  1  0
 29 30  1  0
 30 32  1  0
 31 30  2  0
 32 33  1  0
 34 33  1  6
 34 36  1  0
 35 34  1  0
 36 37  2  0
 36 38  1  0
M  END
$$$$
