WWQ.pdb
     RDKit          3D

 38 41  0  0  1  0  0  0  0  0999 V2000
    8.4520  -16.4611   18.9310 N   0  0  0  0  0  0  0  0  0  0  0  0
    8.7923  -17.3678   19.9786 C   0  0  1  0  0  0  0  0  0  0  0  0
    9.7790  -18.4201   19.5920 C   0  0  0  0  0  0  0  0  0  0  0  0
    9.2287  -19.2437   18.4966 C   0  0  0  0  0  0  0  0  0  0  0  0
    9.4162  -19.0343   17.1275 C   0  0  0  0  0  0  0  0  0  0  0  0
    8.8020  -19.9994   16.4389 N   0  0  0  0  0  0  0  0  0  0  0  0
    8.2081  -20.8498   17.2887 C   0  0  0  0  0  0  0  0  0  0  0  0
    7.4466  -21.9996   17.1143 C   0  0  0  0  0  0  0  0  0  0  0  0
    6.9625  -22.6584   18.2297 C   0  0  0  0  0  0  0  0  0  0  0  0
    7.2123  -22.2079   19.5065 C   0  0  0  0  0  0  0  0  0  0  0  0
    7.9665  -21.0690   19.6709 C   0  0  0  0  0  0  0  0  0  0  0  0
    8.4661  -20.3884   18.5801 C   0  0  0  0  0  0  0  0  0  0  0  0
    9.1693  -16.6317   21.2232 C   0  0  0  0  0  0  0  0  0  0  0  0
   10.2162  -15.9050   21.2640 O   0  0  0  0  0  0  0  0  0  0  0  0
    8.3327  -16.7631   22.3510 N   0  0  0  0  0  0  0  0  0  0  0  0
    8.6756  -16.1064   23.6351 C   0  0  1  0  0  0  0  0  0  0  0  0
    7.4303  -15.9915   24.4169 C   0  0  0  0  0  0  0  0  0  0  0  0
    7.2598  -14.6675   25.0332 C   0  0  0  0  0  0  0  0  0  0  0  0
    6.2953  -13.7499   24.6745 C   0  0  0  0  0  0  0  0  0  0  0  0
    6.4659  -12.6547   25.4358 N   0  0  0  0  0  0  0  0  0  0  0  0
    7.5104  -12.8449   26.2699 C   0  0  0  0  0  0  0  0  0  0  0  0
    8.0825  -12.0223   27.2453 C   0  0  0  0  0  0  0  0  0  0  0  0
    9.1726  -12.4835   27.9735 C   0  0  0  0  0  0  0  0  0  0  0  0
    9.6693  -13.7397   27.7224 C   0  0  0  0  0  0  0  0  0  0  0  0
    9.1172  -14.5599   26.7668 C   0  0  0  0  0  0  0  0  0  0  0  0
    8.0233  -14.0910   26.0396 C   0  0  0  0  0  0  0  0  0  0  0  0
    9.8057  -16.8135   24.2094 C   0  0  0  0  0  0  0  0  0  0  0  0
    9.8006  -18.0973   24.1323 O   0  0  0  0  0  0  0  0  0  0  0  0
   16.7318  -15.7697   24.6724 N   0  0  0  0  0  0  0  0  0  0  0  0
   15.6640  -16.4132   23.9965 C   0  0  0  0  0  0  0  0  0  0  0  0
   15.5672  -16.4521   22.7220 O   0  0  0  0  0  0  0  0  0  0  0  0
   14.5771  -17.0987   24.7317 C   0  0  0  0  0  0  0  0  0  0  0  0
   13.2666  -16.4727   24.4702 C   0  0  0  0  0  0  0  0  0  0  0  0
   12.1092  -17.0786   25.1896 C   0  0  2  0  0  0  0  0  0  0  0  0
   10.9125  -16.2438   24.8412 N   0  0  0  0  0  0  0  0  0  0  0  0
   12.1703  -17.1704   26.6389 C   0  0  0  0  0  0  0  0  0  0  0  0
   12.7068  -18.1508   27.2337 O   0  0  0  0  0  0  0  0  0  0  0  0
   11.6588  -16.1919   27.5125 O   0  0  0  0  0  0  0  0  0  0  0  0
  2  1  1  6
  2 13  1  0
  2  3  1  0
  4  5  2  0
  4  3  1  0
  6  5  1  0
  7 12  2  0
  7  6  1  0
  8  7  1  0
  9 10  1  0
  9  8  2  0
 10 11  2  0
 11 12  1  0
 12  4  1  0
 13 15  1  0
 14 13  2  0
 15 16  1  0
 16 17  1  1
 16 27  1  0
 18 17  1  0
 19 18  2  0
 20 21  1  0
 20 19  1  0
 21 26  2  0
 22 23  2  0
 22 21  1  0
 23 24  1  0
 24 25  2  0
 26 25  1  0
 26 18  1  0
 27 28  2  0
 27 35  1  0
 29 30  1  0
 30 32  1  0
 31 30  2  0
 32 33  1  0
 34 33  1  1
 34 36  1  0
 35 34  1  0
 36 37  2  0
 36 38  1  0
M  END
$$$$
