WWQ.pdb
     RDKit          3D

 38 41  0  0  1  0  0  0  0  0999 V2000
    8.7282  -16.3737   21.6559 N   0  0  0  0  0  0  0  0  0  0  0  0
    8.8751  -15.0634   22.2007 C   0  0  1  0  0  0  0  0  0  0  0  0
    7.7090  -14.1602   21.9666 C   0  0  0  0  0  0  0  0  0  0  0  0
    7.4356  -14.0611   20.5187 C   0  0  0  0  0  0  0  0  0  0  0  0
    6.2570  -14.4400   19.8699 C   0  0  0  0  0  0  0  0  0  0  0  0
    6.3570  -14.1696   18.5662 N   0  0  0  0  0  0  0  0  0  0  0  0
    7.5552  -13.6245   18.3107 C   0  0  0  0  0  0  0  0  0  0  0  0
    8.1706  -13.1700   17.1502 C   0  0  0  0  0  0  0  0  0  0  0  0
    9.4519  -12.6555   17.2284 C   0  0  0  0  0  0  0  0  0  0  0  0
   10.1349  -12.5819   18.4217 C   0  0  0  0  0  0  0  0  0  0  0  0
    9.5191  -13.0341   19.5659 C   0  0  0  0  0  0  0  0  0  0  0  0
    8.2412  -13.5516   19.5236 C   0  0  0  0  0  0  0  0  0  0  0  0
    9.2998  -15.1226   23.6321 C   0  0  0  0  0  0  0  0  0  0  0  0
    9.5513  -14.0575   24.2864 O   0  0  0  0  0  0  0  0  0  0  0  0
    9.4132  -16.3908   24.2386 N   0  0  0  0  0  0  0  0  0  0  0  0
    9.9236  -16.5305   25.6234 C   0  0  1  0  0  0  0  0  0  0  0  0
    8.7693  -16.8362   26.4891 C   0  0  0  0  0  0  0  0  0  0  0  0
    7.6840  -15.8518   26.3671 C   0  0  0  0  0  0  0  0  0  0  0  0
    6.4128  -16.1329   25.9134 C   0  0  0  0  0  0  0  0  0  0  0  0
    5.7111  -14.9858   25.9179 N   0  0  0  0  0  0  0  0  0  0  0  0
    6.4958  -13.9803   26.3607 C   0  0  0  0  0  0  0  0  0  0  0  0
    6.2423  -12.6183   26.5508 C   0  0  0  0  0  0  0  0  0  0  0  0
    7.2544  -11.7961   27.0314 C   0  0  0  0  0  0  0  0  0  0  0  0
    8.4865  -12.3357   27.3115 C   0  0  0  0  0  0  0  0  0  0  0  0
    8.7506  -13.6729   27.1298 C   0  0  0  0  0  0  0  0  0  0  0  0
    7.7305  -14.4926   26.6473 C   0  0  0  0  0  0  0  0  0  0  0  0
   11.0458  -17.4508   25.5940 C   0  0  0  0  0  0  0  0  0  0  0  0
   11.0055  -18.4574   26.3935 O   0  0  0  0  0  0  0  0  0  0  0  0
   14.8811  -18.7487   20.9359 N   0  0  0  0  0  0  0  0  0  0  0  0
   13.6140  -18.1294   21.0840 C   0  0  0  0  0  0  0  0  0  0  0  0
   12.9515  -17.6513   20.1002 O   0  0  0  0  0  0  0  0  0  0  0  0
   12.9606  -17.9983   22.4060 C   0  0  0  0  0  0  0  0  0  0  0  0
   13.8048  -18.5465   23.4851 C   0  0  0  0  0  0  0  0  0  0  0  0
   13.2651  -18.3902   24.8666 C   0  0  2  0  0  0  0  0  0  0  0  0
   12.1762  -17.3621   24.7798 N   0  0  0  0  0  0  0  0  0  0  0  0
   14.1763  -17.9729   25.9192 C   0  0  0  0  0  0  0  0  0  0  0  0
   15.2106  -18.6370   26.2227 O   0  0  0  0  0  0  0  0  0  0  0  0
   14.0111  -16.8042   26.6867 O   0  0  0  0  0  0  0  0  0  0  0  0
  2  1  1  1
  2 13  1  0
  2  3  1  0
  4  5  2  0
  4  3  1  0
  6  5  1  0
  7 12  2  0
  7  6  1  0
  8  7  1  0
  9 10  1  0
  9  8  2  0
 10 11  2  0
 11 12  1  0
 12  4  1  0
 13 15  1  0
 14 13  2  0
 15 16  1  0
 16 17  1  1
 16 27  1  0
 18 17  1  0
 19 18  2  0
 20 21  1  0
 20 19  1  0
 21 26  2  0
 22 23  2  0
 22 21  1  0
 23 24  1  0
 24 25  2  0
 26 25  1  0
 26 18  1  0
 27 28  2  0
 27 35  1  0
 29 30  1  0
 30 32  1  0
 31 30  2  0
 32 33  1  0
 34 33  1  6
 34 36  1  0
 35 34  1  0
 36 37  2  0
 36 38  1  0
M  END
$$$$
