WWQ.pdb
     RDKit          3D

 38 41  0  0  1  0  0  0  0  0999 V2000
    8.4802  -18.3733   22.0941 N   0  0  0  0  0  0  0  0  0  0  0  0
    8.5490  -16.9483   22.0944 C   0  0  1  0  0  0  0  0  0  0  0  0
    7.2453  -16.2645   21.8434 C   0  0  0  0  0  0  0  0  0  0  0  0
    7.3253  -15.4769   20.5965 C   0  0  0  0  0  0  0  0  0  0  0  0
    7.0450  -15.9362   19.3066 C   0  0  0  0  0  0  0  0  0  0  0  0
    7.1883  -14.9355   18.4343 N   0  0  0  0  0  0  0  0  0  0  0  0
    7.5542  -13.8213   19.0844 C   0  0  0  0  0  0  0  0  0  0  0  0
    7.8371  -12.5240   18.6732 C   0  0  0  0  0  0  0  0  0  0  0  0
    8.2027  -11.5852   19.6207 C   0  0  0  0  0  0  0  0  0  0  0  0
    8.2952  -11.8991   20.9580 C   0  0  0  0  0  0  0  0  0  0  0  0
    8.0139  -13.1854   21.3571 C   0  0  0  0  0  0  0  0  0  0  0  0
    7.6447  -14.1459   20.4385 C   0  0  0  0  0  0  0  0  0  0  0  0
    9.2560  -16.4461   23.3112 C   0  0  0  0  0  0  0  0  0  0  0  0
   10.0350  -15.4386   23.2485 O   0  0  0  0  0  0  0  0  0  0  0  0
    9.0355  -17.1181   24.5315 N   0  0  0  0  0  0  0  0  0  0  0  0
    9.7229  -16.6891   25.7729 C   0  0  1  0  0  0  0  0  0  0  0  0
    8.6890  -16.5113   26.8095 C   0  0  0  0  0  0  0  0  0  0  0  0
    7.6421  -15.5562   26.4178 C   0  0  0  0  0  0  0  0  0  0  0  0
    6.3782  -15.9042   25.9906 C   0  0  0  0  0  0  0  0  0  0  0  0
    5.7156  -14.7708   25.6995 N   0  0  0  0  0  0  0  0  0  0  0  0
    6.5181  -13.7093   25.9278 C   0  0  0  0  0  0  0  0  0  0  0  0
    6.3041  -12.3348   25.7853 C   0  0  0  0  0  0  0  0  0  0  0  0
    7.3263  -11.4483   26.1022 C   0  0  0  0  0  0  0  0  0  0  0  0
    8.5295  -11.9377   26.5501 C   0  0  0  0  0  0  0  0  0  0  0  0
    8.7546  -13.2864   26.6954 C   0  0  0  0  0  0  0  0  0  0  0  0
    7.7245  -14.1708   26.3757 C   0  0  0  0  0  0  0  0  0  0  0  0
   10.8161  -17.6122   26.0186 C   0  0  0  0  0  0  0  0  0  0  0  0
   11.4808  -17.4636   27.1095 O   0  0  0  0  0  0  0  0  0  0  0  0
   16.2407  -15.9724   23.7489 N   0  0  0  0  0  0  0  0  0  0  0  0
   15.3064  -16.9284   23.2754 C   0  0  0  0  0  0  0  0  0  0  0  0
   14.8626  -16.9360   22.0761 O   0  0  0  0  0  0  0  0  0  0  0  0
   14.7791  -18.0014   24.1486 C   0  0  0  0  0  0  0  0  0  0  0  0
   13.3068  -17.9543   24.2372 C   0  0  0  0  0  0  0  0  0  0  0  0
   12.6783  -19.0175   25.0731 C   0  0  2  0  0  0  0  0  0  0  0  0
   11.2267  -18.6582   25.1905 N   0  0  0  0  0  0  0  0  0  0  0  0
   13.1864  -19.2263   26.4188 C   0  0  0  0  0  0  0  0  0  0  0  0
   13.7143  -18.2959   27.0957 O   0  0  0  0  0  0  0  0  0  0  0  0
   13.1343  -20.4585   27.0980 O   0  0  0  0  0  0  0  0  0  0  0  0
  2  1  1  1
  2 13  1  0
  2  3  1  0
  4  5  2  0
  4  3  1  0
  6  5  1  0
  7 12  2  0
  7  6  1  0
  8  7  1  0
  9 10  1  0
  9  8  2  0
 10 11  2  0
 11 12  1  0
 12  4  1  0
 13 15  1  0
 14 13  2  0
 15 16  1  0
 16 17  1  1
 16 27  1  0
 18 17  1  0
 19 18  2  0
 20 21  1  0
 20 19  1  0
 21 26  2  0
 22 23  2  0
 22 21  1  0
 23 24  1  0
 24 25  2  0
 26 25  1  0
 26 18  1  0
 27 28  2  0
 27 35  1  0
 29 30  1  0
 30 32  1  0
 31 30  2  0
 32 33  1  0
 34 33  1  1
 34 36  1  0
 35 34  1  0
 36 37  2  0
 36 38  1  0
M  END
$$$$
