WWQ.pdb
     RDKit          3D

 38 41  0  0  1  0  0  0  0  0999 V2000
    8.6838  -17.2592   21.5606 N   0  0  0  0  0  0  0  0  0  0  0  0
    8.7388  -15.8777   21.9125 C   0  0  1  0  0  0  0  0  0  0  0  0
    7.4500  -15.1426   21.7423 C   0  0  0  0  0  0  0  0  0  0  0  0
    7.1380  -15.0057   20.3053 C   0  0  0  0  0  0  0  0  0  0  0  0
    6.3156  -15.8479   19.5518 C   0  0  0  0  0  0  0  0  0  0  0  0
    6.2365  -15.3925   18.2990 N   0  0  0  0  0  0  0  0  0  0  0  0
    6.9726  -14.2782   18.1784 C   0  0  0  0  0  0  0  0  0  0  0  0
    7.2410  -13.4200   17.1184 C   0  0  0  0  0  0  0  0  0  0  0  0
    8.0703  -12.3335   17.3291 C   0  0  0  0  0  0  0  0  0  0  0  0
    8.6378  -12.0786   18.5574 C   0  0  0  0  0  0  0  0  0  0  0  0
    8.3676  -12.9329   19.6015 C   0  0  0  0  0  0  0  0  0  0  0  0
    7.5435  -14.0250   19.4263 C   0  0  0  0  0  0  0  0  0  0  0  0
    9.3518  -15.6925   23.2626 C   0  0  0  0  0  0  0  0  0  0  0  0
   10.0382  -14.6529   23.5345 O   0  0  0  0  0  0  0  0  0  0  0  0
    9.1481  -16.7006   24.2277 N   0  0  0  0  0  0  0  0  0  0  0  0
    9.8463  -16.6567   25.5347 C   0  0  1  0  0  0  0  0  0  0  0  0
    8.8161  -16.7383   26.5869 C   0  0  0  0  0  0  0  0  0  0  0  0
    7.7205  -15.7772   26.3930 C   0  0  0  0  0  0  0  0  0  0  0  0
    6.4472  -16.1070   25.9797 C   0  0  0  0  0  0  0  0  0  0  0  0
    5.7350  -14.9696   25.8934 N   0  0  0  0  0  0  0  0  0  0  0  0
    6.5150  -13.9231   26.2390 C   0  0  0  0  0  0  0  0  0  0  0  0
    6.2509  -12.5520   26.3140 C   0  0  0  0  0  0  0  0  0  0  0  0
    7.2604  -11.6830   26.7104 C   0  0  0  0  0  0  0  0  0  0  0  0
    8.5004  -12.1862   27.0219 C   0  0  0  0  0  0  0  0  0  0  0  0
    8.7749  -13.5318   26.9531 C   0  0  0  0  0  0  0  0  0  0  0  0
    7.7573  -14.3985   26.5546 C   0  0  0  0  0  0  0  0  0  0  0  0
   10.9060  -17.6485   25.5073 C   0  0  0  0  0  0  0  0  0  0  0  0
   10.8747  -18.5206   24.5626 O   0  0  0  0  0  0  0  0  0  0  0  0
   17.4597  -17.1494   25.1172 N   0  0  0  0  0  0  0  0  0  0  0  0
   16.3516  -17.6761   24.4060 C   0  0  0  0  0  0  0  0  0  0  0  0
   16.1199  -17.4087   23.1772 O   0  0  0  0  0  0  0  0  0  0  0  0
   15.3778  -18.5893   25.0461 C   0  0  0  0  0  0  0  0  0  0  0  0
   14.0911  -17.9148   25.3054 C   0  0  0  0  0  0  0  0  0  0  0  0
   13.1141  -18.6868   26.1263 C   0  0  2  0  0  0  0  0  0  0  0  0
   11.9700  -17.7573   26.4044 N   0  0  0  0  0  0  0  0  0  0  0  0
   13.5587  -19.2253   27.4009 C   0  0  0  0  0  0  0  0  0  0  0  0
   13.1005  -18.8141   28.5071 O   0  0  0  0  0  0  0  0  0  0  0  0
   14.5178  -20.2476   27.5327 O   0  0  0  0  0  0  0  0  0  0  0  0
  2  1  1  1
  2 13  1  0
  2  3  1  0
  4  5  2  0
  4  3  1  0
  6  5  1  0
  7 12  2  0
  7  6  1  0
  8  7  1  0
  9 10  1  0
  9  8  2  0
 10 11  2  0
 11 12  1  0
 12  4  1  0
 13 15  1  0
 14 13  2  0
 15 16  1  0
 16 17  1  1
 16 27  1  0
 18 17  1  0
 19 18  2  0
 20 21  1  0
 20 19  1  0
 21 26  2  0
 22 23  2  0
 22 21  1  0
 23 24  1  0
 24 25  2  0
 26 25  1  0
 26 18  1  0
 27 28  2  0
 27 35  1  0
 29 30  1  0
 30 32  1  0
 31 30  2  0
 32 33  1  0
 34 33  1  1
 34 36  1  0
 35 34  1  0
 36 37  2  0
 36 38  1  0
M  END
$$$$
