WWQ.pdb
     RDKit          3D

 38 41  0  0  1  0  0  0  0  0999 V2000
    6.5008  -18.5128   24.2673 N   0  0  0  0  0  0  0  0  0  0  0  0
    7.4065  -17.4175   24.3913 C   0  0  1  0  0  0  0  0  0  0  0  0
    7.7576  -17.0594   25.7980 C   0  0  0  0  0  0  0  0  0  0  0  0
    7.1239  -15.7755   26.1605 C   0  0  0  0  0  0  0  0  0  0  0  0
    5.7523  -15.5296   26.2686 C   0  0  0  0  0  0  0  0  0  0  0  0
    5.5531  -14.2664   26.6526 N   0  0  0  0  0  0  0  0  0  0  0  0
    6.7348  -13.6517   26.8069 C   0  0  0  0  0  0  0  0  0  0  0  0
    7.1007  -12.3632   27.1784 C   0  0  0  0  0  0  0  0  0  0  0  0
    8.4436  -12.0378   27.2353 C   0  0  0  0  0  0  0  0  0  0  0  0
    9.4273  -12.9527   26.9337 C   0  0  0  0  0  0  0  0  0  0  0  0
    9.0572  -14.2259   26.5665 C   0  0  0  0  0  0  0  0  0  0  0  0
    7.7268  -14.5842   26.5011 C   0  0  0  0  0  0  0  0  0  0  0  0
    8.6007  -17.6074   23.5134 C   0  0  0  0  0  0  0  0  0  0  0  0
    8.8713  -18.7479   23.0115 O   0  0  0  0  0  0  0  0  0  0  0  0
    9.4190  -16.4882   23.2551 N   0  0  0  0  0  0  0  0  0  0  0  0
   10.6420  -16.6130   22.4266 C   0  0  1  0  0  0  0  0  0  0  0  0
   10.9342  -15.2791   21.8695 C   0  0  0  0  0  0  0  0  0  0  0  0
   10.0057  -14.8886   20.7985 C   0  0  0  0  0  0  0  0  0  0  0  0
   10.1184  -15.2729   19.4792 C   0  0  0  0  0  0  0  0  0  0  0  0
    9.1085  -14.7044   18.7973 N   0  0  0  0  0  0  0  0  0  0  0  0
    8.3542  -13.9682   19.6411 C   0  0  0  0  0  0  0  0  0  0  0  0
    7.2073  -13.1965   19.4297 C   0  0  0  0  0  0  0  0  0  0  0  0
    6.6236  -12.5332   20.5022 C   0  0  0  0  0  0  0  0  0  0  0  0
    7.1834  -12.6471   21.7518 C   0  0  0  0  0  0  0  0  0  0  0  0
    8.3105  -13.4023   21.9751 C   0  0  0  0  0  0  0  0  0  0  0  0
    8.8914  -14.0656   20.8944 C   0  0  0  0  0  0  0  0  0  0  0  0
   11.6543  -17.2811   23.2242 C   0  0  0  0  0  0  0  0  0  0  0  0
   11.6994  -16.9993   24.4782 O   0  0  0  0  0  0  0  0  0  0  0  0
   17.1669  -22.1006   23.2476 N   0  0  0  0  0  0  0  0  0  0  0  0
   15.7951  -21.8125   23.0328 C   0  0  0  0  0  0  0  0  0  0  0  0
   15.0975  -22.3776   22.1221 O   0  0  0  0  0  0  0  0  0  0  0  0
   15.0661  -20.8285   23.8647 C   0  0  0  0  0  0  0  0  0  0  0  0
   14.1248  -20.0278   23.0581 C   0  0  0  0  0  0  0  0  0  0  0  0
   13.6095  -18.7900   23.7112 C   0  0  2  0  0  0  0  0  0  0  0  0
   12.5934  -18.2099   22.7725 N   0  0  0  0  0  0  0  0  0  0  0  0
   14.5567  -17.7361   24.0346 C   0  0  0  0  0  0  0  0  0  0  0  0
   15.2787  -17.7695   25.0740 O   0  0  0  0  0  0  0  0  0  0  0  0
   14.7720  -16.5978   23.2346 O   0  0  0  0  0  0  0  0  0  0  0  0
  2  1  1  1
  2 13  1  0
  2  3  1  0
  4  5  2  0
  4  3  1  0
  6  5  1  0
  7 12  2  0
  7  6  1  0
  8  7  1  0
  9 10  1  0
  9  8  2  0
 10 11  2  0
 11 12  1  0
 12  4  1  0
 13 15  1  0
 14 13  2  0
 15 16  1  0
 16 17  1  1
 16 27  1  0
 18 17  1  0
 19 18  2  0
 20 21  1  0
 20 19  1  0
 21 26  2  0
 22 23  2  0
 22 21  1  0
 23 24  1  0
 24 25  2  0
 26 25  1  0
 26 18  1  0
 27 28  2  0
 27 35  1  0
 29 30  1  0
 30 32  1  0
 31 30  2  0
 32 33  1  0
 34 33  1  6
 34 36  1  0
 35 34  1  0
 36 37  2  0
 36 38  1  0
M  END
$$$$
