WWQ.pdb
     RDKit          3D

 38 41  0  0  1  0  0  0  0  0999 V2000
    8.4186  -16.6608   21.7119 N   0  0  0  0  0  0  0  0  0  0  0  0
    8.9979  -15.4464   22.1861 C   0  0  1  0  0  0  0  0  0  0  0  0
    8.2151  -14.2171   21.8600 C   0  0  0  0  0  0  0  0  0  0  0  0
    8.1145  -14.0621   20.3948 C   0  0  0  0  0  0  0  0  0  0  0  0
    6.9570  -14.2021   19.6241 C   0  0  0  0  0  0  0  0  0  0  0  0
    7.2393  -13.9522   18.3431 N   0  0  0  0  0  0  0  0  0  0  0  0
    8.5399  -13.6502   18.2200 C   0  0  0  0  0  0  0  0  0  0  0  0
    9.3463  -13.3205   17.1369 C   0  0  0  0  0  0  0  0  0  0  0  0
   10.6882  -13.0658   17.3533 C   0  0  0  0  0  0  0  0  0  0  0  0
   11.2477  -13.1304   18.6096 C   0  0  0  0  0  0  0  0  0  0  0  0
   10.4431  -13.4576   19.6766 C   0  0  0  0  0  0  0  0  0  0  0  0
    9.1003  -13.7161   19.4963 C   0  0  0  0  0  0  0  0  0  0  0  0
    9.3568  -15.5529   23.6328 C   0  0  0  0  0  0  0  0  0  0  0  0
   10.0199  -14.6318   24.2138 O   0  0  0  0  0  0  0  0  0  0  0  0
    8.9397  -16.7015   24.3371 N   0  0  0  0  0  0  0  0  0  0  0  0
    9.2782  -16.8823   25.7690 C   0  0  1  0  0  0  0  0  0  0  0  0
    8.0138  -16.8495   26.5275 C   0  0  0  0  0  0  0  0  0  0  0  0
    7.2799  -15.5859   26.3651 C   0  0  0  0  0  0  0  0  0  0  0  0
    6.0265  -15.4696   25.8025 C   0  0  0  0  0  0  0  0  0  0  0  0
    5.6946  -14.1665   25.8029 N   0  0  0  0  0  0  0  0  0  0  0  0
    6.6981  -13.4468   26.3487 C   0  0  0  0  0  0  0  0  0  0  0  0
    6.8398  -12.0747   26.5781 C   0  0  0  0  0  0  0  0  0  0  0  0
    8.0027  -11.5981   27.1711 C   0  0  0  0  0  0  0  0  0  0  0  0
    8.9931  -12.4834   27.5219 C   0  0  0  0  0  0  0  0  0  0  0  0
    8.8682  -13.8351   27.3028 C   0  0  0  0  0  0  0  0  0  0  0  0
    7.6984  -14.3069   26.7074 C   0  0  0  0  0  0  0  0  0  0  0  0
   10.1369  -18.0475   25.8802 C   0  0  0  0  0  0  0  0  0  0  0  0
    9.7279  -19.1372   25.3332 O   0  0  0  0  0  0  0  0  0  0  0  0
   15.9446  -18.0765   25.2995 N   0  0  0  0  0  0  0  0  0  0  0  0
   14.9121  -18.3516   24.3671 C   0  0  0  0  0  0  0  0  0  0  0  0
   15.1116  -18.4251   23.1062 O   0  0  0  0  0  0  0  0  0  0  0  0
   13.5144  -18.5816   24.7978 C   0  0  0  0  0  0  0  0  0  0  0  0
   13.4545  -19.2298   26.1222 C   0  0  0  0  0  0  0  0  0  0  0  0
   12.0859  -19.4241   26.6820 C   0  0  2  0  0  0  0  0  0  0  0  0
   11.3750  -18.1130   26.5217 N   0  0  0  0  0  0  0  0  0  0  0  0
   11.9611  -19.8208   28.0747 C   0  0  0  0  0  0  0  0  0  0  0  0
   12.4853  -20.8807   28.5269 O   0  0  0  0  0  0  0  0  0  0  0  0
   11.2672  -19.0755   29.0469 O   0  0  0  0  0  0  0  0  0  0  0  0
  2  1  1  1
  2 13  1  0
  2  3  1  0
  4  5  2  0
  4  3  1  0
  6  5  1  0
  7 12  2  0
  7  6  1  0
  8  7  1  0
  9 10  1  0
  9  8  2  0
 10 11  2  0
 11 12  1  0
 12  4  1  0
 13 15  1  0
 14 13  2  0
 15 16  1  0
 16 17  1  1
 16 27  1  0
 18 17  1  0
 19 18  2  0
 20 21  1  0
 20 19  1  0
 21 26  2  0
 22 23  2  0
 22 21  1  0
 23 24  1  0
 24 25  2  0
 26 25  1  0
 26 18  1  0
 27 28  2  0
 27 35  1  0
 29 30  1  0
 30 32  1  0
 31 30  2  0
 32 33  1  0
 34 33  1  1
 34 36  1  0
 35 34  1  0
 36 37  2  0
 36 38  1  0
M  END
$$$$
