WWQ.pdb
     RDKit          3D

 38 41  0  0  1  0  0  0  0  0999 V2000
    7.9710  -14.7033   21.9576 N   0  0  0  0  0  0  0  0  0  0  0  0
    8.5616  -15.9954   22.0883 C   0  0  1  0  0  0  0  0  0  0  0  0
    9.3241  -16.4530   20.8885 C   0  0  0  0  0  0  0  0  0  0  0  0
    9.3449  -15.3828   19.8708 C   0  0  0  0  0  0  0  0  0  0  0  0
   10.4213  -15.0440   19.0462 C   0  0  0  0  0  0  0  0  0  0  0  0
   10.0621  -14.0538   18.2256 N   0  0  0  0  0  0  0  0  0  0  0  0
    8.7877  -13.7118   18.4646 C   0  0  0  0  0  0  0  0  0  0  0  0
    7.9341  -12.7616   17.9163 C   0  0  0  0  0  0  0  0  0  0  0  0
    6.6452  -12.6563   18.4063 C   0  0  0  0  0  0  0  0  0  0  0  0
    6.1843  -13.4643   19.4213 C   0  0  0  0  0  0  0  0  0  0  0  0
    7.0353  -14.4022   19.9591 C   0  0  0  0  0  0  0  0  0  0  0  0
    8.3266  -14.5349   19.4928 C   0  0  0  0  0  0  0  0  0  0  0  0
    9.3388  -16.1033   23.3599 C   0  0  0  0  0  0  0  0  0  0  0  0
   10.4356  -15.4716   23.5142 O   0  0  0  0  0  0  0  0  0  0  0  0
    8.8233  -16.9234   24.3851 N   0  0  0  0  0  0  0  0  0  0  0  0
    9.4906  -17.0019   25.7065 C   0  0  1  0  0  0  0  0  0  0  0  0
    8.4370  -16.9337   26.7363 C   0  0  0  0  0  0  0  0  0  0  0  0
    7.5525  -15.7702   26.5760 C   0  0  0  0  0  0  0  0  0  0  0  0
    6.2414  -15.8297   26.1536 C   0  0  0  0  0  0  0  0  0  0  0  0
    5.7669  -14.5724   26.1063 N   0  0  0  0  0  0  0  0  0  0  0  0
    6.7354  -13.7115   26.4856 C   0  0  0  0  0  0  0  0  0  0  0  0
    6.7452  -12.3184   26.6066 C   0  0  0  0  0  0  0  0  0  0  0  0
    7.9036  -11.6782   27.0305 C   0  0  0  0  0  0  0  0  0  0  0  0
    9.0189  -12.4252   27.3234 C   0  0  0  0  0  0  0  0  0  0  0  0
    9.0243  -13.7954   27.2093 C   0  0  0  0  0  0  0  0  0  0  0  0
    7.8585  -14.4318   26.7835 C   0  0  0  0  0  0  0  0  0  0  0  0
   10.3844  -18.1456   25.6871 C   0  0  0  0  0  0  0  0  0  0  0  0
    9.8669  -19.2955   25.4344 O   0  0  0  0  0  0  0  0  0  0  0  0
   15.3184  -20.3296   23.0417 N   0  0  0  0  0  0  0  0  0  0  0  0
   15.1233  -18.9400   23.2473 C   0  0  0  0  0  0  0  0  0  0  0  0
   15.9031  -18.0472   22.7676 O   0  0  0  0  0  0  0  0  0  0  0  0
   13.9837  -18.4218   24.0376 C   0  0  0  0  0  0  0  0  0  0  0  0
   13.0813  -19.5084   24.4650 C   0  0  0  0  0  0  0  0  0  0  0  0
   12.5597  -19.4008   25.8581 C   0  0  2  0  0  0  0  0  0  0  0  0
   11.7619  -18.1317   25.9126 N   0  0  0  0  0  0  0  0  0  0  0  0
   13.5169  -19.3620   26.9512 C   0  0  0  0  0  0  0  0  0  0  0  0
   14.2747  -20.3389   27.2233 O   0  0  0  0  0  0  0  0  0  0  0  0
   13.7033  -18.2511   27.7959 O   0  0  0  0  0  0  0  0  0  0  0  0
  2  1  1  6
  2 13  1  0
  2  3  1  0
  4  5  2  0
  4  3  1  0
  6  5  1  0
  7 12  2  0
  7  6  1  0
  8  7  1  0
  9 10  1  0
  9  8  2  0
 10 11  2  0
 11 12  1  0
 12  4  1  0
 13 15  1  0
 14 13  2  0
 15 16  1  0
 16 17  1  1
 16 27  1  0
 18 17  1  0
 19 18  2  0
 20 21  1  0
 20 19  1  0
 21 26  2  0
 22 23  2  0
 22 21  1  0
 23 24  1  0
 24 25  2  0
 26 25  1  0
 26 18  1  0
 27 28  2  0
 27 35  1  0
 29 30  1  0
 30 32  1  0
 31 30  2  0
 32 33  1  0
 34 33  1  6
 34 36  1  0
 35 34  1  0
 36 37  2  0
 36 38  1  0
M  END
$$$$
