WWQ.pdb
     RDKit          3D

 38 41  0  0  1  0  0  0  0  0999 V2000
   11.5858  -15.0697   20.2319 N   0  0  0  0  0  0  0  0  0  0  0  0
   10.3980  -15.5247   20.8781 C   0  0  1  0  0  0  0  0  0  0  0  0
    9.5769  -16.4744   20.0693 C   0  0  0  0  0  0  0  0  0  0  0  0
    8.5706  -15.7264   19.2889 C   0  0  0  0  0  0  0  0  0  0  0  0
    7.6016  -16.2750   18.4442 C   0  0  0  0  0  0  0  0  0  0  0  0
    6.8444  -15.2984   17.9382 N   0  0  0  0  0  0  0  0  0  0  0  0
    7.2647  -14.1147   18.4075 C   0  0  0  0  0  0  0  0  0  0  0  0
    6.8477  -12.8041   18.2062 C   0  0  0  0  0  0  0  0  0  0  0  0
    7.5175  -11.7809   18.8519 C   0  0  0  0  0  0  0  0  0  0  0  0
    8.5852  -12.0233   19.6867 C   0  0  0  0  0  0  0  0  0  0  0  0
    8.9922  -13.3232   19.8806 C   0  0  0  0  0  0  0  0  0  0  0  0
    8.3453  -14.3675   19.2533 C   0  0  0  0  0  0  0  0  0  0  0  0
   10.6945  -16.0234   22.2552 C   0  0  0  0  0  0  0  0  0  0  0  0
   11.8347  -16.5161   22.5433 O   0  0  0  0  0  0  0  0  0  0  0  0
    9.6768  -15.9321   23.2274 N   0  0  0  0  0  0  0  0  0  0  0  0
    9.9377  -16.2961   24.6405 C   0  0  1  0  0  0  0  0  0  0  0  0
    8.8269  -15.7560   25.4464 C   0  0  0  0  0  0  0  0  0  0  0  0
    8.9768  -16.0257   26.8840 C   0  0  0  0  0  0  0  0  0  0  0  0
    8.5112  -17.1531   27.5267 C   0  0  0  0  0  0  0  0  0  0  0  0
    8.8100  -17.0353   28.8325 N   0  0  0  0  0  0  0  0  0  0  0  0
    9.4522  -15.8666   29.0433 C   0  0  0  0  0  0  0  0  0  0  0  0
    9.9674  -15.2859   30.2064 C   0  0  0  0  0  0  0  0  0  0  0  0
   10.5956  -14.0486   30.1312 C   0  0  0  0  0  0  0  0  0  0  0  0
   10.6996  -13.4173   28.9153 C   0  0  0  0  0  0  0  0  0  0  0  0
   10.1982  -13.9758   27.7632 C   0  0  0  0  0  0  0  0  0  0  0  0
    9.5690  -15.2179   27.8456 C   0  0  0  0  0  0  0  0  0  0  0  0
   10.2171  -17.7198   24.6897 C   0  0  0  0  0  0  0  0  0  0  0  0
    9.7838  -18.4408   23.7168 O   0  0  0  0  0  0  0  0  0  0  0  0
   12.4785  -20.6651   21.4940 N   0  0  0  0  0  0  0  0  0  0  0  0
   13.6287  -20.3064   22.2418 C   0  0  0  0  0  0  0  0  0  0  0  0
   14.7666  -20.0770   21.7052 O   0  0  0  0  0  0  0  0  0  0  0  0
   13.5875  -20.1653   23.7150 C   0  0  0  0  0  0  0  0  0  0  0  0
   12.5556  -19.1992   24.1387 C   0  0  0  0  0  0  0  0  0  0  0  0
   11.7784  -19.5795   25.3535 C   0  0  2  0  0  0  0  0  0  0  0  0
   10.9164  -18.3986   25.6891 N   0  0  0  0  0  0  0  0  0  0  0  0
   12.5116  -19.9403   26.5555 C   0  0  0  0  0  0  0  0  0  0  0  0
   13.0257  -21.0859   26.7173 O   0  0  0  0  0  0  0  0  0  0  0  0
   12.7303  -19.0660   27.6370 O   0  0  0  0  0  0  0  0  0  0  0  0
  2  1  1  6
  2 13  1  0
  2  3  1  0
  4  5  2  0
  4  3  1  0
  6  5  1  0
  7 12  2  0
  7  6  1  0
  8  7  1  0
  9 10  1  0
  9  8  2  0
 10 11  2  0
 11 12  1  0
 12  4  1  0
 13 15  1  0
 14 13  2  0
 15 16  1  0
 16 17  1  1
 16 27  1  0
 18 17  1  0
 19 18  2  0
 20 21  1  0
 20 19  1  0
 21 26  2  0
 22 23  2  0
 22 21  1  0
 23 24  1  0
 24 25  2  0
 26 25  1  0
 26 18  1  0
 27 28  2  0
 27 35  1  0
 29 30  1  0
 30 32  1  0
 31 30  2  0
 32 33  1  0
 34 33  1  6
 34 36  1  0
 35 34  1  0
 36 37  2  0
 36 38  1  0
M  END
$$$$
