ELP.pdb
     RDKit          3D

 25 25  0  0  1  0  0  0  0  0999 V2000
   27.5720  -20.7260  -16.5456 N   0  0  0  0  0  0  0  0  0  0  0  0
   26.4419  -19.8969  -16.2940 C   0  0  1  0  0  0  0  0  0  0  0  0
   25.7535  -19.4246  -17.5377 C   0  0  0  0  0  0  0  0  0  0  0  0
   26.2055  -18.0835  -18.0116 C   0  0  0  0  0  0  0  0  0  0  0  0
   27.3268  -18.1250  -18.9228 C   0  0  0  0  0  0  0  0  0  0  0  0
   27.3294  -18.6587  -20.0278 O   0  0  0  0  0  0  0  0  0  0  0  0
   25.4504  -20.5703  -15.3907 C   0  0  0  0  0  0  0  0  0  0  0  0
   24.9484  -21.6772  -15.7810 O   0  0  0  0  0  0  0  0  0  0  0  0
   28.5289  -17.5050  -18.5275 O   0  0  0  0  0  0  0  0  0  0  0  0
   25.8784  -20.3172   -9.8556 C   0  0  0  0  0  0  0  0  0  0  0  0
   25.6613  -20.8580  -11.2518 C   0  0  1  0  0  0  0  0  0  0  0  0
   25.8745  -22.3233  -11.2672 C   0  0  0  0  0  0  0  0  0  0  0  0
   24.3980  -20.3513  -11.8742 C   0  0  0  0  0  0  0  0  0  0  0  0
   24.1384  -20.7821  -13.2759 C   0  0  2  0  0  0  0  0  0  0  0  0
   25.0477  -20.0480  -14.1511 N   0  0  0  0  0  0  0  0  0  0  0  0
   22.7477  -20.5169  -13.7201 C   0  0  0  0  0  0  0  0  0  0  0  0
   22.3503  -19.3140  -13.6557 O   0  0  0  0  0  0  0  0  0  0  0  0
   21.8477  -21.4859  -14.2019 N   0  0  0  0  0  0  0  0  0  0  0  0
   21.9963  -22.8915  -14.4504 C   0  0  0  0  0  0  0  0  0  0  0  0
   20.6188  -23.4172  -14.0267 C   0  0  0  0  0  0  0  0  0  0  0  0
   19.7832  -22.4701  -14.9080 C   0  0  0  0  0  0  0  0  0  0  0  0
   20.4518  -21.1631  -14.5568 C   0  0  1  0  0  0  0  0  0  0  0  0
   19.8119  -20.5729  -13.3730 C   0  0  0  0  0  0  0  0  0  0  0  0
   18.6264  -19.8742  -13.4822 O   0  0  0  0  0  0  0  0  0  0  0  0
   20.3386  -20.6974  -12.2414 O   0  0  0  0  0  0  0  0  0  0  0  0
  2  1  1  6
  3  2  1  0
  4  3  1  0
  5  6  2  0
  5  4  1  0
  7  2  1  0
  7  8  2  0
  9  5  1  0
 11 12  1  1
 11 10  1  0
 13 11  1  0
 14 13  1  1
 15 14  1  0
 15  7  1  0
 16 14  1  0
 17 16  2  0
 18 16  1  0
 18 19  1  0
 20 19  1  0
 21 20  1  0
 22 21  1  0
 22 18  1  0
 22 23  1  1
 24 23  1  0
 25 23  2  0
M  END
$$$$
