ELP.pdb
     RDKit          3D

 25 25  0  0  1  0  0  0  0  0999 V2000
   21.7192  -15.3075  -18.5450 N   0  0  0  0  0  0  0  0  0  0  0  0
   21.8149  -13.9493  -18.9619 C   0  0  1  0  0  0  0  0  0  0  0  0
   20.5231  -13.3823  -19.4657 C   0  0  0  0  0  0  0  0  0  0  0  0
   19.9404  -14.1275  -20.6199 C   0  0  0  0  0  0  0  0  0  0  0  0
   18.7788  -13.4974  -21.2055 C   0  0  0  0  0  0  0  0  0  0  0  0
   18.2465  -12.4674  -20.8035 O   0  0  0  0  0  0  0  0  0  0  0  0
   22.3630  -13.0726  -17.8742 C   0  0  0  0  0  0  0  0  0  0  0  0
   21.9874  -13.3074  -16.6770 O   0  0  0  0  0  0  0  0  0  0  0  0
   18.1926  -14.1017  -22.3356 O   0  0  0  0  0  0  0  0  0  0  0  0
   26.3047  -11.1127  -14.8415 C   0  0  0  0  0  0  0  0  0  0  0  0
   25.9694  -10.3327  -16.0938 C   0  0  1  0  0  0  0  0  0  0  0  0
   27.1577   -9.5799  -16.5562 C   0  0  0  0  0  0  0  0  0  0  0  0
   25.2551  -11.1630  -17.1138 C   0  0  0  0  0  0  0  0  0  0  0  0
   23.7702  -11.2003  -17.0064 C   0  0  2  0  0  0  0  0  0  0  0  0
   23.2571  -12.0146  -18.1043 N   0  0  0  0  0  0  0  0  0  0  0  0
   23.1450   -9.8572  -17.0899 C   0  0  0  0  0  0  0  0  0  0  0  0
   23.3713   -9.1898  -18.1447 O   0  0  0  0  0  0  0  0  0  0  0  0
   22.3298   -9.2753  -16.1011 N   0  0  0  0  0  0  0  0  0  0  0  0
   21.8730   -9.7594  -14.8296 C   0  0  0  0  0  0  0  0  0  0  0  0
   21.9128   -8.4763  -13.9896 C   0  0  0  0  0  0  0  0  0  0  0  0
   21.0622   -7.6110  -14.9381 C   0  0  0  0  0  0  0  0  0  0  0  0
   21.7645   -7.9187  -16.2384 C   0  0  1  0  0  0  0  0  0  0  0  0
   22.8809   -6.9849  -16.4405 C   0  0  0  0  0  0  0  0  0  0  0  0
   22.6527   -5.6830  -16.8389 O   0  0  0  0  0  0  0  0  0  0  0  0
   24.0624   -7.3616  -16.2524 O   0  0  0  0  0  0  0  0  0  0  0  0
  2  1  1  1
  3  2  1  0
  4  3  1  0
  5  6  2  0
  5  4  1  0
  7  2  1  0
  7  8  2  0
  9  5  1  0
 11 12  1  6
 11 10  1  0
 13 11  1  0
 14 13  1  6
 15 14  1  0
 15  7  1  0
 16 14  1  0
 17 16  2  0
 18 16  1  0
 18 19  1  0
 20 19  1  0
 21 20  1  0
 22 21  1  0
 22 18  1  0
 22 23  1  1
 24 23  1  0
 25 23  2  0
M  END
$$$$
