ELP.pdb
     RDKit          3D

 25 25  0  0  1  0  0  0  0  0999 V2000
   18.2120  -11.7282  -15.7362 N   0  0  0  0  0  0  0  0  0  0  0  0
   17.5137  -10.4939  -15.6076 C   0  0  1  0  0  0  0  0  0  0  0  0
   16.0345  -10.6549  -15.4340 C   0  0  0  0  0  0  0  0  0  0  0  0
   15.3470  -11.2675  -16.6084 C   0  0  0  0  0  0  0  0  0  0  0  0
   15.0178  -12.6646  -16.4389 C   0  0  0  0  0  0  0  0  0  0  0  0
   14.3755  -13.3479  -17.2304 O   0  0  0  0  0  0  0  0  0  0  0  0
   18.0668   -9.6576  -14.4910 C   0  0  0  0  0  0  0  0  0  0  0  0
   18.2617  -10.2256  -13.3645 O   0  0  0  0  0  0  0  0  0  0  0  0
   15.4635  -13.3165  -15.2718 O   0  0  0  0  0  0  0  0  0  0  0  0
   21.6763   -6.7516  -11.9079 C   0  0  0  0  0  0  0  0  0  0  0  0
   20.8384   -6.0002  -12.9191 C   0  0  1  0  0  0  0  0  0  0  0  0
   21.6034   -4.8537  -13.4602 C   0  0  0  0  0  0  0  0  0  0  0  0
   20.1866   -6.9089  -13.9138 C   0  0  0  0  0  0  0  0  0  0  0  0
   18.8959   -7.5224  -13.4949 C   0  0  2  0  0  0  0  0  0  0  0  0
   18.3749   -8.2937  -14.6198 N   0  0  0  0  0  0  0  0  0  0  0  0
   17.8737   -6.5209  -13.1026 C   0  0  0  0  0  0  0  0  0  0  0  0
   17.5146   -5.6955  -13.9964 O   0  0  0  0  0  0  0  0  0  0  0  0
   17.2792   -6.4189  -11.8309 N   0  0  0  0  0  0  0  0  0  0  0  0
   17.4689   -7.1690  -10.6221 C   0  0  0  0  0  0  0  0  0  0  0  0
   17.3257   -6.0690   -9.5624 C   0  0  0  0  0  0  0  0  0  0  0  0
   15.9627   -5.5330  -10.0389 C   0  0  0  0  0  0  0  0  0  0  0  0
   16.2589   -5.4008  -11.5131 C   0  0  1  0  0  0  0  0  0  0  0  0
   16.8392   -4.0802  -11.7931 C   0  0  0  0  0  0  0  0  0  0  0  0
   18.1968   -3.9304  -11.9930 O   0  0  0  0  0  0  0  0  0  0  0  0
   16.1034   -3.0662  -11.8542 O   0  0  0  0  0  0  0  0  0  0  0  0
  2  1  1  1
  3  2  1  0
  4  3  1  0
  5  6  2  0
  5  4  1  0
  7  2  1  0
  7  8  2  0
  9  5  1  0
 11 12  1  6
 11 10  1  0
 13 11  1  0
 14 13  1  6
 15 14  1  0
 15  7  1  0
 16 14  1  0
 17 16  2  0
 18 16  1  0
 18 19  1  0
 20 19  1  0
 21 20  1  0
 22 21  1  0
 22 18  1  0
 22 23  1  1
 24 23  1  0
 25 23  2  0
M  END
$$$$
