ELP.pdb
     RDKit          3D

 25 25  0  0  1  0  0  0  0  0999 V2000
   28.1818  -18.0248  -16.6695 N   0  0  0  0  0  0  0  0  0  0  0  0
   27.1319  -17.6565  -15.7808 C   0  0  1  0  0  0  0  0  0  0  0  0
   25.9978  -16.9442  -16.4519 C   0  0  0  0  0  0  0  0  0  0  0  0
   25.0902  -17.8399  -17.2272 C   0  0  0  0  0  0  0  0  0  0  0  0
   24.0274  -17.1484  -17.9211 C   0  0  0  0  0  0  0  0  0  0  0  0
   23.1151  -17.6831  -18.5438 O   0  0  0  0  0  0  0  0  0  0  0  0
   26.6081  -18.8398  -15.0208 C   0  0  0  0  0  0  0  0  0  0  0  0
   26.4841  -19.9427  -15.6515 O   0  0  0  0  0  0  0  0  0  0  0  0
   24.0199  -15.7396  -17.8919 O   0  0  0  0  0  0  0  0  0  0  0  0
   26.4988  -22.0415  -10.6055 C   0  0  0  0  0  0  0  0  0  0  0  0
   25.5416  -20.8698  -10.5941 C   0  0  1  0  0  0  0  0  0  0  0  0
   25.2036  -20.5042   -9.1996 C   0  0  0  0  0  0  0  0  0  0  0  0
   25.9810  -19.7602  -11.4973 C   0  0  0  0  0  0  0  0  0  0  0  0
   25.7998  -19.9918  -12.9572 C   0  0  2  0  0  0  0  0  0  0  0  0
   26.2476  -18.7955  -13.6644 N   0  0  0  0  0  0  0  0  0  0  0  0
   24.3898  -20.2571  -13.3356 C   0  0  0  0  0  0  0  0  0  0  0  0
   23.5643  -19.3119  -13.1502 O   0  0  0  0  0  0  0  0  0  0  0  0
   23.9049  -21.4618  -13.8783 N   0  0  0  0  0  0  0  0  0  0  0  0
   24.5505  -22.7108  -14.1664 C   0  0  0  0  0  0  0  0  0  0  0  0
   23.4430  -23.7095  -13.8066 C   0  0  0  0  0  0  0  0  0  0  0  0
   22.3425  -23.0858  -14.6852 C   0  0  0  0  0  0  0  0  0  0  0  0
   22.4933  -21.6424  -14.2700 C   0  0  1  0  0  0  0  0  0  0  0  0
   21.6610  -21.3686  -13.0904 C   0  0  0  0  0  0  0  0  0  0  0  0
   20.3211  -21.0644  -13.2234 O   0  0  0  0  0  0  0  0  0  0  0  0
   22.1610  -21.4081  -11.9407 O   0  0  0  0  0  0  0  0  0  0  0  0
  2  1  1  6
  3  2  1  0
  4  3  1  0
  5  6  2  0
  5  4  1  0
  7  2  1  0
  7  8  2  0
  9  5  1  0
 11 12  1  1
 11 10  1  0
 13 11  1  0
 14 13  1  1
 15 14  1  0
 15  7  1  0
 16 14  1  0
 17 16  2  0
 18 16  1  0
 18 19  1  0
 20 19  1  0
 21 20  1  0
 22 21  1  0
 22 18  1  0
 22 23  1  1
 24 23  1  0
 25 23  2  0
M  END
$$$$
