ELP.pdb
     RDKit          3D

 25 25  0  0  1  0  0  0  0  0999 V2000
   28.8222  -20.8584  -16.3942 N   0  0  0  0  0  0  0  0  0  0  0  0
   27.9937  -19.9039  -15.7382 C   0  0  1  0  0  0  0  0  0  0  0  0
   27.4413  -18.8559  -16.6550 C   0  0  0  0  0  0  0  0  0  0  0  0
   26.8633  -19.3972  -17.9199 C   0  0  0  0  0  0  0  0  0  0  0  0
   25.5543  -18.8764  -18.2429 C   0  0  0  0  0  0  0  0  0  0  0  0
   24.5357  -19.5452  -18.3878 O   0  0  0  0  0  0  0  0  0  0  0  0
   26.8730  -20.5640  -14.9896 C   0  0  0  0  0  0  0  0  0  0  0  0
   26.4789  -21.7074  -15.3981 O   0  0  0  0  0  0  0  0  0  0  0  0
   25.4145  -17.4841  -18.4094 O   0  0  0  0  0  0  0  0  0  0  0  0
   25.9890  -20.2148   -9.3705 C   0  0  0  0  0  0  0  0  0  0  0  0
   26.1331  -20.7891  -10.7628 C   0  0  1  0  0  0  0  0  0  0  0  0
   26.1602  -22.2683  -10.7012 C   0  0  0  0  0  0  0  0  0  0  0  0
   25.1845  -20.1697  -11.7408 C   0  0  0  0  0  0  0  0  0  0  0  0
   25.2183  -20.7180  -13.1250 C   0  0  2  0  0  0  0  0  0  0  0  0
   26.2390  -19.9918  -13.8750 N   0  0  0  0  0  0  0  0  0  0  0  0
   23.9257  -20.5777  -13.8401 C   0  0  0  0  0  0  0  0  0  0  0  0
   23.4723  -19.4000  -13.9685 O   0  0  0  0  0  0  0  0  0  0  0  0
   23.1746  -21.6381  -14.3806 N   0  0  0  0  0  0  0  0  0  0  0  0
   23.4544  -23.0394  -14.5142 C   0  0  0  0  0  0  0  0  0  0  0  0
   22.0694  -23.6466  -14.2564 C   0  0  0  0  0  0  0  0  0  0  0  0
   21.3079  -22.8162  -15.3065 C   0  0  0  0  0  0  0  0  0  0  0  0
   21.8264  -21.4442  -14.9496 C   0  0  1  0  0  0  0  0  0  0  0  0
   20.9817  -20.8422  -13.9088 C   0  0  0  0  0  0  0  0  0  0  0  0
   19.7707  -20.2610  -14.2271 O   0  0  0  0  0  0  0  0  0  0  0  0
   21.3530  -20.8490  -12.7107 O   0  0  0  0  0  0  0  0  0  0  0  0
  2  1  1  6
  3  2  1  0
  4  3  1  0
  5  6  2  0
  5  4  1  0
  7  2  1  0
  7  8  2  0
  9  5  1  0
 11 12  1  1
 11 10  1  0
 13 11  1  0
 14 13  1  1
 15 14  1  0
 15  7  1  0
 16 14  1  0
 17 16  2  0
 18 16  1  0
 18 19  1  0
 20 19  1  0
 21 20  1  0
 22 21  1  0
 22 18  1  0
 22 23  1  1
 24 23  1  0
 25 23  2  0
M  END
$$$$
