ELP.pdb
     RDKit          3D

 25 25  0  0  1  0  0  0  0  0999 V2000
   19.8023  -19.1217  -16.8533 N   0  0  0  0  0  0  0  0  0  0  0  0
   19.5915  -18.0648  -15.9226 C   0  0  1  0  0  0  0  0  0  0  0  0
   20.8007  -17.7358  -15.1020 C   0  0  0  0  0  0  0  0  0  0  0  0
   21.2567  -18.8477  -14.2172 C   0  0  0  0  0  0  0  0  0  0  0  0
   20.4081  -19.0769  -13.0697 C   0  0  0  0  0  0  0  0  0  0  0  0
   19.6390  -18.2583  -12.5758 O   0  0  0  0  0  0  0  0  0  0  0  0
   19.0846  -16.8241  -16.5979 C   0  0  0  0  0  0  0  0  0  0  0  0
   19.5802  -16.5228  -17.7351 O   0  0  0  0  0  0  0  0  0  0  0  0
   20.4529  -20.3422  -12.4511 O   0  0  0  0  0  0  0  0  0  0  0  0
   15.5178  -13.6874  -18.7390 C   0  0  0  0  0  0  0  0  0  0  0  0
   15.4538  -13.5757  -17.2316 C   0  0  1  0  0  0  0  0  0  0  0  0
   14.0675  -13.2801  -16.8031 C   0  0  0  0  0  0  0  0  0  0  0  0
   16.1487  -14.7075  -16.5416 C   0  0  0  0  0  0  0  0  0  0  0  0
   17.6175  -14.8096  -16.7651 C   0  0  2  0  0  0  0  0  0  0  0  0
   18.1045  -15.9835  -16.0463 N   0  0  0  0  0  0  0  0  0  0  0  0
   18.3655  -13.6228  -16.2814 C   0  0  0  0  0  0  0  0  0  0  0  0
   18.3943  -13.4423  -15.0261 O   0  0  0  0  0  0  0  0  0  0  0  0
   19.0373  -12.6947  -17.0987 N   0  0  0  0  0  0  0  0  0  0  0  0
   19.2726  -12.6589  -18.5140 C   0  0  0  0  0  0  0  0  0  0  0  0
   19.1492  -11.1567  -18.7995 C   0  0  0  0  0  0  0  0  0  0  0  0
   20.1681  -10.6863  -17.7447 C   0  0  0  0  0  0  0  0  0  0  0  0
   19.6661  -11.4734  -16.5585 C   0  0  1  0  0  0  0  0  0  0  0  0
   18.6296  -10.7097  -15.8502 C   0  0  0  0  0  0  0  0  0  0  0  0
   18.9557   -9.8821  -14.7946 O   0  0  0  0  0  0  0  0  0  0  0  0
   17.4280  -10.8011  -16.1983 O   0  0  0  0  0  0  0  0  0  0  0  0
  2  1  1  6
  3  2  1  0
  4  3  1  0
  5  6  2  0
  5  4  1  0
  7  2  1  0
  7  8  2  0
  9  5  1  0
 11 12  1  1
 11 10  1  0
 13 11  1  0
 14 13  1  1
 15 14  1  0
 15  7  1  0
 16 14  1  0
 17 16  2  0
 18 16  1  0
 18 19  1  0
 20 19  1  0
 21 20  1  0
 22 21  1  0
 22 18  1  0
 22 23  1  6
 24 23  1  0
 25 23  2  0
M  END
$$$$
