ELP.pdb
     RDKit          3D

 25 25  0  0  1  0  0  0  0  0999 V2000
   21.3388  -20.0875  -16.9973 N   0  0  0  0  0  0  0  0  0  0  0  0
   22.1919  -21.1649  -17.3705 C   0  0  1  0  0  0  0  0  0  0  0  0
   22.4691  -21.2310  -18.8412 C   0  0  0  0  0  0  0  0  0  0  0  0
   23.1279  -20.0104  -19.3918 C   0  0  0  0  0  0  0  0  0  0  0  0
   22.2865  -19.2283  -20.2689 C   0  0  0  0  0  0  0  0  0  0  0  0
   22.5581  -18.1183  -20.7162 O   0  0  0  0  0  0  0  0  0  0  0  0
   23.4864  -21.1357  -16.6118 C   0  0  0  0  0  0  0  0  0  0  0  0
   24.2832  -22.1221  -16.7596 O   0  0  0  0  0  0  0  0  0  0  0  0
   21.0439  -19.7689  -20.6556 O   0  0  0  0  0  0  0  0  0  0  0  0
   28.2793  -19.8060  -15.2362 C   0  0  0  0  0  0  0  0  0  0  0  0
   27.2519  -18.8705  -14.6378 C   0  0  1  0  0  0  0  0  0  0  0  0
   27.8285  -17.5153  -14.4836 C   0  0  0  0  0  0  0  0  0  0  0  0
   25.9221  -18.9669  -15.3177 C   0  0  0  0  0  0  0  0  0  0  0  0
   25.0918  -20.1532  -14.9699 C   0  0  2  0  0  0  0  0  0  0  0  0
   23.8611  -20.0900  -15.7530 N   0  0  0  0  0  0  0  0  0  0  0  0
   24.7277  -20.2098  -13.5325 C   0  0  0  0  0  0  0  0  0  0  0  0
   23.8108  -19.4225  -13.1472 O   0  0  0  0  0  0  0  0  0  0  0  0
   25.3143  -21.0601  -12.5765 N   0  0  0  0  0  0  0  0  0  0  0  0
   26.3175  -22.0801  -12.6893 C   0  0  0  0  0  0  0  0  0  0  0  0
   27.0864  -21.8896  -11.3756 C   0  0  0  0  0  0  0  0  0  0  0  0
   25.8686  -21.9790  -10.4369 C   0  0  0  0  0  0  0  0  0  0  0  0
   24.9468  -21.0178  -11.1476 C   0  0  1  0  0  0  0  0  0  0  0  0
   25.1775  -19.6494  -10.6644 C   0  0  0  0  0  0  0  0  0  0  0  0
   24.6166  -19.2113   -9.4816 O   0  0  0  0  0  0  0  0  0  0  0  0
   25.8912  -18.8574  -11.3252 O   0  0  0  0  0  0  0  0  0  0  0  0
  2  1  1  6
  3  2  1  0
  4  3  1  0
  5  6  2  0
  5  4  1  0
  7  2  1  0
  7  8  2  0
  9  5  1  0
 11 12  1  6
 11 10  1  0
 13 11  1  0
 14 13  1  1
 15 14  1  0
 15  7  1  0
 16 14  1  0
 17 16  2  0
 18 16  1  0
 18 19  1  0
 20 19  1  0
 21 20  1  0
 22 21  1  0
 22 18  1  0
 22 23  1  1
 24 23  1  0
 25 23  2  0
M  END
$$$$
