NVH.pdb
     RDKit          3D

 26 26  0  0  1  0  0  0  0  0999 V2000
   23.7383  -15.3126  -21.1032 N   0  0  0  0  0  0  0  0  0  0  0  0
   22.7463  -14.2910  -21.0503 C   0  0  0  0  0  0  0  0  0  0  0  0
   22.1332  -13.9874  -22.1322 O   0  0  0  0  0  0  0  0  0  0  0  0
   22.4124  -13.5868  -19.7993 C   0  0  0  0  0  0  0  0  0  0  0  0
   23.3368  -14.1293  -18.7279 C   0  0  2  0  0  0  0  0  0  0  0  0
   22.7951  -15.4313  -18.3660 N   0  0  0  0  0  0  0  0  0  0  0  0
   23.4149  -13.2251  -17.5577 C   0  0  0  0  0  0  0  0  0  0  0  0
   22.4747  -13.1807  -16.7256 O   0  0  0  0  0  0  0  0  0  0  0  0
   26.6241  -10.3126  -16.9519 C   0  0  0  0  0  0  0  0  0  0  0  0
   26.0106  -11.1072  -15.8160 C   0  0  1  0  0  0  0  0  0  0  0  0
   25.9334  -10.1478  -14.6430 C   0  0  0  0  0  0  0  0  0  0  0  0
   24.5924  -11.4385  -16.2245 C   0  0  2  0  0  0  0  0  0  0  0  0
   24.5288  -12.3813  -17.3134 N   0  0  0  0  0  0  0  0  0  0  0  0
   23.7637  -10.2418  -16.4480 C   0  0  0  0  0  0  0  0  0  0  0  0
   23.8187   -9.5130  -17.4679 O   0  0  0  0  0  0  0  0  0  0  0  0
   22.7891   -9.8027  -15.4708 N   0  0  0  0  0  0  0  0  0  0  0  0
   21.9595   -8.6541  -15.7245 C   0  0  1  0  0  0  0  0  0  0  0  0
   20.5551   -9.2037  -15.9943 C   0  0  0  0  0  0  0  0  0  0  0  0
   19.5778   -8.1203  -16.2114 C   0  0  0  0  0  0  0  0  0  0  0  0
   19.3986   -7.0429  -15.3796 C   0  0  0  0  0  0  0  0  0  0  0  0
   18.4097   -6.2388  -15.8759 N   0  0  0  0  0  0  0  0  0  0  0  0
   17.9994   -6.8426  -17.0115 C   0  0  0  0  0  0  0  0  0  0  0  0
   18.7074   -7.9829  -17.2147 N   0  0  0  0  0  0  0  0  0  0  0  0
   21.9316   -7.6782  -14.6109 C   0  0  0  0  0  0  0  0  0  0  0  0
   21.7668   -6.3333  -14.8498 O   0  0  0  0  0  0  0  0  0  0  0  0
   22.0579   -8.0363  -13.4083 O   0  0  0  0  0  0  0  0  0  0  0  0
  2  3  2  0
  2  1  1  0
  4  2  1  0
  5  4  1  0
  5  7  1  0
  5  6  1  1
  7 13  1  0
  7  8  2  0
 10 11  1  1
 10  9  1  0
 12 10  1  0
 12 13  1  6
 14 12  1  0
 14 15  2  0
 16 14  1  0
 17 16  1  0
 17 18  1  1
 19 18  1  0
 20 19  2  0
 21 20  1  0
 22 21  1  0
 22 23  2  0
 23 19  1  0
 24 17  1  0
 25 24  1  0
 26 24  2  0
M  END
$$$$
