NVH.pdb
     RDKit          3D

 26 26  0  0  1  0  0  0  0  0999 V2000
   18.6430  -11.5089  -20.0933 N   0  0  0  0  0  0  0  0  0  0  0  0
   17.7173  -11.4904  -19.0102 C   0  0  0  0  0  0  0  0  0  0  0  0
   16.5127  -11.8586  -19.2384 O   0  0  0  0  0  0  0  0  0  0  0  0
   18.1065  -11.0659  -17.6535 C   0  0  0  0  0  0  0  0  0  0  0  0
   19.5243  -11.5523  -17.4293 C   0  0  2  0  0  0  0  0  0  0  0  0
   19.4106  -12.9779  -17.1570 N   0  0  0  0  0  0  0  0  0  0  0  0
   20.1839  -10.8336  -16.3151 C   0  0  0  0  0  0  0  0  0  0  0  0
   19.6747  -10.8381  -15.1666 O   0  0  0  0  0  0  0  0  0  0  0  0
   23.2897  -11.3829  -14.8280 C   0  0  0  0  0  0  0  0  0  0  0  0
   23.4210   -9.8952  -15.0884 C   0  0  1  0  0  0  0  0  0  0  0  0
   24.2594   -9.7747  -16.3473 C   0  0  0  0  0  0  0  0  0  0  0  0
   22.0368   -9.3803  -15.4148 C   0  0  2  0  0  0  0  0  0  0  0  0
   21.3995  -10.1201  -16.4755 N   0  0  0  0  0  0  0  0  0  0  0  0
   21.9998   -7.9230  -15.6244 C   0  0  0  0  0  0  0  0  0  0  0  0
   22.4639   -7.3321  -16.6293 O   0  0  0  0  0  0  0  0  0  0  0  0
   21.4031   -7.0330  -14.6501 N   0  0  0  0  0  0  0  0  0  0  0  0
   21.4754   -5.6052  -14.8170 C   0  0  1  0  0  0  0  0  0  0  0  0
   20.0267   -5.1069  -14.7906 C   0  0  0  0  0  0  0  0  0  0  0  0
   19.3313   -5.3844  -16.0616 C   0  0  0  0  0  0  0  0  0  0  0  0
   19.9398   -5.8137  -17.2149 C   0  0  0  0  0  0  0  0  0  0  0  0
   19.0029   -5.9646  -18.1999 N   0  0  0  0  0  0  0  0  0  0  0  0
   17.8290   -5.6236  -17.6269 C   0  0  0  0  0  0  0  0  0  0  0  0
   18.0283   -5.2719  -16.3309 N   0  0  0  0  0  0  0  0  0  0  0  0
   22.2800   -4.9212  -13.7788 C   0  0  0  0  0  0  0  0  0  0  0  0
   22.6514   -3.6040  -13.9220 O   0  0  0  0  0  0  0  0  0  0  0  0
   22.6560   -5.5127  -12.7304 O   0  0  0  0  0  0  0  0  0  0  0  0
  2  3  2  0
  2  1  1  0
  4  2  1  0
  5  4  1  0
  5  7  1  0
  5  6  1  1
  7 13  1  0
  7  8  2  0
 10 11  1  6
 10  9  1  0
 12 10  1  0
 12 13  1  6
 14 12  1  0
 14 15  2  0
 16 14  1  0
 17 16  1  0
 17 18  1  1
 19 18  1  0
 20 19  2  0
 21 20  1  0
 22 21  1  0
 22 23  2  0
 23 19  1  0
 24 17  1  0
 25 24  1  0
 26 24  2  0
M  END
$$$$
