NVH.pdb
     RDKit          3D

 26 26  0  0  1  0  0  0  0  0999 V2000
   13.4525  -20.0713   -0.3108 N   0  0  0  0  0  0  0  0  0  0  0  0
   13.2031  -20.3916    1.0550 C   0  0  0  0  0  0  0  0  0  0  0  0
   12.0048  -20.6825    1.3984 O   0  0  0  0  0  0  0  0  0  0  0  0
   14.2747  -20.3977    2.0671 C   0  0  0  0  0  0  0  0  0  0  0  0
   15.5399  -19.9359    1.3721 C   0  0  2  0  0  0  0  0  0  0  0  0
   15.9459  -21.0449    0.5206 N   0  0  0  0  0  0  0  0  0  0  0  0
   16.5999  -19.5734    2.3405 C   0  0  0  0  0  0  0  0  0  0  0  0
   17.3361  -20.4614    2.8382 O   0  0  0  0  0  0  0  0  0  0  0  0
   19.5678  -17.7257    1.9947 C   0  0  0  0  0  0  0  0  0  0  0  0
   18.9136  -16.9629    3.1298 C   0  0  1  0  0  0  0  0  0  0  0  0
   18.2083  -15.7883    2.4778 C   0  0  0  0  0  0  0  0  0  0  0  0
   17.8480  -17.8651    3.7116 C   0  0  2  0  0  0  0  0  0  0  0  0
   16.8413  -18.2363    2.7486 N   0  0  0  0  0  0  0  0  0  0  0  0
   17.2815  -17.3493    4.9693 C   0  0  0  0  0  0  0  0  0  0  0  0
   16.2158  -16.6931    5.0585 O   0  0  0  0  0  0  0  0  0  0  0  0
   17.9372  -17.5700    6.2416 N   0  0  0  0  0  0  0  0  0  0  0  0
   17.3815  -17.0367    7.4576 C   0  0  1  0  0  0  0  0  0  0  0  0
   17.9609  -17.8888    8.5914 C   0  0  0  0  0  0  0  0  0  0  0  0
   17.2680  -19.1858    8.7078 C   0  0  0  0  0  0  0  0  0  0  0  0
   16.0084  -19.4515    8.2307 C   0  0  0  0  0  0  0  0  0  0  0  0
   15.6733  -20.7468    8.5147 N   0  0  0  0  0  0  0  0  0  0  0  0
   16.7423  -21.2545    9.1643 C   0  0  0  0  0  0  0  0  0  0  0  0
   17.7087  -20.3083    9.2813 N   0  0  0  0  0  0  0  0  0  0  0  0
   17.6846  -15.6037    7.6762 C   0  0  0  0  0  0  0  0  0  0  0  0
   16.8237  -14.7959    8.3829 O   0  0  0  0  0  0  0  0  0  0  0  0
   18.7345  -15.0689    7.2264 O   0  0  0  0  0  0  0  0  0  0  0  0
  2  3  2  0
  2  1  1  0
  4  2  1  0
  5  4  1  0
  5  7  1  0
  5  6  1  6
  7 13  1  0
  7  8  2  0
 10 11  1  6
 10  9  1  0
 12 10  1  0
 12 13  1  6
 14 12  1  0
 14 15  2  0
 16 14  1  0
 17 16  1  0
 17 18  1  1
 19 18  1  0
 20 19  2  0
 21 20  1  0
 22 21  1  0
 22 23  2  0
 23 19  1  0
 24 17  1  0
 25 24  1  0
 26 24  2  0
M  END
$$$$
