NVH.pdb
     RDKit          3D

 26 26  0  0  1  0  0  0  0  0999 V2000
   24.0442  -11.4433  -20.7016 N   0  0  0  0  0  0  0  0  0  0  0  0
   23.1780  -10.3302  -20.9046 C   0  0  0  0  0  0  0  0  0  0  0  0
   23.3004   -9.6588  -21.9876 O   0  0  0  0  0  0  0  0  0  0  0  0
   22.1586   -9.9394  -19.9143 C   0  0  0  0  0  0  0  0  0  0  0  0
   22.3120  -10.8745  -18.7315 C   0  0  2  0  0  0  0  0  0  0  0  0
   21.6336  -12.1045  -19.1142 N   0  0  0  0  0  0  0  0  0  0  0  0
   21.7396  -10.2966  -17.4940 C   0  0  0  0  0  0  0  0  0  0  0  0
   20.4973  -10.1516  -17.3764 O   0  0  0  0  0  0  0  0  0  0  0  0
   21.9765   -9.0061  -12.8045 C   0  0  0  0  0  0  0  0  0  0  0  0
   22.7630   -9.5858  -13.9636 C   0  0  1  0  0  0  0  0  0  0  0  0
   22.6797  -11.0920  -13.7994 C   0  0  0  0  0  0  0  0  0  0  0  0
   22.0155   -9.2258  -15.2283 C   0  0  2  0  0  0  0  0  0  0  0  0
   22.5405   -9.8872  -16.3969 N   0  0  0  0  0  0  0  0  0  0  0  0
   21.8577   -7.7728  -15.4093 C   0  0  0  0  0  0  0  0  0  0  0  0
   22.7922   -6.9785  -15.6738 O   0  0  0  0  0  0  0  0  0  0  0  0
   20.5647   -7.1313  -15.2909 N   0  0  0  0  0  0  0  0  0  0  0  0
   20.4163   -5.7228  -15.5478 C   0  0  1  0  0  0  0  0  0  0  0  0
   20.7542   -5.5299  -17.0297 C   0  0  0  0  0  0  0  0  0  0  0  0
   20.5726   -4.1284  -17.4526 C   0  0  0  0  0  0  0  0  0  0  0  0
   21.5909   -3.2371  -17.6833 C   0  0  0  0  0  0  0  0  0  0  0  0
   21.0685   -2.0284  -18.0533 N   0  0  0  0  0  0  0  0  0  0  0  0
   19.7299   -2.2035  -18.0433 C   0  0  0  0  0  0  0  0  0  0  0  0
   19.4296   -3.4764  -17.6792 N   0  0  0  0  0  0  0  0  0  0  0  0
   19.0634   -5.1993  -15.2500 C   0  0  0  0  0  0  0  0  0  0  0  0
   18.8683   -3.8737  -14.9371 O   0  0  0  0  0  0  0  0  0  0  0  0
   18.0433   -5.9406  -15.2692 O   0  0  0  0  0  0  0  0  0  0  0  0
  2  3  2  0
  2  1  1  0
  4  2  1  0
  5  4  1  0
  5  7  1  0
  5  6  1  6
  7 13  1  0
  7  8  2  0
 10 11  1  1
 10  9  1  0
 12 10  1  0
 12 13  1  6
 14 12  1  0
 14 15  2  0
 16 14  1  0
 17 16  1  0
 17 18  1  6
 19 18  1  0
 20 19  2  0
 21 20  1  0
 22 21  1  0
 22 23  2  0
 23 19  1  0
 24 17  1  0
 25 24  1  0
 26 24  2  0
M  END
$$$$
