VRG.pdb
     RDKit          3D

 23 22  0  0  1  0  0  0  0  0999 V2000
    7.3748  -12.7554   18.9305 C   0  0  0  0  0  0  0  0  0  0  0  0
    7.4023  -13.1153   20.3805 C   0  0  2  0  0  0  0  0  0  0  0  0
    8.5182  -12.3070   21.0324 C   0  0  0  0  0  0  0  0  0  0  0  0
    7.6692  -14.5826   20.6195 C   0  0  2  0  0  0  0  0  0  0  0  0
    6.7289  -15.3357   19.8109 N   0  0  0  0  0  0  0  0  0  0  0  0
    7.4426  -14.8682   22.0776 C   0  0  0  0  0  0  0  0  0  0  0  0
    6.3948  -14.5243   22.6743 O   0  0  0  0  0  0  0  0  0  0  0  0
    3.7141  -20.2241   22.2099 N   0  0  0  0  0  0  0  0  0  0  0  0
    3.6625  -19.0379   21.4312 C   0  0  0  0  0  0  0  0  0  0  0  0
    2.9091  -19.0548   20.3745 N   0  0  0  0  0  0  0  0  0  0  0  0
    4.3995  -17.8737   21.7826 N   0  0  0  0  0  0  0  0  0  0  0  0
    5.3677  -17.9912   22.8390 C   0  0  0  0  0  0  0  0  0  0  0  0
    6.0194  -16.6777   23.1811 C   0  0  0  0  0  0  0  0  0  0  0  0
    7.0446  -16.9007   24.2909 C   0  0  0  0  0  0  0  0  0  0  0  0
    8.1767  -15.9004   24.1993 C   0  0  2  0  0  0  0  0  0  0  0  0
    8.4319  -15.5505   22.8349 N   0  0  0  0  0  0  0  0  0  0  0  0
    9.3859  -16.5095   24.8542 C   0  0  0  0  0  0  0  0  0  0  0  0
    9.4062  -16.7567   26.0870 O   0  0  0  0  0  0  0  0  0  0  0  0
    2.8216  -18.2420   19.7361 N   0  0  0  0  0  0  0  0  0  0  0  0
   10.5497  -16.8292   24.1095 C   0  0  0  0  0  0  0  0  0  0  0  0
   11.8281  -16.1841   24.3296 C   0  0  0  0  0  0  0  0  0  0  0  0
   12.9534  -17.1176   24.2853 O   0  0  0  0  0  0  0  0  0  0  0  0
   14.2718  -16.7668   24.5312 O   0  0  0  0  0  0  0  0  0  0  0  0
  2  1  1  6
  2  4  1  0
  3  2  1  0
  4  6  1  0
  4  5  1  6
  6 16  1  0
  6  7  2  0
  9  8  1  0
 10  9  2  0
 11  9  1  0
 12 11  1  0
 13 12  1  0
 14 13  1  0
 15 14  1  6
 16 15  1  0
 17 15  1  0
 18 17  2  0
 19 17  1  0
 20 19  1  0
 21 22  1  0
 21 20  1  0
 23 21  2  0
M  END
$$$$
