VRG.pdb
     RDKit          3D

 23 22  0  0  1  0  0  0  0  0999 V2000
    9.2481  -22.0530   20.7187 C   0  0  0  0  0  0  0  0  0  0  0  0
    9.8205  -20.6838   20.8927 C   0  0  2  0  0  0  0  0  0  0  0  0
   10.6485  -20.6923   22.1725 C   0  0  0  0  0  0  0  0  0  0  0  0
    8.7626  -19.6124   21.0119 C   0  0  2  0  0  0  0  0  0  0  0  0
    7.8407  -19.7828   19.9046 N   0  0  0  0  0  0  0  0  0  0  0  0
    9.4397  -18.2737   20.9204 C   0  0  0  0  0  0  0  0  0  0  0  0
   10.3610  -18.0416   20.1022 O   0  0  0  0  0  0  0  0  0  0  0  0
    7.6487  -13.0895   16.0789 N   0  0  0  0  0  0  0  0  0  0  0  0
    7.7672  -13.8882   17.2468 C   0  0  0  0  0  0  0  0  0  0  0  0
    8.4160  -15.0069   17.1366 N   0  0  0  0  0  0  0  0  0  0  0  0
    7.2041  -13.4916   18.4908 N   0  0  0  0  0  0  0  0  0  0  0  0
    8.0350  -13.5890   19.6601 C   0  0  0  0  0  0  0  0  0  0  0  0
    7.7724  -14.8377   20.4594 C   0  0  0  0  0  0  0  0  0  0  0  0
    8.6458  -14.8241   21.7121 C   0  0  0  0  0  0  0  0  0  0  0  0
    9.6762  -15.9320   21.6731 C   0  0  2  0  0  0  0  0  0  0  0  0
    9.0446  -17.2124   21.7779 N   0  0  0  0  0  0  0  0  0  0  0  0
   10.6501  -15.6973   22.7948 C   0  0  0  0  0  0  0  0  0  0  0  0
   11.3268  -14.6395   22.8618 O   0  0  0  0  0  0  0  0  0  0  0  0
    8.5585  -15.6527   17.9356 N   0  0  0  0  0  0  0  0  0  0  0  0
   10.8445  -16.6573   23.8204 C   0  0  0  0  0  0  0  0  0  0  0  0
   11.7189  -16.4339   24.9538 C   0  0  0  0  0  0  0  0  0  0  0  0
   13.1235  -16.7113   24.6542 O   0  0  0  0  0  0  0  0  0  0  0  0
   14.1495  -16.6483   25.5842 O   0  0  0  0  0  0  0  0  0  0  0  0
  2  1  1  1
  2  4  1  0
  3  2  1  0
  4  6  1  0
  4  5  1  6
  6 16  1  0
  6  7  2  0
  9  8  1  0
 10  9  2  0
 11  9  1  0
 12 11  1  0
 13 12  1  0
 14 13  1  0
 15 14  1  1
 16 15  1  0
 17 15  1  0
 18 17  2  0
 19 17  1  0
 20 19  1  0
 21 22  1  0
 21 20  1  0
 23 21  2  0
M  END
$$$$
