VRG.pdb
     RDKit          3D

 23 22  0  0  1  0  0  0  0  0999 V2000
    7.6690  -12.3823   20.4229 C   0  0  0  0  0  0  0  0  0  0  0  0
    8.2386  -13.4516   19.5484 C   0  0  2  0  0  0  0  0  0  0  0  0
    7.8656  -13.1141   18.1095 C   0  0  0  0  0  0  0  0  0  0  0  0
    7.7047  -14.8266   19.8733 C   0  0  2  0  0  0  0  0  0  0  0  0
    6.2848  -14.8262   19.5754 N   0  0  0  0  0  0  0  0  0  0  0  0
    7.9262  -15.0807   21.3381 C   0  0  0  0  0  0  0  0  0  0  0  0
    7.1386  -14.6612   22.2190 O   0  0  0  0  0  0  0  0  0  0  0  0
    5.7959  -20.7793   26.3129 N   0  0  0  0  0  0  0  0  0  0  0  0
    6.9819  -20.4368   27.0144 C   0  0  0  0  0  0  0  0  0  0  0  0
    7.0343  -20.7420   28.2748 N   0  0  0  0  0  0  0  0  0  0  0  0
    8.0735  -19.7868   26.3758 N   0  0  0  0  0  0  0  0  0  0  0  0
    7.8403  -19.2104   25.0794 C   0  0  0  0  0  0  0  0  0  0  0  0
    8.5956  -17.9251   24.8684 C   0  0  0  0  0  0  0  0  0  0  0  0
    8.3847  -17.4494   23.4326 C   0  0  0  0  0  0  0  0  0  0  0  0
    9.1853  -16.1972   23.1475 C   0  0  2  0  0  0  0  0  0  0  0  0
    9.0589  -15.8195   21.7725 N   0  0  0  0  0  0  0  0  0  0  0  0
   10.6165  -16.4682   23.5220 C   0  0  0  0  0  0  0  0  0  0  0  0
   11.1592  -17.5745   23.2709 O   0  0  0  0  0  0  0  0  0  0  0  0
    7.8586  -20.5315   28.8682 N   0  0  0  0  0  0  0  0  0  0  0  0
   11.4104  -15.4893   24.1720 C   0  0  0  0  0  0  0  0  0  0  0  0
   12.7105  -15.7800   24.7415 C   0  0  0  0  0  0  0  0  0  0  0  0
   13.7384  -16.0137   23.7273 O   0  0  0  0  0  0  0  0  0  0  0  0
   15.0149  -15.4747   23.7676 O   0  0  0  0  0  0  0  0  0  0  0  0
  2  1  1  1
  2  4  1  0
  3  2  1  0
  4  6  1  0
  4  5  1  1
  6 16  1  0
  6  7  2  0
  9  8  1  0
 10  9  2  0
 11  9  1  0
 12 11  1  0
 13 12  1  0
 14 13  1  0
 15 14  1  6
 16 15  1  0
 17 15  1  0
 18 17  2  0
 19 17  1  0
 20 19  1  0
 21 22  1  0
 21 20  1  0
 23 21  2  0
M  END
$$$$
