VRG.pdb
     RDKit          3D

 23 22  0  0  1  0  0  0  0  0999 V2000
    6.0448  -13.7466   26.2132 C   0  0  0  0  0  0  0  0  0  0  0  0
    7.1945  -14.3799   25.4992 C   0  0  2  0  0  0  0  0  0  0  0  0
    8.1700  -13.2696   25.1261 C   0  0  0  0  0  0  0  0  0  0  0  0
    6.7813  -15.1004   24.2376 C   0  0  2  0  0  0  0  0  0  0  0  0
    5.8641  -16.1582   24.6184 N   0  0  0  0  0  0  0  0  0  0  0  0
    8.0140  -15.6861   23.6079 C   0  0  0  0  0  0  0  0  0  0  0  0
    8.5141  -16.7699   23.9920 O   0  0  0  0  0  0  0  0  0  0  0  0
    7.9001  -12.6664   17.0252 N   0  0  0  0  0  0  0  0  0  0  0  0
    8.0455  -13.9603   16.4590 C   0  0  0  0  0  0  0  0  0  0  0  0
    7.3195  -14.2375   15.4194 N   0  0  0  0  0  0  0  0  0  0  0  0
    8.9442  -14.9215   16.9977 N   0  0  0  0  0  0  0  0  0  0  0  0
    9.6880  -14.5541   18.1721 C   0  0  0  0  0  0  0  0  0  0  0  0
    9.2860  -15.3459   19.3881 C   0  0  0  0  0  0  0  0  0  0  0  0
   10.0934  -14.8623   20.5907 C   0  0  0  0  0  0  0  0  0  0  0  0
    9.7379  -15.6422   21.8381 C   0  0  2  0  0  0  0  0  0  0  0  0
    8.6593  -15.0119   22.5371 N   0  0  0  0  0  0  0  0  0  0  0  0
   10.9733  -15.7393   22.6904 C   0  0  0  0  0  0  0  0  0  0  0  0
   11.3744  -14.7625   23.3731 O   0  0  0  0  0  0  0  0  0  0  0  0
    7.3675  -15.1508   14.9302 N   0  0  0  0  0  0  0  0  0  0  0  0
   11.7344  -16.9340   22.7585 C   0  0  0  0  0  0  0  0  0  0  0  0
   12.9015  -17.0779   23.6047 C   0  0  0  0  0  0  0  0  0  0  0  0
   14.1592  -16.9489   22.8690 O   0  0  0  0  0  0  0  0  0  0  0  0
   15.0776  -15.9286   23.0613 O   0  0  0  0  0  0  0  0  0  0  0  0
  2  1  1  6
  2  4  1  0
  3  2  1  0
  4  6  1  0
  4  5  1  1
  6 16  1  0
  6  7  2  0
  9  8  1  0
 10  9  2  0
 11  9  1  0
 12 11  1  0
 13 12  1  0
 14 13  1  0
 15 14  1  6
 16 15  1  0
 17 15  1  0
 18 17  2  0
 19 17  1  0
 20 19  1  0
 21 22  1  0
 21 20  1  0
 23 21  2  0
M  END
$$$$
