VRG.pdb
     RDKit          3D

 23 22  0  0  1  0  0  0  0  0999 V2000
   10.3202  -21.7668   16.2010 C   0  0  0  0  0  0  0  0  0  0  0  0
   10.3038  -23.2377   15.9389 C   0  0  2  0  0  0  0  0  0  0  0  0
   11.2678  -23.5094   14.7898 C   0  0  0  0  0  0  0  0  0  0  0  0
    8.9377  -23.7532   15.5522 C   0  0  2  0  0  0  0  0  0  0  0  0
    8.5231  -23.0404   14.3584 N   0  0  0  0  0  0  0  0  0  0  0  0
    7.9908  -23.4638   16.6829 C   0  0  0  0  0  0  0  0  0  0  0  0
    7.3583  -22.3845   16.7697 O   0  0  0  0  0  0  0  0  0  0  0  0
    1.3877  -26.7706   19.3786 N   0  0  0  0  0  0  0  0  0  0  0  0
    1.8106  -25.4944   18.9221 C   0  0  0  0  0  0  0  0  0  0  0  0
    0.9878  -24.8319   18.1679 N   0  0  0  0  0  0  0  0  0  0  0  0
    3.0788  -24.9528   19.2688 N   0  0  0  0  0  0  0  0  0  0  0  0
    3.9341  -25.7443   20.1110 C   0  0  0  0  0  0  0  0  0  0  0  0
    5.2407  -25.0627   20.4198 C   0  0  0  0  0  0  0  0  0  0  0  0
    6.2464  -25.3831   19.3161 C   0  0  0  0  0  0  0  0  0  0  0  0
    6.9225  -24.1271   18.8101 C   0  0  2  0  0  0  0  0  0  0  0  0
    7.7829  -24.4270   17.7059 N   0  0  0  0  0  0  0  0  0  0  0  0
    7.6795  -23.5155   19.9567 C   0  0  0  0  0  0  0  0  0  0  0  0
    7.0908  -23.1435   21.0038 O   0  0  0  0  0  0  0  0  0  0  0  0
    1.2242  -23.9097   17.7564 N   0  0  0  0  0  0  0  0  0  0  0  0
    9.0850  -23.3338   19.9037 C   0  0  0  0  0  0  0  0  0  0  0  0
    9.8452  -22.7464   20.9881 C   0  0  0  0  0  0  0  0  0  0  0  0
   10.5087  -23.7449   21.8262 O   0  0  0  0  0  0  0  0  0  0  0  0
   11.4928  -23.4553   22.7585 O   0  0  0  0  0  0  0  0  0  0  0  0
  2  1  1  6
  2  4  1  0
  3  2  1  0
  4  6  1  0
  4  5  1  6
  6 16  1  0
  6  7  2  0
  9  8  1  0
 10  9  2  0
 11  9  1  0
 12 11  1  0
 13 12  1  0
 14 13  1  0
 15 14  1  1
 16 15  1  0
 17 15  1  0
 18 17  2  0
 19 17  1  0
 20 19  1  0
 21 22  1  0
 21 20  1  0
 23 21  2  0
M  END
$$$$
