VRG.pdb
     RDKit          3D

 23 22  0  0  1  0  0  0  0  0999 V2000
   10.8037  -19.4704   17.0963 C   0  0  0  0  0  0  0  0  0  0  0  0
   10.2930  -19.4676   18.5005 C   0  0  2  0  0  0  0  0  0  0  0  0
   11.1568  -20.4327   19.3044 C   0  0  0  0  0  0  0  0  0  0  0  0
    8.8527  -19.9103   18.6057 C   0  0  2  0  0  0  0  0  0  0  0  0
    8.0716  -19.0731   17.7146 N   0  0  0  0  0  0  0  0  0  0  0  0
    8.4048  -19.7127   20.0267 C   0  0  0  0  0  0  0  0  0  0  0  0
    8.2249  -18.5749   20.5221 O   0  0  0  0  0  0  0  0  0  0  0  0
    3.2945  -24.3529   25.1494 N   0  0  0  0  0  0  0  0  0  0  0  0
    4.4674  -24.1131   25.9128 C   0  0  0  0  0  0  0  0  0  0  0  0
    4.6161  -24.8013   27.0033 N   0  0  0  0  0  0  0  0  0  0  0  0
    5.4458  -23.1625   25.5117 N   0  0  0  0  0  0  0  0  0  0  0  0
    5.1250  -22.3019   24.4055 C   0  0  0  0  0  0  0  0  0  0  0  0
    6.2390  -21.3468   24.0678 C   0  0  0  0  0  0  0  0  0  0  0  0
    6.6529  -21.5539   22.6124 C   0  0  0  0  0  0  0  0  0  0  0  0
    7.8011  -20.6430   22.2350 C   0  0  2  0  0  0  0  0  0  0  0  0
    8.1681  -20.8350   20.8646 N   0  0  0  0  0  0  0  0  0  0  0  0
    8.9468  -20.9336   23.1649 C   0  0  0  0  0  0  0  0  0  0  0  0
    9.5600  -22.0307   23.1230 O   0  0  0  0  0  0  0  0  0  0  0  0
    5.4773  -24.7581   27.5796 N   0  0  0  0  0  0  0  0  0  0  0  0
    9.3811  -19.9844   24.1248 C   0  0  0  0  0  0  0  0  0  0  0  0
   10.4726  -20.2355   25.0438 C   0  0  0  0  0  0  0  0  0  0  0  0
   11.7762  -19.8576   24.4983 O   0  0  0  0  0  0  0  0  0  0  0  0
   12.7492  -19.1661   25.2030 O   0  0  0  0  0  0  0  0  0  0  0  0
  2  1  1  6
  2  4  1  0
  3  2  1  0
  4  6  1  0
  4  5  1  6
  6 16  1  0
  6  7  2  0
  9  8  1  0
 10  9  2  0
 11  9  1  0
 12 11  1  0
 13 12  1  0
 14 13  1  0
 15 14  1  1
 16 15  1  0
 17 15  1  0
 18 17  2  0
 19 17  1  0
 20 19  1  0
 21 22  1  0
 21 20  1  0
 23 21  2  0
M  END
$$$$
