VRG.pdb
     RDKit          3D

 23 22  0  0  1  0  0  0  0  0999 V2000
    7.9034  -14.0228   16.6676 C   0  0  0  0  0  0  0  0  0  0  0  0
    8.3849  -14.4088   18.0284 C   0  0  2  0  0  0  0  0  0  0  0  0
    8.2049  -15.9160   18.1678 C   0  0  0  0  0  0  0  0  0  0  0  0
    7.6209  -13.7288   19.1398 C   0  0  2  0  0  0  0  0  0  0  0  0
    7.7533  -12.2966   18.9491 N   0  0  0  0  0  0  0  0  0  0  0  0
    8.2375  -14.1357   20.4488 C   0  0  0  0  0  0  0  0  0  0  0  0
    9.3821  -13.7608   20.7973 O   0  0  0  0  0  0  0  0  0  0  0  0
    7.5894  -19.9182   25.8608 N   0  0  0  0  0  0  0  0  0  0  0  0
    7.6147  -19.0399   26.9762 C   0  0  0  0  0  0  0  0  0  0  0  0
    8.0234  -19.5291   28.1068 N   0  0  0  0  0  0  0  0  0  0  0  0
    7.2122  -17.6800   26.8732 N   0  0  0  0  0  0  0  0  0  0  0  0
    6.6961  -17.2314   25.6084 C   0  0  0  0  0  0  0  0  0  0  0  0
    7.7579  -16.6319   24.7250 C   0  0  0  0  0  0  0  0  0  0  0  0
    7.1067  -16.0945   23.4525 C   0  0  0  0  0  0  0  0  0  0  0  0
    8.1098  -15.3531   22.5954 C   0  0  2  0  0  0  0  0  0  0  0  0
    7.5234  -14.9746   21.3455 N   0  0  0  0  0  0  0  0  0  0  0  0
    9.3038  -16.2472   22.4030 C   0  0  0  0  0  0  0  0  0  0  0  0
    9.2630  -17.2328   21.6232 O   0  0  0  0  0  0  0  0  0  0  0  0
    8.1246  -18.9521   28.9627 N   0  0  0  0  0  0  0  0  0  0  0  0
   10.5216  -16.0154   23.0918 C   0  0  0  0  0  0  0  0  0  0  0  0
   11.6838  -16.8682   22.9468 C   0  0  0  0  0  0  0  0  0  0  0  0
   12.7970  -16.4666   23.8065 O   0  0  0  0  0  0  0  0  0  0  0  0
   14.0442  -17.0717   23.8062 O   0  0  0  0  0  0  0  0  0  0  0  0
  2  1  1  6
  2  4  1  0
  3  2  1  0
  4  6  1  0
  4  5  1  6
  6 16  1  0
  6  7  2  0
  9  8  1  0
 10  9  2  0
 11  9  1  0
 12 11  1  0
 13 12  1  0
 14 13  1  0
 15 14  1  1
 16 15  1  0
 17 15  1  0
 18 17  2  0
 19 17  1  0
 20 19  1  0
 21 22  1  0
 21 20  1  0
 23 21  2  0
M  END
$$$$
