AIG.pdb
     RDKit          3D

 18 17  0  0  1  0  0  0  0  0999 V2000
   27.2036  -20.4470  -16.6379 C   0  0  0  0  0  0  0  0  0  0  0  0
   27.8632  -20.9431  -15.3532 C   0  0  2  0  0  0  0  0  0  0  0  0
   28.6873  -22.0993  -15.5993 N   0  0  0  0  0  0  0  0  0  0  0  0
   26.7651  -21.3280  -14.4398 C   0  0  0  0  0  0  0  0  0  0  0  0
   26.2087  -22.4391  -14.6107 O   0  0  0  0  0  0  0  0  0  0  0  0
   26.8622  -21.9103  -10.0754 C   0  0  0  0  0  0  0  0  0  0  0  0
   26.8580  -20.5017  -10.5885 C   0  0  0  0  0  0  0  0  0  0  0  0
   25.4593  -20.2124  -11.1246 C   0  0  2  0  0  0  0  0  0  0  0  0
   24.5121  -20.6819  -10.0551 C   0  0  0  0  0  0  0  0  0  0  0  0
   25.2486  -20.9153  -12.4484 C   0  0  2  0  0  0  0  0  0  0  0  0
   26.3228  -20.4796  -13.3776 N   0  0  0  0  0  0  0  0  0  0  0  0
   23.9345  -20.6486  -13.0719 C   0  0  0  0  0  0  0  0  0  0  0  0
   23.6011  -19.4351  -13.3635 O   0  0  0  0  0  0  0  0  0  0  0  0
   22.9547  -21.6053  -13.4059 N   0  0  0  0  0  0  0  0  0  0  0  0
   21.7042  -21.2778  -14.0553 C   0  0  0  0  0  0  0  0  0  0  0  0
   20.5951  -21.1041  -13.1297 C   0  0  0  0  0  0  0  0  0  0  0  0
   19.3604  -20.6992  -13.5904 O   0  0  0  0  0  0  0  0  0  0  0  0
   20.7467  -21.3188  -11.9099 O   0  0  0  0  0  0  0  0  0  0  0  0
  2  1  1  6
  2  3  1  0
  4  5  2  0
  4  2  1  0
  6  7  1  0
  7  8  1  0
  8 10  1  0
  8  9  1  1
 10 12  1  0
 10 11  1  6
 11  4  1  0
 12 14  1  0
 13 12  2  0
 14 15  1  0
 15 16  1  0
 16 18  2  0
 16 17  1  0
M  END
$$$$
