AIG.pdb
     RDKit          3D

 18 17  0  0  1  0  0  0  0  0999 V2000
   20.7601  -10.9503  -18.9859 C   0  0  0  0  0  0  0  0  0  0  0  0
   21.6805  -11.9310  -18.2630 C   0  0  2  0  0  0  0  0  0  0  0  0
   20.9331  -13.0078  -17.6643 N   0  0  0  0  0  0  0  0  0  0  0  0
   22.3509  -11.1641  -17.1904 C   0  0  0  0  0  0  0  0  0  0  0  0
   21.7195  -10.9467  -16.1285 O   0  0  0  0  0  0  0  0  0  0  0  0
   27.3486  -12.3155  -16.0384 C   0  0  0  0  0  0  0  0  0  0  0  0
   25.9148  -11.9131  -15.8665 C   0  0  0  0  0  0  0  0  0  0  0  0
   25.8139  -10.4247  -16.1861 C   0  0  2  0  0  0  0  0  0  0  0  0
   26.6298   -9.7294  -15.1314 C   0  0  0  0  0  0  0  0  0  0  0  0
   24.3652   -9.9865  -16.1947 C   0  0  2  0  0  0  0  0  0  0  0  0
   23.6845  -10.6675  -17.3261 N   0  0  0  0  0  0  0  0  0  0  0  0
   24.1765   -8.5259  -16.3273 C   0  0  0  0  0  0  0  0  0  0  0  0
   24.6741   -7.9081  -17.3469 O   0  0  0  0  0  0  0  0  0  0  0  0
   23.4825   -7.6850  -15.4339 N   0  0  0  0  0  0  0  0  0  0  0  0
   23.3569   -6.2552  -15.6137 C   0  0  0  0  0  0  0  0  0  0  0  0
   22.0780   -5.8489  -16.1763 C   0  0  0  0  0  0  0  0  0  0  0  0
   21.2061   -6.7924  -16.6767 O   0  0  0  0  0  0  0  0  0  0  0  0
   21.7545   -4.6444  -16.2130 O   0  0  0  0  0  0  0  0  0  0  0  0
  2  1  1  1
  2  3  1  0
  4  5  2  0
  4  2  1  0
  6  7  1  0
  7  8  1  0
  8 10  1  0
  8  9  1  1
 10 12  1  0
 10 11  1  6
 11  4  1  0
 12 14  1  0
 13 12  2  0
 14 15  1  0
 15 16  1  0
 16 18  2  0
 16 17  1  0
M  END
$$$$
