AIG.pdb
     RDKit          3D

 18 17  0  0  1  0  0  0  0  0999 V2000
   20.9559  -20.3458  -15.2892 C   0  0  0  0  0  0  0  0  0  0  0  0
   21.8145  -21.0539  -14.2438 C   0  0  2  0  0  0  0  0  0  0  0  0
   21.0491  -21.3732  -13.0653 N   0  0  0  0  0  0  0  0  0  0  0  0
   22.8877  -20.1065  -13.8711 C   0  0  0  0  0  0  0  0  0  0  0  0
   22.6351  -19.2258  -13.0144 O   0  0  0  0  0  0  0  0  0  0  0  0
   27.2494  -21.5210  -11.9008 C   0  0  0  0  0  0  0  0  0  0  0  0
   26.0820  -20.6551  -12.2678 C   0  0  0  0  0  0  0  0  0  0  0  0
   26.4380  -19.9281  -13.5609 C   0  0  2  0  0  0  0  0  0  0  0  0
   27.5904  -19.0269  -13.2131 C   0  0  0  0  0  0  0  0  0  0  0  0
   25.2364  -19.1724  -14.0863 C   0  0  2  0  0  0  0  0  0  0  0  0
   24.1924  -20.1638  -14.4526 N   0  0  0  0  0  0  0  0  0  0  0  0
   25.5245  -18.3198  -15.2597 C   0  0  0  0  0  0  0  0  0  0  0  0
   26.0077  -18.8529  -16.3326 O   0  0  0  0  0  0  0  0  0  0  0  0
   25.3228  -16.9281  -15.3555 N   0  0  0  0  0  0  0  0  0  0  0  0
   25.6792  -16.1452  -16.5185 C   0  0  0  0  0  0  0  0  0  0  0  0
   25.2884  -14.7470  -16.4217 C   0  0  0  0  0  0  0  0  0  0  0  0
   26.1735  -13.7505  -16.7743 O   0  0  0  0  0  0  0  0  0  0  0  0
   24.1500  -14.4325  -16.0192 O   0  0  0  0  0  0  0  0  0  0  0  0
  2  1  1  6
  2  3  1  0
  4  5  2  0
  4  2  1  0
  6  7  1  0
  7  8  1  0
  8 10  1  0
  8  9  1  1
 10 12  1  0
 10 11  1  6
 11  4  1  0
 12 14  1  0
 13 12  2  0
 14 15  1  0
 15 16  1  0
 16 18  2  0
 16 17  1  0
M  END
$$$$
