AIG.pdb
     RDKit          3D

 18 17  0  0  1  0  0  0  0  0999 V2000
   21.2672  -15.0684  -16.3767 C   0  0  0  0  0  0  0  0  0  0  0  0
   19.9887  -14.7213  -17.1360 C   0  0  2  0  0  0  0  0  0  0  0  0
   19.9564  -15.3589  -18.4280 N   0  0  0  0  0  0  0  0  0  0  0  0
   20.0012  -13.2549  -17.3300 C   0  0  0  0  0  0  0  0  0  0  0  0
   20.7899  -12.7719  -18.1774 O   0  0  0  0  0  0  0  0  0  0  0  0
   15.6456  -11.2103  -17.9029 C   0  0  0  0  0  0  0  0  0  0  0  0
   17.0976  -10.9833  -18.1986 C   0  0  0  0  0  0  0  0  0  0  0  0
   17.7434  -10.4305  -16.9318 C   0  0  2  0  0  0  0  0  0  0  0  0
   17.6361   -8.9347  -17.0439 C   0  0  0  0  0  0  0  0  0  0  0  0
   19.1738  -10.9120  -16.8185 C   0  0  2  0  0  0  0  0  0  0  0  0
   19.1493  -12.3793  -16.5876 N   0  0  0  0  0  0  0  0  0  0  0  0
   19.9448  -10.2661  -15.7344 C   0  0  0  0  0  0  0  0  0  0  0  0
   19.6270  -10.4929  -14.5030 O   0  0  0  0  0  0  0  0  0  0  0  0
   21.0403   -9.3928  -15.8892 N   0  0  0  0  0  0  0  0  0  0  0  0
   21.6765   -8.7031  -14.7882 C   0  0  0  0  0  0  0  0  0  0  0  0
   21.0149   -7.4610  -14.4187 C   0  0  0  0  0  0  0  0  0  0  0  0
   21.5031   -6.6934  -13.3827 O   0  0  0  0  0  0  0  0  0  0  0  0
   19.9997   -7.0753  -15.0331 O   0  0  0  0  0  0  0  0  0  0  0  0
  2  1  1  6
  2  3  1  0
  4  5  2  0
  4  2  1  0
  6  7  1  0
  7  8  1  0
  8 10  1  0
  8  9  1  6
 10 12  1  0
 10 11  1  1
 11  4  1  0
 12 14  1  0
 13 12  2  0
 14 15  1  0
 15 16  1  0
 16 18  2  0
 16 17  1  0
M  END
$$$$
