AIG.pdb
     RDKit          3D

 18 17  0  0  1  0  0  0  0  0999 V2000
   24.9557  -22.8743  -16.8595 C   0  0  0  0  0  0  0  0  0  0  0  0
   25.7390  -23.1084  -15.5698 C   0  0  2  0  0  0  0  0  0  0  0  0
   26.2076  -24.4682  -15.4802 N   0  0  0  0  0  0  0  0  0  0  0  0
   24.7985  -22.8556  -14.4564 C   0  0  0  0  0  0  0  0  0  0  0  0
   24.0681  -23.7979  -14.0667 O   0  0  0  0  0  0  0  0  0  0  0  0
   26.4577  -20.7825  -10.1062 C   0  0  0  0  0  0  0  0  0  0  0  0
   25.6320  -21.5847  -11.0663 C   0  0  0  0  0  0  0  0  0  0  0  0
   24.5077  -20.6843  -11.5688 C   0  0  2  0  0  0  0  0  0  0  0  0
   23.6463  -20.4060  -10.3681 C   0  0  0  0  0  0  0  0  0  0  0  0
   23.7528  -21.3636  -12.6912 C   0  0  2  0  0  0  0  0  0  0  0  0
   24.6978  -21.5811  -13.8167 N   0  0  0  0  0  0  0  0  0  0  0  0
   22.5853  -20.6006  -13.1826 C   0  0  0  0  0  0  0  0  0  0  0  0
   22.7472  -19.3937  -13.6138 O   0  0  0  0  0  0  0  0  0  0  0  0
   21.2520  -21.0540  -13.2437 N   0  0  0  0  0  0  0  0  0  0  0  0
   20.1551  -20.2515  -13.7389 C   0  0  0  0  0  0  0  0  0  0  0  0
   19.2876  -19.7394  -12.6890 C   0  0  0  0  0  0  0  0  0  0  0  0
   18.2049  -18.9466  -13.0052 O   0  0  0  0  0  0  0  0  0  0  0  0
   19.5118  -20.0104  -11.4919 O   0  0  0  0  0  0  0  0  0  0  0  0
  2  1  1  6
  2  3  1  0
  4  5  2  0
  4  2  1  0
  6  7  1  0
  7  8  1  0
  8 10  1  0
  8  9  1  1
 10 12  1  0
 10 11  1  6
 11  4  1  0
 12 14  1  0
 13 12  2  0
 14 15  1  0
 15 16  1  0
 16 18  2  0
 16 17  1  0
M  END
$$$$
