AIG.pdb
     RDKit          3D

 18 17  0  0  1  0  0  0  0  0999 V2000
   22.3498   -8.9904  -20.5901 C   0  0  0  0  0  0  0  0  0  0  0  0
   23.6735   -9.6990  -20.3122 C   0  0  2  0  0  0  0  0  0  0  0  0
   23.8570  -10.8294  -21.1870 N   0  0  0  0  0  0  0  0  0  0  0  0
   23.6043  -10.1845  -18.9166 C   0  0  0  0  0  0  0  0  0  0  0  0
   22.8991  -11.1920  -18.6697 O   0  0  0  0  0  0  0  0  0  0  0  0
   27.7267  -11.6576  -16.1893 C   0  0  0  0  0  0  0  0  0  0  0  0
   26.2953  -11.5652  -16.6250 C   0  0  0  0  0  0  0  0  0  0  0  0
   25.7104  -10.2955  -16.0141 C   0  0  2  0  0  0  0  0  0  0  0  0
   25.8285  -10.4724  -14.5255 C   0  0  0  0  0  0  0  0  0  0  0  0
   24.2811  -10.1023  -16.4731 C   0  0  2  0  0  0  0  0  0  0  0  0
   24.3105   -9.5459  -17.8503 N   0  0  0  0  0  0  0  0  0  0  0  0
   23.4845   -9.2058  -15.6079 C   0  0  0  0  0  0  0  0  0  0  0  0
   23.1143   -9.6109  -14.4384 O   0  0  0  0  0  0  0  0  0  0  0  0
   23.0620   -7.8974  -15.9184 N   0  0  0  0  0  0  0  0  0  0  0  0
   22.2234   -7.0995  -15.0509 C   0  0  0  0  0  0  0  0  0  0  0  0
   21.9738   -5.7576  -15.5551 C   0  0  0  0  0  0  0  0  0  0  0  0
   21.3307   -4.8263  -14.7678 O   0  0  0  0  0  0  0  0  0  0  0  0
   22.3377   -5.4332  -16.7036 O   0  0  0  0  0  0  0  0  0  0  0  0
  2  1  1  6
  2  3  1  0
  4  5  2  0
  4  2  1  0
  6  7  1  0
  7  8  1  0
  8 10  1  0
  8  9  1  1
 10 12  1  0
 10 11  1  6
 11  4  1  0
 12 14  1  0
 13 12  2  0
 14 15  1  0
 15 16  1  0
 16 18  2  0
 16 17  1  0
M  END
$$$$
