PNY.pdb
     RDKit          3D

 28 29  0  0  1  0  0  0  0  0999 V2000
    9.2364  -14.5780   18.2393 N   0  0  0  0  0  0  0  0  0  0  0  0
    8.7728  -13.7974   17.1181 C   0  0  0  0  0  0  0  0  0  0  0  0
    7.3424  -13.4847   17.4959 C   0  0  0  0  0  0  0  0  0  0  0  0
    7.4237  -13.3344   19.0045 C   0  0  0  0  0  0  0  0  0  0  0  0
    8.8282  -13.7927   19.3738 C   0  0  1  0  0  0  0  0  0  0  0  0
    8.7422  -14.7139   20.5873 C   0  0  0  0  0  0  0  0  0  0  0  0
    8.2556  -14.2932   21.6445 O   0  0  0  0  0  0  0  0  0  0  0  0
    8.6408  -19.7197   22.5408 N   0  0  0  0  0  0  0  0  0  0  0  0
    9.9111  -19.4518   21.9732 C   0  0  0  0  0  0  0  0  0  0  0  0
   10.8367  -20.2406   22.3341 O   0  0  0  0  0  0  0  0  0  0  0  0
   10.0150  -18.3349   21.0632 C   0  0  0  0  0  0  0  0  0  0  0  0
    9.3654  -17.0369   21.4300 C   0  0  2  0  0  0  0  0  0  0  0  0
    9.2132  -16.0220   20.4896 N   0  0  0  0  0  0  0  0  0  0  0  0
    9.8020  -16.6716   22.7813 C   0  0  0  0  0  0  0  0  0  0  0  0
   10.8265  -15.9008   22.9284 O   0  0  0  0  0  0  0  0  0  0  0  0
    6.3751  -11.2110   28.2498 O   0  0  0  0  0  0  0  0  0  0  0  0
    6.7803  -12.1527   27.2883 C   0  0  0  0  0  0  0  0  0  0  0  0
    8.0038  -12.0526   26.6672 C   0  0  0  0  0  0  0  0  0  0  0  0
    8.4127  -12.9726   25.7203 C   0  0  0  0  0  0  0  0  0  0  0  0
    7.5586  -14.0175   25.3977 C   0  0  0  0  0  0  0  0  0  0  0  0
    7.9297  -15.0374   24.3964 C   0  0  0  0  0  0  0  0  0  0  0  0
    8.7536  -16.1190   25.0309 C   0  0  2  0  0  0  0  0  0  0  0  0
    9.2072  -17.0792   23.9998 N   0  0  0  0  0  0  0  0  0  0  0  0
    8.1133  -16.8242   26.1470 C   0  0  0  0  0  0  0  0  0  0  0  0
    7.4360  -18.0161   25.9029 O   0  0  0  0  0  0  0  0  0  0  0  0
    6.3100  -14.1585   26.0010 C   0  0  0  0  0  0  0  0  0  0  0  0
    5.9684  -13.2053   26.9354 C   0  0  0  0  0  0  0  0  0  0  0  0
    8.1314  -16.4248   27.3312 O   0  0  0  0  0  0  0  0  0  0  0  0
  2  1  1  0
  3  2  1  0
  4  3  1  0
  4  5  1  0
  5  1  1  0
  5  6  1  1
  6  7  2  0
  8  9  1  0
  9 11  1  0
 10  9  2  0
 12 11  1  6
 13  6  1  0
 13 12  1  0
 14 12  1  0
 14 15  2  0
 16 17  1  0
 17 18  2  0
 18 19  1  0
 20 19  2  0
 20 21  1  0
 22 21  1  6
 22 23  1  0
 22 24  1  0
 23 14  1  0
 24 25  1  0
 26 20  1  0
 27 17  1  0
 27 26  2  0
 28 24  2  0
M  END
$$$$
