PNY.pdb
     RDKit          3D

 28 29  0  0  1  0  0  0  0  0999 V2000
    7.5590  -18.2171   19.8193 N   0  0  0  0  0  0  0  0  0  0  0  0
    7.2173  -19.0820   18.7164 C   0  0  0  0  0  0  0  0  0  0  0  0
    7.8341  -18.3736   17.5313 C   0  0  0  0  0  0  0  0  0  0  0  0
    9.0917  -17.7661   18.1266 C   0  0  0  0  0  0  0  0  0  0  0  0
    8.9663  -17.9862   19.6283 C   0  0  1  0  0  0  0  0  0  0  0  0
    9.3412  -16.6940   20.3481 C   0  0  0  0  0  0  0  0  0  0  0  0
   10.5335  -16.4060   20.5121 O   0  0  0  0  0  0  0  0  0  0  0  0
    6.2995  -12.9819   19.0040 N   0  0  0  0  0  0  0  0  0  0  0  0
    7.5755  -13.2156   19.5740 C   0  0  0  0  0  0  0  0  0  0  0  0
    8.5411  -13.1993   18.7516 O   0  0  0  0  0  0  0  0  0  0  0  0
    7.6402  -13.4412   20.9992 C   0  0  0  0  0  0  0  0  0  0  0  0
    8.3648  -14.6472   21.5110 C   0  0  2  0  0  0  0  0  0  0  0  0
    8.3333  -15.8509   20.8126 N   0  0  0  0  0  0  0  0  0  0  0  0
    8.2166  -14.6865   22.9693 C   0  0  0  0  0  0  0  0  0  0  0  0
    7.1048  -14.3060   23.5027 O   0  0  0  0  0  0  0  0  0  0  0  0
    6.9863  -20.9644   28.5580 O   0  0  0  0  0  0  0  0  0  0  0  0
    7.2674  -20.0259   27.5501 C   0  0  0  0  0  0  0  0  0  0  0  0
    6.8432  -18.7214   27.6557 C   0  0  0  0  0  0  0  0  0  0  0  0
    7.1137  -17.7901   26.6710 C   0  0  0  0  0  0  0  0  0  0  0  0
    7.8312  -18.1940   25.5542 C   0  0  0  0  0  0  0  0  0  0  0  0
    8.1575  -17.2533   24.4638 C   0  0  0  0  0  0  0  0  0  0  0  0
    8.8850  -16.0573   25.0038 C   0  0  2  0  0  0  0  0  0  0  0  0
    9.1893  -15.1128   23.9056 N   0  0  0  0  0  0  0  0  0  0  0  0
   10.0946  -16.3546   25.7792 C   0  0  0  0  0  0  0  0  0  0  0  0
   11.3016  -16.5507   25.1130 O   0  0  0  0  0  0  0  0  0  0  0  0
    8.2806  -19.5050   25.4047 C   0  0  0  0  0  0  0  0  0  0  0  0
    7.9750  -20.3791   26.4249 C   0  0  0  0  0  0  0  0  0  0  0  0
   10.1234  -16.4467   27.0253 O   0  0  0  0  0  0  0  0  0  0  0  0
  2  1  1  0
  3  2  1  0
  4  3  1  0
  4  5  1  0
  5  1  1  0
  5  6  1  1
  6  7  2  0
  8  9  1  0
  9 11  1  0
 10  9  2  0
 12 11  1  6
 13  6  1  0
 13 12  1  0
 14 12  1  0
 14 15  2  0
 16 17  1  0
 17 18  2  0
 18 19  1  0
 20 19  2  0
 20 21  1  0
 22 21  1  6
 22 23  1  0
 22 24  1  0
 23 14  1  0
 24 25  1  0
 26 20  1  0
 27 17  1  0
 27 26  2  0
 28 24  2  0
M  END
$$$$
