PNY.pdb
     RDKit          3D

 28 29  0  0  1  0  0  0  0  0999 V2000
    7.9202  -15.3224   18.8181 N   0  0  0  0  0  0  0  0  0  0  0  0
    7.5045  -14.7614   17.5556 C   0  0  0  0  0  0  0  0  0  0  0  0
    6.9714  -13.4029   17.9518 C   0  0  0  0  0  0  0  0  0  0  0  0
    7.8820  -13.0124   19.1022 C   0  0  0  0  0  0  0  0  0  0  0  0
    8.6966  -14.2629   19.4055 C   0  0  1  0  0  0  0  0  0  0  0  0
    8.7292  -14.4745   20.9163 C   0  0  0  0  0  0  0  0  0  0  0  0
    9.3588  -13.6866   21.6334 O   0  0  0  0  0  0  0  0  0  0  0  0
    7.9084  -18.0612   25.0791 N   0  0  0  0  0  0  0  0  0  0  0  0
    6.7580  -17.4611   24.5099 C   0  0  0  0  0  0  0  0  0  0  0  0
    5.7533  -17.3902   25.2809 O   0  0  0  0  0  0  0  0  0  0  0  0
    6.8496  -17.0028   23.1432 C   0  0  0  0  0  0  0  0  0  0  0  0
    7.8990  -15.9975   22.7835 C   0  0  2  0  0  0  0  0  0  0  0  0
    8.0468  -15.5553   21.4719 N   0  0  0  0  0  0  0  0  0  0  0  0
    9.1089  -16.3021   23.5540 C   0  0  0  0  0  0  0  0  0  0  0  0
    9.8270  -17.3231   23.2267 O   0  0  0  0  0  0  0  0  0  0  0  0
    9.5647  -15.8710   31.2230 O   0  0  0  0  0  0  0  0  0  0  0  0
    9.9884  -15.5158   29.9308 C   0  0  0  0  0  0  0  0  0  0  0  0
    9.4326  -14.4446   29.2703 C   0  0  0  0  0  0  0  0  0  0  0  0
    9.8413  -14.0862   27.9996 C   0  0  0  0  0  0  0  0  0  0  0  0
   10.8369  -14.8335   27.3868 C   0  0  0  0  0  0  0  0  0  0  0  0
   11.3237  -14.5080   26.0312 C   0  0  0  0  0  0  0  0  0  0  0  0
   11.0264  -15.6327   25.0837 C   0  0  2  0  0  0  0  0  0  0  0  0
    9.6084  -15.5773   24.6629 N   0  0  0  0  0  0  0  0  0  0  0  0
   11.3680  -16.9733   25.5723 C   0  0  0  0  0  0  0  0  0  0  0  0
   10.3471  -17.8516   25.9266 O   0  0  0  0  0  0  0  0  0  0  0  0
   11.4281  -15.9268   28.0178 C   0  0  0  0  0  0  0  0  0  0  0  0
   10.9718  -16.2263   29.2829 C   0  0  0  0  0  0  0  0  0  0  0  0
   12.5373  -17.3971   25.6969 O   0  0  0  0  0  0  0  0  0  0  0  0
  2  1  1  0
  3  2  1  0
  4  3  1  0
  4  5  1  0
  5  1  1  0
  5  6  1  1
  6  7  2  0
  8  9  1  0
  9 11  1  0
 10  9  2  0
 12 11  1  6
 13  6  1  0
 13 12  1  0
 14 12  1  0
 14 15  2  0
 16 17  1  0
 17 18  2  0
 18 19  1  0
 20 19  2  0
 20 21  1  0
 22 21  1  1
 22 23  1  0
 22 24  1  0
 23 14  1  0
 24 25  1  0
 26 20  1  0
 27 17  1  0
 27 26  2  0
 28 24  2  0
M  END
$$$$
