PNY.pdb
     RDKit          3D

 28 29  0  0  1  0  0  0  0  0999 V2000
    9.1183  -14.7963   18.4273 N   0  0  0  0  0  0  0  0  0  0  0  0
    8.6969  -14.0943   17.2394 C   0  0  0  0  0  0  0  0  0  0  0  0
    7.3943  -13.4584   17.6701 C   0  0  0  0  0  0  0  0  0  0  0  0
    7.6531  -13.1295   19.1295 C   0  0  0  0  0  0  0  0  0  0  0  0
    8.9784  -13.8033   19.4592 C   0  0  1  0  0  0  0  0  0  0  0  0
    8.8457  -14.5211   20.7991 C   0  0  0  0  0  0  0  0  0  0  0  0
    8.5821  -13.8729   21.8198 O   0  0  0  0  0  0  0  0  0  0  0  0
    9.8478  -20.2542   22.8587 N   0  0  0  0  0  0  0  0  0  0  0  0
    8.9122  -19.1934   22.7751 C   0  0  0  0  0  0  0  0  0  0  0  0
    8.0585  -19.1564   23.7126 O   0  0  0  0  0  0  0  0  0  0  0  0
    9.0280  -18.2860   21.6572 C   0  0  0  0  0  0  0  0  0  0  0  0
    8.9687  -16.8116   21.9100 C   0  0  2  0  0  0  0  0  0  0  0  0
    9.0225  -15.9024   20.8573 N   0  0  0  0  0  0  0  0  0  0  0  0
    9.7476  -16.5219   23.1181 C   0  0  0  0  0  0  0  0  0  0  0  0
   11.0361  -16.5015   23.0504 O   0  0  0  0  0  0  0  0  0  0  0  0
    5.0185  -12.2264   26.9467 O   0  0  0  0  0  0  0  0  0  0  0  0
    6.2747  -12.7382   26.5784 C   0  0  0  0  0  0  0  0  0  0  0  0
    6.5038  -13.2121   25.3073 C   0  0  0  0  0  0  0  0  0  0  0  0
    7.7347  -13.7176   24.9339 C   0  0  0  0  0  0  0  0  0  0  0  0
    8.7553  -13.7419   25.8737 C   0  0  0  0  0  0  0  0  0  0  0  0
   10.0958  -14.2666   25.5449 C   0  0  0  0  0  0  0  0  0  0  0  0
   10.0804  -15.7668   25.5231 C   0  0  2  0  0  0  0  0  0  0  0  0
    9.2335  -16.2472   24.4083 N   0  0  0  0  0  0  0  0  0  0  0  0
    9.6895  -16.4099   26.7827 C   0  0  0  0  0  0  0  0  0  0  0  0
    8.6291  -17.3124   26.7882 O   0  0  0  0  0  0  0  0  0  0  0  0
    8.5686  -13.2727   27.1729 C   0  0  0  0  0  0  0  0  0  0  0  0
    7.3167  -12.7830   27.4749 C   0  0  0  0  0  0  0  0  0  0  0  0
   10.2524  -16.2032   27.8794 O   0  0  0  0  0  0  0  0  0  0  0  0
  2  1  1  0
  3  2  1  0
  4  3  1  0
  4  5  1  0
  5  1  1  0
  5  6  1  1
  6  7  2  0
  8  9  1  0
  9 11  1  0
 10  9  2  0
 12 11  1  6
 13  6  1  0
 13 12  1  0
 14 12  1  0
 14 15  2  0
 16 17  1  0
 17 18  2  0
 18 19  1  0
 20 19  2  0
 20 21  1  0
 22 21  1  1
 22 23  1  0
 22 24  1  0
 23 14  1  0
 24 25  1  0
 26 20  1  0
 27 17  1  0
 27 26  2  0
 28 24  2  0
M  END
$$$$
