PNY.pdb
     RDKit          3D

 28 29  0  0  1  0  0  0  0  0999 V2000
    8.6320  -13.1317   20.3303 N   0  0  0  0  0  0  0  0  0  0  0  0
    8.6363  -12.2105   19.2200 C   0  0  0  0  0  0  0  0  0  0  0  0
    8.2861  -13.0980   18.0469 C   0  0  0  0  0  0  0  0  0  0  0  0
    7.3261  -14.0992   18.6641 C   0  0  0  0  0  0  0  0  0  0  0  0
    7.3895  -13.8377   20.1630 C   0  0  1  0  0  0  0  0  0  0  0  0
    7.4966  -15.1740   20.8917 C   0  0  0  0  0  0  0  0  0  0  0  0
    6.6596  -16.0598   20.6764 O   0  0  0  0  0  0  0  0  0  0  0  0
    9.2321  -19.8636   22.5428 N   0  0  0  0  0  0  0  0  0  0  0  0
   10.0945  -18.7469   22.6721 C   0  0  0  0  0  0  0  0  0  0  0  0
   11.0697  -18.9119   23.4663 O   0  0  0  0  0  0  0  0  0  0  0  0
    9.7798  -17.5660   21.9022 C   0  0  0  0  0  0  0  0  0  0  0  0
    8.9381  -16.4962   22.5255 C   0  0  2  0  0  0  0  0  0  0  0  0
    8.5393  -15.3818   21.7929 N   0  0  0  0  0  0  0  0  0  0  0  0
    9.4003  -16.2931   23.9022 C   0  0  0  0  0  0  0  0  0  0  0  0
   10.4845  -15.6260   24.1136 O   0  0  0  0  0  0  0  0  0  0  0  0
    6.2783  -10.9547   25.8024 O   0  0  0  0  0  0  0  0  0  0  0  0
    6.7789  -12.2105   26.1869 C   0  0  0  0  0  0  0  0  0  0  0  0
    8.1177  -12.3925   26.4466 C   0  0  0  0  0  0  0  0  0  0  0  0
    8.6211  -13.6226   26.8253 C   0  0  0  0  0  0  0  0  0  0  0  0
    7.7441  -14.6914   26.9425 C   0  0  0  0  0  0  0  0  0  0  0  0
    8.2112  -16.0336   27.3437 C   0  0  0  0  0  0  0  0  0  0  0  0
    9.3106  -16.4990   26.4349 C   0  0  2  0  0  0  0  0  0  0  0  0
    8.7710  -16.7597   25.0815 N   0  0  0  0  0  0  0  0  0  0  0  0
   10.0776  -17.6535   26.9161 C   0  0  0  0  0  0  0  0  0  0  0  0
   10.8028  -17.5459   28.1000 O   0  0  0  0  0  0  0  0  0  0  0  0
    6.3804  -14.5536   26.6892 C   0  0  0  0  0  0  0  0  0  0  0  0
    5.9487  -13.2994   26.3164 C   0  0  0  0  0  0  0  0  0  0  0  0
   10.1295  -18.7551   26.3279 O   0  0  0  0  0  0  0  0  0  0  0  0
  2  1  1  0
  3  2  1  0
  4  3  1  0
  4  5  1  0
  5  1  1  0
  5  6  1  1
  6  7  2  0
  8  9  1  0
  9 11  1  0
 10  9  2  0
 12 11  1  6
 13  6  1  0
 13 12  1  0
 14 12  1  0
 14 15  2  0
 16 17  1  0
 17 18  2  0
 18 19  1  0
 20 19  2  0
 20 21  1  0
 22 21  1  1
 22 23  1  0
 22 24  1  0
 23 14  1  0
 24 25  1  0
 26 20  1  0
 27 17  1  0
 27 26  2  0
 28 24  2  0
M  END
$$$$
