PNY.pdb
     RDKit          3D

 28 29  0  0  1  0  0  0  0  0999 V2000
    9.2042  -14.6237   18.2455 N   0  0  0  0  0  0  0  0  0  0  0  0
    8.6314  -13.9204   17.1236 C   0  0  0  0  0  0  0  0  0  0  0  0
    7.1580  -13.8923   17.4625 C   0  0  0  0  0  0  0  0  0  0  0  0
    7.1686  -13.7624   18.9752 C   0  0  0  0  0  0  0  0  0  0  0  0
    8.6241  -13.9549   19.3798 C   0  0  1  0  0  0  0  0  0  0  0  0
    8.6816  -14.9022   20.5747 C   0  0  0  0  0  0  0  0  0  0  0  0
    8.0203  -14.6509   21.5900 O   0  0  0  0  0  0  0  0  0  0  0  0
    9.9504  -19.6319   19.4667 N   0  0  0  0  0  0  0  0  0  0  0  0
   10.8912  -18.6309   19.8140 C   0  0  0  0  0  0  0  0  0  0  0  0
   11.7128  -18.3261   18.8969 O   0  0  0  0  0  0  0  0  0  0  0  0
   10.8158  -18.0751   21.1450 C   0  0  0  0  0  0  0  0  0  0  0  0
    9.7826  -17.0321   21.4386 C   0  0  2  0  0  0  0  0  0  0  0  0
    9.4798  -16.0428   20.5074 N   0  0  0  0  0  0  0  0  0  0  0  0
    9.9098  -16.6445   22.8470 C   0  0  0  0  0  0  0  0  0  0  0  0
   10.8594  -15.8451   23.1999 O   0  0  0  0  0  0  0  0  0  0  0  0
    6.3444  -11.1577   28.1742 O   0  0  0  0  0  0  0  0  0  0  0  0
    6.7379  -12.0947   27.2032 C   0  0  0  0  0  0  0  0  0  0  0  0
    5.8228  -12.9403   26.6199 C   0  0  0  0  0  0  0  0  0  0  0  0
    6.1982  -13.8655   25.6643 C   0  0  0  0  0  0  0  0  0  0  0  0
    7.5337  -13.9326   25.2937 C   0  0  0  0  0  0  0  0  0  0  0  0
    8.0063  -14.8954   24.2788 C   0  0  0  0  0  0  0  0  0  0  0  0
    8.5631  -16.1221   24.9395 C   0  0  2  0  0  0  0  0  0  0  0  0
    9.0776  -17.0583   23.9151 N   0  0  0  0  0  0  0  0  0  0  0  0
    7.6489  -16.8118   25.8568 C   0  0  0  0  0  0  0  0  0  0  0  0
    7.7458  -16.5729   27.2252 O   0  0  0  0  0  0  0  0  0  0  0  0
    8.4954  -13.0961   25.8580 C   0  0  0  0  0  0  0  0  0  0  0  0
    8.0498  -12.1985   26.8036 C   0  0  0  0  0  0  0  0  0  0  0  0
    6.7664  -17.6183   25.4920 O   0  0  0  0  0  0  0  0  0  0  0  0
  2  1  1  0
  3  2  1  0
  4  3  1  0
  4  5  1  0
  5  1  1  0
  5  6  1  1
  6  7  2  0
  8  9  1  0
  9 11  1  0
 10  9  2  0
 12 11  1  6
 13  6  1  0
 13 12  1  0
 14 12  1  0
 14 15  2  0
 16 17  1  0
 17 18  2  0
 18 19  1  0
 20 19  2  0
 20 21  1  0
 22 21  1  6
 22 23  1  0
 22 24  1  0
 23 14  1  0
 24 25  1  0
 26 20  1  0
 27 17  1  0
 27 26  2  0
 28 24  2  0
M  END
$$$$
