PNY.pdb
     RDKit          3D

 28 29  0  0  1  0  0  0  0  0999 V2000
    9.1697  -14.1426   19.2417 N   0  0  0  0  0  0  0  0  0  0  0  0
    8.7615  -13.2917   18.1504 C   0  0  0  0  0  0  0  0  0  0  0  0
    7.2524  -13.3448   18.2304 C   0  0  0  0  0  0  0  0  0  0  0  0
    7.0032  -13.4419   19.7248 C   0  0  0  0  0  0  0  0  0  0  0  0
    8.3775  -13.6626   20.3428 C   0  0  1  0  0  0  0  0  0  0  0  0
    8.2771  -14.7761   21.3812 C   0  0  0  0  0  0  0  0  0  0  0  0
    7.2978  -14.8254   22.1362 O   0  0  0  0  0  0  0  0  0  0  0  0
   11.8457  -19.4237   23.3469 N   0  0  0  0  0  0  0  0  0  0  0  0
   10.5638  -19.0136   22.9038 C   0  0  0  0  0  0  0  0  0  0  0  0
    9.5988  -19.7182   23.3296 O   0  0  0  0  0  0  0  0  0  0  0  0
   10.4933  -17.8619   22.0350 C   0  0  0  0  0  0  0  0  0  0  0  0
    9.5385  -16.7582   22.3690 C   0  0  2  0  0  0  0  0  0  0  0  0
    9.2920  -15.7276   21.4664 N   0  0  0  0  0  0  0  0  0  0  0  0
    9.7112  -16.4152   23.7842 C   0  0  0  0  0  0  0  0  0  0  0  0
   10.7078  -15.6761   24.1390 O   0  0  0  0  0  0  0  0  0  0  0  0
    6.7413  -10.6879   26.0635 O   0  0  0  0  0  0  0  0  0  0  0  0
    7.0623  -12.0338   26.3108 C   0  0  0  0  0  0  0  0  0  0  0  0
    8.1556  -12.3749   27.0732 C   0  0  0  0  0  0  0  0  0  0  0  0
    8.4809  -13.6947   27.3229 C   0  0  0  0  0  0  0  0  0  0  0  0
    7.6769  -14.6898   26.7856 C   0  0  0  0  0  0  0  0  0  0  0  0
    7.9633  -16.1207   27.0118 C   0  0  0  0  0  0  0  0  0  0  0  0
    9.2033  -16.5300   26.2729 C   0  0  2  0  0  0  0  0  0  0  0  0
    8.8776  -16.8131   24.8571 N   0  0  0  0  0  0  0  0  0  0  0  0
    9.9478  -17.6472   26.8648 C   0  0  0  0  0  0  0  0  0  0  0  0
   10.1422  -18.8083   26.1211 O   0  0  0  0  0  0  0  0  0  0  0  0
    6.5598  -14.3910   26.0073 C   0  0  0  0  0  0  0  0  0  0  0  0
    6.2956  -13.0548   25.7997 C   0  0  0  0  0  0  0  0  0  0  0  0
   10.4337  -17.6340   28.0163 O   0  0  0  0  0  0  0  0  0  0  0  0
  2  1  1  0
  3  2  1  0
  4  3  1  0
  4  5  1  0
  5  1  1  0
  5  6  1  1
  6  7  2  0
  8  9  1  0
  9 11  1  0
 10  9  2  0
 12 11  1  6
 13  6  1  0
 13 12  1  0
 14 12  1  0
 14 15  2  0
 16 17  1  0
 17 18  2  0
 18 19  1  0
 20 19  2  0
 20 21  1  0
 22 21  1  1
 22 23  1  0
 22 24  1  0
 23 14  1  0
 24 25  1  0
 26 20  1  0
 27 17  1  0
 27 26  2  0
 28 24  2  0
M  END
$$$$
