IYH.pdb
     RDKit          3D

 31 32  0  0  1  0  0  0  0  0999 V2000
   21.2666  -32.9387  -12.8303 C   0  0  0  0  0  0  0  0  0  0  0  0
   22.6614  -33.2677  -12.3158 C   0  0  0  0  0  0  0  0  0  0  0  0
   22.9014  -32.6685  -10.9455 C   0  0  2  0  0  0  0  0  0  0  0  0
   22.7743  -31.1745  -11.0754 C   0  0  0  0  0  0  0  0  0  0  0  0
   24.2752  -33.1043  -10.5004 C   0  0  2  0  0  0  0  0  0  0  0  0
   24.2158  -34.5269  -10.2471 N   0  0  0  0  0  0  0  0  0  0  0  0
   24.7153  -32.4269   -9.2631 C   0  0  0  0  0  0  0  0  0  0  0  0
   24.6124  -31.1634   -9.1366 O   0  0  0  0  0  0  0  0  0  0  0  0
   21.0693  -36.4141   -4.4456 O   0  0  0  0  0  0  0  0  0  0  0  0
   21.8904  -35.3807   -4.8725 C   0  0  0  0  0  0  0  0  0  0  0  0
   21.5750  -34.5889   -5.9566 C   0  0  0  0  0  0  0  0  0  0  0  0
   22.3692  -33.5685   -6.3916 C   0  0  0  0  0  0  0  0  0  0  0  0
   23.5500  -33.2770   -5.7512 C   0  0  0  0  0  0  0  0  0  0  0  0
   24.4618  -32.1982   -6.1541 C   0  0  0  0  0  0  0  0  0  0  0  0
   25.6546  -32.6214   -6.9125 C   0  0  2  0  0  0  0  0  0  0  0  0
   25.2550  -33.1968   -8.2140 N   0  0  0  0  0  0  0  0  0  0  0  0
   26.6134  -33.5204   -6.3211 C   0  0  0  0  0  0  0  0  0  0  0  0
   26.5981  -34.7501   -6.7012 O   0  0  0  0  0  0  0  0  0  0  0  0
   23.8715  -34.0803   -4.6503 C   0  0  0  0  0  0  0  0  0  0  0  0
   23.0627  -35.1092   -4.2181 C   0  0  0  0  0  0  0  0  0  0  0  0
   27.6128  -33.2463   -5.3521 N   0  0  0  0  0  0  0  0  0  0  0  0
   28.4438  -34.3028   -4.7738 C   0  0  1  0  0  0  0  0  0  0  0  0
   29.9078  -33.9616   -4.9438 C   0  0  0  0  0  0  0  0  0  0  0  0
   30.8398  -34.9472   -4.3763 C   0  0  0  0  0  0  0  0  0  0  0  0
   30.4702  -36.1152   -3.7483 C   0  0  0  0  0  0  0  0  0  0  0  0
   31.5978  -36.7493   -3.3410 N   0  0  0  0  0  0  0  0  0  0  0  0
   32.6572  -36.0046   -3.7001 C   0  0  0  0  0  0  0  0  0  0  0  0
   32.1852  -34.9210   -4.3234 N   0  0  0  0  0  0  0  0  0  0  0  0
   28.1432  -34.4469   -3.3425 C   0  0  0  0  0  0  0  0  0  0  0  0
   28.6751  -35.5111   -2.6085 O   0  0  0  0  0  0  0  0  0  0  0  0
   27.4089  -33.6291   -2.7519 O   0  0  0  0  0  0  0  0  0  0  0  0
  2  3  1  0
  2  1  1  0
  3  4  1  6
  5  3  1  0
  5  6  1  1
  7  5  1  0
  7  8  2  0
  9 10  1  0
 10 11  2  0
 10 20  1  0
 11 12  1  0
 12 13  2  0
 13 14  1  0
 15 14  1  1
 15 16  1  0
 16  7  1  0
 17 15  1  0
 18 17  2  0
 19 13  1  0
 20 19  2  0
 21 17  1  0
 22 21  1  0
 22 29  1  0
 22 23  1  1
 24 23  1  0
 24 25  2  0
 26 25  1  0
 27 26  1  0
 28 27  2  0
 28 24  1  0
 29 31  2  0
 29 30  1  0
M  END
$$$$
