IYH.pdb
     RDKit          3D

 31 32  0  0  1  0  0  0  0  0999 V2000
   29.6120  -17.4235  -19.6037 C   0  0  0  0  0  0  0  0  0  0  0  0
   28.5294  -17.1130  -18.5791 C   0  0  0  0  0  0  0  0  0  0  0  0
   28.1867  -18.3328  -17.7491 C   0  0  2  0  0  0  0  0  0  0  0  0
   27.7500  -19.4177  -18.6965 C   0  0  0  0  0  0  0  0  0  0  0  0
   27.1026  -17.9266  -16.7821 C   0  0  2  0  0  0  0  0  0  0  0  0
   27.6397  -16.8734  -15.9492 N   0  0  0  0  0  0  0  0  0  0  0  0
   26.6706  -19.0383  -15.9098 C   0  0  0  0  0  0  0  0  0  0  0  0
   26.0965  -20.0665  -16.3960 O   0  0  0  0  0  0  0  0  0  0  0  0
   24.8626  -21.2747   -7.4090 O   0  0  0  0  0  0  0  0  0  0  0  0
   25.4504  -20.9842   -8.6315 C   0  0  0  0  0  0  0  0  0  0  0  0
   25.4705  -21.8882   -9.6726 C   0  0  0  0  0  0  0  0  0  0  0  0
   26.0434  -21.6214  -10.8817 C   0  0  0  0  0  0  0  0  0  0  0  0
   26.6417  -20.4073  -11.1214 C   0  0  0  0  0  0  0  0  0  0  0  0
   27.2808  -20.0398  -12.3919 C   0  0  0  0  0  0  0  0  0  0  0  0
   26.3774  -19.9375  -13.5539 C   0  0  2  0  0  0  0  0  0  0  0  0
   26.9008  -18.9516  -14.5227 N   0  0  0  0  0  0  0  0  0  0  0  0
   24.9768  -19.6538  -13.3658 C   0  0  0  0  0  0  0  0  0  0  0  0
   24.6380  -18.4365  -13.1207 O   0  0  0  0  0  0  0  0  0  0  0  0
   26.6221  -19.4885  -10.0650 C   0  0  0  0  0  0  0  0  0  0  0  0
   26.0407  -19.7672   -8.8468 C   0  0  0  0  0  0  0  0  0  0  0  0
   23.8725  -20.5430  -13.4169 N   0  0  0  0  0  0  0  0  0  0  0  0
   22.5266  -20.1329  -13.0148 C   0  0  1  0  0  0  0  0  0  0  0  0
   22.0247  -19.0365  -13.9282 C   0  0  0  0  0  0  0  0  0  0  0  0
   22.0194  -19.3802  -15.3579 C   0  0  0  0  0  0  0  0  0  0  0  0
   22.4583  -20.5733  -15.8862 C   0  0  0  0  0  0  0  0  0  0  0  0
   22.3196  -20.5135  -17.2339 N   0  0  0  0  0  0  0  0  0  0  0  0
   21.8062  -19.3138  -17.5552 C   0  0  0  0  0  0  0  0  0  0  0  0
   21.6304  -18.6411  -16.4142 N   0  0  0  0  0  0  0  0  0  0  0  0
   21.6122  -21.2812  -13.0886 C   0  0  0  0  0  0  0  0  0  0  0  0
   20.2591  -21.1333  -12.7705 O   0  0  0  0  0  0  0  0  0  0  0  0
   22.0195  -22.4092  -13.4330 O   0  0  0  0  0  0  0  0  0  0  0  0
  2  3  1  0
  2  1  1  0
  3  4  1  6
  5  3  1  0
  5  6  1  1
  7  5  1  0
  7  8  2  0
  9 10  1  0
 10 11  2  0
 10 20  1  0
 11 12  1  0
 12 13  2  0
 13 14  1  0
 15 14  1  1
 15 16  1  0
 16  7  1  0
 17 15  1  0
 18 17  2  0
 19 13  1  0
 20 19  2  0
 21 17  1  0
 22 21  1  0
 22 29  1  0
 22 23  1  6
 24 23  1  0
 24 25  2  0
 26 25  1  0
 27 26  1  0
 28 27  2  0
 28 24  1  0
 29 31  2  0
 29 30  1  0
M  END
$$$$
