IYH.pdb
     RDKit          3D

 31 32  0  0  1  0  0  0  0  0999 V2000
   21.9087  -10.2354    7.1373 C   0  0  0  0  0  0  0  0  0  0  0  0
   20.9394  -10.7738    6.0938 C   0  0  0  0  0  0  0  0  0  0  0  0
   19.9772  -11.7761    6.6971 C   0  0  2  0  0  0  0  0  0  0  0  0
   20.7975  -12.8442    7.3690 C   0  0  0  0  0  0  0  0  0  0  0  0
   19.1244  -12.3107    5.5736 C   0  0  2  0  0  0  0  0  0  0  0  0
   18.3946  -11.1934    5.0164 N   0  0  0  0  0  0  0  0  0  0  0  0
   18.1510  -13.3247    6.0294 C   0  0  0  0  0  0  0  0  0  0  0  0
   17.1584  -12.9979    6.7581 O   0  0  0  0  0  0  0  0  0  0  0  0
   19.1152  -19.7190    1.3144 O   0  0  0  0  0  0  0  0  0  0  0  0
   18.4976  -18.8841    2.2342 C   0  0  0  0  0  0  0  0  0  0  0  0
   17.7619  -19.3715    3.2938 C   0  0  0  0  0  0  0  0  0  0  0  0
   17.1474  -18.5670    4.2084 C   0  0  0  0  0  0  0  0  0  0  0  0
   17.2370  -17.1989    4.1111 C   0  0  0  0  0  0  0  0  0  0  0  0
   16.6066  -16.2625    5.0510 C   0  0  0  0  0  0  0  0  0  0  0  0
   17.4739  -15.7691    6.1377 C   0  0  2  0  0  0  0  0  0  0  0  0
   18.3309  -14.6689    5.6480 N   0  0  0  0  0  0  0  0  0  0  0  0
   18.3195  -16.6808    6.8666 C   0  0  0  0  0  0  0  0  0  0  0  0
   19.5884  -16.6195    6.6596 O   0  0  0  0  0  0  0  0  0  0  0  0
   17.9837  -16.7026    3.0355 C   0  0  0  0  0  0  0  0  0  0  0  0
   18.6011  -17.5234    2.1164 C   0  0  0  0  0  0  0  0  0  0  0  0
   17.9544  -17.6688    7.8170 N   0  0  0  0  0  0  0  0  0  0  0  0
   18.9521  -18.4004    8.5985 C   0  0  1  0  0  0  0  0  0  0  0  0
   20.3413  -18.0859    8.0888 C   0  0  0  0  0  0  0  0  0  0  0  0
   21.4331  -18.7065    8.8538 C   0  0  0  0  0  0  0  0  0  0  0  0
   21.3794  -19.9500    9.4420 C   0  0  0  0  0  0  0  0  0  0  0  0
   22.5595  -20.1682   10.0739 N   0  0  0  0  0  0  0  0  0  0  0  0
   23.3436  -19.0919    9.8928 C   0  0  0  0  0  0  0  0  0  0  0  0
   22.6515  -18.2187    9.1553 N   0  0  0  0  0  0  0  0  0  0  0  0
   18.8570  -18.0162   10.0139 C   0  0  0  0  0  0  0  0  0  0  0  0
   17.8316  -17.1743   10.4540 O   0  0  0  0  0  0  0  0  0  0  0  0
   19.6853  -18.4279   10.8513 O   0  0  0  0  0  0  0  0  0  0  0  0
  2  3  1  0
  2  1  1  0
  3  4  1  6
  5  3  1  0
  5  6  1  1
  7  5  1  0
  7  8  2  0
  9 10  1  0
 10 11  2  0
 10 20  1  0
 11 12  1  0
 12 13  2  0
 13 14  1  0
 15 14  1  6
 15 16  1  0
 16  7  1  0
 17 15  1  0
 18 17  2  0
 19 13  1  0
 20 19  2  0
 21 17  1  0
 22 21  1  0
 22 29  1  0
 22 23  1  6
 24 23  1  0
 24 25  2  0
 26 25  1  0
 27 26  1  0
 28 27  2  0
 28 24  1  0
 29 31  2  0
 29 30  1  0
M  END
$$$$
