IYH.pdb
     RDKit          3D

 31 32  0  0  1  0  0  0  0  0999 V2000
   26.0425  -17.9653  -19.2834 C   0  0  0  0  0  0  0  0  0  0  0  0
   24.6746  -18.6311  -19.2202 C   0  0  0  0  0  0  0  0  0  0  0  0
   24.7208  -19.9156  -18.4188 C   0  0  2  0  0  0  0  0  0  0  0  0
   25.7279  -20.8225  -19.0734 C   0  0  0  0  0  0  0  0  0  0  0  0
   23.3268  -20.4919  -18.4153 C   0  0  2  0  0  0  0  0  0  0  0  0
   22.7810  -20.3093  -19.7421 N   0  0  0  0  0  0  0  0  0  0  0  0
   22.4350  -19.8216  -17.4463 C   0  0  0  0  0  0  0  0  0  0  0  0
   22.5307  -18.5705  -17.2258 O   0  0  0  0  0  0  0  0  0  0  0  0
   18.4585  -15.5719  -20.0291 O   0  0  0  0  0  0  0  0  0  0  0  0
   18.6299  -16.6205  -19.1371 C   0  0  0  0  0  0  0  0  0  0  0  0
   18.4519  -16.4683  -17.7782 C   0  0  0  0  0  0  0  0  0  0  0  0
   18.6157  -17.4868  -16.8853 C   0  0  0  0  0  0  0  0  0  0  0  0
   18.9749  -18.7428  -17.3128 C   0  0  0  0  0  0  0  0  0  0  0  0
   19.1722  -19.8924  -16.4199 C   0  0  0  0  0  0  0  0  0  0  0  0
   20.5082  -19.9986  -15.8029 C   0  0  2  0  0  0  0  0  0  0  0  0
   21.4687  -20.5843  -16.7616 N   0  0  0  0  0  0  0  0  0  0  0  0
   20.6791  -20.6871  -14.5482 C   0  0  0  0  0  0  0  0  0  0  0  0
   20.7320  -21.9729  -14.5706 O   0  0  0  0  0  0  0  0  0  0  0  0
   19.1561  -18.8987  -18.6925 C   0  0  0  0  0  0  0  0  0  0  0  0
   18.9883  -17.8636  -19.5869 C   0  0  0  0  0  0  0  0  0  0  0  0
   20.8086  -20.1441  -13.2439 N   0  0  0  0  0  0  0  0  0  0  0  0
   20.9942  -20.9913  -12.0653 C   0  0  1  0  0  0  0  0  0  0  0  0
   21.6632  -20.2030  -10.9610 C   0  0  0  0  0  0  0  0  0  0  0  0
   21.6871  -20.8740   -9.6528 C   0  0  0  0  0  0  0  0  0  0  0  0
   21.1607  -22.1191   -9.3927 C   0  0  0  0  0  0  0  0  0  0  0  0
   21.3510  -22.3904   -8.0777 N   0  0  0  0  0  0  0  0  0  0  0  0
   21.9819  -21.3456   -7.5153 C   0  0  0  0  0  0  0  0  0  0  0  0
   22.1781  -20.4387   -8.4768 N   0  0  0  0  0  0  0  0  0  0  0  0
   19.6913  -21.4790  -11.5912 C   0  0  0  0  0  0  0  0  0  0  0  0
   18.5115  -20.8262  -11.9599 O   0  0  0  0  0  0  0  0  0  0  0  0
   19.6075  -22.4800  -10.8512 O   0  0  0  0  0  0  0  0  0  0  0  0
  2  3  1  0
  2  1  1  0
  3  4  1  6
  5  3  1  0
  5  6  1  6
  7  5  1  0
  7  8  2  0
  9 10  1  0
 10 11  2  0
 10 20  1  0
 11 12  1  0
 12 13  2  0
 13 14  1  0
 15 14  1  6
 15 16  1  0
 16  7  1  0
 17 15  1  0
 18 17  2  0
 19 13  1  0
 20 19  2  0
 21 17  1  0
 22 21  1  0
 22 29  1  0
 22 23  1  1
 24 23  1  0
 24 25  2  0
 26 25  1  0
 27 26  1  0
 28 27  2  0
 28 24  1  0
 29 31  2  0
 29 30  1  0
M  END
$$$$
