IYH.pdb
     RDKit          3D

 31 32  0  0  1  0  0  0  0  0999 V2000
   27.8098  -20.0761  -21.2273 C   0  0  0  0  0  0  0  0  0  0  0  0
   28.5667  -20.4748  -19.9678 C   0  0  0  0  0  0  0  0  0  0  0  0
   27.6230  -20.7154  -18.8077 C   0  0  2  0  0  0  0  0  0  0  0  0
   26.8172  -19.4596  -18.6109 C   0  0  0  0  0  0  0  0  0  0  0  0
   28.4680  -21.0648  -17.6079 C   0  0  2  0  0  0  0  0  0  0  0  0
   29.2440  -22.2355  -17.9527 N   0  0  0  0  0  0  0  0  0  0  0  0
   27.6585  -21.3758  -16.4115 C   0  0  0  0  0  0  0  0  0  0  0  0
   26.9939  -22.4600  -16.3348 O   0  0  0  0  0  0  0  0  0  0  0  0
   24.8859  -20.4548   -7.9609 O   0  0  0  0  0  0  0  0  0  0  0  0
   25.5507  -20.4097   -9.1777 C   0  0  0  0  0  0  0  0  0  0  0  0
   25.3796  -19.3747  -10.0727 C   0  0  0  0  0  0  0  0  0  0  0  0
   26.0240  -19.3124  -11.2736 C   0  0  0  0  0  0  0  0  0  0  0  0
   26.8952  -20.3052  -11.6541 C   0  0  0  0  0  0  0  0  0  0  0  0
   27.6279  -20.3156  -12.9272 C   0  0  0  0  0  0  0  0  0  0  0  0
   26.8314  -20.6668  -14.1184 C   0  0  2  0  0  0  0  0  0  0  0  0
   27.6272  -20.4550  -15.3458 N   0  0  0  0  0  0  0  0  0  0  0  0
   25.5394  -20.0658  -14.3347 C   0  0  0  0  0  0  0  0  0  0  0  0
   25.4726  -19.0531  -15.1262 O   0  0  0  0  0  0  0  0  0  0  0  0
   27.0697  -21.3568  -10.7462 C   0  0  0  0  0  0  0  0  0  0  0  0
   26.4142  -21.4110   -9.5350 C   0  0  0  0  0  0  0  0  0  0  0  0
   24.2817  -20.4367  -13.7928 N   0  0  0  0  0  0  0  0  0  0  0  0
   23.0218  -19.9296  -14.3376 C   0  0  1  0  0  0  0  0  0  0  0  0
   22.8961  -20.3139  -15.7954 C   0  0  0  0  0  0  0  0  0  0  0  0
   21.6463  -19.8840  -16.4400 C   0  0  0  0  0  0  0  0  0  0  0  0
   20.6452  -19.1668  -15.8250 C   0  0  0  0  0  0  0  0  0  0  0  0
   19.6484  -18.9781  -16.7251 N   0  0  0  0  0  0  0  0  0  0  0  0
   20.0055  -19.5601  -17.8825 C   0  0  0  0  0  0  0  0  0  0  0  0
   21.2124  -20.1024  -17.6960 N   0  0  0  0  0  0  0  0  0  0  0  0
   21.8908  -20.4950  -13.5885 C   0  0  0  0  0  0  0  0  0  0  0  0
   20.5878  -20.0472  -13.8243 O   0  0  0  0  0  0  0  0  0  0  0  0
   22.0655  -21.3814  -12.7279 O   0  0  0  0  0  0  0  0  0  0  0  0
  2  3  1  0
  2  1  1  0
  3  4  1  1
  5  3  1  0
  5  6  1  6
  7  5  1  0
  7  8  2  0
  9 10  1  0
 10 11  2  0
 10 20  1  0
 11 12  1  0
 12 13  2  0
 13 14  1  0
 15 14  1  1
 15 16  1  0
 16  7  1  0
 17 15  1  0
 18 17  2  0
 19 13  1  0
 20 19  2  0
 21 17  1  0
 22 21  1  0
 22 29  1  0
 22 23  1  6
 24 23  1  0
 24 25  2  0
 26 25  1  0
 27 26  1  0
 28 27  2  0
 28 24  1  0
 29 31  2  0
 29 30  1  0
M  END
$$$$
