IYH.pdb
     RDKit          3D

 31 32  0  0  1  0  0  0  0  0999 V2000
   28.0086  -16.7038  -20.6140 C   0  0  0  0  0  0  0  0  0  0  0  0
   28.6057  -17.6881  -19.6176 C   0  0  0  0  0  0  0  0  0  0  0  0
   27.5394  -18.2857  -18.7231 C   0  0  2  0  0  0  0  0  0  0  0  0
   26.8666  -17.1505  -17.9992 C   0  0  0  0  0  0  0  0  0  0  0  0
   28.2268  -19.2515  -17.7902 C   0  0  2  0  0  0  0  0  0  0  0  0
   28.8793  -20.2504  -18.6075 N   0  0  0  0  0  0  0  0  0  0  0  0
   27.2838  -19.9345  -16.8804 C   0  0  0  0  0  0  0  0  0  0  0  0
   26.6088  -20.9411  -17.2729 O   0  0  0  0  0  0  0  0  0  0  0  0
   23.4125  -21.7689   -9.0241 O   0  0  0  0  0  0  0  0  0  0  0  0
   24.2314  -21.3175  -10.0489 C   0  0  0  0  0  0  0  0  0  0  0  0
   24.2116  -20.0098  -10.4859 C   0  0  0  0  0  0  0  0  0  0  0  0
   25.0087  -19.5469  -11.4918 C   0  0  0  0  0  0  0  0  0  0  0  0
   25.8900  -20.3864  -12.1306 C   0  0  0  0  0  0  0  0  0  0  0  0
   26.7818  -19.9702  -13.2211 C   0  0  0  0  0  0  0  0  0  0  0  0
   26.2179  -20.0738  -14.5806 C   0  0  2  0  0  0  0  0  0  0  0  0
   27.1357  -19.4591  -15.5626 N   0  0  0  0  0  0  0  0  0  0  0  0
   24.8938  -19.5778  -14.8604 C   0  0  0  0  0  0  0  0  0  0  0  0
   24.7314  -18.3027  -14.9271 O   0  0  0  0  0  0  0  0  0  0  0  0
   25.9110  -21.7146  -11.6878 C   0  0  0  0  0  0  0  0  0  0  0  0
   25.1017  -22.1730  -10.6706 C   0  0  0  0  0  0  0  0  0  0  0  0
   23.6984  -20.3071  -15.0878 N   0  0  0  0  0  0  0  0  0  0  0  0
   22.4004  -19.6459  -15.2274 C   0  0  1  0  0  0  0  0  0  0  0  0
   21.8496  -19.8747  -16.6177 C   0  0  0  0  0  0  0  0  0  0  0  0
   22.2314  -18.8559  -17.6068 C   0  0  0  0  0  0  0  0  0  0  0  0
   22.9178  -17.6967  -17.3237 C   0  0  0  0  0  0  0  0  0  0  0  0
   23.0656  -17.0019  -18.4790 N   0  0  0  0  0  0  0  0  0  0  0  0
   22.4882  -17.7003  -19.4714 C   0  0  0  0  0  0  0  0  0  0  0  0
   21.9894  -18.8158  -18.9309 N   0  0  0  0  0  0  0  0  0  0  0  0
   21.4568  -20.1849  -14.2379 C   0  0  0  0  0  0  0  0  0  0  0  0
   20.1680  -19.6560  -14.1238 O   0  0  0  0  0  0  0  0  0  0  0  0
   21.7821  -21.1204  -13.4791 O   0  0  0  0  0  0  0  0  0  0  0  0
  2  3  1  0
  2  1  1  0
  3  4  1  1
  5  3  1  0
  5  6  1  6
  7  5  1  0
  7  8  2  0
  9 10  1  0
 10 11  2  0
 10 20  1  0
 11 12  1  0
 12 13  2  0
 13 14  1  0
 15 14  1  1
 15 16  1  0
 16  7  1  0
 17 15  1  0
 18 17  2  0
 19 13  1  0
 20 19  2  0
 21 17  1  0
 22 21  1  0
 22 29  1  0
 22 23  1  6
 24 23  1  0
 24 25  2  0
 26 25  1  0
 27 26  1  0
 28 27  2  0
 28 24  1  0
 29 31  2  0
 29 30  1  0
M  END
$$$$
