IYH.pdb
     RDKit          3D

 31 32  0  0  1  0  0  0  0  0999 V2000
   27.1579  -20.3217  -21.0228 C   0  0  0  0  0  0  0  0  0  0  0  0
   26.3656  -21.6219  -21.0336 C   0  0  0  0  0  0  0  0  0  0  0  0
   25.6754  -21.8605  -19.7066 C   0  0  2  0  0  0  0  0  0  0  0  0
   24.9308  -20.6020  -19.3501 C   0  0  0  0  0  0  0  0  0  0  0  0
   26.7443  -22.2144  -18.7028 C   0  0  2  0  0  0  0  0  0  0  0  0
   27.3681  -23.4398  -19.1507 N   0  0  0  0  0  0  0  0  0  0  0  0
   26.2022  -22.4343  -17.3459 C   0  0  0  0  0  0  0  0  0  0  0  0
   25.4678  -23.4434  -17.0902 O   0  0  0  0  0  0  0  0  0  0  0  0
   24.7854  -20.5486   -8.7099 O   0  0  0  0  0  0  0  0  0  0  0  0
   25.2940  -20.6876   -9.9931 C   0  0  0  0  0  0  0  0  0  0  0  0
   25.9271  -21.8381  -10.4140 C   0  0  0  0  0  0  0  0  0  0  0  0
   26.4337  -21.9939  -11.6712 C   0  0  0  0  0  0  0  0  0  0  0  0
   26.3324  -20.9838  -12.5980 C   0  0  0  0  0  0  0  0  0  0  0  0
   26.8502  -21.0691  -13.9700 C   0  0  0  0  0  0  0  0  0  0  0  0
   25.8958  -21.5601  -14.9823 C   0  0  2  0  0  0  0  0  0  0  0  0
   26.5067  -21.5101  -16.3272 N   0  0  0  0  0  0  0  0  0  0  0  0
   24.5803  -20.9802  -15.0859 C   0  0  0  0  0  0  0  0  0  0  0  0
   24.4678  -19.8498  -15.6909 O   0  0  0  0  0  0  0  0  0  0  0  0
   25.6899  -19.8151  -12.1718 C   0  0  0  0  0  0  0  0  0  0  0  0
   25.1812  -19.6669  -10.8994 C   0  0  0  0  0  0  0  0  0  0  0  0
   23.3432  -21.4863  -14.6101 N   0  0  0  0  0  0  0  0  0  0  0  0
   22.1186  -20.6853  -14.6278 C   0  0  1  0  0  0  0  0  0  0  0  0
   21.0053  -21.4562  -15.3021 C   0  0  0  0  0  0  0  0  0  0  0  0
   21.0282  -21.4123  -16.7718 C   0  0  0  0  0  0  0  0  0  0  0  0
   21.8435  -20.5992  -17.5262 C   0  0  0  0  0  0  0  0  0  0  0  0
   21.5654  -20.8215  -18.8348 N   0  0  0  0  0  0  0  0  0  0  0  0
   20.5985  -21.7516  -18.9114 C   0  0  0  0  0  0  0  0  0  0  0  0
   20.2843  -22.0987  -17.6599 N   0  0  0  0  0  0  0  0  0  0  0  0
   21.7168  -20.3577  -13.2526 C   0  0  0  0  0  0  0  0  0  0  0  0
   20.6714  -19.4614  -13.0124 O   0  0  0  0  0  0  0  0  0  0  0  0
   22.2969  -20.8669  -12.2723 O   0  0  0  0  0  0  0  0  0  0  0  0
  2  3  1  0
  2  1  1  0
  3  4  1  1
  5  3  1  0
  5  6  1  6
  7  5  1  0
  7  8  2  0
  9 10  1  0
 10 11  2  0
 10 20  1  0
 11 12  1  0
 12 13  2  0
 13 14  1  0
 15 14  1  1
 15 16  1  0
 16  7  1  0
 17 15  1  0
 18 17  2  0
 19 13  1  0
 20 19  2  0
 21 17  1  0
 22 21  1  0
 22 29  1  0
 22 23  1  1
 24 23  1  0
 24 25  2  0
 26 25  1  0
 27 26  1  0
 28 27  2  0
 28 24  1  0
 29 31  2  0
 29 30  1  0
M  END
$$$$
