DNW.pdb
     RDKit          3D

 31 32  0  0  1  0  0  0  0  0999 V2000
   24.1300  -35.4822  -12.0480 N   0  0  0  0  0  0  0  0  0  0  0  0
   23.9459  -34.4354  -11.0711 C   0  0  1  0  0  0  0  0  0  0  0  0
   22.5109  -33.9890  -10.9232 C   0  0  0  0  0  0  0  0  0  0  0  0
   21.9695  -33.3450  -12.1375 C   0  0  0  0  0  0  0  0  0  0  0  0
   22.7177  -33.2909  -13.1472 O   0  0  0  0  0  0  0  0  0  0  0  0
   24.5629  -34.8601   -9.7905 C   0  0  0  0  0  0  0  0  0  0  0  0
   25.4373  -35.7894   -9.7823 O   0  0  0  0  0  0  0  0  0  0  0  0
   20.7099  -32.8094  -12.2202 O   0  0  0  0  0  0  0  0  0  0  0  0
   27.5429  -35.9932   -5.8322 N   0  0  0  0  0  0  0  0  0  0  0  0
   27.0627  -34.7034   -6.1640 C   0  0  0  0  0  0  0  0  0  0  0  0
   27.2687  -33.8266   -5.2495 O   0  0  0  0  0  0  0  0  0  0  0  0
   26.3851  -34.3217   -7.4144 C   0  0  0  0  0  0  0  0  0  0  0  0
   24.9125  -34.5613   -7.3156 C   0  0  2  0  0  0  0  0  0  0  0  0
   24.1969  -34.2478   -8.5520 N   0  0  0  0  0  0  0  0  0  0  0  0
   24.2705  -33.7933   -6.2265 C   0  0  0  0  0  0  0  0  0  0  0  0
   24.3777  -32.5319   -6.1823 O   0  0  0  0  0  0  0  0  0  0  0  0
   23.5099  -34.3876   -5.1821 N   0  0  0  0  0  0  0  0  0  0  0  0
   22.9719  -33.5813   -4.0645 C   0  0  1  0  0  0  0  0  0  0  0  0
   21.7765  -34.2383   -3.4762 C   0  0  0  0  0  0  0  0  0  0  0  0
   20.5156  -33.7497   -4.0394 C   0  0  0  0  0  0  0  0  0  0  0  0
   20.1848  -33.8666   -5.4017 C   0  0  0  0  0  0  0  0  0  0  0  0
   18.9649  -33.3732   -5.5919 N   0  0  0  0  0  0  0  0  0  0  0  0
   18.4309  -32.9219   -4.4507 C   0  0  0  0  0  0  0  0  0  0  0  0
   17.2191  -32.3279   -4.1566 C   0  0  0  0  0  0  0  0  0  0  0  0
   16.9441  -31.9463   -2.8618 C   0  0  0  0  0  0  0  0  0  0  0  0
   17.9046  -32.1768   -1.9019 C   0  0  0  0  0  0  0  0  0  0  0  0
   19.1243  -32.7750   -2.1986 C   0  0  0  0  0  0  0  0  0  0  0  0
   19.4034  -33.1584   -3.4838 C   0  0  0  0  0  0  0  0  0  0  0  0
   24.0408  -33.3050   -3.1072 C   0  0  0  0  0  0  0  0  0  0  0  0
   23.8619  -32.4717   -2.1920 O   0  0  0  0  0  0  0  0  0  0  0  0
   25.2938  -33.9246   -3.1391 O   0  0  0  0  0  0  0  0  0  0  0  0
  2  1  1  6
  2  3  1  0
  3  4  1  0
  4  5  2  0
  4  8  1  0
  6  2  1  0
  7  6  2  0
  9 10  1  0
 10 11  2  0
 12 10  1  0
 13 12  1  6
 13 14  1  0
 14  6  1  0
 15 13  1  0
 15 17  1  0
 16 15  2  0
 18 19  1  1
 18 29  1  0
 18 17  1  0
 20 19  1  0
 20 21  2  0
 22 21  1  0
 23 28  2  0
 23 22  1  0
 24 23  1  0
 25 26  1  0
 25 24  2  0
 26 27  2  0
 27 28  1  0
 28 20  1  0
 29 31  1  0
 30 29  2  0
M  END
$$$$
