DNW.pdb
     RDKit          3D

 31 32  0  0  1  0  0  0  0  0999 V2000
   20.1827  -32.8571   -4.3476 N   0  0  0  0  0  0  0  0  0  0  0  0
   18.9152  -32.1681   -4.4019 C   0  0  1  0  0  0  0  0  0  0  0  0
   17.9175  -32.6517   -3.3766 C   0  0  0  0  0  0  0  0  0  0  0  0
   18.5080  -33.5480   -2.3616 C   0  0  0  0  0  0  0  0  0  0  0  0
   19.6077  -33.2057   -1.8560 O   0  0  0  0  0  0  0  0  0  0  0  0
   19.1604  -30.7064   -4.3378 C   0  0  0  0  0  0  0  0  0  0  0  0
   19.8732  -30.1405   -5.2321 O   0  0  0  0  0  0  0  0  0  0  0  0
   17.9273  -34.7191   -1.9474 O   0  0  0  0  0  0  0  0  0  0  0  0
   18.9768  -25.4794   -5.3760 N   0  0  0  0  0  0  0  0  0  0  0  0
   18.3711  -26.3353   -4.4247 C   0  0  0  0  0  0  0  0  0  0  0  0
   17.8923  -25.7166   -3.4070 O   0  0  0  0  0  0  0  0  0  0  0  0
   18.2578  -27.8004   -4.5191 C   0  0  0  0  0  0  0  0  0  0  0  0
   18.7775  -28.4548   -3.2792 C   0  0  2  0  0  0  0  0  0  0  0  0
   18.6126  -29.9081   -3.2864 N   0  0  0  0  0  0  0  0  0  0  0  0
   18.1445  -27.9443   -2.0436 C   0  0  0  0  0  0  0  0  0  0  0  0
   16.9513  -28.2591   -1.7575 O   0  0  0  0  0  0  0  0  0  0  0  0
   18.8008  -27.0921   -1.1132 N   0  0  0  0  0  0  0  0  0  0  0  0
   18.1454  -26.6742    0.1456 C   0  0  1  0  0  0  0  0  0  0  0  0
   16.6905  -26.4651   -0.0691 C   0  0  0  0  0  0  0  0  0  0  0  0
   15.9460  -26.2760    1.1783 C   0  0  0  0  0  0  0  0  0  0  0  0
   15.7511  -25.0170    1.7748 C   0  0  0  0  0  0  0  0  0  0  0  0
   15.0040  -25.1682    2.8641 N   0  0  0  0  0  0  0  0  0  0  0  0
   14.6703  -26.4494    3.0604 C   0  0  0  0  0  0  0  0  0  0  0  0
   13.9312  -27.0831    4.0403 C   0  0  0  0  0  0  0  0  0  0  0  0
   13.7626  -28.4493    3.9896 C   0  0  0  0  0  0  0  0  0  0  0  0
   14.3477  -29.1348    2.9482 C   0  0  0  0  0  0  0  0  0  0  0  0
   15.0914  -28.4963    1.9619 C   0  0  0  0  0  0  0  0  0  0  0  0
   15.2616  -27.1378    2.0055 C   0  0  0  0  0  0  0  0  0  0  0  0
   18.4679  -27.6317    1.2014 C   0  0  0  0  0  0  0  0  0  0  0  0
   18.6399  -28.8384    0.9214 O   0  0  0  0  0  0  0  0  0  0  0  0
   18.6033  -27.2875    2.5497 O   0  0  0  0  0  0  0  0  0  0  0  0
  2  1  1  1
  2  3  1  0
  3  4  1  0
  4  5  2  0
  4  8  1  0
  6  2  1  0
  7  6  2  0
  9 10  1  0
 10 11  2  0
 12 10  1  0
 13 12  1  6
 13 14  1  0
 14  6  1  0
 15 13  1  0
 15 17  1  0
 16 15  2  0
 18 19  1  6
 18 29  1  0
 18 17  1  0
 20 19  1  0
 20 21  2  0
 22 21  1  0
 23 28  2  0
 23 22  1  0
 24 23  1  0
 25 26  1  0
 25 24  2  0
 26 27  2  0
 27 28  1  0
 28 20  1  0
 29 31  1  0
 30 29  2  0
M  END
$$$$
