DNW.pdb
     RDKit          3D

 31 32  0  0  1  0  0  0  0  0999 V2000
   27.2635  -22.3010  -16.6678 N   0  0  0  0  0  0  0  0  0  0  0  0
   27.4980  -20.8927  -16.4538 C   0  0  1  0  0  0  0  0  0  0  0  0
   27.7829  -20.1254  -17.7229 C   0  0  0  0  0  0  0  0  0  0  0  0
   28.9884  -20.5970  -18.4347 C   0  0  0  0  0  0  0  0  0  0  0  0
   29.0446  -21.8177  -18.7329 O   0  0  0  0  0  0  0  0  0  0  0  0
   26.3701  -20.3320  -15.6700 C   0  0  0  0  0  0  0  0  0  0  0  0
   26.3108  -19.0768  -15.4480 O   0  0  0  0  0  0  0  0  0  0  0  0
   30.0362  -19.7839  -18.7825 O   0  0  0  0  0  0  0  0  0  0  0  0
   23.6010  -19.3213  -16.9061 N   0  0  0  0  0  0  0  0  0  0  0  0
   22.6790  -20.2106  -16.3031 C   0  0  0  0  0  0  0  0  0  0  0  0
   21.5827  -20.3375  -16.9585 O   0  0  0  0  0  0  0  0  0  0  0  0
   22.8816  -20.9573  -15.0503 C   0  0  0  0  0  0  0  0  0  0  0  0
   24.1968  -20.6084  -14.4302 C   0  0  2  0  0  0  0  0  0  0  0  0
   25.3375  -21.1728  -15.1510 N   0  0  0  0  0  0  0  0  0  0  0  0
   24.3074  -21.0407  -13.0199 C   0  0  0  0  0  0  0  0  0  0  0  0
   24.5716  -22.2471  -12.7381 O   0  0  0  0  0  0  0  0  0  0  0  0
   24.1329  -20.1688  -11.9100 N   0  0  0  0  0  0  0  0  0  0  0  0
   24.0718  -20.6856  -10.5251 C   0  0  1  0  0  0  0  0  0  0  0  0
   24.8478  -19.8118   -9.6082 C   0  0  0  0  0  0  0  0  0  0  0  0
   26.2333  -20.2524   -9.4285 C   0  0  0  0  0  0  0  0  0  0  0  0
   26.9001  -21.0871  -10.3437 C   0  0  0  0  0  0  0  0  0  0  0  0
   28.1494  -21.2703   -9.9274 N   0  0  0  0  0  0  0  0  0  0  0  0
   28.3899  -20.6178   -8.7839 C   0  0  0  0  0  0  0  0  0  0  0  0
   29.5107  -20.5178   -7.9827 C   0  0  0  0  0  0  0  0  0  0  0  0
   29.4582  -19.7674   -6.8287 C   0  0  0  0  0  0  0  0  0  0  0  0
   28.2719  -19.1400   -6.5188 C   0  0  0  0  0  0  0  0  0  0  0  0
   27.1441  -19.2408   -7.3259 C   0  0  0  0  0  0  0  0  0  0  0  0
   27.1899  -19.9841   -8.4756 C   0  0  0  0  0  0  0  0  0  0  0  0
   22.6751  -20.8754  -10.1395 C   0  0  0  0  0  0  0  0  0  0  0  0
   21.7689  -20.2644  -10.7475 O   0  0  0  0  0  0  0  0  0  0  0  0
   22.2610  -21.7191   -9.1044 O   0  0  0  0  0  0  0  0  0  0  0  0
  2  1  1  6
  2  3  1  0
  3  4  1  0
  4  5  2  0
  4  8  1  0
  6  2  1  0
  7  6  2  0
  9 10  1  0
 10 11  2  0
 12 10  1  0
 13 12  1  6
 13 14  1  0
 14  6  1  0
 15 13  1  0
 15 17  1  0
 16 15  2  0
 18 19  1  1
 18 29  1  0
 18 17  1  0
 20 19  1  0
 20 21  2  0
 22 21  1  0
 23 28  2  0
 23 22  1  0
 24 23  1  0
 25 26  1  0
 25 24  2  0
 26 27  2  0
 27 28  1  0
 28 20  1  0
 29 31  1  0
 30 29  2  0
M  END
$$$$
