DNW.pdb
     RDKit          3D

 31 32  0  0  1  0  0  0  0  0999 V2000
   28.0371  -21.8997  -18.1045 N   0  0  0  0  0  0  0  0  0  0  0  0
   29.0685  -22.1913  -17.1375 C   0  0  1  0  0  0  0  0  0  0  0  0
   30.4692  -21.9922  -17.6658 C   0  0  0  0  0  0  0  0  0  0  0  0
   30.7537  -22.7791  -18.8832 C   0  0  0  0  0  0  0  0  0  0  0  0
   30.3851  -23.9818  -18.8950 O   0  0  0  0  0  0  0  0  0  0  0  0
   28.7948  -21.4241  -15.8976 C   0  0  0  0  0  0  0  0  0  0  0  0
   29.6361  -21.4427  -14.9385 O   0  0  0  0  0  0  0  0  0  0  0  0
   31.3909  -22.2735  -19.9870 O   0  0  0  0  0  0  0  0  0  0  0  0
   27.2985  -17.3953  -17.0412 N   0  0  0  0  0  0  0  0  0  0  0  0
   27.5222  -17.7042  -15.6778 C   0  0  0  0  0  0  0  0  0  0  0  0
   28.5752  -17.1543  -15.1916 O   0  0  0  0  0  0  0  0  0  0  0  0
   26.6772  -18.5611  -14.8293 C   0  0  0  0  0  0  0  0  0  0  0  0
   27.3560  -19.8628  -14.5453 C   0  0  2  0  0  0  0  0  0  0  0  0
   27.5979  -20.6572  -15.7492 N   0  0  0  0  0  0  0  0  0  0  0  0
   26.6058  -20.7148  -13.5969 C   0  0  0  0  0  0  0  0  0  0  0  0
   25.6579  -21.4486  -14.0063 O   0  0  0  0  0  0  0  0  0  0  0  0
   26.8793  -20.7759  -12.2026 N   0  0  0  0  0  0  0  0  0  0  0  0
   26.0693  -21.6165  -11.2937 C   0  0  1  0  0  0  0  0  0  0  0  0
   26.8624  -22.0066  -10.0998 C   0  0  0  0  0  0  0  0  0  0  0  0
   26.9355  -20.9506   -9.0873 C   0  0  0  0  0  0  0  0  0  0  0  0
   26.0266  -19.8786   -9.0265 C   0  0  0  0  0  0  0  0  0  0  0  0
   26.3278  -19.1183   -7.9781 N   0  0  0  0  0  0  0  0  0  0  0  0
   27.3859  -19.5938   -7.3106 C   0  0  0  0  0  0  0  0  0  0  0  0
   28.0593  -19.1511   -6.1888 C   0  0  0  0  0  0  0  0  0  0  0  0
   29.1496  -19.8550   -5.7269 C   0  0  0  0  0  0  0  0  0  0  0  0
   29.5272  -20.9869   -6.4148 C   0  0  0  0  0  0  0  0  0  0  0  0
   28.8487  -21.4322   -7.5439 C   0  0  0  0  0  0  0  0  0  0  0  0
   27.7627  -20.7379   -8.0075 C   0  0  0  0  0  0  0  0  0  0  0  0
   24.8156  -20.9310  -10.9876 C   0  0  0  0  0  0  0  0  0  0  0  0
   24.7463  -19.6852  -11.0717 O   0  0  0  0  0  0  0  0  0  0  0  0
   23.6457  -21.5873  -10.5933 O   0  0  0  0  0  0  0  0  0  0  0  0
  2  1  1  6
  2  3  1  0
  3  4  1  0
  4  5  2  0
  4  8  1  0
  6  2  1  0
  7  6  2  0
  9 10  1  0
 10 11  2  0
 12 10  1  0
 13 12  1  6
 13 14  1  0
 14  6  1  0
 15 13  1  0
 15 17  1  0
 16 15  2  0
 18 19  1  1
 18 29  1  0
 18 17  1  0
 20 19  1  0
 20 21  2  0
 22 21  1  0
 23 28  2  0
 23 22  1  0
 24 23  1  0
 25 26  1  0
 25 24  2  0
 26 27  2  0
 27 28  1  0
 28 20  1  0
 29 31  1  0
 30 29  2  0
M  END
$$$$
