DNW.pdb
     RDKit          3D

 31 32  0  0  1  0  0  0  0  0999 V2000
   27.3986  -19.4323  -17.9475 N   0  0  0  0  0  0  0  0  0  0  0  0
   27.7247  -18.8656  -16.6605 C   0  0  1  0  0  0  0  0  0  0  0  0
   28.7330  -17.7435  -16.7295 C   0  0  0  0  0  0  0  0  0  0  0  0
   29.1132  -17.3815  -18.1103 C   0  0  0  0  0  0  0  0  0  0  0  0
   28.5219  -17.9750  -19.0485 O   0  0  0  0  0  0  0  0  0  0  0  0
   26.4674  -18.4828  -15.9722 C   0  0  0  0  0  0  0  0  0  0  0  0
   26.5124  -17.9546  -14.8115 O   0  0  0  0  0  0  0  0  0  0  0  0
   30.0655  -16.4444  -18.4187 O   0  0  0  0  0  0  0  0  0  0  0  0
   21.6283  -18.7251  -18.6435 N   0  0  0  0  0  0  0  0  0  0  0  0
   22.8229  -18.2961  -18.0163 C   0  0  0  0  0  0  0  0  0  0  0  0
   23.8718  -18.4660  -18.7365 O   0  0  0  0  0  0  0  0  0  0  0  0
   22.9365  -17.7012  -16.6742 C   0  0  0  0  0  0  0  0  0  0  0  0
   23.9535  -18.4290  -15.8545 C   0  0  2  0  0  0  0  0  0  0  0  0
   25.1931  -18.6947  -16.5837 N   0  0  0  0  0  0  0  0  0  0  0  0
   23.4616  -19.7228  -15.3328 C   0  0  0  0  0  0  0  0  0  0  0  0
   23.4380  -20.7470  -16.0778 O   0  0  0  0  0  0  0  0  0  0  0  0
   22.9943  -19.9127  -14.0030 N   0  0  0  0  0  0  0  0  0  0  0  0
   22.4362  -21.2089  -13.5592 C   0  0  1  0  0  0  0  0  0  0  0  0
   23.5185  -22.1038  -13.0752 C   0  0  0  0  0  0  0  0  0  0  0  0
   24.4177  -21.4542  -12.1185 C   0  0  0  0  0  0  0  0  0  0  0  0
   24.0174  -21.0679  -10.8264 C   0  0  0  0  0  0  0  0  0  0  0  0
   25.0630  -20.5497  -10.1892 N   0  0  0  0  0  0  0  0  0  0  0  0
   26.1597  -20.5515  -10.9562 C   0  0  0  0  0  0  0  0  0  0  0  0
   27.4527  -20.1167  -10.7393 C   0  0  0  0  0  0  0  0  0  0  0  0
   28.3891  -20.2373  -11.7424 C   0  0  0  0  0  0  0  0  0  0  0  0
   27.9891  -20.7943  -12.9368 C   0  0  0  0  0  0  0  0  0  0  0  0
   26.6874  -21.2320  -13.1545 C   0  0  0  0  0  0  0  0  0  0  0  0
   25.7517  -21.1166  -12.1607 C   0  0  0  0  0  0  0  0  0  0  0  0
   21.3705  -20.9710  -12.5880 C   0  0  0  0  0  0  0  0  0  0  0  0
   21.1518  -19.8130  -12.1693 O   0  0  0  0  0  0  0  0  0  0  0  0
   20.5477  -21.9773  -12.0731 O   0  0  0  0  0  0  0  0  0  0  0  0
  2  1  1  6
  2  3  1  0
  3  4  1  0
  4  5  2  0
  4  8  1  0
  6  2  1  0
  7  6  2  0
  9 10  1  0
 10 11  2  0
 12 10  1  0
 13 12  1  6
 13 14  1  0
 14  6  1  0
 15 13  1  0
 15 17  1  0
 16 15  2  0
 18 19  1  1
 18 29  1  0
 18 17  1  0
 20 19  1  0
 20 21  2  0
 22 21  1  0
 23 28  2  0
 23 22  1  0
 24 23  1  0
 25 26  1  0
 25 24  2  0
 26 27  2  0
 27 28  1  0
 28 20  1  0
 29 31  1  0
 30 29  2  0
M  END
$$$$
