DNW.pdb
     RDKit          3D

 31 32  0  0  1  0  0  0  0  0999 V2000
   27.3994  -22.9392  -17.2497 N   0  0  0  0  0  0  0  0  0  0  0  0
   27.5061  -21.5966  -16.7300 C   0  0  1  0  0  0  0  0  0  0  0  0
   28.4657  -20.7220  -17.5013 C   0  0  0  0  0  0  0  0  0  0  0  0
   29.8725  -21.1604  -17.3954 C   0  0  0  0  0  0  0  0  0  0  0  0
   30.1209  -22.1321  -16.6362 O   0  0  0  0  0  0  0  0  0  0  0  0
   26.1455  -21.0164  -16.6166 C   0  0  0  0  0  0  0  0  0  0  0  0
   25.8496  -19.9561  -17.2619 O   0  0  0  0  0  0  0  0  0  0  0  0
   30.9086  -20.5704  -18.0726 O   0  0  0  0  0  0  0  0  0  0  0  0
   23.2149  -22.1617  -19.1399 N   0  0  0  0  0  0  0  0  0  0  0  0
   23.1533  -21.2855  -18.0296 C   0  0  0  0  0  0  0  0  0  0  0  0
   23.4099  -20.0627  -18.3241 O   0  0  0  0  0  0  0  0  0  0  0  0
   22.8315  -21.6594  -16.6422 C   0  0  0  0  0  0  0  0  0  0  0  0
   23.8063  -21.0482  -15.6871 C   0  0  2  0  0  0  0  0  0  0  0  0
   25.1475  -21.6221  -15.7920 N   0  0  0  0  0  0  0  0  0  0  0  0
   23.3854  -21.1637  -14.2737 C   0  0  0  0  0  0  0  0  0  0  0  0
   22.2063  -20.8551  -13.9289 O   0  0  0  0  0  0  0  0  0  0  0  0
   24.2390  -21.6139  -13.2291 N   0  0  0  0  0  0  0  0  0  0  0  0
   23.7839  -21.6484  -11.8219 C   0  0  1  0  0  0  0  0  0  0  0  0
   24.8187  -22.2680  -10.9547 C   0  0  0  0  0  0  0  0  0  0  0  0
   25.8155  -21.3087  -10.4728 C   0  0  0  0  0  0  0  0  0  0  0  0
   25.5428  -20.3481   -9.4820 C   0  0  0  0  0  0  0  0  0  0  0  0
   26.6533  -19.6612   -9.2318 N   0  0  0  0  0  0  0  0  0  0  0  0
   27.6757  -20.0832   -9.9853 C   0  0  0  0  0  0  0  0  0  0  0  0
   28.9926  -19.6786  -10.0851 C   0  0  0  0  0  0  0  0  0  0  0  0
   29.8313  -20.3043  -10.9810 C   0  0  0  0  0  0  0  0  0  0  0  0
   29.3121  -21.3217  -11.7507 C   0  0  0  0  0  0  0  0  0  0  0  0
   27.9864  -21.7287  -11.6496 C   0  0  0  0  0  0  0  0  0  0  0  0
   27.1475  -21.1118  -10.7596 C   0  0  0  0  0  0  0  0  0  0  0  0
   23.3768  -20.3065  -11.4107 C   0  0  0  0  0  0  0  0  0  0  0  0
   23.8250  -19.3047  -12.0106 O   0  0  0  0  0  0  0  0  0  0  0  0
   22.4921  -20.0493  -10.3590 O   0  0  0  0  0  0  0  0  0  0  0  0
  2  1  1  6
  2  3  1  0
  3  4  1  0
  4  5  2  0
  4  8  1  0
  6  2  1  0
  7  6  2  0
  9 10  1  0
 10 11  2  0
 12 10  1  0
 13 12  1  6
 13 14  1  0
 14  6  1  0
 15 13  1  0
 15 17  1  0
 16 15  2  0
 18 19  1  1
 18 29  1  0
 18 17  1  0
 20 19  1  0
 20 21  2  0
 22 21  1  0
 23 28  2  0
 23 22  1  0
 24 23  1  0
 25 26  1  0
 25 24  2  0
 26 27  2  0
 27 28  1  0
 28 20  1  0
 29 31  1  0
 30 29  2  0
M  END
$$$$
