DNW.pdb
     RDKit          3D

 31 32  0  0  1  0  0  0  0  0999 V2000
   30.1102  -26.4455  -18.1204 N   0  0  0  0  0  0  0  0  0  0  0  0
   30.1036  -25.2106  -17.3727 C   0  0  1  0  0  0  0  0  0  0  0  0
   31.3144  -24.3434  -17.6228 C   0  0  0  0  0  0  0  0  0  0  0  0
   32.5819  -24.9692  -17.1937 C   0  0  0  0  0  0  0  0  0  0  0  0
   32.5266  -26.1450  -16.7505 O   0  0  0  0  0  0  0  0  0  0  0  0
   28.8193  -24.5089  -17.6163 C   0  0  0  0  0  0  0  0  0  0  0  0
   28.5663  -24.0262  -18.7700 O   0  0  0  0  0  0  0  0  0  0  0  0
   33.8003  -24.3427  -17.2523 O   0  0  0  0  0  0  0  0  0  0  0  0
   27.0317  -26.3756  -16.9788 N   0  0  0  0  0  0  0  0  0  0  0  0
   25.7803  -25.7800  -17.2678 C   0  0  0  0  0  0  0  0  0  0  0  0
   24.8483  -26.6301  -17.5051 O   0  0  0  0  0  0  0  0  0  0  0  0
   25.4920  -24.3366  -17.3098 C   0  0  0  0  0  0  0  0  0  0  0  0
   26.6475  -23.5481  -16.7814 C   0  0  2  0  0  0  0  0  0  0  0  0
   27.8484  -24.3580  -16.5784 N   0  0  0  0  0  0  0  0  0  0  0  0
   26.3508  -22.8688  -15.5014 C   0  0  0  0  0  0  0  0  0  0  0  0
   26.9938  -23.1695  -14.4522 O   0  0  0  0  0  0  0  0  0  0  0  0
   25.3579  -21.8616  -15.3526 N   0  0  0  0  0  0  0  0  0  0  0  0
   25.1297  -21.1890  -14.0549 C   0  0  1  0  0  0  0  0  0  0  0  0
   26.2356  -20.2431  -13.7568 C   0  0  0  0  0  0  0  0  0  0  0  0
   26.3338  -19.1488  -14.7256 C   0  0  0  0  0  0  0  0  0  0  0  0
   25.3534  -18.1488  -14.8589 C   0  0  0  0  0  0  0  0  0  0  0  0
   25.7484  -17.2799  -15.7845 N   0  0  0  0  0  0  0  0  0  0  0  0
   26.9372  -17.6140  -16.3005 C   0  0  0  0  0  0  0  0  0  0  0  0
   27.7291  -17.0366  -17.2739 C   0  0  0  0  0  0  0  0  0  0  0  0
   28.9263  -17.6260  -17.6161 C   0  0  0  0  0  0  0  0  0  0  0  0
   29.2870  -18.7837  -16.9628 C   0  0  0  0  0  0  0  0  0  0  0  0
   28.4895  -19.3642  -15.9828 C   0  0  0  0  0  0  0  0  0  0  0  0
   27.2987  -18.7824  -15.6368 C   0  0  0  0  0  0  0  0  0  0  0  0
   23.7998  -20.5832  -14.0498 C   0  0  0  0  0  0  0  0  0  0  0  0
   23.1356  -20.5219  -15.1076 O   0  0  0  0  0  0  0  0  0  0  0  0
   23.1928  -20.0475  -12.9099 O   0  0  0  0  0  0  0  0  0  0  0  0
  2  1  1  6
  2  3  1  0
  3  4  1  0
  4  5  2  0
  4  8  1  0
  6  2  1  0
  7  6  2  0
  9 10  1  0
 10 11  2  0
 12 10  1  0
 13 12  1  1
 13 14  1  0
 14  6  1  0
 15 13  1  0
 15 17  1  0
 16 15  2  0
 18 19  1  6
 18 29  1  0
 18 17  1  0
 20 19  1  0
 20 21  2  0
 22 21  1  0
 23 28  2  0
 23 22  1  0
 24 23  1  0
 25 26  1  0
 25 24  2  0
 26 27  2  0
 27 28  1  0
 28 20  1  0
 29 31  1  0
 30 29  2  0
M  END
$$$$
