DNW.pdb
     RDKit          3D

 31 32  0  0  1  0  0  0  0  0999 V2000
   28.1004  -22.2941  -18.1964 N   0  0  0  0  0  0  0  0  0  0  0  0
   27.6173  -20.9381  -18.0872 C   0  0  1  0  0  0  0  0  0  0  0  0
   27.9017  -20.0927  -19.3058 C   0  0  0  0  0  0  0  0  0  0  0  0
   29.3206  -20.1149  -19.7162 C   0  0  0  0  0  0  0  0  0  0  0  0
   30.1813  -20.2927  -18.8163 O   0  0  0  0  0  0  0  0  0  0  0  0
   26.1811  -20.9686  -17.7166 C   0  0  0  0  0  0  0  0  0  0  0  0
   25.5405  -19.8762  -17.5604 O   0  0  0  0  0  0  0  0  0  0  0  0
   29.7431  -19.9533  -21.0107 O   0  0  0  0  0  0  0  0  0  0  0  0
   23.9112  -23.2254  -20.4943 N   0  0  0  0  0  0  0  0  0  0  0  0
   23.3898  -22.4757  -19.4125 C   0  0  0  0  0  0  0  0  0  0  0  0
   23.0732  -21.2718  -19.7259 O   0  0  0  0  0  0  0  0  0  0  0  0
   23.1952  -22.9558  -18.0341 C   0  0  0  0  0  0  0  0  0  0  0  0
   24.0960  -22.2303  -17.0864 C   0  0  2  0  0  0  0  0  0  0  0  0
   25.4904  -22.2054  -17.5271 N   0  0  0  0  0  0  0  0  0  0  0  0
   24.0748  -22.7928  -15.7185 C   0  0  0  0  0  0  0  0  0  0  0  0
   24.3526  -24.0132  -15.5230 O   0  0  0  0  0  0  0  0  0  0  0  0
   23.7534  -22.0366  -14.5577 N   0  0  0  0  0  0  0  0  0  0  0  0
   23.5597  -22.6865  -13.2428 C   0  0  1  0  0  0  0  0  0  0  0  0
   24.7732  -22.5299  -12.4005 C   0  0  0  0  0  0  0  0  0  0  0  0
   25.2386  -21.1437  -12.3137 C   0  0  0  0  0  0  0  0  0  0  0  0
   24.8008  -20.2456  -11.3234 C   0  0  0  0  0  0  0  0  0  0  0  0
   25.4336  -19.0872  -11.4831 N   0  0  0  0  0  0  0  0  0  0  0  0
   26.2796  -19.1252  -12.5195 C   0  0  0  0  0  0  0  0  0  0  0  0
   27.1286  -18.1837  -13.0679 C   0  0  0  0  0  0  0  0  0  0  0  0
   27.8878  -18.5109  -14.1698 C   0  0  0  0  0  0  0  0  0  0  0  0
   27.7650  -19.7823  -14.6852 C   0  0  0  0  0  0  0  0  0  0  0  0
   26.9103  -20.7296  -14.1325 C   0  0  0  0  0  0  0  0  0  0  0  0
   26.1538  -20.4113  -13.0358 C   0  0  0  0  0  0  0  0  0  0  0  0
   22.3313  -22.1851  -12.6303 C   0  0  0  0  0  0  0  0  0  0  0  0
   21.7907  -21.1467  -13.0703 O   0  0  0  0  0  0  0  0  0  0  0  0
   21.6923  -22.8013  -11.5502 O   0  0  0  0  0  0  0  0  0  0  0  0
  2  1  1  6
  2  3  1  0
  3  4  1  0
  4  5  2  0
  4  8  1  0
  6  2  1  0
  7  6  2  0
  9 10  1  0
 10 11  2  0
 12 10  1  0
 13 12  1  6
 13 14  1  0
 14  6  1  0
 15 13  1  0
 15 17  1  0
 16 15  2  0
 18 19  1  1
 18 29  1  0
 18 17  1  0
 20 19  1  0
 20 21  2  0
 22 21  1  0
 23 28  2  0
 23 22  1  0
 24 23  1  0
 25 26  1  0
 25 24  2  0
 26 27  2  0
 27 28  1  0
 28 20  1  0
 29 31  1  0
 30 29  2  0
M  END
$$$$
