DNW.pdb
     RDKit          3D

 31 32  0  0  1  0  0  0  0  0999 V2000
   27.4393  -17.2375  -15.0249 N   0  0  0  0  0  0  0  0  0  0  0  0
   26.4409  -17.5535  -16.0186 C   0  0  1  0  0  0  0  0  0  0  0  0
   26.6441  -16.8368  -17.3322 C   0  0  0  0  0  0  0  0  0  0  0  0
   26.6687  -15.3658  -17.1994 C   0  0  0  0  0  0  0  0  0  0  0  0
   26.5126  -14.6868  -18.2467 O   0  0  0  0  0  0  0  0  0  0  0  0
   26.3560  -19.0277  -16.1617 C   0  0  0  0  0  0  0  0  0  0  0  0
   25.6436  -19.5374  -17.0896 O   0  0  0  0  0  0  0  0  0  0  0  0
   26.8511  -14.7100  -16.0091 O   0  0  0  0  0  0  0  0  0  0  0  0
   28.6102  -21.4417  -17.7451 N   0  0  0  0  0  0  0  0  0  0  0  0
   29.0477  -21.9978  -16.5188 C   0  0  0  0  0  0  0  0  0  0  0  0
   30.2314  -22.4916  -16.5710 O   0  0  0  0  0  0  0  0  0  0  0  0
   28.2830  -22.0432  -15.2613 C   0  0  0  0  0  0  0  0  0  0  0  0
   26.9653  -21.3533  -15.4154 C   0  0  2  0  0  0  0  0  0  0  0  0
   27.0596  -19.9005  -15.2752 N   0  0  0  0  0  0  0  0  0  0  0  0
   25.9462  -21.8250  -14.4525 C   0  0  0  0  0  0  0  0  0  0  0  0
   25.5581  -23.0307  -14.4694 O   0  0  0  0  0  0  0  0  0  0  0  0
   25.3444  -20.9938  -13.4679 N   0  0  0  0  0  0  0  0  0  0  0  0
   24.3407  -21.5243  -12.5193 C   0  0  1  0  0  0  0  0  0  0  0  0
   25.0063  -22.2630  -11.4158 C   0  0  0  0  0  0  0  0  0  0  0  0
   25.8109  -21.3995  -10.5483 C   0  0  0  0  0  0  0  0  0  0  0  0
   25.2497  -20.4784   -9.6452 C   0  0  0  0  0  0  0  0  0  0  0  0
   26.2304  -19.8810   -8.9750 N   0  0  0  0  0  0  0  0  0  0  0  0
   27.4330  -20.3280   -9.3562 C   0  0  0  0  0  0  0  0  0  0  0  0
   28.7174  -20.0064   -8.9626 C   0  0  0  0  0  0  0  0  0  0  0  0
   29.7893  -20.6364   -9.5557 C   0  0  0  0  0  0  0  0  0  0  0  0
   29.5297  -21.5737  -10.5309 C   0  0  0  0  0  0  0  0  0  0  0  0
   28.2365  -21.8972  -10.9265 C   0  0  0  0  0  0  0  0  0  0  0  0
   27.1661  -21.2757  -10.3396 C   0  0  0  0  0  0  0  0  0  0  0  0
   23.4686  -20.4378  -12.0781 C   0  0  0  0  0  0  0  0  0  0  0  0
   23.7878  -19.2492  -12.2999 O   0  0  0  0  0  0  0  0  0  0  0  0
   22.2606  -20.6349  -11.4022 O   0  0  0  0  0  0  0  0  0  0  0  0
  2  1  1  1
  2  3  1  0
  3  4  1  0
  4  5  2  0
  4  8  1  0
  6  2  1  0
  7  6  2  0
  9 10  1  0
 10 11  2  0
 12 10  1  0
 13 12  1  1
 13 14  1  0
 14  6  1  0
 15 13  1  0
 15 17  1  0
 16 15  2  0
 18 19  1  1
 18 29  1  0
 18 17  1  0
 20 19  1  0
 20 21  2  0
 22 21  1  0
 23 28  2  0
 23 22  1  0
 24 23  1  0
 25 26  1  0
 25 24  2  0
 26 27  2  0
 27 28  1  0
 28 20  1  0
 29 31  1  0
 30 29  2  0
M  END
$$$$
