ARV.pdb
     RDKit          3D

 24 23  0  0  1  0  0  0  0  0999 V2000
    8.2754  -12.1213   19.4415 C   0  0  0  0  0  0  0  0  0  0  0  0
    8.3847  -13.6027   19.2176 C   0  0  2  0  0  0  0  0  0  0  0  0
    7.7529  -13.9355   17.9799 N   0  0  0  0  0  0  0  0  0  0  0  0
    7.6994  -14.2668   20.3780 C   0  0  0  0  0  0  0  0  0  0  0  0
    6.4745  -14.4469   20.4161 O   0  0  0  0  0  0  0  0  0  0  0  0
    9.2651  -20.8299   19.1953 N   0  0  0  0  0  0  0  0  0  0  0  0
    9.6841  -20.6091   20.5550 C   0  0  0  0  0  0  0  0  0  0  0  0
   10.1381  -21.5892   21.2808 N   0  0  0  0  0  0  0  0  0  0  0  0
    9.6187  -19.3243   21.1518 N   0  0  0  0  0  0  0  0  0  0  0  0
    8.6663  -18.3494   20.6686 C   0  0  0  0  0  0  0  0  0  0  0  0
    7.8456  -17.7652   21.7941 C   0  0  0  0  0  0  0  0  0  0  0  0
    8.6688  -16.7750   22.5998 C   0  0  0  0  0  0  0  0  0  0  0  0
    7.9838  -15.4043   22.6078 C   0  0  2  0  0  0  0  0  0  0  0  0
    8.4941  -14.6954   21.4557 N   0  0  0  0  0  0  0  0  0  0  0  0
    8.3210  -14.6487   23.8256 C   0  0  0  0  0  0  0  0  0  0  0  0
    9.5056  -14.1647   23.9235 O   0  0  0  0  0  0  0  0  0  0  0  0
   10.3982  -21.3821   22.2663 C   0  0  0  0  0  0  0  0  0  0  0  0
    7.0820  -11.9293   27.7103 C   0  0  2  0  0  0  0  0  0  0  0  0
    6.6832  -12.8051   26.5919 C   0  0  0  0  0  0  0  0  0  0  0  0
    6.0946  -11.9568   25.4720 C   0  0  1  0  0  0  0  0  0  0  0  0
    7.7621  -13.6409   25.9904 N   0  0  0  0  0  0  0  0  0  0  0  0
    7.3991  -14.4346   24.8867 C   0  0  0  0  0  0  0  0  0  0  0  0
    8.4043  -14.4838   27.0322 O   0  0  0  0  0  0  0  0  0  0  0  0
    9.4603  -13.9706   27.7578 O   0  0  0  0  0  0  0  0  0  0  0  0
  2  1  1  1
  2  3  1  0
  4  5  2  0
  4  2  1  0
  6  7  1  0
  7  9  1  0
  8  7  2  0
  9 10  1  0
 10 11  1  0
 11 12  1  0
 13 12  1  1
 13 14  1  0
 14  4  1  0
 15 21  1  0
 15 13  1  0
 16 15  2  0
 18 20  1  0
 18 17  1  1
 19 18  1  0
 20 22  1  0
 20 21  1  1
 22 23  1  0
 24 22  2  0
M  END
$$$$
