ARV.pdb
     RDKit          3D

 24 23  0  0  1  0  0  0  0  0999 V2000
   12.8708  -19.0054   22.9250 C   0  0  0  0  0  0  0  0  0  0  0  0
   12.5730  -17.9102   21.9410 C   0  0  2  0  0  0  0  0  0  0  0  0
   13.7759  -17.5607   21.2535 N   0  0  0  0  0  0  0  0  0  0  0  0
   12.0388  -16.7509   22.7333 C   0  0  0  0  0  0  0  0  0  0  0  0
   12.7741  -15.8903   23.2361 O   0  0  0  0  0  0  0  0  0  0  0  0
    8.0998  -15.4852   18.9748 N   0  0  0  0  0  0  0  0  0  0  0  0
    7.5311  -14.1696   19.1125 C   0  0  0  0  0  0  0  0  0  0  0  0
    7.5551  -13.3254   18.1225 N   0  0  0  0  0  0  0  0  0  0  0  0
    6.9271  -13.7459   20.3236 N   0  0  0  0  0  0  0  0  0  0  0  0
    7.0305  -14.5664   21.5099 C   0  0  0  0  0  0  0  0  0  0  0  0
    8.4518  -14.6395   22.0159 C   0  0  0  0  0  0  0  0  0  0  0  0
    8.5482  -15.5729   23.2104 C   0  0  0  0  0  0  0  0  0  0  0  0
    9.9959  -15.6443   23.7075 C   0  0  2  0  0  0  0  0  0  0  0  0
   10.6464  -16.6530   22.9016 N   0  0  0  0  0  0  0  0  0  0  0  0
   10.0530  -16.0484   25.1221 C   0  0  0  0  0  0  0  0  0  0  0  0
   10.2944  -17.2811   25.3854 O   0  0  0  0  0  0  0  0  0  0  0  0
    7.1560  -12.3785   18.2836 C   0  0  0  0  0  0  0  0  0  0  0  0
   10.5338  -14.8545   29.9044 C   0  0  2  0  0  0  0  0  0  0  0  0
   10.0259  -14.4879   28.5686 C   0  0  0  0  0  0  0  0  0  0  0  0
   10.8070  -13.2904   28.0430 C   0  0  1  0  0  0  0  0  0  0  0  0
   10.0913  -15.5494   27.5229 N   0  0  0  0  0  0  0  0  0  0  0  0
    9.8540  -15.1401   26.1978 C   0  0  0  0  0  0  0  0  0  0  0  0
    9.1900  -16.6774   27.8746 O   0  0  0  0  0  0  0  0  0  0  0  0
    9.6572  -17.6819   28.6976 O   0  0  0  0  0  0  0  0  0  0  0  0
  2  1  1  1
  2  3  1  0
  4  5  2  0
  4  2  1  0
  6  7  1  0
  7  9  1  0
  8  7  2  0
  9 10  1  0
 10 11  1  0
 11 12  1  0
 13 12  1  6
 13 14  1  0
 14  4  1  0
 15 21  1  0
 15 13  1  0
 16 15  2  0
 18 20  1  0
 18 17  1  1
 19 18  1  0
 20 22  1  0
 20 21  1  1
 22 23  1  0
 24 22  2  0
M  END
$$$$
