ARV.pdb
     RDKit          3D

 24 23  0  0  1  0  0  0  0  0999 V2000
    5.4497  -18.1759   23.9647 C   0  0  0  0  0  0  0  0  0  0  0  0
    6.0951  -18.0580   22.6134 C   0  0  2  0  0  0  0  0  0  0  0  0
    6.5998  -19.3369   22.2241 N   0  0  0  0  0  0  0  0  0  0  0  0
    7.2020  -17.0513   22.7496 C   0  0  0  0  0  0  0  0  0  0  0  0
    8.3280  -17.3496   23.1706 O   0  0  0  0  0  0  0  0  0  0  0  0
   10.1620  -14.0120   18.2887 N   0  0  0  0  0  0  0  0  0  0  0  0
    9.0237  -14.0405   17.4076 C   0  0  0  0  0  0  0  0  0  0  0  0
    9.1186  -14.5432   16.2110 N   0  0  0  0  0  0  0  0  0  0  0  0
    7.7639  -13.5256   17.8065 N   0  0  0  0  0  0  0  0  0  0  0  0
    7.5835  -13.0112   19.1459 C   0  0  0  0  0  0  0  0  0  0  0  0
    7.8399  -14.0717   20.1905 C   0  0  0  0  0  0  0  0  0  0  0  0
    7.4957  -13.5533   21.5762 C   0  0  0  0  0  0  0  0  0  0  0  0
    7.8266  -14.6134   22.6321 C   0  0  2  0  0  0  0  0  0  0  0  0
    6.9330  -15.7216   22.3802 N   0  0  0  0  0  0  0  0  0  0  0  0
    7.5873  -14.1022   23.9918 C   0  0  0  0  0  0  0  0  0  0  0  0
    6.7528  -13.1373   24.1326 O   0  0  0  0  0  0  0  0  0  0  0  0
    8.2590  -14.5667   15.6259 C   0  0  0  0  0  0  0  0  0  0  0  0
    6.9099  -11.9243   26.0103 C   0  0  2  0  0  0  0  0  0  0  0  0
    7.5248  -12.9812   26.8359 C   0  0  0  0  0  0  0  0  0  0  0  0
    6.4509  -13.9698   27.2716 C   0  0  2  0  0  0  0  0  0  0  0  0
    8.6152  -13.7706   26.1936 N   0  0  0  0  0  0  0  0  0  0  0  0
    8.2350  -14.6268   25.1439 C   0  0  0  0  0  0  0  0  0  0  0  0
    9.3752  -14.5315   27.2192 O   0  0  0  0  0  0  0  0  0  0  0  0
   10.0331  -13.8436   28.2185 O   0  0  0  0  0  0  0  0  0  0  0  0
  2  1  1  1
  2  3  1  0
  4  5  2  0
  4  2  1  0
  6  7  1  0
  7  9  1  0
  8  7  2  0
  9 10  1  0
 10 11  1  0
 11 12  1  0
 13 12  1  6
 13 14  1  0
 14  4  1  0
 15 21  1  0
 15 13  1  0
 16 15  2  0
 18 20  1  0
 18 17  1  1
 19 18  1  0
 20 22  1  0
 20 21  1  1
 22 23  1  0
 24 22  2  0
M  END
$$$$
