ARV.pdb
     RDKit          3D

 24 23  0  0  1  0  0  0  0  0999 V2000
    7.3401  -13.0456   18.9673 C   0  0  0  0  0  0  0  0  0  0  0  0
    8.3922  -13.7107   19.8083 C   0  0  2  0  0  0  0  0  0  0  0  0
    8.8366  -14.8972   19.1476 N   0  0  0  0  0  0  0  0  0  0  0  0
    7.7524  -14.0273   21.1302 C   0  0  0  0  0  0  0  0  0  0  0  0
    7.2092  -13.1641   21.8331 O   0  0  0  0  0  0  0  0  0  0  0  0
    8.7944  -19.5250   26.5626 N   0  0  0  0  0  0  0  0  0  0  0  0
    7.4425  -20.0192   26.5979 C   0  0  0  0  0  0  0  0  0  0  0  0
    6.9528  -20.5461   27.6823 N   0  0  0  0  0  0  0  0  0  0  0  0
    6.5982  -19.9514   25.4604 N   0  0  0  0  0  0  0  0  0  0  0  0
    7.0943  -19.3912   24.2231 C   0  0  0  0  0  0  0  0  0  0  0  0
    6.9376  -17.8893   24.1877 C   0  0  0  0  0  0  0  0  0  0  0  0
    7.4237  -17.3307   22.8615 C   0  0  0  0  0  0  0  0  0  0  0  0
    7.1734  -15.8200   22.8029 C   0  0  2  0  0  0  0  0  0  0  0  0
    7.7795  -15.3615   21.5731 N   0  0  0  0  0  0  0  0  0  0  0  0
    7.8093  -15.1315   23.9383 C   0  0  0  0  0  0  0  0  0  0  0  0
    9.0892  -15.0361   23.9426 O   0  0  0  0  0  0  0  0  0  0  0  0
    6.0362  -21.0329   27.6132 C   0  0  0  0  0  0  0  0  0  0  0  0
    7.3728  -11.5569   27.2908 C   0  0  1  0  0  0  0  0  0  0  0  0
    6.7427  -12.6044   26.4646 C   0  0  0  0  0  0  0  0  0  0  0  0
    5.9684  -11.9517   25.3267 C   0  0  1  0  0  0  0  0  0  0  0  0
    7.6633  -13.6058   25.8528 N   0  0  0  0  0  0  0  0  0  0  0  0
    7.0730  -14.5734   25.0192 C   0  0  0  0  0  0  0  0  0  0  0  0
    8.4765  -14.2701   26.9044 O   0  0  0  0  0  0  0  0  0  0  0  0
    8.4138  -15.6422   27.0385 O   0  0  0  0  0  0  0  0  0  0  0  0
  2  1  1  6
  2  3  1  0
  4  5  2  0
  4  2  1  0
  6  7  1  0
  7  9  1  0
  8  7  2  0
  9 10  1  0
 10 11  1  0
 11 12  1  0
 13 12  1  1
 13 14  1  0
 14  4  1  0
 15 21  1  0
 15 13  1  0
 16 15  2  0
 18 20  1  0
 18 17  1  1
 19 18  1  0
 20 22  1  0
 20 21  1  1
 22 23  1  0
 24 22  2  0
M  END
$$$$
