ARV.pdb
     RDKit          3D

 24 23  0  0  1  0  0  0  0  0999 V2000
    7.2673  -13.0591   18.8899 C   0  0  0  0  0  0  0  0  0  0  0  0
    8.3874  -13.5557   19.7590 C   0  0  2  0  0  0  0  0  0  0  0  0
    9.0166  -14.6679   19.1194 N   0  0  0  0  0  0  0  0  0  0  0  0
    7.7725  -13.9546   21.0705 C   0  0  0  0  0  0  0  0  0  0  0  0
    7.0886  -13.1780   21.7511 O   0  0  0  0  0  0  0  0  0  0  0  0
    4.6199  -20.2517   22.7361 N   0  0  0  0  0  0  0  0  0  0  0  0
    5.0893  -20.5643   21.4113 C   0  0  0  0  0  0  0  0  0  0  0  0
    4.2886  -21.0788   20.5238 N   0  0  0  0  0  0  0  0  0  0  0  0
    6.4327  -20.3253   21.0248 N   0  0  0  0  0  0  0  0  0  0  0  0
    7.3017  -19.5415   21.8743 C   0  0  0  0  0  0  0  0  0  0  0  0
    6.8450  -18.1047   21.9663 C   0  0  0  0  0  0  0  0  0  0  0  0
    7.8260  -17.2817   22.7833 C   0  0  0  0  0  0  0  0  0  0  0  0
    7.4289  -15.8020   22.7486 C   0  0  2  0  0  0  0  0  0  0  0  0
    7.9915  -15.2654   21.5297 N   0  0  0  0  0  0  0  0  0  0  0  0
    7.9900  -15.0739   23.8986 C   0  0  0  0  0  0  0  0  0  0  0  0
    9.2462  -14.8110   23.8883 O   0  0  0  0  0  0  0  0  0  0  0  0
    4.6763  -21.2790   19.5797 C   0  0  0  0  0  0  0  0  0  0  0  0
    7.5276  -12.0670   27.7573 C   0  0  2  0  0  0  0  0  0  0  0  0
    6.8982  -12.9090   26.7220 C   0  0  0  0  0  0  0  0  0  0  0  0
    6.2968  -12.0172   25.6434 C   0  0  1  0  0  0  0  0  0  0  0  0
    7.7891  -13.8892   26.0364 N   0  0  0  0  0  0  0  0  0  0  0  0
    7.2071  -14.6539   25.0088 C   0  0  0  0  0  0  0  0  0  0  0  0
    8.4350  -14.7843   27.0314 O   0  0  0  0  0  0  0  0  0  0  0  0
    9.3975  -14.2697   27.8762 O   0  0  0  0  0  0  0  0  0  0  0  0
  2  1  1  6
  2  3  1  0
  4  5  2  0
  4  2  1  0
  6  7  1  0
  7  9  1  0
  8  7  2  0
  9 10  1  0
 10 11  1  0
 11 12  1  0
 13 12  1  1
 13 14  1  0
 14  4  1  0
 15 21  1  0
 15 13  1  0
 16 15  2  0
 18 20  1  0
 18 17  1  1
 19 18  1  0
 20 22  1  0
 20 21  1  1
 22 23  1  0
 24 22  2  0
M  END
$$$$
