ARV.pdb
     RDKit          3D

 24 23  0  0  1  0  0  0  0  0999 V2000
   14.2120  -19.0084   22.8364 C   0  0  0  0  0  0  0  0  0  0  0  0
   13.4812  -18.1894   21.8109 C   0  0  2  0  0  0  0  0  0  0  0  0
   14.4185  -17.7018   20.8487 N   0  0  0  0  0  0  0  0  0  0  0  0
   12.8192  -17.0615   22.5504 C   0  0  0  0  0  0  0  0  0  0  0  0
   13.3634  -15.9612   22.7162 O   0  0  0  0  0  0  0  0  0  0  0  0
    7.9701  -14.4109   19.6016 N   0  0  0  0  0  0  0  0  0  0  0  0
    7.4738  -13.5203   20.6182 C   0  0  0  0  0  0  0  0  0  0  0  0
    7.6503  -12.2345   20.5230 N   0  0  0  0  0  0  0  0  0  0  0  0
    6.7783  -14.0061   21.7547 N   0  0  0  0  0  0  0  0  0  0  0  0
    7.1542  -15.2705   22.3474 C   0  0  0  0  0  0  0  0  0  0  0  0
    8.4558  -15.1661   23.1067 C   0  0  0  0  0  0  0  0  0  0  0  0
    9.3651  -16.3368   22.7751 C   0  0  0  0  0  0  0  0  0  0  0  0
   10.6706  -16.2313   23.5707 C   0  0  2  0  0  0  0  0  0  0  0  0
   11.5306  -17.2795   23.0688 N   0  0  0  0  0  0  0  0  0  0  0  0
   10.4362  -16.4484   25.0078 C   0  0  0  0  0  0  0  0  0  0  0  0
   10.4381  -17.6565   25.4410 O   0  0  0  0  0  0  0  0  0  0  0  0
    7.2392  -11.6328   21.2651 C   0  0  0  0  0  0  0  0  0  0  0  0
   10.1966  -14.6643   29.6402 C   0  0  1  0  0  0  0  0  0  0  0  0
    9.9394  -14.4735   28.1999 C   0  0  0  0  0  0  0  0  0  0  0  0
   10.7397  -13.2784   27.6985 C   0  0  1  0  0  0  0  0  0  0  0  0
   10.2670  -15.6263   27.3121 N   0  0  0  0  0  0  0  0  0  0  0  0
   10.2103  -15.3871   25.9268 C   0  0  0  0  0  0  0  0  0  0  0  0
    9.4256  -16.8011   27.6591 O   0  0  0  0  0  0  0  0  0  0  0  0
    9.9011  -17.7264   28.5659 O   0  0  0  0  0  0  0  0  0  0  0  0
  2  1  1  1
  2  3  1  0
  4  5  2  0
  4  2  1  0
  6  7  1  0
  7  9  1  0
  8  7  2  0
  9 10  1  0
 10 11  1  0
 11 12  1  0
 13 12  1  6
 13 14  1  0
 14  4  1  0
 15 21  1  0
 15 13  1  0
 16 15  2  0
 18 20  1  0
 18 17  1  1
 19 18  1  0
 20 22  1  0
 20 21  1  6
 22 23  1  0
 24 22  2  0
M  END
$$$$
