ARV.pdb
     RDKit          3D

 24 23  0  0  1  0  0  0  0  0999 V2000
    9.9661  -20.8485   18.1620 C   0  0  0  0  0  0  0  0  0  0  0  0
   10.1015  -19.4036   17.7742 C   0  0  2  0  0  0  0  0  0  0  0  0
   11.1014  -19.2842   16.7604 N   0  0  0  0  0  0  0  0  0  0  0  0
   10.4915  -18.6570   19.0183 C   0  0  0  0  0  0  0  0  0  0  0  0
   11.6463  -18.6626   19.4661 O   0  0  0  0  0  0  0  0  0  0  0  0
    9.0175  -12.3259   19.0077 N   0  0  0  0  0  0  0  0  0  0  0  0
    7.9853  -13.1841   18.4870 C   0  0  0  0  0  0  0  0  0  0  0  0
    7.7917  -13.2927   17.2047 N   0  0  0  0  0  0  0  0  0  0  0  0
    7.1455  -13.9390   19.3450 N   0  0  0  0  0  0  0  0  0  0  0  0
    7.4813  -14.0819   20.7442 C   0  0  0  0  0  0  0  0  0  0  0  0
    8.7562  -14.8692   20.9348 C   0  0  0  0  0  0  0  0  0  0  0  0
    8.4512  -16.3446   21.1283 C   0  0  0  0  0  0  0  0  0  0  0  0
    9.7177  -17.1778   20.9052 C   0  0  2  0  0  0  0  0  0  0  0  0
    9.4943  -17.9277   19.6894 N   0  0  0  0  0  0  0  0  0  0  0  0
    9.9382  -18.1180   22.0164 C   0  0  0  0  0  0  0  0  0  0  0  0
    8.9627  -18.8762   22.3643 O   0  0  0  0  0  0  0  0  0  0  0  0
    7.0460  -13.9413   16.8805 C   0  0  0  0  0  0  0  0  0  0  0  0
   12.5031  -20.9836   22.4702 C   0  0  2  0  0  0  0  0  0  0  0  0
   12.4887  -20.0870   23.6418 C   0  0  0  0  0  0  0  0  0  0  0  0
   13.7476  -19.2294   23.6363 C   0  0  2  0  0  0  0  0  0  0  0  0
   11.3252  -19.1600   23.7498 N   0  0  0  0  0  0  0  0  0  0  0  0
   11.1733  -18.2207   22.7134 C   0  0  0  0  0  0  0  0  0  0  0  0
   11.3366  -18.4676   25.0647 O   0  0  0  0  0  0  0  0  0  0  0  0
   11.4541  -17.0930   25.1015 O   0  0  0  0  0  0  0  0  0  0  0  0
  2  1  1  1
  2  3  1  0
  4  5  2  0
  4  2  1  0
  6  7  1  0
  7  9  1  0
  8  7  2  0
  9 10  1  0
 10 11  1  0
 11 12  1  0
 13 12  1  1
 13 14  1  0
 14  4  1  0
 15 21  1  0
 15 13  1  0
 16 15  2  0
 18 20  1  0
 18 17  1  1
 19 18  1  0
 20 22  1  0
 20 21  1  1
 22 23  1  0
 24 22  2  0
M  END
$$$$
