ARV.pdb
     RDKit          3D

 24 23  0  0  1  0  0  0  0  0999 V2000
   11.9828  -16.8995   20.0778 C   0  0  0  0  0  0  0  0  0  0  0  0
   11.3454  -17.2161   21.4007 C   0  0  2  0  0  0  0  0  0  0  0  0
   10.4685  -18.3330   21.2409 N   0  0  0  0  0  0  0  0  0  0  0  0
   10.5935  -15.9860   21.8235 C   0  0  0  0  0  0  0  0  0  0  0  0
   11.1395  -14.8822   21.9563 O   0  0  0  0  0  0  0  0  0  0  0  0
    9.5874  -14.5057   18.2687 N   0  0  0  0  0  0  0  0  0  0  0  0
    8.3973  -13.8142   17.8463 C   0  0  0  0  0  0  0  0  0  0  0  0
    8.1206  -13.6733   16.5825 N   0  0  0  0  0  0  0  0  0  0  0  0
    7.4870  -13.2637   18.7841 N   0  0  0  0  0  0  0  0  0  0  0  0
    7.5786  -13.6270   20.1808 C   0  0  0  0  0  0  0  0  0  0  0  0
    6.9746  -14.9860   20.4450 C   0  0  0  0  0  0  0  0  0  0  0  0
    6.9833  -15.2965   21.9319 C   0  0  0  0  0  0  0  0  0  0  0  0
    8.3720  -15.0225   22.5189 C   0  0  2  0  0  0  0  0  0  0  0  0
    9.2156  -16.1093   22.0748 N   0  0  0  0  0  0  0  0  0  0  0  0
    8.3346  -15.0134   23.9907 C   0  0  0  0  0  0  0  0  0  0  0  0
    8.7426  -16.0617   24.6085 O   0  0  0  0  0  0  0  0  0  0  0  0
    7.3119  -13.0708   16.3280 C   0  0  0  0  0  0  0  0  0  0  0  0
    7.7969  -11.5113   26.5598 C   0  0  2  0  0  0  0  0  0  0  0  0
    7.1794  -12.8191   26.8516 C   0  0  0  0  0  0  0  0  0  0  0  0
    5.7001  -12.7701   26.4918 C   0  0  2  0  0  0  0  0  0  0  0  0
    7.7645  -13.9973   26.1486 N   0  0  0  0  0  0  0  0  0  0  0  0
    7.8704  -13.9036   24.7488 C   0  0  0  0  0  0  0  0  0  0  0  0
    7.0332  -15.2364   26.5204 O   0  0  0  0  0  0  0  0  0  0  0  0
    7.3685  -15.8924   27.6874 O   0  0  0  0  0  0  0  0  0  0  0  0
  2  1  1  6
  2  3  1  0
  4  5  2  0
  4  2  1  0
  6  7  1  0
  7  9  1  0
  8  7  2  0
  9 10  1  0
 10 11  1  0
 11 12  1  0
 13 12  1  6
 13 14  1  0
 14  4  1  0
 15 21  1  0
 15 13  1  0
 16 15  2  0
 18 20  1  0
 18 17  1  1
 19 18  1  0
 20 22  1  0
 20 21  1  1
 22 23  1  0
 24 22  2  0
M  END
$$$$
