ARV.pdb
     RDKit          3D

 24 23  0  0  1  0  0  0  0  0999 V2000
    3.4529  -18.3227   20.9020 C   0  0  0  0  0  0  0  0  0  0  0  0
    4.4911  -17.2375   20.9333 C   0  0  2  0  0  0  0  0  0  0  0  0
    5.4264  -17.4556   19.8752 N   0  0  0  0  0  0  0  0  0  0  0  0
    5.1576  -17.3157   22.2775 C   0  0  0  0  0  0  0  0  0  0  0  0
    4.5277  -17.2343   23.3410 O   0  0  0  0  0  0  0  0  0  0  0  0
   12.5209  -20.6362   25.9324 N   0  0  0  0  0  0  0  0  0  0  0  0
   12.7597  -19.4661   25.1282 C   0  0  0  0  0  0  0  0  0  0  0  0
   13.8782  -18.8079   25.2234 N   0  0  0  0  0  0  0  0  0  0  0  0
   11.7922  -18.9888   24.2076 N   0  0  0  0  0  0  0  0  0  0  0  0
   10.5369  -19.6889   24.0489 C   0  0  0  0  0  0  0  0  0  0  0  0
    9.3591  -18.8084   24.3941 C   0  0  0  0  0  0  0  0  0  0  0  0
    8.5047  -18.5500   23.1651 C   0  0  0  0  0  0  0  0  0  0  0  0
    7.3191  -17.6494   23.5280 C   0  0  2  0  0  0  0  0  0  0  0  0
    6.5525  -17.4883   22.3128 N   0  0  0  0  0  0  0  0  0  0  0  0
    7.7765  -16.3274   23.9868 C   0  0  0  0  0  0  0  0  0  0  0  0
    8.5623  -15.6639   23.2190 O   0  0  0  0  0  0  0  0  0  0  0  0
   14.0162  -17.9932   24.5916 C   0  0  0  0  0  0  0  0  0  0  0  0
    7.4462  -12.2592   26.6687 C   0  0  2  0  0  0  0  0  0  0  0  0
    6.8995  -13.5066   26.1014 C   0  0  0  0  0  0  0  0  0  0  0  0
    6.0032  -13.1715   24.9162 C   0  0  1  0  0  0  0  0  0  0  0  0
    7.8968  -14.5101   25.6290 N   0  0  0  0  0  0  0  0  0  0  0  0
    7.3886  -15.7605   25.2317 C   0  0  0  0  0  0  0  0  0  0  0  0
    8.9642  -14.6960   26.6461 O   0  0  0  0  0  0  0  0  0  0  0  0
    8.9747  -15.8457   27.4096 O   0  0  0  0  0  0  0  0  0  0  0  0
  2  1  1  1
  2  3  1  0
  4  5  2  0
  4  2  1  0
  6  7  1  0
  7  9  1  0
  8  7  2  0
  9 10  1  0
 10 11  1  0
 11 12  1  0
 13 12  1  6
 13 14  1  0
 14  4  1  0
 15 21  1  0
 15 13  1  0
 16 15  2  0
 18 20  1  0
 18 17  1  1
 19 18  1  0
 20 22  1  0
 20 21  1  1
 22 23  1  0
 24 22  2  0
M  END
$$$$
