ARV.pdb
     RDKit          3D

 24 23  0  0  1  0  0  0  0  0999 V2000
   14.5505  -16.9826   21.4372 C   0  0  0  0  0  0  0  0  0  0  0  0
   13.5576  -17.7220   22.2881 C   0  0  2  0  0  0  0  0  0  0  0  0
   12.7300  -18.5274   21.4465 N   0  0  0  0  0  0  0  0  0  0  0  0
   12.7522  -16.6823   23.0145 C   0  0  0  0  0  0  0  0  0  0  0  0
   13.2697  -15.8283   23.7472 O   0  0  0  0  0  0  0  0  0  0  0  0
    7.8830  -12.9247   19.0397 N   0  0  0  0  0  0  0  0  0  0  0  0
    7.6315  -13.9605   20.0077 C   0  0  0  0  0  0  0  0  0  0  0  0
    7.9351  -15.1999   19.7527 N   0  0  0  0  0  0  0  0  0  0  0  0
    7.0473  -13.6723   21.2674 N   0  0  0  0  0  0  0  0  0  0  0  0
    6.9564  -14.7045   22.2761 C   0  0  0  0  0  0  0  0  0  0  0  0
    8.1890  -14.7427   23.1484 C   0  0  0  0  0  0  0  0  0  0  0  0
    9.1494  -15.8189   22.6721 C   0  0  0  0  0  0  0  0  0  0  0  0
   10.4573  -15.7468   23.4675 C   0  0  2  0  0  0  0  0  0  0  0  0
   11.3565  -16.6926   22.8453 N   0  0  0  0  0  0  0  0  0  0  0  0
   10.2474  -16.1351   24.8720 C   0  0  0  0  0  0  0  0  0  0  0  0
   10.3942  -17.3719   25.1816 O   0  0  0  0  0  0  0  0  0  0  0  0
    7.7781  -15.9016   20.5042 C   0  0  0  0  0  0  0  0  0  0  0  0
   10.1078  -14.7301   29.6314 C   0  0  2  0  0  0  0  0  0  0  0  0
    9.6617  -14.5104   28.2424 C   0  0  0  0  0  0  0  0  0  0  0  0
   10.1854  -13.1671   27.7508 C   0  0  1  0  0  0  0  0  0  0  0  0
   10.0791  -15.5373   27.2444 N   0  0  0  0  0  0  0  0  0  0  0  0
    9.8927  -15.2074   25.8894 C   0  0  0  0  0  0  0  0  0  0  0  0
    9.4314  -16.8411   27.5430 O   0  0  0  0  0  0  0  0  0  0  0  0
    8.4602  -17.3224   26.6887 O   0  0  0  0  0  0  0  0  0  0  0  0
  2  1  1  6
  2  3  1  0
  4  5  2  0
  4  2  1  0
  6  7  1  0
  7  9  1  0
  8  7  2  0
  9 10  1  0
 10 11  1  0
 11 12  1  0
 13 12  1  6
 13 14  1  0
 14  4  1  0
 15 21  1  0
 15 13  1  0
 16 15  2  0
 18 20  1  0
 18 17  1  1
 19 18  1  0
 20 22  1  0
 20 21  1  1
 22 23  1  0
 24 22  2  0
M  END
$$$$
