ARV.pdb
     RDKit          3D

 24 23  0  0  1  0  0  0  0  0999 V2000
    9.5618  -21.8634   16.7816 C   0  0  0  0  0  0  0  0  0  0  0  0
    9.1381  -21.8926   18.2225 C   0  0  2  0  0  0  0  0  0  0  0  0
    7.7261  -21.6862   18.2981 N   0  0  0  0  0  0  0  0  0  0  0  0
    9.8898  -20.7923   18.9163 C   0  0  0  0  0  0  0  0  0  0  0  0
   11.1271  -20.7510   18.9564 O   0  0  0  0  0  0  0  0  0  0  0  0
    7.9503  -12.9240   20.3242 N   0  0  0  0  0  0  0  0  0  0  0  0
    7.7677  -13.5238   19.0280 C   0  0  0  0  0  0  0  0  0  0  0  0
    6.9582  -12.9958   18.1566 N   0  0  0  0  0  0  0  0  0  0  0  0
    8.4579  -14.7047   18.6534 N   0  0  0  0  0  0  0  0  0  0  0  0
    9.5576  -15.1868   19.4592 C   0  0  0  0  0  0  0  0  0  0  0  0
    9.0928  -16.1715   20.5061 C   0  0  0  0  0  0  0  0  0  0  0  0
    8.6460  -17.4710   19.8589 C   0  0  0  0  0  0  0  0  0  0  0  0
    9.7152  -18.5513   20.0541 C   0  0  2  0  0  0  0  0  0  0  0  0
    9.1447  -19.7763   19.5403 N   0  0  0  0  0  0  0  0  0  0  0  0
   10.0355  -18.7308   21.4798 C   0  0  0  0  0  0  0  0  0  0  0  0
    9.1537  -19.2875   22.2280 O   0  0  0  0  0  0  0  0  0  0  0  0
    6.9384  -13.4080   17.2018 C   0  0  0  0  0  0  0  0  0  0  0  0
   13.7685  -19.7280   23.0003 C   0  0  2  0  0  0  0  0  0  0  0  0
   12.9892  -18.7394   23.7698 C   0  0  0  0  0  0  0  0  0  0  0  0
   13.6231  -17.3634   23.6114 C   0  0  2  0  0  0  0  0  0  0  0  0
   11.5492  -18.6052   23.4052 N   0  0  0  0  0  0  0  0  0  0  0  0
   11.2676  -18.3179   22.0569 C   0  0  0  0  0  0  0  0  0  0  0  0
   10.8838  -17.6100   24.2857 O   0  0  0  0  0  0  0  0  0  0  0  0
   10.6515  -17.9291   25.6082 O   0  0  0  0  0  0  0  0  0  0  0  0
  2  1  1  6
  2  3  1  0
  4  5  2  0
  4  2  1  0
  6  7  1  0
  7  9  1  0
  8  7  2  0
  9 10  1  0
 10 11  1  0
 11 12  1  0
 13 12  1  1
 13 14  1  0
 14  4  1  0
 15 21  1  0
 15 13  1  0
 16 15  2  0
 18 20  1  0
 18 17  1  1
 19 18  1  0
 20 22  1  0
 20 21  1  1
 22 23  1  0
 24 22  2  0
M  END
$$$$
