SNN.pdb
     RDKit          3D

 23 22  0  0  1  0  0  0  0  0999 V2000
   18.6506  -10.8356  -17.6377 O   0  0  0  0  0  0  0  0  0  0  0  0
   20.0419  -10.6068  -17.6625 C   0  0  0  0  0  0  0  0  0  0  0  0
   20.6538  -11.6372  -16.7665 C   0  0  2  0  0  0  0  0  0  0  0  0
   19.7408  -12.2536  -15.8501 N   0  0  0  0  0  0  0  0  0  0  0  0
   21.8469  -11.0868  -16.0199 C   0  0  0  0  0  0  0  0  0  0  0  0
   21.7378  -10.6298  -14.8589 O   0  0  0  0  0  0  0  0  0  0  0  0
   26.6220   -9.8980  -14.5120 N   0  0  0  0  0  0  0  0  0  0  0  0
   26.7644  -10.8283  -15.6043 C   0  0  0  0  0  0  0  0  0  0  0  0
   27.9120  -11.2606  -15.8397 O   0  0  0  0  0  0  0  0  0  0  0  0
   25.6144  -11.2660  -16.4182 C   0  0  0  0  0  0  0  0  0  0  0  0
   24.3124  -10.5898  -16.0597 C   0  0  2  0  0  0  0  0  0  0  0  0
   23.1230  -11.0820  -16.6309 N   0  0  0  0  0  0  0  0  0  0  0  0
   24.4238   -9.1212  -15.9325 C   0  0  0  0  0  0  0  0  0  0  0  0
   25.5039   -8.5469  -16.3106 O   0  0  0  0  0  0  0  0  0  0  0  0
   22.2509   -4.9101  -17.6656 N   0  0  0  0  0  0  0  0  0  0  0  0
   22.2414   -6.2013  -18.2823 C   0  0  0  0  0  0  0  0  0  0  0  0
   21.8311   -6.2132  -19.4731 O   0  0  0  0  0  0  0  0  0  0  0  0
   22.6829   -7.4156  -17.5706 C   0  0  0  0  0  0  0  0  0  0  0  0
   23.0540   -7.0540  -16.1501 C   0  0  2  0  0  0  0  0  0  0  0  0
   23.4255   -8.2890  -15.4211 N   0  0  0  0  0  0  0  0  0  0  0  0
   21.9122   -6.5149  -15.3762 C   0  0  0  0  0  0  0  0  0  0  0  0
   21.8545   -5.1479  -15.0158 O   0  0  0  0  0  0  0  0  0  0  0  0
   20.9562   -7.2001  -15.0020 O   0  0  0  0  0  0  0  0  0  0  0  0
  2  1  1  0
  3  4  1  1
  3  2  1  0
  5  3  1  0
  6  5  2  0
  7  8  1  0
  8  9  2  0
 10  8  1  0
 11 10  1  6
 11 12  1  0
 11 13  1  0
 12  5  1  0
 13 20  1  0
 14 13  2  0
 16 15  1  0
 17 16  2  0
 18 16  1  0
 19 18  1  6
 20 19  1  0
 21 19  1  0
 21 22  1  0
 23 21  2  0
M  END
$$$$
