SNN.pdb
     RDKit          3D

 23 22  0  0  1  0  0  0  0  0999 V2000
   13.9873  -14.0605  -15.4343 O   0  0  0  0  0  0  0  0  0  0  0  0
   14.6144  -13.0818  -14.6358 C   0  0  0  0  0  0  0  0  0  0  0  0
   16.0859  -13.2365  -14.8585 C   0  0  2  0  0  0  0  0  0  0  0  0
   16.5977  -14.5488  -14.5953 N   0  0  0  0  0  0  0  0  0  0  0  0
   16.8766  -12.2061  -14.0859 C   0  0  0  0  0  0  0  0  0  0  0  0
   17.1014  -12.3381  -12.8609 O   0  0  0  0  0  0  0  0  0  0  0  0
   21.0960   -8.0194  -13.9278 N   0  0  0  0  0  0  0  0  0  0  0  0
   19.6857   -8.0882  -14.2196 C   0  0  0  0  0  0  0  0  0  0  0  0
   18.9782   -7.1302  -13.8446 O   0  0  0  0  0  0  0  0  0  0  0  0
   19.0862   -9.2317  -14.9335 C   0  0  0  0  0  0  0  0  0  0  0  0
   18.0431   -9.9781  -14.1361 C   0  0  2  0  0  0  0  0  0  0  0  0
   17.3828  -11.0619  -14.7464 N   0  0  0  0  0  0  0  0  0  0  0  0
   17.2180   -9.1035  -13.2762 C   0  0  0  0  0  0  0  0  0  0  0  0
   16.0191   -8.8338  -13.6361 O   0  0  0  0  0  0  0  0  0  0  0  0
   14.2016   -8.5648   -8.5307 N   0  0  0  0  0  0  0  0  0  0  0  0
   14.9139   -7.9418   -9.6040 C   0  0  0  0  0  0  0  0  0  0  0  0
   14.7396   -6.6981   -9.6999 O   0  0  0  0  0  0  0  0  0  0  0  0
   15.7837   -8.7059  -10.5181 C   0  0  0  0  0  0  0  0  0  0  0  0
   16.6972   -7.7506  -11.2523 C   0  0  2  0  0  0  0  0  0  0  0  0
   17.6482   -8.5326  -12.0763 N   0  0  0  0  0  0  0  0  0  0  0  0
   17.5708   -6.9751  -10.3420 C   0  0  0  0  0  0  0  0  0  0  0  0
   18.9774   -6.9861  -10.4942 O   0  0  0  0  0  0  0  0  0  0  0  0
   17.1460   -6.2827   -9.4127 O   0  0  0  0  0  0  0  0  0  0  0  0
  2  1  1  0
  3  4  1  1
  3  2  1  0
  5  3  1  0
  6  5  2  0
  7  8  1  0
  8  9  2  0
 10  8  1  0
 11 10  1  6
 11 12  1  0
 11 13  1  0
 12  5  1  0
 13 20  1  0
 14 13  2  0
 16 15  1  0
 17 16  2  0
 18 16  1  0
 19 18  1  1
 20 19  1  0
 21 19  1  0
 21 22  1  0
 23 21  2  0
M  END
$$$$
