SNN.pdb
     RDKit          3D

 23 22  0  0  1  0  0  0  0  0999 V2000
   28.0155  -18.7883  -13.8323 O   0  0  0  0  0  0  0  0  0  0  0  0
   27.7226  -17.7937  -14.7881 C   0  0  0  0  0  0  0  0  0  0  0  0
   26.4175  -18.1792  -15.4103 C   0  0  2  0  0  0  0  0  0  0  0  0
   26.4318  -19.4315  -16.1067 N   0  0  0  0  0  0  0  0  0  0  0  0
   25.8883  -17.0888  -16.3130 C   0  0  0  0  0  0  0  0  0  0  0  0
   26.1105  -17.0952  -17.5457 O   0  0  0  0  0  0  0  0  0  0  0  0
   22.3929  -13.7686  -18.8513 N   0  0  0  0  0  0  0  0  0  0  0  0
   22.6786  -13.6528  -17.4429 C   0  0  0  0  0  0  0  0  0  0  0  0
   22.5429  -12.5253  -16.9240 O   0  0  0  0  0  0  0  0  0  0  0  0
   23.1103  -14.8070  -16.6315 C   0  0  0  0  0  0  0  0  0  0  0  0
   24.6081  -14.9302  -16.4826 C   0  0  2  0  0  0  0  0  0  0  0  0
   25.1216  -16.0310  -15.7700 N   0  0  0  0  0  0  0  0  0  0  0  0
   25.2907  -13.6353  -16.2764 C   0  0  0  0  0  0  0  0  0  0  0  0
   25.4597  -13.2076  -15.0814 O   0  0  0  0  0  0  0  0  0  0  0  0
   29.9271  -10.1594  -16.9140 N   0  0  0  0  0  0  0  0  0  0  0  0
   28.5607  -10.4335  -16.5893 C   0  0  0  0  0  0  0  0  0  0  0  0
   27.9600   -9.4942  -16.0033 O   0  0  0  0  0  0  0  0  0  0  0  0
   27.9160  -11.7177  -16.9225 C   0  0  0  0  0  0  0  0  0  0  0  0
   26.4169  -11.5261  -16.9691 C   0  0  2  0  0  0  0  0  0  0  0  0
   25.7770  -12.8203  -17.3010 N   0  0  0  0  0  0  0  0  0  0  0  0
   25.9853  -10.6258  -18.0630 C   0  0  0  0  0  0  0  0  0  0  0  0
   26.2370  -10.9492  -19.4172 O   0  0  0  0  0  0  0  0  0  0  0  0
   25.3913   -9.5601  -17.8765 O   0  0  0  0  0  0  0  0  0  0  0  0
  2  1  1  0
  3  4  1  6
  3  2  1  0
  5  3  1  0
  6  5  2  0
  7  8  1  0
  8  9  2  0
 10  8  1  0
 11 10  1  1
 11 12  1  0
 11 13  1  0
 12  5  1  0
 13 20  1  0
 14 13  2  0
 16 15  1  0
 17 16  2  0
 18 16  1  0
 19 18  1  6
 20 19  1  0
 21 19  1  0
 21 22  1  0
 23 21  2  0
M  END
$$$$
