SNN.pdb
     RDKit          3D

 23 22  0  0  1  0  0  0  0  0999 V2000
   12.8481  -11.7791  -11.1964 O   0  0  0  0  0  0  0  0  0  0  0  0
   13.2226  -10.4232  -11.2970 C   0  0  0  0  0  0  0  0  0  0  0  0
   14.7176  -10.3943  -11.2406 C   0  0  2  0  0  0  0  0  0  0  0  0
   15.2942  -11.1949  -10.2014 N   0  0  0  0  0  0  0  0  0  0  0  0
   15.2436   -8.9799  -11.1589 C   0  0  0  0  0  0  0  0  0  0  0  0
   15.0112   -8.1427  -12.0611 O   0  0  0  0  0  0  0  0  0  0  0  0
   13.8039   -6.5212   -9.2486 N   0  0  0  0  0  0  0  0  0  0  0  0
   14.8088   -6.3318   -8.2322 C   0  0  0  0  0  0  0  0  0  0  0  0
   14.4265   -5.8964   -7.1261 O   0  0  0  0  0  0  0  0  0  0  0  0
   16.2326   -6.6376   -8.4687 C   0  0  0  0  0  0  0  0  0  0  0  0
   16.5113   -7.2789   -9.8073 C   0  0  2  0  0  0  0  0  0  0  0  0
   16.0157   -8.5756  -10.0444 N   0  0  0  0  0  0  0  0  0  0  0  0
   17.8592   -6.9817  -10.3366 C   0  0  0  0  0  0  0  0  0  0  0  0
   18.8603   -7.6419   -9.8880 O   0  0  0  0  0  0  0  0  0  0  0  0
   21.8386   -6.0501  -13.3414 N   0  0  0  0  0  0  0  0  0  0  0  0
   20.9984   -7.2075  -13.3860 C   0  0  0  0  0  0  0  0  0  0  0  0
   21.4161   -8.1330  -14.1312 O   0  0  0  0  0  0  0  0  0  0  0  0
   19.7454   -7.2994  -12.6132 C   0  0  0  0  0  0  0  0  0  0  0  0
   19.4781   -5.9739  -11.9367 C   0  0  2  0  0  0  0  0  0  0  0  0
   18.1377   -6.0170  -11.3074 N   0  0  0  0  0  0  0  0  0  0  0  0
   19.3848   -4.8476  -12.8939 C   0  0  0  0  0  0  0  0  0  0  0  0
   20.5107   -4.0420  -13.1859 O   0  0  0  0  0  0  0  0  0  0  0  0
   18.3478   -4.5407  -13.4888 O   0  0  0  0  0  0  0  0  0  0  0  0
  2  1  1  0
  3  4  1  1
  3  2  1  0
  5  3  1  0
  6  5  2  0
  7  8  1  0
  8  9  2  0
 10  8  1  0
 11 10  1  1
 11 12  1  0
 11 13  1  0
 12  5  1  0
 13 20  1  0
 14 13  2  0
 16 15  1  0
 17 16  2  0
 18 16  1  0
 19 18  1  6
 20 19  1  0
 21 19  1  0
 21 22  1  0
 23 21  2  0
M  END
$$$$
