SNN.pdb
     RDKit          3D

 23 22  0  0  1  0  0  0  0  0999 V2000
   16.8600  -13.2321  -15.3625 O   0  0  0  0  0  0  0  0  0  0  0  0
   17.8130  -12.1930  -15.3360 C   0  0  0  0  0  0  0  0  0  0  0  0
   18.8568  -12.5534  -16.3458 C   0  0  2  0  0  0  0  0  0  0  0  0
   19.6453  -13.7017  -16.0098 N   0  0  0  0  0  0  0  0  0  0  0  0
   19.7558  -11.3797  -16.6593 C   0  0  0  0  0  0  0  0  0  0  0  0
   20.6982  -11.0568  -15.9002 O   0  0  0  0  0  0  0  0  0  0  0  0
   22.5113   -8.4483  -20.8653 N   0  0  0  0  0  0  0  0  0  0  0  0
   21.2830   -8.1755  -20.1614 C   0  0  0  0  0  0  0  0  0  0  0  0
   21.0328   -6.9823  -19.8917 O   0  0  0  0  0  0  0  0  0  0  0  0
   20.3466   -9.2469  -19.7715 C   0  0  0  0  0  0  0  0  0  0  0  0
   20.3537   -9.5647  -18.2950 C   0  0  2  0  0  0  0  0  0  0  0  0
   19.5428  -10.6194  -17.8334 N   0  0  0  0  0  0  0  0  0  0  0  0
   20.4309   -8.3667  -17.4323 C   0  0  0  0  0  0  0  0  0  0  0  0
   19.4308   -8.0736  -16.6885 O   0  0  0  0  0  0  0  0  0  0  0  0
   22.1667   -4.7096  -14.2816 N   0  0  0  0  0  0  0  0  0  0  0  0
   22.1098   -6.1023  -13.9577 C   0  0  0  0  0  0  0  0  0  0  0  0
   22.3281   -6.3706  -12.7466 O   0  0  0  0  0  0  0  0  0  0  0  0
   21.8146   -7.1334  -14.9704 C   0  0  0  0  0  0  0  0  0  0  0  0
   21.5808   -6.4669  -16.3073 C   0  0  2  0  0  0  0  0  0  0  0  0
   21.5296   -7.5074  -17.3607 N   0  0  0  0  0  0  0  0  0  0  0  0
   22.7058   -5.5974  -16.7217 C   0  0  0  0  0  0  0  0  0  0  0  0
   23.8934   -6.1466  -17.2603 O   0  0  0  0  0  0  0  0  0  0  0  0
   22.6877   -4.3667  -16.6304 O   0  0  0  0  0  0  0  0  0  0  0  0
  2  1  1  0
  3  4  1  1
  3  2  1  0
  5  3  1  0
  6  5  2  0
  7  8  1  0
  8  9  2  0
 10  8  1  0
 11 10  1  6
 11 12  1  0
 11 13  1  0
 12  5  1  0
 13 20  1  0
 14 13  2  0
 16 15  1  0
 17 16  2  0
 18 16  1  0
 19 18  1  1
 20 19  1  0
 21 19  1  0
 21 22  1  0
 23 21  2  0
M  END
$$$$
