SNN.pdb
     RDKit          3D

 23 22  0  0  1  0  0  0  0  0999 V2000
   28.6869  -18.0964  -16.3596 O   0  0  0  0  0  0  0  0  0  0  0  0
   27.5305  -18.9035  -16.3588 C   0  0  0  0  0  0  0  0  0  0  0  0
   27.9719  -20.2709  -15.9410 C   0  0  2  0  0  0  0  0  0  0  0  0
   28.2051  -21.1823  -17.0219 N   0  0  0  0  0  0  0  0  0  0  0  0
   27.0165  -20.8827  -14.9426 C   0  0  0  0  0  0  0  0  0  0  0  0
   26.2021  -21.7733  -15.2780 O   0  0  0  0  0  0  0  0  0  0  0  0
   23.9127  -21.2724  -10.8166 N   0  0  0  0  0  0  0  0  0  0  0  0
   25.1489  -20.7213  -10.3197 C   0  0  0  0  0  0  0  0  0  0  0  0
   25.2669  -20.6097   -9.0816 O   0  0  0  0  0  0  0  0  0  0  0  0
   26.2412  -20.3050  -11.2197 C   0  0  0  0  0  0  0  0  0  0  0  0
   25.9616  -20.5510  -12.6834 C   0  0  2  0  0  0  0  0  0  0  0  0
   27.0305  -20.4526  -13.5949 N   0  0  0  0  0  0  0  0  0  0  0  0
   24.6593  -20.0166  -13.1349 C   0  0  0  0  0  0  0  0  0  0  0  0
   24.6042  -18.8203  -13.5879 O   0  0  0  0  0  0  0  0  0  0  0  0
   20.9771  -18.6322  -16.6548 N   0  0  0  0  0  0  0  0  0  0  0  0
   20.9706  -19.6963  -15.6981 C   0  0  0  0  0  0  0  0  0  0  0  0
   19.8243  -20.0987  -15.3658 O   0  0  0  0  0  0  0  0  0  0  0  0
   22.2151  -20.2711  -15.1533 C   0  0  0  0  0  0  0  0  0  0  0  0
   22.2255  -20.1042  -13.6506 C   0  0  2  0  0  0  0  0  0  0  0  0
   23.4559  -20.7248  -13.1066 N   0  0  0  0  0  0  0  0  0  0  0  0
   21.1299  -20.8429  -12.9817 C   0  0  0  0  0  0  0  0  0  0  0  0
   19.9115  -20.2029  -12.6534 O   0  0  0  0  0  0  0  0  0  0  0  0
   21.1993  -22.0359  -12.6727 O   0  0  0  0  0  0  0  0  0  0  0  0
  2  1  1  0
  3  4  1  6
  3  2  1  0
  5  3  1  0
  6  5  2  0
  7  8  1  0
  8  9  2  0
 10  8  1  0
 11 10  1  1
 11 12  1  0
 11 13  1  0
 12  5  1  0
 13 20  1  0
 14 13  2  0
 16 15  1  0
 17 16  2  0
 18 16  1  0
 19 18  1  6
 20 19  1  0
 21 19  1  0
 21 22  1  0
 23 21  2  0
M  END
$$$$
