SNN.pdb
     RDKit          3D

 23 22  0  0  1  0  0  0  0  0999 V2000
   23.2269  -21.0731   -8.0221 O   0  0  0  0  0  0  0  0  0  0  0  0
   23.6597  -20.3933   -9.1794 C   0  0  0  0  0  0  0  0  0  0  0  0
   25.1393  -20.6012   -9.2609 C   0  0  2  0  0  0  0  0  0  0  0  0
   25.8989  -19.9019   -8.2673 N   0  0  0  0  0  0  0  0  0  0  0  0
   25.6703  -20.2833  -10.6397 C   0  0  0  0  0  0  0  0  0  0  0  0
   26.3501  -19.2542  -10.8573 O   0  0  0  0  0  0  0  0  0  0  0  0
   27.5312  -19.9885  -15.6961 N   0  0  0  0  0  0  0  0  0  0  0  0
   26.5137  -20.9457  -15.3393 C   0  0  0  0  0  0  0  0  0  0  0  0
   25.7065  -21.2797  -16.2314 O   0  0  0  0  0  0  0  0  0  0  0  0
   26.4168  -21.5206  -13.9840 C   0  0  0  0  0  0  0  0  0  0  0  0
   25.4269  -20.8179  -13.0855 C   0  0  2  0  0  0  0  0  0  0  0  0
   25.4041  -21.1582  -11.7192 N   0  0  0  0  0  0  0  0  0  0  0  0
   24.1171  -20.5732  -13.7256 C   0  0  0  0  0  0  0  0  0  0  0  0
   23.3451  -21.5682  -13.9568 O   0  0  0  0  0  0  0  0  0  0  0  0
   23.6730  -18.9713  -18.5691 N   0  0  0  0  0  0  0  0  0  0  0  0
   23.0163  -18.7448  -17.3181 C   0  0  0  0  0  0  0  0  0  0  0  0
   22.6409  -17.5577  -17.1277 O   0  0  0  0  0  0  0  0  0  0  0  0
   22.7988  -19.8252  -16.3376 C   0  0  0  0  0  0  0  0  0  0  0  0
   22.4579  -19.2192  -14.9950 C   0  0  2  0  0  0  0  0  0  0  0  0
   23.6412  -19.3173  -14.1090 N   0  0  0  0  0  0  0  0  0  0  0  0
   21.4094  -19.9749  -14.2718 C   0  0  0  0  0  0  0  0  0  0  0  0
   20.1375  -19.4060  -14.0256 O   0  0  0  0  0  0  0  0  0  0  0  0
   21.5657  -21.1226  -13.8453 O   0  0  0  0  0  0  0  0  0  0  0  0
  2  1  1  0
  3  4  1  1
  3  2  1  0
  5  3  1  0
  6  5  2  0
  7  8  1  0
  8  9  2  0
 10  8  1  0
 11 10  1  6
 11 12  1  0
 11 13  1  0
 12  5  1  0
 13 20  1  0
 14 13  2  0
 16 15  1  0
 17 16  2  0
 18 16  1  0
 19 18  1  6
 20 19  1  0
 21 19  1  0
 21 22  1  0
 23 21  2  0
M  END
$$$$
