KQG.pdb
     RDKit          3D

 23 22  0  0  1  0  0  0  0  0999 V2000
    7.3123  -15.4275   20.2921 N   0  0  0  0  0  0  0  0  0  0  0  0
    8.2651  -14.3503   20.4324 C   0  0  1  0  0  0  0  0  0  0  0  0
    7.6730  -13.1350   19.7585 C   0  0  0  0  0  0  0  0  0  0  0  0
    7.2539  -13.5571   18.3669 C   0  0  0  0  0  0  0  0  0  0  0  0
    8.4217  -13.7636   17.4536 C   0  0  0  0  0  0  0  0  0  0  0  0
    8.0088  -14.1668   16.0526 C   0  0  0  0  0  0  0  0  0  0  0  0
    9.2525  -14.2761   15.2817 N   0  0  0  0  0  0  0  0  0  0  0  0
    8.5369  -14.1311   21.8663 C   0  0  0  0  0  0  0  0  0  0  0  0
    9.3323  -13.2169   22.1829 O   0  0  0  0  0  0  0  0  0  0  0  0
    6.0881  -11.8496   25.9179 N   0  0  0  0  0  0  0  0  0  0  0  0
    6.5592  -12.7993   26.8828 C   0  0  0  0  0  0  0  0  0  0  0  0
    6.6035  -12.3687   28.0640 O   0  0  0  0  0  0  0  0  0  0  0  0
    6.9509  -14.1679   26.5069 C   0  0  0  0  0  0  0  0  0  0  0  0
    7.0053  -14.5135   25.0818 C   0  0  0  0  0  0  0  0  0  0  0  0
    8.2640  -14.6289   24.3346 C   0  0  2  0  0  0  0  0  0  0  0  0
    7.9443  -14.9012   22.8942 N   0  0  0  0  0  0  0  0  0  0  0  0
    9.2880  -15.5616   24.7642 C   0  0  0  0  0  0  0  0  0  0  0  0
    9.6890  -15.5206   26.0045 O   0  0  0  0  0  0  0  0  0  0  0  0
    9.9353  -16.5598   24.0150 N   0  0  0  0  0  0  0  0  0  0  0  0
   10.8954  -17.4564   24.5940 C   0  0  0  0  0  0  0  0  0  0  0  0
   12.2820  -17.0415   24.5954 C   0  0  0  0  0  0  0  0  0  0  0  0
   12.6668  -15.9506   24.1543 O   0  0  0  0  0  0  0  0  0  0  0  0
   13.2288  -17.9186   25.1212 O   0  0  0  0  0  0  0  0  0  0  0  0
  2  1  1  1
  2  8  1  0
  3  2  1  0
  4  3  1  0
  5  4  1  0
  6  7  1  0
  6  5  1  0
  8  9  2  0
 11 12  2  0
 11 10  1  0
 13 11  1  0
 14 13  1  0
 15 14  1  1
 16  8  1  0
 16 15  1  0
 17 19  1  0
 17 15  1  0
 18 17  2  0
 20 19  1  0
 21 23  1  0
 21 20  1  0
 22 21  2  0
M  END
$$$$
