KQG.pdb
     RDKit          3D

 23 22  0  0  1  0  0  0  0  0999 V2000
   10.1575  -16.8879   17.6857 N   0  0  0  0  0  0  0  0  0  0  0  0
   10.3936  -15.7177   18.4997 C   0  0  1  0  0  0  0  0  0  0  0  0
    9.0595  -15.0429   18.7157 C   0  0  0  0  0  0  0  0  0  0  0  0
    8.6384  -14.4530   17.3872 C   0  0  0  0  0  0  0  0  0  0  0  0
    7.3606  -13.6794   17.4820 C   0  0  0  0  0  0  0  0  0  0  0  0
    6.9641  -13.0350   16.1692 C   0  0  0  0  0  0  0  0  0  0  0  0
    5.6538  -12.4173   16.4029 N   0  0  0  0  0  0  0  0  0  0  0  0
   11.0344  -16.1310   19.7633 C   0  0  0  0  0  0  0  0  0  0  0  0
   10.7638  -17.2660   20.2183 O   0  0  0  0  0  0  0  0  0  0  0  0
   16.5624  -14.0450   22.1630 N   0  0  0  0  0  0  0  0  0  0  0  0
   16.1316  -14.5543   20.8942 C   0  0  0  0  0  0  0  0  0  0  0  0
   16.9693  -14.4234   19.9648 O   0  0  0  0  0  0  0  0  0  0  0  0
   14.8131  -15.1832   20.7103 C   0  0  0  0  0  0  0  0  0  0  0  0
   13.9103  -15.2656   21.8642 C   0  0  0  0  0  0  0  0  0  0  0  0
   12.5386  -15.7811   21.7708 C   0  0  2  0  0  0  0  0  0  0  0  0
   11.9352  -15.3094   20.4806 N   0  0  0  0  0  0  0  0  0  0  0  0
   11.5900  -15.5372   22.8401 C   0  0  0  0  0  0  0  0  0  0  0  0
   11.0186  -14.3671   22.9128 O   0  0  0  0  0  0  0  0  0  0  0  0
   11.1619  -16.4162   23.8504 N   0  0  0  0  0  0  0  0  0  0  0  0
   12.0679  -17.2767   24.5572 C   0  0  0  0  0  0  0  0  0  0  0  0
   11.4953  -18.2696   25.4409 C   0  0  0  0  0  0  0  0  0  0  0  0
   10.2762  -18.4289   25.5873 O   0  0  0  0  0  0  0  0  0  0  0  0
   12.3648  -19.0857   26.1620 O   0  0  0  0  0  0  0  0  0  0  0  0
  2  1  1  6
  2  8  1  0
  3  2  1  0
  4  3  1  0
  5  4  1  0
  6  7  1  0
  6  5  1  0
  8  9  2  0
 11 12  2  0
 11 10  1  0
 13 11  1  0
 14 13  1  0
 15 14  1  1
 16  8  1  0
 16 15  1  0
 17 19  1  0
 17 15  1  0
 18 17  2  0
 20 19  1  0
 21 23  1  0
 21 20  1  0
 22 21  2  0
M  END
$$$$
