KQG.pdb
     RDKit          3D

 23 22  0  0  1  0  0  0  0  0999 V2000
    7.3150  -15.5464   20.3960 N   0  0  0  0  0  0  0  0  0  0  0  0
    8.2876  -14.4779   20.4059 C   0  0  1  0  0  0  0  0  0  0  0  0
    7.6847  -13.3134   19.6561 C   0  0  0  0  0  0  0  0  0  0  0  0
    7.2948  -13.8205   18.2845 C   0  0  0  0  0  0  0  0  0  0  0  0
    8.4585  -13.8889   17.3458 C   0  0  0  0  0  0  0  0  0  0  0  0
    8.0717  -14.3743   15.9635 C   0  0  0  0  0  0  0  0  0  0  0  0
    9.3183  -14.4268   15.1912 N   0  0  0  0  0  0  0  0  0  0  0  0
    8.6221  -14.1437   21.8040 C   0  0  0  0  0  0  0  0  0  0  0  0
    9.4850  -13.2595   22.0089 O   0  0  0  0  0  0  0  0  0  0  0  0
    5.7670  -11.9335   26.0763 N   0  0  0  0  0  0  0  0  0  0  0  0
    6.5101  -12.7440   26.9961 C   0  0  0  0  0  0  0  0  0  0  0  0
    6.4774  -12.3471   28.1894 O   0  0  0  0  0  0  0  0  0  0  0  0
    7.2433  -13.9456   26.5645 C   0  0  0  0  0  0  0  0  0  0  0  0
    7.2115  -14.3118   25.1438 C   0  0  0  0  0  0  0  0  0  0  0  0
    8.4201  -14.4052   24.3151 C   0  0  2  0  0  0  0  0  0  0  0  0
    8.0167  -14.7721   22.9173 N   0  0  0  0  0  0  0  0  0  0  0  0
    9.5199  -15.2605   24.7175 C   0  0  0  0  0  0  0  0  0  0  0  0
   10.7202  -14.7527   24.7654 O   0  0  0  0  0  0  0  0  0  0  0  0
    9.4855  -16.6143   25.0949 N   0  0  0  0  0  0  0  0  0  0  0  0
   10.6600  -17.3282   25.5094 C   0  0  0  0  0  0  0  0  0  0  0  0
   10.5089  -18.7288   25.8417 C   0  0  0  0  0  0  0  0  0  0  0  0
    9.4512  -19.3542   25.6904 O   0  0  0  0  0  0  0  0  0  0  0  0
   11.6136  -19.4035   26.3580 O   0  0  0  0  0  0  0  0  0  0  0  0
  2  1  1  1
  2  8  1  0
  3  2  1  0
  4  3  1  0
  5  4  1  0
  6  7  1  0
  6  5  1  0
  8  9  2  0
 11 12  2  0
 11 10  1  0
 13 11  1  0
 14 13  1  0
 15 14  1  1
 16  8  1  0
 16 15  1  0
 17 19  1  0
 17 15  1  0
 18 17  2  0
 20 19  1  0
 21 23  1  0
 21 20  1  0
 22 21  2  0
M  END
$$$$
