KQG.pdb
     RDKit          3D

 23 22  0  0  1  0  0  0  0  0999 V2000
    7.4570  -16.1518   21.0337 N   0  0  0  0  0  0  0  0  0  0  0  0
    8.5559  -15.2345   20.8370 C   0  0  1  0  0  0  0  0  0  0  0  0
    8.0320  -14.0715   20.0278 C   0  0  0  0  0  0  0  0  0  0  0  0
    7.7571  -14.5878   18.6320 C   0  0  0  0  0  0  0  0  0  0  0  0
    8.1628  -13.6145   17.5698 C   0  0  0  0  0  0  0  0  0  0  0  0
    7.6873  -14.0185   16.1890 C   0  0  0  0  0  0  0  0  0  0  0  0
    8.0772  -12.9244   15.2923 N   0  0  0  0  0  0  0  0  0  0  0  0
    9.0811  -14.8223   22.1532 C   0  0  0  0  0  0  0  0  0  0  0  0
   10.0740  -14.0595   22.1796 O   0  0  0  0  0  0  0  0  0  0  0  0
    5.8399  -11.6035   26.6100 N   0  0  0  0  0  0  0  0  0  0  0  0
    5.9568  -12.9337   26.0886 C   0  0  0  0  0  0  0  0  0  0  0  0
    5.0825  -13.7379   26.5026 O   0  0  0  0  0  0  0  0  0  0  0  0
    7.0177  -13.3120   25.1403 C   0  0  0  0  0  0  0  0  0  0  0  0
    7.9894  -14.3331   25.5485 C   0  0  0  0  0  0  0  0  0  0  0  0
    9.0905  -14.7790   24.6856 C   0  0  2  0  0  0  0  0  0  0  0  0
    8.5183  -15.2464   23.3797 N   0  0  0  0  0  0  0  0  0  0  0  0
   10.0347  -15.7733   25.1578 C   0  0  0  0  0  0  0  0  0  0  0  0
   10.5195  -15.6513   26.3624 O   0  0  0  0  0  0  0  0  0  0  0  0
   10.5196  -16.9103   24.4879 N   0  0  0  0  0  0  0  0  0  0  0  0
   11.4149  -17.8458   25.1077 C   0  0  0  0  0  0  0  0  0  0  0  0
   11.8964  -18.9462   24.3003 C   0  0  0  0  0  0  0  0  0  0  0  0
   11.6061  -19.0923   23.1056 O   0  0  0  0  0  0  0  0  0  0  0  0
   12.7292  -19.8871   24.9030 O   0  0  0  0  0  0  0  0  0  0  0  0
  2  1  1  1
  2  8  1  0
  3  2  1  0
  4  3  1  0
  5  4  1  0
  6  7  1  0
  6  5  1  0
  8  9  2  0
 11 12  2  0
 11 10  1  0
 13 11  1  0
 14 13  1  0
 15 14  1  1
 16  8  1  0
 16 15  1  0
 17 19  1  0
 17 15  1  0
 18 17  2  0
 20 19  1  0
 21 23  1  0
 21 20  1  0
 22 21  2  0
M  END
$$$$
