KQG.pdb
     RDKit          3D

 23 22  0  0  1  0  0  0  0  0999 V2000
    7.4559  -12.5441   19.1698 N   0  0  0  0  0  0  0  0  0  0  0  0
    7.3720  -13.8331   19.8172 C   0  0  1  0  0  0  0  0  0  0  0  0
    7.9702  -14.8503   18.8742 C   0  0  0  0  0  0  0  0  0  0  0  0
    7.9272  -16.1895   19.5778 C   0  0  0  0  0  0  0  0  0  0  0  0
    8.3952  -17.3117   18.7049 C   0  0  0  0  0  0  0  0  0  0  0  0
    8.3423  -18.6578   19.3984 C   0  0  0  0  0  0  0  0  0  0  0  0
    8.8717  -19.6290   18.4342 N   0  0  0  0  0  0  0  0  0  0  0  0
    8.0798  -13.7696   21.1107 C   0  0  0  0  0  0  0  0  0  0  0  0
    9.2113  -13.2333   21.1383 O   0  0  0  0  0  0  0  0  0  0  0  0
    5.3165  -12.3137   26.3757 N   0  0  0  0  0  0  0  0  0  0  0  0
    6.6215  -12.6588   26.8582 C   0  0  0  0  0  0  0  0  0  0  0  0
    6.8142  -12.4063   28.0755 O   0  0  0  0  0  0  0  0  0  0  0  0
    7.6425  -13.2651   25.9877 C   0  0  0  0  0  0  0  0  0  0  0  0
    7.3344  -13.4380   24.5634 C   0  0  0  0  0  0  0  0  0  0  0  0
    8.2565  -14.0799   23.6182 C   0  0  2  0  0  0  0  0  0  0  0  0
    7.5429  -14.2836   22.3142 N   0  0  0  0  0  0  0  0  0  0  0  0
    8.9282  -15.3148   23.9743 C   0  0  0  0  0  0  0  0  0  0  0  0
    8.2979  -16.4424   23.7949 O   0  0  0  0  0  0  0  0  0  0  0  0
   10.2221  -15.4908   24.4954 N   0  0  0  0  0  0  0  0  0  0  0  0
   10.7680  -16.7878   24.7794 C   0  0  0  0  0  0  0  0  0  0  0  0
   10.6698  -17.2715   26.1400 C   0  0  0  0  0  0  0  0  0  0  0  0
    9.8208  -16.8689   26.9462 O   0  0  0  0  0  0  0  0  0  0  0  0
   11.5799  -18.2400   26.5594 O   0  0  0  0  0  0  0  0  0  0  0  0
  2  1  1  6
  2  8  1  0
  3  2  1  0
  4  3  1  0
  5  4  1  0
  6  7  1  0
  6  5  1  0
  8  9  2  0
 11 12  2  0
 11 10  1  0
 13 11  1  0
 14 13  1  0
 15 14  1  1
 16  8  1  0
 16 15  1  0
 17 19  1  0
 17 15  1  0
 18 17  2  0
 20 19  1  0
 21 23  1  0
 21 20  1  0
 22 21  2  0
M  END
$$$$
