KQG.pdb
     RDKit          3D

 23 22  0  0  1  0  0  0  0  0999 V2000
    9.1217  -16.2621   21.1473 N   0  0  0  0  0  0  0  0  0  0  0  0
    9.3195  -17.0757   22.3249 C   0  0  1  0  0  0  0  0  0  0  0  0
    9.8179  -18.4244   21.8618 C   0  0  0  0  0  0  0  0  0  0  0  0
    8.7243  -19.0360   21.0130 C   0  0  0  0  0  0  0  0  0  0  0  0
    9.0895  -20.3926   20.4967 C   0  0  0  0  0  0  0  0  0  0  0  0
    8.0270  -20.9836   19.5925 C   0  0  0  0  0  0  0  0  0  0  0  0
    8.5105  -22.3184   19.2214 N   0  0  0  0  0  0  0  0  0  0  0  0
   10.2700  -16.3957   23.2262 C   0  0  0  0  0  0  0  0  0  0  0  0
   11.0764  -15.5788   22.7255 O   0  0  0  0  0  0  0  0  0  0  0  0
    9.5173  -13.3498   29.4177 N   0  0  0  0  0  0  0  0  0  0  0  0
    9.7926  -14.6013   28.7752 C   0  0  0  0  0  0  0  0  0  0  0  0
    9.7606  -15.6008   29.5384 O   0  0  0  0  0  0  0  0  0  0  0  0
   10.0824  -14.6942   27.3346 C   0  0  0  0  0  0  0  0  0  0  0  0
   10.8384  -15.8533   26.8464 C   0  0  0  0  0  0  0  0  0  0  0  0
   11.3503  -15.9534   25.4739 C   0  0  2  0  0  0  0  0  0  0  0  0
   10.3124  -16.6225   24.6218 N   0  0  0  0  0  0  0  0  0  0  0  0
   12.6331  -16.5780   25.2142 C   0  0  0  0  0  0  0  0  0  0  0  0
   12.7131  -17.8791   25.2534 O   0  0  0  0  0  0  0  0  0  0  0  0
   13.8587  -15.9660   24.8982 N   0  0  0  0  0  0  0  0  0  0  0  0
   15.0317  -16.7212   24.5597 C   0  0  0  0  0  0  0  0  0  0  0  0
   15.7660  -16.3222   23.3781 C   0  0  0  0  0  0  0  0  0  0  0  0
   15.3829  -15.4333   22.6061 O   0  0  0  0  0  0  0  0  0  0  0  0
   16.9653  -16.9750   23.0992 O   0  0  0  0  0  0  0  0  0  0  0  0
  2  1  1  6
  2  8  1  0
  3  2  1  0
  4  3  1  0
  5  4  1  0
  6  7  1  0
  6  5  1  0
  8  9  2  0
 11 12  2  0
 11 10  1  0
 13 11  1  0
 14 13  1  0
 15 14  1  1
 16  8  1  0
 16 15  1  0
 17 19  1  0
 17 15  1  0
 18 17  2  0
 20 19  1  0
 21 23  1  0
 21 20  1  0
 22 21  2  0
M  END
$$$$
