KQG.pdb
     RDKit          3D

 23 22  0  0  1  0  0  0  0  0999 V2000
    6.4916  -14.2985   22.1487 N   0  0  0  0  0  0  0  0  0  0  0  0
    7.7163  -14.9904   21.8184 C   0  0  1  0  0  0  0  0  0  0  0  0
    8.3495  -14.2566   20.6598 C   0  0  0  0  0  0  0  0  0  0  0  0
    7.5660  -14.6237   19.4182 C   0  0  0  0  0  0  0  0  0  0  0  0
    8.1648  -14.0513   18.1715 C   0  0  0  0  0  0  0  0  0  0  0  0
    7.2717  -14.2194   16.9590 C   0  0  0  0  0  0  0  0  0  0  0  0
    7.9774  -13.5740   15.8461 N   0  0  0  0  0  0  0  0  0  0  0  0
    8.5845  -15.0294   23.0112 C   0  0  0  0  0  0  0  0  0  0  0  0
    8.6103  -14.0224   23.7553 O   0  0  0  0  0  0  0  0  0  0  0  0
    9.1141  -18.6537   27.7138 N   0  0  0  0  0  0  0  0  0  0  0  0
   10.3973  -18.0184   27.7829 C   0  0  0  0  0  0  0  0  0  0  0  0
   11.0515  -18.2701   28.8275 O   0  0  0  0  0  0  0  0  0  0  0  0
   10.8983  -17.1478   26.7064 C   0  0  0  0  0  0  0  0  0  0  0  0
   10.0276  -16.8886   25.5540 C   0  0  0  0  0  0  0  0  0  0  0  0
   10.4275  -16.0393   24.4249 C   0  0  2  0  0  0  0  0  0  0  0  0
    9.3847  -16.1452   23.3514 N   0  0  0  0  0  0  0  0  0  0  0  0
   11.7341  -16.1975   23.8161 C   0  0  0  0  0  0  0  0  0  0  0  0
   11.9104  -17.1645   22.9590 O   0  0  0  0  0  0  0  0  0  0  0  0
   12.8909  -15.4219   24.0080 N   0  0  0  0  0  0  0  0  0  0  0  0
   14.1225  -15.6933   23.3223 C   0  0  0  0  0  0  0  0  0  0  0  0
   14.9792  -16.7239   23.8687 C   0  0  0  0  0  0  0  0  0  0  0  0
   14.6764  -17.4095   24.8541 O   0  0  0  0  0  0  0  0  0  0  0  0
   16.2071  -16.9526   23.2504 O   0  0  0  0  0  0  0  0  0  0  0  0
  2  1  1  1
  2  8  1  0
  3  2  1  0
  4  3  1  0
  5  4  1  0
  6  7  1  0
  6  5  1  0
  8  9  2  0
 11 12  2  0
 11 10  1  0
 13 11  1  0
 14 13  1  0
 15 14  1  1
 16  8  1  0
 16 15  1  0
 17 19  1  0
 17 15  1  0
 18 17  2  0
 20 19  1  0
 21 23  1  0
 21 20  1  0
 22 21  2  0
M  END
$$$$
