KQG.pdb
     RDKit          3D

 23 22  0  0  1  0  0  0  0  0999 V2000
    6.5774  -16.5811   20.8831 N   0  0  0  0  0  0  0  0  0  0  0  0
    7.9986  -16.3363   20.7941 C   0  0  1  0  0  0  0  0  0  0  0  0
    8.1844  -15.0171   20.0821 C   0  0  0  0  0  0  0  0  0  0  0  0
    7.7903  -15.2315   18.6368 C   0  0  0  0  0  0  0  0  0  0  0  0
    7.9110  -13.9844   17.8179 C   0  0  0  0  0  0  0  0  0  0  0  0
    7.3884  -14.1548   16.4059 C   0  0  0  0  0  0  0  0  0  0  0  0
    7.5391  -12.8461   15.7597 N   0  0  0  0  0  0  0  0  0  0  0  0
    8.5736  -16.3363   22.1533 C   0  0  0  0  0  0  0  0  0  0  0  0
    7.9446  -15.7441   23.0600 O   0  0  0  0  0  0  0  0  0  0  0  0
   11.6370  -20.6540   25.1515 N   0  0  0  0  0  0  0  0  0  0  0  0
   11.6226  -19.5979   26.1207 C   0  0  0  0  0  0  0  0  0  0  0  0
   12.2012  -19.8722   27.2036 O   0  0  0  0  0  0  0  0  0  0  0  0
   10.9828  -18.2991   25.8533 C   0  0  0  0  0  0  0  0  0  0  0  0
   10.3597  -18.0829   24.5425 C   0  0  0  0  0  0  0  0  0  0  0  0
   10.4100  -16.7969   23.8357 C   0  0  2  0  0  0  0  0  0  0  0  0
    9.7956  -16.9706   22.4780 N   0  0  0  0  0  0  0  0  0  0  0  0
   11.6686  -16.0922   23.6857 C   0  0  0  0  0  0  0  0  0  0  0  0
   12.2330  -15.5894   24.7485 O   0  0  0  0  0  0  0  0  0  0  0  0
   12.4153  -15.8699   22.5155 N   0  0  0  0  0  0  0  0  0  0  0  0
   13.7061  -15.2419   22.5333 C   0  0  0  0  0  0  0  0  0  0  0  0
   14.3277  -14.9544   21.2583 C   0  0  0  0  0  0  0  0  0  0  0  0
   13.8478  -15.3051   20.1722 O   0  0  0  0  0  0  0  0  0  0  0  0
   15.5280  -14.2463   21.2582 O   0  0  0  0  0  0  0  0  0  0  0  0
  2  1  1  1
  2  8  1  0
  3  2  1  0
  4  3  1  0
  5  4  1  0
  6  7  1  0
  6  5  1  0
  8  9  2  0
 11 12  2  0
 11 10  1  0
 13 11  1  0
 14 13  1  0
 15 14  1  6
 16  8  1  0
 16 15  1  0
 17 19  1  0
 17 15  1  0
 18 17  2  0
 20 19  1  0
 21 23  1  0
 21 20  1  0
 22 21  2  0
M  END
$$$$
