KTT.pdb
     RDKit          3D

 24 23  0  0  1  0  0  0  0  0999 V2000
   27.7162  -20.9745  -13.5163 N   0  0  0  0  0  0  0  0  0  0  0  0
   26.6175  -21.3201  -12.5928 C   0  0  1  0  0  0  0  0  0  0  0  0
   26.8274  -20.6084  -11.3151 C   0  0  0  0  0  0  0  0  0  0  0  0
   28.2150  -20.5144  -10.8347 C   0  0  0  0  0  0  0  0  0  0  0  0
   29.0439  -21.6968  -10.5502 C   0  0  0  0  0  0  0  0  0  0  0  0
   30.3974  -21.5564   -9.9733 C   0  0  0  0  0  0  0  0  0  0  0  0
   31.0277  -22.8892   -9.7952 N   0  0  0  0  0  0  0  0  0  0  0  0
   25.3855  -20.7566  -13.3075 C   0  0  0  0  0  0  0  0  0  0  0  0
   25.5013  -19.7188  -13.9795 O   0  0  0  0  0  0  0  0  0  0  0  0
   24.5741  -20.5407  -15.8597 C   0  0  0  0  0  0  0  0  0  0  0  0
   23.3305  -21.2205  -15.4074 C   0  0  1  0  0  0  0  0  0  0  0  0
   23.4349  -22.6276  -15.5428 O   0  0  0  0  0  0  0  0  0  0  0  0
   22.9517  -20.9786  -13.9605 C   0  0  2  0  0  0  0  0  0  0  0  0
   24.1326  -21.4117  -13.2020 N   0  0  0  0  0  0  0  0  0  0  0  0
   21.7556  -21.6946  -13.5128 C   0  0  0  0  0  0  0  0  0  0  0  0
   21.8026  -22.9574  -13.2847 O   0  0  0  0  0  0  0  0  0  0  0  0
   19.7475  -21.1774  -10.4355 C   0  0  0  0  0  0  0  0  0  0  0  0
   18.7977  -21.1258  -11.6100 C   0  0  1  0  0  0  0  0  0  0  0  0
   18.6298  -19.8053  -12.0019 O   0  0  0  0  0  0  0  0  0  0  0  0
   19.3533  -21.9130  -12.7964 C   0  0  2  0  0  0  0  0  0  0  0  0
   20.4892  -21.1072  -13.2921 N   0  0  0  0  0  0  0  0  0  0  0  0
   18.3194  -21.9471  -13.8325 C   0  0  0  0  0  0  0  0  0  0  0  0
   18.4264  -21.2811  -14.8969 O   0  0  0  0  0  0  0  0  0  0  0  0
   17.1648  -22.7130  -13.7026 O   0  0  0  0  0  0  0  0  0  0  0  0
  2  1  1  6
  2  8  1  0
  3  2  1  0
  4  3  1  0
  5  6  1  0
  5  4  1  0
  7  6  1  0
  8 14  1  0
  8  9  2  0
 11 12  1  0
 11 10  1  1
 13 11  1  0
 13 14  1  1
 15 13  1  0
 15 16  2  0
 18 17  1  1
 18 20  1  0
 18 19  1  0
 20 21  1  6
 21 15  1  0
 22 20  1  0
 23 22  2  0
 24 22  1  0
M  END
$$$$
