KTT.pdb
     RDKit          3D

 24 23  0  0  1  0  0  0  0  0999 V2000
   30.5080  -33.3436  -15.2676 N   0  0  0  0  0  0  0  0  0  0  0  0
   29.9254  -32.7230  -16.4737 C   0  0  1  0  0  0  0  0  0  0  0  0
   28.5746  -32.2217  -16.1464 C   0  0  0  0  0  0  0  0  0  0  0  0
   27.5219  -33.2346  -15.9696 C   0  0  0  0  0  0  0  0  0  0  0  0
   26.8918  -33.9374  -17.0988 C   0  0  0  0  0  0  0  0  0  0  0  0
   25.6056  -33.4746  -17.6610 C   0  0  0  0  0  0  0  0  0  0  0  0
   24.4730  -34.2090  -17.0419 N   0  0  0  0  0  0  0  0  0  0  0  0
   30.8690  -31.5456  -16.7372 C   0  0  0  0  0  0  0  0  0  0  0  0
   31.4430  -31.0072  -15.7767 O   0  0  0  0  0  0  0  0  0  0  0  0
   34.0224  -31.4150  -18.4172 C   0  0  0  0  0  0  0  0  0  0  0  0
   33.0850  -30.5436  -19.1756 C   0  0  1  0  0  0  0  0  0  0  0  0
   32.4528  -31.2578  -20.2242 O   0  0  0  0  0  0  0  0  0  0  0  0
   31.9602  -29.9402  -18.3593 C   0  0  2  0  0  0  0  0  0  0  0  0
   31.0824  -31.0790  -18.0589 N   0  0  0  0  0  0  0  0  0  0  0  0
   31.2163  -28.8753  -19.0349 C   0  0  0  0  0  0  0  0  0  0  0  0
   30.1056  -29.1336  -19.6253 O   0  0  0  0  0  0  0  0  0  0  0  0
   29.9283  -26.1466  -17.4264 C   0  0  0  0  0  0  0  0  0  0  0  0
   29.5277  -26.3920  -18.8630 C   0  0  1  0  0  0  0  0  0  0  0  0
   28.7610  -25.3254  -19.3102 O   0  0  0  0  0  0  0  0  0  0  0  0
   30.7590  -26.5096  -19.7606 C   0  0  2  0  0  0  0  0  0  0  0  0
   31.6151  -27.5212  -19.1054 N   0  0  0  0  0  0  0  0  0  0  0  0
   31.4555  -25.2221  -19.7332 C   0  0  0  0  0  0  0  0  0  0  0  0
   31.0553  -24.2380  -20.4111 O   0  0  0  0  0  0  0  0  0  0  0  0
   32.5939  -25.0115  -18.9609 O   0  0  0  0  0  0  0  0  0  0  0  0
  2  1  1  1
  2  8  1  0
  3  2  1  0
  4  3  1  0
  5  6  1  0
  5  4  1  0
  7  6  1  0
  8 14  1  0
  8  9  2  0
 11 12  1  0
 11 10  1  1
 13 11  1  0
 13 14  1  6
 15 13  1  0
 15 16  2  0
 18 17  1  1
 18 20  1  0
 18 19  1  0
 20 21  1  1
 21 15  1  0
 22 20  1  0
 23 22  2  0
 24 22  1  0
M  END
$$$$
