KTT.pdb
     RDKit          3D

 24 23  0  0  1  0  0  0  0  0999 V2000
   20.0255  -10.9077  -17.6488 N   0  0  0  0  0  0  0  0  0  0  0  0
   19.1804  -10.8755  -16.4389 C   0  0  1  0  0  0  0  0  0  0  0  0
   18.8957  -12.2633  -16.0194 C   0  0  0  0  0  0  0  0  0  0  0  0
   17.9267  -13.0117  -16.8357 C   0  0  0  0  0  0  0  0  0  0  0  0
   16.5868  -12.4955  -17.1585 C   0  0  0  0  0  0  0  0  0  0  0  0
   15.6264  -13.3056  -17.9370 C   0  0  0  0  0  0  0  0  0  0  0  0
   14.3676  -12.5494  -18.1585 N   0  0  0  0  0  0  0  0  0  0  0  0
   20.0889  -10.1956  -15.4101 C   0  0  0  0  0  0  0  0  0  0  0  0
   19.7455  -10.1856  -14.2168 O   0  0  0  0  0  0  0  0  0  0  0  0
   23.6123  -10.8238  -14.3967 C   0  0  0  0  0  0  0  0  0  0  0  0
   23.5084   -9.4675  -14.9992 C   0  0  1  0  0  0  0  0  0  0  0  0
   23.8086   -9.4955  -16.3843 O   0  0  0  0  0  0  0  0  0  0  0  0
   22.1449   -8.8157  -14.8922 C   0  0  2  0  0  0  0  0  0  0  0  0
   21.3034   -9.5874  -15.8164 N   0  0  0  0  0  0  0  0  0  0  0  0
   22.1185   -7.3917  -15.2317 C   0  0  0  0  0  0  0  0  0  0  0  0
   22.4351   -7.0005  -16.4131 O   0  0  0  0  0  0  0  0  0  0  0  0
   19.7683   -5.1441  -16.1294 C   0  0  0  0  0  0  0  0  0  0  0  0
   20.4081   -4.4737  -14.9354 C   0  0  1  0  0  0  0  0  0  0  0  0
   19.7012   -4.8122  -13.7903 O   0  0  0  0  0  0  0  0  0  0  0  0
   21.8551   -4.9338  -14.7614 C   0  0  2  0  0  0  0  0  0  0  0  0
   21.7593   -6.3497  -14.3471 N   0  0  0  0  0  0  0  0  0  0  0  0
   22.4382   -4.1651  -13.6603 C   0  0  0  0  0  0  0  0  0  0  0  0
   22.7409   -2.9485  -13.7892 O   0  0  0  0  0  0  0  0  0  0  0  0
   22.6907   -4.7302  -12.4138 O   0  0  0  0  0  0  0  0  0  0  0  0
  2  1  1  6
  2  8  1  0
  3  2  1  0
  4  3  1  0
  5  6  1  0
  5  4  1  0
  7  6  1  0
  8 14  1  0
  8  9  2  0
 11 12  1  0
 11 10  1  6
 13 11  1  0
 13 14  1  6
 15 13  1  0
 15 16  2  0
 18 17  1  6
 18 20  1  0
 18 19  1  0
 20 21  1  1
 21 15  1  0
 22 20  1  0
 23 22  2  0
 24 22  1  0
M  END
$$$$
