KTT.pdb
     RDKit          3D

 24 23  0  0  1  0  0  0  0  0999 V2000
   17.8831  -14.7830  -16.3098 N   0  0  0  0  0  0  0  0  0  0  0  0
   19.2613  -15.1353  -16.7043 C   0  0  1  0  0  0  0  0  0  0  0  0
   19.2054  -16.0743  -17.8438 C   0  0  0  0  0  0  0  0  0  0  0  0
   18.5020  -17.3462  -17.6142 C   0  0  0  0  0  0  0  0  0  0  0  0
   18.8788  -18.2861  -16.5462 C   0  0  0  0  0  0  0  0  0  0  0  0
   18.1543  -19.5615  -16.3643 C   0  0  0  0  0  0  0  0  0  0  0  0
   18.6765  -20.2922  -15.1815 N   0  0  0  0  0  0  0  0  0  0  0  0
   19.8354  -13.7915  -17.1635 C   0  0  0  0  0  0  0  0  0  0  0  0
   20.9687  -13.7624  -17.6701 O   0  0  0  0  0  0  0  0  0  0  0  0
   18.4058  -11.3957  -19.5965 C   0  0  0  0  0  0  0  0  0  0  0  0
   18.5679  -10.6941  -18.2947 C   0  0  1  0  0  0  0  0  0  0  0  0
   17.3605  -10.7021  -17.5521 O   0  0  0  0  0  0  0  0  0  0  0  0
   19.6166  -11.2799  -17.3713 C   0  0  2  0  0  0  0  0  0  0  0  0
   19.0823  -12.6000  -17.0113 N   0  0  0  0  0  0  0  0  0  0  0  0
   19.8892  -10.4854  -16.1721 C   0  0  0  0  0  0  0  0  0  0  0  0
   19.1094  -10.5582  -15.1544 O   0  0  0  0  0  0  0  0  0  0  0  0
   22.5547  -10.6389  -13.7070 C   0  0  0  0  0  0  0  0  0  0  0  0
   22.5538   -9.2306  -14.2560 C   0  0  1  0  0  0  0  0  0  0  0  0
   23.4388   -9.1573  -15.3223 O   0  0  0  0  0  0  0  0  0  0  0  0
   21.1635   -8.8407  -14.7567 C   0  0  2  0  0  0  0  0  0  0  0  0
   20.9808   -9.6024  -16.0105 N   0  0  0  0  0  0  0  0  0  0  0  0
   21.1897   -7.4128  -15.0790 C   0  0  0  0  0  0  0  0  0  0  0  0
   21.1375   -7.0015  -16.2691 O   0  0  0  0  0  0  0  0  0  0  0  0
   21.2734   -6.4322  -14.0951 O   0  0  0  0  0  0  0  0  0  0  0  0
  2  1  1  6
  2  8  1  0
  3  2  1  0
  4  3  1  0
  5  6  1  0
  5  4  1  0
  7  6  1  0
  8 14  1  0
  8  9  2  0
 11 12  1  0
 11 10  1  6
 13 11  1  0
 13 14  1  1
 15 13  1  0
 15 16  2  0
 18 17  1  6
 18 20  1  0
 18 19  1  0
 20 21  1  6
 21 15  1  0
 22 20  1  0
 23 22  2  0
 24 22  1  0
M  END
$$$$
