KTT.pdb
     RDKit          3D

 24 23  0  0  1  0  0  0  0  0999 V2000
   20.3283  -12.8251  -16.6752 N   0  0  0  0  0  0  0  0  0  0  0  0
   19.7597  -11.4901  -16.9471 C   0  0  1  0  0  0  0  0  0  0  0  0
   18.2887  -11.5662  -16.8313 C   0  0  0  0  0  0  0  0  0  0  0  0
   17.5897  -12.3720  -17.8448 C   0  0  0  0  0  0  0  0  0  0  0  0
   16.1260  -12.5225  -17.8757 C   0  0  0  0  0  0  0  0  0  0  0  0
   15.4596  -13.2584  -18.9706 C   0  0  0  0  0  0  0  0  0  0  0  0
   13.9846  -13.2160  -18.8035 N   0  0  0  0  0  0  0  0  0  0  0  0
   20.3296  -10.6414  -15.8065 C   0  0  0  0  0  0  0  0  0  0  0  0
   19.8055  -10.7126  -14.6830 O   0  0  0  0  0  0  0  0  0  0  0  0
   23.4960  -10.9831  -14.3129 C   0  0  0  0  0  0  0  0  0  0  0  0
   23.4457   -9.5845  -14.8175 C   0  0  1  0  0  0  0  0  0  0  0  0
   24.0344   -9.4798  -16.1027 O   0  0  0  0  0  0  0  0  0  0  0  0
   22.0558   -8.9981  -14.9583 C   0  0  2  0  0  0  0  0  0  0  0  0
   21.4390   -9.7879  -16.0323 N   0  0  0  0  0  0  0  0  0  0  0  0
   22.0233   -7.5701  -15.2796 C   0  0  0  0  0  0  0  0  0  0  0  0
   22.4399   -7.1520  -16.4201 O   0  0  0  0  0  0  0  0  0  0  0  0
   19.6589   -5.0633  -16.2082 C   0  0  0  0  0  0  0  0  0  0  0  0
   20.2842   -4.5938  -14.9148 C   0  0  1  0  0  0  0  0  0  0  0  0
   19.5337   -5.0675  -13.8481 O   0  0  0  0  0  0  0  0  0  0  0  0
   21.7103   -5.1251  -14.7735 C   0  0  2  0  0  0  0  0  0  0  0  0
   21.5537   -6.5518  -14.4193 N   0  0  0  0  0  0  0  0  0  0  0  0
   22.3350   -4.4313  -13.6457 C   0  0  0  0  0  0  0  0  0  0  0  0
   22.5773   -5.0200  -12.5580 O   0  0  0  0  0  0  0  0  0  0  0  0
   22.6957   -3.0887  -13.7090 O   0  0  0  0  0  0  0  0  0  0  0  0
  2  1  1  1
  2  8  1  0
  3  2  1  0
  4  3  1  0
  5  6  1  0
  5  4  1  0
  7  6  1  0
  8 14  1  0
  8  9  2  0
 11 12  1  0
 11 10  1  6
 13 11  1  0
 13 14  1  6
 15 13  1  0
 15 16  2  0
 18 17  1  6
 18 20  1  0
 18 19  1  0
 20 21  1  1
 21 15  1  0
 22 20  1  0
 23 22  2  0
 24 22  1  0
M  END
$$$$
