KTT.pdb
     RDKit          3D

 24 23  0  0  1  0  0  0  0  0999 V2000
   18.9199  -11.2180  -17.1661 N   0  0  0  0  0  0  0  0  0  0  0  0
   18.1545  -10.7457  -15.9954 C   0  0  1  0  0  0  0  0  0  0  0  0
   17.5586  -11.9131  -15.3133 C   0  0  0  0  0  0  0  0  0  0  0  0
   16.2893  -12.4176  -15.8606 C   0  0  0  0  0  0  0  0  0  0  0  0
   16.0206  -13.8501  -16.0650 C   0  0  0  0  0  0  0  0  0  0  0  0
   14.9747  -14.5468  -15.2871 C   0  0  0  0  0  0  0  0  0  0  0  0
   15.4626  -14.8550  -13.9187 N   0  0  0  0  0  0  0  0  0  0  0  0
   19.2393  -10.1228  -15.1114 C   0  0  0  0  0  0  0  0  0  0  0  0
   19.0992  -10.1485  -13.8779 O   0  0  0  0  0  0  0  0  0  0  0  0
   22.8047  -11.0588  -14.7897 C   0  0  0  0  0  0  0  0  0  0  0  0
   22.7026   -9.6655  -15.3011 C   0  0  1  0  0  0  0  0  0  0  0  0
   22.7147   -9.6353  -16.7182 O   0  0  0  0  0  0  0  0  0  0  0  0
   21.4516   -8.9163  -14.8895 C   0  0  2  0  0  0  0  0  0  0  0  0
   20.3854   -9.5262  -15.6950 N   0  0  0  0  0  0  0  0  0  0  0  0
   21.5046   -7.4695  -15.1081 C   0  0  0  0  0  0  0  0  0  0  0  0
   21.7235   -6.9983  -16.2824 O   0  0  0  0  0  0  0  0  0  0  0  0
   19.2158   -4.7647  -15.3003 C   0  0  0  0  0  0  0  0  0  0  0  0
   20.1705   -4.4027  -14.1858 C   0  0  1  0  0  0  0  0  0  0  0  0
   19.6563   -4.8583  -12.9801 O   0  0  0  0  0  0  0  0  0  0  0  0
   21.5359   -5.0540  -14.4035 C   0  0  2  0  0  0  0  0  0  0  0  0
   21.3278   -6.4873  -14.1073 N   0  0  0  0  0  0  0  0  0  0  0  0
   22.4571   -4.5020  -13.4085 C   0  0  0  0  0  0  0  0  0  0  0  0
   22.9287   -3.3383  -13.5162 O   0  0  0  0  0  0  0  0  0  0  0  0
   22.8632   -5.2264  -12.2919 O   0  0  0  0  0  0  0  0  0  0  0  0
  2  1  1  6
  2  8  1  0
  3  2  1  0
  4  3  1  0
  5  6  1  0
  5  4  1  0
  7  6  1  0
  8 14  1  0
  8  9  2  0
 11 12  1  0
 11 10  1  6
 13 11  1  0
 13 14  1  6
 15 13  1  0
 15 16  2  0
 18 17  1  6
 18 20  1  0
 18 19  1  0
 20 21  1  1
 21 15  1  0
 22 20  1  0
 23 22  2  0
 24 22  1  0
M  END
$$$$
