KTT.pdb
     RDKit          3D

 24 23  0  0  1  0  0  0  0  0999 V2000
   16.4765  -12.4012  -14.9199 N   0  0  0  0  0  0  0  0  0  0  0  0
   17.8197  -11.8615  -15.2092 C   0  0  1  0  0  0  0  0  0  0  0  0
   18.1211  -12.0753  -16.6398 C   0  0  0  0  0  0  0  0  0  0  0  0
   18.4261  -13.4555  -17.0487 C   0  0  0  0  0  0  0  0  0  0  0  0
   18.6847  -13.8359  -18.4468 C   0  0  0  0  0  0  0  0  0  0  0  0
   18.9804  -15.2372  -18.8120 C   0  0  0  0  0  0  0  0  0  0  0  0
   19.1878  -15.3602  -20.2773 N   0  0  0  0  0  0  0  0  0  0  0  0
   17.6500  -10.3651  -14.9298 C   0  0  0  0  0  0  0  0  0  0  0  0
   16.5372   -9.8425  -15.1037 O   0  0  0  0  0  0  0  0  0  0  0  0
   16.2168   -8.5648  -13.5123 C   0  0  0  0  0  0  0  0  0  0  0  0
   17.5659   -8.0922  -13.1005 C   0  0  1  0  0  0  0  0  0  0  0  0
   18.0714   -8.8573  -12.0196 O   0  0  0  0  0  0  0  0  0  0  0  0
   18.6299   -8.1577  -14.1772 C   0  0  2  0  0  0  0  0  0  0  0  0
   18.7485   -9.5903  -14.4794 N   0  0  0  0  0  0  0  0  0  0  0  0
   19.9270   -7.5992  -13.7910 C   0  0  0  0  0  0  0  0  0  0  0  0
   20.6378   -8.1731  -12.8885 O   0  0  0  0  0  0  0  0  0  0  0  0
   23.0969   -7.4908  -15.4502 C   0  0  0  0  0  0  0  0  0  0  0  0
   22.7197   -6.0577  -15.1527 C   0  0  1  0  0  0  0  0  0  0  0  0
   22.0041   -5.5436  -16.2247 O   0  0  0  0  0  0  0  0  0  0  0  0
   21.8433   -5.9721  -13.9035 C   0  0  2  0  0  0  0  0  0  0  0  0
   20.5085   -6.4339  -14.3401 N   0  0  0  0  0  0  0  0  0  0  0  0
   21.7463   -4.5617  -13.5227 C   0  0  0  0  0  0  0  0  0  0  0  0
   20.6949   -3.8943  -13.7159 O   0  0  0  0  0  0  0  0  0  0  0  0
   22.8039   -3.8800  -12.9282 O   0  0  0  0  0  0  0  0  0  0  0  0
  2  1  1  6
  2  8  1  0
  3  2  1  0
  4  3  1  0
  5  6  1  0
  5  4  1  0
  7  6  1  0
  8 14  1  0
  8  9  2  0
 11 12  1  0
 11 10  1  6
 13 11  1  0
 13 14  1  1
 15 13  1  0
 15 16  2  0
 18 17  1  6
 18 20  1  0
 18 19  1  0
 20 21  1  6
 21 15  1  0
 22 20  1  0
 23 22  2  0
 24 22  1  0
M  END
$$$$
