KTT.pdb
     RDKit          3D

 24 23  0  0  1  0  0  0  0  0999 V2000
   18.4978  -14.1635  -18.5475 N   0  0  0  0  0  0  0  0  0  0  0  0
   17.9866  -12.7820  -18.6440 C   0  0  1  0  0  0  0  0  0  0  0  0
   16.8113  -12.6460  -17.7589 C   0  0  0  0  0  0  0  0  0  0  0  0
   15.5671  -13.2861  -18.2144 C   0  0  0  0  0  0  0  0  0  0  0  0
   14.9607  -14.4355  -17.5236 C   0  0  0  0  0  0  0  0  0  0  0  0
   13.6195  -14.9290  -17.9007 C   0  0  0  0  0  0  0  0  0  0  0  0
   13.2305  -16.0812  -17.0482 N   0  0  0  0  0  0  0  0  0  0  0  0
   19.1512  -11.9516  -18.0960 C   0  0  0  0  0  0  0  0  0  0  0  0
   20.0513  -12.5233  -17.4597 O   0  0  0  0  0  0  0  0  0  0  0  0
   21.2665   -9.9497  -20.2230 C   0  0  0  0  0  0  0  0  0  0  0  0
   20.8010   -9.0388  -19.1429 C   0  0  1  0  0  0  0  0  0  0  0  0
   19.7070   -8.2469  -19.5735 O   0  0  0  0  0  0  0  0  0  0  0  0
   20.3319   -9.7252  -17.8763 C   0  0  2  0  0  0  0  0  0  0  0  0
   19.1986  -10.5514  -18.3132 N   0  0  0  0  0  0  0  0  0  0  0  0
   19.9283   -8.8171  -16.8011 C   0  0  0  0  0  0  0  0  0  0  0  0
   18.7893   -8.2258  -16.8444 O   0  0  0  0  0  0  0  0  0  0  0  0
   19.7109   -9.4368  -13.0461 C   0  0  0  0  0  0  0  0  0  0  0  0
   20.5625   -8.2134  -13.2968 C   0  0  1  0  0  0  0  0  0  0  0  0
   21.8981   -8.5882  -13.3327 O   0  0  0  0  0  0  0  0  0  0  0  0
   20.2080   -7.5666  -14.6354 C   0  0  2  0  0  0  0  0  0  0  0  0
   20.7034   -8.5105  -15.6597 N   0  0  0  0  0  0  0  0  0  0  0  0
   20.9687   -6.3204  -14.7439 C   0  0  0  0  0  0  0  0  0  0  0  0
   20.7014   -5.3170  -14.0299 O   0  0  0  0  0  0  0  0  0  0  0  0
   22.0257   -6.1725  -15.6371 O   0  0  0  0  0  0  0  0  0  0  0  0
  2  1  1  1
  2  8  1  0
  3  2  1  0
  4  3  1  0
  5  6  1  0
  5  4  1  0
  7  6  1  0
  8 14  1  0
  8  9  2  0
 11 12  1  0
 11 10  1  6
 13 11  1  0
 13 14  1  6
 15 13  1  0
 15 16  2  0
 18 17  1  6
 18 20  1  0
 18 19  1  0
 20 21  1  6
 21 15  1  0
 22 20  1  0
 23 22  2  0
 24 22  1  0
M  END
$$$$
