KTT.pdb
     RDKit          3D

 24 23  0  0  1  0  0  0  0  0999 V2000
   25.1246  -21.4621  -12.3224 N   0  0  0  0  0  0  0  0  0  0  0  0
   25.5636  -22.3129  -13.4461 C   0  0  1  0  0  0  0  0  0  0  0  0
   24.5546  -23.3696  -13.6661 C   0  0  0  0  0  0  0  0  0  0  0  0
   23.1501  -22.9967  -13.4345 C   0  0  0  0  0  0  0  0  0  0  0  0
   22.0396  -23.9557  -13.5485 C   0  0  0  0  0  0  0  0  0  0  0  0
   20.6395  -23.5260  -13.3492 C   0  0  0  0  0  0  0  0  0  0  0  0
   19.7697  -24.0735  -14.4211 N   0  0  0  0  0  0  0  0  0  0  0  0
   25.5644  -21.3382  -14.6277 C   0  0  0  0  0  0  0  0  0  0  0  0
   26.0888  -21.6889  -15.6972 O   0  0  0  0  0  0  0  0  0  0  0  0
   24.6008  -21.1867  -17.0568 C   0  0  0  0  0  0  0  0  0  0  0  0
   24.0705  -19.8532  -16.6645 C   0  0  1  0  0  0  0  0  0  0  0  0
   22.7661  -19.9581  -16.1200 O   0  0  0  0  0  0  0  0  0  0  0  0
   24.8869  -19.1139  -15.6240 C   0  0  2  0  0  0  0  0  0  0  0  0
   24.9747  -20.0553  -14.4998 N   0  0  0  0  0  0  0  0  0  0  0  0
   24.3144  -17.8383  -15.1897 C   0  0  0  0  0  0  0  0  0  0  0  0
   23.5591  -17.7857  -14.1525 O   0  0  0  0  0  0  0  0  0  0  0  0
   26.0540  -14.3312  -14.6170 C   0  0  0  0  0  0  0  0  0  0  0  0
   24.8947  -14.2501  -15.5834 C   0  0  1  0  0  0  0  0  0  0  0  0
   25.3708  -14.3955  -16.8786 O   0  0  0  0  0  0  0  0  0  0  0  0
   23.8816  -15.3626  -15.3152 C   0  0  2  0  0  0  0  0  0  0  0  0
   24.5207  -16.5936  -15.8267 N   0  0  0  0  0  0  0  0  0  0  0  0
   22.6916  -15.0862  -16.1221 C   0  0  0  0  0  0  0  0  0  0  0  0
   22.3820  -15.8016  -17.1123 O   0  0  0  0  0  0  0  0  0  0  0  0
   21.8379  -14.0230  -15.8439 O   0  0  0  0  0  0  0  0  0  0  0  0
  2  1  1  1
  2  8  1  0
  3  2  1  0
  4  3  1  0
  5  6  1  0
  5  4  1  0
  7  6  1  0
  8 14  1  0
  8  9  2  0
 11 12  1  0
 11 10  1  1
 13 11  1  0
 13 14  1  1
 15 13  1  0
 15 16  2  0
 18 17  1  1
 18 20  1  0
 18 19  1  0
 20 21  1  6
 21 15  1  0
 22 20  1  0
 23 22  2  0
 24 22  1  0
M  END
$$$$
