EAK.pdb
     RDKit          3D

 24 23  0  0  1  0  0  0  0  0999 V2000
   28.0948  -21.2279  -15.3219 N   0  0  0  0  0  0  0  0  0  0  0  0
   27.6930  -20.2829  -14.3009 C   0  0  1  0  0  0  0  0  0  0  0  0
   27.3873  -18.9341  -14.9130 C   0  0  0  0  0  0  0  0  0  0  0  0
   28.4406  -18.5484  -15.9370 C   0  0  0  0  0  0  0  0  0  0  0  0
   27.9420  -18.8970  -17.2827 C   0  0  0  0  0  0  0  0  0  0  0  0
   26.8082  -19.4165  -17.4585 O   0  0  0  0  0  0  0  0  0  0  0  0
   26.5604  -20.8407  -13.5591 C   0  0  0  0  0  0  0  0  0  0  0  0
   25.5978  -21.3649  -14.1701 O   0  0  0  0  0  0  0  0  0  0  0  0
   28.7126  -18.6627  -18.4167 O   0  0  0  0  0  0  0  0  0  0  0  0
   25.3865  -20.9322   -9.9320 C   0  0  0  0  0  0  0  0  0  0  0  0
   25.2707  -21.1271  -11.4257 C   0  0  2  0  0  0  0  0  0  0  0  0
   26.4852  -20.8216  -12.1232 N   0  0  0  0  0  0  0  0  0  0  0  0
   24.1101  -20.3440  -11.9518 C   0  0  0  0  0  0  0  0  0  0  0  0
   24.2714  -19.1042  -12.0576 O   0  0  0  0  0  0  0  0  0  0  0  0
   22.8948  -20.9248  -12.3169 N   0  0  0  0  0  0  0  0  0  0  0  0
   21.7147  -20.1760  -12.7887 C   0  0  1  0  0  0  0  0  0  0  0  0
   21.7236  -20.2383  -14.2464 C   0  0  0  0  0  0  0  0  0  0  0  0
   20.6778  -19.6697  -15.0914 C   0  0  0  0  0  0  0  0  0  0  0  0
   20.6553  -19.8420  -16.5440 C   0  0  0  0  0  0  0  0  0  0  0  0
   19.5725  -19.2223  -17.3510 C   0  0  0  0  0  0  0  0  0  0  0  0
   19.6109  -19.5104  -18.7638 N   0  0  0  0  0  0  0  0  0  0  0  0
   20.5010  -20.7935  -12.1617 C   0  0  0  0  0  0  0  0  0  0  0  0
   20.4359  -22.0490  -11.6136 O   0  0  0  0  0  0  0  0  0  0  0  0
   19.4131  -20.1227  -12.1126 O   0  0  0  0  0  0  0  0  0  0  0  0
  2  1  1  6
  2  3  1  0
  3  4  1  0
  4  5  1  0
  5  6  2  0
  5  9  1  0
  7  2  1  0
  8  7  2  0
 11 10  1  1
 11 13  1  0
 11 12  1  0
 12  7  1  0
 13 15  1  0
 14 13  2  0
 15 16  1  0
 16 17  1  6
 16 22  1  0
 17 18  1  0
 18 19  1  0
 19 20  1  0
 21 20  1  0
 22 24  2  0
 22 23  1  0
M  END
$$$$
