EAK.pdb
     RDKit          3D

 24 23  0  0  1  0  0  0  0  0999 V2000
   56.1482   -3.0589  -47.7769 N   0  0  0  0  0  0  0  0  0  0  0  0
   56.5432   -1.9129  -48.5691 C   0  0  1  0  0  0  0  0  0  0  0  0
   55.3419   -1.0585  -48.9072 C   0  0  0  0  0  0  0  0  0  0  0  0
   55.6619   -0.0872  -50.0302 C   0  0  0  0  0  0  0  0  0  0  0  0
   55.0586   -0.5934  -51.2795 C   0  0  0  0  0  0  0  0  0  0  0  0
   54.0889   -1.3970  -51.2726 O   0  0  0  0  0  0  0  0  0  0  0  0
   57.5817   -1.1743  -47.8480 C   0  0  0  0  0  0  0  0  0  0  0  0
   58.1446   -1.6832  -46.8486 O   0  0  0  0  0  0  0  0  0  0  0  0
   55.5431   -0.1982  -52.5220 O   0  0  0  0  0  0  0  0  0  0  0  0
   58.3473    2.5610  -47.9754 C   0  0  0  0  0  0  0  0  0  0  0  0
   57.8112    1.2802  -47.3797 C   0  0  2  0  0  0  0  0  0  0  0  0
   58.0077    0.1444  -48.2319 N   0  0  0  0  0  0  0  0  0  0  0  0
   56.3744    1.4570  -47.0039 C   0  0  0  0  0  0  0  0  0  0  0  0
   55.5919    1.7994  -47.9231 O   0  0  0  0  0  0  0  0  0  0  0  0
   55.8899    1.2611  -45.7099 N   0  0  0  0  0  0  0  0  0  0  0  0
   55.1086    2.2527  -44.9468 C   0  0  1  0  0  0  0  0  0  0  0  0
   53.7468    1.7385  -44.8467 C   0  0  0  0  0  0  0  0  0  0  0  0
   52.7932    2.1548  -43.8228 C   0  0  0  0  0  0  0  0  0  0  0  0
   51.9360    1.2076  -43.1099 C   0  0  0  0  0  0  0  0  0  0  0  0
   50.8048    1.7027  -42.2835 C   0  0  0  0  0  0  0  0  0  0  0  0
   50.2966    3.0033  -42.6452 N   0  0  0  0  0  0  0  0  0  0  0  0
   55.7840    2.4457  -43.6224 C   0  0  0  0  0  0  0  0  0  0  0  0
   56.6101    1.5401  -43.0073 O   0  0  0  0  0  0  0  0  0  0  0  0
   55.6005    3.5365  -42.9802 O   0  0  0  0  0  0  0  0  0  0  0  0
  2  1  1  1
  2  3  1  0
  3  4  1  0
  4  5  1  0
  5  6  2  0
  5  9  1  0
  7  2  1  0
  8  7  2  0
 11 10  1  6
 11 13  1  0
 11 12  1  0
 12  7  1  0
 13 15  1  0
 14 13  2  0
 15 16  1  0
 16 17  1  1
 16 22  1  0
 17 18  1  0
 18 19  1  0
 19 20  1  0
 21 20  1  0
 22 24  2  0
 22 23  1  0
M  END
$$$$
