EAK.pdb
     RDKit          3D

 24 23  0  0  1  0  0  0  0  0999 V2000
   27.3692  -23.4651  -16.0631 N   0  0  0  0  0  0  0  0  0  0  0  0
   26.9042  -22.1276  -15.7605 C   0  0  1  0  0  0  0  0  0  0  0  0
   26.7053  -21.3317  -17.0311 C   0  0  0  0  0  0  0  0  0  0  0  0
   26.2346  -19.9209  -16.7231 C   0  0  0  0  0  0  0  0  0  0  0  0
   27.1459  -18.9638  -17.3823 C   0  0  0  0  0  0  0  0  0  0  0  0
   26.7943  -17.7835  -17.6460 O   0  0  0  0  0  0  0  0  0  0  0  0
   25.6872  -22.2212  -14.9516 C   0  0  0  0  0  0  0  0  0  0  0  0
   24.6968  -22.8696  -15.3679 O   0  0  0  0  0  0  0  0  0  0  0  0
   28.4383  -19.3331  -17.7400 O   0  0  0  0  0  0  0  0  0  0  0  0
   24.4997  -21.1167  -11.5027 C   0  0  0  0  0  0  0  0  0  0  0  0
   24.3557  -21.6960  -12.8906 C   0  0  2  0  0  0  0  0  0  0  0  0
   25.5575  -21.5921  -13.6651 N   0  0  0  0  0  0  0  0  0  0  0  0
   23.1868  -21.0709  -13.5834 C   0  0  0  0  0  0  0  0  0  0  0  0
   23.4006  -19.9865  -14.1773 O   0  0  0  0  0  0  0  0  0  0  0  0
   21.9094  -21.6329  -13.5919 N   0  0  0  0  0  0  0  0  0  0  0  0
   20.7274  -21.0214  -14.2282 C   0  0  1  0  0  0  0  0  0  0  0  0
   19.7421  -22.0824  -14.4084 C   0  0  0  0  0  0  0  0  0  0  0  0
   18.4029  -21.8660  -14.9475 C   0  0  0  0  0  0  0  0  0  0  0  0
   17.3803  -22.9120  -14.9659 C   0  0  0  0  0  0  0  0  0  0  0  0
   16.0449  -22.6379  -15.5569 C   0  0  0  0  0  0  0  0  0  0  0  0
   15.0429  -23.6476  -15.3176 N   0  0  0  0  0  0  0  0  0  0  0  0
   20.2609  -19.9027  -13.3460 C   0  0  0  0  0  0  0  0  0  0  0  0
   19.6156  -18.7684  -13.7680 O   0  0  0  0  0  0  0  0  0  0  0  0
   20.4615  -19.9757  -12.0850 O   0  0  0  0  0  0  0  0  0  0  0  0
  2  1  1  6
  2  3  1  0
  3  4  1  0
  4  5  1  0
  5  6  2  0
  5  9  1  0
  7  2  1  0
  8  7  2  0
 11 10  1  1
 11 13  1  0
 11 12  1  0
 12  7  1  0
 13 15  1  0
 14 13  2  0
 15 16  1  0
 16 17  1  1
 16 22  1  0
 17 18  1  0
 18 19  1  0
 19 20  1  0
 21 20  1  0
 22 24  2  0
 22 23  1  0
M  END
$$$$
