EAK.pdb
     RDKit          3D

 24 23  0  0  1  0  0  0  0  0999 V2000
   25.5789  -15.9505  -15.8469 N   0  0  0  0  0  0  0  0  0  0  0  0
   25.7472  -14.8421  -16.7634 C   0  0  1  0  0  0  0  0  0  0  0  0
   24.9088  -15.0451  -18.0057 C   0  0  0  0  0  0  0  0  0  0  0  0
   25.4173  -16.2214  -18.8208 C   0  0  0  0  0  0  0  0  0  0  0  0
   24.6485  -16.2920  -20.0799 C   0  0  0  0  0  0  0  0  0  0  0  0
   23.6958  -15.5050  -20.3230 O   0  0  0  0  0  0  0  0  0  0  0  0
   25.4321  -13.5960  -16.0620 C   0  0  0  0  0  0  0  0  0  0  0  0
   24.3354  -13.4624  -15.4669 O   0  0  0  0  0  0  0  0  0  0  0  0
   24.9505  -17.2387  -21.0531 O   0  0  0  0  0  0  0  0  0  0  0  0
   27.1454  -10.2867  -15.2666 C   0  0  0  0  0  0  0  0  0  0  0  0
   25.9840  -11.2471  -15.3730 C   0  0  2  0  0  0  0  0  0  0  0  0
   26.3372  -12.4795  -16.0142 N   0  0  0  0  0  0  0  0  0  0  0  0
   24.8295  -10.5758  -16.0461 C   0  0  0  0  0  0  0  0  0  0  0  0
   24.8330  -10.5777  -17.3009 O   0  0  0  0  0  0  0  0  0  0  0  0
   23.7834   -9.9677  -15.3507 N   0  0  0  0  0  0  0  0  0  0  0  0
   22.6567   -9.2559  -15.9831 C   0  0  1  0  0  0  0  0  0  0  0  0
   21.4298   -9.8531  -15.4663 C   0  0  0  0  0  0  0  0  0  0  0  0
   20.0902   -9.3865  -15.8107 C   0  0  0  0  0  0  0  0  0  0  0  0
   18.8827   -9.9118  -15.1733 C   0  0  0  0  0  0  0  0  0  0  0  0
   17.5532   -9.3410  -15.5117 C   0  0  0  0  0  0  0  0  0  0  0  0
   16.4204  -10.0343  -14.9490 N   0  0  0  0  0  0  0  0  0  0  0  0
   22.8024   -7.7977  -15.6674 C   0  0  0  0  0  0  0  0  0  0  0  0
   22.2289   -6.7674  -16.3680 O   0  0  0  0  0  0  0  0  0  0  0  0
   23.5131   -7.4431  -14.6649 O   0  0  0  0  0  0  0  0  0  0  0  0
  2  1  1  1
  2  3  1  0
  3  4  1  0
  4  5  1  0
  5  6  2  0
  5  9  1  0
  7  2  1  0
  8  7  2  0
 11 10  1  6
 11 13  1  0
 11 12  1  0
 12  7  1  0
 13 15  1  0
 14 13  2  0
 15 16  1  0
 16 17  1  1
 16 22  1  0
 17 18  1  0
 18 19  1  0
 19 20  1  0
 21 20  1  0
 22 24  2  0
 22 23  1  0
M  END
$$$$
