EAK.pdb
     RDKit          3D

 24 23  0  0  1  0  0  0  0  0999 V2000
   20.6246  -12.2386  -17.4272 N   0  0  0  0  0  0  0  0  0  0  0  0
   19.3392  -11.5764  -17.5048 C   0  0  1  0  0  0  0  0  0  0  0  0
   18.2471  -12.4652  -16.9528 C   0  0  0  0  0  0  0  0  0  0  0  0
   18.7208  -13.9036  -16.8366 C   0  0  0  0  0  0  0  0  0  0  0  0
   17.5967  -14.7349  -16.3609 C   0  0  0  0  0  0  0  0  0  0  0  0
   17.7049  -15.9814  -16.2168 O   0  0  0  0  0  0  0  0  0  0  0  0
   19.4278  -10.2884  -16.8140 C   0  0  0  0  0  0  0  0  0  0  0  0
   18.4580   -9.4923  -16.8287 O   0  0  0  0  0  0  0  0  0  0  0  0
   16.3651  -14.1674  -16.0513 O   0  0  0  0  0  0  0  0  0  0  0  0
   21.8355   -8.5076  -14.4705 C   0  0  0  0  0  0  0  0  0  0  0  0
   20.6613   -8.6092  -15.4158 C   0  0  2  0  0  0  0  0  0  0  0  0
   20.6012   -9.8695  -16.0960 N   0  0  0  0  0  0  0  0  0  0  0  0
   20.6759   -7.4575  -16.3699 C   0  0  0  0  0  0  0  0  0  0  0  0
   21.4325   -7.5630  -17.3653 O   0  0  0  0  0  0  0  0  0  0  0  0
   19.9034   -6.3081  -16.1973 N   0  0  0  0  0  0  0  0  0  0  0  0
   19.9358   -5.1331  -17.0886 C   0  0  1  0  0  0  0  0  0  0  0  0
   18.6039   -5.0005  -17.6696 C   0  0  0  0  0  0  0  0  0  0  0  0
   18.1255   -5.7944  -18.7974 C   0  0  0  0  0  0  0  0  0  0  0  0
   16.7846   -5.6381  -19.3610 C   0  0  0  0  0  0  0  0  0  0  0  0
   16.3359   -6.5179  -20.4711 C   0  0  0  0  0  0  0  0  0  0  0  0
   15.0137   -6.2472  -20.9800 N   0  0  0  0  0  0  0  0  0  0  0  0
   20.3625   -3.9510  -16.2714 C   0  0  0  0  0  0  0  0  0  0  0  0
   20.8493   -2.7694  -16.7691 O   0  0  0  0  0  0  0  0  0  0  0  0
   20.2788   -4.0096  -14.9965 O   0  0  0  0  0  0  0  0  0  0  0  0
  2  1  1  1
  2  3  1  0
  3  4  1  0
  4  5  1  0
  5  6  2  0
  5  9  1  0
  7  2  1  0
  8  7  2  0
 11 10  1  6
 11 13  1  0
 11 12  1  0
 12  7  1  0
 13 15  1  0
 14 13  2  0
 15 16  1  0
 16 17  1  1
 16 22  1  0
 17 18  1  0
 18 19  1  0
 19 20  1  0
 21 20  1  0
 22 24  2  0
 22 23  1  0
M  END
$$$$
