EAK.pdb
     RDKit          3D

 24 23  0  0  1  0  0  0  0  0999 V2000
   22.1169  -11.1458  -19.5659 N   0  0  0  0  0  0  0  0  0  0  0  0
   21.8195  -11.3299  -18.1607 C   0  0  1  0  0  0  0  0  0  0  0  0
   20.4724  -10.7339  -17.8180 C   0  0  0  0  0  0  0  0  0  0  0  0
   19.3721  -11.3494  -18.6649 C   0  0  0  0  0  0  0  0  0  0  0  0
   18.0748  -10.7907  -18.2337 C   0  0  0  0  0  0  0  0  0  0  0  0
   17.4663  -11.2260  -17.2206 O   0  0  0  0  0  0  0  0  0  0  0  0
   21.9084  -12.7561  -17.8411 C   0  0  0  0  0  0  0  0  0  0  0  0
   21.3509  -13.6071  -18.5756 O   0  0  0  0  0  0  0  0  0  0  0  0
   17.4707   -9.7535  -18.9367 O   0  0  0  0  0  0  0  0  0  0  0  0
   23.6504  -14.9585  -15.2618 C   0  0  0  0  0  0  0  0  0  0  0  0
   22.7505  -14.6581  -16.4376 C   0  0  2  0  0  0  0  0  0  0  0  0
   22.6213  -13.2540  -16.6958 N   0  0  0  0  0  0  0  0  0  0  0  0
   21.4220  -15.3166  -16.2420 C   0  0  0  0  0  0  0  0  0  0  0  0
   20.5325  -14.6305  -15.6830 O   0  0  0  0  0  0  0  0  0  0  0  0
   21.1464  -16.6236  -16.6461 N   0  0  0  0  0  0  0  0  0  0  0  0
   19.8442  -17.2966  -16.4806 C   0  0  1  0  0  0  0  0  0  0  0  0
   19.6785  -18.1930  -17.6199 C   0  0  0  0  0  0  0  0  0  0  0  0
   18.4644  -18.9600  -17.8818 C   0  0  0  0  0  0  0  0  0  0  0  0
   18.3757  -19.9594  -18.9465 C   0  0  0  0  0  0  0  0  0  0  0  0
   17.1197  -20.7283  -19.1436 C   0  0  0  0  0  0  0  0  0  0  0  0
   17.1835  -21.7751  -20.1339 N   0  0  0  0  0  0  0  0  0  0  0  0
   19.8561  -17.9955  -15.1545 C   0  0  0  0  0  0  0  0  0  0  0  0
   18.7568  -18.2466  -14.3737 O   0  0  0  0  0  0  0  0  0  0  0  0
   20.9675  -18.4103  -14.6765 O   0  0  0  0  0  0  0  0  0  0  0  0
  2  1  1  6
  2  3  1  0
  3  4  1  0
  4  5  1  0
  5  6  2  0
  5  9  1  0
  7  2  1  0
  8  7  2  0
 11 10  1  1
 11 13  1  0
 11 12  1  0
 12  7  1  0
 13 15  1  0
 14 13  2  0
 15 16  1  0
 16 17  1  6
 16 22  1  0
 17 18  1  0
 18 19  1  0
 19 20  1  0
 21 20  1  0
 22 24  2  0
 22 23  1  0
M  END
$$$$
