EAK.pdb
     RDKit          3D

 24 23  0  0  1  0  0  0  0  0999 V2000
   16.3690  -13.5796  -14.0835 N   0  0  0  0  0  0  0  0  0  0  0  0
   16.3370  -12.4134  -14.9413 C   0  0  1  0  0  0  0  0  0  0  0  0
   14.9538  -12.2146  -15.5198 C   0  0  0  0  0  0  0  0  0  0  0  0
   14.5922  -13.3434  -16.4694 C   0  0  0  0  0  0  0  0  0  0  0  0
   15.3136  -13.1404  -17.7420 C   0  0  0  0  0  0  0  0  0  0  0  0
   15.9622  -12.0871  -17.9787 O   0  0  0  0  0  0  0  0  0  0  0  0
   16.8077  -11.2537  -14.1813 C   0  0  0  0  0  0  0  0  0  0  0  0
   16.3294  -11.0000  -13.0493 O   0  0  0  0  0  0  0  0  0  0  0  0
   15.3037  -14.1134  -18.7359 O   0  0  0  0  0  0  0  0  0  0  0  0
   19.5568   -8.6369  -14.4772 C   0  0  0  0  0  0  0  0  0  0  0  0
   18.3289   -9.2813  -13.8776 C   0  0  2  0  0  0  0  0  0  0  0  0
   17.8202  -10.3593  -14.6739 N   0  0  0  0  0  0  0  0  0  0  0  0
   17.2877   -8.2411  -13.6116 C   0  0  0  0  0  0  0  0  0  0  0  0
   16.4319   -8.0608  -14.5114 O   0  0  0  0  0  0  0  0  0  0  0  0
   17.2364   -7.4893  -12.4370 N   0  0  0  0  0  0  0  0  0  0  0  0
   16.1845   -6.5069  -12.1142 C   0  0  1  0  0  0  0  0  0  0  0  0
   15.9261   -6.6122  -10.6821 C   0  0  0  0  0  0  0  0  0  0  0  0
   15.0073   -5.7415   -9.9549 C   0  0  0  0  0  0  0  0  0  0  0  0
   14.8806   -5.7679   -8.4977 C   0  0  0  0  0  0  0  0  0  0  0  0
   13.7950   -5.0037   -7.8304 C   0  0  0  0  0  0  0  0  0  0  0  0
   13.8251   -5.0163   -6.3884 N   0  0  0  0  0  0  0  0  0  0  0  0
   16.6721   -5.1566  -12.5459 C   0  0  0  0  0  0  0  0  0  0  0  0
   15.8780   -4.0907  -12.8839 O   0  0  0  0  0  0  0  0  0  0  0  0
   17.9307   -4.9395  -12.6157 O   0  0  0  0  0  0  0  0  0  0  0  0
  2  1  1  1
  2  3  1  0
  3  4  1  0
  4  5  1  0
  5  6  2  0
  5  9  1  0
  7  2  1  0
  8  7  2  0
 11 10  1  6
 11 13  1  0
 11 12  1  0
 12  7  1  0
 13 15  1  0
 14 13  2  0
 15 16  1  0
 16 17  1  1
 16 22  1  0
 17 18  1  0
 18 19  1  0
 19 20  1  0
 21 20  1  0
 22 24  2  0
 22 23  1  0
M  END
$$$$
