EAK.pdb
     RDKit          3D

 24 23  0  0  1  0  0  0  0  0999 V2000
   15.0132  -23.4958   -4.4166 N   0  0  0  0  0  0  0  0  0  0  0  0
   13.9302  -23.8052   -3.5065 C   0  0  1  0  0  0  0  0  0  0  0  0
   14.3878  -24.7803   -2.4447 C   0  0  0  0  0  0  0  0  0  0  0  0
   14.8595  -26.0829   -3.0671 C   0  0  0  0  0  0  0  0  0  0  0  0
   15.3911  -26.9525   -1.9984 C   0  0  0  0  0  0  0  0  0  0  0  0
   16.6266  -27.0544   -1.7759 O   0  0  0  0  0  0  0  0  0  0  0  0
   13.4116  -22.5559   -2.9459 C   0  0  0  0  0  0  0  0  0  0  0  0
   14.1936  -21.6201   -2.6500 O   0  0  0  0  0  0  0  0  0  0  0  0
   14.5398  -27.6984   -1.1900 O   0  0  0  0  0  0  0  0  0  0  0  0
   10.1019  -20.7988   -2.5549 C   0  0  0  0  0  0  0  0  0  0  0  0
   11.5261  -21.1026   -2.1526 C   0  0  2  0  0  0  0  0  0  0  0  0
   12.0113  -22.3323   -2.7069 N   0  0  0  0  0  0  0  0  0  0  0  0
   11.6507  -21.0718   -0.6625 C   0  0  0  0  0  0  0  0  0  0  0  0
   11.6472  -22.1811   -0.0759 O   0  0  0  0  0  0  0  0  0  0  0  0
   11.7669  -19.8919    0.0737 N   0  0  0  0  0  0  0  0  0  0  0  0
   11.8772  -19.8266    1.5432 C   0  0  1  0  0  0  0  0  0  0  0  0
   13.2863  -20.0093    1.8747 C   0  0  0  0  0  0  0  0  0  0  0  0
   13.7845  -20.1986    3.2337 C   0  0  0  0  0  0  0  0  0  0  0  0
   15.2109  -20.2827    3.5476 C   0  0  0  0  0  0  0  0  0  0  0  0
   15.6550  -20.4560    4.9549 C   0  0  0  0  0  0  0  0  0  0  0  0
   17.0822  -20.5345    5.1485 N   0  0  0  0  0  0  0  0  0  0  0  0
   11.3149  -18.5092    1.9857 C   0  0  0  0  0  0  0  0  0  0  0  0
   10.9376  -18.1907    3.2652 O   0  0  0  0  0  0  0  0  0  0  0  0
   11.1602  -17.5751    1.1257 O   0  0  0  0  0  0  0  0  0  0  0  0
  2  1  1  6
  2  3  1  0
  3  4  1  0
  4  5  1  0
  5  6  2  0
  5  9  1  0
  7  2  1  0
  8  7  2  0
 11 10  1  1
 11 13  1  0
 11 12  1  0
 12  7  1  0
 13 15  1  0
 14 13  2  0
 15 16  1  0
 16 17  1  6
 16 22  1  0
 17 18  1  0
 18 19  1  0
 19 20  1  0
 21 20  1  0
 22 24  2  0
 22 23  1  0
M  END
$$$$
