HRE.pdb
     RDKit          3D

 31 31  0  0  1  0  0  0  0  0999 V2000
   24.7919  -16.2538  -19.9608 N   0  0  0  0  0  0  0  0  0  0  0  0
   23.7836  -15.7675  -19.0489 C   0  0  1  0  0  0  0  0  0  0  0  0
   22.5821  -15.3110  -19.8283 C   0  0  0  0  0  0  0  0  0  0  0  0
   22.9533  -14.0707  -20.5535 C   0  0  0  0  0  0  0  0  0  0  0  0
   22.7275  -12.7478  -20.2366 C   0  0  0  0  0  0  0  0  0  0  0  0
   23.2527  -11.9589  -21.2066 N   0  0  0  0  0  0  0  0  0  0  0  0
   23.7978  -12.7817  -22.1142 C   0  0  0  0  0  0  0  0  0  0  0  0
   23.6174  -14.0573  -21.7205 N   0  0  0  0  0  0  0  0  0  0  0  0
   23.4651  -16.8152  -18.0561 C   0  0  0  0  0  0  0  0  0  0  0  0
   23.2561  -17.9765  -18.4882 O   0  0  0  0  0  0  0  0  0  0  0  0
   25.3720  -21.3608  -11.4488 N   0  0  0  0  0  0  0  0  0  0  0  0
   25.1746  -22.0834  -12.6594 C   0  0  0  0  0  0  0  0  0  0  0  0
   25.1402  -23.3634  -12.6698 N   0  0  0  0  0  0  0  0  0  0  0  0
   25.0064  -21.4096  -13.9144 N   0  0  0  0  0  0  0  0  0  0  0  0
   24.2046  -20.2012  -13.9526 C   0  0  0  0  0  0  0  0  0  0  0  0
   24.9654  -19.1292  -14.6619 C   0  0  0  0  0  0  0  0  0  0  0  0
   24.3264  -17.8092  -14.7797 C   0  0  0  0  0  0  0  0  0  0  0  0
   23.1854  -17.6618  -15.7244 C   0  0  2  0  0  0  0  0  0  0  0  0
   23.3831  -16.5928  -16.6728 N   0  0  0  0  0  0  0  0  0  0  0  0
   21.8339  -17.6341  -15.1537 C   0  0  0  0  0  0  0  0  0  0  0  0
   21.4566  -16.5954  -14.5534 O   0  0  0  0  0  0  0  0  0  0  0  0
   25.0752  -23.9691  -13.4994 N   0  0  0  0  0  0  0  0  0  0  0  0
   20.9194  -18.7150  -15.2451 C   0  0  2  0  0  0  0  0  0  0  0  0
   19.5766  -18.6976  -14.6642 C   0  0  0  0  0  0  0  0  0  0  0  0
   18.6064  -19.3895  -15.6169 C   0  0  0  0  0  0  0  0  0  0  0  0
   18.3715  -18.6427  -16.8875 C   0  0  0  0  0  0  0  0  0  0  0  0
   17.9116  -19.4675  -18.0214 O   0  0  0  0  0  0  0  0  0  0  0  0
   17.6916  -20.6810  -17.9523 C   0  0  0  0  0  0  0  0  0  0  0  0
   19.6089  -19.3892  -13.3597 O   0  0  0  0  0  0  0  0  0  0  0  0
   20.5729  -20.0950  -12.9579 O   0  0  0  0  0  0  0  0  0  0  0  0
   17.7115  -18.8455  -19.2473 O   0  0  0  0  0  0  0  0  0  0  0  0
  2  1  1  6
  2  3  1  0
  3  4  1  0
  4  8  1  0
  4  5  2  0
  5  6  1  0
  7  6  1  0
  8  7  2  0
  9  2  1  0
  9 19  1  0
 10  9  2  0
 12 14  1  0
 12 11  1  0
 13 12  2  0
 15 16  1  0
 15 14  1  0
 18 17  1  1
 17 16  1  0
 18 19  1  0
 20 18  1  0
 21 20  2  0
 22 20  1  0
 23 22  1  0
 23 28  1  0
 23 24  1  6
 25 24  1  0
 26 25  1  0
 27 26  2  0
 28 31  1  0
 29 28  2  0
 30 26  1  0
M  END
$$$$
