HRE.pdb
     RDKit          3D

 31 31  0  0  1  0  0  0  0  0999 V2000
   18.7000  -12.5974  -17.1539 N   0  0  0  0  0  0  0  0  0  0  0  0
   17.7747  -11.5276  -16.8643 C   0  0  1  0  0  0  0  0  0  0  0  0
   17.4872  -11.4999  -15.3892 C   0  0  0  0  0  0  0  0  0  0  0  0
   16.7645  -12.7484  -15.0419 C   0  0  0  0  0  0  0  0  0  0  0  0
   17.1805  -13.8546  -14.3315 C   0  0  0  0  0  0  0  0  0  0  0  0
   16.1677  -14.7543  -14.2699 N   0  0  0  0  0  0  0  0  0  0  0  0
   15.1359  -14.2135  -14.9335 C   0  0  0  0  0  0  0  0  0  0  0  0
   15.4954  -13.0020  -15.4002 N   0  0  0  0  0  0  0  0  0  0  0  0
   18.3179  -10.2501  -17.3719 C   0  0  0  0  0  0  0  0  0  0  0  0
   19.5362  -10.0187  -17.1687 O   0  0  0  0  0  0  0  0  0  0  0  0
   15.8014   -4.0697  -23.4605 N   0  0  0  0  0  0  0  0  0  0  0  0
   17.0897   -3.7192  -22.9664 C   0  0  0  0  0  0  0  0  0  0  0  0
   17.7238   -2.7065  -23.4268 N   0  0  0  0  0  0  0  0  0  0  0  0
   17.7291   -4.4836  -21.9348 N   0  0  0  0  0  0  0  0  0  0  0  0
   17.0472   -5.6522  -21.4115 C   0  0  0  0  0  0  0  0  0  0  0  0
   17.8763   -6.2608  -20.3283 C   0  0  0  0  0  0  0  0  0  0  0  0
   17.3787   -7.4986  -19.7082 C   0  0  0  0  0  0  0  0  0  0  0  0
   18.1317   -8.0584  -18.5525 C   0  0  2  0  0  0  0  0  0  0  0  0
   17.5617   -9.2891  -18.0608 N   0  0  0  0  0  0  0  0  0  0  0  0
   18.4669   -7.1427  -17.4560 C   0  0  0  0  0  0  0  0  0  0  0  0
   17.5642   -6.8290  -16.6384 O   0  0  0  0  0  0  0  0  0  0  0  0
   18.6784   -2.4143  -23.1768 N   0  0  0  0  0  0  0  0  0  0  0  0
   19.7593   -6.5917  -17.2590 C   0  0  2  0  0  0  0  0  0  0  0  0
   20.0948   -5.6684  -16.1745 C   0  0  0  0  0  0  0  0  0  0  0  0
   20.9086   -6.4078  -15.1168 C   0  0  0  0  0  0  0  0  0  0  0  0
   21.3631   -5.5417  -13.9897 C   0  0  0  0  0  0  0  0  0  0  0  0
   22.1872   -6.2217  -12.9718 O   0  0  0  0  0  0  0  0  0  0  0  0
   22.6681   -7.3511  -13.1099 C   0  0  0  0  0  0  0  0  0  0  0  0
   20.8654   -4.5370  -16.7287 O   0  0  0  0  0  0  0  0  0  0  0  0
   21.3739   -4.5258  -17.8820 O   0  0  0  0  0  0  0  0  0  0  0  0
   22.4420   -5.5546  -11.7803 O   0  0  0  0  0  0  0  0  0  0  0  0
  2  1  1  1
  2  3  1  0
  3  4  1  0
  4  8  1  0
  4  5  2  0
  5  6  1  0
  7  6  1  0
  8  7  2  0
  9  2  1  0
  9 19  1  0
 10  9  2  0
 12 14  1  0
 12 11  1  0
 13 12  2  0
 15 16  1  0
 15 14  1  0
 18 17  1  6
 17 16  1  0
 18 19  1  0
 20 18  1  0
 21 20  2  0
 22 20  1  0
 23 22  1  0
 23 28  1  0
 23 24  1  6
 25 24  1  0
 26 25  1  0
 27 26  2  0
 28 31  1  0
 29 28  2  0
 30 26  1  0
M  END
$$$$
