HRE.pdb
     RDKit          3D

 31 31  0  0  1  0  0  0  0  0999 V2000
   16.8940  -22.9512  -10.5266 N   0  0  0  0  0  0  0  0  0  0  0  0
   16.8189  -22.8079  -11.9613 C   0  0  1  0  0  0  0  0  0  0  0  0
   15.3946  -22.5466  -12.3644 C   0  0  0  0  0  0  0  0  0  0  0  0
   14.5933  -23.7442  -12.0103 C   0  0  0  0  0  0  0  0  0  0  0  0
   13.4919  -23.8731  -11.1908 C   0  0  0  0  0  0  0  0  0  0  0  0
   13.0978  -25.1705  -11.1708 N   0  0  0  0  0  0  0  0  0  0  0  0
   13.9438  -25.8387  -11.9680 C   0  0  0  0  0  0  0  0  0  0  0  0
   14.8474  -24.9780  -12.4755 N   0  0  0  0  0  0  0  0  0  0  0  0
   17.7491  -21.7480  -12.4039 C   0  0  0  0  0  0  0  0  0  0  0  0
   17.7888  -20.6926  -11.7230 O   0  0  0  0  0  0  0  0  0  0  0  0
   25.8601  -22.3135  -14.8005 N   0  0  0  0  0  0  0  0  0  0  0  0
   24.6153  -22.9872  -14.9529 C   0  0  0  0  0  0  0  0  0  0  0  0
   24.5667  -24.2329  -15.2454 N   0  0  0  0  0  0  0  0  0  0  0  0
   23.3671  -22.3006  -14.7855 N   0  0  0  0  0  0  0  0  0  0  0  0
   23.3887  -20.9096  -14.3741 C   0  0  0  0  0  0  0  0  0  0  0  0
   21.9901  -20.3867  -14.3367 C   0  0  0  0  0  0  0  0  0  0  0  0
   20.9356  -21.3041  -13.8773 C   0  0  0  0  0  0  0  0  0  0  0  0
   19.5278  -20.8202  -13.8896 C   0  0  2  0  0  0  0  0  0  0  0  0
   18.5830  -21.8489  -13.5284 N   0  0  0  0  0  0  0  0  0  0  0  0
   19.0818  -20.0669  -15.0672 C   0  0  0  0  0  0  0  0  0  0  0  0
   18.8426  -20.6977  -16.1285 O   0  0  0  0  0  0  0  0  0  0  0  0
   23.7181  -24.8029  -15.3645 N   0  0  0  0  0  0  0  0  0  0  0  0
   18.8972  -18.6602  -15.0771 C   0  0  2  0  0  0  0  0  0  0  0  0
   18.4235  -17.9088  -16.2399 C   0  0  0  0  0  0  0  0  0  0  0  0
   17.8884  -16.5556  -15.7815 C   0  0  0  0  0  0  0  0  0  0  0  0
   18.8349  -15.7937  -14.9150 C   0  0  0  0  0  0  0  0  0  0  0  0
   18.3020  -14.5318  -14.3661 O   0  0  0  0  0  0  0  0  0  0  0  0
   17.3486  -14.4634  -13.5837 C   0  0  0  0  0  0  0  0  0  0  0  0
   19.5433  -17.7333  -17.1866 O   0  0  0  0  0  0  0  0  0  0  0  0
   19.4202  -17.2524  -18.3453 O   0  0  0  0  0  0  0  0  0  0  0  0
   18.9069  -13.3415  -14.7498 O   0  0  0  0  0  0  0  0  0  0  0  0
  2  1  1  1
  2  3  1  0
  3  4  1  0
  4  8  1  0
  4  5  2  0
  5  6  1  0
  7  6  1  0
  8  7  2  0
  9  2  1  0
  9 19  1  0
 10  9  2  0
 12 14  1  0
 12 11  1  0
 13 12  2  0
 15 16  1  0
 15 14  1  0
 18 17  1  6
 17 16  1  0
 18 19  1  0
 20 18  1  0
 21 20  2  0
 22 20  1  0
 23 22  1  0
 23 28  1  0
 23 24  1  1
 25 24  1  0
 26 25  1  0
 27 26  2  0
 28 31  1  0
 29 28  2  0
 30 26  1  0
M  END
$$$$
