HRE.pdb
     RDKit          3D

 31 31  0  0  1  0  0  0  0  0999 V2000
   24.2035  -30.8156    4.4792 N   0  0  0  0  0  0  0  0  0  0  0  0
   25.3429  -30.7335    5.3623 C   0  0  1  0  0  0  0  0  0  0  0  0
   26.5890  -30.5091    4.5522 C   0  0  0  0  0  0  0  0  0  0  0  0
   26.9843  -31.8083    3.9542 C   0  0  0  0  0  0  0  0  0  0  0  0
   27.8823  -32.7585    4.3928 C   0  0  0  0  0  0  0  0  0  0  0  0
   27.9124  -33.7875    3.5101 N   0  0  0  0  0  0  0  0  0  0  0  0
   27.0440  -33.4802    2.5358 C   0  0  0  0  0  0  0  0  0  0  0  0
   26.4831  -32.2849    2.8032 N   0  0  0  0  0  0  0  0  0  0  0  0
   25.1126  -29.6803    6.3733 C   0  0  0  0  0  0  0  0  0  0  0  0
   25.3620  -28.4947    6.0399 O   0  0  0  0  0  0  0  0  0  0  0  0
   18.3923  -30.0285   11.4537 N   0  0  0  0  0  0  0  0  0  0  0  0
   18.3599  -29.7958   10.0496 C   0  0  0  0  0  0  0  0  0  0  0  0
   17.2596  -29.8354    9.3959 N   0  0  0  0  0  0  0  0  0  0  0  0
   19.5552  -29.5080    9.3108 N   0  0  0  0  0  0  0  0  0  0  0  0
   20.8231  -29.5001   10.0157 C   0  0  0  0  0  0  0  0  0  0  0  0
   21.9261  -29.2505    9.0398 C   0  0  0  0  0  0  0  0  0  0  0  0
   23.2966  -29.1787    9.5697 C   0  0  0  0  0  0  0  0  0  0  0  0
   24.4014  -28.8642    8.6228 C   0  0  2  0  0  0  0  0  0  0  0  0
   24.6366  -29.9227    7.6712 N   0  0  0  0  0  0  0  0  0  0  0  0
   25.6569  -28.3606    9.1914 C   0  0  0  0  0  0  0  0  0  0  0  0
   26.6690  -29.1066    9.1673 O   0  0  0  0  0  0  0  0  0  0  0  0
   17.1346  -29.6448    8.3922 N   0  0  0  0  0  0  0  0  0  0  0  0
   25.7987  -27.0707    9.7650 C   0  0  1  0  0  0  0  0  0  0  0  0
   27.0574  -26.5508   10.3001 C   0  0  0  0  0  0  0  0  0  0  0  0
   28.1394  -26.6496    9.2291 C   0  0  0  0  0  0  0  0  0  0  0  0
   29.0898  -27.7820    9.4332 C   0  0  0  0  0  0  0  0  0  0  0  0
   30.1473  -27.9025    8.4110 O   0  0  0  0  0  0  0  0  0  0  0  0
   30.7484  -26.9425    7.9182 C   0  0  0  0  0  0  0  0  0  0  0  0
   26.8596  -25.1469   10.7137 O   0  0  0  0  0  0  0  0  0  0  0  0
   27.7232  -24.4621   11.3254 O   0  0  0  0  0  0  0  0  0  0  0  0
   30.4932  -29.1738    7.9708 O   0  0  0  0  0  0  0  0  0  0  0  0
  2  1  1  6
  2  3  1  0
  3  4  1  0
  4  8  1  0
  4  5  2  0
  5  6  1  0
  7  6  1  0
  8  7  2  0
  9  2  1  0
  9 19  1  0
 10  9  2  0
 12 14  1  0
 12 11  1  0
 13 12  2  0
 15 16  1  0
 15 14  1  0
 18 17  1  1
 17 16  1  0
 18 19  1  0
 20 18  1  0
 21 20  2  0
 22 20  1  0
 23 22  1  0
 23 28  1  0
 23 24  1  1
 25 24  1  0
 26 25  1  0
 27 26  2  0
 28 31  1  0
 29 28  2  0
 30 26  1  0
M  END
$$$$
