HRE.pdb
     RDKit          3D

 31 31  0  0  1  0  0  0  0  0999 V2000
   20.9418  -10.4712  -15.6151 N   0  0  0  0  0  0  0  0  0  0  0  0
   21.6943   -9.5360  -14.8127 C   0  0  1  0  0  0  0  0  0  0  0  0
   22.9597   -9.1632  -15.5332 C   0  0  0  0  0  0  0  0  0  0  0  0
   23.8381  -10.3589  -15.5606 C   0  0  0  0  0  0  0  0  0  0  0  0
   23.7411  -11.5556  -14.8825 C   0  0  0  0  0  0  0  0  0  0  0  0
   24.7822  -12.3524  -15.2291 N   0  0  0  0  0  0  0  0  0  0  0  0
   25.5162  -11.6592  -16.1114 C   0  0  0  0  0  0  0  0  0  0  0  0
   24.9467  -10.4550  -16.3122 N   0  0  0  0  0  0  0  0  0  0  0  0
   20.8485   -8.3684  -14.4871 C   0  0  0  0  0  0  0  0  0  0  0  0
   20.2115   -7.8352  -15.4299 O   0  0  0  0  0  0  0  0  0  0  0  0
   14.8636   -6.0985   -8.3998 N   0  0  0  0  0  0  0  0  0  0  0  0
   15.7235   -7.0861   -8.9581 C   0  0  0  0  0  0  0  0  0  0  0  0
   15.7835   -8.2674   -8.4675 N   0  0  0  0  0  0  0  0  0  0  0  0
   16.5561   -6.8001  -10.0905 N   0  0  0  0  0  0  0  0  0  0  0  0
   17.5579   -5.7576   -9.9710 C   0  0  0  0  0  0  0  0  0  0  0  0
   18.2954   -5.6346  -11.2641 C   0  0  0  0  0  0  0  0  0  0  0  0
   19.0784   -6.7972  -11.7110 C   0  0  0  0  0  0  0  0  0  0  0  0
   19.9198   -6.6519  -12.9305 C   0  0  2  0  0  0  0  0  0  0  0  0
   20.7157   -7.8246  -13.2000 N   0  0  0  0  0  0  0  0  0  0  0  0
   20.7080   -5.4217  -13.0658 C   0  0  0  0  0  0  0  0  0  0  0  0
   21.7300   -5.2810  -12.3466 O   0  0  0  0  0  0  0  0  0  0  0  0
   16.3230   -9.0605   -8.8405 N   0  0  0  0  0  0  0  0  0  0  0  0
   20.3863   -4.3773  -13.9707 C   0  0  2  0  0  0  0  0  0  0  0  0
   21.1768   -3.1549  -14.1184 C   0  0  0  0  0  0  0  0  0  0  0  0
   21.0058   -2.6121  -15.5340 C   0  0  0  0  0  0  0  0  0  0  0  0
   21.7569   -1.3484  -15.7913 C   0  0  0  0  0  0  0  0  0  0  0  0
   21.6520   -0.8283  -17.1683 O   0  0  0  0  0  0  0  0  0  0  0  0
   21.0872   -1.4216  -18.0928 C   0  0  0  0  0  0  0  0  0  0  0  0
   20.7208   -2.1650  -13.1217 O   0  0  0  0  0  0  0  0  0  0  0  0
   21.4349   -1.2235  -12.6830 O   0  0  0  0  0  0  0  0  0  0  0  0
   22.2228    0.4066  -17.4490 O   0  0  0  0  0  0  0  0  0  0  0  0
  2  1  1  6
  2  3  1  0
  3  4  1  0
  4  8  1  0
  4  5  2  0
  5  6  1  0
  7  6  1  0
  8  7  2  0
  9  2  1  0
  9 19  1  0
 10  9  2  0
 12 14  1  0
 12 11  1  0
 13 12  2  0
 15 16  1  0
 15 14  1  0
 18 17  1  1
 17 16  1  0
 18 19  1  0
 20 18  1  0
 21 20  2  0
 22 20  1  0
 23 22  1  0
 23 28  1  0
 23 24  1  6
 25 24  1  0
 26 25  1  0
 27 26  2  0
 28 31  1  0
 29 28  2  0
 30 26  1  0
M  END
$$$$
