HRE.pdb
     RDKit          3D

 31 31  0  0  1  0  0  0  0  0999 V2000
   17.7654  -10.3061  -16.6384 N   0  0  0  0  0  0  0  0  0  0  0  0
   17.5625   -9.4318  -17.7693 C   0  0  1  0  0  0  0  0  0  0  0  0
   16.1371   -8.9546  -17.7838 C   0  0  0  0  0  0  0  0  0  0  0  0
   15.2659  -10.1283  -18.0394 C   0  0  0  0  0  0  0  0  0  0  0  0
   15.0404  -10.8390  -19.1994 C   0  0  0  0  0  0  0  0  0  0  0  0
   14.1575  -11.8372  -18.9485 N   0  0  0  0  0  0  0  0  0  0  0  0
   13.8389  -11.7475  -17.6492 C   0  0  0  0  0  0  0  0  0  0  0  0
   14.5080  -10.7156  -17.0994 N   0  0  0  0  0  0  0  0  0  0  0  0
   18.5422   -8.3260  -17.7242 C   0  0  0  0  0  0  0  0  0  0  0  0
   18.7616   -7.7933  -16.6075 O   0  0  0  0  0  0  0  0  0  0  0  0
   24.6244   -7.7101  -23.6248 N   0  0  0  0  0  0  0  0  0  0  0  0
   23.8860   -6.5232  -23.3555 C   0  0  0  0  0  0  0  0  0  0  0  0
   24.1938   -5.4105  -23.9094 N   0  0  0  0  0  0  0  0  0  0  0  0
   22.7695   -6.5243  -22.4551 N   0  0  0  0  0  0  0  0  0  0  0  0
   22.3769   -7.7762  -21.8362 C   0  0  0  0  0  0  0  0  0  0  0  0
   21.1760   -7.5448  -20.9785 C   0  0  0  0  0  0  0  0  0  0  0  0
   21.4030   -7.0307  -19.6189 C   0  0  0  0  0  0  0  0  0  0  0  0
   20.2176   -6.7870  -18.7520 C   0  0  2  0  0  0  0  0  0  0  0  0
   19.2358   -7.8400  -18.8435 N   0  0  0  0  0  0  0  0  0  0  0  0
   19.5940   -5.4603  -18.8161 C   0  0  0  0  0  0  0  0  0  0  0  0
   18.6188   -5.2919  -19.5922 O   0  0  0  0  0  0  0  0  0  0  0  0
   23.6923   -4.5169  -23.8124 N   0  0  0  0  0  0  0  0  0  0  0  0
   20.0253   -4.3506  -18.0445 C   0  0  2  0  0  0  0  0  0  0  0  0
   19.4102   -3.0245  -18.1095 C   0  0  0  0  0  0  0  0  0  0  0  0
   18.9174   -2.6289  -16.7209 C   0  0  0  0  0  0  0  0  0  0  0  0
   18.4723   -1.2080  -16.6199 C   0  0  0  0  0  0  0  0  0  0  0  0
   17.9547   -0.8077  -15.2973 O   0  0  0  0  0  0  0  0  0  0  0  0
   17.8909   -1.5607  -14.3203 C   0  0  0  0  0  0  0  0  0  0  0  0
   20.4093   -2.0558  -18.6040 O   0  0  0  0  0  0  0  0  0  0  0  0
   20.1189   -0.9775  -19.1886 O   0  0  0  0  0  0  0  0  0  0  0  0
   17.5093    0.4980  -15.1342 O   0  0  0  0  0  0  0  0  0  0  0  0
  2  1  1  1
  2  3  1  0
  3  4  1  0
  4  8  1  0
  4  5  2  0
  5  6  1  0
  7  6  1  0
  8  7  2  0
  9  2  1  0
  9 19  1  0
 10  9  2  0
 12 14  1  0
 12 11  1  0
 13 12  2  0
 15 16  1  0
 15 14  1  0
 18 17  1  6
 17 16  1  0
 18 19  1  0
 20 18  1  0
 21 20  2  0
 22 20  1  0
 23 22  1  0
 23 28  1  0
 23 24  1  1
 25 24  1  0
 26 25  1  0
 27 26  2  0
 28 31  1  0
 29 28  2  0
 30 26  1  0
M  END
$$$$
