HRE.pdb
     RDKit          3D

 31 31  0  0  1  0  0  0  0  0999 V2000
   33.8240  -27.2427  -19.3438 N   0  0  0  0  0  0  0  0  0  0  0  0
   33.4118  -26.5584  -18.1411 C   0  0  1  0  0  0  0  0  0  0  0  0
   34.3251  -25.3909  -17.8915 C   0  0  0  0  0  0  0  0  0  0  0  0
   35.6716  -25.9256  -17.5706 C   0  0  0  0  0  0  0  0  0  0  0  0
   36.8399  -25.9053  -18.3028 C   0  0  0  0  0  0  0  0  0  0  0  0
   37.8210  -26.5216  -17.5981 N   0  0  0  0  0  0  0  0  0  0  0  0
   37.2688  -26.9194  -16.4429 C   0  0  0  0  0  0  0  0  0  0  0  0
   35.9707  -26.5599  -16.4254 N   0  0  0  0  0  0  0  0  0  0  0  0
   31.9909  -26.1675  -18.2544 C   0  0  0  0  0  0  0  0  0  0  0  0
   31.5882  -25.7712  -19.3768 O   0  0  0  0  0  0  0  0  0  0  0  0
   23.6693  -28.1902  -15.9486 N   0  0  0  0  0  0  0  0  0  0  0  0
   24.0569  -28.1596  -17.3180 C   0  0  0  0  0  0  0  0  0  0  0  0
   23.1850  -28.1963  -18.2551 N   0  0  0  0  0  0  0  0  0  0  0  0
   25.4363  -28.0863  -17.7042 N   0  0  0  0  0  0  0  0  0  0  0  0
   26.4397  -27.9191  -16.6698 C   0  0  0  0  0  0  0  0  0  0  0  0
   27.3264  -26.7713  -17.0267 C   0  0  0  0  0  0  0  0  0  0  0  0
   28.7752  -27.0232  -17.0739 C   0  0  0  0  0  0  0  0  0  0  0  0
   29.6799  -25.8754  -17.3569 C   0  0  2  0  0  0  0  0  0  0  0  0
   31.0732  -26.2120  -17.1934 N   0  0  0  0  0  0  0  0  0  0  0  0
   29.3578  -24.5893  -16.7281 C   0  0  0  0  0  0  0  0  0  0  0  0
   29.1239  -24.5667  -15.4926 O   0  0  0  0  0  0  0  0  0  0  0  0
   23.3636  -28.0994  -19.2641 N   0  0  0  0  0  0  0  0  0  0  0  0
   29.3005  -23.3607  -17.4354 C   0  0  2  0  0  0  0  0  0  0  0  0
   28.1988  -22.4047  -17.3200 C   0  0  0  0  0  0  0  0  0  0  0  0
   27.2493  -22.5851  -18.5005 C   0  0  0  0  0  0  0  0  0  0  0  0
   26.0266  -21.7325  -18.4281 C   0  0  0  0  0  0  0  0  0  0  0  0
   25.0688  -21.9180  -19.5353 O   0  0  0  0  0  0  0  0  0  0  0  0
   24.6696  -23.0181  -19.9304 C   0  0  0  0  0  0  0  0  0  0  0  0
   27.4937  -22.6369  -16.0433 O   0  0  0  0  0  0  0  0  0  0  0  0
   27.4621  -23.7459  -15.4450 O   0  0  0  0  0  0  0  0  0  0  0  0
   24.5815  -20.7872  -20.1783 O   0  0  0  0  0  0  0  0  0  0  0  0
  2  1  1  6
  2  3  1  0
  3  4  1  0
  4  8  1  0
  4  5  2  0
  5  6  1  0
  7  6  1  0
  8  7  2  0
  9  2  1  0
  9 19  1  0
 10  9  2  0
 12 14  1  0
 12 11  1  0
 13 12  2  0
 15 16  1  0
 15 14  1  0
 18 17  1  1
 17 16  1  0
 18 19  1  0
 20 18  1  0
 21 20  2  0
 22 20  1  0
 23 22  1  0
 23 28  1  0
 23 24  1  6
 25 24  1  0
 26 25  1  0
 27 26  2  0
 28 31  1  0
 29 28  2  0
 30 26  1  0
M  END
$$$$
