SGP.pdb
     RDKit          3D

 18 18  0  0  1  0  0  0  0  0999 V2000
   28.1958  -14.2425  -16.5521 O   0  0  0  0  0  0  0  0  0  0  0  0
   26.9386  -13.6744  -16.5846 C   0  0  0  0  0  0  0  0  0  0  0  0
   27.1344  -12.1690  -16.7544 C   0  0  2  0  0  0  0  0  0  0  0  0
   27.8928  -11.6230  -15.6513 N   0  0  0  0  0  0  0  0  0  0  0  0
   25.7847  -11.5681  -16.7407 C   0  0  0  0  0  0  0  0  0  0  0  0
   25.0339  -11.7528  -17.7257 O   0  0  0  0  0  0  0  0  0  0  0  0
   25.3718  -10.8022  -15.6232 N   0  0  0  0  0  0  0  0  0  0  0  0
   24.0244  -10.2471  -15.6700 C   0  0  0  0  0  0  0  0  0  0  0  0
   24.0814   -8.7682  -15.7635 C   0  0  0  0  0  0  0  0  0  0  0  0
   25.1797   -8.2032  -15.9435 O   0  0  0  0  0  0  0  0  0  0  0  0
   22.8879   -8.0456  -15.6456 N   0  0  0  0  0  0  0  0  0  0  0  0
   21.5618   -8.6141  -15.5373 C   0  0  0  0  0  0  0  0  0  0  0  0
   20.8107   -7.7625  -16.5656 C   0  0  0  0  0  0  0  0  0  0  0  0
   21.4012   -6.4058  -16.3320 C   0  0  0  0  0  0  0  0  0  0  0  0
   22.7134   -6.6118  -15.6063 C   0  0  1  0  0  0  0  0  0  0  0  0
   22.5879   -6.1316  -14.2043 C   0  0  0  0  0  0  0  0  0  0  0  0
   22.2833   -6.8725  -13.2442 O   0  0  0  0  0  0  0  0  0  0  0  0
   22.8301   -4.7748  -13.9846 O   0  0  0  0  0  0  0  0  0  0  0  0
  1  2  1  0
  3  4  1  1
  3  2  1  0
  5  3  1  0
  6  5  2  0
  7  5  1  0
  8  7  1  0
  9  8  1  0
  9 11  1  0
 10  9  2  0
 11 12  1  0
 13 12  1  0
 14 13  1  0
 15 16  1  1
 15 11  1  0
 15 14  1  0
 16 18  1  0
 17 16  2  0
M  END
$$$$
