SGP.pdb
     RDKit          3D

 18 18  0  0  1  0  0  0  0  0999 V2000
   13.8791   -6.9144  -15.1611 O   0  0  0  0  0  0  0  0  0  0  0  0
   14.4886   -8.0759  -14.7324 C   0  0  0  0  0  0  0  0  0  0  0  0
   15.0148   -8.7883  -15.9771 C   0  0  2  0  0  0  0  0  0  0  0  0
   14.2930  -10.0198  -16.2066 N   0  0  0  0  0  0  0  0  0  0  0  0
   16.4295   -9.1157  -15.7043 C   0  0  0  0  0  0  0  0  0  0  0  0
   16.6920  -10.1512  -15.0509 O   0  0  0  0  0  0  0  0  0  0  0  0
   17.4503   -8.2589  -16.1834 N   0  0  0  0  0  0  0  0  0  0  0  0
   18.8255   -8.6682  -15.9244 C   0  0  0  0  0  0  0  0  0  0  0  0
   19.3854   -7.8966  -14.7884 C   0  0  0  0  0  0  0  0  0  0  0  0
   18.6228   -7.2264  -14.0623 O   0  0  0  0  0  0  0  0  0  0  0  0
   20.7667   -7.9454  -14.5649 N   0  0  0  0  0  0  0  0  0  0  0  0
   21.7235   -8.7023  -15.3430 C   0  0  0  0  0  0  0  0  0  0  0  0
   22.5250   -9.3708  -14.2216 C   0  0  0  0  0  0  0  0  0  0  0  0
   22.6201   -8.2686  -13.2117 C   0  0  0  0  0  0  0  0  0  0  0  0
   21.5286   -7.2721  -13.5383 C   0  0  1  0  0  0  0  0  0  0  0  0
   22.1374   -6.0213  -14.0647 C   0  0  0  0  0  0  0  0  0  0  0  0
   22.5734   -5.1043  -13.3352 O   0  0  0  0  0  0  0  0  0  0  0  0
   22.2098   -5.8980  -15.4530 O   0  0  0  0  0  0  0  0  0  0  0  0
  1  2  1  0
  3  4  1  1
  3  2  1  0
  5  3  1  0
  6  5  2  0
  7  5  1  0
  8  7  1  0
  9  8  1  0
  9 11  1  0
 10  9  2  0
 11 12  1  0
 13 12  1  0
 14 13  1  0
 15 16  1  6
 15 11  1  0
 15 14  1  0
 16 18  1  0
 17 16  2  0
M  END
$$$$
