SGP.pdb
     RDKit          3D

 18 18  0  0  1  0  0  0  0  0999 V2000
   17.6060  -12.6167  -18.9052 O   0  0  0  0  0  0  0  0  0  0  0  0
   18.7656  -12.8933  -18.2101 C   0  0  0  0  0  0  0  0  0  0  0  0
   19.7634  -11.7878  -18.5505 C   0  0  2  0  0  0  0  0  0  0  0  0
   20.8636  -12.3119  -19.3283 N   0  0  0  0  0  0  0  0  0  0  0  0
   20.2917  -11.2909  -17.2633 C   0  0  0  0  0  0  0  0  0  0  0  0
   20.8339  -12.1048  -16.4812 O   0  0  0  0  0  0  0  0  0  0  0  0
   20.1747   -9.9162  -16.9436 N   0  0  0  0  0  0  0  0  0  0  0  0
   20.7491   -9.4867  -15.6741 C   0  0  0  0  0  0  0  0  0  0  0  0
   20.4561   -8.0523  -15.4373 C   0  0  0  0  0  0  0  0  0  0  0  0
   19.7409   -7.4269  -16.2467 O   0  0  0  0  0  0  0  0  0  0  0  0
   20.9976   -7.4395  -14.3008 N   0  0  0  0  0  0  0  0  0  0  0  0
   21.8070   -8.0901  -13.2932 C   0  0  0  0  0  0  0  0  0  0  0  0
   21.1251   -7.5812  -12.0194 C   0  0  0  0  0  0  0  0  0  0  0  0
   20.8262   -6.1577  -12.3777 C   0  0  0  0  0  0  0  0  0  0  0  0
   20.8756   -6.0604  -13.8873 C   0  0  1  0  0  0  0  0  0  0  0  0
   22.0714   -5.2767  -14.2970 C   0  0  0  0  0  0  0  0  0  0  0  0
   23.1970   -5.7845  -14.4933 O   0  0  0  0  0  0  0  0  0  0  0  0
   21.8914   -3.9026  -14.4622 O   0  0  0  0  0  0  0  0  0  0  0  0
  1  2  1  0
  3  4  1  6
  3  2  1  0
  5  3  1  0
  6  5  2  0
  7  5  1  0
  8  7  1  0
  9  8  1  0
  9 11  1  0
 10  9  2  0
 11 12  1  0
 13 12  1  0
 14 13  1  0
 15 16  1  1
 15 11  1  0
 15 14  1  0
 16 18  1  0
 17 16  2  0
M  END
$$$$
