SGP.pdb
     RDKit          3D

 18 18  0  0  1  0  0  0  0  0999 V2000
   18.6444  -12.9454  -16.6705 O   0  0  0  0  0  0  0  0  0  0  0  0
   17.5046  -12.2262  -16.9672 C   0  0  0  0  0  0  0  0  0  0  0  0
   17.9593  -10.9087  -17.5922 C   0  0  2  0  0  0  0  0  0  0  0  0
   18.7744  -11.1503  -18.7616 N   0  0  0  0  0  0  0  0  0  0  0  0
   18.7861  -10.2272  -16.5749 C   0  0  0  0  0  0  0  0  0  0  0  0
   18.2783   -9.9729  -15.4589 O   0  0  0  0  0  0  0  0  0  0  0  0
   20.1243   -9.8787  -16.8808 N   0  0  0  0  0  0  0  0  0  0  0  0
   20.8906   -9.2283  -15.8245 C   0  0  0  0  0  0  0  0  0  0  0  0
   20.5044   -7.8006  -15.7148 C   0  0  0  0  0  0  0  0  0  0  0  0
   19.5423   -7.3687  -16.3824 O   0  0  0  0  0  0  0  0  0  0  0  0
   21.2398   -6.9744  -14.8563 N   0  0  0  0  0  0  0  0  0  0  0  0
   22.3033   -7.4039  -13.9741 C   0  0  0  0  0  0  0  0  0  0  0  0
   21.8897   -6.6990  -12.6785 C   0  0  0  0  0  0  0  0  0  0  0  0
   21.4093   -5.3748  -13.1881 C   0  0  0  0  0  0  0  0  0  0  0  0
   21.1090   -5.5488  -14.6613 C   0  0  1  0  0  0  0  0  0  0  0  0
   22.1177   -4.8091  -15.4660 C   0  0  0  0  0  0  0  0  0  0  0  0
   23.1845   -5.3177  -15.8741 O   0  0  0  0  0  0  0  0  0  0  0  0
   21.8252   -3.4773  -15.7632 O   0  0  0  0  0  0  0  0  0  0  0  0
  1  2  1  0
  3  4  1  6
  3  2  1  0
  5  3  1  0
  6  5  2  0
  7  5  1  0
  8  7  1  0
  9  8  1  0
  9 11  1  0
 10  9  2  0
 11 12  1  0
 13 12  1  0
 14 13  1  0
 15 16  1  6
 15 11  1  0
 15 14  1  0
 16 18  1  0
 17 16  2  0
M  END
$$$$
