CWR.pdb
     RDKit          3D

 32 33  0  0  1  0  0  0  0  0999 V2000
    7.4007  -14.5323   19.8575 N   0  0  0  0  0  0  0  0  0  0  0  0
    7.0907  -15.4287   20.9237 C   0  0  1  0  0  0  0  0  0  0  0  0
    6.8340  -16.8421   20.4501 C   0  0  0  0  0  0  0  0  0  0  0  0
    8.3378  -17.8166   20.3183 S   0  0  0  0  0  0  0  0  0  0  0  0
    8.1598  -15.3773   21.9463 C   0  0  0  0  0  0  0  0  0  0  0  0
    9.2574  -14.8173   21.7336 O   0  0  0  0  0  0  0  0  0  0  0  0
    7.9457  -15.9781   23.2120 N   0  0  0  0  0  0  0  0  0  0  0  0
    8.8669  -16.0408   24.2788 C   0  0  1  0  0  0  0  0  0  0  0  0
    8.3203  -15.8424   25.6788 C   0  0  0  0  0  0  0  0  0  0  0  0
    7.1756  -14.9015   25.6803 C   0  0  0  0  0  0  0  0  0  0  0  0
    5.8529  -15.1310   25.4586 C   0  0  0  0  0  0  0  0  0  0  0  0
    5.1655  -13.9710   25.5660 N   0  0  0  0  0  0  0  0  0  0  0  0
    5.9949  -12.9638   25.8562 C   0  0  0  0  0  0  0  0  0  0  0  0
    5.8262  -11.6164   26.0729 C   0  0  0  0  0  0  0  0  0  0  0  0
    6.9334  -10.8516   26.3648 C   0  0  0  0  0  0  0  0  0  0  0  0
    8.1870  -11.4091   26.4413 C   0  0  0  0  0  0  0  0  0  0  0  0
    8.3751  -12.7774   26.2233 C   0  0  0  0  0  0  0  0  0  0  0  0
    7.2506  -13.5215   25.9322 C   0  0  0  0  0  0  0  0  0  0  0  0
    9.8436  -17.1126   24.2877 C   0  0  0  0  0  0  0  0  0  0  0  0
    9.3810  -18.3002   24.3911 O   0  0  0  0  0  0  0  0  0  0  0  0
   15.3656  -14.6769   20.2109 N   0  0  0  0  0  0  0  0  0  0  0  0
   14.1713  -15.1328   19.6043 C   0  0  0  0  0  0  0  0  0  0  0  0
   13.5919  -14.4047   18.6870 N   0  0  0  0  0  0  0  0  0  0  0  0
   13.5464  -16.3647   19.9389 N   0  0  0  0  0  0  0  0  0  0  0  0
   13.9883  -17.1779   21.0587 C   0  0  0  0  0  0  0  0  0  0  0  0
   12.8598  -17.2114   22.0946 C   0  0  0  0  0  0  0  0  0  0  0  0
   13.2874  -17.9450   23.3273 C   0  0  0  0  0  0  0  0  0  0  0  0
   12.1675  -18.1153   24.2896 C   0  0  2  0  0  0  0  0  0  0  0  0
   11.2316  -16.9831   24.1953 N   0  0  0  0  0  0  0  0  0  0  0  0
   12.6510  -18.2678   25.6581 C   0  0  0  0  0  0  0  0  0  0  0  0
   13.3917  -19.3232   26.1239 O   0  0  0  0  0  0  0  0  0  0  0  0
   12.3726  -17.3597   26.5116 O   0  0  0  0  0  0  0  0  0  0  0  0
  2  3  1  0
  2  1  1  6
  3  4  1  0
  5  2  1  0
  6  5  2  0
  7  5  1  0
  8  7  1  0
  9 10  1  0
  8  9  1  1
 10 11  2  0
 11 12  1  0
 13 14  2  0
 13 12  1  0
 15 14  1  0
 16 15  2  0
 17 16  1  0
 17 18  2  0
 18 10  1  0
 18 13  1  0
 19  8  1  0
 19 29  1  0
 20 19  2  0
 22 21  1  0
 23 22  2  0
 24 22  1  0
 25 26  1  0
 25 24  1  0
 26 27  1  0
 28 27  1  6
 28 29  1  0
 28 30  1  0
 30 32  2  0
 30 31  1  0
M  END
$$$$
