CWR.pdb
     RDKit          3D

 32 33  0  0  1  0  0  0  0  0999 V2000
    6.4869  -19.2829   18.4330 N   0  0  0  0  0  0  0  0  0  0  0  0
    6.3018  -19.2572   19.8477 C   0  0  1  0  0  0  0  0  0  0  0  0
    6.5770  -20.5924   20.5029 C   0  0  0  0  0  0  0  0  0  0  0  0
    7.7441  -21.5960   19.5761 S   0  0  0  0  0  0  0  0  0  0  0  0
    7.1214  -18.1755   20.4391 C   0  0  0  0  0  0  0  0  0  0  0  0
    8.1478  -17.7352   19.8766 O   0  0  0  0  0  0  0  0  0  0  0  0
    6.7420  -17.6114   21.6827 N   0  0  0  0  0  0  0  0  0  0  0  0
    7.3338  -16.4981   22.3158 C   0  0  1  0  0  0  0  0  0  0  0  0
    6.4213  -15.5904   23.1168 C   0  0  0  0  0  0  0  0  0  0  0  0
    7.1266  -14.3583   23.5410 C   0  0  0  0  0  0  0  0  0  0  0  0
    7.9301  -13.5205   22.8310 C   0  0  0  0  0  0  0  0  0  0  0  0
    8.3542  -12.5131   23.6278 N   0  0  0  0  0  0  0  0  0  0  0  0
    7.8541  -12.6518   24.8595 C   0  0  0  0  0  0  0  0  0  0  0  0
    7.9590  -11.9266   26.0231 C   0  0  0  0  0  0  0  0  0  0  0  0
    7.2838  -12.3685   27.1388 C   0  0  0  0  0  0  0  0  0  0  0  0
    6.5173  -13.5084   27.1054 C   0  0  0  0  0  0  0  0  0  0  0  0
    6.4007  -14.2569   25.9300 C   0  0  0  0  0  0  0  0  0  0  0  0
    7.0870  -13.7938   24.8267 C   0  0  0  0  0  0  0  0  0  0  0  0
    8.5777  -16.6916   23.0357 C   0  0  0  0  0  0  0  0  0  0  0  0
    8.5634  -17.5683   23.9664 O   0  0  0  0  0  0  0  0  0  0  0  0
   15.5359  -15.5821   25.0810 N   0  0  0  0  0  0  0  0  0  0  0  0
   15.9347  -16.7366   24.3666 C   0  0  0  0  0  0  0  0  0  0  0  0
   16.5805  -17.6897   24.9844 N   0  0  0  0  0  0  0  0  0  0  0  0
   15.6701  -16.9291   22.9835 N   0  0  0  0  0  0  0  0  0  0  0  0
   14.4323  -16.4886   22.3634 C   0  0  0  0  0  0  0  0  0  0  0  0
   13.4978  -15.9918   23.4712 C   0  0  0  0  0  0  0  0  0  0  0  0
   12.1728  -15.5813   22.9087 C   0  0  0  0  0  0  0  0  0  0  0  0
   11.0630  -16.4213   23.4304 C   0  0  2  0  0  0  0  0  0  0  0  0
    9.7848  -16.0227   22.8188 N   0  0  0  0  0  0  0  0  0  0  0  0
   10.9767  -16.3572   24.8858 C   0  0  0  0  0  0  0  0  0  0  0  0
   10.2376  -15.4474   25.5967 O   0  0  0  0  0  0  0  0  0  0  0  0
   11.6363  -17.2045   25.5770 O   0  0  0  0  0  0  0  0  0  0  0  0
  2  3  1  0
  2  1  1  6
  3  4  1  0
  5  2  1  0
  6  5  2  0
  7  5  1  0
  8  7  1  0
  9 10  1  0
  8  9  1  1
 10 11  2  0
 11 12  1  0
 13 14  2  0
 13 12  1  0
 15 14  1  0
 16 15  2  0
 17 16  1  0
 17 18  2  0
 18 10  1  0
 18 13  1  0
 19  8  1  0
 19 29  1  0
 20 19  2  0
 22 21  1  0
 23 22  2  0
 24 22  1  0
 25 26  1  0
 25 24  1  0
 26 27  1  0
 28 27  1  6
 28 29  1  0
 28 30  1  0
 30 32  2  0
 30 31  1  0
M  END
$$$$
