CWR.pdb
     RDKit          3D

 32 33  0  0  1  0  0  0  0  0999 V2000
    7.3582  -13.8064   20.2505 N   0  0  0  0  0  0  0  0  0  0  0  0
    7.3141  -15.0894   20.8737 C   0  0  1  0  0  0  0  0  0  0  0  0
    7.3881  -16.2294   19.8826 C   0  0  0  0  0  0  0  0  0  0  0  0
    7.3769  -17.8426   20.6739 S   0  0  0  0  0  0  0  0  0  0  0  0
    8.3772  -15.1831   21.8996 C   0  0  0  0  0  0  0  0  0  0  0  0
    9.4949  -14.6425   21.7507 O   0  0  0  0  0  0  0  0  0  0  0  0
    8.1339  -15.9060   23.0942 N   0  0  0  0  0  0  0  0  0  0  0  0
    9.0424  -16.1062   24.1549 C   0  0  1  0  0  0  0  0  0  0  0  0
    8.4923  -16.0169   25.5646 C   0  0  0  0  0  0  0  0  0  0  0  0
    7.3898  -15.0306   25.6497 C   0  0  0  0  0  0  0  0  0  0  0  0
    6.0568  -15.1853   25.4245 C   0  0  0  0  0  0  0  0  0  0  0  0
    5.4215  -14.0085   25.6272 N   0  0  0  0  0  0  0  0  0  0  0  0
    6.2960  -13.0631   25.9851 C   0  0  0  0  0  0  0  0  0  0  0  0
    6.1878  -11.7303   26.3059 C   0  0  0  0  0  0  0  0  0  0  0  0
    7.3293  -11.0386   26.6440 C   0  0  0  0  0  0  0  0  0  0  0  0
    8.5579  -11.6536   26.6650 C   0  0  0  0  0  0  0  0  0  0  0  0
    8.6845  -13.0080   26.3412 C   0  0  0  0  0  0  0  0  0  0  0  0
    7.5267  -13.6785   26.0055 C   0  0  0  0  0  0  0  0  0  0  0  0
    9.9746  -17.2136   24.0680 C   0  0  0  0  0  0  0  0  0  0  0  0
    9.5209  -18.3633   24.3963 O   0  0  0  0  0  0  0  0  0  0  0  0
   12.6693  -15.2570   19.1076 N   0  0  0  0  0  0  0  0  0  0  0  0
   13.8914  -14.7829   19.6403 C   0  0  0  0  0  0  0  0  0  0  0  0
   14.3065  -13.5812   19.3391 N   0  0  0  0  0  0  0  0  0  0  0  0
   14.7172  -15.5520   20.5044 N   0  0  0  0  0  0  0  0  0  0  0  0
   14.4054  -16.9279   20.8512 C   0  0  0  0  0  0  0  0  0  0  0  0
   13.4541  -16.9101   22.0522 C   0  0  0  0  0  0  0  0  0  0  0  0
   13.0841  -18.3015   22.4617 C   0  0  0  0  0  0  0  0  0  0  0  0
   12.2188  -18.3139   23.6702 C   0  0  2  0  0  0  0  0  0  0  0  0
   11.3108  -17.1554   23.6647 N   0  0  0  0  0  0  0  0  0  0  0  0
   13.0076  -18.3409   24.8977 C   0  0  0  0  0  0  0  0  0  0  0  0
   12.9759  -17.3865   25.8814 O   0  0  0  0  0  0  0  0  0  0  0  0
   13.8022  -19.3210   25.0945 O   0  0  0  0  0  0  0  0  0  0  0  0
  2  3  1  0
  2  1  1  6
  3  4  1  0
  5  2  1  0
  6  5  2  0
  7  5  1  0
  8  7  1  0
  9 10  1  0
  8  9  1  1
 10 11  2  0
 11 12  1  0
 13 14  2  0
 13 12  1  0
 15 14  1  0
 16 15  2  0
 17 16  1  0
 17 18  2  0
 18 10  1  0
 18 13  1  0
 19  8  1  0
 19 29  1  0
 20 19  2  0
 22 21  1  0
 23 22  2  0
 24 22  1  0
 25 26  1  0
 25 24  1  0
 26 27  1  0
 28 27  1  6
 28 29  1  0
 28 30  1  0
 30 32  2  0
 30 31  1  0
M  END
$$$$
