CWR.pdb
     RDKit          3D

 32 33  0  0  1  0  0  0  0  0999 V2000
    6.5266  -15.5500   20.3327 N   0  0  0  0  0  0  0  0  0  0  0  0
    6.7457  -16.4857   21.3876 C   0  0  1  0  0  0  0  0  0  0  0  0
    6.7498  -17.9212   20.9112 C   0  0  0  0  0  0  0  0  0  0  0  0
    6.9949  -19.0979   22.2469 S   0  0  0  0  0  0  0  0  0  0  0  0
    7.9921  -16.1424   22.1088 C   0  0  0  0  0  0  0  0  0  0  0  0
    8.9727  -15.6229   21.5324 O   0  0  0  0  0  0  0  0  0  0  0  0
    8.0908  -16.4056   23.4979 N   0  0  0  0  0  0  0  0  0  0  0  0
    9.2175  -16.1827   24.3173 C   0  0  1  0  0  0  0  0  0  0  0  0
    8.9597  -15.7547   25.7485 C   0  0  0  0  0  0  0  0  0  0  0  0
    7.7505  -14.9038   25.8454 C   0  0  0  0  0  0  0  0  0  0  0  0
    6.4379  -15.2531   25.9264 C   0  0  0  0  0  0  0  0  0  0  0  0
    5.6746  -14.1391   26.0038 N   0  0  0  0  0  0  0  0  0  0  0  0
    6.4429  -13.0458   25.9777 C   0  0  0  0  0  0  0  0  0  0  0  0
    6.1891  -11.6953   26.0313 C   0  0  0  0  0  0  0  0  0  0  0  0
    7.2527  -10.8220   25.9856 C   0  0  0  0  0  0  0  0  0  0  0  0
    8.5461  -11.2756   25.8886 C   0  0  0  0  0  0  0  0  0  0  0  0
    8.8206  -12.6456   25.8329 C   0  0  0  0  0  0  0  0  0  0  0  0
    7.7384  -13.4995   25.8798 C   0  0  0  0  0  0  0  0  0  0  0  0
   10.2969  -17.1507   24.2883 C   0  0  0  0  0  0  0  0  0  0  0  0
   10.0087  -18.3328   24.6817 O   0  0  0  0  0  0  0  0  0  0  0  0
   12.7892  -14.8026   18.1101 N   0  0  0  0  0  0  0  0  0  0  0  0
   13.7720  -14.4541   19.0666 C   0  0  0  0  0  0  0  0  0  0  0  0
   14.4481  -13.3449   18.9259 N   0  0  0  0  0  0  0  0  0  0  0  0
   14.0777  -15.2557   20.1997 N   0  0  0  0  0  0  0  0  0  0  0  0
   13.2541  -16.3858   20.5936 C   0  0  0  0  0  0  0  0  0  0  0  0
   13.8612  -16.9957   21.8613 C   0  0  0  0  0  0  0  0  0  0  0  0
   13.0432  -18.1535   22.3420 C   0  0  0  0  0  0  0  0  0  0  0  0
   12.6256  -17.9889   23.7589 C   0  0  2  0  0  0  0  0  0  0  0  0
   11.6130  -16.9271   23.8768 N   0  0  0  0  0  0  0  0  0  0  0  0
   13.7644  -17.7098   24.6277 C   0  0  0  0  0  0  0  0  0  0  0  0
   14.7978  -18.5740   24.8821 O   0  0  0  0  0  0  0  0  0  0  0  0
   13.8258  -16.5766   25.2132 O   0  0  0  0  0  0  0  0  0  0  0  0
  2  3  1  0
  2  1  1  6
  3  4  1  0
  5  2  1  0
  6  5  2  0
  7  5  1  0
  8  7  1  0
  9 10  1  0
  8  9  1  1
 10 11  2  0
 11 12  1  0
 13 14  2  0
 13 12  1  0
 15 14  1  0
 16 15  2  0
 17 16  1  0
 17 18  2  0
 18 10  1  0
 18 13  1  0
 19  8  1  0
 19 29  1  0
 20 19  2  0
 22 21  1  0
 23 22  2  0
 24 22  1  0
 25 26  1  0
 25 24  1  0
 26 27  1  0
 28 27  1  6
 28 29  1  0
 28 30  1  0
 30 32  2  0
 30 31  1  0
M  END
$$$$
