CWR.pdb
     RDKit          3D

 32 33  0  0  1  0  0  0  0  0999 V2000
    6.7968  -14.4380   20.0171 N   0  0  0  0  0  0  0  0  0  0  0  0
    7.1159  -15.5879   20.7996 C   0  0  1  0  0  0  0  0  0  0  0  0
    7.5136  -16.7811   19.9595 C   0  0  0  0  0  0  0  0  0  0  0  0
    7.5907  -18.3058   20.9072 S   0  0  0  0  0  0  0  0  0  0  0  0
    8.1583  -15.2428   21.7925 C   0  0  0  0  0  0  0  0  0  0  0  0
    9.0248  -14.3689   21.5709 O   0  0  0  0  0  0  0  0  0  0  0  0
    8.1868  -15.9169   23.0389 N   0  0  0  0  0  0  0  0  0  0  0  0
    9.1890  -15.8147   24.0266 C   0  0  1  0  0  0  0  0  0  0  0  0
    8.7331  -15.7233   25.4694 C   0  0  0  0  0  0  0  0  0  0  0  0
    7.5787  -14.8052   25.6111 C   0  0  0  0  0  0  0  0  0  0  0  0
    6.2436  -15.0665   25.5857 C   0  0  0  0  0  0  0  0  0  0  0  0
    5.5517  -13.9176   25.7615 N   0  0  0  0  0  0  0  0  0  0  0  0
    6.3902  -12.8868   25.9059 C   0  0  0  0  0  0  0  0  0  0  0  0
    6.2228  -11.5375   26.1114 C   0  0  0  0  0  0  0  0  0  0  0  0
    7.3421  -10.7436   26.2236 C   0  0  0  0  0  0  0  0  0  0  0  0
    8.6065  -11.2741   26.1344 C   0  0  0  0  0  0  0  0  0  0  0  0
    8.7934  -12.6441   25.9254 C   0  0  0  0  0  0  0  0  0  0  0  0
    7.6566  -13.4177   25.8158 C   0  0  0  0  0  0  0  0  0  0  0  0
   10.3407  -16.6914   23.9373 C   0  0  0  0  0  0  0  0  0  0  0  0
   10.1288  -17.9309   24.1694 O   0  0  0  0  0  0  0  0  0  0  0  0
   14.3995  -14.9603   18.0898 N   0  0  0  0  0  0  0  0  0  0  0  0
   14.7762  -14.2460   19.2518 C   0  0  0  0  0  0  0  0  0  0  0  0
   15.7055  -13.3307   19.1766 N   0  0  0  0  0  0  0  0  0  0  0  0
   14.1920  -14.4678   20.5283 N   0  0  0  0  0  0  0  0  0  0  0  0
   13.1409  -15.4483   20.7389 C   0  0  0  0  0  0  0  0  0  0  0  0
   13.7850  -16.7209   21.2984 C   0  0  0  0  0  0  0  0  0  0  0  0
   13.9104  -16.6461   22.7881 C   0  0  0  0  0  0  0  0  0  0  0  0
   12.7576  -17.2842   23.4759 C   0  0  2  0  0  0  0  0  0  0  0  0
   11.6520  -16.3241   23.6252 N   0  0  0  0  0  0  0  0  0  0  0  0
   13.1398  -17.8317   24.7736 C   0  0  0  0  0  0  0  0  0  0  0  0
   12.6089  -17.4551   25.9801 O   0  0  0  0  0  0  0  0  0  0  0  0
   14.0421  -18.7342   24.8166 O   0  0  0  0  0  0  0  0  0  0  0  0
  2  3  1  0
  2  1  1  6
  3  4  1  0
  5  2  1  0
  6  5  2  0
  7  5  1  0
  8  7  1  0
  9 10  1  0
  8  9  1  1
 10 11  2  0
 11 12  1  0
 13 14  2  0
 13 12  1  0
 15 14  1  0
 16 15  2  0
 17 16  1  0
 17 18  2  0
 18 10  1  0
 18 13  1  0
 19  8  1  0
 19 29  1  0
 20 19  2  0
 22 21  1  0
 23 22  2  0
 24 22  1  0
 25 26  1  0
 25 24  1  0
 26 27  1  0
 28 27  1  1
 28 29  1  0
 28 30  1  0
 30 32  2  0
 30 31  1  0
M  END
$$$$
