CWR.pdb
     RDKit          3D

 32 33  0  0  1  0  0  0  0  0999 V2000
    6.6364  -14.4897   19.9650 N   0  0  0  0  0  0  0  0  0  0  0  0
    6.5546  -15.5001   20.9694 C   0  0  1  0  0  0  0  0  0  0  0  0
    6.3554  -16.8859   20.3972 C   0  0  0  0  0  0  0  0  0  0  0  0
    7.6858  -18.0149   20.8264 S   0  0  0  0  0  0  0  0  0  0  0  0
    7.7472  -15.4327   21.8438 C   0  0  0  0  0  0  0  0  0  0  0  0
    8.8199  -14.9121   21.4669 O   0  0  0  0  0  0  0  0  0  0  0  0
    7.6852  -15.9718   23.1531 N   0  0  0  0  0  0  0  0  0  0  0  0
    8.7270  -15.9902   24.1043 C   0  0  1  0  0  0  0  0  0  0  0  0
    8.3296  -16.0415   25.5663 C   0  0  0  0  0  0  0  0  0  0  0  0
    7.2421  -15.0794   25.8616 C   0  0  0  0  0  0  0  0  0  0  0  0
    5.9049  -15.2863   26.0061 C   0  0  0  0  0  0  0  0  0  0  0  0
    5.2897  -14.1127   26.2775 N   0  0  0  0  0  0  0  0  0  0  0  0
    6.1819  -13.1185   26.3204 C   0  0  0  0  0  0  0  0  0  0  0  0
    6.0985  -11.7662   26.5553 C   0  0  0  0  0  0  0  0  0  0  0  0
    7.2551  -11.0195   26.5286 C   0  0  0  0  0  0  0  0  0  0  0  0
    8.4744  -11.5995   26.2740 C   0  0  0  0  0  0  0  0  0  0  0  0
    8.5759  -12.9731   26.0329 C   0  0  0  0  0  0  0  0  0  0  0  0
    7.4032  -13.6988   26.0646 C   0  0  0  0  0  0  0  0  0  0  0  0
    9.8554  -16.8726   23.8780 C   0  0  0  0  0  0  0  0  0  0  0  0
    9.6791  -18.1047   24.1711 O   0  0  0  0  0  0  0  0  0  0  0  0
   17.1119  -17.4018   19.9557 N   0  0  0  0  0  0  0  0  0  0  0  0
   16.8532  -18.7649   20.2333 C   0  0  0  0  0  0  0  0  0  0  0  0
   17.8169  -19.6412   20.1297 N   0  0  0  0  0  0  0  0  0  0  0  0
   15.5781  -19.2532   20.6277 N   0  0  0  0  0  0  0  0  0  0  0  0
   14.4245  -18.3813   20.7673 C   0  0  0  0  0  0  0  0  0  0  0  0
   14.4544  -17.7773   22.1751 C   0  0  0  0  0  0  0  0  0  0  0  0
   13.3028  -16.8434   22.3807 C   0  0  0  0  0  0  0  0  0  0  0  0
   12.2056  -17.4762   23.1583 C   0  0  2  0  0  0  0  0  0  0  0  0
   11.1095  -16.5179   23.3750 N   0  0  0  0  0  0  0  0  0  0  0  0
   12.6830  -18.0052   24.4319 C   0  0  0  0  0  0  0  0  0  0  0  0
   12.7026  -17.3183   25.6181 O   0  0  0  0  0  0  0  0  0  0  0  0
   13.1269  -19.2020   24.4710 O   0  0  0  0  0  0  0  0  0  0  0  0
  2  3  1  0
  2  1  1  6
  3  4  1  0
  5  2  1  0
  6  5  2  0
  7  5  1  0
  8  7  1  0
  9 10  1  0
  8  9  1  1
 10 11  2  0
 11 12  1  0
 13 14  2  0
 13 12  1  0
 15 14  1  0
 16 15  2  0
 17 16  1  0
 17 18  2  0
 18 10  1  0
 18 13  1  0
 19  8  1  0
 19 29  1  0
 20 19  2  0
 22 21  1  0
 23 22  2  0
 24 22  1  0
 25 26  1  0
 25 24  1  0
 26 27  1  0
 28 27  1  1
 28 29  1  0
 28 30  1  0
 30 32  2  0
 30 31  1  0
M  END
$$$$
