CWR.pdb
     RDKit          3D

 32 33  0  0  1  0  0  0  0  0999 V2000
    6.4971  -17.7960   19.0227 N   0  0  0  0  0  0  0  0  0  0  0  0
    6.7088  -18.5504   20.2154 C   0  0  1  0  0  0  0  0  0  0  0  0
    7.4498  -19.8459   19.9702 C   0  0  0  0  0  0  0  0  0  0  0  0
    7.6645  -20.8195   21.4650 S   0  0  0  0  0  0  0  0  0  0  0  0
    7.3917  -17.7090   21.2239 C   0  0  0  0  0  0  0  0  0  0  0  0
    8.4741  -17.1303   20.9847 O   0  0  0  0  0  0  0  0  0  0  0  0
    6.8110  -17.5453   22.5064 N   0  0  0  0  0  0  0  0  0  0  0  0
    7.3847  -16.8787   23.6096 C   0  0  1  0  0  0  0  0  0  0  0  0
    6.4625  -16.5178   24.7573 C   0  0  0  0  0  0  0  0  0  0  0  0
    7.1615  -15.6906   25.7686 C   0  0  0  0  0  0  0  0  0  0  0  0
    7.9384  -16.0648   26.8212 C   0  0  0  0  0  0  0  0  0  0  0  0
    8.3759  -14.9658   27.4772 N   0  0  0  0  0  0  0  0  0  0  0  0
    7.9123  -13.8581   26.8903 C   0  0  0  0  0  0  0  0  0  0  0  0
    8.0516  -12.5127   27.1382 C   0  0  0  0  0  0  0  0  0  0  0  0
    7.4211  -11.6191   26.3017 C   0  0  0  0  0  0  0  0  0  0  0  0
    6.6653  -12.0477   25.2372 C   0  0  0  0  0  0  0  0  0  0  0  0
    6.5137  -13.4123   24.9719 C   0  0  0  0  0  0  0  0  0  0  0  0
    7.1545  -14.2870   25.8245 C   0  0  0  0  0  0  0  0  0  0  0  0
    8.6441  -17.3687   24.1359 C   0  0  0  0  0  0  0  0  0  0  0  0
    8.7050  -18.6214   24.3853 O   0  0  0  0  0  0  0  0  0  0  0  0
   15.4765  -19.0640   23.8425 N   0  0  0  0  0  0  0  0  0  0  0  0
   16.0914  -18.0840   23.0278 C   0  0  0  0  0  0  0  0  0  0  0  0
   17.3944  -18.0344   22.9460 N   0  0  0  0  0  0  0  0  0  0  0  0
   15.3615  -17.1256   22.2736 N   0  0  0  0  0  0  0  0  0  0  0  0
   14.4590  -16.1735   22.8979 C   0  0  0  0  0  0  0  0  0  0  0  0
   13.4977  -16.9535   23.8006 C   0  0  0  0  0  0  0  0  0  0  0  0
   12.0890  -16.4830   23.6142 C   0  0  0  0  0  0  0  0  0  0  0  0
   11.1413  -17.1964   24.5098 C   0  0  2  0  0  0  0  0  0  0  0  0
    9.7926  -16.6176   24.3976 N   0  0  0  0  0  0  0  0  0  0  0  0
   11.5931  -17.1779   25.8973 C   0  0  0  0  0  0  0  0  0  0  0  0
   12.5568  -17.9958   26.4280 O   0  0  0  0  0  0  0  0  0  0  0  0
   11.0612  -16.3433   26.7043 O   0  0  0  0  0  0  0  0  0  0  0  0
  2  3  1  0
  2  1  1  6
  3  4  1  0
  5  2  1  0
  6  5  2  0
  7  5  1  0
  8  7  1  0
  9 10  1  0
  8  9  1  1
 10 11  2  0
 11 12  1  0
 13 14  2  0
 13 12  1  0
 15 14  1  0
 16 15  2  0
 17 16  1  0
 17 18  2  0
 18 10  1  0
 18 13  1  0
 19  8  1  0
 19 29  1  0
 20 19  2  0
 22 21  1  0
 23 22  2  0
 24 22  1  0
 25 26  1  0
 25 24  1  0
 26 27  1  0
 28 27  1  6
 28 29  1  0
 28 30  1  0
 30 32  2  0
 30 31  1  0
M  END
$$$$
