CWR.pdb
     RDKit          3D

 32 33  0  0  1  0  0  0  0  0999 V2000
    9.3007  -15.0864   18.0535 N   0  0  0  0  0  0  0  0  0  0  0  0
    8.6858  -16.0884   18.8623 C   0  0  1  0  0  0  0  0  0  0  0  0
    9.0804  -17.4929   18.4632 C   0  0  0  0  0  0  0  0  0  0  0  0
    8.4719  -18.7389   19.6058 S   0  0  0  0  0  0  0  0  0  0  0  0
    8.9712  -15.8221   20.2903 C   0  0  0  0  0  0  0  0  0  0  0  0
   10.1345  -15.6498   20.7153 O   0  0  0  0  0  0  0  0  0  0  0  0
    7.9005  -15.7577   21.2168 N   0  0  0  0  0  0  0  0  0  0  0  0
    8.0084  -15.6331   22.6180 C   0  0  1  0  0  0  0  0  0  0  0  0
    6.7254  -15.4125   23.3948 C   0  0  0  0  0  0  0  0  0  0  0  0
    7.0052  -15.0875   24.8131 C   0  0  0  0  0  0  0  0  0  0  0  0
    7.3868  -15.8967   25.8384 C   0  0  0  0  0  0  0  0  0  0  0  0
    7.5333  -15.1641   26.9659 N   0  0  0  0  0  0  0  0  0  0  0  0
    7.2599  -13.8783   26.7243 C   0  0  0  0  0  0  0  0  0  0  0  0
    7.2577  -12.7386   27.4938 C   0  0  0  0  0  0  0  0  0  0  0  0
    6.9210  -11.5427   26.9002 C   0  0  0  0  0  0  0  0  0  0  0  0
    6.5918  -11.4738   25.5679 C   0  0  0  0  0  0  0  0  0  0  0  0
    6.5892  -12.6237   24.7722 C   0  0  0  0  0  0  0  0  0  0  0  0
    6.9295  -13.8090   25.3902 C   0  0  0  0  0  0  0  0  0  0  0  0
    8.8525  -16.5706   23.3332 C   0  0  0  0  0  0  0  0  0  0  0  0
    8.6421  -17.8110   23.1047 O   0  0  0  0  0  0  0  0  0  0  0  0
   12.4215  -15.7266   19.8126 N   0  0  0  0  0  0  0  0  0  0  0  0
   13.6824  -15.4566   20.3951 C   0  0  0  0  0  0  0  0  0  0  0  0
   14.4558  -14.5432   19.8711 N   0  0  0  0  0  0  0  0  0  0  0  0
   14.1731  -16.1345   21.5439 N   0  0  0  0  0  0  0  0  0  0  0  0
   13.4640  -17.2503   22.1462 C   0  0  0  0  0  0  0  0  0  0  0  0
   12.4930  -16.6873   23.1892 C   0  0  0  0  0  0  0  0  0  0  0  0
   11.7165  -17.7864   23.8448 C   0  0  0  0  0  0  0  0  0  0  0  0
   10.7552  -17.2642   24.8511 C   0  0  2  0  0  0  0  0  0  0  0  0
    9.8672  -16.2607   24.2420 N   0  0  0  0  0  0  0  0  0  0  0  0
   11.4405  -16.7050   26.0119 C   0  0  0  0  0  0  0  0  0  0  0  0
   12.2541  -17.4047   26.8651 O   0  0  0  0  0  0  0  0  0  0  0  0
   11.2838  -15.4660   26.2783 O   0  0  0  0  0  0  0  0  0  0  0  0
  2  3  1  0
  2  1  1  6
  3  4  1  0
  5  2  1  0
  6  5  2  0
  7  5  1  0
  8  7  1  0
  9 10  1  0
  8  9  1  1
 10 11  2  0
 11 12  1  0
 13 14  2  0
 13 12  1  0
 15 14  1  0
 16 15  2  0
 17 16  1  0
 17 18  2  0
 18 10  1  0
 18 13  1  0
 19  8  1  0
 19 29  1  0
 20 19  2  0
 22 21  1  0
 23 22  2  0
 24 22  1  0
 25 26  1  0
 25 24  1  0
 26 27  1  0
 28 27  1  6
 28 29  1  0
 28 30  1  0
 30 32  2  0
 30 31  1  0
M  END
$$$$
