DGM.pdb
     RDKit          3D

 21 20  0  0  1  0  0  0  0  0999 V2000
   26.2014  -19.8607  -15.9087 N   0  0  0  0  0  0  0  0  0  0  0  0
   25.0228  -20.2683  -15.2279 C   0  0  1  0  0  0  0  0  0  0  0  0
   24.9107  -21.7943  -15.3799 C   0  0  0  0  0  0  0  0  0  0  0  0
   24.7501  -22.0864  -16.8344 C   0  0  0  0  0  0  0  0  0  0  0  0
   23.6080  -22.2057  -17.3508 O   0  0  0  0  0  0  0  0  0  0  0  0
   25.1229  -19.9127  -13.7848 C   0  0  0  0  0  0  0  0  0  0  0  0
   24.1707  -20.1938  -13.0145 O   0  0  0  0  0  0  0  0  0  0  0  0
   25.8718  -22.2236  -17.6037 O   0  0  0  0  0  0  0  0  0  0  0  0
   26.2908  -19.2650  -13.3093 N   0  0  0  0  0  0  0  0  0  0  0  0
   26.3303  -18.8679  -11.9186 C   0  0  0  0  0  0  0  0  0  0  0  0
   26.5348  -20.0930  -11.0753 C   0  0  0  0  0  0  0  0  0  0  0  0
   27.3845  -20.9041  -11.4163 O   0  0  0  0  0  0  0  0  0  0  0  0
   28.9701  -20.1617   -4.1204 C   0  0  0  0  0  0  0  0  0  0  0  0
   28.5401  -19.3712   -5.6984 S   0  0  0  0  0  0  0  0  0  0  0  0
   27.3705  -20.4239   -6.5557 C   0  0  0  0  0  0  0  0  0  0  0  0
   26.9786  -19.8897   -7.8771 C   0  0  0  0  0  0  0  0  0  0  0  0
   26.0339  -20.7395   -8.6578 C   0  0  2  0  0  0  0  0  0  0  0  0
   25.7358  -20.2482   -9.9315 N   0  0  0  0  0  0  0  0  0  0  0  0
   24.8899  -21.1723   -7.7939 C   0  0  0  0  0  0  0  0  0  0  0  0
   24.9252  -21.7093   -6.6987 O   0  0  0  0  0  0  0  0  0  0  0  0
   23.5906  -20.9278   -8.3147 O   0  0  0  0  0  0  0  0  0  0  0  0
  2  3  1  0
  2  1  1  6
  3  4  1  0
  4  5  2  0
  4  8  1  0
  6  2  1  0
  7  6  2  0
  9  6  1  0
 10 11  1  0
 10  9  1  0
 11 18  1  0
 12 11  2  0
 13 14  1  0
 14 15  1  0
 15 16  1  0
 17 16  1  1
 18 17  1  0
 19 17  1  0
 20 19  2  0
 21 19  1  0
M  END
$$$$
