DGM.pdb
     RDKit          3D

 21 20  0  0  1  0  0  0  0  0999 V2000
   16.9657  -11.5076  -15.0076 N   0  0  0  0  0  0  0  0  0  0  0  0
   18.2661  -11.8089  -15.4943 C   0  0  1  0  0  0  0  0  0  0  0  0
   18.0966  -12.7308  -16.7132 C   0  0  0  0  0  0  0  0  0  0  0  0
   17.6493  -14.0612  -16.2066 C   0  0  0  0  0  0  0  0  0  0  0  0
   16.4616  -14.4496  -16.3619 O   0  0  0  0  0  0  0  0  0  0  0  0
   18.9566  -10.5545  -15.9048 C   0  0  0  0  0  0  0  0  0  0  0  0
   20.1702  -10.5975  -16.2276 O   0  0  0  0  0  0  0  0  0  0  0  0
   18.5566  -14.8581  -15.5659 O   0  0  0  0  0  0  0  0  0  0  0  0
   18.2302   -9.3372  -15.9236 N   0  0  0  0  0  0  0  0  0  0  0  0
   18.9304   -8.1330  -16.3149 C   0  0  0  0  0  0  0  0  0  0  0  0
   19.8038   -7.6938  -15.1755 C   0  0  0  0  0  0  0  0  0  0  0  0
   19.3685   -7.7817  -14.0358 O   0  0  0  0  0  0  0  0  0  0  0  0
   25.1119  -11.1667  -14.6988 C   0  0  0  0  0  0  0  0  0  0  0  0
   25.1265   -9.3858  -15.0569 S   0  0  0  0  0  0  0  0  0  0  0  0
   23.5318   -8.7066  -14.6024 C   0  0  0  0  0  0  0  0  0  0  0  0
   23.4312   -7.2548  -14.8615 C   0  0  0  0  0  0  0  0  0  0  0  0
   22.0789   -6.6595  -14.6587 C   0  0  2  0  0  0  0  0  0  0  0  0
   21.0833   -7.2007  -15.4762 N   0  0  0  0  0  0  0  0  0  0  0  0
   22.1758   -5.1675  -14.5755 C   0  0  0  0  0  0  0  0  0  0  0  0
   21.7817   -4.3344  -15.3753 O   0  0  0  0  0  0  0  0  0  0  0  0
   22.8100   -4.6497  -13.4140 O   0  0  0  0  0  0  0  0  0  0  0  0
  2  3  1  0
  2  1  1  6
  3  4  1  0
  4  5  2  0
  4  8  1  0
  6  2  1  0
  7  6  2  0
  9  6  1  0
 10 11  1  0
 10  9  1  0
 11 18  1  0
 12 11  2  0
 13 14  1  0
 14 15  1  0
 15 16  1  0
 17 16  1  6
 18 17  1  0
 19 17  1  0
 20 19  2  0
 21 19  1  0
M  END
$$$$
