DGM.pdb
     RDKit          3D

 21 20  0  0  1  0  0  0  0  0999 V2000
   15.3699   -9.2144   -9.2657 N   0  0  0  0  0  0  0  0  0  0  0  0
   14.4010   -8.2119   -9.5395 C   0  0  1  0  0  0  0  0  0  0  0  0
   13.5204   -8.0718   -8.2868 C   0  0  0  0  0  0  0  0  0  0  0  0
   12.3377   -8.9625   -8.4720 C   0  0  0  0  0  0  0  0  0  0  0  0
   12.3024   -9.8106   -9.4021 O   0  0  0  0  0  0  0  0  0  0  0  0
   15.0792   -6.9166   -9.8248 C   0  0  0  0  0  0  0  0  0  0  0  0
   14.3853   -5.9086  -10.1100 O   0  0  0  0  0  0  0  0  0  0  0  0
   11.2843   -8.8422   -7.6090 O   0  0  0  0  0  0  0  0  0  0  0  0
   16.4940   -6.8471   -9.7681 N   0  0  0  0  0  0  0  0  0  0  0  0
   17.1177   -5.5494   -9.9106 C   0  0  0  0  0  0  0  0  0  0  0  0
   18.6056   -5.7370   -9.9799 C   0  0  0  0  0  0  0  0  0  0  0  0
   19.1534   -6.4030   -9.1125 O   0  0  0  0  0  0  0  0  0  0  0  0
   21.6406  -10.0360  -11.6134 C   0  0  0  0  0  0  0  0  0  0  0  0
   21.7017   -9.1469  -13.1964 S   0  0  0  0  0  0  0  0  0  0  0  0
   21.6940   -7.3877  -12.8552 C   0  0  0  0  0  0  0  0  0  0  0  0
   20.4595   -6.9399  -12.1765 C   0  0  0  0  0  0  0  0  0  0  0  0
   20.4559   -5.5189  -11.7241 C   0  0  2  0  0  0  0  0  0  0  0  0
   19.2983   -5.1348  -11.0421 N   0  0  0  0  0  0  0  0  0  0  0  0
   20.9469   -4.6241  -12.8198 C   0  0  0  0  0  0  0  0  0  0  0  0
   20.3053   -4.0898  -13.7097 O   0  0  0  0  0  0  0  0  0  0  0  0
   22.3432   -4.3605  -12.8282 O   0  0  0  0  0  0  0  0  0  0  0  0
  2  3  1  0
  2  1  1  1
  3  4  1  0
  4  5  2  0
  4  8  1  0
  6  2  1  0
  7  6  2  0
  9  6  1  0
 10 11  1  0
 10  9  1  0
 11 18  1  0
 12 11  2  0
 13 14  1  0
 14 15  1  0
 15 16  1  0
 17 16  1  6
 18 17  1  0
 19 17  1  0
 20 19  2  0
 21 19  1  0
M  END
$$$$
