DGM.pdb
     RDKit          3D

 21 20  0  0  1  0  0  0  0  0999 V2000
   18.9849  -13.4044  -17.2739 N   0  0  0  0  0  0  0  0  0  0  0  0
   20.3420  -13.1715  -17.6245 C   0  0  1  0  0  0  0  0  0  0  0  0
   20.5864  -13.8480  -18.9836 C   0  0  0  0  0  0  0  0  0  0  0  0
   20.7264  -15.3124  -18.7333 C   0  0  0  0  0  0  0  0  0  0  0  0
   19.7166  -16.0633  -18.6887 O   0  0  0  0  0  0  0  0  0  0  0  0
   20.5913  -11.7075  -17.7396 C   0  0  0  0  0  0  0  0  0  0  0  0
   21.7477  -11.3001  -18.0149 O   0  0  0  0  0  0  0  0  0  0  0  0
   21.9785  -15.8301  -18.5517 O   0  0  0  0  0  0  0  0  0  0  0  0
   19.5187  -10.8031  -17.5368 N   0  0  0  0  0  0  0  0  0  0  0  0
   19.8000   -9.3859  -17.6123 C   0  0  0  0  0  0  0  0  0  0  0  0
   20.4273   -8.9515  -16.3193 C   0  0  0  0  0  0  0  0  0  0  0  0
   20.0144   -9.4371  -15.2754 O   0  0  0  0  0  0  0  0  0  0  0  0
   25.8183  -11.3755  -15.1519 C   0  0  0  0  0  0  0  0  0  0  0  0
   25.6312   -9.5698  -15.2201 S   0  0  0  0  0  0  0  0  0  0  0  0
   23.8826   -9.1820  -15.1624 C   0  0  0  0  0  0  0  0  0  0  0  0
   23.6117   -7.7335  -15.2785 C   0  0  0  0  0  0  0  0  0  0  0  0
   22.1715   -7.3549  -15.3591 C   0  0  2  0  0  0  0  0  0  0  0  0
   21.4616   -8.0038  -16.3727 N   0  0  0  0  0  0  0  0  0  0  0  0
   22.0178   -5.8699  -15.2432 C   0  0  0  0  0  0  0  0  0  0  0  0
   21.5517   -5.0883  -16.0561 O   0  0  0  0  0  0  0  0  0  0  0  0
   22.4741   -5.2908  -14.0284 O   0  0  0  0  0  0  0  0  0  0  0  0
  2  3  1  0
  2  1  1  6
  3  4  1  0
  4  5  2  0
  4  8  1  0
  6  2  1  0
  7  6  2  0
  9  6  1  0
 10 11  1  0
 10  9  1  0
 11 18  1  0
 12 11  2  0
 13 14  1  0
 14 15  1  0
 15 16  1  0
 17 16  1  6
 18 17  1  0
 19 17  1  0
 20 19  2  0
 21 19  1  0
M  END
$$$$
