DGM.pdb
     RDKit          3D

 21 20  0  0  1  0  0  0  0  0999 V2000
   20.6191  -23.1800  -15.1552 N   0  0  0  0  0  0  0  0  0  0  0  0
   20.4622  -21.7892  -15.3998 C   0  0  1  0  0  0  0  0  0  0  0  0
   20.0615  -21.1323  -14.0685 C   0  0  0  0  0  0  0  0  0  0  0  0
   18.7027  -21.6369  -13.7142 C   0  0  0  0  0  0  0  0  0  0  0  0
   17.8068  -21.7610  -14.5903 O   0  0  0  0  0  0  0  0  0  0  0  0
   21.7487  -21.2108  -15.8787 C   0  0  0  0  0  0  0  0  0  0  0  0
   22.6747  -21.9816  -16.2355 O   0  0  0  0  0  0  0  0  0  0  0  0
   18.4435  -21.9650  -12.4126 O   0  0  0  0  0  0  0  0  0  0  0  0
   21.9021  -19.8022  -15.9231 N   0  0  0  0  0  0  0  0  0  0  0  0
   23.0496  -19.2645  -16.6213 C   0  0  0  0  0  0  0  0  0  0  0  0
   24.1856  -19.1340  -15.6484 C   0  0  0  0  0  0  0  0  0  0  0  0
   24.8184  -18.0875  -15.6233 O   0  0  0  0  0  0  0  0  0  0  0  0
   26.3320  -20.8533   -8.4625 C   0  0  0  0  0  0  0  0  0  0  0  0
   25.0303  -20.8697   -9.7295 S   0  0  0  0  0  0  0  0  0  0  0  0
   25.8064  -20.7095  -11.3368 C   0  0  0  0  0  0  0  0  0  0  0  0
   24.8278  -20.5557  -12.4340 C   0  0  0  0  0  0  0  0  0  0  0  0
   25.4124  -20.3894  -13.7959 C   0  0  2  0  0  0  0  0  0  0  0  0
   24.4673  -20.2256  -14.8119 N   0  0  0  0  0  0  0  0  0  0  0  0
   26.5055  -21.3887  -14.0171 C   0  0  0  0  0  0  0  0  0  0  0  0
   27.6679  -21.3375  -13.6495 O   0  0  0  0  0  0  0  0  0  0  0  0
   26.1460  -22.5506  -14.7520 O   0  0  0  0  0  0  0  0  0  0  0  0
  2  3  1  0
  2  1  1  1
  3  4  1  0
  4  5  2  0
  4  8  1  0
  6  2  1  0
  7  6  2  0
  9  6  1  0
 10 11  1  0
 10  9  1  0
 11 18  1  0
 12 11  2  0
 13 14  1  0
 14 15  1  0
 15 16  1  0
 17 16  1  1
 18 17  1  0
 19 17  1  0
 20 19  2  0
 21 19  1  0
M  END
$$$$
