DGM.pdb
     RDKit          3D

 21 20  0  0  1  0  0  0  0  0999 V2000
   24.2788  -20.7633  -15.5572 N   0  0  0  0  0  0  0  0  0  0  0  0
   25.3504  -19.8873  -15.8780 C   0  0  1  0  0  0  0  0  0  0  0  0
   24.7321  -18.5559  -16.3359 C   0  0  0  0  0  0  0  0  0  0  0  0
   24.2150  -18.7580  -17.7209 C   0  0  0  0  0  0  0  0  0  0  0  0
   23.5486  -19.7830  -18.0224 O   0  0  0  0  0  0  0  0  0  0  0  0
   26.1972  -19.6606  -14.6736 C   0  0  0  0  0  0  0  0  0  0  0  0
   27.1632  -18.8600  -14.7426 O   0  0  0  0  0  0  0  0  0  0  0  0
   24.4785  -17.8051  -18.6651 O   0  0  0  0  0  0  0  0  0  0  0  0
   25.8956  -20.3522  -13.4735 N   0  0  0  0  0  0  0  0  0  0  0  0
   26.6775  -20.0441  -12.2957 C   0  0  0  0  0  0  0  0  0  0  0  0
   26.1530  -20.8544  -11.1459 C   0  0  0  0  0  0  0  0  0  0  0  0
   25.1680  -21.5570  -11.3251 O   0  0  0  0  0  0  0  0  0  0  0  0
   28.2335  -18.1665   -5.2442 C   0  0  0  0  0  0  0  0  0  0  0  0
   27.9968  -19.9460   -4.9662 S   0  0  0  0  0  0  0  0  0  0  0  0
   26.8106  -20.5507   -6.1656 C   0  0  0  0  0  0  0  0  0  0  0  0
   27.2548  -20.3543   -7.5617 C   0  0  0  0  0  0  0  0  0  0  0  0
   26.3738  -20.9536   -8.6052 C   0  0  2  0  0  0  0  0  0  0  0  0
   26.8222  -20.7644   -9.9151 N   0  0  0  0  0  0  0  0  0  0  0  0
   24.9379  -20.6476   -8.3105 C   0  0  0  0  0  0  0  0  0  0  0  0
   24.2392  -19.7609   -8.7737 O   0  0  0  0  0  0  0  0  0  0  0  0
   24.3019  -21.4993   -7.3675 O   0  0  0  0  0  0  0  0  0  0  0  0
  2  3  1  0
  2  1  1  1
  3  4  1  0
  4  5  2  0
  4  8  1  0
  6  2  1  0
  7  6  2  0
  9  6  1  0
 10 11  1  0
 10  9  1  0
 11 18  1  0
 12 11  2  0
 13 14  1  0
 14 15  1  0
 15 16  1  0
 17 16  1  1
 18 17  1  0
 19 17  1  0
 20 19  2  0
 21 19  1  0
M  END
$$$$
