DGM.pdb
     RDKit          3D

 21 20  0  0  1  0  0  0  0  0999 V2000
   17.4041  -22.5167    4.7500 N   0  0  0  0  0  0  0  0  0  0  0  0
   16.4949  -21.8858    3.8590 C   0  0  1  0  0  0  0  0  0  0  0  0
   15.2035  -22.7205    3.8554 C   0  0  0  0  0  0  0  0  0  0  0  0
   15.4798  -23.9649    3.0796 C   0  0  0  0  0  0  0  0  0  0  0  0
   16.6350  -24.2178    2.6471 O   0  0  0  0  0  0  0  0  0  0  0  0
   16.1993  -20.5043    4.3313 C   0  0  0  0  0  0  0  0  0  0  0  0
   15.7288  -19.6652    3.5228 O   0  0  0  0  0  0  0  0  0  0  0  0
   14.4505  -24.8331    2.8440 O   0  0  0  0  0  0  0  0  0  0  0  0
   16.4539  -20.1642    5.6837 N   0  0  0  0  0  0  0  0  0  0  0  0
   16.0433  -18.8559    6.1453 C   0  0  0  0  0  0  0  0  0  0  0  0
   17.2710  -18.0472    6.4499 C   0  0  0  0  0  0  0  0  0  0  0  0
   18.3680  -18.5441    6.2361 O   0  0  0  0  0  0  0  0  0  0  0  0
   18.7352  -12.3158    3.4012 C   0  0  0  0  0  0  0  0  0  0  0  0
   18.0862  -12.4911    5.0889 S   0  0  0  0  0  0  0  0  0  0  0  0
   18.3306  -14.1872    5.6132 C   0  0  0  0  0  0  0  0  0  0  0  0
   17.8362  -14.4416    6.9828 C   0  0  0  0  0  0  0  0  0  0  0  0
   18.0175  -15.8354    7.4814 C   0  0  2  0  0  0  0  0  0  0  0  0
   17.0980  -16.7543    6.9687 N   0  0  0  0  0  0  0  0  0  0  0  0
   18.2459  -15.8317    8.9613 C   0  0  0  0  0  0  0  0  0  0  0  0
   17.4188  -15.8599    9.8581 O   0  0  0  0  0  0  0  0  0  0  0  0
   19.6029  -15.7892    9.3806 O   0  0  0  0  0  0  0  0  0  0  0  0
  2  3  1  0
  2  1  1  1
  3  4  1  0
  4  5  2  0
  4  8  1  0
  6  2  1  0
  7  6  2  0
  9  6  1  0
 10 11  1  0
 10  9  1  0
 11 18  1  0
 12 11  2  0
 13 14  1  0
 14 15  1  0
 15 16  1  0
 17 16  1  1
 18 17  1  0
 19 17  1  0
 20 19  2  0
 21 19  1  0
M  END
$$$$
