DGM.pdb
     RDKit          3D

 21 20  0  0  1  0  0  0  0  0999 V2000
   25.9936  -18.6503  -18.9071 N   0  0  0  0  0  0  0  0  0  0  0  0
   26.0358  -17.3927  -18.2472 C   0  0  1  0  0  0  0  0  0  0  0  0
   25.6766  -16.3179  -19.2865 C   0  0  0  0  0  0  0  0  0  0  0  0
   26.8509  -16.1665  -20.1947 C   0  0  0  0  0  0  0  0  0  0  0  0
   27.0739  -16.9993  -21.1125 O   0  0  0  0  0  0  0  0  0  0  0  0
   25.0432  -17.3699  -17.1367 C   0  0  0  0  0  0  0  0  0  0  0  0
   24.9841  -16.3648  -16.3849 O   0  0  0  0  0  0  0  0  0  0  0  0
   27.6877  -15.1009  -20.0130 O   0  0  0  0  0  0  0  0  0  0  0  0
   24.1845  -18.4824  -16.9509 N   0  0  0  0  0  0  0  0  0  0  0  0
   23.2396  -18.4374  -15.8561 C   0  0  0  0  0  0  0  0  0  0  0  0
   23.3510  -19.7135  -15.0731 C   0  0  0  0  0  0  0  0  0  0  0  0
   24.2914  -20.4613  -15.3020 O   0  0  0  0  0  0  0  0  0  0  0  0
   25.3805  -21.3435   -8.3486 C   0  0  0  0  0  0  0  0  0  0  0  0
   25.1545  -20.2603   -9.7894 S   0  0  0  0  0  0  0  0  0  0  0  0
   23.7948  -20.8988  -10.7666 C   0  0  0  0  0  0  0  0  0  0  0  0
   23.5811  -20.1406  -12.0173 C   0  0  0  0  0  0  0  0  0  0  0  0
   22.4415  -20.6032  -12.8608 C   0  0  2  0  0  0  0  0  0  0  0  0
   22.3645  -19.9870  -14.1125 N   0  0  0  0  0  0  0  0  0  0  0  0
   21.1885  -20.6786  -12.0443 C   0  0  0  0  0  0  0  0  0  0  0  0
   20.2239  -19.9314  -12.0616 O   0  0  0  0  0  0  0  0  0  0  0  0
   21.1087  -21.7609  -11.1269 O   0  0  0  0  0  0  0  0  0  0  0  0
  2  3  1  0
  2  1  1  6
  3  4  1  0
  4  5  2  0
  4  8  1  0
  6  2  1  0
  7  6  2  0
  9  6  1  0
 10 11  1  0
 10  9  1  0
 11 18  1  0
 12 11  2  0
 13 14  1  0
 14 15  1  0
 15 16  1  0
 17 16  1  1
 18 17  1  0
 19 17  1  0
 20 19  2  0
 21 19  1  0
M  END
$$$$
