LTD.pdb
     RDKit          3D

 24 23  0  0  1  0  0  0  0  0999 V2000
    5.5256  -12.2906   26.2581 C   0  0  0  0  0  0  0  0  0  0  0  0
    6.5374  -13.0011   27.1259 C   0  0  2  0  0  0  0  0  0  0  0  0
    7.4042  -11.9297   27.7529 C   0  0  0  0  0  0  0  0  0  0  0  0
    7.4284  -13.9202   26.3397 C   0  0  0  0  0  0  0  0  0  0  0  0
    6.6747  -14.9722   25.5792 C   0  0  2  0  0  0  0  0  0  0  0  0
    6.0692  -15.9570   26.4499 N   0  0  0  0  0  0  0  0  0  0  0  0
    7.6513  -15.6815   24.7090 C   0  0  0  0  0  0  0  0  0  0  0  0
    8.1883  -16.7542   25.1611 O   0  0  0  0  0  0  0  0  0  0  0  0
    7.2998  -15.7189   20.8217 C   0  0  0  0  0  0  0  0  0  0  0  0
    8.7673  -15.7443   21.1503 C   0  0  1  0  0  0  0  0  0  0  0  0
    9.3682  -14.5217   20.8744 O   0  0  0  0  0  0  0  0  0  0  0  0
    8.9037  -16.0700   22.6313 C   0  0  2  0  0  0  0  0  0  0  0  0
    8.0237  -15.2422   23.4104 N   0  0  0  0  0  0  0  0  0  0  0  0
   10.3212  -15.9310   23.0692 C   0  0  0  0  0  0  0  0  0  0  0  0
   10.7668  -14.8891   23.6094 O   0  0  0  0  0  0  0  0  0  0  0  0
   11.2624  -16.9954   22.8933 N   0  0  0  0  0  0  0  0  0  0  0  0
   12.6444  -16.9216   23.3258 C   0  0  1  0  0  0  0  0  0  0  0  0
   13.0111  -18.3310   23.7682 C   0  0  0  0  0  0  0  0  0  0  0  0
   14.2949  -18.3969   24.4904 C   0  0  0  0  0  0  0  0  0  0  0  0
   14.9844  -17.3787   24.7126 O   0  0  0  0  0  0  0  0  0  0  0  0
   13.5318  -16.4145   22.2707 C   0  0  0  0  0  0  0  0  0  0  0  0
   14.4543  -15.5930   22.4888 O   0  0  0  0  0  0  0  0  0  0  0  0
   14.7528  -19.6214   24.9369 O   0  0  0  0  0  0  0  0  0  0  0  0
   13.3969  -16.8278   20.9318 O   0  0  0  0  0  0  0  0  0  0  0  0
  2  1  1  6
  2  3  1  0
  4  5  1  0
  4  2  1  0
  5  6  1  1
  5  7  1  0
  7  8  2  0
 10 12  1  0
 10  9  1  1
 11 10  1  0
 12 14  1  0
 13  7  1  0
 12 13  1  1
 14 15  2  0
 16 17  1  0
 16 14  1  0
 17 21  1  0
 17 18  1  6
 19 20  2  0
 19 18  1  0
 21 22  2  0
 21 24  1  0
 23 19  1  0
M  END
$$$$
