LTD.pdb
     RDKit          3D

 24 23  0  0  1  0  0  0  0  0999 V2000
    5.9820  -11.6121   25.5858 C   0  0  0  0  0  0  0  0  0  0  0  0
    6.3428  -12.4959   26.7563 C   0  0  2  0  0  0  0  0  0  0  0  0
    7.2636  -11.6880   27.6462 C   0  0  0  0  0  0  0  0  0  0  0  0
    7.0734  -13.7398   26.3371 C   0  0  0  0  0  0  0  0  0  0  0  0
    6.3008  -14.5843   25.3659 C   0  0  2  0  0  0  0  0  0  0  0  0
    5.3033  -15.4051   26.0183 N   0  0  0  0  0  0  0  0  0  0  0  0
    7.2679  -15.4972   24.6987 C   0  0  0  0  0  0  0  0  0  0  0  0
    7.5601  -16.5967   25.2898 O   0  0  0  0  0  0  0  0  0  0  0  0
    7.3536  -16.1021   20.8682 C   0  0  0  0  0  0  0  0  0  0  0  0
    8.7757  -16.0890   21.3578 C   0  0  1  0  0  0  0  0  0  0  0  0
    9.4232  -14.9128   20.9981 O   0  0  0  0  0  0  0  0  0  0  0  0
    8.7437  -16.2242   22.8739 C   0  0  2  0  0  0  0  0  0  0  0  0
    7.8859  -15.2243   23.4490 N   0  0  0  0  0  0  0  0  0  0  0  0
   10.1226  -16.1549   23.4345 C   0  0  0  0  0  0  0  0  0  0  0  0
   10.7293  -15.0708   23.6152 O   0  0  0  0  0  0  0  0  0  0  0  0
   10.8374  -17.3399   23.8014 N   0  0  0  0  0  0  0  0  0  0  0  0
   12.1958  -17.3307   24.3086 C   0  0  1  0  0  0  0  0  0  0  0  0
   12.3842  -18.6736   24.9998 C   0  0  0  0  0  0  0  0  0  0  0  0
   13.7229  -18.8366   25.5959 C   0  0  0  0  0  0  0  0  0  0  0  0
   14.6036  -17.9553   25.5004 O   0  0  0  0  0  0  0  0  0  0  0  0
   13.1850  -17.1008   23.2473 C   0  0  0  0  0  0  0  0  0  0  0  0
   14.1861  -16.3594   23.3940 O   0  0  0  0  0  0  0  0  0  0  0  0
   14.0160  -19.9991   26.2822 O   0  0  0  0  0  0  0  0  0  0  0  0
   13.0654  -17.7089   21.9833 O   0  0  0  0  0  0  0  0  0  0  0  0
  2  1  1  6
  2  3  1  0
  4  5  1  0
  4  2  1  0
  5  6  1  1
  5  7  1  0
  7  8  2  0
 10 12  1  0
 10  9  1  1
 11 10  1  0
 12 14  1  0
 13  7  1  0
 12 13  1  1
 14 15  2  0
 16 17  1  0
 16 14  1  0
 17 21  1  0
 17 18  1  6
 19 20  2  0
 19 18  1  0
 21 22  2  0
 21 24  1  0
 23 19  1  0
M  END
$$$$
