LTD.pdb
     RDKit          3D

 24 23  0  0  1  0  0  0  0  0999 V2000
    8.3571  -14.0803   17.7769 C   0  0  0  0  0  0  0  0  0  0  0  0
    7.5616  -13.4966   18.9205 C   0  0  2  0  0  0  0  0  0  0  0  0
    7.4212  -12.0147   18.6434 C   0  0  0  0  0  0  0  0  0  0  0  0
    8.2505  -13.6594   20.2455 C   0  0  0  0  0  0  0  0  0  0  0  0
    8.4692  -15.0940   20.6296 C   0  0  2  0  0  0  0  0  0  0  0  0
    7.2518  -15.8743   20.5695 N   0  0  0  0  0  0  0  0  0  0  0  0
    8.9457  -15.1123   22.0391 C   0  0  0  0  0  0  0  0  0  0  0  0
   10.0026  -14.4447   22.3232 O   0  0  0  0  0  0  0  0  0  0  0  0
    7.3589  -13.8554   25.0065 C   0  0  0  0  0  0  0  0  0  0  0  0
    7.7478  -15.2580   25.3855 C   0  0  1  0  0  0  0  0  0  0  0  0
    6.6586  -16.1192   25.3215 O   0  0  0  0  0  0  0  0  0  0  0  0
    8.8313  -15.7145   24.4183 C   0  0  2  0  0  0  0  0  0  0  0  0
    8.3015  -15.8239   23.0864 N   0  0  0  0  0  0  0  0  0  0  0  0
    9.4356  -16.9969   24.8770 C   0  0  0  0  0  0  0  0  0  0  0  0
    8.8905  -18.1117   24.6873 O   0  0  0  0  0  0  0  0  0  0  0  0
   10.6889  -17.0238   25.5689 N   0  0  0  0  0  0  0  0  0  0  0  0
   11.3083  -18.2407   26.0565 C   0  0  1  0  0  0  0  0  0  0  0  0
   12.8081  -17.9870   26.0029 C   0  0  0  0  0  0  0  0  0  0  0  0
   13.3001  -17.7021   24.6425 C   0  0  0  0  0  0  0  0  0  0  0  0
   14.2837  -16.9600   24.4344 O   0  0  0  0  0  0  0  0  0  0  0  0
   10.8464  -18.5995   27.4040 C   0  0  0  0  0  0  0  0  0  0  0  0
   10.2224  -17.8050   28.1475 O   0  0  0  0  0  0  0  0  0  0  0  0
   12.6557  -18.2719   23.5616 O   0  0  0  0  0  0  0  0  0  0  0  0
   11.0806  -19.8765   27.9483 O   0  0  0  0  0  0  0  0  0  0  0  0
  2  1  1  6
  2  3  1  0
  4  5  1  0
  4  2  1  0
  5  6  1  1
  5  7  1  0
  7  8  2  0
 10 12  1  0
 10  9  1  6
 11 10  1  0
 12 14  1  0
 13  7  1  0
 12 13  1  6
 14 15  2  0
 16 17  1  0
 16 14  1  0
 17 21  1  0
 17 18  1  1
 19 20  2  0
 19 18  1  0
 21 22  2  0
 21 24  1  0
 23 19  1  0
M  END
$$$$
