LTD.pdb
     RDKit          3D

 24 23  0  0  1  0  0  0  0  0999 V2000
    7.5098  -11.3965   26.9511 C   0  0  0  0  0  0  0  0  0  0  0  0
    6.5696  -12.0814   25.9876 C   0  0  2  0  0  0  0  0  0  0  0  0
    5.1652  -11.8312   26.4953 C   0  0  0  0  0  0  0  0  0  0  0  0
    6.7854  -13.5669   25.9275 C   0  0  0  0  0  0  0  0  0  0  0  0
    8.1838  -13.9492   25.5380 C   0  0  2  0  0  0  0  0  0  0  0  0
    8.9147  -12.8475   24.9493 N   0  0  0  0  0  0  0  0  0  0  0  0
    8.0850  -15.0224   24.5120 C   0  0  0  0  0  0  0  0  0  0  0  0
    7.4815  -16.1064   24.8347 O   0  0  0  0  0  0  0  0  0  0  0  0
    6.9562  -14.9857   20.9701 C   0  0  0  0  0  0  0  0  0  0  0  0
    8.2637  -15.7282   20.9343 C   0  0  1  0  0  0  0  0  0  0  0  0
    9.2694  -14.9537   20.3678 O   0  0  0  0  0  0  0  0  0  0  0  0
    8.6289  -16.0903   22.3673 C   0  0  2  0  0  0  0  0  0  0  0  0
    8.6183  -14.9182   23.1995 N   0  0  0  0  0  0  0  0  0  0  0  0
    9.9464  -16.7850   22.4119 C   0  0  0  0  0  0  0  0  0  0  0  0
   11.0400  -16.1687   22.4186 O   0  0  0  0  0  0  0  0  0  0  0  0
   10.0338  -18.2136   22.4497 N   0  0  0  0  0  0  0  0  0  0  0  0
   11.2882  -18.9401   22.4168 C   0  0  1  0  0  0  0  0  0  0  0  0
   11.1587  -20.0294   23.4719 C   0  0  0  0  0  0  0  0  0  0  0  0
   11.5486  -19.5799   24.8209 C   0  0  0  0  0  0  0  0  0  0  0  0
   11.9755  -18.4258   25.0382 O   0  0  0  0  0  0  0  0  0  0  0  0
   11.5836  -19.4809   21.0833 C   0  0  0  0  0  0  0  0  0  0  0  0
   12.6674  -20.0444   20.7983 O   0  0  0  0  0  0  0  0  0  0  0  0
   11.4398  -20.4599   25.8802 O   0  0  0  0  0  0  0  0  0  0  0  0
   10.6526  -19.3974   20.0307 O   0  0  0  0  0  0  0  0  0  0  0  0
  2  1  1  1
  2  3  1  0
  4  5  1  0
  4  2  1  0
  5  6  1  6
  5  7  1  0
  7  8  2  0
 10 12  1  0
 10  9  1  1
 11 10  1  0
 12 14  1  0
 13  7  1  0
 12 13  1  1
 14 15  2  0
 16 17  1  0
 16 14  1  0
 17 21  1  0
 17 18  1  1
 19 20  2  0
 19 18  1  0
 21 22  2  0
 21 24  1  0
 23 19  1  0
M  END
$$$$
