LTD.pdb
     RDKit          3D

 24 23  0  0  1  0  0  0  0  0999 V2000
    8.9476  -13.8970   18.1971 C   0  0  0  0  0  0  0  0  0  0  0  0
    7.8988  -13.6593   19.2578 C   0  0  2  0  0  0  0  0  0  0  0  0
    7.4292  -12.2292   19.0952 C   0  0  0  0  0  0  0  0  0  0  0  0
    8.4400  -13.8164   20.6504 C   0  0  0  0  0  0  0  0  0  0  0  0
    8.8746  -15.2183   20.9649 C   0  0  2  0  0  0  0  0  0  0  0  0
    7.8846  -16.2029   20.5839 N   0  0  0  0  0  0  0  0  0  0  0  0
    9.0564  -15.3106   22.4388 C   0  0  0  0  0  0  0  0  0  0  0  0
    9.9070  -14.5245   22.9882 O   0  0  0  0  0  0  0  0  0  0  0  0
    6.9438  -14.6808   25.2852 C   0  0  0  0  0  0  0  0  0  0  0  0
    7.4465  -16.0776   25.5268 C   0  0  1  0  0  0  0  0  0  0  0  0
    6.4831  -17.0249   25.2005 O   0  0  0  0  0  0  0  0  0  0  0  0
    8.6869  -16.2776   24.6669 C   0  0  2  0  0  0  0  0  0  0  0  0
    8.3458  -16.2157   23.2718 N   0  0  0  0  0  0  0  0  0  0  0  0
    9.3615  -17.5606   25.0121 C   0  0  0  0  0  0  0  0  0  0  0  0
    9.1797  -18.6202   24.3639 O   0  0  0  0  0  0  0  0  0  0  0  0
   10.2657  -17.6521   26.1184 N   0  0  0  0  0  0  0  0  0  0  0  0
   10.9006  -18.8878   26.5334 C   0  0  1  0  0  0  0  0  0  0  0  0
   12.3195  -18.8234   25.9862 C   0  0  0  0  0  0  0  0  0  0  0  0
   13.1339  -19.9988   26.3456 C   0  0  0  0  0  0  0  0  0  0  0  0
   12.6825  -20.9299   27.0461 O   0  0  0  0  0  0  0  0  0  0  0  0
   10.8676  -19.0689   27.9907 C   0  0  0  0  0  0  0  0  0  0  0  0
   11.2379  -20.1248   28.5576 O   0  0  0  0  0  0  0  0  0  0  0  0
   14.4376  -20.0763   25.8953 O   0  0  0  0  0  0  0  0  0  0  0  0
   10.4112  -18.0515   28.8502 O   0  0  0  0  0  0  0  0  0  0  0  0
  2  1  1  6
  2  3  1  0
  4  5  1  0
  4  2  1  0
  5  6  1  1
  5  7  1  0
  7  8  2  0
 10 12  1  0
 10  9  1  6
 11 10  1  0
 12 14  1  0
 13  7  1  0
 12 13  1  6
 14 15  2  0
 16 17  1  0
 16 14  1  0
 17 21  1  0
 17 18  1  1
 19 20  2  0
 19 18  1  0
 21 22  2  0
 21 24  1  0
 23 19  1  0
M  END
$$$$
