LTD.pdb
     RDKit          3D

 24 23  0  0  1  0  0  0  0  0999 V2000
    5.6294  -11.7851   25.8367 C   0  0  0  0  0  0  0  0  0  0  0  0
    6.3803  -12.6668   26.8063 C   0  0  2  0  0  0  0  0  0  0  0  0
    7.3371  -11.7691   27.5621 C   0  0  0  0  0  0  0  0  0  0  0  0
    7.1861  -13.7298   26.1154 C   0  0  0  0  0  0  0  0  0  0  0  0
    6.3623  -14.6195   25.2306 C   0  0  2  0  0  0  0  0  0  0  0  0
    5.4276  -15.4319   25.9795 N   0  0  0  0  0  0  0  0  0  0  0  0
    7.2961  -15.5406   24.5281 C   0  0  0  0  0  0  0  0  0  0  0  0
    7.5285  -16.6819   25.0638 O   0  0  0  0  0  0  0  0  0  0  0  0
    7.3956  -16.1595   20.7403 C   0  0  0  0  0  0  0  0  0  0  0  0
    8.8244  -16.0937   21.2056 C   0  0  1  0  0  0  0  0  0  0  0  0
    9.4263  -14.9009   20.8224 O   0  0  0  0  0  0  0  0  0  0  0  0
    8.8219  -16.2125   22.7235 C   0  0  2  0  0  0  0  0  0  0  0  0
    7.9444  -15.2320   23.3023 N   0  0  0  0  0  0  0  0  0  0  0  0
   10.2073  -16.0958   23.2596 C   0  0  0  0  0  0  0  0  0  0  0  0
   10.7179  -14.9979   23.5907 O   0  0  0  0  0  0  0  0  0  0  0  0
   11.0402  -17.2483   23.4270 N   0  0  0  0  0  0  0  0  0  0  0  0
   12.4130  -17.1836   23.8894 C   0  0  1  0  0  0  0  0  0  0  0  0
   12.7528  -18.5898   24.3624 C   0  0  0  0  0  0  0  0  0  0  0  0
   12.1647  -18.9189   25.6738 C   0  0  0  0  0  0  0  0  0  0  0  0
   11.8785  -18.0380   26.5126 O   0  0  0  0  0  0  0  0  0  0  0  0
   13.3298  -16.7040   22.8467 C   0  0  0  0  0  0  0  0  0  0  0  0
   13.0560  -16.7449   21.6232 O   0  0  0  0  0  0  0  0  0  0  0  0
   11.9213  -20.2418   25.9884 O   0  0  0  0  0  0  0  0  0  0  0  0
   14.5894  -16.1616   23.1646 O   0  0  0  0  0  0  0  0  0  0  0  0
  2  1  1  6
  2  3  1  0
  4  5  1  0
  4  2  1  0
  5  6  1  1
  5  7  1  0
  7  8  2  0
 10 12  1  0
 10  9  1  1
 11 10  1  0
 12 14  1  0
 13  7  1  0
 12 13  1  1
 14 15  2  0
 16 17  1  0
 16 14  1  0
 17 21  1  0
 17 18  1  6
 19 20  2  0
 19 18  1  0
 21 22  2  0
 21 24  1  0
 23 19  1  0
M  END
$$$$
