LTD.pdb
     RDKit          3D

 24 23  0  0  1  0  0  0  0  0999 V2000
    7.9786  -13.4632   17.4745 C   0  0  0  0  0  0  0  0  0  0  0  0
    7.2719  -13.2479   18.7919 C   0  0  2  0  0  0  0  0  0  0  0  0
    6.7653  -11.8211   18.7879 C   0  0  0  0  0  0  0  0  0  0  0  0
    8.1868  -13.4140   19.9719 C   0  0  0  0  0  0  0  0  0  0  0  0
    8.7638  -14.7950   20.0871 C   0  0  2  0  0  0  0  0  0  0  0  0
    7.7610  -15.8277   19.9368 N   0  0  0  0  0  0  0  0  0  0  0  0
    9.3428  -14.9257   21.4515 C   0  0  0  0  0  0  0  0  0  0  0  0
   10.2101  -14.0568   21.8204 O   0  0  0  0  0  0  0  0  0  0  0  0
    7.4771  -15.7862   24.7762 C   0  0  0  0  0  0  0  0  0  0  0  0
    8.7284  -16.6165   24.6923 C   0  0  1  0  0  0  0  0  0  0  0  0
    8.4415  -17.9280   24.3323 O   0  0  0  0  0  0  0  0  0  0  0  0
    9.6382  -15.9773   23.6522 C   0  0  2  0  0  0  0  0  0  0  0  0
    8.9932  -15.9535   22.3678 N   0  0  0  0  0  0  0  0  0  0  0  0
   10.9482  -16.6854   23.5971 C   0  0  0  0  0  0  0  0  0  0  0  0
   11.1854  -17.6141   22.7865 O   0  0  0  0  0  0  0  0  0  0  0  0
   12.0202  -16.3374   24.4800 N   0  0  0  0  0  0  0  0  0  0  0  0
   13.2824  -17.0495   24.5264 C   0  0  1  0  0  0  0  0  0  0  0  0
   14.3550  -15.9992   24.2752 C   0  0  0  0  0  0  0  0  0  0  0  0
   15.6959  -16.5769   24.0695 C   0  0  0  0  0  0  0  0  0  0  0  0
   15.8995  -17.8093   24.1015 O   0  0  0  0  0  0  0  0  0  0  0  0
   13.4758  -17.7577   25.7987 C   0  0  0  0  0  0  0  0  0  0  0  0
   12.9708  -17.3719   26.8802 O   0  0  0  0  0  0  0  0  0  0  0  0
   16.7629  -15.7317   23.8339 O   0  0  0  0  0  0  0  0  0  0  0  0
   14.2514  -18.9297   25.8800 O   0  0  0  0  0  0  0  0  0  0  0  0
  2  1  1  6
  2  3  1  0
  4  5  1  0
  4  2  1  0
  5  6  1  1
  5  7  1  0
  7  8  2  0
 10 12  1  0
 10  9  1  6
 11 10  1  0
 12 14  1  0
 13  7  1  0
 12 13  1  6
 14 15  2  0
 16 17  1  0
 16 14  1  0
 17 21  1  0
 17 18  1  1
 19 20  2  0
 19 18  1  0
 21 22  2  0
 21 24  1  0
 23 19  1  0
M  END
$$$$
