LTD.pdb
     RDKit          3D

 24 23  0  0  1  0  0  0  0  0999 V2000
    7.7572  -12.8379   18.6296 C   0  0  0  0  0  0  0  0  0  0  0  0
    7.4457  -13.5514   19.9239 C   0  0  2  0  0  0  0  0  0  0  0  0
    7.3104  -12.4842   20.9894 C   0  0  0  0  0  0  0  0  0  0  0  0
    8.5398  -14.4918   20.3428 C   0  0  0  0  0  0  0  0  0  0  0  0
    8.7434  -15.6307   19.3864 C   0  0  2  0  0  0  0  0  0  0  0  0
    7.5921  -16.5048   19.3142 N   0  0  0  0  0  0  0  0  0  0  0  0
    9.8891  -16.4368   19.8878 C   0  0  0  0  0  0  0  0  0  0  0  0
    9.6340  -17.4170   20.6738 O   0  0  0  0  0  0  0  0  0  0  0  0
   14.3024  -18.3162   19.5228 C   0  0  0  0  0  0  0  0  0  0  0  0
   13.3129  -17.3277   18.9694 C   0  0  1  0  0  0  0  0  0  0  0  0
   12.7186  -17.8044   17.8069 O   0  0  0  0  0  0  0  0  0  0  0  0
   12.2536  -17.0878   20.0363 C   0  0  2  0  0  0  0  0  0  0  0  0
   11.2457  -16.1860   19.5490 N   0  0  0  0  0  0  0  0  0  0  0  0
   12.8797  -16.5866   21.2920 C   0  0  0  0  0  0  0  0  0  0  0  0
   13.2841  -15.4057   21.4258 O   0  0  0  0  0  0  0  0  0  0  0  0
   13.0553  -17.4397   22.4283 N   0  0  0  0  0  0  0  0  0  0  0  0
   13.6658  -17.0046   23.6695 C   0  0  1  0  0  0  0  0  0  0  0  0
   13.2512  -18.0326   24.7125 C   0  0  0  0  0  0  0  0  0  0  0  0
   13.7746  -17.7368   26.0588 C   0  0  0  0  0  0  0  0  0  0  0  0
   14.5471  -16.7787   26.2747 O   0  0  0  0  0  0  0  0  0  0  0  0
   15.1246  -16.8746   23.5569 C   0  0  0  0  0  0  0  0  0  0  0  0
   15.8509  -17.7505   23.0289 O   0  0  0  0  0  0  0  0  0  0  0  0
   13.4012  -18.5424   27.1171 O   0  0  0  0  0  0  0  0  0  0  0  0
   15.8037  -15.7411   24.0424 O   0  0  0  0  0  0  0  0  0  0  0  0
  2  1  1  6
  2  3  1  0
  4  5  1  0
  4  2  1  0
  5  6  1  1
  5  7  1  0
  7  8  2  0
 10 12  1  0
 10  9  1  1
 11 10  1  0
 12 14  1  0
 13  7  1  0
 12 13  1  6
 14 15  2  0
 16 17  1  0
 16 14  1  0
 17 21  1  0
 17 18  1  1
 19 20  2  0
 19 18  1  0
 21 22  2  0
 21 24  1  0
 23 19  1  0
M  END
$$$$
