WVM.pdb
     RDKit          3D

 30 31  0  0  1  0  0  0  0  0999 V2000
    6.1932  -18.6147   24.3909 N   0  0  0  0  0  0  0  0  0  0  0  0
    6.5430  -17.2287   24.2250 C   0  0  1  0  0  0  0  0  0  0  0  0
    7.0525  -16.5862   25.4685 C   0  0  0  0  0  0  0  0  0  0  0  0
    6.2314  -15.5018   26.0118 C   0  0  0  0  0  0  0  0  0  0  0  0
    4.9743  -15.6067   26.6272 C   0  0  0  0  0  0  0  0  0  0  0  0
    4.5844  -14.3806   27.0027 N   0  0  0  0  0  0  0  0  0  0  0  0
    5.5278  -13.4517   26.6647 C   0  0  0  0  0  0  0  0  0  0  0  0
    5.5546  -12.0861   26.8447 C   0  0  0  0  0  0  0  0  0  0  0  0
    6.6317  -11.3532   26.4032 C   0  0  0  0  0  0  0  0  0  0  0  0
    7.6493  -12.0479   25.7891 C   0  0  0  0  0  0  0  0  0  0  0  0
    7.6348  -13.4124   25.6033 C   0  0  0  0  0  0  0  0  0  0  0  0
    6.5493  -14.1648   26.0472 C   0  0  0  0  0  0  0  0  0  0  0  0
    7.5851  -17.0364   23.1556 C   0  0  0  0  0  0  0  0  0  0  0  0
    8.2832  -18.0370   22.8539 O   0  0  0  0  0  0  0  0  0  0  0  0
    8.6326  -13.0785   21.2123 C   0  0  0  0  0  0  0  0  0  0  0  0
    8.3513  -14.4326   20.6257 C   0  0  2  0  0  0  0  0  0  0  0  0
    6.9090  -14.4180   20.1631 C   0  0  0  0  0  0  0  0  0  0  0  0
    8.7026  -15.5973   21.4598 C   0  0  2  0  0  0  0  0  0  0  0  0
    7.7256  -15.7698   22.5572 N   0  0  0  0  0  0  0  0  0  0  0  0
   10.0197  -15.6376   22.0813 C   0  0  0  0  0  0  0  0  0  0  0  0
   11.0985  -15.3599   21.4508 O   0  0  0  0  0  0  0  0  0  0  0  0
   10.9990  -13.8385   28.2291 C   0  0  0  0  0  0  0  0  0  0  0  0
   12.0117  -15.3382   28.1377 S   0  0  0  0  0  0  0  0  0  0  0  0
   12.3889  -15.7107   26.4423 C   0  0  0  0  0  0  0  0  0  0  0  0
   11.2968  -15.6150   25.4604 C   0  0  0  0  0  0  0  0  0  0  0  0
   11.5526  -15.9808   24.0352 C   0  0  2  0  0  0  0  0  0  0  0  0
   10.1814  -15.9874   23.4375 N   0  0  0  0  0  0  0  0  0  0  0  0
   12.1192  -17.3289   23.8871 C   0  0  0  0  0  0  0  0  0  0  0  0
   13.4933  -17.5112   24.1958 O   0  0  0  0  0  0  0  0  0  0  0  0
   11.4688  -18.3456   23.5022 O   0  0  0  0  0  0  0  0  0  0  0  0
  2  1  1  1
  2 13  1  0
  3  2  1  0
  3  4  1  0
  4  5  2  0
  4 12  1  0
  5  6  1  0
  6  7  1  0
  7  8  2  0
  8  9  1  0
 10  9  2  0
 11 10  1  0
 12 11  2  0
 12  7  1  0
 13 19  1  0
 13 14  2  0
 16 18  1  0
 16 15  1  1
 17 16  1  0
 18 20  1  0
 18 19  1  1
 20 21  2  0
 22 23  1  0
 23 24  1  0
 24 25  1  0
 26 25  1  1
 26 28  1  0
 27 26  1  0
 27 20  1  0
 28 29  1  0
 30 28  2  0
M  END
$$$$
