WVM.pdb
     RDKit          3D

 30 31  0  0  1  0  0  0  0  0999 V2000
    6.0310  -17.6061   24.6293 N   0  0  0  0  0  0  0  0  0  0  0  0
    6.6323  -16.3269   24.3593 C   0  0  1  0  0  0  0  0  0  0  0  0
    7.3072  -15.7207   25.5407 C   0  0  0  0  0  0  0  0  0  0  0  0
    6.5123  -14.7606   26.3098 C   0  0  0  0  0  0  0  0  0  0  0  0
    5.6313  -15.0329   27.3679 C   0  0  0  0  0  0  0  0  0  0  0  0
    5.1295  -13.8710   27.8091 N   0  0  0  0  0  0  0  0  0  0  0  0
    5.6359  -12.8250   27.0906 C   0  0  0  0  0  0  0  0  0  0  0  0
    5.4047  -11.4701   27.1841 C   0  0  0  0  0  0  0  0  0  0  0  0
    6.0397  -10.6012   26.3274 C   0  0  0  0  0  0  0  0  0  0  0  0
    6.8938  -11.1530   25.3994 C   0  0  0  0  0  0  0  0  0  0  0  0
    7.1338  -12.5051   25.2957 C   0  0  0  0  0  0  0  0  0  0  0  0
    6.4967  -13.3943   26.1588 C   0  0  0  0  0  0  0  0  0  0  0  0
    7.6459  -16.4056   23.2490 C   0  0  0  0  0  0  0  0  0  0  0  0
    8.3090  -17.4693   23.1572 O   0  0  0  0  0  0  0  0  0  0  0  0
    8.5451  -13.0321   20.3869 C   0  0  0  0  0  0  0  0  0  0  0  0
    8.3999  -14.5110   20.1662 C   0  0  2  0  0  0  0  0  0  0  0  0
    6.9889  -14.7423   19.6661 C   0  0  0  0  0  0  0  0  0  0  0  0
    8.7903  -15.3855   21.2880 C   0  0  2  0  0  0  0  0  0  0  0  0
    7.8000  -15.3053   22.3842 N   0  0  0  0  0  0  0  0  0  0  0  0
   10.0944  -15.1860   21.9061 C   0  0  0  0  0  0  0  0  0  0  0  0
   10.4379  -14.0919   22.4748 O   0  0  0  0  0  0  0  0  0  0  0  0
   10.1542  -15.0544   27.1434 C   0  0  0  0  0  0  0  0  0  0  0  0
   11.8775  -15.4372   26.7352 S   0  0  0  0  0  0  0  0  0  0  0  0
   11.9378  -16.7292   25.5176 C   0  0  0  0  0  0  0  0  0  0  0  0
   11.2676  -16.4886   24.2296 C   0  0  0  0  0  0  0  0  0  0  0  0
   12.0879  -16.2333   23.0079 C   0  0  2  0  0  0  0  0  0  0  0  0
   11.0665  -16.2070   21.9154 N   0  0  0  0  0  0  0  0  0  0  0  0
   13.0330  -17.3216   22.7201 C   0  0  0  0  0  0  0  0  0  0  0  0
   14.3649  -17.1897   23.1951 O   0  0  0  0  0  0  0  0  0  0  0  0
   12.7458  -18.3739   22.0761 O   0  0  0  0  0  0  0  0  0  0  0  0
  2  1  1  1
  2 13  1  0
  3  2  1  0
  3  4  1  0
  4  5  2  0
  4 12  1  0
  5  6  1  0
  6  7  1  0
  7  8  2  0
  8  9  1  0
 10  9  2  0
 11 10  1  0
 12 11  2  0
 12  7  1  0
 13 19  1  0
 13 14  2  0
 16 18  1  0
 16 15  1  1
 17 16  1  0
 18 20  1  0
 18 19  1  1
 20 21  2  0
 22 23  1  0
 23 24  1  0
 24 25  1  0
 26 25  1  1
 26 28  1  0
 27 26  1  0
 27 20  1  0
 28 29  1  0
 30 28  2  0
M  END
$$$$
