WVM.pdb
     RDKit          3D

 30 31  0  0  1  0  0  0  0  0999 V2000
    8.4667  -16.0314   25.2590 N   0  0  0  0  0  0  0  0  0  0  0  0
    7.4857  -16.8792   24.6347 C   0  0  1  0  0  0  0  0  0  0  0  0
    6.0852  -16.5748   25.0404 C   0  0  0  0  0  0  0  0  0  0  0  0
    5.8678  -15.2649   25.6585 C   0  0  0  0  0  0  0  0  0  0  0  0
    4.6903  -14.7841   26.2521 C   0  0  0  0  0  0  0  0  0  0  0  0
    4.9259  -13.5496   26.7180 N   0  0  0  0  0  0  0  0  0  0  0  0
    6.2154  -13.1772   26.4619 C   0  0  0  0  0  0  0  0  0  0  0  0
    6.8916  -12.0114   26.7475 C   0  0  0  0  0  0  0  0  0  0  0  0
    8.2078  -11.8683   26.3742 C   0  0  0  0  0  0  0  0  0  0  0  0
    8.7889  -12.9297   25.7176 C   0  0  0  0  0  0  0  0  0  0  0  0
    8.1242  -14.1001   25.4264 C   0  0  0  0  0  0  0  0  0  0  0  0
    6.7911  -14.2563   25.8004 C   0  0  0  0  0  0  0  0  0  0  0  0
    7.5498  -16.8009   23.1326 C   0  0  0  0  0  0  0  0  0  0  0  0
    7.2135  -17.8297   22.4937 O   0  0  0  0  0  0  0  0  0  0  0  0
    9.0622  -13.3109   20.4236 C   0  0  0  0  0  0  0  0  0  0  0  0
    8.3830  -14.6475   20.3295 C   0  0  2  0  0  0  0  0  0  0  0  0
    6.8919  -14.3811   20.3222 C   0  0  0  0  0  0  0  0  0  0  0  0
    8.8053  -15.6707   21.3045 C   0  0  2  0  0  0  0  0  0  0  0  0
    7.9756  -15.6031   22.5275 N   0  0  0  0  0  0  0  0  0  0  0  0
   10.1906  -15.6738   21.7556 C   0  0  0  0  0  0  0  0  0  0  0  0
   11.1425  -15.1333   21.0921 O   0  0  0  0  0  0  0  0  0  0  0  0
    9.3277  -14.7303   27.2175 C   0  0  0  0  0  0  0  0  0  0  0  0
   11.0658  -15.2029   27.4139 S   0  0  0  0  0  0  0  0  0  0  0  0
   11.6069  -16.1217   25.9932 C   0  0  0  0  0  0  0  0  0  0  0  0
   11.8123  -15.3830   24.7370 C   0  0  0  0  0  0  0  0  0  0  0  0
   11.9730  -16.1354   23.4570 C   0  0  2  0  0  0  0  0  0  0  0  0
   10.5655  -16.2801   22.9719 N   0  0  0  0  0  0  0  0  0  0  0  0
   12.5260  -17.4828   23.6551 C   0  0  0  0  0  0  0  0  0  0  0  0
   11.6701  -18.5935   23.4298 O   0  0  0  0  0  0  0  0  0  0  0  0
   13.7159  -17.7278   24.0142 O   0  0  0  0  0  0  0  0  0  0  0  0
  2  1  1  1
  2 13  1  0
  3  2  1  0
  3  4  1  0
  4  5  2  0
  4 12  1  0
  5  6  1  0
  6  7  1  0
  7  8  2  0
  8  9  1  0
 10  9  2  0
 11 10  1  0
 12 11  2  0
 12  7  1  0
 13 19  1  0
 13 14  2  0
 16 18  1  0
 16 15  1  1
 17 16  1  0
 18 20  1  0
 18 19  1  1
 20 21  2  0
 22 23  1  0
 23 24  1  0
 24 25  1  0
 26 25  1  1
 26 28  1  0
 27 26  1  0
 27 20  1  0
 28 29  1  0
 30 28  2  0
M  END
$$$$
