WVM.pdb
     RDKit          3D

 30 31  0  0  1  0  0  0  0  0999 V2000
    6.2297  -18.5330   25.1078 N   0  0  0  0  0  0  0  0  0  0  0  0
    6.5435  -17.1411   24.9208 C   0  0  1  0  0  0  0  0  0  0  0  0
    6.9327  -16.4406   26.1763 C   0  0  0  0  0  0  0  0  0  0  0  0
    6.1949  -15.2123   26.4796 C   0  0  0  0  0  0  0  0  0  0  0  0
    4.8619  -15.0980   26.9043 C   0  0  0  0  0  0  0  0  0  0  0  0
    4.5891  -13.7996   27.0940 N   0  0  0  0  0  0  0  0  0  0  0  0
    5.6844  -13.0323   26.8136 C   0  0  0  0  0  0  0  0  0  0  0  0
    5.8661  -11.6675   26.8607 C   0  0  0  0  0  0  0  0  0  0  0  0
    7.0812  -11.1212   26.5180 C   0  0  0  0  0  0  0  0  0  0  0  0
    8.0733  -11.9962   26.1367 C   0  0  0  0  0  0  0  0  0  0  0  0
    7.9046  -13.3620   26.0858 C   0  0  0  0  0  0  0  0  0  0  0  0
    6.6784  -13.9264   26.4314 C   0  0  0  0  0  0  0  0  0  0  0  0
    7.6582  -16.9450   23.9280 C   0  0  0  0  0  0  0  0  0  0  0  0
    8.5073  -17.8670   23.8352 O   0  0  0  0  0  0  0  0  0  0  0  0
    7.0201  -14.8214   20.4187 C   0  0  0  0  0  0  0  0  0  0  0  0
    8.3240  -14.5934   21.1291 C   0  0  2  0  0  0  0  0  0  0  0  0
    9.3635  -14.3257   20.0603 C   0  0  0  0  0  0  0  0  0  0  0  0
    8.7248  -15.6158   22.1138 C   0  0  2  0  0  0  0  0  0  0  0  0
    7.6957  -15.7613   23.1666 N   0  0  0  0  0  0  0  0  0  0  0  0
    9.9946  -15.4535   22.8095 C   0  0  0  0  0  0  0  0  0  0  0  0
   10.3432  -14.3629   23.3817 O   0  0  0  0  0  0  0  0  0  0  0  0
   11.6719  -13.8221   27.7943 C   0  0  0  0  0  0  0  0  0  0  0  0
   12.2119  -15.5506   27.7319 S   0  0  0  0  0  0  0  0  0  0  0  0
   12.7806  -15.9478   26.0966 C   0  0  0  0  0  0  0  0  0  0  0  0
   11.7738  -16.0572   25.0288 C   0  0  0  0  0  0  0  0  0  0  0  0
   12.2146  -16.2892   23.6208 C   0  0  2  0  0  0  0  0  0  0  0  0
   10.9249  -16.5093   22.8957 N   0  0  0  0  0  0  0  0  0  0  0  0
   13.0313  -17.5023   23.4733 C   0  0  0  0  0  0  0  0  0  0  0  0
   14.4080  -17.4234   23.8131 O   0  0  0  0  0  0  0  0  0  0  0  0
   12.5957  -18.6188   23.0632 O   0  0  0  0  0  0  0  0  0  0  0  0
  2  1  1  1
  2 13  1  0
  3  2  1  0
  3  4  1  0
  4  5  2  0
  4 12  1  0
  5  6  1  0
  6  7  1  0
  7  8  2  0
  8  9  1  0
 10  9  2  0
 11 10  1  0
 12 11  2  0
 12  7  1  0
 13 19  1  0
 13 14  2  0
 16 18  1  0
 16 15  1  6
 17 16  1  0
 18 20  1  0
 18 19  1  1
 20 21  2  0
 22 23  1  0
 23 24  1  0
 24 25  1  0
 26 25  1  1
 26 28  1  0
 27 26  1  0
 27 20  1  0
 28 29  1  0
 30 28  2  0
M  END
$$$$
