WVM.pdb
     RDKit          3D

 30 31  0  0  1  0  0  0  0  0999 V2000
    6.0085  -18.4319   24.6993 N   0  0  0  0  0  0  0  0  0  0  0  0
    6.4854  -17.0744   24.6767 C   0  0  1  0  0  0  0  0  0  0  0  0
    6.8260  -16.5363   26.0232 C   0  0  0  0  0  0  0  0  0  0  0  0
    6.1489  -15.2957   26.4072 C   0  0  0  0  0  0  0  0  0  0  0  0
    5.1030  -15.1427   27.3307 C   0  0  0  0  0  0  0  0  0  0  0  0
    4.7931  -13.8408   27.4057 N   0  0  0  0  0  0  0  0  0  0  0  0
    5.5875  -13.1086   26.5692 C   0  0  0  0  0  0  0  0  0  0  0  0
    5.6237  -11.7553   26.3142 C   0  0  0  0  0  0  0  0  0  0  0  0
    6.5250  -11.2481   25.4072 C   0  0  0  0  0  0  0  0  0  0  0  0
    7.3622  -12.1494   24.7892 C   0  0  0  0  0  0  0  0  0  0  0  0
    7.3363  -13.5041   25.0353 C   0  0  0  0  0  0  0  0  0  0  0  0
    6.4281  -14.0288   25.9526 C   0  0  0  0  0  0  0  0  0  0  0  0
    7.7039  -16.9214   23.8058 C   0  0  0  0  0  0  0  0  0  0  0  0
    8.5348  -17.8644   23.8179 O   0  0  0  0  0  0  0  0  0  0  0  0
    8.4490  -13.2994   21.3374 C   0  0  0  0  0  0  0  0  0  0  0  0
    8.5888  -14.7441   20.9496 C   0  0  2  0  0  0  0  0  0  0  0  0
    7.3336  -15.1160   20.1877 C   0  0  0  0  0  0  0  0  0  0  0  0
    8.9358  -15.6853   22.0309 C   0  0  2  0  0  0  0  0  0  0  0  0
    7.8519  -15.7522   23.0355 N   0  0  0  0  0  0  0  0  0  0  0  0
   10.1667  -15.4647   22.7786 C   0  0  0  0  0  0  0  0  0  0  0  0
   10.7145  -14.3141   22.8986 O   0  0  0  0  0  0  0  0  0  0  0  0
    9.8373  -14.8999   28.2329 C   0  0  0  0  0  0  0  0  0  0  0  0
   11.6063  -14.8544   27.8436 S   0  0  0  0  0  0  0  0  0  0  0  0
   11.8394  -14.8987   26.0831 C   0  0  0  0  0  0  0  0  0  0  0  0
   11.9777  -16.2169   25.4434 C   0  0  0  0  0  0  0  0  0  0  0  0
   12.2078  -16.3008   23.9701 C   0  0  2  0  0  0  0  0  0  0  0  0
   10.8326  -16.5253   23.4262 N   0  0  0  0  0  0  0  0  0  0  0  0
   13.0402  -17.4508   23.5893 C   0  0  0  0  0  0  0  0  0  0  0  0
   14.4472  -17.3340   23.7422 O   0  0  0  0  0  0  0  0  0  0  0  0
   12.5928  -18.5443   23.1322 O   0  0  0  0  0  0  0  0  0  0  0  0
  2  1  1  1
  2 13  1  0
  3  2  1  0
  3  4  1  0
  4  5  2  0
  4 12  1  0
  5  6  1  0
  6  7  1  0
  7  8  2  0
  8  9  1  0
 10  9  2  0
 11 10  1  0
 12 11  2  0
 12  7  1  0
 13 19  1  0
 13 14  2  0
 16 18  1  0
 16 15  1  1
 17 16  1  0
 18 20  1  0
 18 19  1  1
 20 21  2  0
 22 23  1  0
 23 24  1  0
 24 25  1  0
 26 25  1  1
 26 28  1  0
 27 26  1  0
 27 20  1  0
 28 29  1  0
 30 28  2  0
M  END
$$$$
