WVM.pdb
     RDKit          3D

 30 31  0  0  1  0  0  0  0  0999 V2000
    6.0957  -17.4325   23.5651 N   0  0  0  0  0  0  0  0  0  0  0  0
    6.8955  -16.2511   23.3771 C   0  0  1  0  0  0  0  0  0  0  0  0
    7.8088  -15.9579   24.5166 C   0  0  0  0  0  0  0  0  0  0  0  0
    7.2430  -15.1502   25.5994 C   0  0  0  0  0  0  0  0  0  0  0  0
    6.4920  -15.5975   26.6977 C   0  0  0  0  0  0  0  0  0  0  0  0
    6.1921  -14.5391   27.4633 N   0  0  0  0  0  0  0  0  0  0  0  0
    6.7098  -13.3946   26.9255 C   0  0  0  0  0  0  0  0  0  0  0  0
    6.6498  -12.0876   27.3566 C   0  0  0  0  0  0  0  0  0  0  0  0
    7.2546  -11.0916   26.6254 C   0  0  0  0  0  0  0  0  0  0  0  0
    7.9032  -11.4709   25.4719 C   0  0  0  0  0  0  0  0  0  0  0  0
    7.9708  -12.7735   25.0303 C   0  0  0  0  0  0  0  0  0  0  0  0
    7.3624  -13.7905   25.7632 C   0  0  0  0  0  0  0  0  0  0  0  0
    7.7371  -16.3348   22.1316 C   0  0  0  0  0  0  0  0  0  0  0  0
    8.1497  -17.4743   21.7983 O   0  0  0  0  0  0  0  0  0  0  0  0
    9.2045  -12.7606   19.8297 C   0  0  0  0  0  0  0  0  0  0  0  0
    8.6193  -14.0523   19.3337 C   0  0  2  0  0  0  0  0  0  0  0  0
    7.1654  -13.7780   19.0094 C   0  0  0  0  0  0  0  0  0  0  0  0
    8.8314  -15.2400   20.1824 C   0  0  2  0  0  0  0  0  0  0  0  0
    8.0169  -15.1560   21.4145 N   0  0  0  0  0  0  0  0  0  0  0  0
   10.1867  -15.5547   20.6145 C   0  0  0  0  0  0  0  0  0  0  0  0
   10.6858  -15.1296   21.7140 O   0  0  0  0  0  0  0  0  0  0  0  0
   15.2181  -12.9139   17.0622 C   0  0  0  0  0  0  0  0  0  0  0  0
   14.9888  -13.8456   18.5992 S   0  0  0  0  0  0  0  0  0  0  0  0
   13.2881  -14.3314   18.7640 C   0  0  0  0  0  0  0  0  0  0  0  0
   12.8634  -14.9148   20.0466 C   0  0  0  0  0  0  0  0  0  0  0  0
   12.5066  -16.3634   20.1155 C   0  0  2  0  0  0  0  0  0  0  0  0
   11.0377  -16.3627   19.8331 N   0  0  0  0  0  0  0  0  0  0  0  0
   12.7117  -16.9364   21.4534 C   0  0  0  0  0  0  0  0  0  0  0  0
   13.9648  -17.5434   21.7328 O   0  0  0  0  0  0  0  0  0  0  0  0
   11.8485  -16.9290   22.3805 O   0  0  0  0  0  0  0  0  0  0  0  0
  2  1  1  1
  2 13  1  0
  3  2  1  0
  3  4  1  0
  4  5  2  0
  4 12  1  0
  5  6  1  0
  6  7  1  0
  7  8  2  0
  8  9  1  0
 10  9  2  0
 11 10  1  0
 12 11  2  0
 12  7  1  0
 13 19  1  0
 13 14  2  0
 16 18  1  0
 16 15  1  1
 17 16  1  0
 18 20  1  0
 18 19  1  1
 20 21  2  0
 22 23  1  0
 23 24  1  0
 24 25  1  0
 26 25  1  1
 26 28  1  0
 27 26  1  0
 27 20  1  0
 28 29  1  0
 30 28  2  0
M  END
$$$$
