WVM.pdb
     RDKit          3D

 30 31  0  0  1  0  0  0  0  0999 V2000
    5.5219  -17.7968   25.3052 N   0  0  0  0  0  0  0  0  0  0  0  0
    6.2606  -16.5626   25.2609 C   0  0  1  0  0  0  0  0  0  0  0  0
    6.8678  -16.1804   26.5662 C   0  0  0  0  0  0  0  0  0  0  0  0
    7.3374  -14.7973   26.6737 C   0  0  0  0  0  0  0  0  0  0  0  0
    8.6481  -14.3550   26.9112 C   0  0  0  0  0  0  0  0  0  0  0  0
    8.6485  -13.0147   26.9084 N   0  0  0  0  0  0  0  0  0  0  0  0
    7.3901  -12.5342   26.6792 C   0  0  0  0  0  0  0  0  0  0  0  0
    6.9187  -11.2423   26.5969 C   0  0  0  0  0  0  0  0  0  0  0  0
    5.5837  -11.0090   26.3612 C   0  0  0  0  0  0  0  0  0  0  0  0
    4.7734  -12.1126   26.2176 C   0  0  0  0  0  0  0  0  0  0  0  0
    5.2321  -13.4086   26.2974 C   0  0  0  0  0  0  0  0  0  0  0  0
    6.5825  -13.6568   26.5350 C   0  0  0  0  0  0  0  0  0  0  0  0
    7.3676  -16.6067   24.2415 C   0  0  0  0  0  0  0  0  0  0  0  0
    8.1397  -17.5977   24.2816 O   0  0  0  0  0  0  0  0  0  0  0  0
    6.8109  -14.8871   20.5614 C   0  0  0  0  0  0  0  0  0  0  0  0
    8.1952  -14.7537   21.1297 C   0  0  2  0  0  0  0  0  0  0  0  0
    9.1582  -14.8602   19.9654 C   0  0  0  0  0  0  0  0  0  0  0  0
    8.5277  -15.6329   22.2663 C   0  0  2  0  0  0  0  0  0  0  0  0
    7.4832  -15.5564   23.3112 N   0  0  0  0  0  0  0  0  0  0  0  0
    9.7989  -15.4367   22.9506 C   0  0  0  0  0  0  0  0  0  0  0  0
   10.1961  -14.2955   23.3729 O   0  0  0  0  0  0  0  0  0  0  0  0
   10.1015  -14.9067   28.7271 C   0  0  0  0  0  0  0  0  0  0  0  0
   11.1322  -16.1206   27.8629 S   0  0  0  0  0  0  0  0  0  0  0  0
   11.3993  -15.6018   26.1851 C   0  0  0  0  0  0  0  0  0  0  0  0
   11.8458  -16.6165   25.2171 C   0  0  0  0  0  0  0  0  0  0  0  0
   12.0232  -16.2396   23.7829 C   0  0  2  0  0  0  0  0  0  0  0  0
   10.6762  -16.5134   23.1931 N   0  0  0  0  0  0  0  0  0  0  0  0
   13.0035  -17.0872   23.0894 C   0  0  0  0  0  0  0  0  0  0  0  0
   14.3808  -16.7803   23.2501 O   0  0  0  0  0  0  0  0  0  0  0  0
   12.7091  -18.0764   22.3548 O   0  0  0  0  0  0  0  0  0  0  0  0
  2  1  1  1
  2 13  1  0
  3  2  1  0
  3  4  1  0
  4  5  2  0
  4 12  1  0
  5  6  1  0
  6  7  1  0
  7  8  2  0
  8  9  1  0
 10  9  2  0
 11 10  1  0
 12 11  2  0
 12  7  1  0
 13 19  1  0
 13 14  2  0
 16 18  1  0
 16 15  1  6
 17 16  1  0
 18 20  1  0
 18 19  1  1
 20 21  2  0
 22 23  1  0
 23 24  1  0
 24 25  1  0
 26 25  1  1
 26 28  1  0
 27 26  1  0
 27 20  1  0
 28 29  1  0
 30 28  2  0
M  END
$$$$
