LKG.pdb
     RDKit          3D

 22 21  0  0  1  0  0  0  0  0999 V2000
   27.9880  -20.4134  -17.6793 C   0  0  0  0  0  0  0  0  0  0  0  0
   26.7767  -19.5774  -17.3522 C   0  0  2  0  0  0  0  0  0  0  0  0
   27.1341  -18.4577  -16.3963 C   0  0  0  0  0  0  0  0  0  0  0  0
   25.6695  -20.3905  -16.7554 C   0  0  0  0  0  0  0  0  0  0  0  0
   25.8508  -20.6883  -15.2950 C   0  0  2  0  0  0  0  0  0  0  0  0
   26.7974  -21.7472  -15.0803 N   0  0  0  0  0  0  0  0  0  0  0  0
   24.4993  -21.0843  -14.7677 C   0  0  0  0  0  0  0  0  0  0  0  0
   24.0990  -22.2738  -14.8153 O   0  0  0  0  0  0  0  0  0  0  0  0
   23.6190  -20.1294  -14.1938 N   0  0  0  0  0  0  0  0  0  0  0  0
   22.2782  -20.5108  -13.7624 C   0  0  1  0  0  0  0  0  0  0  0  0
   21.8484  -19.5529  -12.7131 C   0  0  0  0  0  0  0  0  0  0  0  0
   20.5027  -19.7841  -12.1250 C   0  0  0  0  0  0  0  0  0  0  0  0
   20.6211  -20.9939  -11.1988 C   0  0  0  0  0  0  0  0  0  0  0  0
   19.2918  -21.3217  -10.5620 C   0  0  0  0  0  0  0  0  0  0  0  0
   19.4755  -22.4418   -9.6636 N   0  0  0  0  0  0  0  0  0  0  0  0
   21.4097  -20.6638  -14.9146 C   0  0  0  0  0  0  0  0  0  0  0  0
   21.3491  -19.7818  -15.7955 O   0  0  0  0  0  0  0  0  0  0  0  0
   20.6118  -21.8231  -15.0607 N   0  0  0  0  0  0  0  0  0  0  0  0
   19.7189  -22.0262  -16.1688 C   0  0  0  0  0  0  0  0  0  0  0  0
   18.4303  -21.3662  -15.8737 C   0  0  0  0  0  0  0  0  0  0  0  0
   17.4081  -21.4024  -16.7928 O   0  0  0  0  0  0  0  0  0  0  0  0
   18.2674  -20.7701  -14.7801 O   0  0  0  0  0  0  0  0  0  0  0  0
  2  1  1  1
  2  4  1  0
  2  3  1  0
  5  7  1  0
  5  4  1  0
  5  6  1  6
  7  8  2  0
  9 10  1  0
  9  7  1  0
 11 12  1  0
 10 11  1  1
 12 13  1  0
 13 14  1  0
 14 15  1  0
 16 18  1  0
 16 10  1  0
 17 16  2  0
 19 20  1  0
 19 18  1  0
 20 21  1  0
 22 20  2  0
M  END
$$$$
