LKG.pdb
     RDKit          3D

 22 21  0  0  1  0  0  0  0  0999 V2000
   26.7725  -32.5135   -9.3697 C   0  0  0  0  0  0  0  0  0  0  0  0
   25.3828  -32.7969   -8.8585 C   0  0  2  0  0  0  0  0  0  0  0  0
   24.6310  -31.5088   -8.5923 C   0  0  0  0  0  0  0  0  0  0  0  0
   25.3946  -33.6197   -7.6071 C   0  0  0  0  0  0  0  0  0  0  0  0
   26.2395  -34.8575   -7.6992 C   0  0  2  0  0  0  0  0  0  0  0  0
   25.7015  -35.8014   -8.6389 N   0  0  0  0  0  0  0  0  0  0  0  0
   26.2721  -35.4574   -6.3207 C   0  0  0  0  0  0  0  0  0  0  0  0
   25.3006  -36.1106   -5.8660 O   0  0  0  0  0  0  0  0  0  0  0  0
   27.4032  -35.3101   -5.4752 N   0  0  0  0  0  0  0  0  0  0  0  0
   27.5287  -36.0912   -4.2489 C   0  0  1  0  0  0  0  0  0  0  0  0
   28.8231  -36.8158   -4.3018 C   0  0  0  0  0  0  0  0  0  0  0  0
   28.8236  -38.1052   -5.0417 C   0  0  0  0  0  0  0  0  0  0  0  0
   30.2446  -38.6627   -4.9680 C   0  0  0  0  0  0  0  0  0  0  0  0
   30.3126  -40.0534   -5.5520 C   0  0  0  0  0  0  0  0  0  0  0  0
   31.6755  -40.5302   -5.4480 N   0  0  0  0  0  0  0  0  0  0  0  0
   27.2902  -35.2458   -3.0941 C   0  0  0  0  0  0  0  0  0  0  0  0
   27.7353  -34.0807   -3.0475 O   0  0  0  0  0  0  0  0  0  0  0  0
   26.5439  -35.7303   -1.9940 N   0  0  0  0  0  0  0  0  0  0  0  0
   26.1778  -34.9096   -0.8720 C   0  0  0  0  0  0  0  0  0  0  0  0
   27.2891  -34.9051    0.1017 C   0  0  0  0  0  0  0  0  0  0  0  0
   27.1661  -34.2212    1.2884 O   0  0  0  0  0  0  0  0  0  0  0  0
   28.3496  -35.5276   -0.1545 O   0  0  0  0  0  0  0  0  0  0  0  0
  2  1  1  1
  2  4  1  0
  2  3  1  0
  5  7  1  0
  5  4  1  0
  5  6  1  6
  7  8  2  0
  9 10  1  0
  9  7  1  0
 11 12  1  0
 10 11  1  1
 12 13  1  0
 13 14  1  0
 14 15  1  0
 16 18  1  0
 16 10  1  0
 17 16  2  0
 19 20  1  0
 19 18  1  0
 20 21  1  0
 22 20  2  0
M  END
$$$$
