LKG.pdb
     RDKit          3D

 22 21  0  0  1  0  0  0  0  0999 V2000
    9.7480  -12.7744  -11.4044 C   0  0  0  0  0  0  0  0  0  0  0  0
   10.8592  -13.6363  -10.8608 C   0  0  2  0  0  0  0  0  0  0  0  0
   10.8425  -13.6488   -9.3459 C   0  0  0  0  0  0  0  0  0  0  0  0
   12.2087  -13.1847  -11.3278 C   0  0  0  0  0  0  0  0  0  0  0  0
   12.3111  -13.0069  -12.8152 C   0  0  2  0  0  0  0  0  0  0  0  0
   12.2204  -14.2611  -13.5095 N   0  0  0  0  0  0  0  0  0  0  0  0
   13.6437  -12.3620  -13.0786 C   0  0  0  0  0  0  0  0  0  0  0  0
   14.0825  -11.4396  -12.3478 O   0  0  0  0  0  0  0  0  0  0  0  0
   14.4620  -12.7692  -14.1652 N   0  0  0  0  0  0  0  0  0  0  0  0
   15.7823  -12.1823  -14.3699 C   0  0  1  0  0  0  0  0  0  0  0  0
   16.6025  -13.1608  -15.1269 C   0  0  0  0  0  0  0  0  0  0  0  0
   16.8536  -14.4639  -14.4569 C   0  0  0  0  0  0  0  0  0  0  0  0
   17.7456  -15.2820  -15.3900 C   0  0  0  0  0  0  0  0  0  0  0  0
   18.1677  -16.5775  -14.7391 C   0  0  0  0  0  0  0  0  0  0  0  0
   18.9927  -17.3143  -15.6729 N   0  0  0  0  0  0  0  0  0  0  0  0
   15.6530  -10.8513  -14.9329 C   0  0  0  0  0  0  0  0  0  0  0  0
   14.7937  -10.6020  -15.8031 O   0  0  0  0  0  0  0  0  0  0  0  0
   16.5039   -9.8061  -14.5023 N   0  0  0  0  0  0  0  0  0  0  0  0
   16.4724   -8.4852  -15.0686 C   0  0  0  0  0  0  0  0  0  0  0  0
   17.4451   -7.6334  -14.3535 C   0  0  0  0  0  0  0  0  0  0  0  0
   17.6209   -6.3214  -14.7262 O   0  0  0  0  0  0  0  0  0  0  0  0
   18.1137   -8.1084  -13.4021 O   0  0  0  0  0  0  0  0  0  0  0  0
  2  1  1  1
  2  4  1  0
  2  3  1  0
  5  7  1  0
  5  4  1  0
  5  6  1  6
  7  8  2  0
  9 10  1  0
  9  7  1  0
 11 12  1  0
 10 11  1  6
 12 13  1  0
 13 14  1  0
 14 15  1  0
 16 18  1  0
 16 10  1  0
 17 16  2  0
 19 20  1  0
 19 18  1  0
 20 21  1  0
 22 20  2  0
M  END
$$$$
