LKG.pdb
     RDKit          3D

 22 21  0  0  1  0  0  0  0  0999 V2000
   28.9462  -18.6364   -5.4400 C   0  0  0  0  0  0  0  0  0  0  0  0
   27.9860  -19.7834   -5.2517 C   0  0  2  0  0  0  0  0  0  0  0  0
   28.5583  -20.8184   -4.3048 C   0  0  0  0  0  0  0  0  0  0  0  0
   27.6369  -20.4504   -6.5465 C   0  0  0  0  0  0  0  0  0  0  0  0
   27.2035  -19.4996   -7.6247 C   0  0  2  0  0  0  0  0  0  0  0  0
   26.1615  -18.6202   -7.1726 N   0  0  0  0  0  0  0  0  0  0  0  0
   26.7116  -20.3437   -8.7678 C   0  0  0  0  0  0  0  0  0  0  0  0
   27.1481  -21.5054   -8.9612 O   0  0  0  0  0  0  0  0  0  0  0  0
   25.7328  -19.8623   -9.6768 N   0  0  0  0  0  0  0  0  0  0  0  0
   25.3392  -20.6501  -10.8404 C   0  0  1  0  0  0  0  0  0  0  0  0
   23.9541  -20.2612  -11.2055 C   0  0  0  0  0  0  0  0  0  0  0  0
   22.9039  -21.2900  -10.9845 C   0  0  0  0  0  0  0  0  0  0  0  0
   21.5781  -20.6806  -11.4392 C   0  0  0  0  0  0  0  0  0  0  0  0
   20.4269  -21.6170  -11.1602 C   0  0  0  0  0  0  0  0  0  0  0  0
   19.1902  -20.9309  -11.4695 N   0  0  0  0  0  0  0  0  0  0  0  0
   26.3502  -20.5468  -11.8760 C   0  0  0  0  0  0  0  0  0  0  0  0
   26.7155  -19.4347  -12.3091 O   0  0  0  0  0  0  0  0  0  0  0  0
   26.9436  -21.7122  -12.4160 N   0  0  0  0  0  0  0  0  0  0  0  0
   26.5957  -22.2444  -13.7052 C   0  0  0  0  0  0  0  0  0  0  0  0
   27.0831  -21.3227  -14.7520 C   0  0  0  0  0  0  0  0  0  0  0  0
   26.3177  -20.2473  -15.1378 O   0  0  0  0  0  0  0  0  0  0  0  0
   28.1999  -21.5213  -15.2916 O   0  0  0  0  0  0  0  0  0  0  0  0
  2  1  1  6
  2  4  1  0
  2  3  1  0
  5  7  1  0
  5  4  1  0
  5  6  1  1
  7  8  2  0
  9 10  1  0
  9  7  1  0
 11 12  1  0
 10 11  1  6
 12 13  1  0
 13 14  1  0
 14 15  1  0
 16 18  1  0
 16 10  1  0
 17 16  2  0
 19 20  1  0
 19 18  1  0
 20 21  1  0
 22 20  2  0
M  END
$$$$
