LKG.pdb
     RDKit          3D

 22 21  0  0  1  0  0  0  0  0999 V2000
   27.3451  -23.3036  -17.9110 C   0  0  0  0  0  0  0  0  0  0  0  0
   27.4512  -23.7789  -16.4841 C   0  0  2  0  0  0  0  0  0  0  0  0
   27.9517  -25.2077  -16.4255 C   0  0  0  0  0  0  0  0  0  0  0  0
   26.1443  -23.6921  -15.7577 C   0  0  0  0  0  0  0  0  0  0  0  0
   25.5802  -22.3028  -15.6817 C   0  0  2  0  0  0  0  0  0  0  0  0
   26.6151  -21.3124  -15.5743 N   0  0  0  0  0  0  0  0  0  0  0  0
   24.6966  -22.2653  -14.4655 C   0  0  0  0  0  0  0  0  0  0  0  0
   23.8969  -23.1983  -14.2061 O   0  0  0  0  0  0  0  0  0  0  0  0
   24.7297  -21.1728  -13.5591 N   0  0  0  0  0  0  0  0  0  0  0  0
   23.7756  -21.0833  -12.4586 C   0  0  1  0  0  0  0  0  0  0  0  0
   24.3824  -20.2406  -11.3980 C   0  0  0  0  0  0  0  0  0  0  0  0
   23.5144  -19.9265  -10.2326 C   0  0  0  0  0  0  0  0  0  0  0  0
   23.8855  -20.9077   -9.1212 C   0  0  0  0  0  0  0  0  0  0  0  0
   23.0040  -20.7147   -7.9106 C   0  0  0  0  0  0  0  0  0  0  0  0
   23.3744  -21.6937   -6.9106 N   0  0  0  0  0  0  0  0  0  0  0  0
   22.4745  -20.6813  -12.9597 C   0  0  0  0  0  0  0  0  0  0  0  0
   22.3678  -19.7994  -13.8364 O   0  0  0  0  0  0  0  0  0  0  0  0
   21.2970  -21.2863  -12.4606 N   0  0  0  0  0  0  0  0  0  0  0  0
   19.9764  -20.8393  -12.8109 C   0  0  0  0  0  0  0  0  0  0  0  0
   19.3991  -21.7756  -13.7974 C   0  0  0  0  0  0  0  0  0  0  0  0
   18.1186  -22.2496  -13.6341 O   0  0  0  0  0  0  0  0  0  0  0  0
   20.0794  -22.1401  -14.7884 O   0  0  0  0  0  0  0  0  0  0  0  0
  2  1  1  6
  2  4  1  0
  2  3  1  0
  5  7  1  0
  5  4  1  0
  5  6  1  1
  7  8  2  0
  9 10  1  0
  9  7  1  0
 11 12  1  0
 10 11  1  1
 12 13  1  0
 13 14  1  0
 14 15  1  0
 16 18  1  0
 16 10  1  0
 17 16  2  0
 19 20  1  0
 19 18  1  0
 20 21  1  0
 22 20  2  0
M  END
$$$$
