LKG.pdb
     RDKit          3D

 22 21  0  0  1  0  0  0  0  0999 V2000
   22.5563  -21.4222  -10.3877 C   0  0  0  0  0  0  0  0  0  0  0  0
   23.9772  -21.3205   -9.8939 C   0  0  2  0  0  0  0  0  0  0  0  0
   24.0356  -20.6124   -8.5558 C   0  0  0  0  0  0  0  0  0  0  0  0
   24.8652  -20.6021  -10.8626 C   0  0  0  0  0  0  0  0  0  0  0  0
   24.8307  -21.1648  -12.2542 C   0  0  2  0  0  0  0  0  0  0  0  0
   25.2290  -22.5447  -12.2812 N   0  0  0  0  0  0  0  0  0  0  0  0
   25.7777  -20.3343  -13.0756 C   0  0  0  0  0  0  0  0  0  0  0  0
   25.6608  -19.0860  -13.1499 O   0  0  0  0  0  0  0  0  0  0  0  0
   26.8442  -20.9271  -13.8018 N   0  0  0  0  0  0  0  0  0  0  0  0
   27.7296  -20.1145  -14.6296 C   0  0  1  0  0  0  0  0  0  0  0  0
   29.1286  -20.4670  -14.2809 C   0  0  0  0  0  0  0  0  0  0  0  0
   29.6027  -20.0249  -12.9431 C   0  0  0  0  0  0  0  0  0  0  0  0
   29.9677  -21.2849  -12.1590 C   0  0  0  0  0  0  0  0  0  0  0  0
   30.4574  -20.9386  -10.7732 C   0  0  0  0  0  0  0  0  0  0  0  0
   30.8089  -22.1651  -10.0893 N   0  0  0  0  0  0  0  0  0  0  0  0
   27.3472  -20.2260  -16.0248 C   0  0  0  0  0  0  0  0  0  0  0  0
   27.2901  -21.3379  -16.5888 O   0  0  0  0  0  0  0  0  0  0  0  0
   27.0298  -19.0689  -16.7748 N   0  0  0  0  0  0  0  0  0  0  0  0
   26.7526  -19.0998  -18.1850 C   0  0  0  0  0  0  0  0  0  0  0  0
   25.3354  -19.4657  -18.3873 C   0  0  0  0  0  0  0  0  0  0  0  0
   24.3764  -18.4858  -18.4935 O   0  0  0  0  0  0  0  0  0  0  0  0
   25.0049  -20.6752  -18.4626 O   0  0  0  0  0  0  0  0  0  0  0  0
  2  1  1  6
  2  4  1  0
  2  3  1  0
  5  7  1  0
  5  4  1  0
  5  6  1  1
  7  8  2  0
  9 10  1  0
  9  7  1  0
 11 12  1  0
 10 11  1  6
 12 13  1  0
 13 14  1  0
 14 15  1  0
 16 18  1  0
 16 10  1  0
 17 16  2  0
 19 20  1  0
 19 18  1  0
 20 21  1  0
 22 20  2  0
M  END
$$$$
