LKG.pdb
     RDKit          3D

 22 21  0  0  1  0  0  0  0  0999 V2000
   24.0946  -20.9641  -10.1296 C   0  0  0  0  0  0  0  0  0  0  0  0
   25.5910  -21.0824   -9.9887 C   0  0  2  0  0  0  0  0  0  0  0  0
   26.1003  -20.1996   -8.8678 C   0  0  0  0  0  0  0  0  0  0  0  0
   26.3106  -20.7259  -11.2528 C   0  0  0  0  0  0  0  0  0  0  0  0
   25.8524  -21.5007  -12.4545 C   0  0  2  0  0  0  0  0  0  0  0  0
   26.9584  -22.0514  -13.1872 N   0  0  0  0  0  0  0  0  0  0  0  0
   25.0849  -20.5378  -13.3177 C   0  0  0  0  0  0  0  0  0  0  0  0
   25.5573  -19.4172  -13.6312 O   0  0  0  0  0  0  0  0  0  0  0  0
   23.7933  -20.8557  -13.8146 N   0  0  0  0  0  0  0  0  0  0  0  0
   23.0652  -19.9178  -14.6629 C   0  0  1  0  0  0  0  0  0  0  0  0
   23.3180  -20.2927  -16.0767 C   0  0  0  0  0  0  0  0  0  0  0  0
   22.8600  -19.3217  -17.1050 C   0  0  0  0  0  0  0  0  0  0  0  0
   23.2216  -19.9101  -18.4683 C   0  0  0  0  0  0  0  0  0  0  0  0
   22.7073  -19.0386  -19.5889 C   0  0  0  0  0  0  0  0  0  0  0  0
   22.9909  -19.6932  -20.8485 N   0  0  0  0  0  0  0  0  0  0  0  0
   21.6804  -19.8345  -14.2378 C   0  0  0  0  0  0  0  0  0  0  0  0
   21.1306  -20.7872  -13.6482 O   0  0  0  0  0  0  0  0  0  0  0  0
   20.9247  -18.6643  -14.4855 N   0  0  0  0  0  0  0  0  0  0  0  0
   19.5636  -18.5031  -14.0520 C   0  0  0  0  0  0  0  0  0  0  0  0
   18.6889  -19.3436  -14.8955 C   0  0  0  0  0  0  0  0  0  0  0  0
   17.3586  -19.4916  -14.5801 O   0  0  0  0  0  0  0  0  0  0  0  0
   19.1611  -19.9250  -15.9039 O   0  0  0  0  0  0  0  0  0  0  0  0
  2  1  1  6
  2  4  1  0
  2  3  1  0
  5  7  1  0
  5  4  1  0
  5  6  1  6
  7  8  2  0
  9 10  1  0
  9  7  1  0
 11 12  1  0
 10 11  1  6
 12 13  1  0
 13 14  1  0
 14 15  1  0
 16 18  1  0
 16 10  1  0
 17 16  2  0
 19 20  1  0
 19 18  1  0
 20 21  1  0
 22 20  2  0
M  END
$$$$
