DQV.pdb
     RDKit          3D

 25 24  0  0  1  0  0  0  0  0999 V2000
   28.2490  -21.5041  -15.9394 N   0  0  0  0  0  0  0  0  0  0  0  0
   27.4735  -20.4500  -15.3188 C   0  0  1  0  0  0  0  0  0  0  0  0
   26.9691  -19.4863  -16.3817 C   0  0  0  0  0  0  0  0  0  0  0  0
   28.1482  -18.7541  -16.9106 C   0  0  0  0  0  0  0  0  0  0  0  0
   28.7800  -19.2224  -17.8982 O   0  0  0  0  0  0  0  0  0  0  0  0
   26.3559  -20.9944  -14.5053 C   0  0  0  0  0  0  0  0  0  0  0  0
   25.7740  -22.0171  -14.9802 O   0  0  0  0  0  0  0  0  0  0  0  0
   28.6069  -17.5612  -16.3732 O   0  0  0  0  0  0  0  0  0  0  0  0
   25.2358  -20.5742   -8.3385 N   0  0  0  0  0  0  0  0  0  0  0  0
   26.3973  -20.9599   -9.0396 C   0  0  0  0  0  0  0  0  0  0  0  0
   27.4655  -21.1138   -8.4188 O   0  0  0  0  0  0  0  0  0  0  0  0
   26.3613  -21.1825  -10.4959 C   0  0  0  0  0  0  0  0  0  0  0  0
   24.9970  -20.8450  -11.0445 C   0  0  0  0  0  0  0  0  0  0  0  0
   24.8981  -21.0362  -12.5300 C   0  0  2  0  0  0  0  0  0  0  0  0
   25.9417  -20.4327  -13.2760 N   0  0  0  0  0  0  0  0  0  0  0  0
   23.5875  -20.4961  -12.9752 C   0  0  0  0  0  0  0  0  0  0  0  0
   23.4063  -19.2535  -13.0412 O   0  0  0  0  0  0  0  0  0  0  0  0
   21.0931  -22.9168  -15.1726 C   0  0  0  0  0  0  0  0  0  0  0  0
   20.9807  -21.3975  -15.2032 C   0  0  2  0  0  0  0  0  0  0  0  0
   22.0757  -20.9032  -16.1386 C   0  0  0  0  0  0  0  0  0  0  0  0
   21.2530  -20.8839  -13.8171 C   0  0  2  0  0  0  0  0  0  0  0  0
   22.5295  -21.3642  -13.3299 N   0  0  0  0  0  0  0  0  0  0  0  0
   20.1754  -21.3501  -12.9249 C   0  0  0  0  0  0  0  0  0  0  0  0
   20.4196  -22.2205  -12.0519 O   0  0  0  0  0  0  0  0  0  0  0  0
   18.8871  -20.8536  -13.0194 O   0  0  0  0  0  0  0  0  0  0  0  0
  2  3  1  0
  2  1  1  6
  3  4  1  0
  4  5  2  0
  6  2  1  0
  7  6  2  0
  8  4  1  0
  9 10  1  0
 10 12  1  0
 11 10  2  0
 13 12  1  0
 14 13  1  1
 14 15  1  0
 15  6  1  0
 16 14  1  0
 16 17  2  0
 19 18  1  1
 20 19  1  0
 21 22  1  1
 21 19  1  0
 22 16  1  0
 23 21  1  0
 24 23  2  0
 25 23  1  0
M  END
$$$$
