DQV.pdb
     RDKit          3D

 25 24  0  0  1  0  0  0  0  0999 V2000
   19.9990  -12.4763  -18.8998 N   0  0  0  0  0  0  0  0  0  0  0  0
   20.1775  -12.0999  -17.5127 C   0  0  1  0  0  0  0  0  0  0  0  0
   21.6237  -12.3240  -17.0991 C   0  0  0  0  0  0  0  0  0  0  0  0
   21.8770  -13.7866  -17.1505 C   0  0  0  0  0  0  0  0  0  0  0  0
   22.6463  -14.2544  -18.0355 O   0  0  0  0  0  0  0  0  0  0  0  0
   19.7524  -10.6983  -17.2633 C   0  0  0  0  0  0  0  0  0  0  0  0
   20.0162   -9.8685  -18.1864 O   0  0  0  0  0  0  0  0  0  0  0  0
   21.3071  -14.6891  -16.2656 O   0  0  0  0  0  0  0  0  0  0  0  0
   15.3494  -10.2411  -14.1447 N   0  0  0  0  0  0  0  0  0  0  0  0
   15.2013   -9.9782  -15.5225 C   0  0  0  0  0  0  0  0  0  0  0  0
   14.2154  -10.4338  -16.1312 O   0  0  0  0  0  0  0  0  0  0  0  0
   16.1983   -9.1718  -16.2487 C   0  0  0  0  0  0  0  0  0  0  0  0
   17.3175   -8.7633  -15.3231 C   0  0  0  0  0  0  0  0  0  0  0  0
   18.6774   -8.9354  -15.9349 C   0  0  2  0  0  0  0  0  0  0  0  0
   19.0942  -10.2822  -16.0837 N   0  0  0  0  0  0  0  0  0  0  0  0
   19.6551   -8.1989  -15.0928 C   0  0  0  0  0  0  0  0  0  0  0  0
   19.9581   -8.6321  -13.9518 O   0  0  0  0  0  0  0  0  0  0  0  0
   23.2712   -4.8578  -15.0645 C   0  0  0  0  0  0  0  0  0  0  0  0
   22.3521   -5.8038  -15.8276 C   0  0  2  0  0  0  0  0  0  0  0  0
   21.6275   -4.9572  -16.8650 C   0  0  0  0  0  0  0  0  0  0  0  0
   21.3456   -6.3560  -14.8574 C   0  0  2  0  0  0  0  0  0  0  0  0
   20.2573   -7.0070  -15.5570 N   0  0  0  0  0  0  0  0  0  0  0  0
   20.8175   -5.2434  -14.0465 C   0  0  0  0  0  0  0  0  0  0  0  0
   19.7092   -4.7282  -14.3388 O   0  0  0  0  0  0  0  0  0  0  0  0
   21.5122   -4.7418  -12.9598 O   0  0  0  0  0  0  0  0  0  0  0  0
  2  3  1  0
  2  1  1  6
  3  4  1  0
  4  5  2  0
  6  2  1  0
  7  6  2  0
  8  4  1  0
  9 10  1  0
 10 12  1  0
 11 10  2  0
 13 12  1  0
 14 13  1  1
 14 15  1  0
 15  6  1  0
 16 14  1  0
 16 17  2  0
 19 18  1  1
 20 19  1  0
 21 22  1  6
 21 19  1  0
 22 16  1  0
 23 21  1  0
 24 23  2  0
 25 23  1  0
M  END
$$$$
