DQV.pdb
     RDKit          3D

 25 24  0  0  1  0  0  0  0  0999 V2000
   16.7695  -15.1554  -17.6277 N   0  0  0  0  0  0  0  0  0  0  0  0
   16.9155  -14.2650  -16.4947 C   0  0  1  0  0  0  0  0  0  0  0  0
   17.4955  -15.0255  -15.3122 C   0  0  0  0  0  0  0  0  0  0  0  0
   16.4672  -15.9996  -14.8652 C   0  0  0  0  0  0  0  0  0  0  0  0
   15.2976  -15.9297  -15.3354 O   0  0  0  0  0  0  0  0  0  0  0  0
   17.7390  -13.0753  -16.8317 C   0  0  0  0  0  0  0  0  0  0  0  0
   18.4365  -13.1674  -17.8878 O   0  0  0  0  0  0  0  0  0  0  0  0
   16.7199  -17.0030  -13.9424 O   0  0  0  0  0  0  0  0  0  0  0  0
   16.1706   -7.6052  -18.0210 N   0  0  0  0  0  0  0  0  0  0  0  0
   15.8219   -8.1013  -16.7475 C   0  0  0  0  0  0  0  0  0  0  0  0
   14.8790   -7.5801  -16.1235 O   0  0  0  0  0  0  0  0  0  0  0  0
   16.5595   -9.2274  -16.1479 C   0  0  0  0  0  0  0  0  0  0  0  0
   17.6857   -9.6588  -17.0543 C   0  0  0  0  0  0  0  0  0  0  0  0
   18.5107  -10.7717  -16.4763 C   0  0  2  0  0  0  0  0  0  0  0  0
   17.7667  -11.8997  -16.0474 N   0  0  0  0  0  0  0  0  0  0  0  0
   19.2877  -10.2213  -15.3358 C   0  0  0  0  0  0  0  0  0  0  0  0
   18.7967  -10.2229  -14.1781 O   0  0  0  0  0  0  0  0  0  0  0  0
   23.2712   -9.0900  -16.0197 C   0  0  0  0  0  0  0  0  0  0  0  0
   22.8436   -9.5844  -14.6432 C   0  0  2  0  0  0  0  0  0  0  0  0
   22.9563  -11.1024  -14.6764 C   0  0  0  0  0  0  0  0  0  0  0  0
   21.4032   -9.2052  -14.4407 C   0  0  2  0  0  0  0  0  0  0  0  0
   20.5833   -9.6905  -15.5315 N   0  0  0  0  0  0  0  0  0  0  0  0
   21.3117   -7.7352  -14.3685 C   0  0  0  0  0  0  0  0  0  0  0  0
   20.8235   -7.0915  -15.3311 O   0  0  0  0  0  0  0  0  0  0  0  0
   21.7518   -7.0327  -13.2604 O   0  0  0  0  0  0  0  0  0  0  0  0
  2  3  1  0
  2  1  1  6
  3  4  1  0
  4  5  2  0
  6  2  1  0
  7  6  2  0
  8  4  1  0
  9 10  1  0
 10 12  1  0
 11 10  2  0
 13 12  1  0
 14 13  1  1
 14 15  1  0
 15  6  1  0
 16 14  1  0
 16 17  2  0
 19 18  1  6
 20 19  1  0
 21 22  1  6
 21 19  1  0
 22 16  1  0
 23 21  1  0
 24 23  2  0
 25 23  1  0
M  END
$$$$
