DQV.pdb
     RDKit          3D

 25 24  0  0  1  0  0  0  0  0999 V2000
   20.5805  -21.5479  -14.2425 N   0  0  0  0  0  0  0  0  0  0  0  0
   20.8008  -20.6647  -13.1160 C   0  0  1  0  0  0  0  0  0  0  0  0
   20.4027  -21.3648  -11.8259 C   0  0  0  0  0  0  0  0  0  0  0  0
   19.0507  -21.9430  -12.0352 C   0  0  0  0  0  0  0  0  0  0  0  0
   18.6092  -22.0844  -13.2095 O   0  0  0  0  0  0  0  0  0  0  0  0
   22.2048  -20.1820  -13.0609 C   0  0  0  0  0  0  0  0  0  0  0  0
   22.4800  -19.3911  -12.1075 O   0  0  0  0  0  0  0  0  0  0  0  0
   18.2261  -22.3457  -10.9959 O   0  0  0  0  0  0  0  0  0  0  0  0
   26.8539  -21.6961  -11.1104 N   0  0  0  0  0  0  0  0  0  0  0  0
   27.5613  -20.9188  -12.0511 C   0  0  0  0  0  0  0  0  0  0  0  0
   28.7405  -20.5954  -11.8167 O   0  0  0  0  0  0  0  0  0  0  0  0
   26.9218  -20.4858  -13.3062 C   0  0  0  0  0  0  0  0  0  0  0  0
   25.5305  -21.0597  -13.4113 C   0  0  0  0  0  0  0  0  0  0  0  0
   24.5161  -20.0574  -13.8797 C   0  0  2  0  0  0  0  0  0  0  0  0
   23.1957  -20.5603  -13.9953 N   0  0  0  0  0  0  0  0  0  0  0  0
   24.9671  -19.5286  -15.1929 C   0  0  0  0  0  0  0  0  0  0  0  0
   24.7118  -20.1609  -16.2495 O   0  0  0  0  0  0  0  0  0  0  0  0
   27.5472  -16.1612  -15.3763 C   0  0  0  0  0  0  0  0  0  0  0  0
   26.3765  -16.2444  -16.3481 C   0  0  2  0  0  0  0  0  0  0  0  0
   25.2056  -15.5432  -15.6731 C   0  0  0  0  0  0  0  0  0  0  0  0
   26.0337  -17.6954  -16.5387 C   0  0  2  0  0  0  0  0  0  0  0  0
   25.6857  -18.3139  -15.2762 N   0  0  0  0  0  0  0  0  0  0  0  0
   27.2031  -18.3804  -17.1199 C   0  0  0  0  0  0  0  0  0  0  0  0
   27.9086  -19.1315  -16.4005 O   0  0  0  0  0  0  0  0  0  0  0  0
   27.5531  -18.2207  -18.4492 O   0  0  0  0  0  0  0  0  0  0  0  0
  2  3  1  0
  2  1  1  6
  3  4  1  0
  4  5  2  0
  6  2  1  0
  7  6  2  0
  8  4  1  0
  9 10  1  0
 10 12  1  0
 11 10  2  0
 13 12  1  0
 14 13  1  6
 14 15  1  0
 15  6  1  0
 16 14  1  0
 16 17  2  0
 19 18  1  1
 20 19  1  0
 21 22  1  1
 21 19  1  0
 22 16  1  0
 23 21  1  0
 24 23  2  0
 25 23  1  0
M  END
$$$$
