DQV.pdb
     RDKit          3D

 25 24  0  0  1  0  0  0  0  0999 V2000
   17.0768  -11.6554  -17.2333 N   0  0  0  0  0  0  0  0  0  0  0  0
   16.9021  -10.6896  -16.1682 C   0  0  1  0  0  0  0  0  0  0  0  0
   17.0780  -11.3709  -14.8199 C   0  0  0  0  0  0  0  0  0  0  0  0
   15.8981  -12.2483  -14.6102 C   0  0  0  0  0  0  0  0  0  0  0  0
   14.9279  -12.1898  -15.4160 O   0  0  0  0  0  0  0  0  0  0  0  0
   17.8232   -9.5334  -16.3165 C   0  0  0  0  0  0  0  0  0  0  0  0
   18.9761   -9.8008  -16.7745 O   0  0  0  0  0  0  0  0  0  0  0  0
   15.7956  -13.1475  -13.5599 O   0  0  0  0  0  0  0  0  0  0  0  0
   16.7500   -3.4554  -17.4000 N   0  0  0  0  0  0  0  0  0  0  0  0
   18.1368   -3.4891  -17.1449 C   0  0  0  0  0  0  0  0  0  0  0  0
   18.8077   -2.4470  -17.2639 O   0  0  0  0  0  0  0  0  0  0  0  0
   18.7999   -4.7412  -16.7397 C   0  0  0  0  0  0  0  0  0  0  0  0
   17.7842   -5.8458  -16.5832 C   0  0  0  0  0  0  0  0  0  0  0  0
   18.3962   -7.1508  -16.1645 C   0  0  2  0  0  0  0  0  0  0  0  0
   17.4695   -8.2073  -15.9783 N   0  0  0  0  0  0  0  0  0  0  0  0
   19.1513   -6.9198  -14.9059 C   0  0  0  0  0  0  0  0  0  0  0  0
   18.5358   -6.7002  -13.8315 O   0  0  0  0  0  0  0  0  0  0  0  0
   23.1708   -7.9306  -14.8940 C   0  0  0  0  0  0  0  0  0  0  0  0
   22.3575   -7.9597  -13.6058 C   0  0  2  0  0  0  0  0  0  0  0  0
   21.6345   -9.2994  -13.5828 C   0  0  0  0  0  0  0  0  0  0  0  0
   21.3397   -6.8557  -13.6745 C   0  0  2  0  0  0  0  0  0  0  0  0
   20.5649   -6.9430  -14.8950 N   0  0  0  0  0  0  0  0  0  0  0  0
   22.0473   -5.5628  -13.6288 C   0  0  0  0  0  0  0  0  0  0  0  0
   22.1203   -4.8535  -14.6635 O   0  0  0  0  0  0  0  0  0  0  0  0
   22.6413   -5.0995  -12.4679 O   0  0  0  0  0  0  0  0  0  0  0  0
  2  3  1  0
  2  1  1  6
  3  4  1  0
  4  5  2  0
  6  2  1  0
  7  6  2  0
  8  4  1  0
  9 10  1  0
 10 12  1  0
 11 10  2  0
 13 12  1  0
 14 13  1  1
 14 15  1  0
 15  6  1  0
 16 14  1  0
 16 17  2  0
 19 18  1  6
 20 19  1  0
 21 22  1  6
 21 19  1  0
 22 16  1  0
 23 21  1  0
 24 23  2  0
 25 23  1  0
M  END
$$$$
