DQV.pdb
     RDKit          3D

 25 24  0  0  1  0  0  0  0  0999 V2000
   27.1248  -21.3651  -10.1852 N   0  0  0  0  0  0  0  0  0  0  0  0
   27.8770  -20.8384  -11.3052 C   0  0  1  0  0  0  0  0  0  0  0  0
   29.1171  -21.6872  -11.5388 C   0  0  0  0  0  0  0  0  0  0  0  0
   29.9428  -21.6129  -10.3064 C   0  0  0  0  0  0  0  0  0  0  0  0
   29.4731  -21.0561   -9.2752 O   0  0  0  0  0  0  0  0  0  0  0  0
   27.0446  -20.7441  -12.5322 C   0  0  0  0  0  0  0  0  0  0  0  0
   27.6799  -20.7224  -13.6304 O   0  0  0  0  0  0  0  0  0  0  0  0
   31.2263  -22.1295  -10.2182 O   0  0  0  0  0  0  0  0  0  0  0  0
   21.5717  -23.2197  -13.9239 N   0  0  0  0  0  0  0  0  0  0  0  0
   22.8500  -23.8137  -13.8719 C   0  0  0  0  0  0  0  0  0  0  0  0
   22.9527  -25.0533  -13.9261 O   0  0  0  0  0  0  0  0  0  0  0  0
   24.0632  -22.9856  -13.7544 C   0  0  0  0  0  0  0  0  0  0  0  0
   23.7033  -21.5207  -13.7829 C   0  0  0  0  0  0  0  0  0  0  0  0
   24.9030  -20.6204  -13.7264 C   0  0  2  0  0  0  0  0  0  0  0  0
   25.6326  -20.6809  -12.5125 N   0  0  0  0  0  0  0  0  0  0  0  0
   24.4425  -19.2280  -13.9649 C   0  0  0  0  0  0  0  0  0  0  0  0
   23.5877  -18.7067  -13.2040 O   0  0  0  0  0  0  0  0  0  0  0  0
   26.2496  -16.9511  -17.0613 C   0  0  0  0  0  0  0  0  0  0  0  0
   25.7312  -16.2916  -15.7892 C   0  0  2  0  0  0  0  0  0  0  0  0
   26.8605  -16.3720  -14.7711 C   0  0  0  0  0  0  0  0  0  0  0  0
   24.5648  -17.0980  -15.2905 C   0  0  2  0  0  0  0  0  0  0  0  0
   24.9541  -18.4710  -15.0437 N   0  0  0  0  0  0  0  0  0  0  0  0
   23.4999  -17.0610  -16.3098 C   0  0  0  0  0  0  0  0  0  0  0  0
   22.8898  -15.9862  -16.5374 O   0  0  0  0  0  0  0  0  0  0  0  0
   23.1463  -18.1864  -17.0333 O   0  0  0  0  0  0  0  0  0  0  0  0
  2  3  1  0
  2  1  1  1
  3  4  1  0
  4  5  2  0
  6  2  1  0
  7  6  2  0
  8  4  1  0
  9 10  1  0
 10 12  1  0
 11 10  2  0
 13 12  1  0
 14 13  1  1
 14 15  1  0
 15  6  1  0
 16 14  1  0
 16 17  2  0
 19 18  1  6
 20 19  1  0
 21 22  1  6
 21 19  1  0
 22 16  1  0
 23 21  1  0
 24 23  2  0
 25 23  1  0
M  END
$$$$
