DQV.pdb
     RDKit          3D

 25 24  0  0  1  0  0  0  0  0999 V2000
   27.1787  -24.1531  -15.8302 N   0  0  0  0  0  0  0  0  0  0  0  0
   26.2199  -23.4189  -16.6297 C   0  0  1  0  0  0  0  0  0  0  0  0
   25.5316  -24.3615  -17.6046 C   0  0  0  0  0  0  0  0  0  0  0  0
   26.5728  -24.8816  -18.5273 C   0  0  0  0  0  0  0  0  0  0  0  0
   27.7906  -24.7884  -18.2074 O   0  0  0  0  0  0  0  0  0  0  0  0
   25.2341  -22.6982  -15.7835 C   0  0  0  0  0  0  0  0  0  0  0  0
   24.1107  -22.4615  -16.3240 O   0  0  0  0  0  0  0  0  0  0  0  0
   26.2818  -25.4763  -19.7454 O   0  0  0  0  0  0  0  0  0  0  0  0
   25.3146  -21.2458   -9.5558 N   0  0  0  0  0  0  0  0  0  0  0  0
   23.9978  -20.9668   -9.9773 C   0  0  0  0  0  0  0  0  0  0  0  0
   23.1485  -20.6102   -9.1396 O   0  0  0  0  0  0  0  0  0  0  0  0
   23.6163  -21.0922  -11.3951 C   0  0  0  0  0  0  0  0  0  0  0  0
   24.7772  -21.6113  -12.2068 C   0  0  0  0  0  0  0  0  0  0  0  0
   24.4762  -21.6942  -13.6750 C   0  0  2  0  0  0  0  0  0  0  0  0
   25.4988  -22.2882  -14.4569 N   0  0  0  0  0  0  0  0  0  0  0  0
   24.2063  -20.3181  -14.1658 C   0  0  0  0  0  0  0  0  0  0  0  0
   25.0626  -19.4112  -14.0051 O   0  0  0  0  0  0  0  0  0  0  0  0
   21.6649  -19.6173  -17.2786 C   0  0  0  0  0  0  0  0  0  0  0  0
   22.6450  -18.5762  -16.7518 C   0  0  2  0  0  0  0  0  0  0  0  0
   24.0172  -18.9691  -17.2819 C   0  0  0  0  0  0  0  0  0  0  0  0
   22.6561  -18.6666  -15.2514 C   0  0  2  0  0  0  0  0  0  0  0  0
   22.9908  -20.0072  -14.8173 N   0  0  0  0  0  0  0  0  0  0  0  0
   21.3175  -18.3037  -14.7505 C   0  0  0  0  0  0  0  0  0  0  0  0
   20.5887  -19.1811  -14.2229 O   0  0  0  0  0  0  0  0  0  0  0  0
   20.8316  -17.0113  -14.8441 O   0  0  0  0  0  0  0  0  0  0  0  0
  2  3  1  0
  2  1  1  1
  3  4  1  0
  4  5  2  0
  6  2  1  0
  7  6  2  0
  8  4  1  0
  9 10  1  0
 10 12  1  0
 11 10  2  0
 13 12  1  0
 14 13  1  1
 14 15  1  0
 15  6  1  0
 16 14  1  0
 16 17  2  0
 19 18  1  6
 20 19  1  0
 21 22  1  6
 21 19  1  0
 22 16  1  0
 23 21  1  0
 24 23  2  0
 25 23  1  0
M  END
$$$$
