DQV.pdb
     RDKit          3D

 25 24  0  0  1  0  0  0  0  0999 V2000
   26.5518  -10.9952  -18.8763 N   0  0  0  0  0  0  0  0  0  0  0  0
   26.2059  -10.4178  -17.5938 C   0  0  1  0  0  0  0  0  0  0  0  0
   27.2068   -9.3322  -17.2299 C   0  0  0  0  0  0  0  0  0  0  0  0
   28.5454   -9.9713  -17.1559 C   0  0  0  0  0  0  0  0  0  0  0  0
   28.6384  -11.1840  -16.8173 O   0  0  0  0  0  0  0  0  0  0  0  0
   24.8137   -9.8993  -17.5807 C   0  0  0  0  0  0  0  0  0  0  0  0
   24.3813   -9.4493  -18.6856 O   0  0  0  0  0  0  0  0  0  0  0  0
   29.7252   -9.3017  -17.4426 O   0  0  0  0  0  0  0  0  0  0  0  0
   19.5692  -12.1791  -15.8709 N   0  0  0  0  0  0  0  0  0  0  0  0
   19.1936  -10.8365  -16.0848 C   0  0  0  0  0  0  0  0  0  0  0  0
   17.9859  -10.5378  -16.1328 O   0  0  0  0  0  0  0  0  0  0  0  0
   20.2123   -9.7848  -16.2517 C   0  0  0  0  0  0  0  0  0  0  0  0
   21.5939  -10.3907  -16.2681 C   0  0  0  0  0  0  0  0  0  0  0  0
   22.6773   -9.3757  -16.4899 C   0  0  2  0  0  0  0  0  0  0  0  0
   23.9957   -9.8930  -16.4279 N   0  0  0  0  0  0  0  0  0  0  0  0
   22.5129   -8.3014  -15.4768 C   0  0  0  0  0  0  0  0  0  0  0  0
   22.8145   -8.5155  -14.2749 O   0  0  0  0  0  0  0  0  0  0  0  0
   21.6899   -4.4050  -16.8238 C   0  0  0  0  0  0  0  0  0  0  0  0
   22.4774   -4.6608  -15.5446 C   0  0  2  0  0  0  0  0  0  0  0  0
   23.9224   -4.8890  -15.9665 C   0  0  0  0  0  0  0  0  0  0  0  0
   21.9467   -5.9192  -14.9167 C   0  0  2  0  0  0  0  0  0  0  0  0
   22.0182   -7.0290  -15.8444 N   0  0  0  0  0  0  0  0  0  0  0  0
   20.5435   -5.6912  -14.5249 C   0  0  0  0  0  0  0  0  0  0  0  0
   19.6153   -6.2084  -15.1960 O   0  0  0  0  0  0  0  0  0  0  0  0
   20.2115   -4.9159  -13.4276 O   0  0  0  0  0  0  0  0  0  0  0  0
  2  3  1  0
  2  1  1  6
  3  4  1  0
  4  5  2  0
  6  2  1  0
  7  6  2  0
  8  4  1  0
  9 10  1  0
 10 12  1  0
 11 10  2  0
 13 12  1  0
 14 13  1  1
 14 15  1  0
 15  6  1  0
 16 14  1  0
 16 17  2  0
 19 18  1  6
 20 19  1  0
 21 22  1  6
 21 19  1  0
 22 16  1  0
 23 21  1  0
 24 23  2  0
 25 23  1  0
M  END
$$$$
