DQV.pdb
     RDKit          3D

 25 24  0  0  1  0  0  0  0  0999 V2000
   22.2795  -13.4552  -17.2290 N   0  0  0  0  0  0  0  0  0  0  0  0
   22.9929  -12.3382  -16.6450 C   0  0  1  0  0  0  0  0  0  0  0  0
   24.3589  -12.1997  -17.2990 C   0  0  0  0  0  0  0  0  0  0  0  0
   25.1852  -13.3476  -16.8455 C   0  0  0  0  0  0  0  0  0  0  0  0
   24.9900  -14.4907  -17.3448 O   0  0  0  0  0  0  0  0  0  0  0  0
   22.2145  -11.0765  -16.7412 C   0  0  0  0  0  0  0  0  0  0  0  0
   21.7073  -10.8256  -17.8769 O   0  0  0  0  0  0  0  0  0  0  0  0
   26.1796  -13.2371  -15.8858 O   0  0  0  0  0  0  0  0  0  0  0  0
   17.1484   -9.7946  -14.6407 N   0  0  0  0  0  0  0  0  0  0  0  0
   17.4623   -8.5026  -15.1117 C   0  0  0  0  0  0  0  0  0  0  0  0
   16.5568   -7.6562  -15.2294 O   0  0  0  0  0  0  0  0  0  0  0  0
   18.8470   -8.1436  -15.4656 C   0  0  0  0  0  0  0  0  0  0  0  0
   19.7619   -9.3273  -15.2707 C   0  0  0  0  0  0  0  0  0  0  0  0
   21.1536   -9.0830  -15.7774 C   0  0  2  0  0  0  0  0  0  0  0  0
   22.0312  -10.1897  -15.6558 N   0  0  0  0  0  0  0  0  0  0  0  0
   21.7111   -7.9187  -15.0419 C   0  0  0  0  0  0  0  0  0  0  0  0
   22.1559   -8.0635  -13.8745 O   0  0  0  0  0  0  0  0  0  0  0  0
   21.8950   -4.1996  -17.0243 C   0  0  0  0  0  0  0  0  0  0  0  0
   23.0045   -4.5975  -16.0586 C   0  0  2  0  0  0  0  0  0  0  0  0
   24.0261   -5.3782  -16.8741 C   0  0  0  0  0  0  0  0  0  0  0  0
   22.4110   -5.5065  -15.0189 C   0  0  2  0  0  0  0  0  0  0  0  0
   21.7510   -6.6374  -15.6379 N   0  0  0  0  0  0  0  0  0  0  0  0
   21.4346   -4.7366  -14.2262 C   0  0  0  0  0  0  0  0  0  0  0  0
   20.2077   -4.9875  -14.3311 O   0  0  0  0  0  0  0  0  0  0  0  0
   21.8312   -3.7335  -13.3591 O   0  0  0  0  0  0  0  0  0  0  0  0
  2  3  1  0
  2  1  1  6
  3  4  1  0
  4  5  2  0
  6  2  1  0
  7  6  2  0
  8  4  1  0
  9 10  1  0
 10 12  1  0
 11 10  2  0
 13 12  1  0
 14 13  1  1
 14 15  1  0
 15  6  1  0
 16 14  1  0
 16 17  2  0
 19 18  1  6
 20 19  1  0
 21 22  1  6
 21 19  1  0
 22 16  1  0
 23 21  1  0
 24 23  2  0
 25 23  1  0
M  END
$$$$
