DQV.pdb
     RDKit          3D

 25 24  0  0  1  0  0  0  0  0999 V2000
   16.6403  -11.6816  -17.2253 N   0  0  0  0  0  0  0  0  0  0  0  0
   16.8775  -11.3088  -15.8460 C   0  0  1  0  0  0  0  0  0  0  0  0
   16.8426  -12.5470  -14.9636 C   0  0  0  0  0  0  0  0  0  0  0  0
   15.4416  -13.0398  -14.9479 C   0  0  0  0  0  0  0  0  0  0  0  0
   14.5567  -12.4209  -15.6020 O   0  0  0  0  0  0  0  0  0  0  0  0
   18.1540  -10.5654  -15.6881 C   0  0  0  0  0  0  0  0  0  0  0  0
   18.5588  -10.4098  -14.4955 O   0  0  0  0  0  0  0  0  0  0  0  0
   15.0380  -14.1633  -14.2427 O   0  0  0  0  0  0  0  0  0  0  0  0
   22.5690   -8.8575  -19.9607 N   0  0  0  0  0  0  0  0  0  0  0  0
   23.0822   -8.4059  -18.7270 C   0  0  0  0  0  0  0  0  0  0  0  0
   24.2174   -7.8963  -18.6847 O   0  0  0  0  0  0  0  0  0  0  0  0
   22.2917   -8.5300  -17.4895 C   0  0  0  0  0  0  0  0  0  0  0  0
   20.9513   -9.1568  -17.7839 C   0  0  0  0  0  0  0  0  0  0  0  0
   20.1268   -9.3854  -16.5506 C   0  0  2  0  0  0  0  0  0  0  0  0
   18.8954  -10.0507  -16.7759 N   0  0  0  0  0  0  0  0  0  0  0  0
   19.8740   -8.0653  -15.9174 C   0  0  0  0  0  0  0  0  0  0  0  0
   18.9696   -7.3139  -16.3635 O   0  0  0  0  0  0  0  0  0  0  0  0
   22.2716   -6.8023  -12.6155 C   0  0  0  0  0  0  0  0  0  0  0  0
   20.7744   -6.5213  -12.6535 C   0  0  2  0  0  0  0  0  0  0  0  0
   20.0924   -7.7344  -12.0360 C   0  0  0  0  0  0  0  0  0  0  0  0
   20.3600   -6.4076  -14.0939 C   0  0  2  0  0  0  0  0  0  0  0  0
   20.6405   -7.6347  -14.8103 N   0  0  0  0  0  0  0  0  0  0  0  0
   21.1051   -5.2938  -14.7091 C   0  0  0  0  0  0  0  0  0  0  0  0
   20.8253   -4.1083  -14.3997 O   0  0  0  0  0  0  0  0  0  0  0  0
   22.1159   -5.5148  -15.6282 O   0  0  0  0  0  0  0  0  0  0  0  0
  2  3  1  0
  2  1  1  6
  3  4  1  0
  4  5  2  0
  6  2  1  0
  7  6  2  0
  8  4  1  0
  9 10  1  0
 10 12  1  0
 11 10  2  0
 13 12  1  0
 14 13  1  6
 14 15  1  0
 15  6  1  0
 16 14  1  0
 16 17  2  0
 19 18  1  6
 20 19  1  0
 21 22  1  6
 21 19  1  0
 22 16  1  0
 23 21  1  0
 24 23  2  0
 25 23  1  0
M  END
$$$$
