NIC.pdb
     RDKit          3D

 23 22  0  0  1  0  0  0  0  0999 V2000
    8.8967  -21.5629   16.5932 N   0  0  0  0  0  0  0  0  0  0  0  0
    8.4180  -20.3827   17.1804 C   0  0  0  0  0  0  0  0  0  0  0  0
    7.1786  -20.1296   17.1943 O   0  0  0  0  0  0  0  0  0  0  0  0
    9.3605  -19.4216   17.7897 C   0  0  0  0  0  0  0  0  0  0  0  0
    8.8998  -17.9988   17.4237 C   0  0  2  0  0  0  0  0  0  0  0  0
    9.6013  -17.6406   16.1807 N   0  0  0  0  0  0  0  0  0  0  0  0
    9.4220  -17.1325   18.4934 C   0  0  0  0  0  0  0  0  0  0  0  0
   10.6562  -16.9872   18.6538 O   0  0  0  0  0  0  0  0  0  0  0  0
    6.6982  -12.6665   19.9218 C   0  0  0  0  0  0  0  0  0  0  0  0
    7.8133  -13.6104   19.5100 C   0  0  0  0  0  0  0  0  0  0  0  0
    8.0955  -14.4933   20.6954 C   0  0  2  0  0  0  0  0  0  0  0  0
    8.4904  -13.6922   21.9187 C   0  0  0  0  0  0  0  0  0  0  0  0
    9.1152  -15.5553   20.4310 C   0  0  2  0  0  0  0  0  0  0  0  0
    8.5844  -16.4178   19.3965 N   0  0  0  0  0  0  0  0  0  0  0  0
    9.4961  -16.3557   21.5797 C   0  0  0  0  0  0  0  0  0  0  0  0
    8.7360  -17.1857   22.1463 O   0  0  0  0  0  0  0  0  0  0  0  0
   10.7952  -16.2225   22.1241 N   0  0  0  0  0  0  0  0  0  0  0  0
   11.2379  -17.0788   23.2306 C   0  0  1  0  0  0  0  0  0  0  0  0
   12.6076  -17.6733   22.9621 C   0  0  0  0  0  0  0  0  0  0  0  0
   12.6535  -18.3729   21.2878 S   0  0  0  0  0  0  0  0  0  0  0  0
   11.1412  -16.4037   24.5301 C   0  0  0  0  0  0  0  0  0  0  0  0
   10.7705  -15.2096   24.5750 O   0  0  0  0  0  0  0  0  0  0  0  0
   11.4446  -17.0325   25.7225 O   0  0  0  0  0  0  0  0  0  0  0  0
  2  1  1  0
  3  2  2  0
  4  2  1  0
  4  5  1  0
  5  6  1  6
  7  5  1  0
  7  8  2  0
 10  9  1  0
 11 12  1  1
 11 10  1  0
 13 14  1  6
 13 11  1  0
 14  7  1  0
 15 13  1  0
 16 15  2  0
 17 15  1  0
 18 17  1  0
 18 19  1  6
 20 19  1  0
 21 18  1  0
 21 23  1  0
 22 21  2  0
M  END
$$$$
