NIC.pdb
     RDKit          3D

 23 22  0  0  1  0  0  0  0  0999 V2000
    8.1982  -18.0878   19.0146 N   0  0  0  0  0  0  0  0  0  0  0  0
    7.3424  -17.2465   19.7403 C   0  0  0  0  0  0  0  0  0  0  0  0
    6.3402  -16.7140   19.1814 O   0  0  0  0  0  0  0  0  0  0  0  0
    7.6051  -16.9739   21.1685 C   0  0  0  0  0  0  0  0  0  0  0  0
    7.7125  -15.4494   21.3551 C   0  0  2  0  0  0  0  0  0  0  0  0
    8.6537  -14.9696   20.3307 N   0  0  0  0  0  0  0  0  0  0  0  0
    8.3516  -15.2612   22.6679 C   0  0  0  0  0  0  0  0  0  0  0  0
    9.5928  -15.3745   22.7974 O   0  0  0  0  0  0  0  0  0  0  0  0
    6.2055  -11.7270   26.1163 C   0  0  0  0  0  0  0  0  0  0  0  0
    7.1977  -12.4890   25.2568 C   0  0  0  0  0  0  0  0  0  0  0  0
    7.4250  -13.8164   25.9282 C   0  0  2  0  0  0  0  0  0  0  0  0
    7.9995  -13.6571   27.3206 C   0  0  0  0  0  0  0  0  0  0  0  0
    8.2701  -14.7607   25.1335 C   0  0  2  0  0  0  0  0  0  0  0  0
    7.6245  -14.9455   23.8509 N   0  0  0  0  0  0  0  0  0  0  0  0
    8.5072  -16.0542   25.7465 C   0  0  0  0  0  0  0  0  0  0  0  0
    7.6015  -16.8922   26.0016 O   0  0  0  0  0  0  0  0  0  0  0  0
    9.8260  -16.4321   26.0923 N   0  0  0  0  0  0  0  0  0  0  0  0
   10.1109  -17.7735   26.6152 C   0  0  1  0  0  0  0  0  0  0  0  0
   11.0762  -18.5275   25.7202 C   0  0  0  0  0  0  0  0  0  0  0  0
   12.5899  -17.5518   25.4934 S   0  0  0  0  0  0  0  0  0  0  0  0
   10.5235  -17.7459   28.0234 C   0  0  0  0  0  0  0  0  0  0  0  0
   10.7552  -16.6463   28.5734 O   0  0  0  0  0  0  0  0  0  0  0  0
   10.6707  -18.8922   28.7807 O   0  0  0  0  0  0  0  0  0  0  0  0
  2  1  1  0
  3  2  2  0
  4  2  1  0
  4  5  1  0
  5  6  1  6
  7  5  1  0
  7  8  2  0
 10  9  1  0
 11 12  1  1
 11 10  1  0
 13 14  1  6
 13 11  1  0
 14  7  1  0
 15 13  1  0
 16 15  2  0
 17 15  1  0
 18 17  1  0
 18 19  1  6
 20 19  1  0
 21 18  1  0
 21 23  1  0
 22 21  2  0
M  END
$$$$
