NIC.pdb
     RDKit          3D

 23 22  0  0  1  0  0  0  0  0999 V2000
    7.8170  -18.4855   19.2445 N   0  0  0  0  0  0  0  0  0  0  0  0
    7.1845  -17.8990   20.3503 C   0  0  0  0  0  0  0  0  0  0  0  0
    5.9233  -17.8130   20.3972 O   0  0  0  0  0  0  0  0  0  0  0  0
    7.9887  -17.3747   21.4735 C   0  0  0  0  0  0  0  0  0  0  0  0
    7.7127  -15.8651   21.5987 C   0  0  2  0  0  0  0  0  0  0  0  0
    8.3834  -15.2230   20.4571 N   0  0  0  0  0  0  0  0  0  0  0  0
    8.4140  -15.4405   22.8215 C   0  0  0  0  0  0  0  0  0  0  0  0
    9.6624  -15.3339   22.8388 O   0  0  0  0  0  0  0  0  0  0  0  0
    6.1260  -11.7831   25.8959 C   0  0  0  0  0  0  0  0  0  0  0  0
    7.1368  -12.5723   25.0839 C   0  0  0  0  0  0  0  0  0  0  0  0
    7.5799  -13.7253   25.9434 C   0  0  2  0  0  0  0  0  0  0  0  0
    8.2639  -13.2579   27.2115 C   0  0  0  0  0  0  0  0  0  0  0  0
    8.4478  -14.7137   25.2312 C   0  0  2  0  0  0  0  0  0  0  0  0
    7.7417  -15.1295   24.0377 N   0  0  0  0  0  0  0  0  0  0  0  0
    8.8252  -15.8834   26.0022 C   0  0  0  0  0  0  0  0  0  0  0  0
    8.0056  -16.6307   26.6000 O   0  0  0  0  0  0  0  0  0  0  0  0
   10.1906  -16.2379   26.1105 N   0  0  0  0  0  0  0  0  0  0  0  0
   10.5968  -17.4564   26.8206 C   0  0  1  0  0  0  0  0  0  0  0  0
   11.9592  -17.9410   26.3621 C   0  0  0  0  0  0  0  0  0  0  0  0
   13.2072  -16.6667   26.6986 S   0  0  0  0  0  0  0  0  0  0  0  0
   10.4898  -17.3136   28.2773 C   0  0  0  0  0  0  0  0  0  0  0  0
   10.3243  -16.1763   28.7718 O   0  0  0  0  0  0  0  0  0  0  0  0
   10.5649  -18.3900   29.1404 O   0  0  0  0  0  0  0  0  0  0  0  0
  2  1  1  0
  3  2  2  0
  4  2  1  0
  4  5  1  0
  5  6  1  6
  7  5  1  0
  7  8  2  0
 10  9  1  0
 11 12  1  1
 11 10  1  0
 13 14  1  6
 13 11  1  0
 14  7  1  0
 15 13  1  0
 16 15  2  0
 17 15  1  0
 18 17  1  0
 18 19  1  1
 20 19  1  0
 21 18  1  0
 21 23  1  0
 22 21  2  0
M  END
$$$$
