NIC.pdb
     RDKit          3D

 23 22  0  0  1  0  0  0  0  0999 V2000
    6.2295  -16.0782   19.2512 N   0  0  0  0  0  0  0  0  0  0  0  0
    6.7868  -17.0817   20.0571 C   0  0  0  0  0  0  0  0  0  0  0  0
    6.5917  -18.3024   19.7889 O   0  0  0  0  0  0  0  0  0  0  0  0
    7.6091  -16.7202   21.2302 C   0  0  0  0  0  0  0  0  0  0  0  0
    7.4716  -15.2047   21.4650 C   0  0  2  0  0  0  0  0  0  0  0  0
    8.2191  -14.5459   20.3822 N   0  0  0  0  0  0  0  0  0  0  0  0
    8.1870  -14.9386   22.7239 C   0  0  0  0  0  0  0  0  0  0  0  0
    9.4385  -14.8807   22.7486 O   0  0  0  0  0  0  0  0  0  0  0  0
    6.0295  -11.6121   26.3279 C   0  0  0  0  0  0  0  0  0  0  0  0
    7.0235  -12.2950   25.4061 C   0  0  0  0  0  0  0  0  0  0  0  0
    7.3850  -13.6056   26.0509 C   0  0  2  0  0  0  0  0  0  0  0  0
    8.0295  -13.4119   27.4079 C   0  0  0  0  0  0  0  0  0  0  0  0
    8.2459  -14.4832   25.1988 C   0  0  2  0  0  0  0  0  0  0  0  0
    7.5256  -14.7336   23.9682 N   0  0  0  0  0  0  0  0  0  0  0  0
    8.6357  -15.7465   25.7967 C   0  0  0  0  0  0  0  0  0  0  0  0
    7.8231  -16.6440   26.1454 O   0  0  0  0  0  0  0  0  0  0  0  0
   10.0060  -16.0222   26.0160 N   0  0  0  0  0  0  0  0  0  0  0  0
   10.4353  -17.3192   26.5520 C   0  0  1  0  0  0  0  0  0  0  0  0
   11.7089  -17.8039   25.8854 C   0  0  0  0  0  0  0  0  0  0  0  0
   11.5627  -17.6275   24.0848 S   0  0  0  0  0  0  0  0  0  0  0  0
   10.5093  -17.3189   28.0177 C   0  0  0  0  0  0  0  0  0  0  0  0
   10.3893  -16.2389   28.6379 O   0  0  0  0  0  0  0  0  0  0  0  0
   10.7085  -18.4702   28.7554 O   0  0  0  0  0  0  0  0  0  0  0  0
  2  1  1  0
  3  2  2  0
  4  2  1  0
  4  5  1  0
  5  6  1  6
  7  5  1  0
  7  8  2  0
 10  9  1  0
 11 12  1  1
 11 10  1  0
 13 14  1  6
 13 11  1  0
 14  7  1  0
 15 13  1  0
 16 15  2  0
 17 15  1  0
 18 17  1  0
 18 19  1  6
 20 19  1  0
 21 18  1  0
 21 23  1  0
 22 21  2  0
M  END
$$$$
