NIC.pdb
     RDKit          3D

 23 22  0  0  1  0  0  0  0  0999 V2000
    4.5914  -18.1354   20.9252 N   0  0  0  0  0  0  0  0  0  0  0  0
    5.0398  -18.8400   22.0519 C   0  0  0  0  0  0  0  0  0  0  0  0
    4.7448  -20.0605   22.2050 O   0  0  0  0  0  0  0  0  0  0  0  0
    5.8634  -18.1602   23.0730 C   0  0  0  0  0  0  0  0  0  0  0  0
    5.9240  -16.6621   22.7224 C   0  0  2  0  0  0  0  0  0  0  0  0
    6.3481  -16.5804   21.3157 N   0  0  0  0  0  0  0  0  0  0  0  0
    7.0127  -16.1123   23.5469 C   0  0  0  0  0  0  0  0  0  0  0  0
    8.2086  -16.2396   23.1950 O   0  0  0  0  0  0  0  0  0  0  0  0
    5.8999  -11.7346   26.4378 C   0  0  0  0  0  0  0  0  0  0  0  0
    6.6418  -12.6570   25.4878 C   0  0  0  0  0  0  0  0  0  0  0  0
    7.3067  -13.7090   26.3338 C   0  0  2  0  0  0  0  0  0  0  0  0
    8.3759  -13.1227   27.2322 C   0  0  0  0  0  0  0  0  0  0  0  0
    7.8706  -14.8507   25.5490 C   0  0  2  0  0  0  0  0  0  0  0  0
    6.7899  -15.4160   24.7689 N   0  0  0  0  0  0  0  0  0  0  0  0
    8.5002  -15.8970   26.3326 C   0  0  0  0  0  0  0  0  0  0  0  0
    7.8892  -16.6262   27.1588 O   0  0  0  0  0  0  0  0  0  0  0  0
    9.8857  -16.1426   26.1850 N   0  0  0  0  0  0  0  0  0  0  0  0
   10.5379  -17.2341   26.9177 C   0  0  1  0  0  0  0  0  0  0  0  0
   11.7201  -17.7934   26.1490 C   0  0  0  0  0  0  0  0  0  0  0  0
   11.2822  -17.9702   24.3964 S   0  0  0  0  0  0  0  0  0  0  0  0
   10.8660  -16.8598   28.2983 C   0  0  0  0  0  0  0  0  0  0  0  0
   10.6611  -15.6863   28.6810 O   0  0  0  0  0  0  0  0  0  0  0  0
   11.3982  -17.7536   29.2078 O   0  0  0  0  0  0  0  0  0  0  0  0
  2  1  1  0
  3  2  2  0
  4  2  1  0
  4  5  1  0
  5  6  1  6
  7  5  1  0
  7  8  2  0
 10  9  1  0
 11 12  1  6
 11 10  1  0
 13 14  1  1
 13 11  1  0
 14  7  1  0
 15 13  1  0
 16 15  2  0
 17 15  1  0
 18 17  1  0
 18 19  1  6
 20 19  1  0
 21 18  1  0
 21 23  1  0
 22 21  2  0
M  END
$$$$
