NIC.pdb
     RDKit          3D

 23 22  0  0  1  0  0  0  0  0999 V2000
    7.3530  -17.2522   19.7308 N   0  0  0  0  0  0  0  0  0  0  0  0
    7.6416  -18.0730   20.8308 C   0  0  0  0  0  0  0  0  0  0  0  0
    7.4982  -19.3273   20.7508 O   0  0  0  0  0  0  0  0  0  0  0  0
    8.1170  -17.4775   22.0967 C   0  0  0  0  0  0  0  0  0  0  0  0
    7.9594  -15.9491   21.9980 C   0  0  2  0  0  0  0  0  0  0  0  0
    8.7711  -15.5200   20.8481 N   0  0  0  0  0  0  0  0  0  0  0  0
    8.5931  -15.4123   23.2135 C   0  0  0  0  0  0  0  0  0  0  0  0
    9.8373  -15.2795   23.2811 O   0  0  0  0  0  0  0  0  0  0  0  0
    5.6653  -11.9693   26.1985 C   0  0  0  0  0  0  0  0  0  0  0  0
    6.7874  -12.5734   25.3739 C   0  0  0  0  0  0  0  0  0  0  0  0
    7.4490  -13.6140   26.2364 C   0  0  2  0  0  0  0  0  0  0  0  0
    8.0346  -13.0160   27.4988 C   0  0  0  0  0  0  0  0  0  0  0  0
    8.4891  -14.4193   25.5242 C   0  0  2  0  0  0  0  0  0  0  0  0
    7.8572  -15.0167   24.3667 N   0  0  0  0  0  0  0  0  0  0  0  0
    9.1275  -15.4548   26.3151 C   0  0  0  0  0  0  0  0  0  0  0  0
    8.5107  -16.4074   26.8625 O   0  0  0  0  0  0  0  0  0  0  0  0
   10.5293  -15.4251   26.5039 N   0  0  0  0  0  0  0  0  0  0  0  0
   11.2125  -16.4999   27.2333 C   0  0  1  0  0  0  0  0  0  0  0  0
   12.6815  -16.5789   26.8630 C   0  0  0  0  0  0  0  0  0  0  0  0
   13.2831  -14.9327   26.3913 S   0  0  0  0  0  0  0  0  0  0  0  0
   10.9803  -16.4254   28.6805 C   0  0  0  0  0  0  0  0  0  0  0  0
   11.2279  -17.4231   29.3938 O   0  0  0  0  0  0  0  0  0  0  0  0
   10.4941  -15.2907   29.3012 O   0  0  0  0  0  0  0  0  0  0  0  0
  2  1  1  0
  3  2  2  0
  4  2  1  0
  4  5  1  0
  5  6  1  6
  7  5  1  0
  7  8  2  0
 10  9  1  0
 11 12  1  1
 11 10  1  0
 13 14  1  6
 13 11  1  0
 14  7  1  0
 15 13  1  0
 16 15  2  0
 17 15  1  0
 18 17  1  0
 18 19  1  1
 20 19  1  0
 21 18  1  0
 21 23  1  0
 22 21  2  0
M  END
$$$$
