RGS.pdb
     RDKit          3D

 22 21  0  0  1  0  0  0  0  0999 V2000
   18.0610  -22.5443  -11.5287 N   0  0  0  0  0  0  0  0  0  0  0  0
   17.2312  -21.5926  -12.1864 C   0  0  0  0  0  0  0  0  0  0  0  0
   16.2009  -21.1662  -11.5724 N   0  0  0  0  0  0  0  0  0  0  0  0
   17.5619  -21.1357  -13.5081 N   0  0  0  0  0  0  0  0  0  0  0  0
   18.9083  -21.1062  -13.9506 C   0  0  0  0  0  0  0  0  0  0  0  0
   19.9277  -20.3423  -13.2247 C   0  0  0  0  0  0  0  0  0  0  0  0
   21.3270  -20.2440  -13.6627 C   0  0  0  0  0  0  0  0  0  0  0  0
   21.6061  -20.3580  -15.1233 C   0  0  2  0  0  0  0  0  0  0  0  0
   21.1930  -21.6002  -15.7177 N   0  0  0  0  0  0  0  0  0  0  0  0
   23.1191  -20.2251  -15.3143 C   0  0  0  0  0  0  0  0  0  0  0  0
   23.8841  -21.0252  -14.7252 O   0  0  0  0  0  0  0  0  0  0  0  0
   15.4804  -20.5218  -11.9244 N   0  0  0  0  0  0  0  0  0  0  0  0
   23.6773  -19.2304  -16.1323 C   0  0  0  0  0  0  0  0  0  0  0  0
   25.0625  -19.2947  -16.6095 C   0  0  0  0  0  0  0  0  0  0  0  0
   25.3970  -18.1143  -17.4303 O   0  0  0  0  0  0  0  0  0  0  0  0
   24.5180  -17.2678  -17.6771 O   0  0  0  0  0  0  0  0  0  0  0  0
   29.2104  -17.2180  -17.9328 C   0  0  0  0  0  0  0  0  0  0  0  0
   28.5252  -16.9912  -19.1142 C   0  0  2  0  0  0  0  0  0  0  0  0
   27.0496  -16.8603  -18.7673 N   0  0  0  0  0  0  0  0  0  0  0  0
   26.7099  -17.9671  -17.9207 C   0  0  0  0  0  0  0  0  0  0  0  0
   26.2640  -16.8709  -20.0289 O   0  0  0  0  0  0  0  0  0  0  0  0
   25.7012  -18.0829  -20.4333 O   0  0  0  0  0  0  0  0  0  0  0  0
  1  2  1  0
  2  3  2  0
  4  2  1  0
  4  5  1  0
  6  7  1  0
  6  5  1  0
  7  8  1  0
  8 10  1  0
  8  9  1  1
 10 12  1  0
 10 11  2  0
 12 13  1  0
 13 14  1  0
 14 19  1  0
 14 15  2  0
 16 17  1  0
 18 20  1  0
 18 17  1  1
 19 18  1  0
 20 21  1  0
 22 20  2  0
M  END
$$$$
