RGS.pdb
     RDKit          3D

 22 21  0  0  1  0  0  0  0  0999 V2000
   14.6838   -9.4573   -9.5209 N   0  0  0  0  0  0  0  0  0  0  0  0
   13.7540  -10.4191  -10.0082 C   0  0  0  0  0  0  0  0  0  0  0  0
   12.5926  -10.4508   -9.4882 N   0  0  0  0  0  0  0  0  0  0  0  0
   14.1324  -11.3228  -11.0595 N   0  0  0  0  0  0  0  0  0  0  0  0
   15.3801  -11.1883  -11.7187 C   0  0  0  0  0  0  0  0  0  0  0  0
   15.6830  -11.9554  -12.9310 C   0  0  0  0  0  0  0  0  0  0  0  0
   16.9717  -11.8799  -13.6331 C   0  0  0  0  0  0  0  0  0  0  0  0
   16.9970  -11.2119  -14.9663 C   0  0  2  0  0  0  0  0  0  0  0  0
   16.7387  -12.0846  -16.0793 N   0  0  0  0  0  0  0  0  0  0  0  0
   18.3925  -10.6112  -15.1534 C   0  0  0  0  0  0  0  0  0  0  0  0
   19.3035  -11.3182  -15.6460 O   0  0  0  0  0  0  0  0  0  0  0  0
   11.8094  -11.0703   -9.7352 N   0  0  0  0  0  0  0  0  0  0  0  0
   18.6834   -9.2874  -14.7884 C   0  0  0  0  0  0  0  0  0  0  0  0
   20.0241   -8.7112  -14.9339 C   0  0  0  0  0  0  0  0  0  0  0  0
   20.0216   -7.2712  -14.6092 O   0  0  0  0  0  0  0  0  0  0  0  0
   18.9697   -6.7302  -14.2207 O   0  0  0  0  0  0  0  0  0  0  0  0
   21.9796   -5.7551  -12.3033 C   0  0  0  0  0  0  0  0  0  0  0  0
   21.0164   -4.9918  -12.9407 C   0  0  1  0  0  0  0  0  0  0  0  0
   21.2413   -5.1324  -14.4389 N   0  0  0  0  0  0  0  0  0  0  0  0
   21.2144   -6.5333  -14.7453 C   0  0  0  0  0  0  0  0  0  0  0  0
   22.5514   -4.5193  -14.7804 O   0  0  0  0  0  0  0  0  0  0  0  0
   22.6889   -3.1410  -14.6051 O   0  0  0  0  0  0  0  0  0  0  0  0
  1  2  1  0
  2  3  2  0
  4  2  1  0
  4  5  1  0
  6  7  1  0
  6  5  1  0
  7  8  1  0
  8 10  1  0
  8  9  1  6
 10 12  1  0
 10 11  2  0
 12 13  1  0
 13 14  1  0
 14 19  1  0
 14 15  2  0
 16 17  1  0
 18 20  1  0
 18 17  1  6
 19 18  1  0
 20 21  1  0
 22 20  2  0
M  END
$$$$
