RGS.pdb
     RDKit          3D

 22 21  0  0  1  0  0  0  0  0999 V2000
   30.7146  -29.5157  -17.7815 N   0  0  0  0  0  0  0  0  0  0  0  0
   29.6910  -30.0435  -18.6186 C   0  0  0  0  0  0  0  0  0  0  0  0
   29.8068  -31.2434  -19.0273 N   0  0  0  0  0  0  0  0  0  0  0  0
   28.5639  -29.2301  -18.9831 N   0  0  0  0  0  0  0  0  0  0  0  0
   28.3838  -27.9430  -18.4171 C   0  0  0  0  0  0  0  0  0  0  0  0
   28.2164  -27.7679  -16.9710 C   0  0  0  0  0  0  0  0  0  0  0  0
   27.1771  -26.9163  -16.3761 C   0  0  0  0  0  0  0  0  0  0  0  0
   27.0270  -25.5311  -16.9080 C   0  0  2  0  0  0  0  0  0  0  0  0
   28.2600  -24.8043  -17.0445 N   0  0  0  0  0  0  0  0  0  0  0  0
   26.1312  -24.7595  -15.9357 C   0  0  0  0  0  0  0  0  0  0  0  0
   26.6538  -23.9603  -15.1229 O   0  0  0  0  0  0  0  0  0  0  0  0
   29.1615  -31.7664  -19.6343 N   0  0  0  0  0  0  0  0  0  0  0  0
   24.7369  -24.9210  -15.9270 C   0  0  0  0  0  0  0  0  0  0  0  0
   23.8635  -24.1419  -15.0433 C   0  0  0  0  0  0  0  0  0  0  0  0
   22.4408  -24.4131  -15.3286 O   0  0  0  0  0  0  0  0  0  0  0  0
   22.1353  -25.1624  -16.2749 O   0  0  0  0  0  0  0  0  0  0  0  0
   20.0387  -25.0794  -12.6701 C   0  0  0  0  0  0  0  0  0  0  0  0
   19.3591  -24.1445  -13.4322 C   0  0  2  0  0  0  0  0  0  0  0  0
   20.0612  -24.0572  -14.7792 N   0  0  0  0  0  0  0  0  0  0  0  0
   21.4515  -23.8169  -14.5215 C   0  0  0  0  0  0  0  0  0  0  0  0
   19.4476  -22.9529  -15.5621 O   0  0  0  0  0  0  0  0  0  0  0  0
   18.2048  -23.1884  -16.1531 O   0  0  0  0  0  0  0  0  0  0  0  0
  1  2  1  0
  2  3  2  0
  4  2  1  0
  4  5  1  0
  6  7  1  0
  6  5  1  0
  7  8  1  0
  8 10  1  0
  8  9  1  1
 10 12  1  0
 10 11  2  0
 12 13  1  0
 13 14  1  0
 14 19  1  0
 14 15  2  0
 16 17  1  0
 18 20  1  0
 18 17  1  1
 19 18  1  0
 20 21  1  0
 22 20  2  0
M  END
$$$$
