RGS.pdb
     RDKit          3D

 22 21  0  0  1  0  0  0  0  0999 V2000
   19.7528  -22.0770   -8.4394 N   0  0  0  0  0  0  0  0  0  0  0  0
   19.9957  -22.6634   -7.1651 C   0  0  0  0  0  0  0  0  0  0  0  0
   19.0336  -23.2614   -6.5844 N   0  0  0  0  0  0  0  0  0  0  0  0
   21.2979  -22.5736   -6.5640 N   0  0  0  0  0  0  0  0  0  0  0  0
   22.3027  -21.7480   -7.1281 C   0  0  0  0  0  0  0  0  0  0  0  0
   22.1979  -21.2621   -8.5075 C   0  0  0  0  0  0  0  0  0  0  0  0
   23.2337  -20.4469   -9.1570 C   0  0  0  0  0  0  0  0  0  0  0  0
   24.5973  -21.0360   -9.2907 C   0  0  2  0  0  0  0  0  0  0  0  0
   25.2987  -21.2130   -8.0481 N   0  0  0  0  0  0  0  0  0  0  0  0
   25.4232  -20.0903  -10.1665 C   0  0  0  0  0  0  0  0  0  0  0  0
   25.8701  -19.0288   -9.6707 O   0  0  0  0  0  0  0  0  0  0  0  0
   19.0349  -23.6984   -5.6531 N   0  0  0  0  0  0  0  0  0  0  0  0
   25.6956  -20.3775  -11.5132 C   0  0  0  0  0  0  0  0  0  0  0  0
   24.7793  -21.1610  -12.3480 C   0  0  0  0  0  0  0  0  0  0  0  0
   25.2942  -21.2901  -13.7254 O   0  0  0  0  0  0  0  0  0  0  0  0
   25.4107  -20.2745  -14.4361 O   0  0  0  0  0  0  0  0  0  0  0  0
   25.5774  -25.0080  -15.1283 C   0  0  0  0  0  0  0  0  0  0  0  0
   26.4909  -24.1743  -15.7505 C   0  0  1  0  0  0  0  0  0  0  0  0
   25.9869  -22.7475  -15.5928 N   0  0  0  0  0  0  0  0  0  0  0  0
   25.6458  -22.5651  -14.2117 C   0  0  0  0  0  0  0  0  0  0  0  0
   24.8092  -22.5607  -16.4800 O   0  0  0  0  0  0  0  0  0  0  0  0
   23.5594  -22.4076  -15.8767 O   0  0  0  0  0  0  0  0  0  0  0  0
  1  2  1  0
  2  3  2  0
  4  2  1  0
  4  5  1  0
  6  7  1  0
  6  5  1  0
  7  8  1  0
  8 10  1  0
  8  9  1  1
 10 12  1  0
 10 11  2  0
 12 13  1  0
 13 14  1  0
 14 19  1  0
 14 15  2  0
 16 17  1  0
 18 20  1  0
 18 17  1  1
 19 18  1  0
 20 21  1  0
 22 20  2  0
M  END
$$$$
