RGS.pdb
     RDKit          3D

 22 21  0  0  1  0  0  0  0  0999 V2000
   25.5723  -20.4403   -8.9273 N   0  0  0  0  0  0  0  0  0  0  0  0
   24.5163  -20.9335   -9.7449 C   0  0  0  0  0  0  0  0  0  0  0  0
   23.3971  -20.3279   -9.7129 N   0  0  0  0  0  0  0  0  0  0  0  0
   24.7247  -22.0854  -10.5784 N   0  0  0  0  0  0  0  0  0  0  0  0
   25.1715  -21.9427  -11.9160 C   0  0  0  0  0  0  0  0  0  0  0  0
   25.6473  -20.6515  -12.4222 C   0  0  0  0  0  0  0  0  0  0  0  0
   26.1016  -20.4441  -13.8042 C   0  0  0  0  0  0  0  0  0  0  0  0
   25.3845  -21.1770  -14.8873 C   0  0  2  0  0  0  0  0  0  0  0  0
   26.2404  -21.8801  -15.8040 N   0  0  0  0  0  0  0  0  0  0  0  0
   24.5834  -20.1468  -15.6875 C   0  0  0  0  0  0  0  0  0  0  0  0
   25.1398  -19.5352  -16.6303 O   0  0  0  0  0  0  0  0  0  0  0  0
   22.5218  -20.5984  -10.1808 N   0  0  0  0  0  0  0  0  0  0  0  0
   23.2395  -19.8654  -15.3957 C   0  0  0  0  0  0  0  0  0  0  0  0
   22.4022  -19.0439  -16.2757 C   0  0  0  0  0  0  0  0  0  0  0  0
   21.0363  -18.9064  -15.7332 O   0  0  0  0  0  0  0  0  0  0  0  0
   20.7042  -19.5641  -14.7295 O   0  0  0  0  0  0  0  0  0  0  0  0
   18.8562  -15.7550  -16.7572 C   0  0  0  0  0  0  0  0  0  0  0  0
   18.0758  -16.8984  -16.7747 C   0  0  2  0  0  0  0  0  0  0  0  0
   18.7727  -17.9392  -15.9110 N   0  0  0  0  0  0  0  0  0  0  0  0
   20.1307  -18.0300  -16.3636 C   0  0  0  0  0  0  0  0  0  0  0  0
   18.0559  -19.2329  -16.0577 O   0  0  0  0  0  0  0  0  0  0  0  0
   16.9934  -19.4888  -15.1890 O   0  0  0  0  0  0  0  0  0  0  0  0
  1  2  1  0
  2  3  2  0
  4  2  1  0
  4  5  1  0
  6  7  1  0
  6  5  1  0
  7  8  1  0
  8 10  1  0
  8  9  1  6
 10 12  1  0
 10 11  2  0
 12 13  1  0
 13 14  1  0
 14 19  1  0
 14 15  2  0
 16 17  1  0
 18 20  1  0
 18 17  1  1
 19 18  1  0
 20 21  1  0
 22 20  2  0
M  END
$$$$
