RGS.pdb
     RDKit          3D

 22 21  0  0  1  0  0  0  0  0999 V2000
   26.6254  -20.4153   -8.9908 N   0  0  0  0  0  0  0  0  0  0  0  0
   25.3524  -21.0476   -8.9108 C   0  0  0  0  0  0  0  0  0  0  0  0
   24.6429  -20.8434   -7.8738 N   0  0  0  0  0  0  0  0  0  0  0  0
   24.8953  -21.8911   -9.9807 N   0  0  0  0  0  0  0  0  0  0  0  0
   25.4397  -21.7701  -11.2840 C   0  0  0  0  0  0  0  0  0  0  0  0
   25.7437  -20.4561  -11.8590 C   0  0  0  0  0  0  0  0  0  0  0  0
   25.1721  -19.9773  -13.1253 C   0  0  0  0  0  0  0  0  0  0  0  0
   25.2851  -20.8664  -14.3173 C   0  0  2  0  0  0  0  0  0  0  0  0
   26.5727  -21.4837  -14.4852 N   0  0  0  0  0  0  0  0  0  0  0  0
   25.0078  -20.0118  -15.5567 C   0  0  0  0  0  0  0  0  0  0  0  0
   25.9468  -19.7548  -16.3470 O   0  0  0  0  0  0  0  0  0  0  0  0
   23.7131  -21.2291   -7.6616 N   0  0  0  0  0  0  0  0  0  0  0  0
   23.7287  -19.5052  -15.8353 C   0  0  0  0  0  0  0  0  0  0  0  0
   23.4557  -18.6695  -17.0090 C   0  0  0  0  0  0  0  0  0  0  0  0
   22.0190  -18.3456  -17.1080 O   0  0  0  0  0  0  0  0  0  0  0  0
   21.2320  -18.7689  -16.2410 O   0  0  0  0  0  0  0  0  0  0  0  0
   20.6688  -15.4064  -17.1562 C   0  0  0  0  0  0  0  0  0  0  0  0
   19.6962  -16.3820  -17.2930 C   0  0  1  0  0  0  0  0  0  0  0  0
   20.1600  -17.3387  -18.3813 N   0  0  0  0  0  0  0  0  0  0  0  0
   21.5635  -17.5602  -18.1857 C   0  0  0  0  0  0  0  0  0  0  0  0
   19.8792  -16.7225  -19.7044 O   0  0  0  0  0  0  0  0  0  0  0  0
   18.5429  -16.5530  -20.0714 O   0  0  0  0  0  0  0  0  0  0  0  0
  1  2  1  0
  2  3  2  0
  4  2  1  0
  4  5  1  0
  6  7  1  0
  6  5  1  0
  7  8  1  0
  8 10  1  0
  8  9  1  6
 10 12  1  0
 10 11  2  0
 12 13  1  0
 13 14  1  0
 14 19  1  0
 14 15  2  0
 16 17  1  0
 18 20  1  0
 18 17  1  1
 19 18  1  0
 20 21  1  0
 22 20  2  0
M  END
$$$$
