RGS.pdb
     RDKit          3D

 22 21  0  0  1  0  0  0  0  0999 V2000
   20.5060  -21.9785   -9.5999 N   0  0  0  0  0  0  0  0  0  0  0  0
   20.8484  -22.2138   -8.2382 C   0  0  0  0  0  0  0  0  0  0  0  0
   20.3396  -23.2249   -7.6557 N   0  0  0  0  0  0  0  0  0  0  0  0
   21.7457  -21.3241   -7.5540 N   0  0  0  0  0  0  0  0  0  0  0  0
   22.7785  -20.6531   -8.2558 C   0  0  0  0  0  0  0  0  0  0  0  0
   23.6958  -21.3845   -9.1353 C   0  0  0  0  0  0  0  0  0  0  0  0
   24.8189  -20.7489   -9.8382 C   0  0  0  0  0  0  0  0  0  0  0  0
   24.5669  -20.2144  -11.2075 C   0  0  2  0  0  0  0  0  0  0  0  0
   24.2930  -21.2165  -12.2015 N   0  0  0  0  0  0  0  0  0  0  0  0
   25.8210  -19.4516  -11.6417 C   0  0  0  0  0  0  0  0  0  0  0  0
   26.4122  -18.7206  -10.8118 O   0  0  0  0  0  0  0  0  0  0  0  0
   20.4456  -23.5030   -6.6709 N   0  0  0  0  0  0  0  0  0  0  0  0
   26.3305  -19.5464  -12.9462 C   0  0  0  0  0  0  0  0  0  0  0  0
   27.5411  -18.8344  -13.3680 C   0  0  0  0  0  0  0  0  0  0  0  0
   27.9013  -19.1762  -14.7582 O   0  0  0  0  0  0  0  0  0  0  0  0
   28.6857  -18.4428  -15.3882 O   0  0  0  0  0  0  0  0  0  0  0  0
   27.3726  -22.8027  -15.9990 C   0  0  0  0  0  0  0  0  0  0  0  0
   28.0724  -22.0004  -16.8840 C   0  0  1  0  0  0  0  0  0  0  0  0
   27.5259  -20.5871  -16.7481 N   0  0  0  0  0  0  0  0  0  0  0  0
   27.3486  -20.3304  -15.3481 C   0  0  0  0  0  0  0  0  0  0  0  0
   26.2408  -20.5031  -17.4901 O   0  0  0  0  0  0  0  0  0  0  0  0
   26.2695  -20.7343  -18.8667 O   0  0  0  0  0  0  0  0  0  0  0  0
  1  2  1  0
  2  3  2  0
  4  2  1  0
  4  5  1  0
  6  7  1  0
  6  5  1  0
  7  8  1  0
  8 10  1  0
  8  9  1  6
 10 12  1  0
 10 11  2  0
 12 13  1  0
 13 14  1  0
 14 19  1  0
 14 15  2  0
 16 17  1  0
 18 20  1  0
 18 17  1  1
 19 18  1  0
 20 21  1  0
 22 20  2  0
M  END
$$$$
