RGS.pdb
     RDKit          3D

 22 21  0  0  1  0  0  0  0  0999 V2000
   26.7210  -22.2238  -11.4041 N   0  0  0  0  0  0  0  0  0  0  0  0
   25.9762  -21.1365  -10.8657 C   0  0  0  0  0  0  0  0  0  0  0  0
   25.5830  -21.2158   -9.6577 N   0  0  0  0  0  0  0  0  0  0  0  0
   25.6844  -19.9874  -11.6778 N   0  0  0  0  0  0  0  0  0  0  0  0
   25.6339  -20.0905  -13.0907 C   0  0  0  0  0  0  0  0  0  0  0  0
   24.7172  -21.0261  -13.7497 C   0  0  0  0  0  0  0  0  0  0  0  0
   23.5388  -20.5970  -14.5156 C   0  0  0  0  0  0  0  0  0  0  0  0
   22.6993  -19.5054  -13.9430 C   0  0  2  0  0  0  0  0  0  0  0  0
   22.0258  -19.8459  -12.7193 N   0  0  0  0  0  0  0  0  0  0  0  0
   21.6339  -19.1505  -14.9834 C   0  0  0  0  0  0  0  0  0  0  0  0
   21.9856  -18.9019  -16.1611 O   0  0  0  0  0  0  0  0  0  0  0  0
   25.0591  -20.5131   -9.1191 N   0  0  0  0  0  0  0  0  0  0  0  0
   20.2699  -19.0948  -14.6566 C   0  0  0  0  0  0  0  0  0  0  0  0
   19.2476  -19.7967  -15.4393 C   0  0  0  0  0  0  0  0  0  0  0  0
   18.2281  -20.4022  -14.5600 O   0  0  0  0  0  0  0  0  0  0  0  0
   18.3457  -20.3050  -13.3243 O   0  0  0  0  0  0  0  0  0  0  0  0
   15.4859  -22.7772  -16.2911 C   0  0  0  0  0  0  0  0  0  0  0  0
   14.9815  -22.0926  -15.1986 C   0  0  1  0  0  0  0  0  0  0  0  0
   16.1591  -21.7238  -14.3085 N   0  0  0  0  0  0  0  0  0  0  0  0
   17.1368  -21.0811  -15.1379 C   0  0  0  0  0  0  0  0  0  0  0  0
   16.6924  -22.9659  -13.6905 O   0  0  0  0  0  0  0  0  0  0  0  0
   15.8802  -23.6355  -12.7733 O   0  0  0  0  0  0  0  0  0  0  0  0
  1  2  1  0
  2  3  2  0
  4  2  1  0
  4  5  1  0
  6  7  1  0
  6  5  1  0
  7  8  1  0
  8 10  1  0
  8  9  1  1
 10 12  1  0
 10 11  2  0
 12 13  1  0
 13 14  1  0
 14 19  1  0
 14 15  2  0
 16 17  1  0
 18 20  1  0
 18 17  1  1
 19 18  1  0
 20 21  1  0
 22 20  2  0
M  END
$$$$
