RGS.pdb
     RDKit          3D

 22 21  0  0  1  0  0  0  0  0999 V2000
   21.5363  -21.8194   -9.4541 N   0  0  0  0  0  0  0  0  0  0  0  0
   21.8827  -21.7661   -8.0742 C   0  0  0  0  0  0  0  0  0  0  0  0
   21.1657  -22.4169   -7.2480 N   0  0  0  0  0  0  0  0  0  0  0  0
   23.0148  -20.9935   -7.6421 N   0  0  0  0  0  0  0  0  0  0  0  0
   23.8767  -20.3786   -8.5846 C   0  0  0  0  0  0  0  0  0  0  0  0
   24.9365  -21.1409   -9.2522 C   0  0  0  0  0  0  0  0  0  0  0  0
   25.8878  -20.5421  -10.1986 C   0  0  0  0  0  0  0  0  0  0  0  0
   25.4893  -20.4761  -11.6343 C   0  0  2  0  0  0  0  0  0  0  0  0
   25.4098  -21.7512  -12.2938 N   0  0  0  0  0  0  0  0  0  0  0  0
   26.5379  -19.6333  -12.3646 C   0  0  0  0  0  0  0  0  0  0  0  0
   26.7820  -18.4721  -11.9592 O   0  0  0  0  0  0  0  0  0  0  0  0
   21.2493  -22.4382   -6.2229 N   0  0  0  0  0  0  0  0  0  0  0  0
   27.2366  -20.1238  -13.4788 C   0  0  0  0  0  0  0  0  0  0  0  0
   28.1464  -19.2842  -14.2648 C   0  0  0  0  0  0  0  0  0  0  0  0
   27.5886  -19.0042  -15.6026 O   0  0  0  0  0  0  0  0  0  0  0  0
   26.3884  -18.6931  -15.7156 O   0  0  0  0  0  0  0  0  0  0  0  0
   28.6079  -18.5760  -20.2687 C   0  0  0  0  0  0  0  0  0  0  0  0
   29.0865  -18.9028  -19.0114 C   0  0  2  0  0  0  0  0  0  0  0  0
   27.9191  -18.8075  -18.0404 N   0  0  0  0  0  0  0  0  0  0  0  0
   28.4283  -19.0945  -16.7306 C   0  0  0  0  0  0  0  0  0  0  0  0
   26.8790  -19.7858  -18.4531 O   0  0  0  0  0  0  0  0  0  0  0  0
   25.8794  -19.3432  -19.3215 O   0  0  0  0  0  0  0  0  0  0  0  0
  1  2  1  0
  2  3  2  0
  4  2  1  0
  4  5  1  0
  6  7  1  0
  6  5  1  0
  7  8  1  0
  8 10  1  0
  8  9  1  6
 10 12  1  0
 10 11  2  0
 12 13  1  0
 13 14  1  0
 14 19  1  0
 14 15  2  0
 16 17  1  0
 18 20  1  0
 18 17  1  1
 19 18  1  0
 20 21  1  0
 22 20  2  0
M  END
$$$$
