DFY.pdb
     RDKit          3D

 32 33  0  0  1  0  0  0  0  0999 V2000
    8.8838  -17.0707   19.7441 N   0  0  0  0  0  0  0  0  0  0  0  0
   10.0680  -17.2587   20.6715 C   0  0  1  0  0  0  0  0  0  0  0  0
   11.2646  -17.0847   19.7999 C   0  0  0  0  0  0  0  0  0  0  0  0
   11.3287  -17.8915   18.6065 C   0  0  0  0  0  0  0  0  0  0  0  0
   11.7609  -19.0513   18.5722 O   0  0  0  0  0  0  0  0  0  0  0  0
    9.8731  -16.2094   21.6945 C   0  0  0  0  0  0  0  0  0  0  0  0
   10.9189  -15.6374   22.1849 O   0  0  0  0  0  0  0  0  0  0  0  0
   10.8777  -17.3599   17.3710 O   0  0  0  0  0  0  0  0  0  0  0  0
    8.6562  -15.7361   22.2143 N   0  0  0  0  0  0  0  0  0  0  0  0
    8.5886  -14.9494   23.4506 C   0  0  1  0  0  0  0  0  0  0  0  0
    7.2329  -14.3017   23.4931 C   0  0  0  0  0  0  0  0  0  0  0  0
    7.0534  -13.4692   24.6922 C   0  0  0  0  0  0  0  0  0  0  0  0
    6.3244  -13.9083   25.7739 C   0  0  0  0  0  0  0  0  0  0  0  0
    6.1384  -13.1488   26.9138 C   0  0  0  0  0  0  0  0  0  0  0  0
    6.7208  -11.8958   26.9437 C   0  0  0  0  0  0  0  0  0  0  0  0
    7.4539  -11.4460   25.8638 C   0  0  0  0  0  0  0  0  0  0  0  0
    7.6316  -12.2129   24.7339 C   0  0  0  0  0  0  0  0  0  0  0  0
    8.9296  -15.7322   24.6515 C   0  0  0  0  0  0  0  0  0  0  0  0
    8.3762  -16.8311   24.8682 O   0  0  0  0  0  0  0  0  0  0  0  0
   12.9413  -19.7702   31.1882 O   0  0  0  0  0  0  0  0  0  0  0  0
   12.6012  -19.0422   30.0490 C   0  0  0  0  0  0  0  0  0  0  0  0
   13.1777  -17.8151   29.7850 C   0  0  0  0  0  0  0  0  0  0  0  0
   12.8182  -17.1180   28.6454 C   0  0  0  0  0  0  0  0  0  0  0  0
   11.8955  -17.5869   27.7350 C   0  0  0  0  0  0  0  0  0  0  0  0
   11.5212  -16.8299   26.5272 C   0  0  0  0  0  0  0  0  0  0  0  0
   10.3016  -16.0353   26.7578 C   0  0  2  0  0  0  0  0  0  0  0  0
    9.8695  -15.2924   25.5871 N   0  0  0  0  0  0  0  0  0  0  0  0
   10.3946  -15.1331   27.8938 C   0  0  0  0  0  0  0  0  0  0  0  0
   10.8326  -13.9573   27.7122 O   0  0  0  0  0  0  0  0  0  0  0  0
   11.3199  -18.8139   28.0001 C   0  0  0  0  0  0  0  0  0  0  0  0
   11.6764  -19.5109   29.1352 C   0  0  0  0  0  0  0  0  0  0  0  0
   10.0373  -15.4468   29.1886 O   0  0  0  0  0  0  0  0  0  0  0  0
  2  1  1  6
  2  3  1  0
  3  4  1  0
  4  5  2  0
  4  8  1  0
  6  2  1  0
  7  6  2  0
  9  6  1  0
 10  9  1  0
 11 12  1  0
 10 11  1  1
 12 17  1  0
 13 12  2  0
 14 13  1  0
 14 15  2  0
 15 16  1  0
 17 16  2  0
 18 10  1  0
 18 19  2  0
 21 20  1  0
 21 31  2  0
 22 21  1  0
 23 22  2  0
 23 24  1  0
 24 30  2  0
 25 24  1  0
 26 25  1  6
 26 27  1  0
 27 18  1  0
 28 32  1  0
 28 26  1  0
 29 28  2  0
 30 31  1  0
M  END
$$$$
