DFY.pdb
     RDKit          3D

 32 33  0  0  1  0  0  0  0  0999 V2000
    9.5566  -16.3462   18.2190 N   0  0  0  0  0  0  0  0  0  0  0  0
    9.8207  -17.3463   19.3270 C   0  0  1  0  0  0  0  0  0  0  0  0
   11.1613  -17.9168   19.0123 C   0  0  0  0  0  0  0  0  0  0  0  0
   11.2410  -18.8247   17.8949 C   0  0  0  0  0  0  0  0  0  0  0  0
   11.5489  -18.4873   16.7440 O   0  0  0  0  0  0  0  0  0  0  0  0
    9.7556  -16.5245   20.5542 C   0  0  0  0  0  0  0  0  0  0  0  0
   10.8077  -15.8654   20.9004 O   0  0  0  0  0  0  0  0  0  0  0  0
   10.9560  -20.2015   18.0834 O   0  0  0  0  0  0  0  0  0  0  0  0
    8.6583  -16.3595   21.4168 N   0  0  0  0  0  0  0  0  0  0  0  0
    8.7449  -15.5653   22.6471 C   0  0  1  0  0  0  0  0  0  0  0  0
    7.3402  -15.2150   23.0512 C   0  0  0  0  0  0  0  0  0  0  0  0
    7.3005  -14.4261   24.2919 C   0  0  0  0  0  0  0  0  0  0  0  0
    7.7335  -13.1203   24.3317 C   0  0  0  0  0  0  0  0  0  0  0  0
    7.7085  -12.3544   25.4822 C   0  0  0  0  0  0  0  0  0  0  0  0
    7.2224  -12.9499   26.6307 C   0  0  0  0  0  0  0  0  0  0  0  0
    6.7858  -14.2593   26.6013 C   0  0  0  0  0  0  0  0  0  0  0  0
    6.8160  -15.0115   25.4482 C   0  0  0  0  0  0  0  0  0  0  0  0
    9.5386  -16.2206   23.7016 C   0  0  0  0  0  0  0  0  0  0  0  0
    9.3598  -17.4276   23.9698 O   0  0  0  0  0  0  0  0  0  0  0  0
    9.5244  -15.1364   31.5344 O   0  0  0  0  0  0  0  0  0  0  0  0
   10.1111  -15.1157   30.2700 C   0  0  0  0  0  0  0  0  0  0  0  0
   10.0450  -13.9928   29.4684 C   0  0  0  0  0  0  0  0  0  0  0  0
   10.6379  -14.0049   28.2185 C   0  0  0  0  0  0  0  0  0  0  0  0
   11.3075  -15.0985   27.7128 C   0  0  0  0  0  0  0  0  0  0  0  0
   11.9309  -15.0960   26.3775 C   0  0  0  0  0  0  0  0  0  0  0  0
   11.3138  -16.1096   25.5037 C   0  0  2  0  0  0  0  0  0  0  0  0
   10.5100  -15.5376   24.4379 N   0  0  0  0  0  0  0  0  0  0  0  0
   10.5291  -17.1024   26.2191 C   0  0  0  0  0  0  0  0  0  0  0  0
   11.1145  -18.1163   26.7057 O   0  0  0  0  0  0  0  0  0  0  0  0
   11.3730  -16.2206   28.5153 C   0  0  0  0  0  0  0  0  0  0  0  0
   10.7829  -16.2111   29.7616 C   0  0  0  0  0  0  0  0  0  0  0  0
    9.1667  -17.0398   26.4256 O   0  0  0  0  0  0  0  0  0  0  0  0
  2  1  1  6
  2  3  1  0
  3  4  1  0
  4  5  2  0
  4  8  1  0
  6  2  1  0
  7  6  2  0
  9  6  1  0
 10  9  1  0
 11 12  1  0
 10 11  1  1
 12 17  1  0
 13 12  2  0
 14 13  1  0
 14 15  2  0
 15 16  1  0
 17 16  2  0
 18 10  1  0
 18 19  2  0
 21 20  1  0
 21 31  2  0
 22 21  1  0
 23 22  2  0
 23 24  1  0
 24 30  2  0
 25 24  1  0
 26 25  1  1
 26 27  1  0
 27 18  1  0
 28 32  1  0
 28 26  1  0
 29 28  2  0
 30 31  1  0
M  END
$$$$
