DFY.pdb
     RDKit          3D

 32 33  0  0  1  0  0  0  0  0999 V2000
   10.2433  -15.9369   18.2957 N   0  0  0  0  0  0  0  0  0  0  0  0
    9.2473  -16.7188   19.1289 C   0  0  1  0  0  0  0  0  0  0  0  0
    9.7998  -18.1022   19.1824 C   0  0  0  0  0  0  0  0  0  0  0  0
    9.5046  -18.9690   18.0685 C   0  0  0  0  0  0  0  0  0  0  0  0
    9.3827  -18.5826   16.8984 O   0  0  0  0  0  0  0  0  0  0  0  0
    9.2329  -15.9936   20.4172 C   0  0  0  0  0  0  0  0  0  0  0  0
   10.3633  -15.6612   20.9398 O   0  0  0  0  0  0  0  0  0  0  0  0
    9.3352  -20.3608   18.2839 O   0  0  0  0  0  0  0  0  0  0  0  0
    8.1104  -15.6027   21.1669 N   0  0  0  0  0  0  0  0  0  0  0  0
    8.2320  -15.0073   22.5021 C   0  0  1  0  0  0  0  0  0  0  0  0
    7.0208  -14.1435   22.7169 C   0  0  0  0  0  0  0  0  0  0  0  0
    7.0464  -13.4676   24.0229 C   0  0  0  0  0  0  0  0  0  0  0  0
    6.3579  -13.9636   25.1065 C   0  0  0  0  0  0  0  0  0  0  0  0
    6.3629  -13.3505   26.3455 C   0  0  0  0  0  0  0  0  0  0  0  0
    7.1001  -12.1889   26.4759 C   0  0  0  0  0  0  0  0  0  0  0  0
    7.7942  -11.6832   25.3950 C   0  0  0  0  0  0  0  0  0  0  0  0
    7.7809  -12.3037   24.1658 C   0  0  0  0  0  0  0  0  0  0  0  0
    8.4654  -16.0064   23.5597 C   0  0  0  0  0  0  0  0  0  0  0  0
    7.5023  -16.5811   24.1103 O   0  0  0  0  0  0  0  0  0  0  0  0
   11.4070  -15.4152   31.5504 O   0  0  0  0  0  0  0  0  0  0  0  0
   10.8803  -15.4874   30.2617 C   0  0  0  0  0  0  0  0  0  0  0  0
   10.5283  -16.6987   29.6990 C   0  0  0  0  0  0  0  0  0  0  0  0
   10.0082  -16.7358   28.4176 C   0  0  0  0  0  0  0  0  0  0  0  0
    9.8156  -15.6074   27.6497 C   0  0  0  0  0  0  0  0  0  0  0  0
    9.2633  -15.6647   26.2846 C   0  0  0  0  0  0  0  0  0  0  0  0
   10.2808  -16.1206   25.3210 C   0  0  2  0  0  0  0  0  0  0  0  0
    9.7490  -16.3524   23.9896 N   0  0  0  0  0  0  0  0  0  0  0  0
   11.0175  -17.2956   25.7568 C   0  0  0  0  0  0  0  0  0  0  0  0
   12.1087  -17.1409   26.3836 O   0  0  0  0  0  0  0  0  0  0  0  0
   10.1679  -14.3969   28.2135 C   0  0  0  0  0  0  0  0  0  0  0  0
   10.6865  -14.3571   29.4906 C   0  0  0  0  0  0  0  0  0  0  0  0
   10.6260  -18.6014   25.5472 O   0  0  0  0  0  0  0  0  0  0  0  0
  2  1  1  6
  2  3  1  0
  3  4  1  0
  4  5  2  0
  4  8  1  0
  6  2  1  0
  7  6  2  0
  9  6  1  0
 10  9  1  0
 11 12  1  0
 10 11  1  1
 12 17  1  0
 13 12  2  0
 14 13  1  0
 14 15  2  0
 15 16  1  0
 17 16  2  0
 18 10  1  0
 18 19  2  0
 21 20  1  0
 21 31  2  0
 22 21  1  0
 23 22  2  0
 23 24  1  0
 24 30  2  0
 25 24  1  0
 26 25  1  1
 26 27  1  0
 27 18  1  0
 28 32  1  0
 28 26  1  0
 29 28  2  0
 30 31  1  0
M  END
$$$$
