DFY.pdb
     RDKit          3D

 32 33  0  0  1  0  0  0  0  0999 V2000
    9.1098  -17.5349   19.2578 N   0  0  0  0  0  0  0  0  0  0  0  0
   10.4651  -17.1620   19.8253 C   0  0  1  0  0  0  0  0  0  0  0  0
   11.1763  -16.4908   18.7004 C   0  0  0  0  0  0  0  0  0  0  0  0
   11.2566  -17.2106   17.4536 C   0  0  0  0  0  0  0  0  0  0  0  0
   11.0738  -16.6990   16.3409 O   0  0  0  0  0  0  0  0  0  0  0  0
   10.1296  -16.2901   20.9711 C   0  0  0  0  0  0  0  0  0  0  0  0
   11.0950  -15.6995   21.5880 O   0  0  0  0  0  0  0  0  0  0  0  0
   11.5621  -18.5959   17.4576 O   0  0  0  0  0  0  0  0  0  0  0  0
    8.8533  -16.0088   21.4879 N   0  0  0  0  0  0  0  0  0  0  0  0
    8.6618  -15.2079   22.7020 C   0  0  1  0  0  0  0  0  0  0  0  0
    7.2179  -14.7917   22.7380 C   0  0  0  0  0  0  0  0  0  0  0  0
    6.9395  -13.8499   23.8329 C   0  0  0  0  0  0  0  0  0  0  0  0
    7.2194  -12.5071   23.7193 C   0  0  0  0  0  0  0  0  0  0  0  0
    6.9692  -11.5986   24.7307 C   0  0  0  0  0  0  0  0  0  0  0  0
    6.4126  -12.0857   25.8981 C   0  0  0  0  0  0  0  0  0  0  0  0
    6.1281  -13.4309   26.0219 C   0  0  0  0  0  0  0  0  0  0  0  0
    6.3824  -14.3257   25.0066 C   0  0  0  0  0  0  0  0  0  0  0  0
    9.1322  -15.8881   23.9215 C   0  0  0  0  0  0  0  0  0  0  0  0
    8.9181  -17.1076   24.0879 O   0  0  0  0  0  0  0  0  0  0  0  0
   12.1670  -17.2285   32.0990 O   0  0  0  0  0  0  0  0  0  0  0  0
   11.8586  -16.6494   30.8691 C   0  0  0  0  0  0  0  0  0  0  0  0
   12.3427  -17.1769   29.6879 C   0  0  0  0  0  0  0  0  0  0  0  0
   12.0178  -16.5780   28.4838 C   0  0  0  0  0  0  0  0  0  0  0  0
   11.2198  -15.4580   28.3905 C   0  0  0  0  0  0  0  0  0  0  0  0
   10.8859  -14.8303   27.0997 C   0  0  0  0  0  0  0  0  0  0  0  0
   10.2752  -15.8059   26.1793 C   0  0  2  0  0  0  0  0  0  0  0  0
    9.8264  -15.2157   24.9305 N   0  0  0  0  0  0  0  0  0  0  0  0
    9.1879  -16.5692   26.7696 C   0  0  0  0  0  0  0  0  0  0  0  0
    8.0221  -16.0711   26.7831 O   0  0  0  0  0  0  0  0  0  0  0  0
   10.7364  -14.9316   29.5723 C   0  0  0  0  0  0  0  0  0  0  0  0
   11.0586  -15.5265   30.7738 C   0  0  0  0  0  0  0  0  0  0  0  0
    9.3109  -17.8233   27.3305 O   0  0  0  0  0  0  0  0  0  0  0  0
  2  1  1  6
  2  3  1  0
  3  4  1  0
  4  5  2  0
  4  8  1  0
  6  2  1  0
  7  6  2  0
  9  6  1  0
 10  9  1  0
 11 12  1  0
 10 11  1  1
 12 17  1  0
 13 12  2  0
 14 13  1  0
 14 15  2  0
 15 16  1  0
 17 16  2  0
 18 10  1  0
 18 19  2  0
 21 20  1  0
 21 31  2  0
 22 21  1  0
 23 22  2  0
 23 24  1  0
 24 30  2  0
 25 24  1  0
 26 25  1  1
 26 27  1  0
 27 18  1  0
 28 32  1  0
 28 26  1  0
 29 28  2  0
 30 31  1  0
M  END
$$$$
