DFY.pdb
     RDKit          3D

 32 33  0  0  1  0  0  0  0  0999 V2000
    9.8534  -16.6582   19.9978 N   0  0  0  0  0  0  0  0  0  0  0  0
   10.8447  -17.0505   21.0754 C   0  0  1  0  0  0  0  0  0  0  0  0
   12.1826  -16.7691   20.4816 C   0  0  0  0  0  0  0  0  0  0  0  0
   13.3349  -17.2347   21.2127 C   0  0  0  0  0  0  0  0  0  0  0  0
   13.3304  -18.2150   21.9692 O   0  0  0  0  0  0  0  0  0  0  0  0
   10.4671  -16.1923   22.2184 C   0  0  0  0  0  0  0  0  0  0  0  0
   11.2591  -15.2283   22.5419 O   0  0  0  0  0  0  0  0  0  0  0  0
   14.5730  -16.5542   21.0853 O   0  0  0  0  0  0  0  0  0  0  0  0
    9.3171  -16.2915   23.0201 N   0  0  0  0  0  0  0  0  0  0  0  0
    9.1038  -15.4313   24.1891 C   0  0  1  0  0  0  0  0  0  0  0  0
    7.6700  -14.9813   24.1557 C   0  0  0  0  0  0  0  0  0  0  0  0
    7.3725  -13.9986   25.2087 C   0  0  0  0  0  0  0  0  0  0  0  0
    7.7973  -12.6926   25.1188 C   0  0  0  0  0  0  0  0  0  0  0  0
    7.5333  -11.7472   26.0921 C   0  0  0  0  0  0  0  0  0  0  0  0
    6.8084  -12.1570   27.1950 C   0  0  0  0  0  0  0  0  0  0  0  0
    6.3777  -13.4649   27.2947 C   0  0  0  0  0  0  0  0  0  0  0  0
    6.6475  -14.3971   26.3178 C   0  0  0  0  0  0  0  0  0  0  0  0
    9.5160  -16.0648   25.4540 C   0  0  0  0  0  0  0  0  0  0  0  0
    9.2190  -17.2549   25.6913 O   0  0  0  0  0  0  0  0  0  0  0  0
   15.4505  -17.8000   23.8790 O   0  0  0  0  0  0  0  0  0  0  0  0
   14.6363  -17.2870   24.8876 C   0  0  0  0  0  0  0  0  0  0  0  0
   14.3374  -18.0293   26.0134 C   0  0  0  0  0  0  0  0  0  0  0  0
   13.5262  -17.4907   26.9961 C   0  0  0  0  0  0  0  0  0  0  0  0
   12.9847  -16.2256   26.9164 C   0  0  0  0  0  0  0  0  0  0  0  0
   12.1194  -15.6680   27.9711 C   0  0  0  0  0  0  0  0  0  0  0  0
   10.6990  -15.9412   27.6892 C   0  0  2  0  0  0  0  0  0  0  0  0
   10.2441  -15.3792   26.4297 N   0  0  0  0  0  0  0  0  0  0  0  0
    9.7992  -15.5287   28.7538 C   0  0  0  0  0  0  0  0  0  0  0  0
    9.9845  -15.9768   29.9252 O   0  0  0  0  0  0  0  0  0  0  0  0
   13.2844  -15.4844   25.7903 C   0  0  0  0  0  0  0  0  0  0  0  0
   14.0928  -16.0188   24.8093 C   0  0  0  0  0  0  0  0  0  0  0  0
    8.7325  -14.6673   28.6029 O   0  0  0  0  0  0  0  0  0  0  0  0
  2  1  1  6
  2  3  1  0
  3  4  1  0
  4  5  2  0
  4  8  1  0
  6  2  1  0
  7  6  2  0
  9  6  1  0
 10  9  1  0
 11 12  1  0
 10 11  1  1
 12 17  1  0
 13 12  2  0
 14 13  1  0
 14 15  2  0
 15 16  1  0
 17 16  2  0
 18 10  1  0
 18 19  2  0
 21 20  1  0
 21 31  2  0
 22 21  1  0
 23 22  2  0
 23 24  1  0
 24 30  2  0
 25 24  1  0
 26 25  1  1
 26 27  1  0
 27 18  1  0
 28 32  1  0
 28 26  1  0
 29 28  2  0
 30 31  1  0
M  END
$$$$
