DFY.pdb
     RDKit          3D

 32 33  0  0  1  0  0  0  0  0999 V2000
   11.0320  -16.4731   20.1033 N   0  0  0  0  0  0  0  0  0  0  0  0
   10.5891  -17.3171   21.2820 C   0  0  1  0  0  0  0  0  0  0  0  0
   11.7432  -18.2189   21.5586 C   0  0  0  0  0  0  0  0  0  0  0  0
   11.9808  -19.2860   20.6185 C   0  0  0  0  0  0  0  0  0  0  0  0
   13.0892  -19.7974   20.4108 O   0  0  0  0  0  0  0  0  0  0  0  0
   10.3024  -16.3168   22.3322 C   0  0  0  0  0  0  0  0  0  0  0  0
   11.2648  -15.5538   22.7232 O   0  0  0  0  0  0  0  0  0  0  0  0
   10.9022  -19.8127   19.8624 O   0  0  0  0  0  0  0  0  0  0  0  0
    9.0760  -16.0791   22.9761 N   0  0  0  0  0  0  0  0  0  0  0  0
    8.9447  -15.1155   24.0743 C   0  0  1  0  0  0  0  0  0  0  0  0
    7.5519  -14.5539   24.0104 C   0  0  0  0  0  0  0  0  0  0  0  0
    7.2874  -13.6018   25.0997 C   0  0  0  0  0  0  0  0  0  0  0  0
    6.5169  -13.9445   26.1874 C   0  0  0  0  0  0  0  0  0  0  0  0
    6.2510  -13.0715   27.2256 C   0  0  0  0  0  0  0  0  0  0  0  0
    6.7948  -11.8036   27.1440 C   0  0  0  0  0  0  0  0  0  0  0  0
    7.5691  -11.4500   26.0570 C   0  0  0  0  0  0  0  0  0  0  0  0
    7.8265  -12.3294   25.0291 C   0  0  0  0  0  0  0  0  0  0  0  0
    9.3166  -15.6795   25.3838 C   0  0  0  0  0  0  0  0  0  0  0  0
    8.8223  -16.7599   25.7703 O   0  0  0  0  0  0  0  0  0  0  0  0
   14.5447  -19.5528   24.3631 O   0  0  0  0  0  0  0  0  0  0  0  0
   13.9582  -18.5823   25.1740 C   0  0  0  0  0  0  0  0  0  0  0  0
   13.3919  -18.9120   26.3899 C   0  0  0  0  0  0  0  0  0  0  0  0
   12.8179  -17.9249   27.1709 C   0  0  0  0  0  0  0  0  0  0  0  0
   12.7764  -16.5984   26.7982 C   0  0  0  0  0  0  0  0  0  0  0  0
   12.1579  -15.5594   27.6407 C   0  0  0  0  0  0  0  0  0  0  0  0
   10.6902  -15.5753   27.5082 C   0  0  2  0  0  0  0  0  0  0  0  0
   10.2216  -15.0463   26.2395 N   0  0  0  0  0  0  0  0  0  0  0  0
    9.9951  -14.9061   28.5955 C   0  0  0  0  0  0  0  0  0  0  0  0
   10.1829  -15.3046   29.7843 O   0  0  0  0  0  0  0  0  0  0  0  0
   13.3429  -16.2700   25.5823 C   0  0  0  0  0  0  0  0  0  0  0  0
   13.9158  -17.2520   24.8020 C   0  0  0  0  0  0  0  0  0  0  0  0
    9.1266  -13.8446   28.4488 O   0  0  0  0  0  0  0  0  0  0  0  0
  2  1  1  6
  2  3  1  0
  3  4  1  0
  4  5  2  0
  4  8  1  0
  6  2  1  0
  7  6  2  0
  9  6  1  0
 10  9  1  0
 11 12  1  0
 10 11  1  1
 12 17  1  0
 13 12  2  0
 14 13  1  0
 14 15  2  0
 15 16  1  0
 17 16  2  0
 18 10  1  0
 18 19  2  0
 21 20  1  0
 21 31  2  0
 22 21  1  0
 23 22  2  0
 23 24  1  0
 24 30  2  0
 25 24  1  0
 26 25  1  1
 26 27  1  0
 27 18  1  0
 28 32  1  0
 28 26  1  0
 29 28  2  0
 30 31  1  0
M  END
$$$$
