DFY.pdb
     RDKit          3D

 32 33  0  0  1  0  0  0  0  0999 V2000
   12.0732  -19.0344   16.3080 N   0  0  0  0  0  0  0  0  0  0  0  0
   10.5875  -19.0254   16.6088 C   0  0  1  0  0  0  0  0  0  0  0  0
   10.3154  -20.3575   17.2198 C   0  0  0  0  0  0  0  0  0  0  0  0
    9.5391  -21.2895   16.4402 C   0  0  0  0  0  0  0  0  0  0  0  0
    9.1568  -21.0794   15.2813 O   0  0  0  0  0  0  0  0  0  0  0  0
   10.4277  -17.8692   17.5160 C   0  0  0  0  0  0  0  0  0  0  0  0
   11.4904  -17.3374   18.0153 O   0  0  0  0  0  0  0  0  0  0  0  0
    9.1683  -22.5393   16.9995 O   0  0  0  0  0  0  0  0  0  0  0  0
    9.2292  -17.2518   17.9130 N   0  0  0  0  0  0  0  0  0  0  0  0
    9.1973  -16.1809   18.9151 C   0  0  1  0  0  0  0  0  0  0  0  0
    7.9723  -15.3532   18.6439 C   0  0  0  0  0  0  0  0  0  0  0  0
    7.7833  -14.2965   19.6493 C   0  0  0  0  0  0  0  0  0  0  0  0
    8.4159  -13.0786   19.5448 C   0  0  0  0  0  0  0  0  0  0  0  0
    8.2580  -12.0670   20.4735 C   0  0  0  0  0  0  0  0  0  0  0  0
    7.4221  -12.3146   21.5458 C   0  0  0  0  0  0  0  0  0  0  0  0
    6.7829  -13.5330   21.6598 C   0  0  0  0  0  0  0  0  0  0  0  0
    6.9488  -14.5326   20.7274 C   0  0  0  0  0  0  0  0  0  0  0  0
    9.3031  -16.6811   20.2971 C   0  0  0  0  0  0  0  0  0  0  0  0
    8.3887  -17.3753   20.7900 O   0  0  0  0  0  0  0  0  0  0  0  0
   14.6053  -20.9136   19.8465 O   0  0  0  0  0  0  0  0  0  0  0  0
   13.6044  -20.2520   20.5565 C   0  0  0  0  0  0  0  0  0  0  0  0
   13.9113  -19.2845   21.4933 C   0  0  0  0  0  0  0  0  0  0  0  0
   12.8942  -18.6467   22.1808 C   0  0  0  0  0  0  0  0  0  0  0  0
   11.5593  -18.9263   21.9814 C   0  0  0  0  0  0  0  0  0  0  0  0
   10.4879  -18.2397   22.7248 C   0  0  0  0  0  0  0  0  0  0  0  0
   10.5402  -16.7835   22.5038 C   0  0  2  0  0  0  0  0  0  0  0  0
   10.4086  -16.4088   21.1068 N   0  0  0  0  0  0  0  0  0  0  0  0
   11.7206  -16.1466   23.0643 C   0  0  0  0  0  0  0  0  0  0  0  0
   12.0064  -16.3437   24.2837 O   0  0  0  0  0  0  0  0  0  0  0  0
   11.2538  -19.8938   21.0444 C   0  0  0  0  0  0  0  0  0  0  0  0
   12.2656  -20.5311   20.3578 C   0  0  0  0  0  0  0  0  0  0  0  0
   12.5849  -15.3253   22.3708 O   0  0  0  0  0  0  0  0  0  0  0  0
  2  1  1  1
  2  3  1  0
  3  4  1  0
  4  5  2  0
  4  8  1  0
  6  2  1  0
  7  6  2  0
  9  6  1  0
 10  9  1  0
 11 12  1  0
 10 11  1  1
 12 17  1  0
 13 12  2  0
 14 13  1  0
 14 15  2  0
 15 16  1  0
 17 16  2  0
 18 10  1  0
 18 19  2  0
 21 20  1  0
 21 31  2  0
 22 21  1  0
 23 22  2  0
 23 24  1  0
 24 30  2  0
 25 24  1  0
 26 25  1  6
 26 27  1  0
 27 18  1  0
 28 32  1  0
 28 26  1  0
 29 28  2  0
 30 31  1  0
M  END
$$$$
