DFY.pdb
     RDKit          3D

 32 33  0  0  1  0  0  0  0  0999 V2000
    8.6377  -17.5117   18.7923 N   0  0  0  0  0  0  0  0  0  0  0  0
   10.0120  -16.9411   19.0808 C   0  0  1  0  0  0  0  0  0  0  0  0
   10.3932  -16.2192   17.8337 C   0  0  0  0  0  0  0  0  0  0  0  0
   10.4389  -16.9922   16.6173 C   0  0  0  0  0  0  0  0  0  0  0  0
   10.5912  -18.2204   16.5778 O   0  0  0  0  0  0  0  0  0  0  0  0
    9.7865  -16.0836   20.2638 C   0  0  0  0  0  0  0  0  0  0  0  0
   10.7195  -15.2627   20.6058 O   0  0  0  0  0  0  0  0  0  0  0  0
   10.3048  -16.3423   15.3635 O   0  0  0  0  0  0  0  0  0  0  0  0
    8.6480  -16.0426   21.0868 N   0  0  0  0  0  0  0  0  0  0  0  0
    8.6478  -15.3608   22.3857 C   0  0  1  0  0  0  0  0  0  0  0  0
    7.3131  -14.6857   22.5345 C   0  0  0  0  0  0  0  0  0  0  0  0
    7.1795  -14.0005   23.8290 C   0  0  0  0  0  0  0  0  0  0  0  0
    7.6384  -12.7167   24.0175 C   0  0  0  0  0  0  0  0  0  0  0  0
    7.5271  -12.0475   25.2220 C   0  0  0  0  0  0  0  0  0  0  0  0
    6.9240  -12.7196   26.2681 C   0  0  0  0  0  0  0  0  0  0  0  0
    6.4604  -14.0077   26.0893 C   0  0  0  0  0  0  0  0  0  0  0  0
    6.5775  -14.6632   24.8840 C   0  0  0  0  0  0  0  0  0  0  0  0
    9.0109  -16.2497   23.5035 C   0  0  0  0  0  0  0  0  0  0  0  0
    8.1483  -16.9793   24.0370 O   0  0  0  0  0  0  0  0  0  0  0  0
   11.1594  -15.2964   31.7000 O   0  0  0  0  0  0  0  0  0  0  0  0
   10.8821  -15.2651   30.3342 C   0  0  0  0  0  0  0  0  0  0  0  0
   10.7186  -16.4299   29.6100 C   0  0  0  0  0  0  0  0  0  0  0  0
   10.4441  -16.3641   28.2557 C   0  0  0  0  0  0  0  0  0  0  0  0
   10.3210  -15.1754   27.5687 C   0  0  0  0  0  0  0  0  0  0  0  0
   10.0314  -15.1230   26.1247 C   0  0  0  0  0  0  0  0  0  0  0  0
   10.6701  -16.2462   25.4160 C   0  0  2  0  0  0  0  0  0  0  0  0
   10.3109  -16.3182   24.0106 N   0  0  0  0  0  0  0  0  0  0  0  0
   10.4412  -17.5397   26.0387 C   0  0  0  0  0  0  0  0  0  0  0  0
    9.2566  -17.9845   26.1172 O   0  0  0  0  0  0  0  0  0  0  0  0
   10.4846  -14.0116   28.2940 C   0  0  0  0  0  0  0  0  0  0  0  0
   10.7583  -14.0743   29.6440 C   0  0  0  0  0  0  0  0  0  0  0  0
   11.4233  -18.3527   26.5651 O   0  0  0  0  0  0  0  0  0  0  0  0
  2  1  1  6
  2  3  1  0
  3  4  1  0
  4  5  2  0
  4  8  1  0
  6  2  1  0
  7  6  2  0
  9  6  1  0
 10  9  1  0
 11 12  1  0
 10 11  1  1
 12 17  1  0
 13 12  2  0
 14 13  1  0
 14 15  2  0
 15 16  1  0
 17 16  2  0
 18 10  1  0
 18 19  2  0
 21 20  1  0
 21 31  2  0
 22 21  1  0
 23 22  2  0
 23 24  1  0
 24 30  2  0
 25 24  1  0
 26 25  1  1
 26 27  1  0
 27 18  1  0
 28 32  1  0
 28 26  1  0
 29 28  2  0
 30 31  1  0
M  END
$$$$
