DFY.pdb
     RDKit          3D

 32 33  0  0  1  0  0  0  0  0999 V2000
   10.5816  -16.9681   18.7584 N   0  0  0  0  0  0  0  0  0  0  0  0
    9.8319  -17.5865   19.9217 C   0  0  1  0  0  0  0  0  0  0  0  0
   10.7306  -18.6650   20.4225 C   0  0  0  0  0  0  0  0  0  0  0  0
   10.9079  -19.8168   19.5734 C   0  0  0  0  0  0  0  0  0  0  0  0
    9.9826  -20.5344   19.1706 O   0  0  0  0  0  0  0  0  0  0  0  0
    9.6330  -16.4495   20.8455 C   0  0  0  0  0  0  0  0  0  0  0  0
   10.6504  -15.7094   21.1258 O   0  0  0  0  0  0  0  0  0  0  0  0
   12.2102  -20.1864   19.1495 O   0  0  0  0  0  0  0  0  0  0  0  0
    8.4390  -16.0555   21.4734 N   0  0  0  0  0  0  0  0  0  0  0  0
    8.4173  -15.0741   22.5635 C   0  0  1  0  0  0  0  0  0  0  0  0
    7.0005  -14.9888   23.0582 C   0  0  0  0  0  0  0  0  0  0  0  0
    6.8354  -13.9563   24.0925 C   0  0  0  0  0  0  0  0  0  0  0  0
    6.2764  -14.2434   25.3170 C   0  0  0  0  0  0  0  0  0  0  0  0
    6.1084  -13.2945   26.3080 C   0  0  0  0  0  0  0  0  0  0  0  0
    6.5286  -12.0072   26.0321 C   0  0  0  0  0  0  0  0  0  0  0  0
    7.0906  -11.7089   24.8069 C   0  0  0  0  0  0  0  0  0  0  0  0
    7.2524  -12.6638   23.8279 C   0  0  0  0  0  0  0  0  0  0  0  0
    9.4145  -15.3542   23.6115 C   0  0  0  0  0  0  0  0  0  0  0  0
   10.5489  -14.8333   23.5604 O   0  0  0  0  0  0  0  0  0  0  0  0
   11.8782  -16.0612   31.9955 O   0  0  0  0  0  0  0  0  0  0  0  0
   11.2252  -15.9138   30.7727 C   0  0  0  0  0  0  0  0  0  0  0  0
   10.7685  -17.0105   30.0681 C   0  0  0  0  0  0  0  0  0  0  0  0
   10.1243  -16.8297   28.8573 C   0  0  0  0  0  0  0  0  0  0  0  0
    9.9056  -15.5889   28.2981 C   0  0  0  0  0  0  0  0  0  0  0  0
    9.2202  -15.4139   27.0052 C   0  0  0  0  0  0  0  0  0  0  0  0
    9.8698  -16.2117   25.9500 C   0  0  2  0  0  0  0  0  0  0  0  0
    9.1452  -16.1990   24.6913 N   0  0  0  0  0  0  0  0  0  0  0  0
   10.1406  -17.5867   26.3361 C   0  0  0  0  0  0  0  0  0  0  0  0
   11.0375  -17.8180   27.2019 O   0  0  0  0  0  0  0  0  0  0  0  0
   10.3627  -14.4932   29.0036 C   0  0  0  0  0  0  0  0  0  0  0  0
   11.0051  -14.6706   30.2107 C   0  0  0  0  0  0  0  0  0  0  0  0
    9.4910  -18.6952   25.8345 O   0  0  0  0  0  0  0  0  0  0  0  0
  2  1  1  6
  2  3  1  0
  3  4  1  0
  4  5  2  0
  4  8  1  0
  6  2  1  0
  7  6  2  0
  9  6  1  0
 10  9  1  0
 11 12  1  0
 10 11  1  1
 12 17  1  0
 13 12  2  0
 14 13  1  0
 14 15  2  0
 15 16  1  0
 17 16  2  0
 18 10  1  0
 18 19  2  0
 21 20  1  0
 21 31  2  0
 22 21  1  0
 23 22  2  0
 23 24  1  0
 24 30  2  0
 25 24  1  0
 26 25  1  1
 26 27  1  0
 27 18  1  0
 28 32  1  0
 28 26  1  0
 29 28  2  0
 30 31  1  0
M  END
$$$$
