NQW.pdb
     RDKit          3D

 32 33  0  0  1  0  0  0  0  0999 V2000
    7.1351  -12.4650   18.5866 N   0  0  0  0  0  0  0  0  0  0  0  0
    8.2801  -13.0354   19.1781 C   0  0  0  0  0  0  0  0  0  0  0  0
    9.4065  -12.7480   18.7410 O   0  0  0  0  0  0  0  0  0  0  0  0
    8.1317  -13.9642   20.3054 C   0  0  0  0  0  0  0  0  0  0  0  0
    8.6493  -15.3150   19.8821 C   0  0  2  0  0  0  0  0  0  0  0  0
    7.8373  -15.8864   18.8267 N   0  0  0  0  0  0  0  0  0  0  0  0
    8.6923  -16.1967   21.0651 C   0  0  0  0  0  0  0  0  0  0  0  0
    7.6892  -16.7604   21.5519 O   0  0  0  0  0  0  0  0  0  0  0  0
   13.5378  -19.5413   21.1336 N   0  0  0  0  0  0  0  0  0  0  0  0
   12.2422  -19.5389   20.5623 C   0  0  0  0  0  0  0  0  0  0  0  0
   12.1001  -19.7075   19.3341 O   0  0  0  0  0  0  0  0  0  0  0  0
   11.0701  -19.3337   21.4306 C   0  0  0  0  0  0  0  0  0  0  0  0
   11.3057  -18.2082   22.3656 C   0  0  0  0  0  0  0  0  0  0  0  0
   10.0614  -17.4229   22.7500 C   0  0  2  0  0  0  0  0  0  0  0  0
    9.9457  -16.4144   21.6824 N   0  0  0  0  0  0  0  0  0  0  0  0
   10.2425  -16.6998   24.0178 C   0  0  0  0  0  0  0  0  0  0  0  0
   10.9164  -15.6463   24.0278 O   0  0  0  0  0  0  0  0  0  0  0  0
    9.6760  -17.1630   25.2173 N   0  0  0  0  0  0  0  0  0  0  0  0
    9.9314  -16.4408   26.4954 C   0  0  1  0  0  0  0  0  0  0  0  0
    8.5954  -16.3870   27.1553 C   0  0  0  0  0  0  0  0  0  0  0  0
    7.6533  -15.4728   26.4914 C   0  0  0  0  0  0  0  0  0  0  0  0
    6.5917  -15.8191   25.6501 C   0  0  0  0  0  0  0  0  0  0  0  0
    5.9889  -14.7059   25.2151 N   0  0  0  0  0  0  0  0  0  0  0  0
    6.5806  -13.6158   25.7142 C   0  0  0  0  0  0  0  0  0  0  0  0
    6.3502  -12.2546   25.6002 C   0  0  0  0  0  0  0  0  0  0  0  0
    7.1582  -11.3764   26.2840 C   0  0  0  0  0  0  0  0  0  0  0  0
    8.1875  -11.8131   27.0770 C   0  0  0  0  0  0  0  0  0  0  0  0
    8.4029  -13.1692   27.1785 C   0  0  0  0  0  0  0  0  0  0  0  0
    7.6258  -14.0853   26.5164 C   0  0  0  0  0  0  0  0  0  0  0  0
   11.0080  -17.1368   27.1747 C   0  0  0  0  0  0  0  0  0  0  0  0
   11.4662  -16.8036   28.3125 O   0  0  0  0  0  0  0  0  0  0  0  0
   11.6211  -18.2491   26.6088 O   0  0  0  0  0  0  0  0  0  0  0  0
  1  2  1  0
  2  4  1  0
  2  3  2  0
  5  4  1  0
  5  6  1  6
  7  8  2  0
  7  5  1  0
 10 11  2  0
 10  9  1  0
 12 10  1  0
 13 12  1  0
 14 13  1  6
 14 15  1  0
 15  7  1  0
 16 17  2  0
 16 14  1  0
 18 16  1  0
 19 30  1  0
 19 18  1  0
 19 20  1  1
 21 20  1  0
 22 21  2  0
 23 22  1  0
 24 23  1  0
 24 29  2  0
 25 24  1  0
 26 25  2  0
 26 27  1  0
 27 28  2  0
 28 29  1  0
 29 21  1  0
 30 32  1  0
 31 30  2  0
M  END
$$$$
