NQW.pdb
     RDKit          3D

 32 33  0  0  1  0  0  0  0  0999 V2000
   13.0348  -20.8598   20.4557 N   0  0  0  0  0  0  0  0  0  0  0  0
   12.1654  -20.5891   21.5314 C   0  0  0  0  0  0  0  0  0  0  0  0
   12.4073  -21.0648   22.6528 O   0  0  0  0  0  0  0  0  0  0  0  0
   10.9816  -19.7475   21.3171 C   0  0  0  0  0  0  0  0  0  0  0  0
    9.7512  -20.5924   21.5270 C   0  0  2  0  0  0  0  0  0  0  0  0
    9.4068  -21.3329   20.3300 N   0  0  0  0  0  0  0  0  0  0  0  0
    8.6433  -19.7160   21.9549 C   0  0  0  0  0  0  0  0  0  0  0  0
    7.9711  -19.0095   21.1740 O   0  0  0  0  0  0  0  0  0  0  0  0
    6.0470  -21.4917   27.1917 N   0  0  0  0  0  0  0  0  0  0  0  0
    6.2819  -21.7802   25.8256 C   0  0  0  0  0  0  0  0  0  0  0  0
    6.7598  -22.8838   25.4928 O   0  0  0  0  0  0  0  0  0  0  0  0
    5.9591  -20.7661   24.8071 C   0  0  0  0  0  0  0  0  0  0  0  0
    6.7264  -19.5217   25.0502 C   0  0  0  0  0  0  0  0  0  0  0  0
    7.2215  -18.8184   23.7960 C   0  0  2  0  0  0  0  0  0  0  0  0
    8.3261  -19.6757   23.3323 N   0  0  0  0  0  0  0  0  0  0  0  0
    7.7908  -17.4969   24.1001 C   0  0  0  0  0  0  0  0  0  0  0  0
    7.0199  -16.5390   24.3287 O   0  0  0  0  0  0  0  0  0  0  0  0
    9.1792  -17.2847   24.1409 N   0  0  0  0  0  0  0  0  0  0  0  0
    9.7224  -15.9260   24.4226 C   0  0  1  0  0  0  0  0  0  0  0  0
    9.3397  -15.6688   25.8406 C   0  0  0  0  0  0  0  0  0  0  0  0
    8.0042  -15.0690   25.9848 C   0  0  0  0  0  0  0  0  0  0  0  0
    6.7773  -15.7385   26.0212 C   0  0  0  0  0  0  0  0  0  0  0  0
    5.7869  -14.8444   26.1269 N   0  0  0  0  0  0  0  0  0  0  0  0
    6.2700  -13.5983   26.1654 C   0  0  0  0  0  0  0  0  0  0  0  0
    5.6953  -12.3433   26.2829 C   0  0  0  0  0  0  0  0  0  0  0  0
    6.5061  -11.2328   26.3128 C   0  0  0  0  0  0  0  0  0  0  0  0
    7.8706  -11.3348   26.2292 C   0  0  0  0  0  0  0  0  0  0  0  0
    8.4250  -12.5896   26.1121 C   0  0  0  0  0  0  0  0  0  0  0  0
    7.6599  -13.7276   26.0771 C   0  0  0  0  0  0  0  0  0  0  0  0
   11.1326  -15.9479   24.0826 C   0  0  0  0  0  0  0  0  0  0  0  0
   11.8922  -14.9298   24.1258 O   0  0  0  0  0  0  0  0  0  0  0  0
   11.7620  -17.1209   23.6810 O   0  0  0  0  0  0  0  0  0  0  0  0
  1  2  1  0
  2  4  1  0
  2  3  2  0
  5  4  1  0
  5  6  1  6
  7  8  2  0
  7  5  1  0
 10 11  2  0
 10  9  1  0
 12 10  1  0
 13 12  1  0
 14 13  1  1
 14 15  1  0
 15  7  1  0
 16 17  2  0
 16 14  1  0
 18 16  1  0
 19 30  1  0
 19 18  1  0
 19 20  1  1
 21 20  1  0
 22 21  2  0
 23 22  1  0
 24 23  1  0
 24 29  2  0
 25 24  1  0
 26 25  2  0
 26 27  1  0
 27 28  2  0
 28 29  1  0
 29 21  1  0
 30 32  1  0
 31 30  2  0
M  END
$$$$
