NQW.pdb
     RDKit          3D

 32 33  0  0  1  0  0  0  0  0999 V2000
   10.3960  -14.0826   17.7548 N   0  0  0  0  0  0  0  0  0  0  0  0
    9.1112  -13.7523   18.2303 C   0  0  0  0  0  0  0  0  0  0  0  0
    8.4276  -12.9118   17.6231 O   0  0  0  0  0  0  0  0  0  0  0  0
    8.5919  -14.4041   19.4391 C   0  0  0  0  0  0  0  0  0  0  0  0
    8.2265  -15.8253   19.0953 C   0  0  2  0  0  0  0  0  0  0  0  0
    7.1383  -15.8761   18.1398 N   0  0  0  0  0  0  0  0  0  0  0  0
    7.8829  -16.5394   20.3405 C   0  0  0  0  0  0  0  0  0  0  0  0
    6.7132  -16.7888   20.7017 O   0  0  0  0  0  0  0  0  0  0  0  0
   10.4035  -21.3848   20.6624 N   0  0  0  0  0  0  0  0  0  0  0  0
    9.0137  -21.1364   20.5548 C   0  0  0  0  0  0  0  0  0  0  0  0
    8.2335  -22.0647   20.2605 O   0  0  0  0  0  0  0  0  0  0  0  0
    8.5027  -19.7752   20.7910 C   0  0  0  0  0  0  0  0  0  0  0  0
    9.1648  -19.1679   21.9697 C   0  0  0  0  0  0  0  0  0  0  0  0
    8.6482  -17.7910   22.3567 C   0  0  2  0  0  0  0  0  0  0  0  0
    8.9436  -16.9657   21.1727 N   0  0  0  0  0  0  0  0  0  0  0  0
    9.4008  -17.2230   23.4853 C   0  0  0  0  0  0  0  0  0  0  0  0
   10.5306  -16.7287   23.2775 O   0  0  0  0  0  0  0  0  0  0  0  0
    8.8811  -17.2214   24.7908 N   0  0  0  0  0  0  0  0  0  0  0  0
    9.6760  -16.6492   25.9138 C   0  0  1  0  0  0  0  0  0  0  0  0
    8.6475  -16.2124   26.9011 C   0  0  0  0  0  0  0  0  0  0  0  0
    7.6296  -15.3192   26.3266 C   0  0  0  0  0  0  0  0  0  0  0  0
    6.4343  -15.6910   25.7041 C   0  0  0  0  0  0  0  0  0  0  0  0
    5.7940  -14.5941   25.2818 N   0  0  0  0  0  0  0  0  0  0  0  0
    6.4867  -13.4908   25.5824 C   0  0  0  0  0  0  0  0  0  0  0  0
    6.2730  -12.1352   25.3931 C   0  0  0  0  0  0  0  0  0  0  0  0
    7.2048  -11.2365   25.8575 C   0  0  0  0  0  0  0  0  0  0  0  0
    8.3416  -11.6472   26.5041 C   0  0  0  0  0  0  0  0  0  0  0  0
    8.5385  -12.9980   26.6832 C   0  0  0  0  0  0  0  0  0  0  0  0
    7.6398  -13.9340   26.2382 C   0  0  0  0  0  0  0  0  0  0  0  0
   10.6355  -17.6589   26.3194 C   0  0  0  0  0  0  0  0  0  0  0  0
   10.5602  -18.8854   25.9944 O   0  0  0  0  0  0  0  0  0  0  0  0
   11.7341  -17.3375   27.1089 O   0  0  0  0  0  0  0  0  0  0  0  0
  1  2  1  0
  2  4  1  0
  2  3  2  0
  5  4  1  0
  5  6  1  6
  7  8  2  0
  7  5  1  0
 10 11  2  0
 10  9  1  0
 12 10  1  0
 13 12  1  0
 14 13  1  6
 14 15  1  0
 15  7  1  0
 16 17  2  0
 16 14  1  0
 18 16  1  0
 19 30  1  0
 19 18  1  0
 19 20  1  1
 21 20  1  0
 22 21  2  0
 23 22  1  0
 24 23  1  0
 24 29  2  0
 25 24  1  0
 26 25  2  0
 26 27  1  0
 27 28  2  0
 28 29  1  0
 29 21  1  0
 30 32  1  0
 31 30  2  0
M  END
$$$$
