NQW.pdb
     RDKit          3D

 32 33  0  0  1  0  0  0  0  0999 V2000
    7.8718  -12.8011   16.3309 N   0  0  0  0  0  0  0  0  0  0  0  0
    7.6440  -14.1911   16.3776 C   0  0  0  0  0  0  0  0  0  0  0  0
    6.6705  -14.6757   15.7777 O   0  0  0  0  0  0  0  0  0  0  0  0
    8.5590  -15.0542   17.1349 C   0  0  0  0  0  0  0  0  0  0  0  0
    8.2243  -14.9355   18.5996 C   0  0  2  0  0  0  0  0  0  0  0  0
    8.4067  -13.5794   19.0764 N   0  0  0  0  0  0  0  0  0  0  0  0
    9.0615  -15.8884   19.3545 C   0  0  0  0  0  0  0  0  0  0  0  0
    9.0117  -17.1282   19.2089 O   0  0  0  0  0  0  0  0  0  0  0  0
   14.3627  -15.1774   18.6814 N   0  0  0  0  0  0  0  0  0  0  0  0
   13.9083  -14.5609   19.8723 C   0  0  0  0  0  0  0  0  0  0  0  0
   14.7061  -13.9257   20.5914 O   0  0  0  0  0  0  0  0  0  0  0  0
   12.4899  -14.6798   20.2516 C   0  0  0  0  0  0  0  0  0  0  0  0
   12.1850  -16.0591   20.7001 C   0  0  0  0  0  0  0  0  0  0  0  0
   10.7489  -16.2853   21.1467 C   0  0  2  0  0  0  0  0  0  0  0  0
    9.9740  -15.3633   20.2985 N   0  0  0  0  0  0  0  0  0  0  0  0
   10.5407  -15.8750   22.5435 C   0  0  0  0  0  0  0  0  0  0  0  0
   10.8405  -14.7107   22.8880 O   0  0  0  0  0  0  0  0  0  0  0  0
   10.0124  -16.7586   23.4998 N   0  0  0  0  0  0  0  0  0  0  0  0
    9.9014  -16.3414   24.9260 C   0  0  1  0  0  0  0  0  0  0  0  0
    8.4396  -16.4106   25.2118 C   0  0  0  0  0  0  0  0  0  0  0  0
    7.7070  -15.2029   24.8009 C   0  0  0  0  0  0  0  0  0  0  0  0
    7.1418  -14.9433   23.5488 C   0  0  0  0  0  0  0  0  0  0  0  0
    6.5917  -13.7230   23.5547 N   0  0  0  0  0  0  0  0  0  0  0  0
    6.7493  -13.1334   24.7443 C   0  0  0  0  0  0  0  0  0  0  0  0
    6.3667  -11.9123   25.2748 C   0  0  0  0  0  0  0  0  0  0  0  0
    6.6800  -11.6192   26.5815 C   0  0  0  0  0  0  0  0  0  0  0  0
    7.3622  -12.5050   27.3747 C   0  0  0  0  0  0  0  0  0  0  0  0
    7.7355  -13.7137   26.8312 C   0  0  0  0  0  0  0  0  0  0  0  0
    7.4476  -14.0531   25.5337 C   0  0  0  0  0  0  0  0  0  0  0  0
   10.7943  -17.1897   25.6928 C   0  0  0  0  0  0  0  0  0  0  0  0
   11.4443  -18.1665   25.2040 O   0  0  0  0  0  0  0  0  0  0  0  0
   11.0055  -16.9776   27.0506 O   0  0  0  0  0  0  0  0  0  0  0  0
  1  2  1  0
  2  4  1  0
  2  3  2  0
  5  4  1  0
  5  6  1  1
  7  8  2  0
  7  5  1  0
 10 11  2  0
 10  9  1  0
 12 10  1  0
 13 12  1  0
 14 13  1  6
 14 15  1  0
 15  7  1  0
 16 17  2  0
 16 14  1  0
 18 16  1  0
 19 30  1  0
 19 18  1  0
 19 20  1  1
 21 20  1  0
 22 21  2  0
 23 22  1  0
 24 23  1  0
 24 29  2  0
 25 24  1  0
 26 25  2  0
 26 27  1  0
 27 28  2  0
 28 29  1  0
 29 21  1  0
 30 32  1  0
 31 30  2  0
M  END
$$$$
