NQW.pdb
     RDKit          3D

 32 33  0  0  1  0  0  0  0  0999 V2000
    8.6893  -15.7870   16.2411 N   0  0  0  0  0  0  0  0  0  0  0  0
    7.7199  -16.7760   16.5026 C   0  0  0  0  0  0  0  0  0  0  0  0
    6.9654  -17.1543   15.5916 O   0  0  0  0  0  0  0  0  0  0  0  0
    7.6101  -17.3503   17.8494 C   0  0  0  0  0  0  0  0  0  0  0  0
    8.4840  -16.5510   18.7816 C   0  0  2  0  0  0  0  0  0  0  0  0
    9.8877  -16.7110   18.4592 N   0  0  0  0  0  0  0  0  0  0  0  0
    8.1999  -16.9673   20.1690 C   0  0  0  0  0  0  0  0  0  0  0  0
    7.0705  -16.9026   20.6993 O   0  0  0  0  0  0  0  0  0  0  0  0
   10.7057  -21.9264   21.5371 N   0  0  0  0  0  0  0  0  0  0  0  0
   11.6139  -20.8425   21.6095 C   0  0  0  0  0  0  0  0  0  0  0  0
   12.8417  -21.0488   21.5265 O   0  0  0  0  0  0  0  0  0  0  0  0
   11.0944  -19.4753   21.7852 C   0  0  0  0  0  0  0  0  0  0  0  0
    9.6392  -19.5034   22.0647 C   0  0  0  0  0  0  0  0  0  0  0  0
    8.9905  -18.1371   22.2240 C   0  0  2  0  0  0  0  0  0  0  0  0
    9.2725  -17.4691   20.9417 N   0  0  0  0  0  0  0  0  0  0  0  0
    9.6373  -17.3459   23.2816 C   0  0  0  0  0  0  0  0  0  0  0  0
   10.6419  -16.6566   22.9992 O   0  0  0  0  0  0  0  0  0  0  0  0
    9.1535  -17.3447   24.6008 N   0  0  0  0  0  0  0  0  0  0  0  0
    9.8483  -16.5517   25.6538 C   0  0  1  0  0  0  0  0  0  0  0  0
    8.7883  -16.2884   26.6688 C   0  0  0  0  0  0  0  0  0  0  0  0
    7.6681  -15.4892   26.1485 C   0  0  0  0  0  0  0  0  0  0  0  0
    6.4586  -15.9653   25.6339 C   0  0  0  0  0  0  0  0  0  0  0  0
    5.7109  -14.9313   25.2292 N   0  0  0  0  0  0  0  0  0  0  0  0
    6.3437  -13.7726   25.4399 C   0  0  0  0  0  0  0  0  0  0  0  0
    6.0196  -12.4428   25.2258 C   0  0  0  0  0  0  0  0  0  0  0  0
    6.9172  -11.4655   25.5873 C   0  0  0  0  0  0  0  0  0  0  0  0
    8.1265  -11.7728   26.1551 C   0  0  0  0  0  0  0  0  0  0  0  0
    8.4328  -13.0993   26.3601 C   0  0  0  0  0  0  0  0  0  0  0  0
    7.5723  -14.1108   26.0165 C   0  0  0  0  0  0  0  0  0  0  0  0
   11.0182  -17.3079   26.0595 C   0  0  0  0  0  0  0  0  0  0  0  0
   11.2242  -18.5232   25.7498 O   0  0  0  0  0  0  0  0  0  0  0  0
   12.0204  -16.7312   26.8319 O   0  0  0  0  0  0  0  0  0  0  0  0
  1  2  1  0
  2  4  1  0
  2  3  2  0
  5  4  1  0
  5  6  1  6
  7  8  2  0
  7  5  1  0
 10 11  2  0
 10  9  1  0
 12 10  1  0
 13 12  1  0
 14 13  1  6
 14 15  1  0
 15  7  1  0
 16 17  2  0
 16 14  1  0
 18 16  1  0
 19 30  1  0
 19 18  1  0
 19 20  1  1
 21 20  1  0
 22 21  2  0
 23 22  1  0
 24 23  1  0
 24 29  2  0
 25 24  1  0
 26 25  2  0
 26 27  1  0
 27 28  2  0
 28 29  1  0
 29 21  1  0
 30 32  1  0
 31 30  2  0
M  END
$$$$
