NQW.pdb
     RDKit          3D

 32 33  0  0  1  0  0  0  0  0999 V2000
   11.4414  -20.6036   18.7889 N   0  0  0  0  0  0  0  0  0  0  0  0
   10.9461  -19.6283   17.9002 C   0  0  0  0  0  0  0  0  0  0  0  0
   11.1688  -19.7351   16.6830 O   0  0  0  0  0  0  0  0  0  0  0  0
   10.1717  -18.4948   18.4206 C   0  0  0  0  0  0  0  0  0  0  0  0
   10.2134  -18.5397   19.9266 C   0  0  2  0  0  0  0  0  0  0  0  0
    9.0206  -19.1563   20.4713 N   0  0  0  0  0  0  0  0  0  0  0  0
   10.3892  -17.1654   20.4358 C   0  0  0  0  0  0  0  0  0  0  0  0
   11.4510  -16.5148   20.3356 O   0  0  0  0  0  0  0  0  0  0  0  0
    5.8427  -17.4278   21.8291 N   0  0  0  0  0  0  0  0  0  0  0  0
    6.4132  -16.3629   21.0906 C   0  0  0  0  0  0  0  0  0  0  0  0
    6.5238  -16.4505   19.8508 O   0  0  0  0  0  0  0  0  0  0  0  0
    6.8743  -15.1571   21.8002 C   0  0  0  0  0  0  0  0  0  0  0  0
    8.0384  -14.5579   21.1059 C   0  0  0  0  0  0  0  0  0  0  0  0
    9.3874  -15.1426   21.4947 C   0  0  2  0  0  0  0  0  0  0  0  0
    9.2875  -16.5511   21.0748 N   0  0  0  0  0  0  0  0  0  0  0  0
    9.5868  -15.1331   22.9518 C   0  0  0  0  0  0  0  0  0  0  0  0
    9.7186  -14.0384   23.5419 O   0  0  0  0  0  0  0  0  0  0  0  0
    9.6318  -16.3236   23.6968 N   0  0  0  0  0  0  0  0  0  0  0  0
   10.0099  -16.2928   25.1378 C   0  0  1  0  0  0  0  0  0  0  0  0
    8.7843  -16.7632   25.8449 C   0  0  0  0  0  0  0  0  0  0  0  0
    7.6895  -15.7808   25.8311 C   0  0  0  0  0  0  0  0  0  0  0  0
    6.3757  -15.9865   25.3994 C   0  0  0  0  0  0  0  0  0  0  0  0
    5.6884  -14.8432   25.5092 N   0  0  0  0  0  0  0  0  0  0  0  0
    6.4612  -13.8656   25.9936 C   0  0  0  0  0  0  0  0  0  0  0  0
    6.2487  -12.5333   26.3084 C   0  0  0  0  0  0  0  0  0  0  0  0
    7.2851  -11.7909   26.8243 C   0  0  0  0  0  0  0  0  0  0  0  0
    8.5254  -12.3352   27.0358 C   0  0  0  0  0  0  0  0  0  0  0  0
    8.7194  -13.6604   26.7168 C   0  0  0  0  0  0  0  0  0  0  0  0
    7.7185  -14.4428   26.1992 C   0  0  0  0  0  0  0  0  0  0  0  0
   11.2276  -17.0687   25.2793 C   0  0  0  0  0  0  0  0  0  0  0  0
   11.8116  -17.6605   24.3180 O   0  0  0  0  0  0  0  0  0  0  0  0
   11.8542  -17.2134   26.5122 O   0  0  0  0  0  0  0  0  0  0  0  0
  1  2  1  0
  2  4  1  0
  2  3  2  0
  5  4  1  0
  5  6  1  1
  7  8  2  0
  7  5  1  0
 10 11  2  0
 10  9  1  0
 12 10  1  0
 13 12  1  0
 14 13  1  1
 14 15  1  0
 15  7  1  0
 16 17  2  0
 16 14  1  0
 18 16  1  0
 19 30  1  0
 19 18  1  0
 19 20  1  1
 21 20  1  0
 22 21  2  0
 23 22  1  0
 24 23  1  0
 24 29  2  0
 25 24  1  0
 26 25  2  0
 26 27  1  0
 27 28  2  0
 28 29  1  0
 29 21  1  0
 30 32  1  0
 31 30  2  0
M  END
$$$$
