NQW.pdb
     RDKit          3D

 32 33  0  0  1  0  0  0  0  0999 V2000
    6.7980  -13.0114   18.6497 N   0  0  0  0  0  0  0  0  0  0  0  0
    7.1882  -14.3552   18.4816 C   0  0  0  0  0  0  0  0  0  0  0  0
    6.3972  -15.2668   18.7744 O   0  0  0  0  0  0  0  0  0  0  0  0
    8.5258  -14.6658   17.9622 C   0  0  0  0  0  0  0  0  0  0  0  0
    9.5297  -14.4391   19.0633 C   0  0  2  0  0  0  0  0  0  0  0  0
   10.8879  -14.4939   18.5612 N   0  0  0  0  0  0  0  0  0  0  0  0
    9.3062  -15.4443   20.1209 C   0  0  0  0  0  0  0  0  0  0  0  0
    8.2256  -15.5856   20.7319 O   0  0  0  0  0  0  0  0  0  0  0  0
   13.4087  -20.7247   22.2023 N   0  0  0  0  0  0  0  0  0  0  0  0
   12.1431  -20.5857   21.5828 C   0  0  0  0  0  0  0  0  0  0  0  0
   11.8278  -21.3283   20.6309 O   0  0  0  0  0  0  0  0  0  0  0  0
   11.2084  -19.5574   22.0718 C   0  0  0  0  0  0  0  0  0  0  0  0
   11.2101  -18.3815   21.1698 C   0  0  0  0  0  0  0  0  0  0  0  0
   10.2023  -17.2994   21.5253 C   0  0  2  0  0  0  0  0  0  0  0  0
   10.3817  -16.2970   20.4608 N   0  0  0  0  0  0  0  0  0  0  0  0
   10.5301  -16.6464   22.8016 C   0  0  0  0  0  0  0  0  0  0  0  0
   11.3915  -15.7399   22.8190 O   0  0  0  0  0  0  0  0  0  0  0  0
    9.8985  -17.0154   24.0013 N   0  0  0  0  0  0  0  0  0  0  0  0
   10.2021  -16.2851   25.2642 C   0  0  1  0  0  0  0  0  0  0  0  0
    9.7166  -14.8988   25.0076 C   0  0  0  0  0  0  0  0  0  0  0  0
    8.3383  -14.6689   25.4677 C   0  0  0  0  0  0  0  0  0  0  0  0
    7.2635  -15.5599   25.3931 C   0  0  0  0  0  0  0  0  0  0  0  0
    6.1652  -14.9722   25.8830 N   0  0  0  0  0  0  0  0  0  0  0  0
    6.4306  -13.7266   26.2898 C   0  0  0  0  0  0  0  0  0  0  0  0
    5.6777  -12.7202   26.8724 C   0  0  0  0  0  0  0  0  0  0  0  0
    6.2836  -11.5284   27.1952 C   0  0  0  0  0  0  0  0  0  0  0  0
    7.6154  -11.3094   26.9553 C   0  0  0  0  0  0  0  0  0  0  0  0
    8.3486  -12.3200   26.3751 C   0  0  0  0  0  0  0  0  0  0  0  0
    7.7910  -13.5260   26.0340 C   0  0  0  0  0  0  0  0  0  0  0  0
    9.6005  -17.0359   26.3501 C   0  0  0  0  0  0  0  0  0  0  0  0
    8.8174  -18.0235   26.1860 O   0  0  0  0  0  0  0  0  0  0  0  0
    9.8550  -16.7158   27.6791 O   0  0  0  0  0  0  0  0  0  0  0  0
  1  2  1  0
  2  4  1  0
  2  3  2  0
  5  4  1  0
  5  6  1  6
  7  8  2  0
  7  5  1  0
 10 11  2  0
 10  9  1  0
 12 10  1  0
 13 12  1  0
 14 13  1  6
 14 15  1  0
 15  7  1  0
 16 17  2  0
 16 14  1  0
 18 16  1  0
 19 30  1  0
 19 18  1  0
 19 20  1  6
 21 20  1  0
 22 21  2  0
 23 22  1  0
 24 23  1  0
 24 29  2  0
 25 24  1  0
 26 25  2  0
 26 27  1  0
 27 28  2  0
 28 29  1  0
 29 21  1  0
 30 32  1  0
 31 30  2  0
M  END
$$$$
