NQW.pdb
     RDKit          3D

 32 33  0  0  1  0  0  0  0  0999 V2000
    8.2176  -17.1405   15.2052 N   0  0  0  0  0  0  0  0  0  0  0  0
    7.3384  -16.9207   16.2845 C   0  0  0  0  0  0  0  0  0  0  0  0
    6.2606  -16.3347   16.0907 O   0  0  0  0  0  0  0  0  0  0  0  0
    7.7039  -17.3861   17.6281 C   0  0  0  0  0  0  0  0  0  0  0  0
    8.5812  -16.3433   18.2720 C   0  0  2  0  0  0  0  0  0  0  0  0
    9.7634  -16.0810   17.4761 N   0  0  0  0  0  0  0  0  0  0  0  0
    8.9371  -16.7983   19.6303 C   0  0  0  0  0  0  0  0  0  0  0  0
    8.1056  -16.9852   20.5438 O   0  0  0  0  0  0  0  0  0  0  0  0
   14.6606  -19.0865   20.9388 N   0  0  0  0  0  0  0  0  0  0  0  0
   13.7908  -19.3132   19.8448 C   0  0  0  0  0  0  0  0  0  0  0  0
   14.2418  -19.7544   18.7683 O   0  0  0  0  0  0  0  0  0  0  0  0
   12.3544  -19.0212   19.9913 C   0  0  0  0  0  0  0  0  0  0  0  0
   12.1365  -17.9904   21.0337 C   0  0  0  0  0  0  0  0  0  0  0  0
   10.6875  -17.5720   21.2286 C   0  0  2  0  0  0  0  0  0  0  0  0
   10.3023  -17.0363   19.9115 N   0  0  0  0  0  0  0  0  0  0  0  0
   10.5621  -16.4758   22.2009 C   0  0  0  0  0  0  0  0  0  0  0  0
   10.5094  -15.2968   21.7870 O   0  0  0  0  0  0  0  0  0  0  0  0
   10.4990  -16.7208   23.5831 N   0  0  0  0  0  0  0  0  0  0  0  0
    9.7159  -15.8154   24.4704 C   0  0  1  0  0  0  0  0  0  0  0  0
    8.4341  -15.6080   23.7374 C   0  0  0  0  0  0  0  0  0  0  0  0
    7.4108  -14.9158   24.5360 C   0  0  0  0  0  0  0  0  0  0  0  0
    6.1617  -15.4121   24.9210 C   0  0  0  0  0  0  0  0  0  0  0  0
    5.5034  -14.4714   25.6091 N   0  0  0  0  0  0  0  0  0  0  0  0
    6.2353  -13.3577   25.7165 C   0  0  0  0  0  0  0  0  0  0  0  0
    6.0392  -12.1285   26.3245 C   0  0  0  0  0  0  0  0  0  0  0  0
    7.0343  -11.1812   26.2622 C   0  0  0  0  0  0  0  0  0  0  0  0
    8.2176  -11.4214   25.6131 C   0  0  0  0  0  0  0  0  0  0  0  0
    8.3957  -12.6480   25.0137 C   0  0  0  0  0  0  0  0  0  0  0  0
    7.4338  -13.6255   25.0470 C   0  0  0  0  0  0  0  0  0  0  0  0
    9.6675  -16.4347   25.7815 C   0  0  0  0  0  0  0  0  0  0  0  0
    9.5022  -15.7942   26.8668 O   0  0  0  0  0  0  0  0  0  0  0  0
    9.7976  -17.8103   25.9372 O   0  0  0  0  0  0  0  0  0  0  0  0
  1  2  1  0
  2  4  1  0
  2  3  2  0
  5  4  1  0
  5  6  1  6
  7  8  2  0
  7  5  1  0
 10 11  2  0
 10  9  1  0
 12 10  1  0
 13 12  1  0
 14 13  1  6
 14 15  1  0
 15  7  1  0
 16 17  2  0
 16 14  1  0
 18 16  1  0
 19 30  1  0
 19 18  1  0
 19 20  1  6
 21 20  1  0
 22 21  2  0
 23 22  1  0
 24 23  1  0
 24 29  2  0
 25 24  1  0
 26 25  2  0
 26 27  1  0
 27 28  2  0
 28 29  1  0
 29 21  1  0
 30 32  1  0
 31 30  2  0
M  END
$$$$
