NQW.pdb
     RDKit          3D

 32 33  0  0  1  0  0  0  0  0999 V2000
    8.6820  -11.9893   16.7675 N   0  0  0  0  0  0  0  0  0  0  0  0
    8.3200  -13.3507   16.8104 C   0  0  0  0  0  0  0  0  0  0  0  0
    8.4670  -14.0586   15.8006 O   0  0  0  0  0  0  0  0  0  0  0  0
    7.7723  -13.9202   18.0478 C   0  0  0  0  0  0  0  0  0  0  0  0
    8.8778  -14.6490   18.7678 C   0  0  2  0  0  0  0  0  0  0  0  0
    9.3819  -15.7566   17.9811 N   0  0  0  0  0  0  0  0  0  0  0  0
    8.3690  -15.1058   20.0760 C   0  0  0  0  0  0  0  0  0  0  0  0
    7.9337  -14.3395   20.9614 O   0  0  0  0  0  0  0  0  0  0  0  0
    6.3523  -20.8215   21.8006 N   0  0  0  0  0  0  0  0  0  0  0  0
    5.7232  -19.9754   20.8555 C   0  0  0  0  0  0  0  0  0  0  0  0
    4.6603  -20.3315   20.3073 O   0  0  0  0  0  0  0  0  0  0  0  0
    6.3368  -18.6771   20.5270 C   0  0  0  0  0  0  0  0  0  0  0  0
    7.5465  -18.4495   21.3524 C   0  0  0  0  0  0  0  0  0  0  0  0
    7.8672  -16.9892   21.6309 C   0  0  2  0  0  0  0  0  0  0  0  0
    8.3762  -16.4950   20.3398 N   0  0  0  0  0  0  0  0  0  0  0  0
    8.9525  -16.8465   22.6130 C   0  0  0  0  0  0  0  0  0  0  0  0
   10.1349  -17.0201   22.2445 O   0  0  0  0  0  0  0  0  0  0  0  0
    8.6934  -16.5191   23.9547 N   0  0  0  0  0  0  0  0  0  0  0  0
    9.7980  -16.5241   24.9548 C   0  0  1  0  0  0  0  0  0  0  0  0
    9.6524  -15.2202   25.6632 C   0  0  0  0  0  0  0  0  0  0  0  0
    8.2541  -14.8670   25.9535 C   0  0  0  0  0  0  0  0  0  0  0  0
    7.2163  -15.7392   26.2951 C   0  0  0  0  0  0  0  0  0  0  0  0
    6.0833  -15.0428   26.4470 N   0  0  0  0  0  0  0  0  0  0  0  0
    6.2900  -13.7402   26.2283 C   0  0  0  0  0  0  0  0  0  0  0  0
    5.4836  -12.6145   26.2695 C   0  0  0  0  0  0  0  0  0  0  0  0
    6.0346  -11.3827   26.0040 C   0  0  0  0  0  0  0  0  0  0  0  0
    7.3634  -11.2388   25.6991 C   0  0  0  0  0  0  0  0  0  0  0  0
    8.1502  -12.3679   25.6618 C   0  0  0  0  0  0  0  0  0  0  0  0
    7.6484  -13.6186   25.9181 C   0  0  0  0  0  0  0  0  0  0  0  0
    9.6729  -17.7458   25.7273 C   0  0  0  0  0  0  0  0  0  0  0  0
    8.6481  -18.4975   25.7113 O   0  0  0  0  0  0  0  0  0  0  0  0
   10.6996  -18.1870   26.5547 O   0  0  0  0  0  0  0  0  0  0  0  0
  1  2  1  0
  2  4  1  0
  2  3  2  0
  5  4  1  0
  5  6  1  6
  7  8  2  0
  7  5  1  0
 10 11  2  0
 10  9  1  0
 12 10  1  0
 13 12  1  0
 14 13  1  6
 14 15  1  0
 15  7  1  0
 16 17  2  0
 16 14  1  0
 18 16  1  0
 19 30  1  0
 19 18  1  0
 19 20  1  1
 21 20  1  0
 22 21  2  0
 23 22  1  0
 24 23  1  0
 24 29  2  0
 25 24  1  0
 26 25  2  0
 26 27  1  0
 27 28  2  0
 28 29  1  0
 29 21  1  0
 30 32  1  0
 31 30  2  0
M  END
$$$$
