LGD.pdb
     RDKit          3D

 21 20  0  0  1  0  0  0  0  0999 V2000
   26.4679  -15.1301  -17.3594 C   0  0  0  0  0  0  0  0  0  0  0  0
   25.8824  -15.0100  -15.9539 C   0  0  2  0  0  0  0  0  0  0  0  0
   26.4728  -13.8032  -15.3205 C   0  0  0  0  0  0  0  0  0  0  0  0
   26.1035  -16.3177  -15.2672 C   0  0  0  0  0  0  0  0  0  0  0  0
   25.5705  -17.5191  -15.9276 C   0  0  2  0  0  0  0  0  0  0  0  0
   24.1680  -17.4669  -16.1607 N   0  0  0  0  0  0  0  0  0  0  0  0
   25.9424  -18.7928  -15.2726 C   0  0  0  0  0  0  0  0  0  0  0  0
   27.1424  -18.9626  -14.9478 O   0  0  0  0  0  0  0  0  0  0  0  0
   24.9651  -19.7790  -15.0263 N   0  0  0  0  0  0  0  0  0  0  0  0
   25.2579  -20.9992  -14.3140 C   0  0  0  0  0  0  0  0  0  0  0  0
   23.9988  -21.5321  -13.7416 C   0  0  0  0  0  0  0  0  0  0  0  0
   23.9454  -22.5727  -13.0339 O   0  0  0  0  0  0  0  0  0  0  0  0
   22.7574  -20.8510  -13.9864 N   0  0  0  0  0  0  0  0  0  0  0  0
   21.4807  -21.4105  -13.5635 C   0  0  1  0  0  0  0  0  0  0  0  0
   20.5372  -20.2875  -13.1489 C   0  0  0  0  0  0  0  0  0  0  0  0
   20.4681  -19.3138  -14.2659 C   0  0  0  0  0  0  0  0  0  0  0  0
   21.2482  -19.3639  -15.2424 O   0  0  0  0  0  0  0  0  0  0  0  0
   20.8888  -22.1585  -14.7236 C   0  0  0  0  0  0  0  0  0  0  0  0
   21.3308  -22.0226  -15.8863 O   0  0  0  0  0  0  0  0  0  0  0  0
   19.5008  -18.2881  -14.2496 O   0  0  0  0  0  0  0  0  0  0  0  0
   19.8149  -23.0359  -14.5459 O   0  0  0  0  0  0  0  0  0  0  0  0
  2  1  1  6
  3  2  1  0
  4  2  1  0
  5  4  1  0
  5  6  1  1
  7  5  1  0
  7  8  2  0
  9  7  1  0
 10  9  1  0
 10 11  1  0
 11 13  1  0
 12 11  2  0
 13 14  1  0
 14 18  1  0
 14 15  1  6
 15 16  1  0
 16 20  1  0
 17 16  2  0
 18 19  2  0
 18 21  1  0
M  END
$$$$
