LGD.pdb
     RDKit          3D

 21 20  0  0  1  0  0  0  0  0999 V2000
   23.5486  -15.3100  -14.7104 C   0  0  0  0  0  0  0  0  0  0  0  0
   24.3318  -15.0762  -16.0007 C   0  0  2  0  0  0  0  0  0  0  0  0
   25.7725  -15.2697  -15.6956 C   0  0  0  0  0  0  0  0  0  0  0  0
   23.9209  -13.7433  -16.5346 C   0  0  0  0  0  0  0  0  0  0  0  0
   22.5034  -13.5717  -16.8877 C   0  0  2  0  0  0  0  0  0  0  0  0
   21.9991  -14.5961  -17.7363 N   0  0  0  0  0  0  0  0  0  0  0  0
   22.1649  -12.2357  -17.4267 C   0  0  0  0  0  0  0  0  0  0  0  0
   22.1544  -12.0858  -18.6723 O   0  0  0  0  0  0  0  0  0  0  0  0
   21.8645  -11.1704  -16.5530 N   0  0  0  0  0  0  0  0  0  0  0  0
   21.4898   -9.8606  -17.0283 C   0  0  0  0  0  0  0  0  0  0  0  0
   21.2620   -8.9759  -15.8612 C   0  0  0  0  0  0  0  0  0  0  0  0
   20.6756   -9.3510  -14.8115 O   0  0  0  0  0  0  0  0  0  0  0  0
   21.7212   -7.6146  -15.8953 N   0  0  0  0  0  0  0  0  0  0  0  0
   21.4250   -6.6794  -14.8186 C   0  0  1  0  0  0  0  0  0  0  0  0
   22.2645   -5.4182  -14.9851 C   0  0  0  0  0  0  0  0  0  0  0  0
   22.0437   -4.5626  -13.7935 C   0  0  0  0  0  0  0  0  0  0  0  0
   21.4421   -4.9769  -12.7782 O   0  0  0  0  0  0  0  0  0  0  0  0
   19.9677   -6.3240  -14.8932 C   0  0  0  0  0  0  0  0  0  0  0  0
   19.4108   -6.0635  -15.9830 O   0  0  0  0  0  0  0  0  0  0  0  0
   22.5169   -3.2344  -13.7806 O   0  0  0  0  0  0  0  0  0  0  0  0
   19.1773   -6.2678  -13.7414 O   0  0  0  0  0  0  0  0  0  0  0  0
  2  1  1  1
  3  2  1  0
  4  2  1  0
  5  4  1  0
  5  6  1  6
  7  5  1  0
  7  8  2  0
  9  7  1  0
 10  9  1  0
 10 11  1  0
 11 13  1  0
 12 11  2  0
 13 14  1  0
 14 18  1  0
 14 15  1  6
 15 16  1  0
 16 20  1  0
 17 16  2  0
 18 19  2  0
 18 21  1  0
M  END
$$$$
