LGD.pdb
     RDKit          3D

 21 20  0  0  1  0  0  0  0  0999 V2000
   18.0122  -13.1645  -16.7697 C   0  0  0  0  0  0  0  0  0  0  0  0
   17.6286  -11.7309  -17.1307 C   0  0  2  0  0  0  0  0  0  0  0  0
   16.6060  -11.7942  -18.2060 C   0  0  0  0  0  0  0  0  0  0  0  0
   18.8926  -10.9957  -17.4343 C   0  0  0  0  0  0  0  0  0  0  0  0
   19.9092  -10.9452  -16.3724 C   0  0  2  0  0  0  0  0  0  0  0  0
   19.4258  -10.4126  -15.1450 N   0  0  0  0  0  0  0  0  0  0  0  0
   21.1723  -10.2822  -16.7661 C   0  0  0  0  0  0  0  0  0  0  0  0
   21.7710  -10.7069  -17.7836 O   0  0  0  0  0  0  0  0  0  0  0  0
   21.6767   -9.2043  -16.0097 N   0  0  0  0  0  0  0  0  0  0  0  0
   22.7952   -8.4057  -16.4492 C   0  0  0  0  0  0  0  0  0  0  0  0
   22.5490   -6.9925  -16.0764 C   0  0  0  0  0  0  0  0  0  0  0  0
   23.1292   -6.0195  -16.6270 O   0  0  0  0  0  0  0  0  0  0  0  0
   21.6059   -6.6808  -15.0379 N   0  0  0  0  0  0  0  0  0  0  0  0
   21.2492   -5.3059  -14.7150 C   0  0  1  0  0  0  0  0  0  0  0  0
   19.7578   -5.2170  -14.4137 C   0  0  0  0  0  0  0  0  0  0  0  0
   19.0216   -5.4577  -15.6789 C   0  0  0  0  0  0  0  0  0  0  0  0
   19.2549   -4.8048  -16.7199 O   0  0  0  0  0  0  0  0  0  0  0  0
   22.0305   -4.8911  -13.5012 C   0  0  0  0  0  0  0  0  0  0  0  0
   21.9964   -3.7175  -13.0684 O   0  0  0  0  0  0  0  0  0  0  0  0
   18.0203   -6.4489  -15.7354 O   0  0  0  0  0  0  0  0  0  0  0  0
   22.8309   -5.8050  -12.8094 O   0  0  0  0  0  0  0  0  0  0  0  0
  2  1  1  6
  3  2  1  0
  4  2  1  0
  5  4  1  0
  5  6  1  1
  7  5  1  0
  7  8  2  0
  9  7  1  0
 10  9  1  0
 10 11  1  0
 11 13  1  0
 12 11  2  0
 13 14  1  0
 14 18  1  0
 14 15  1  1
 15 16  1  0
 16 20  1  0
 17 16  2  0
 18 19  2  0
 18 21  1  0
M  END
$$$$
