LGD.pdb
     RDKit          3D

 21 20  0  0  1  0  0  0  0  0999 V2000
   23.9499  -19.0310  -18.3706 C   0  0  0  0  0  0  0  0  0  0  0  0
   22.9844  -20.1431  -17.9658 C   0  0  2  0  0  0  0  0  0  0  0  0
   22.1592  -20.4792  -19.1542 C   0  0  0  0  0  0  0  0  0  0  0  0
   22.2622  -19.6813  -16.7428 C   0  0  0  0  0  0  0  0  0  0  0  0
   22.9703  -19.8072  -15.4598 C   0  0  2  0  0  0  0  0  0  0  0  0
   24.0500  -20.7329  -15.4928 N   0  0  0  0  0  0  0  0  0  0  0  0
   22.0911  -20.0740  -14.2997 C   0  0  0  0  0  0  0  0  0  0  0  0
   21.0965  -19.3287  -14.1277 O   0  0  0  0  0  0  0  0  0  0  0  0
   22.3752  -21.1395  -13.4208 N   0  0  0  0  0  0  0  0  0  0  0  0
   21.5426  -21.4489  -12.2838 C   0  0  0  0  0  0  0  0  0  0  0  0
   20.5320  -22.4538  -12.6910 C   0  0  0  0  0  0  0  0  0  0  0  0
   20.2999  -22.7557  -13.8916 O   0  0  0  0  0  0  0  0  0  0  0  0
   19.7601  -23.1377  -11.6903 N   0  0  0  0  0  0  0  0  0  0  0  0
   18.8824  -24.2501  -12.0281 C   0  0  1  0  0  0  0  0  0  0  0  0
   18.9566  -25.3148  -10.9400 C   0  0  0  0  0  0  0  0  0  0  0  0
   19.3317  -24.6446   -9.6707 C   0  0  0  0  0  0  0  0  0  0  0  0
   19.4592  -23.4032   -9.5853 O   0  0  0  0  0  0  0  0  0  0  0  0
   17.4774  -23.7276  -12.1219 C   0  0  0  0  0  0  0  0  0  0  0  0
   17.1626  -22.6060  -11.6650 O   0  0  0  0  0  0  0  0  0  0  0  0
   19.5583  -25.4099   -8.5084 O   0  0  0  0  0  0  0  0  0  0  0  0
   16.4647  -24.4806  -12.7233 O   0  0  0  0  0  0  0  0  0  0  0  0
  2  1  1  6
  3  2  1  0
  4  2  1  0
  5  4  1  0
  5  6  1  6
  7  5  1  0
  7  8  2  0
  9  7  1  0
 10  9  1  0
 10 11  1  0
 11 13  1  0
 12 11  2  0
 13 14  1  0
 14 18  1  0
 14 15  1  1
 15 16  1  0
 16 20  1  0
 17 16  2  0
 18 19  2  0
 18 21  1  0
M  END
$$$$
