LGD.pdb
     RDKit          3D

 21 20  0  0  1  0  0  0  0  0999 V2000
   23.2484  -19.8993  -18.9676 C   0  0  0  0  0  0  0  0  0  0  0  0
   23.5839  -19.3282  -17.5913 C   0  0  2  0  0  0  0  0  0  0  0  0
   22.3443  -18.7251  -17.0384 C   0  0  0  0  0  0  0  0  0  0  0  0
   24.7638  -18.4282  -17.7592 C   0  0  0  0  0  0  0  0  0  0  0  0
   26.0163  -18.8375  -17.1055 C   0  0  2  0  0  0  0  0  0  0  0  0
   26.3198  -20.2178  -17.2683 N   0  0  0  0  0  0  0  0  0  0  0  0
   26.1194  -18.4461  -15.6821 C   0  0  0  0  0  0  0  0  0  0  0  0
   25.8012  -17.2742  -15.3664 O   0  0  0  0  0  0  0  0  0  0  0  0
   26.5639  -19.3747  -14.7185 N   0  0  0  0  0  0  0  0  0  0  0  0
   26.6084  -19.0676  -13.3094 C   0  0  0  0  0  0  0  0  0  0  0  0
   25.8208  -20.0851  -12.5736 C   0  0  0  0  0  0  0  0  0  0  0  0
   25.3804  -21.1383  -13.1058 O   0  0  0  0  0  0  0  0  0  0  0  0
   25.5270  -19.8917  -11.1803 N   0  0  0  0  0  0  0  0  0  0  0  0
   24.8377  -20.9067  -10.3951 C   0  0  1  0  0  0  0  0  0  0  0  0
   25.0566  -20.6465   -8.9093 C   0  0  0  0  0  0  0  0  0  0  0  0
   26.5177  -20.5416   -8.6749 C   0  0  0  0  0  0  0  0  0  0  0  0
   27.3476  -21.2050   -9.3351 O   0  0  0  0  0  0  0  0  0  0  0  0
   23.3707  -20.8251  -10.7066 C   0  0  0  0  0  0  0  0  0  0  0  0
   22.8715  -19.8174  -11.2552 O   0  0  0  0  0  0  0  0  0  0  0  0
   27.0126  -19.6734   -7.6803 O   0  0  0  0  0  0  0  0  0  0  0  0
   22.5049  -21.8761  -10.3901 O   0  0  0  0  0  0  0  0  0  0  0  0
  2  1  1  6
  3  2  1  0
  4  2  1  0
  5  4  1  0
  5  6  1  1
  7  5  1  0
  7  8  2  0
  9  7  1  0
 10  9  1  0
 10 11  1  0
 11 13  1  0
 12 11  2  0
 13 14  1  0
 14 18  1  0
 14 15  1  1
 15 16  1  0
 16 20  1  0
 17 16  2  0
 18 19  2  0
 18 21  1  0
M  END
$$$$
