LGD.pdb
     RDKit          3D

 21 20  0  0  1  0  0  0  0  0999 V2000
   19.7994  -13.8952  -16.0169 C   0  0  0  0  0  0  0  0  0  0  0  0
   19.6903  -12.9701  -17.2273 C   0  0  2  0  0  0  0  0  0  0  0  0
   19.4634  -13.8187  -18.4250 C   0  0  0  0  0  0  0  0  0  0  0  0
   20.9020  -12.0970  -17.2299 C   0  0  0  0  0  0  0  0  0  0  0  0
   21.0800  -11.1956  -16.0814 C   0  0  2  0  0  0  0  0  0  0  0  0
   19.9710  -10.3336  -15.8558 N   0  0  0  0  0  0  0  0  0  0  0  0
   22.3433  -10.4250  -16.0989 C   0  0  0  0  0  0  0  0  0  0  0  0
   23.4245  -11.0614  -16.0861 O   0  0  0  0  0  0  0  0  0  0  0  0
   22.3174   -9.0155  -16.1293 N   0  0  0  0  0  0  0  0  0  0  0  0
   23.5127   -8.2218  -16.2818 C   0  0  0  0  0  0  0  0  0  0  0  0
   23.1418   -6.7872  -16.2424 C   0  0  0  0  0  0  0  0  0  0  0  0
   23.9686   -5.8529  -16.4153 O   0  0  0  0  0  0  0  0  0  0  0  0
   21.7776   -6.4078  -15.9971 N   0  0  0  0  0  0  0  0  0  0  0  0
   21.3455   -5.0184  -16.0641 C   0  0  1  0  0  0  0  0  0  0  0  0
   20.0400   -4.9211  -16.8447 C   0  0  0  0  0  0  0  0  0  0  0  0
   20.3562   -5.0854  -18.2847 C   0  0  0  0  0  0  0  0  0  0  0  0
   21.4293   -4.6781  -18.7818 O   0  0  0  0  0  0  0  0  0  0  0  0
   21.1279   -4.5265  -14.6618 C   0  0  0  0  0  0  0  0  0  0  0  0
   21.2893   -5.2742  -13.6716 O   0  0  0  0  0  0  0  0  0  0  0  0
   19.4327   -5.7171  -19.1427 O   0  0  0  0  0  0  0  0  0  0  0  0
   20.7318   -3.2094  -14.4110 O   0  0  0  0  0  0  0  0  0  0  0  0
  2  1  1  1
  3  2  1  0
  4  2  1  0
  5  4  1  0
  5  6  1  6
  7  5  1  0
  7  8  2  0
  9  7  1  0
 10  9  1  0
 10 11  1  0
 11 13  1  0
 12 11  2  0
 13 14  1  0
 14 18  1  0
 14 15  1  6
 15 16  1  0
 16 20  1  0
 17 16  2  0
 18 19  2  0
 18 21  1  0
M  END
$$$$
