LGD.pdb
     RDKit          3D

 21 20  0  0  1  0  0  0  0  0999 V2000
   26.3676  -19.0137   -8.1013 C   0  0  0  0  0  0  0  0  0  0  0  0
   25.8100  -20.4322   -8.0026 C   0  0  2  0  0  0  0  0  0  0  0  0
   26.3457  -21.0423   -6.7588 C   0  0  0  0  0  0  0  0  0  0  0  0
   26.1213  -21.1227   -9.2897 C   0  0  0  0  0  0  0  0  0  0  0  0
   25.7063  -20.4478  -10.5289 C   0  0  2  0  0  0  0  0  0  0  0  0
   24.2976  -20.2881  -10.6470 N   0  0  0  0  0  0  0  0  0  0  0  0
   26.2687  -21.0374  -11.7642 C   0  0  0  0  0  0  0  0  0  0  0  0
   27.0274  -22.0305  -11.6532 O   0  0  0  0  0  0  0  0  0  0  0  0
   25.9521  -20.4883  -13.0238 N   0  0  0  0  0  0  0  0  0  0  0  0
   25.9637  -21.2715  -14.2355 C   0  0  0  0  0  0  0  0  0  0  0  0
   24.5987  -21.2780  -14.8133 C   0  0  0  0  0  0  0  0  0  0  0  0
   24.2741  -21.9678  -15.8158 O   0  0  0  0  0  0  0  0  0  0  0  0
   23.5688  -20.4676  -14.2237 N   0  0  0  0  0  0  0  0  0  0  0  0
   22.2056  -20.4689  -14.7370 C   0  0  1  0  0  0  0  0  0  0  0  0
   21.2248  -20.2203  -13.5972 C   0  0  0  0  0  0  0  0  0  0  0  0
   21.2273  -21.4192  -12.7234 C   0  0  0  0  0  0  0  0  0  0  0  0
   21.7826  -22.4881  -13.0607 O   0  0  0  0  0  0  0  0  0  0  0  0
   22.0847  -19.3671  -15.7505 C   0  0  0  0  0  0  0  0  0  0  0  0
   22.8612  -18.3859  -15.7487 O   0  0  0  0  0  0  0  0  0  0  0  0
   20.5889  -21.3784  -11.4670 O   0  0  0  0  0  0  0  0  0  0  0  0
   21.0931  -19.3964  -16.7355 O   0  0  0  0  0  0  0  0  0  0  0  0
  2  1  1  6
  3  2  1  0
  4  2  1  0
  5  4  1  0
  5  6  1  6
  7  5  1  0
  7  8  2  0
  9  7  1  0
 10  9  1  0
 10 11  1  0
 11 13  1  0
 12 11  2  0
 13 14  1  0
 14 18  1  0
 14 15  1  1
 15 16  1  0
 16 20  1  0
 17 16  2  0
 18 19  2  0
 18 21  1  0
M  END
$$$$
