LGD.pdb
     RDKit          3D

 21 20  0  0  1  0  0  0  0  0999 V2000
   19.4497  -15.0009  -17.1086 C   0  0  0  0  0  0  0  0  0  0  0  0
   18.8911  -13.8991  -18.0067 C   0  0  2  0  0  0  0  0  0  0  0  0
   18.4098  -14.5376  -19.2585 C   0  0  0  0  0  0  0  0  0  0  0  0
   19.9493  -12.8534  -18.1379 C   0  0  0  0  0  0  0  0  0  0  0  0
   20.2459  -12.0477  -16.9436 C   0  0  2  0  0  0  0  0  0  0  0  0
   19.1123  -11.3663  -16.4196 N   0  0  0  0  0  0  0  0  0  0  0  0
   21.3857  -11.1172  -17.1013 C   0  0  0  0  0  0  0  0  0  0  0  0
   22.4367  -11.5536  -17.6296 O   0  0  0  0  0  0  0  0  0  0  0  0
   21.2793   -9.7803  -16.6657 N   0  0  0  0  0  0  0  0  0  0  0  0
   22.3135   -8.8029  -16.9048 C   0  0  0  0  0  0  0  0  0  0  0  0
   21.9664   -7.5544  -16.1853 C   0  0  0  0  0  0  0  0  0  0  0  0
   20.7890   -7.1193  -16.0812 O   0  0  0  0  0  0  0  0  0  0  0  0
   23.0018   -6.7763  -15.5628 N   0  0  0  0  0  0  0  0  0  0  0  0
   22.7288   -5.4754  -14.9672 C   0  0  1  0  0  0  0  0  0  0  0  0
   21.9682   -4.6032  -15.9590 C   0  0  0  0  0  0  0  0  0  0  0  0
   21.7233   -3.2887  -15.3164 C   0  0  0  0  0  0  0  0  0  0  0  0
   22.4864   -2.8223  -14.4419 O   0  0  0  0  0  0  0  0  0  0  0  0
   21.8884   -5.6879  -13.7406 C   0  0  0  0  0  0  0  0  0  0  0  0
   21.4550   -4.7263  -13.0674 O   0  0  0  0  0  0  0  0  0  0  0  0
   20.5996   -2.5210  -15.6852 O   0  0  0  0  0  0  0  0  0  0  0  0
   21.5610   -6.9745  -13.3026 O   0  0  0  0  0  0  0  0  0  0  0  0
  2  1  1  1
  3  2  1  0
  4  2  1  0
  5  4  1  0
  5  6  1  6
  7  5  1  0
  7  8  2  0
  9  7  1  0
 10  9  1  0
 10 11  1  0
 11 13  1  0
 12 11  2  0
 13 14  1  0
 14 18  1  0
 14 15  1  6
 15 16  1  0
 16 20  1  0
 17 16  2  0
 18 19  2  0
 18 21  1  0
M  END
$$$$
