NCV.pdb
     RDKit          3D

 22 21  0  0  1  0  0  0  0  0999 V2000
    8.8718  -14.8122   17.1179 N   0  0  0  0  0  0  0  0  0  0  0  0
    8.0917  -13.7219   17.6031 C   0  0  0  0  0  0  0  0  0  0  0  0
    7.9799  -12.7038   16.8917 O   0  0  0  0  0  0  0  0  0  0  0  0
    7.4317  -13.7890   18.9104 C   0  0  0  0  0  0  0  0  0  0  0  0
    8.2782  -14.5813   19.8787 C   0  0  2  0  0  0  0  0  0  0  0  0
    8.4340  -15.9194   19.3413 N   0  0  0  0  0  0  0  0  0  0  0  0
    7.7399  -14.5858   21.2389 C   0  0  0  0  0  0  0  0  0  0  0  0
    7.3828  -13.5625   21.8740 O   0  0  0  0  0  0  0  0  0  0  0  0
    7.6046  -15.8344   21.9061 N   0  0  0  0  0  0  0  0  0  0  0  0
    7.1761  -15.9760   23.2603 C   0  0  1  0  0  0  0  0  0  0  0  0
    6.8923  -17.4272   23.5227 C   0  0  0  0  0  0  0  0  0  0  0  0
    6.4126  -17.6324   25.2620 S   0  0  0  0  0  0  0  0  0  0  0  0
    8.0570  -15.3467   24.2449 C   0  0  0  0  0  0  0  0  0  0  0  0
    9.2928  -15.5732   24.1832 O   0  0  0  0  0  0  0  0  0  0  0  0
    6.2925  -12.8887   27.1871 C   0  0  0  0  0  0  0  0  0  0  0  0
    7.6911  -12.6029   26.6899 C   0  0  2  0  0  0  0  0  0  0  0  0
    7.5636  -11.7798   25.4350 C   0  0  0  0  0  0  0  0  0  0  0  0
    8.3680  -13.9231   26.3084 C   0  0  2  0  0  0  0  0  0  0  0  0
    7.5689  -14.5017   25.2521 N   0  0  0  0  0  0  0  0  0  0  0  0
    8.4844  -14.8165   27.4761 C   0  0  0  0  0  0  0  0  0  0  0  0
    9.4207  -14.6312   28.4804 O   0  0  0  0  0  0  0  0  0  0  0  0
    7.6998  -15.7929   27.5687 O   0  0  0  0  0  0  0  0  0  0  0  0
  1  2  1  0
  2  3  2  0
  2  4  1  0
  5  7  1  0
  5  4  1  0
  5  6  1  6
  7  8  2  0
  7  9  1  0
  9 10  1  0
 10 13  1  0
 11 12  1  0
 10 11  1  1
 13 14  2  0
 13 19  1  0
 16 15  1  6
 16 18  1  0
 16 17  1  0
 18 20  1  0
 18 19  1  6
 20 21  1  0
 22 20  2  0
M  END
$$$$
