NCV.pdb
     RDKit          3D

 22 21  0  0  1  0  0  0  0  0999 V2000
   10.1758  -18.4172   21.9344 N   0  0  0  0  0  0  0  0  0  0  0  0
    9.5400  -17.7130   20.8702 C   0  0  0  0  0  0  0  0  0  0  0  0
    8.6927  -18.3125   20.1789 O   0  0  0  0  0  0  0  0  0  0  0  0
    9.8704  -16.3127   20.5883 C   0  0  0  0  0  0  0  0  0  0  0  0
    8.7131  -15.4199   20.9698 C   0  0  2  0  0  0  0  0  0  0  0  0
    8.5450  -14.4358   19.9177 N   0  0  0  0  0  0  0  0  0  0  0  0
    8.8741  -14.8055   22.2876 C   0  0  0  0  0  0  0  0  0  0  0  0
    9.7337  -13.9359   22.5751 O   0  0  0  0  0  0  0  0  0  0  0  0
    7.9993  -15.2126   23.3324 N   0  0  0  0  0  0  0  0  0  0  0  0
    8.0398  -14.6893   24.6597 C   0  0  1  0  0  0  0  0  0  0  0  0
    6.6318  -14.5592   25.1656 C   0  0  0  0  0  0  0  0  0  0  0  0
    6.6263  -13.4946   26.6366 S   0  0  0  0  0  0  0  0  0  0  0  0
    8.9422  -15.4008   25.5657 C   0  0  0  0  0  0  0  0  0  0  0  0
    9.1176  -16.6351   25.3988 O   0  0  0  0  0  0  0  0  0  0  0  0
    9.5757  -14.2431   29.5042 C   0  0  0  0  0  0  0  0  0  0  0  0
   10.8095  -14.3755   28.6409 C   0  0  2  0  0  0  0  0  0  0  0  0
   11.0489  -13.0388   27.9893 C   0  0  0  0  0  0  0  0  0  0  0  0
   10.5358  -15.3895   27.5258 C   0  0  2  0  0  0  0  0  0  0  0  0
    9.6158  -14.7524   26.6111 N   0  0  0  0  0  0  0  0  0  0  0  0
    9.9985  -16.6489   28.0740 C   0  0  0  0  0  0  0  0  0  0  0  0
   10.7943  -17.6183   28.6628 O   0  0  0  0  0  0  0  0  0  0  0  0
    8.7618  -16.8569   28.0060 O   0  0  0  0  0  0  0  0  0  0  0  0
  1  2  1  0
  2  3  2  0
  2  4  1  0
  5  7  1  0
  5  4  1  0
  5  6  1  6
  7  8  2  0
  7  9  1  0
  9 10  1  0
 10 13  1  0
 11 12  1  0
 10 11  1  1
 13 14  2  0
 13 19  1  0
 16 15  1  1
 16 18  1  0
 16 17  1  0
 18 20  1  0
 18 19  1  6
 20 21  1  0
 22 20  2  0
M  END
$$$$
