NCV.pdb
     RDKit          3D

 22 21  0  0  1  0  0  0  0  0999 V2000
   12.6114  -17.8185   19.5269 N   0  0  0  0  0  0  0  0  0  0  0  0
   12.3646  -16.4186   19.4182 C   0  0  0  0  0  0  0  0  0  0  0  0
   12.9316  -15.7805   18.5091 O   0  0  0  0  0  0  0  0  0  0  0  0
   11.4639  -15.7363   20.3523 C   0  0  0  0  0  0  0  0  0  0  0  0
   10.9567  -16.7109   21.3891 C   0  0  2  0  0  0  0  0  0  0  0  0
    9.9248  -17.5210   20.7707 N   0  0  0  0  0  0  0  0  0  0  0  0
   10.4933  -16.0560   22.6123 C   0  0  0  0  0  0  0  0  0  0  0  0
   11.1558  -15.2193   23.2750 O   0  0  0  0  0  0  0  0  0  0  0  0
    9.1978  -16.3801   23.1011 N   0  0  0  0  0  0  0  0  0  0  0  0
    8.6684  -15.9083   24.3399 C   0  0  1  0  0  0  0  0  0  0  0  0
    7.2365  -16.3481   24.4465 C   0  0  0  0  0  0  0  0  0  0  0  0
    6.4811  -15.5612   25.8982 S   0  0  0  0  0  0  0  0  0  0  0  0
    9.4858  -16.2284   25.5108 C   0  0  0  0  0  0  0  0  0  0  0  0
   10.1408  -17.3022   25.5161 O   0  0  0  0  0  0  0  0  0  0  0  0
   10.0027  -13.1843   28.1705 C   0  0  0  0  0  0  0  0  0  0  0  0
    9.9919  -14.5500   28.8184 C   0  0  2  0  0  0  0  0  0  0  0  0
   11.0442  -14.5455   29.8960 C   0  0  0  0  0  0  0  0  0  0  0  0
   10.3988  -15.6012   27.7811 C   0  0  2  0  0  0  0  0  0  0  0  0
    9.5620  -15.3787   26.6239 N   0  0  0  0  0  0  0  0  0  0  0  0
   10.2538  -16.9653   28.3231 C   0  0  0  0  0  0  0  0  0  0  0  0
   11.3048  -17.6720   28.8848 O   0  0  0  0  0  0  0  0  0  0  0  0
    9.1262  -17.5162   28.2753 O   0  0  0  0  0  0  0  0  0  0  0  0
  1  2  1  0
  2  3  2  0
  2  4  1  0
  5  7  1  0
  5  4  1  0
  5  6  1  6
  7  8  2  0
  7  9  1  0
  9 10  1  0
 10 13  1  0
 11 12  1  0
 10 11  1  1
 13 14  2  0
 13 19  1  0
 16 15  1  6
 16 18  1  0
 16 17  1  0
 18 20  1  0
 18 19  1  6
 20 21  1  0
 22 20  2  0
M  END
$$$$
