NCV.pdb
     RDKit          3D

 22 21  0  0  1  0  0  0  0  0999 V2000
    9.1089  -14.1728   17.9256 N   0  0  0  0  0  0  0  0  0  0  0  0
    8.0681  -13.3466   18.4421 C   0  0  0  0  0  0  0  0  0  0  0  0
    7.4444  -12.6081   17.6542 O   0  0  0  0  0  0  0  0  0  0  0  0
    7.7322  -13.3596   19.8692 C   0  0  0  0  0  0  0  0  0  0  0  0
    8.6075  -14.3513   20.5989 C   0  0  2  0  0  0  0  0  0  0  0  0
    8.4384  -15.6446   19.9648 N   0  0  0  0  0  0  0  0  0  0  0  0
    8.3450  -14.3967   22.0373 C   0  0  0  0  0  0  0  0  0  0  0  0
    8.3685  -13.4019   22.8040 O   0  0  0  0  0  0  0  0  0  0  0  0
    8.0389  -15.6540   22.6272 N   0  0  0  0  0  0  0  0  0  0  0  0
    7.7793  -15.8437   24.0179 C   0  0  1  0  0  0  0  0  0  0  0  0
    6.9098  -17.0572   24.1808 C   0  0  0  0  0  0  0  0  0  0  0  0
    6.4741  -17.2434   25.9338 S   0  0  0  0  0  0  0  0  0  0  0  0
    8.9729  -15.8397   24.8644 C   0  0  0  0  0  0  0  0  0  0  0  0
   10.0109  -16.4164   24.4494 O   0  0  0  0  0  0  0  0  0  0  0  0
    8.6502  -14.1700   28.7371 C   0  0  0  0  0  0  0  0  0  0  0  0
    9.9485  -14.0525   27.9718 C   0  0  2  0  0  0  0  0  0  0  0  0
    9.8464  -12.8309   27.0966 C   0  0  0  0  0  0  0  0  0  0  0  0
   10.1006  -15.2675   27.0513 C   0  0  2  0  0  0  0  0  0  0  0  0
    8.9966  -15.2152   26.1199 N   0  0  0  0  0  0  0  0  0  0  0  0
   10.1200  -16.5218   27.8271 C   0  0  0  0  0  0  0  0  0  0  0  0
   11.2317  -16.9613   28.5273 O   0  0  0  0  0  0  0  0  0  0  0  0
    9.0819  -17.2281   27.8572 O   0  0  0  0  0  0  0  0  0  0  0  0
  1  2  1  0
  2  3  2  0
  2  4  1  0
  5  7  1  0
  5  4  1  0
  5  6  1  6
  7  8  2  0
  7  9  1  0
  9 10  1  0
 10 13  1  0
 11 12  1  0
 10 11  1  6
 13 14  2  0
 13 19  1  0
 16 15  1  6
 16 18  1  0
 16 17  1  0
 18 20  1  0
 18 19  1  6
 20 21  1  0
 22 20  2  0
M  END
$$$$
