NCV.pdb
     RDKit          3D

 22 21  0  0  1  0  0  0  0  0999 V2000
    9.4950  -19.0583   20.8649 N   0  0  0  0  0  0  0  0  0  0  0  0
    8.4476  -18.2818   20.2882 C   0  0  0  0  0  0  0  0  0  0  0  0
    8.1287  -18.4957   19.1017 O   0  0  0  0  0  0  0  0  0  0  0  0
    7.7550  -17.2513   21.0678 C   0  0  0  0  0  0  0  0  0  0  0  0
    8.3305  -17.1820   22.4628 C   0  0  2  0  0  0  0  0  0  0  0  0
    7.4059  -17.8494   23.3590 N   0  0  0  0  0  0  0  0  0  0  0  0
    8.6336  -15.8162   22.8900 C   0  0  0  0  0  0  0  0  0  0  0  0
    9.5474  -15.0994   22.4114 O   0  0  0  0  0  0  0  0  0  0  0  0
    7.8434  -15.2424   23.9238 N   0  0  0  0  0  0  0  0  0  0  0  0
    8.0747  -13.9503   24.4846 C   0  0  1  0  0  0  0  0  0  0  0  0
    6.7484  -13.3256   24.8096 C   0  0  0  0  0  0  0  0  0  0  0  0
    6.3334  -13.6820   26.5411 S   0  0  0  0  0  0  0  0  0  0  0  0
    9.0365  -13.9303   25.5874 C   0  0  0  0  0  0  0  0  0  0  0  0
    9.3938  -12.8201   26.0585 O   0  0  0  0  0  0  0  0  0  0  0  0
    8.9720  -15.1947   28.9816 C   0  0  0  0  0  0  0  0  0  0  0  0
   10.0925  -14.3995   28.3515 C   0  0  2  0  0  0  0  0  0  0  0  0
    9.5044  -13.1017   27.8630 C   0  0  0  0  0  0  0  0  0  0  0  0
   10.6192  -15.1562   27.1281 C   0  0  2  0  0  0  0  0  0  0  0  0
    9.5711  -15.1059   26.1342 N   0  0  0  0  0  0  0  0  0  0  0  0
   10.9918  -16.5392   27.4797 C   0  0  0  0  0  0  0  0  0  0  0  0
   12.1034  -16.8521   28.2452 O   0  0  0  0  0  0  0  0  0  0  0  0
   10.2703  -17.4812   27.0677 O   0  0  0  0  0  0  0  0  0  0  0  0
  1  2  1  0
  2  3  2  0
  2  4  1  0
  5  7  1  0
  5  4  1  0
  5  6  1  1
  7  8  2  0
  7  9  1  0
  9 10  1  0
 10 13  1  0
 11 12  1  0
 10 11  1  1
 13 14  2  0
 13 19  1  0
 16 15  1  6
 16 18  1  0
 16 17  1  0
 18 20  1  0
 18 19  1  6
 20 21  1  0
 22 20  2  0
M  END
$$$$
