NCV.pdb
     RDKit          3D

 22 21  0  0  1  0  0  0  0  0999 V2000
   10.1159  -17.7132   18.2640 N   0  0  0  0  0  0  0  0  0  0  0  0
    8.9487  -16.8998   18.3577 C   0  0  0  0  0  0  0  0  0  0  0  0
    8.4055  -16.5103   17.3050 O   0  0  0  0  0  0  0  0  0  0  0  0
    8.3929  -16.5249   19.6615 C   0  0  0  0  0  0  0  0  0  0  0  0
    9.3077  -16.9921   20.7691 C   0  0  2  0  0  0  0  0  0  0  0  0
    9.4371  -18.4326   20.6611 N   0  0  0  0  0  0  0  0  0  0  0  0
    8.8613  -16.5702   22.0967 C   0  0  0  0  0  0  0  0  0  0  0  0
    8.7168  -15.3767   22.4609 O   0  0  0  0  0  0  0  0  0  0  0  0
    8.5645  -17.5746   23.0588 N   0  0  0  0  0  0  0  0  0  0  0  0
    8.1708  -17.3035   24.4037 C   0  0  1  0  0  0  0  0  0  0  0  0
    7.4306  -18.4971   24.9352 C   0  0  0  0  0  0  0  0  0  0  0  0
    6.7958  -18.1116   26.5922 S   0  0  0  0  0  0  0  0  0  0  0  0
    9.2519  -16.8305   25.2692 C   0  0  0  0  0  0  0  0  0  0  0  0
   10.4108  -17.2874   25.0943 O   0  0  0  0  0  0  0  0  0  0  0  0
    8.8473  -13.2098   26.9340 C   0  0  0  0  0  0  0  0  0  0  0  0
    9.4247  -14.1971   27.9222 C   0  0  2  0  0  0  0  0  0  0  0  0
   10.5231  -13.4920   28.6739 C   0  0  0  0  0  0  0  0  0  0  0  0
   10.0634  -15.3596   27.1558 C   0  0  2  0  0  0  0  0  0  0  0  0
    9.0379  -15.8870   26.2844 N   0  0  0  0  0  0  0  0  0  0  0  0
   10.5905  -16.3795   28.0817 C   0  0  0  0  0  0  0  0  0  0  0  0
   11.9109  -16.4114   28.5003 O   0  0  0  0  0  0  0  0  0  0  0  0
    9.8092  -17.2630   28.5136 O   0  0  0  0  0  0  0  0  0  0  0  0
  1  2  1  0
  2  3  2  0
  2  4  1  0
  5  7  1  0
  5  4  1  0
  5  6  1  1
  7  8  2  0
  7  9  1  0
  9 10  1  0
 10 13  1  0
 11 12  1  0
 10 11  1  1
 13 14  2  0
 13 19  1  0
 16 15  1  6
 16 18  1  0
 16 17  1  0
 18 20  1  0
 18 19  1  6
 20 21  1  0
 22 20  2  0
M  END
$$$$
