NCV.pdb
     RDKit          3D

 22 21  0  0  1  0  0  0  0  0999 V2000
    9.1077  -15.6898   16.8955 N   0  0  0  0  0  0  0  0  0  0  0  0
    8.2888  -16.7742   17.3268 C   0  0  0  0  0  0  0  0  0  0  0  0
    8.2635  -17.8143   16.6393 O   0  0  0  0  0  0  0  0  0  0  0  0
    7.4900  -16.6758   18.5522 C   0  0  0  0  0  0  0  0  0  0  0  0
    8.3947  -16.4875   19.7473 C   0  0  2  0  0  0  0  0  0  0  0  0
    9.1507  -17.7116   19.9300 N   0  0  0  0  0  0  0  0  0  0  0  0
    7.6718  -16.0927   20.9561 C   0  0  0  0  0  0  0  0  0  0  0  0
    6.9051  -15.1015   21.0438 O   0  0  0  0  0  0  0  0  0  0  0  0
    7.8390  -16.8798   22.1287 N   0  0  0  0  0  0  0  0  0  0  0  0
    7.2537  -16.5675   23.3926 C   0  0  1  0  0  0  0  0  0  0  0  0
    7.0419  -17.8465   24.1506 C   0  0  0  0  0  0  0  0  0  0  0  0
    5.6990  -18.7845   23.3670 S   0  0  0  0  0  0  0  0  0  0  0  0
    7.9566  -15.5292   24.1472 C   0  0  0  0  0  0  0  0  0  0  0  0
    9.2110  -15.5814   24.2239 O   0  0  0  0  0  0  0  0  0  0  0  0
    7.5454  -11.2383   26.5882 C   0  0  0  0  0  0  0  0  0  0  0  0
    6.9054  -12.3486   25.7866 C   0  0  2  0  0  0  0  0  0  0  0  0
    5.7105  -12.8344   26.5643 C   0  0  0  0  0  0  0  0  0  0  0  0
    7.8886  -13.5179   25.6742 C   0  0  2  0  0  0  0  0  0  0  0  0
    7.2783  -14.4809   24.7858 N   0  0  0  0  0  0  0  0  0  0  0  0
    8.1868  -14.0899   27.0005 C   0  0  0  0  0  0  0  0  0  0  0  0
    9.2216  -13.6388   27.8039 O   0  0  0  0  0  0  0  0  0  0  0  0
    7.4715  -15.0305   27.4261 O   0  0  0  0  0  0  0  0  0  0  0  0
  1  2  1  0
  2  3  2  0
  2  4  1  0
  5  7  1  0
  5  4  1  0
  5  6  1  1
  7  8  2  0
  7  9  1  0
  9 10  1  0
 10 13  1  0
 11 12  1  0
 10 11  1  1
 13 14  2  0
 13 19  1  0
 16 15  1  1
 16 18  1  0
 16 17  1  0
 18 20  1  0
 18 19  1  6
 20 21  1  0
 22 20  2  0
M  END
$$$$
