NCV.pdb
     RDKit          3D

 22 21  0  0  1  0  0  0  0  0999 V2000
    9.6641  -14.2663   17.3932 N   0  0  0  0  0  0  0  0  0  0  0  0
    8.3163  -13.8040   17.4404 C   0  0  0  0  0  0  0  0  0  0  0  0
    7.8038  -13.3485   16.3988 O   0  0  0  0  0  0  0  0  0  0  0  0
    7.5425  -13.8597   18.6844 C   0  0  0  0  0  0  0  0  0  0  0  0
    8.3744  -14.4740   19.7855 C   0  0  2  0  0  0  0  0  0  0  0  0
    8.7755  -15.7991   19.3534 N   0  0  0  0  0  0  0  0  0  0  0  0
    7.6897  -14.4923   21.0781 C   0  0  0  0  0  0  0  0  0  0  0  0
    7.1836  -13.4880   21.6377 O   0  0  0  0  0  0  0  0  0  0  0  0
    7.5805  -15.7325   21.7655 N   0  0  0  0  0  0  0  0  0  0  0  0
    7.0882  -15.8683   23.0984 C   0  0  1  0  0  0  0  0  0  0  0  0
    6.7611  -17.3135   23.3424 C   0  0  0  0  0  0  0  0  0  0  0  0
    6.3441  -17.5393   25.0952 S   0  0  0  0  0  0  0  0  0  0  0  0
    7.9372  -15.2612   24.1241 C   0  0  0  0  0  0  0  0  0  0  0  0
    9.1467  -15.6011   24.1873 O   0  0  0  0  0  0  0  0  0  0  0  0
    6.0840  -12.6674   26.8306 C   0  0  0  0  0  0  0  0  0  0  0  0
    7.5324  -12.4174   26.4776 C   0  0  2  0  0  0  0  0  0  0  0  0
    7.5527  -11.5643   25.2363 C   0  0  0  0  0  0  0  0  0  0  0  0
    8.2024  -13.7507   26.1314 C   0  0  2  0  0  0  0  0  0  0  0  0
    7.4471  -14.3154   25.0362 N   0  0  0  0  0  0  0  0  0  0  0  0
    8.2423  -14.6446   27.3039 C   0  0  0  0  0  0  0  0  0  0  0  0
    9.1637  -14.5071   28.3293 O   0  0  0  0  0  0  0  0  0  0  0  0
    7.4031  -15.5760   27.3807 O   0  0  0  0  0  0  0  0  0  0  0  0
  1  2  1  0
  2  3  2  0
  2  4  1  0
  5  7  1  0
  5  4  1  0
  5  6  1  6
  7  8  2  0
  7  9  1  0
  9 10  1  0
 10 13  1  0
 11 12  1  0
 10 11  1  1
 13 14  2  0
 13 19  1  0
 16 15  1  6
 16 18  1  0
 16 17  1  0
 18 20  1  0
 18 19  1  6
 20 21  1  0
 22 20  2  0
M  END
$$$$
