HHQ.pdb
     RDKit          3D

 30 31  0  0  1  0  0  0  0  0999 V2000
   11.8172  -18.4201   19.8312 N   0  0  0  0  0  0  0  0  0  0  0  0
   12.4700  -17.1802   20.1815 C   0  0  1  0  0  0  0  0  0  0  0  0
   12.5943  -16.2992   18.9311 C   0  0  0  0  0  0  0  0  0  0  0  0
   13.1088  -17.1649   17.8284 C   0  0  0  0  0  0  0  0  0  0  0  0
   14.2619  -17.9334   17.8820 C   0  0  0  0  0  0  0  0  0  0  0  0
   14.4135  -18.5805   16.7123 N   0  0  0  0  0  0  0  0  0  0  0  0
   13.3730  -18.2332   15.9185 C   0  0  0  0  0  0  0  0  0  0  0  0
   12.5857  -17.3730   16.6048 N   0  0  0  0  0  0  0  0  0  0  0  0
   11.6781  -16.3924   21.1587 C   0  0  0  0  0  0  0  0  0  0  0  0
   12.1710  -15.3374   21.6082 O   0  0  0  0  0  0  0  0  0  0  0  0
   10.3926  -16.8390   21.5639 N   0  0  0  0  0  0  0  0  0  0  0  0
    9.6834  -16.2432   22.6893 C   0  0  1  0  0  0  0  0  0  0  0  0
    8.1893  -16.3335   22.4911 C   0  0  0  0  0  0  0  0  0  0  0  0
    7.7717  -15.2782   21.5431 C   0  0  0  0  0  0  0  0  0  0  0  0
    8.6193  -14.3830   20.8863 C   0  0  0  0  0  0  0  0  0  0  0  0
    7.8980  -13.5726   20.1092 N   0  0  0  0  0  0  0  0  0  0  0  0
    6.6179  -13.9216   20.2489 C   0  0  0  0  0  0  0  0  0  0  0  0
    6.5396  -14.9520   21.1149 N   0  0  0  0  0  0  0  0  0  0  0  0
   10.1454  -16.8523   23.9719 C   0  0  0  0  0  0  0  0  0  0  0  0
   10.6168  -18.0132   24.0460 O   0  0  0  0  0  0  0  0  0  0  0  0
    9.5365  -13.1135   27.9300 N   0  0  0  0  0  0  0  0  0  0  0  0
   10.6583  -13.7910   28.4512 C   0  0  0  0  0  0  0  0  0  0  0  0
   11.6329  -13.1598   28.9715 O   0  0  0  0  0  0  0  0  0  0  0  0
   10.7191  -15.2493   28.4085 C   0  0  0  0  0  0  0  0  0  0  0  0
    9.6838  -15.8192   27.4971 C   0  0  0  0  0  0  0  0  0  0  0  0
   10.1161  -16.8498   26.5127 C   0  0  2  0  0  0  0  0  0  0  0  0
   10.0787  -16.1451   25.2036 N   0  0  0  0  0  0  0  0  0  0  0  0
    9.4307  -18.1075   26.4251 C   0  0  0  0  0  0  0  0  0  0  0  0
    9.9135  -19.2160   27.1367 O   0  0  0  0  0  0  0  0  0  0  0  0
    8.3996  -18.3037   25.7408 O   0  0  0  0  0  0  0  0  0  0  0  0
  2  3  1  0
  2  1  1  6
  3  4  1  0
  4  8  1  0
  5  6  1  0
  5  4  2  0
  6  7  1  0
  7  8  2  0
  9  2  1  0
 10  9  2  0
 11  9  1  0
 12 11  1  0
 13 14  1  0
 12 13  1  6
 14 18  1  0
 15 14  2  0
 15 16  1  0
 16 17  1  0
 18 17  2  0
 19 12  1  0
 19 27  1  0
 20 19  2  0
 22 21  1  0
 23 22  2  0
 24 22  1  0
 25 24  1  0
 26 27  1  0
 26 25  1  1
 28 29  1  0
 28 26  1  0
 30 28  2  0
M  END
$$$$
