HHQ.pdb
     RDKit          3D

 30 31  0  0  1  0  0  0  0  0999 V2000
   11.2103  -15.0882   17.8444 N   0  0  0  0  0  0  0  0  0  0  0  0
   11.7091  -15.0198   19.1982 C   0  0  1  0  0  0  0  0  0  0  0  0
   11.4373  -13.6222   19.7710 C   0  0  0  0  0  0  0  0  0  0  0  0
    9.9756  -13.3573   19.6184 C   0  0  0  0  0  0  0  0  0  0  0  0
    9.0833  -14.1564   18.9196 C   0  0  0  0  0  0  0  0  0  0  0  0
    7.8551  -13.6124   18.9939 N   0  0  0  0  0  0  0  0  0  0  0  0
    7.9564  -12.4803   19.7297 C   0  0  0  0  0  0  0  0  0  0  0  0
    9.2481  -12.3334   20.1047 N   0  0  0  0  0  0  0  0  0  0  0  0
   11.0099  -15.9721   20.0966 C   0  0  0  0  0  0  0  0  0  0  0  0
   10.2162  -16.7915   19.5900 O   0  0  0  0  0  0  0  0  0  0  0  0
   11.2470  -15.9411   21.4962 N   0  0  0  0  0  0  0  0  0  0  0  0
   10.9861  -17.0910   22.3529 C   0  0  1  0  0  0  0  0  0  0  0  0
   11.6939  -18.3194   21.8334 C   0  0  0  0  0  0  0  0  0  0  0  0
   10.7231  -19.1448   21.0831 C   0  0  0  0  0  0  0  0  0  0  0  0
    9.7943  -18.6756   20.1514 C   0  0  0  0  0  0  0  0  0  0  0  0
    9.0839  -19.6993   19.6737 N   0  0  0  0  0  0  0  0  0  0  0  0
    9.5292  -20.8064   20.2704 C   0  0  0  0  0  0  0  0  0  0  0  0
   10.5197  -20.4734   21.1224 N   0  0  0  0  0  0  0  0  0  0  0  0
   11.3296  -16.7682   23.7697 C   0  0  0  0  0  0  0  0  0  0  0  0
   12.4324  -16.2746   24.1097 O   0  0  0  0  0  0  0  0  0  0  0  0
    9.8178  -13.6597   27.4618 N   0  0  0  0  0  0  0  0  0  0  0  0
    9.7408  -14.5497   28.5532 C   0  0  0  0  0  0  0  0  0  0  0  0
    9.8880  -14.1462   29.7510 O   0  0  0  0  0  0  0  0  0  0  0  0
    9.4805  -15.9682   28.3254 C   0  0  0  0  0  0  0  0  0  0  0  0
    9.4772  -16.3030   26.8710 C   0  0  0  0  0  0  0  0  0  0  0  0
   10.7690  -16.7032   26.2472 C   0  0  2  0  0  0  0  0  0  0  0  0
   10.4165  -17.0032   24.8339 N   0  0  0  0  0  0  0  0  0  0  0  0
   11.5495  -17.7695   26.8067 C   0  0  0  0  0  0  0  0  0  0  0  0
   12.6062  -17.4757   27.6816 O   0  0  0  0  0  0  0  0  0  0  0  0
   11.3578  -18.9848   26.5694 O   0  0  0  0  0  0  0  0  0  0  0  0
  2  3  1  0
  2  1  1  6
  3  4  1  0
  4  8  1  0
  5  6  1  0
  5  4  2  0
  6  7  1  0
  7  8  2  0
  9  2  1  0
 10  9  2  0
 11  9  1  0
 12 11  1  0
 13 14  1  0
 12 13  1  6
 14 18  1  0
 15 14  2  0
 15 16  1  0
 16 17  1  0
 18 17  2  0
 19 12  1  0
 19 27  1  0
 20 19  2  0
 22 21  1  0
 23 22  2  0
 24 22  1  0
 25 24  1  0
 26 27  1  0
 26 25  1  1
 28 29  1  0
 28 26  1  0
 30 28  2  0
M  END
$$$$
