HHQ.pdb
     RDKit          3D

 30 31  0  0  1  0  0  0  0  0999 V2000
   10.2607  -15.7833   16.7520 N   0  0  0  0  0  0  0  0  0  0  0  0
   10.8152  -14.9443   17.7887 C   0  0  1  0  0  0  0  0  0  0  0  0
    9.8664  -14.9308   18.9948 C   0  0  0  0  0  0  0  0  0  0  0  0
    8.6852  -14.0975   18.6201 C   0  0  0  0  0  0  0  0  0  0  0  0
    8.5012  -13.4688   17.3978 C   0  0  0  0  0  0  0  0  0  0  0  0
    7.3289  -12.8088   17.4152 N   0  0  0  0  0  0  0  0  0  0  0  0
    6.7678  -13.0103   18.6309 C   0  0  0  0  0  0  0  0  0  0  0  0
    7.5986  -13.7943   19.3560 N   0  0  0  0  0  0  0  0  0  0  0  0
   12.1094  -15.4670   18.2934 C   0  0  0  0  0  0  0  0  0  0  0  0
   12.1602  -16.6531   18.6787 O   0  0  0  0  0  0  0  0  0  0  0  0
   13.2541  -14.6277   18.3317 N   0  0  0  0  0  0  0  0  0  0  0  0
   14.4611  -14.9947   19.0617 C   0  0  1  0  0  0  0  0  0  0  0  0
   15.5849  -14.0326   18.7594 C   0  0  0  0  0  0  0  0  0  0  0  0
   16.1204  -14.3358   17.4148 C   0  0  0  0  0  0  0  0  0  0  0  0
   15.9708  -15.5408   16.7245 C   0  0  0  0  0  0  0  0  0  0  0  0
   16.5833  -15.4577   15.5418 N   0  0  0  0  0  0  0  0  0  0  0  0
   17.1188  -14.2387   15.4550 C   0  0  0  0  0  0  0  0  0  0  0  0
   16.8401  -13.5594   16.5858 N   0  0  0  0  0  0  0  0  0  0  0  0
   14.1659  -15.1162   20.5203 C   0  0  0  0  0  0  0  0  0  0  0  0
   13.5704  -14.2248   21.1732 O   0  0  0  0  0  0  0  0  0  0  0  0
    9.8140  -16.2759   21.8447 N   0  0  0  0  0  0  0  0  0  0  0  0
   10.1721  -16.7083   23.1386 C   0  0  0  0  0  0  0  0  0  0  0  0
    9.2910  -16.9978   24.0098 O   0  0  0  0  0  0  0  0  0  0  0  0
   11.5796  -16.8397   23.5042 C   0  0  0  0  0  0  0  0  0  0  0  0
   12.4808  -16.4989   22.3646 C   0  0  0  0  0  0  0  0  0  0  0  0
   13.9505  -16.5635   22.5976 C   0  0  2  0  0  0  0  0  0  0  0  0
   14.5461  -16.2640   21.2683 N   0  0  0  0  0  0  0  0  0  0  0  0
   14.5483  -17.7397   23.1617 C   0  0  0  0  0  0  0  0  0  0  0  0
   15.2454  -18.6332   22.3346 O   0  0  0  0  0  0  0  0  0  0  0  0
   14.4969  -18.0452   24.3759 O   0  0  0  0  0  0  0  0  0  0  0  0
  2  3  1  0
  2  1  1  6
  3  4  1  0
  4  8  1  0
  5  6  1  0
  5  4  2  0
  6  7  1  0
  7  8  2  0
  9  2  1  0
 10  9  2  0
 11  9  1  0
 12 11  1  0
 13 14  1  0
 12 13  1  1
 14 18  1  0
 15 14  2  0
 15 16  1  0
 16 17  1  0
 18 17  2  0
 19 12  1  0
 19 27  1  0
 20 19  2  0
 22 21  1  0
 23 22  2  0
 24 22  1  0
 25 24  1  0
 26 27  1  0
 26 25  1  6
 28 29  1  0
 28 26  1  0
 30 28  2  0
M  END
$$$$
