HHQ.pdb
     RDKit          3D

 30 31  0  0  1  0  0  0  0  0999 V2000
   11.3896  -17.1285   19.0216 N   0  0  0  0  0  0  0  0  0  0  0  0
   10.3965  -17.6074   19.9546 C   0  0  1  0  0  0  0  0  0  0  0  0
   10.8314  -18.9722   20.5054 C   0  0  0  0  0  0  0  0  0  0  0  0
    9.9509  -20.0034   19.8798 C   0  0  0  0  0  0  0  0  0  0  0  0
    9.2282  -19.8384   18.7078 C   0  0  0  0  0  0  0  0  0  0  0  0
    8.5503  -20.9708   18.4465 N   0  0  0  0  0  0  0  0  0  0  0  0
    8.8331  -21.8507   19.4359 C   0  0  0  0  0  0  0  0  0  0  0  0
    9.6847  -21.2544   20.3020 N   0  0  0  0  0  0  0  0  0  0  0  0
   10.2655  -16.7148   21.1331 C   0  0  0  0  0  0  0  0  0  0  0  0
   11.3039  -16.2330   21.6305 O   0  0  0  0  0  0  0  0  0  0  0  0
    8.9842  -16.4241   21.6717 N   0  0  0  0  0  0  0  0  0  0  0  0
    8.8111  -15.5941   22.8573 C   0  0  1  0  0  0  0  0  0  0  0  0
    7.3462  -15.3665   23.1442 C   0  0  0  0  0  0  0  0  0  0  0  0
    7.2256  -14.4446   24.2941 C   0  0  0  0  0  0  0  0  0  0  0  0
    8.2848  -13.8975   25.0218 C   0  0  0  0  0  0  0  0  0  0  0  0
    7.8050  -13.1112   25.9874 N   0  0  0  0  0  0  0  0  0  0  0  0
    6.4740  -13.1389   25.8994 C   0  0  0  0  0  0  0  0  0  0  0  0
    6.1220  -13.9441   24.8768 N   0  0  0  0  0  0  0  0  0  0  0  0
    9.5532  -16.1817   24.0121 C   0  0  0  0  0  0  0  0  0  0  0  0
    9.6471  -17.4182   24.2058 O   0  0  0  0  0  0  0  0  0  0  0  0
   10.1950  -13.4154   28.9656 N   0  0  0  0  0  0  0  0  0  0  0  0
   11.2487  -14.2878   29.3089 C   0  0  0  0  0  0  0  0  0  0  0  0
   11.5786  -14.4860   30.5217 O   0  0  0  0  0  0  0  0  0  0  0  0
   11.9854  -14.9940   28.2647 C   0  0  0  0  0  0  0  0  0  0  0  0
   11.3886  -14.7653   26.9161 C   0  0  0  0  0  0  0  0  0  0  0  0
   10.8417  -15.9447   26.1892 C   0  0  2  0  0  0  0  0  0  0  0  0
   10.2074  -15.3655   24.9752 N   0  0  0  0  0  0  0  0  0  0  0  0
    9.9406  -16.8503   26.8425 C   0  0  0  0  0  0  0  0  0  0  0  0
   10.4497  -17.9094   27.6089 O   0  0  0  0  0  0  0  0  0  0  0  0
    8.6916  -16.7699   26.7823 O   0  0  0  0  0  0  0  0  0  0  0  0
  2  3  1  0
  2  1  1  6
  3  4  1  0
  4  8  1  0
  5  6  1  0
  5  4  2  0
  6  7  1  0
  7  8  2  0
  9  2  1  0
 10  9  2  0
 11  9  1  0
 12 11  1  0
 13 14  1  0
 12 13  1  1
 14 18  1  0
 15 14  2  0
 15 16  1  0
 16 17  1  0
 18 17  2  0
 19 12  1  0
 19 27  1  0
 20 19  2  0
 22 21  1  0
 23 22  2  0
 24 22  1  0
 25 24  1  0
 26 27  1  0
 26 25  1  1
 28 29  1  0
 28 26  1  0
 30 28  2  0
M  END
$$$$
