GCI.pdb
     RDKit          3D

 19 18  0  0  1  0  0  0  0  0999 V2000
   28.3830  -21.0596  -15.5472 N   0  0  0  0  0  0  0  0  0  0  0  0
   28.0336  -20.2249  -14.4069 C   0  0  0  0  0  0  0  0  0  0  0  0
   26.9113  -20.9065  -13.6819 C   0  0  0  0  0  0  0  0  0  0  0  0
   26.2103  -21.7955  -14.2341 O   0  0  0  0  0  0  0  0  0  0  0  0
   26.5883  -20.5778  -12.3350 N   0  0  0  0  0  0  0  0  0  0  0  0
   25.4405  -21.1846  -11.6939 C   0  0  1  0  0  0  0  0  0  0  0  0
   25.4897  -20.7913  -10.2259 C   0  0  0  0  0  0  0  0  0  0  0  0
   27.0890  -21.2524   -9.5116 S   0  0  0  0  0  0  0  0  0  0  0  0
   24.1641  -20.6962  -12.2744 C   0  0  0  0  0  0  0  0  0  0  0  0
   24.0737  -19.4474  -12.4848 O   0  0  0  0  0  0  0  0  0  0  0  0
   21.2390  -21.3505  -17.1874 C   0  0  0  0  0  0  0  0  0  0  0  0
   21.0321  -21.0604  -15.7234 C   0  0  0  0  0  0  0  0  0  0  0  0
   22.1597  -21.4320  -14.8389 C   0  0  2  0  0  0  0  0  0  0  0  0
   22.3067  -22.9576  -14.9308 C   0  0  0  0  0  0  0  0  0  0  0  0
   22.0080  -21.0941  -13.3856 C   0  0  2  0  0  0  0  0  0  0  0  0
   23.0992  -21.5774  -12.5792 N   0  0  0  0  0  0  0  0  0  0  0  0
   20.7401  -21.5013  -12.7817 C   0  0  0  0  0  0  0  0  0  0  0  0
   19.5537  -20.8130  -12.9897 O   0  0  0  0  0  0  0  0  0  0  0  0
   20.6691  -22.5092  -12.0352 O   0  0  0  0  0  0  0  0  0  0  0  0
  1  2  1  0
  3  4  2  0
  3  2  1  0
  5  3  1  0
  6  9  1  0
  6  5  1  0
  6  7  1  1
  8  7  1  0
  9 10  2  0
 11 12  1  0
 13 12  1  0
 13 14  1  1
 15 13  1  0
 15 16  1  1
 16  9  1  0
 17 15  1  0
 18 17  1  0
 19 17  2  0
M  END
$$$$
