GCI.pdb
     RDKit          3D

 19 18  0  0  1  0  0  0  0  0999 V2000
   19.5308  -16.1324  -16.1908 N   0  0  0  0  0  0  0  0  0  0  0  0
   19.1199  -14.7913  -15.8010 C   0  0  0  0  0  0  0  0  0  0  0  0
   20.0181  -13.8244  -16.5141 C   0  0  0  0  0  0  0  0  0  0  0  0
   20.9984  -14.2156  -17.2015 O   0  0  0  0  0  0  0  0  0  0  0  0
   19.8014  -12.4192  -16.4450 N   0  0  0  0  0  0  0  0  0  0  0  0
   20.6190  -11.5182  -17.2302 C   0  0  1  0  0  0  0  0  0  0  0  0
   19.6730  -10.5681  -17.9476 C   0  0  0  0  0  0  0  0  0  0  0  0
   20.6172   -9.3667  -18.9201 S   0  0  0  0  0  0  0  0  0  0  0  0
   21.5356  -10.7215  -16.3760 C   0  0  0  0  0  0  0  0  0  0  0  0
   21.1134  -10.4124  -15.2192 O   0  0  0  0  0  0  0  0  0  0  0  0
   26.7191  -12.0441  -15.7723 C   0  0  0  0  0  0  0  0  0  0  0  0
   25.3051  -11.5453  -15.6234 C   0  0  0  0  0  0  0  0  0  0  0  0
   25.0993  -10.1172  -15.9552 C   0  0  2  0  0  0  0  0  0  0  0  0
   25.8861   -9.3061  -14.9156 C   0  0  0  0  0  0  0  0  0  0  0  0
   23.6848   -9.6200  -15.9184 C   0  0  2  0  0  0  0  0  0  0  0  0
   22.8174  -10.3249  -16.8268 N   0  0  0  0  0  0  0  0  0  0  0  0
   23.5268   -8.1797  -16.1149 C   0  0  0  0  0  0  0  0  0  0  0  0
   23.3920   -7.2881  -15.0606 O   0  0  0  0  0  0  0  0  0  0  0  0
   23.5055   -7.6787  -17.2667 O   0  0  0  0  0  0  0  0  0  0  0  0
  1  2  1  0
  3  4  2  0
  3  2  1  0
  5  3  1  0
  6  9  1  0
  6  5  1  0
  6  7  1  1
  8  7  1  0
  9 10  2  0
 11 12  1  0
 13 12  1  0
 13 14  1  1
 15 13  1  0
 15 16  1  6
 16  9  1  0
 17 15  1  0
 18 17  1  0
 19 17  2  0
M  END
$$$$
