GCI.pdb
     RDKit          3D

 19 18  0  0  1  0  0  0  0  0999 V2000
   14.8979  -13.0501  -13.8203 N   0  0  0  0  0  0  0  0  0  0  0  0
   14.5822  -11.6624  -14.1269 C   0  0  0  0  0  0  0  0  0  0  0  0
   15.4893  -10.8042  -13.2960 C   0  0  0  0  0  0  0  0  0  0  0  0
   15.9953  -11.2232  -12.2212 O   0  0  0  0  0  0  0  0  0  0  0  0
   15.8189   -9.4756  -13.6865 N   0  0  0  0  0  0  0  0  0  0  0  0
   16.6092   -8.6355  -12.8110 C   0  0  1  0  0  0  0  0  0  0  0  0
   17.5814   -7.8648  -13.6903 C   0  0  0  0  0  0  0  0  0  0  0  0
   18.6408   -6.8086  -12.6691 S   0  0  0  0  0  0  0  0  0  0  0  0
   15.7647   -7.6640  -12.0710 C   0  0  0  0  0  0  0  0  0  0  0  0
   14.8100   -7.1304  -12.7159 O   0  0  0  0  0  0  0  0  0  0  0  0
   12.8449   -8.4007   -7.6805 C   0  0  0  0  0  0  0  0  0  0  0  0
   13.3865   -7.8166   -8.9594 C   0  0  0  0  0  0  0  0  0  0  0  0
   14.5426   -6.9056   -8.7996 C   0  0  2  0  0  0  0  0  0  0  0  0
   14.0380   -5.6887   -8.0109 C   0  0  0  0  0  0  0  0  0  0  0  0
   15.1605   -6.3828  -10.0622 C   0  0  2  0  0  0  0  0  0  0  0  0
   16.0097   -7.3469  -10.7135 N   0  0  0  0  0  0  0  0  0  0  0  0
   15.8793   -5.1170   -9.9247 C   0  0  0  0  0  0  0  0  0  0  0  0
   15.2429   -3.8846   -9.9558 O   0  0  0  0  0  0  0  0  0  0  0  0
   17.1257   -5.0899   -9.7701 O   0  0  0  0  0  0  0  0  0  0  0  0
  1  2  1  0
  3  4  2  0
  3  2  1  0
  5  3  1  0
  6  9  1  0
  6  5  1  0
  6  7  1  6
  8  7  1  0
  9 10  2  0
 11 12  1  0
 13 12  1  0
 13 14  1  1
 15 13  1  0
 15 16  1  1
 16  9  1  0
 17 15  1  0
 18 17  1  0
 19 17  2  0
M  END
$$$$
