GCI.pdb
     RDKit          3D

 19 18  0  0  1  0  0  0  0  0999 V2000
   25.4761  -20.5781   -8.2365 N   0  0  0  0  0  0  0  0  0  0  0  0
   24.6546  -20.7209   -9.4298 C   0  0  0  0  0  0  0  0  0  0  0  0
   25.5309  -20.4315  -10.6122 C   0  0  0  0  0  0  0  0  0  0  0  0
   26.5339  -19.6747  -10.5229 O   0  0  0  0  0  0  0  0  0  0  0  0
   25.2668  -21.0004  -11.8901 N   0  0  0  0  0  0  0  0  0  0  0  0
   26.1493  -20.7255  -13.0047 C   0  0  1  0  0  0  0  0  0  0  0  0
   26.4534  -22.0575  -13.6721 C   0  0  0  0  0  0  0  0  0  0  0  0
   27.5824  -21.8112  -15.0667 S   0  0  0  0  0  0  0  0  0  0  0  0
   25.5128  -19.8284  -14.0020 C   0  0  0  0  0  0  0  0  0  0  0  0
   24.2649  -19.9732  -14.1855 O   0  0  0  0  0  0  0  0  0  0  0  0
   27.9207  -15.0281  -16.3582 C   0  0  0  0  0  0  0  0  0  0  0  0
   27.5047  -16.4553  -16.1131 C   0  0  0  0  0  0  0  0  0  0  0  0
   26.0804  -16.6475  -15.7578 C   0  0  2  0  0  0  0  0  0  0  0  0
   25.8954  -16.0629  -14.3501 C   0  0  0  0  0  0  0  0  0  0  0  0
   25.5887  -18.0636  -15.7112 C   0  0  2  0  0  0  0  0  0  0  0  0
   26.2584  -18.8587  -14.7142 N   0  0  0  0  0  0  0  0  0  0  0  0
   25.6089  -18.7710  -16.9908 C   0  0  0  0  0  0  0  0  0  0  0  0
   26.3311  -19.9382  -17.1924 O   0  0  0  0  0  0  0  0  0  0  0  0
   24.9624  -18.3450  -17.9801 O   0  0  0  0  0  0  0  0  0  0  0  0
  1  2  1  0
  3  4  2  0
  3  2  1  0
  5  3  1  0
  6  9  1  0
  6  5  1  0
  6  7  1  6
  8  7  1  0
  9 10  2  0
 11 12  1  0
 13 12  1  0
 13 14  1  1
 15 13  1  0
 15 16  1  1
 16  9  1  0
 17 15  1  0
 18 17  1  0
 19 17  2  0
M  END
$$$$
