GCI.pdb
     RDKit          3D

 19 18  0  0  1  0  0  0  0  0999 V2000
   25.3039  -20.3842   -9.1074 N   0  0  0  0  0  0  0  0  0  0  0  0
   25.5789  -21.2852  -10.2173 C   0  0  0  0  0  0  0  0  0  0  0  0
   25.4339  -20.4924  -11.4824 C   0  0  0  0  0  0  0  0  0  0  0  0
   24.6671  -19.4956  -11.5542 O   0  0  0  0  0  0  0  0  0  0  0  0
   26.1581  -20.8324  -12.6598 N   0  0  0  0  0  0  0  0  0  0  0  0
   26.0024  -20.0415  -13.8627 C   0  0  1  0  0  0  0  0  0  0  0  0
   27.3204  -20.1136  -14.6177 C   0  0  0  0  0  0  0  0  0  0  0  0
   28.3014  -18.6245  -14.3003 S   0  0  0  0  0  0  0  0  0  0  0  0
   24.9251  -20.5735  -14.7351 C   0  0  0  0  0  0  0  0  0  0  0  0
   24.8335  -21.8367  -14.8231 O   0  0  0  0  0  0  0  0  0  0  0  0
   19.0729  -19.8918  -15.3869 C   0  0  0  0  0  0  0  0  0  0  0  0
   20.3474  -20.3472  -16.0491 C   0  0  0  0  0  0  0  0  0  0  0  0
   21.5967  -19.8821  -15.4050 C   0  0  2  0  0  0  0  0  0  0  0  0
   21.5510  -18.3474  -15.4132 C   0  0  0  0  0  0  0  0  0  0  0  0
   22.8801  -20.2849  -16.0681 C   0  0  2  0  0  0  0  0  0  0  0  0
   24.0425  -19.7165  -15.4351 N   0  0  0  0  0  0  0  0  0  0  0  0
   22.9407  -20.0365  -17.5078 C   0  0  0  0  0  0  0  0  0  0  0  0
   22.2043  -20.7684  -18.4279 O   0  0  0  0  0  0  0  0  0  0  0  0
   23.6751  -19.1344  -17.9821 O   0  0  0  0  0  0  0  0  0  0  0  0
  1  2  1  0
  3  4  2  0
  3  2  1  0
  5  3  1  0
  6  9  1  0
  6  5  1  0
  6  7  1  6
  8  7  1  0
  9 10  2  0
 11 12  1  0
 13 12  1  0
 13 14  1  6
 15 13  1  0
 15 16  1  1
 16  9  1  0
 17 15  1  0
 18 17  1  0
 19 17  2  0
M  END
$$$$
