GCI.pdb
     RDKit          3D

 19 18  0  0  1  0  0  0  0  0999 V2000
   20.7238  -13.9226  -20.0505 N   0  0  0  0  0  0  0  0  0  0  0  0
   19.8687  -12.7445  -20.0465 C   0  0  0  0  0  0  0  0  0  0  0  0
   20.6375  -11.6370  -19.3889 C   0  0  0  0  0  0  0  0  0  0  0  0
   21.7094  -11.8558  -18.7645 O   0  0  0  0  0  0  0  0  0  0  0  0
   20.1885  -10.2872  -19.4417 N   0  0  0  0  0  0  0  0  0  0  0  0
   20.9848   -9.2326  -18.8498 C   0  0  1  0  0  0  0  0  0  0  0  0
   20.7062   -7.9650  -19.6421 C   0  0  0  0  0  0  0  0  0  0  0  0
   21.6119   -6.5706  -18.9238 S   0  0  0  0  0  0  0  0  0  0  0  0
   20.6176   -8.9966  -17.4306 C   0  0  0  0  0  0  0  0  0  0  0  0
   19.3910   -9.1262  -17.1293 O   0  0  0  0  0  0  0  0  0  0  0  0
   23.2078  -11.4630  -13.5772 C   0  0  0  0  0  0  0  0  0  0  0  0
   22.1985  -10.7408  -14.4317 C   0  0  0  0  0  0  0  0  0  0  0  0
   22.0398   -9.2978  -14.1408 C   0  0  2  0  0  0  0  0  0  0  0  0
   21.3915   -9.1975  -12.7526 C   0  0  0  0  0  0  0  0  0  0  0  0
   21.1745   -8.5174  -15.0850 C   0  0  2  0  0  0  0  0  0  0  0  0
   21.5854   -8.6444  -16.4596 N   0  0  0  0  0  0  0  0  0  0  0  0
   21.0135   -7.1020  -14.7550 C   0  0  0  0  0  0  0  0  0  0  0  0
   20.1345   -6.6533  -13.7799 O   0  0  0  0  0  0  0  0  0  0  0  0
   21.6751   -6.2157  -15.3506 O   0  0  0  0  0  0  0  0  0  0  0  0
  1  2  1  0
  3  4  2  0
  3  2  1  0
  5  3  1  0
  6  9  1  0
  6  5  1  0
  6  7  1  6
  8  7  1  0
  9 10  2  0
 11 12  1  0
 13 12  1  0
 13 14  1  1
 15 13  1  0
 15 16  1  6
 16  9  1  0
 17 15  1  0
 18 17  1  0
 19 17  2  0
M  END
$$$$
