GMG.pdb
     RDKit          3D

 17 16  0  0  1  0  0  0  0  0999 V2000
    7.1975  -16.2685   19.9558 N   0  0  0  0  0  0  0  0  0  0  0  0
    6.6364  -16.2288   21.2934 C   0  0  0  0  0  0  0  0  0  0  0  0
    7.5365  -15.4084   22.1290 C   0  0  0  0  0  0  0  0  0  0  0  0
    8.5114  -14.7547   21.6228 O   0  0  0  0  0  0  0  0  0  0  0  0
    6.2084  -12.3407   27.8910 C   0  0  0  0  0  0  0  0  0  0  0  0
    6.3824  -11.3915   26.3636 S   0  0  0  0  0  0  0  0  0  0  0  0
    6.8362  -12.4721   24.9866 C   0  0  0  0  0  0  0  0  0  0  0  0
    7.5168  -13.7333   25.4543 C   0  0  0  0  0  0  0  0  0  0  0  0
    8.2483  -14.3957   24.3026 C   0  0  2  0  0  0  0  0  0  0  0  0
    7.3948  -15.2810   23.5412 N   0  0  0  0  0  0  0  0  0  0  0  0
    9.4069  -15.1891   24.7742 C   0  0  0  0  0  0  0  0  0  0  0  0
   10.2925  -14.6328   25.4678 O   0  0  0  0  0  0  0  0  0  0  0  0
    9.5486  -16.5706   24.4635 N   0  0  0  0  0  0  0  0  0  0  0  0
   10.6741  -17.2819   25.0175 C   0  0  0  0  0  0  0  0  0  0  0  0
   11.5683  -17.8056   23.9539 C   0  0  0  0  0  0  0  0  0  0  0  0
   11.2910  -17.5689   22.7484 O   0  0  0  0  0  0  0  0  0  0  0  0
   12.6827  -18.5393   24.2992 O   0  0  0  0  0  0  0  0  0  0  0  0
  2  1  1  0
  2  3  1  0
  3  4  2  0
  6  5  1  0
  7  6  1  0
  8  7  1  0
  9  8  1  1
 10  3  1  0
 10  9  1  0
 11  9  1  0
 11 12  2  0
 13 11  1  0
 14 13  1  0
 14 15  1  0
 15 16  2  0
 15 17  1  0
M  END
$$$$
