GMG.pdb
     RDKit          3D

 17 16  0  0  1  0  0  0  0  0999 V2000
    7.6039  -19.4964   26.6756 N   0  0  0  0  0  0  0  0  0  0  0  0
    8.0698  -18.1659   27.0196 C   0  0  0  0  0  0  0  0  0  0  0  0
    7.6753  -17.2592   25.9226 C   0  0  0  0  0  0  0  0  0  0  0  0
    6.9180  -17.6492   24.9693 O   0  0  0  0  0  0  0  0  0  0  0  0
    5.1085  -11.4177   27.7166 C   0  0  0  0  0  0  0  0  0  0  0  0
    6.6333  -11.7844   26.8197 S   0  0  0  0  0  0  0  0  0  0  0  0
    6.4772  -13.3320   25.8977 C   0  0  0  0  0  0  0  0  0  0  0  0
    7.6860  -13.6070   25.0400 C   0  0  0  0  0  0  0  0  0  0  0  0
    7.7628  -15.0817   24.6945 C   0  0  2  0  0  0  0  0  0  0  0  0
    8.0987  -15.9011   25.8381 N   0  0  0  0  0  0  0  0  0  0  0  0
    8.7734  -15.3459   23.6440 C   0  0  0  0  0  0  0  0  0  0  0  0
    8.5263  -15.0221   22.4570 O   0  0  0  0  0  0  0  0  0  0  0  0
   10.0230  -15.9589   23.9400 N   0  0  0  0  0  0  0  0  0  0  0  0
   10.9460  -16.1834   22.8551 C   0  0  0  0  0  0  0  0  0  0  0  0
   12.2536  -16.6895   23.3444 C   0  0  0  0  0  0  0  0  0  0  0  0
   12.3641  -17.0369   24.5499 O   0  0  0  0  0  0  0  0  0  0  0  0
   13.3216  -16.7714   22.4772 O   0  0  0  0  0  0  0  0  0  0  0  0
  2  1  1  0
  2  3  1  0
  3  4  2  0
  6  5  1  0
  7  6  1  0
  8  7  1  0
  9  8  1  1
 10  3  1  0
 10  9  1  0
 11  9  1  0
 11 12  2  0
 13 11  1  0
 14 13  1  0
 14 15  1  0
 15 16  2  0
 15 17  1  0
M  END
$$$$
