GMG.pdb
     RDKit          3D

 17 16  0  0  1  0  0  0  0  0999 V2000
    7.9247  -15.4350   19.9516 N   0  0  0  0  0  0  0  0  0  0  0  0
    7.2146  -15.8329   21.1529 C   0  0  0  0  0  0  0  0  0  0  0  0
    7.9274  -15.2461   22.3057 C   0  0  0  0  0  0  0  0  0  0  0  0
    8.9638  -14.5136   22.1516 O   0  0  0  0  0  0  0  0  0  0  0  0
    5.8093  -10.3465   26.5769 C   0  0  0  0  0  0  0  0  0  0  0  0
    6.4618  -11.9751   27.0079 S   0  0  0  0  0  0  0  0  0  0  0  0
    6.6921  -12.9852   25.5259 C   0  0  0  0  0  0  0  0  0  0  0  0
    7.2664  -14.3417   25.8463 C   0  0  0  0  0  0  0  0  0  0  0  0
    8.2130  -14.7861   24.7478 C   0  0  2  0  0  0  0  0  0  0  0  0
    7.5262  -15.4448   23.6586 N   0  0  0  0  0  0  0  0  0  0  0  0
    9.2420  -15.7219   25.2575 C   0  0  0  0  0  0  0  0  0  0  0  0
    9.9857  -15.3635   26.2027 O   0  0  0  0  0  0  0  0  0  0  0  0
    9.4152  -17.0221   24.7059 N   0  0  0  0  0  0  0  0  0  0  0  0
   10.4031  -17.8886   25.2999 C   0  0  0  0  0  0  0  0  0  0  0  0
   11.7071  -17.7962   24.5955 C   0  0  0  0  0  0  0  0  0  0  0  0
   11.8319  -16.9843   23.6409 O   0  0  0  0  0  0  0  0  0  0  0  0
   12.7564  -18.5958   24.9941 O   0  0  0  0  0  0  0  0  0  0  0  0
  2  1  1  0
  2  3  1  0
  3  4  2  0
  6  5  1  0
  7  6  1  0
  8  7  1  0
  9  8  1  1
 10  3  1  0
 10  9  1  0
 11  9  1  0
 11 12  2  0
 13 11  1  0
 14 13  1  0
 14 15  1  0
 15 16  2  0
 15 17  1  0
M  END
$$$$
