GMG.pdb
     RDKit          3D

 17 16  0  0  1  0  0  0  0  0999 V2000
    5.3438  -19.1661   23.4579 N   0  0  0  0  0  0  0  0  0  0  0  0
    5.5991  -18.2408   24.5461 C   0  0  0  0  0  0  0  0  0  0  0  0
    6.5312  -17.2108   24.0445 C   0  0  0  0  0  0  0  0  0  0  0  0
    6.6919  -17.0035   22.7933 O   0  0  0  0  0  0  0  0  0  0  0  0
    5.4012  -11.5660   26.9663 C   0  0  0  0  0  0  0  0  0  0  0  0
    6.7713  -12.7430   27.0067 S   0  0  0  0  0  0  0  0  0  0  0  0
    7.1823  -13.3045   25.3378 C   0  0  0  0  0  0  0  0  0  0  0  0
    8.3910  -14.2052   25.3228 C   0  0  0  0  0  0  0  0  0  0  0  0
    8.1794  -15.3553   24.3570 C   0  0  2  0  0  0  0  0  0  0  0  0
    7.3134  -16.3797   24.8979 N   0  0  0  0  0  0  0  0  0  0  0  0
    9.4597  -16.0026   23.9878 C   0  0  0  0  0  0  0  0  0  0  0  0
   10.3227  -15.3446   23.3576 O   0  0  0  0  0  0  0  0  0  0  0  0
    9.7437  -17.3550   24.3270 N   0  0  0  0  0  0  0  0  0  0  0  0
   11.0002  -17.9164   23.8962 C   0  0  0  0  0  0  0  0  0  0  0  0
   12.1031  -17.5700   24.8284 C   0  0  0  0  0  0  0  0  0  0  0  0
   12.6391  -16.4332   24.7481 O   0  0  0  0  0  0  0  0  0  0  0  0
   12.5222  -18.4924   25.7627 O   0  0  0  0  0  0  0  0  0  0  0  0
  2  1  1  0
  2  3  1  0
  3  4  2  0
  6  5  1  0
  7  6  1  0
  8  7  1  0
  9  8  1  1
 10  3  1  0
 10  9  1  0
 11  9  1  0
 11 12  2  0
 13 11  1  0
 14 13  1  0
 14 15  1  0
 15 16  2  0
 15 17  1  0
M  END
$$$$
