GMG.pdb
     RDKit          3D

 17 16  0  0  1  0  0  0  0  0999 V2000
    5.4170  -19.1332   23.4679 N   0  0  0  0  0  0  0  0  0  0  0  0
    5.8215  -18.3628   24.6292 C   0  0  0  0  0  0  0  0  0  0  0  0
    6.4989  -17.1446   24.1407 C   0  0  0  0  0  0  0  0  0  0  0  0
    6.4712  -16.8105   22.9070 O   0  0  0  0  0  0  0  0  0  0  0  0
    5.1359  -11.2768   27.2003 C   0  0  0  0  0  0  0  0  0  0  0  0
    6.6868  -12.1985   27.1017 S   0  0  0  0  0  0  0  0  0  0  0  0
    6.7049  -13.2667   25.6430 C   0  0  0  0  0  0  0  0  0  0  0  0
    8.0228  -13.9795   25.4768 C   0  0  0  0  0  0  0  0  0  0  0  0
    7.8948  -15.0929   24.4551 C   0  0  2  0  0  0  0  0  0  0  0  0
    7.2253  -16.2589   24.9883 N   0  0  0  0  0  0  0  0  0  0  0  0
    9.2182  -15.5292   23.9523 C   0  0  0  0  0  0  0  0  0  0  0  0
    9.9314  -14.7185   23.3127 O   0  0  0  0  0  0  0  0  0  0  0  0
    9.7094  -16.8464   24.1728 N   0  0  0  0  0  0  0  0  0  0  0  0
   10.9603  -17.2189   23.5597 C   0  0  0  0  0  0  0  0  0  0  0  0
   12.1160  -16.9011   24.4364 C   0  0  0  0  0  0  0  0  0  0  0  0
   11.9023  -16.4553   25.5947 O   0  0  0  0  0  0  0  0  0  0  0  0
   13.3989  -17.0973   23.9725 O   0  0  0  0  0  0  0  0  0  0  0  0
  2  1  1  0
  2  3  1  0
  3  4  2  0
  6  5  1  0
  7  6  1  0
  8  7  1  0
  9  8  1  1
 10  3  1  0
 10  9  1  0
 11  9  1  0
 11 12  2  0
 13 11  1  0
 14 13  1  0
 14 15  1  0
 15 16  2  0
 15 17  1  0
M  END
$$$$
