GMG.pdb
     RDKit          3D

 17 16  0  0  1  0  0  0  0  0999 V2000
    5.4977  -19.4903   22.9893 N   0  0  0  0  0  0  0  0  0  0  0  0
    5.9997  -19.0556   24.2795 C   0  0  0  0  0  0  0  0  0  0  0  0
    6.5377  -17.6905   24.1102 C   0  0  0  0  0  0  0  0  0  0  0  0
    6.5848  -17.1252   22.9646 O   0  0  0  0  0  0  0  0  0  0  0  0
    5.6354  -11.0048   26.0071 C   0  0  0  0  0  0  0  0  0  0  0  0
    6.9017  -11.9724   26.8582 S   0  0  0  0  0  0  0  0  0  0  0  0
    7.6115  -13.2130   25.7507 C   0  0  0  0  0  0  0  0  0  0  0  0
    7.1084  -14.6010   26.0551 C   0  0  0  0  0  0  0  0  0  0  0  0
    7.5445  -15.5691   24.9721 C   0  0  2  0  0  0  0  0  0  0  0  0
    7.0392  -16.9067   25.1896 N   0  0  0  0  0  0  0  0  0  0  0  0
    9.0203  -15.6590   24.8802 C   0  0  0  0  0  0  0  0  0  0  0  0
    9.6818  -15.9799   25.8972 O   0  0  0  0  0  0  0  0  0  0  0  0
    9.7158  -15.3912   23.6681 N   0  0  0  0  0  0  0  0  0  0  0  0
   11.1490  -15.2414   23.7233 C   0  0  0  0  0  0  0  0  0  0  0  0
   11.8405  -16.5527   23.6371 C   0  0  0  0  0  0  0  0  0  0  0  0
   11.3220  -17.5567   24.1932 O   0  0  0  0  0  0  0  0  0  0  0  0
   13.0332  -16.6518   22.9538 O   0  0  0  0  0  0  0  0  0  0  0  0
  2  1  1  0
  2  3  1  0
  3  4  2  0
  6  5  1  0
  7  6  1  0
  8  7  1  0
  9  8  1  1
 10  3  1  0
 10  9  1  0
 11  9  1  0
 11 12  2  0
 13 11  1  0
 14 13  1  0
 14 15  1  0
 15 16  2  0
 15 17  1  0
M  END
$$$$
