GMG.pdb
     RDKit          3D

 17 16  0  0  1  0  0  0  0  0999 V2000
    7.8500  -13.4935   19.8566 N   0  0  0  0  0  0  0  0  0  0  0  0
    6.9149  -14.1169   20.7745 C   0  0  0  0  0  0  0  0  0  0  0  0
    7.5792  -14.2109   22.0903 C   0  0  0  0  0  0  0  0  0  0  0  0
    8.8170  -13.9279   22.2387 O   0  0  0  0  0  0  0  0  0  0  0  0
    6.8403  -10.4190   26.9679 C   0  0  0  0  0  0  0  0  0  0  0  0
    7.4372  -12.1164   26.8046 S   0  0  0  0  0  0  0  0  0  0  0  0
    6.2805  -13.1111   25.8340 C   0  0  0  0  0  0  0  0  0  0  0  0
    6.7140  -14.5515   25.7349 C   0  0  0  0  0  0  0  0  0  0  0  0
    7.6176  -14.7485   24.5329 C   0  0  2  0  0  0  0  0  0  0  0  0
    6.9077  -14.6174   23.2796 N   0  0  0  0  0  0  0  0  0  0  0  0
    8.2603  -16.0832   24.5442 C   0  0  0  0  0  0  0  0  0  0  0  0
    7.5422  -17.1122   24.5244 O   0  0  0  0  0  0  0  0  0  0  0  0
    9.6746  -16.2365   24.5772 N   0  0  0  0  0  0  0  0  0  0  0  0
   10.2149  -17.5732   24.6040 C   0  0  0  0  0  0  0  0  0  0  0  0
   11.6945  -17.5634   24.7311 C   0  0  0  0  0  0  0  0  0  0  0  0
   12.3004  -18.6508   24.9220 O   0  0  0  0  0  0  0  0  0  0  0  0
   12.3796  -16.3711   24.6390 O   0  0  0  0  0  0  0  0  0  0  0  0
  2  1  1  0
  2  3  1  0
  3  4  2  0
  6  5  1  0
  7  6  1  0
  8  7  1  0
  9  8  1  1
 10  3  1  0
 10  9  1  0
 11  9  1  0
 11 12  2  0
 13 11  1  0
 14 13  1  0
 14 15  1  0
 15 16  2  0
 15 17  1  0
M  END
$$$$
