GMG.pdb
     RDKit          3D

 17 16  0  0  1  0  0  0  0  0999 V2000
    7.2444  -16.6326   20.3128 N   0  0  0  0  0  0  0  0  0  0  0  0
    6.7827  -16.6620   21.6881 C   0  0  0  0  0  0  0  0  0  0  0  0
    7.7532  -15.8994   22.4993 C   0  0  0  0  0  0  0  0  0  0  0  0
    8.7366  -15.2823   21.9642 O   0  0  0  0  0  0  0  0  0  0  0  0
    5.4590  -10.8935   26.4238 C   0  0  0  0  0  0  0  0  0  0  0  0
    6.3431  -12.3898   26.9174 S   0  0  0  0  0  0  0  0  0  0  0  0
    7.1731  -13.1407   25.4973 C   0  0  0  0  0  0  0  0  0  0  0  0
    7.9897  -14.3461   25.8883 C   0  0  0  0  0  0  0  0  0  0  0  0
    8.6143  -14.9805   24.6605 C   0  0  2  0  0  0  0  0  0  0  0  0
    7.6746  -15.7914   23.9181 N   0  0  0  0  0  0  0  0  0  0  0  0
    9.7650  -15.8432   25.0157 C   0  0  0  0  0  0  0  0  0  0  0  0
   10.9193  -15.3513   25.0377 O   0  0  0  0  0  0  0  0  0  0  0  0
    9.6021  -17.2204   25.3344 N   0  0  0  0  0  0  0  0  0  0  0  0
   10.1100  -18.1998   24.4058 C   0  0  0  0  0  0  0  0  0  0  0  0
   11.5848  -18.3394   24.5092 C   0  0  0  0  0  0  0  0  0  0  0  0
   12.2532  -18.5705   23.4671 O   0  0  0  0  0  0  0  0  0  0  0  0
   12.1978  -18.2148   25.7373 O   0  0  0  0  0  0  0  0  0  0  0  0
  2  1  1  0
  2  3  1  0
  3  4  2  0
  6  5  1  0
  7  6  1  0
  8  7  1  0
  9  8  1  1
 10  3  1  0
 10  9  1  0
 11  9  1  0
 11 12  2  0
 13 11  1  0
 14 13  1  0
 14 15  1  0
 15 16  2  0
 15 17  1  0
M  END
$$$$
