GMG.pdb
     RDKit          3D

 17 16  0  0  1  0  0  0  0  0999 V2000
    5.5301  -19.2130   23.3978 N   0  0  0  0  0  0  0  0  0  0  0  0
    6.0600  -18.6425   24.6222 C   0  0  0  0  0  0  0  0  0  0  0  0
    6.7669  -17.3965   24.2626 C   0  0  0  0  0  0  0  0  0  0  0  0
    6.8907  -17.0225   23.0464 O   0  0  0  0  0  0  0  0  0  0  0  0
    5.1005  -11.2218   26.6859 C   0  0  0  0  0  0  0  0  0  0  0  0
    6.7146  -12.0286   26.7743 S   0  0  0  0  0  0  0  0  0  0  0  0
    6.7247  -13.5491   25.7957 C   0  0  0  0  0  0  0  0  0  0  0  0
    8.0599  -14.2472   25.8441 C   0  0  0  0  0  0  0  0  0  0  0  0
    8.1104  -15.3602   24.8150 C   0  0  2  0  0  0  0  0  0  0  0  0
    7.3581  -16.5260   25.2235 N   0  0  0  0  0  0  0  0  0  0  0  0
    9.5007  -15.7970   24.5490 C   0  0  0  0  0  0  0  0  0  0  0  0
   10.1617  -16.3395   25.4675 O   0  0  0  0  0  0  0  0  0  0  0  0
   10.1143  -15.6196   23.2774 N   0  0  0  0  0  0  0  0  0  0  0  0
   11.5525  -15.6900   23.1987 C   0  0  0  0  0  0  0  0  0  0  0  0
   12.0226  -17.0847   23.0013 C   0  0  0  0  0  0  0  0  0  0  0  0
   11.5839  -17.9921   23.7565 O   0  0  0  0  0  0  0  0  0  0  0  0
   12.9272  -17.3648   22.0000 O   0  0  0  0  0  0  0  0  0  0  0  0
  2  1  1  0
  2  3  1  0
  3  4  2  0
  6  5  1  0
  7  6  1  0
  8  7  1  0
  9  8  1  1
 10  3  1  0
 10  9  1  0
 11  9  1  0
 11 12  2  0
 13 11  1  0
 14 13  1  0
 14 15  1  0
 15 16  2  0
 15 17  1  0
M  END
$$$$
