SMQ.pdb
     RDKit          3D

 24 23  0  0  1  0  0  0  0  0999 V2000
   27.0595  -18.8619  -15.6833 O   0  0  0  0  0  0  0  0  0  0  0  0
   27.9265  -19.0067  -14.5928 C   0  0  0  0  0  0  0  0  0  0  0  0
   28.1510  -20.4507  -14.2460 C   0  0  2  0  0  0  0  0  0  0  0  0
   28.3010  -21.2028  -15.4672 N   0  0  0  0  0  0  0  0  0  0  0  0
   27.0426  -20.9984  -13.4104 C   0  0  0  0  0  0  0  0  0  0  0  0
   26.3416  -21.9351  -13.8868 O   0  0  0  0  0  0  0  0  0  0  0  0
   28.3440  -19.7963   -6.7141 C   0  0  0  0  0  0  0  0  0  0  0  0
   26.8285  -19.6297   -7.6625 S   0  0  0  0  0  0  0  0  0  0  0  0
   26.9152  -20.5554   -9.2409 C   0  0  0  0  0  0  0  0  0  0  0  0
   25.6876  -20.2090  -10.0180 C   0  0  0  0  0  0  0  0  0  0  0  0
   25.6294  -20.8834  -11.3702 C   0  0  2  0  0  0  0  0  0  0  0  0
   26.8073  -20.4579  -12.1151 N   0  0  0  0  0  0  0  0  0  0  0  0
   24.3806  -20.4125  -12.0463 C   0  0  0  0  0  0  0  0  0  0  0  0
   24.4302  -19.5038  -12.9444 O   0  0  0  0  0  0  0  0  0  0  0  0
   22.7298  -24.6186  -15.1764 N   0  0  0  0  0  0  0  0  0  0  0  0
   21.6157  -23.7895  -15.4178 C   0  0  0  0  0  0  0  0  0  0  0  0
   20.8102  -24.0640  -16.3294 O   0  0  0  0  0  0  0  0  0  0  0  0
   21.3388  -22.5499  -14.6065 C   0  0  0  0  0  0  0  0  0  0  0  0
   22.3814  -22.3763  -13.5387 C   0  0  0  0  0  0  0  0  0  0  0  0
   22.1359  -21.1521  -12.7410 C   0  0  2  0  0  0  0  0  0  0  0  0
   23.1304  -20.9763  -11.6905 N   0  0  0  0  0  0  0  0  0  0  0  0
   20.7902  -21.1575  -12.1428 C   0  0  0  0  0  0  0  0  0  0  0  0
   20.4695  -21.5971  -11.0281 O   0  0  0  0  0  0  0  0  0  0  0  0
   19.7358  -20.6074  -12.9038 O   0  0  0  0  0  0  0  0  0  0  0  0
  2  1  1  0
  3  2  1  0
  3  4  1  6
  5  6  2  0
  5  3  1  0
  7  8  1  0
  8  9  1  0
  9 10  1  0
 11 10  1  1
 11 13  1  0
 11 12  1  0
 12  5  1  0
 13 21  1  0
 14 13  2  0
 16 15  1  0
 16 18  1  0
 17 16  2  0
 18 19  1  0
 20 19  1  1
 20 22  1  0
 21 20  1  0
 22 23  2  0
 22 24  1  0
M  END
$$$$
