SMQ.pdb
     RDKit          3D

 24 23  0  0  1  0  0  0  0  0999 V2000
   19.7327  -11.7615  -20.4492 O   0  0  0  0  0  0  0  0  0  0  0  0
   21.0171  -12.2164  -20.7739 C   0  0  0  0  0  0  0  0  0  0  0  0
   21.5945  -13.0797  -19.6890 C   0  0  2  0  0  0  0  0  0  0  0  0
   20.6876  -14.1714  -19.4334 N   0  0  0  0  0  0  0  0  0  0  0  0
   21.8616  -12.3006  -18.4446 C   0  0  0  0  0  0  0  0  0  0  0  0
   20.9733  -12.2854  -17.5466 O   0  0  0  0  0  0  0  0  0  0  0  0
   27.7325  -11.6219  -15.1398 C   0  0  0  0  0  0  0  0  0  0  0  0
   27.1061  -10.0245  -15.6689 S   0  0  0  0  0  0  0  0  0  0  0  0
   25.2749   -9.9985  -15.7118 C   0  0  0  0  0  0  0  0  0  0  0  0
   24.8564  -10.7435  -16.9369 C   0  0  0  0  0  0  0  0  0  0  0  0
   23.3554  -10.8602  -17.0785 C   0  0  2  0  0  0  0  0  0  0  0  0
   23.0947  -11.6040  -18.3040 N   0  0  0  0  0  0  0  0  0  0  0  0
   22.8111   -9.4703  -17.1803 C   0  0  0  0  0  0  0  0  0  0  0  0
   22.9801   -8.7819  -18.2445 O   0  0  0  0  0  0  0  0  0  0  0  0
   17.2347   -7.5744  -16.4428 N   0  0  0  0  0  0  0  0  0  0  0  0
   17.9278   -6.3482  -16.3861 C   0  0  0  0  0  0  0  0  0  0  0  0
   17.3016   -5.2706  -16.3447 O   0  0  0  0  0  0  0  0  0  0  0  0
   19.4328   -6.2693  -16.3726 C   0  0  0  0  0  0  0  0  0  0  0  0
   20.0314   -7.6467  -16.3293 C   0  0  0  0  0  0  0  0  0  0  0  0
   21.5105   -7.5887  -16.2657 C   0  0  2  0  0  0  0  0  0  0  0  0
   22.1016   -8.9090  -16.0899 N   0  0  0  0  0  0  0  0  0  0  0  0
   21.9707   -6.7004  -15.1851 C   0  0  0  0  0  0  0  0  0  0  0  0
   22.3374   -7.0343  -14.0481 O   0  0  0  0  0  0  0  0  0  0  0  0
   22.0062   -5.3142  -15.4508 O   0  0  0  0  0  0  0  0  0  0  0  0
  2  1  1  0
  3  2  1  0
  3  4  1  1
  5  6  2  0
  5  3  1  0
  7  8  1  0
  8  9  1  0
  9 10  1  0
 11 10  1  6
 11 13  1  0
 11 12  1  0
 12  5  1  0
 13 21  1  0
 14 13  2  0
 16 15  1  0
 16 18  1  0
 17 16  2  0
 18 19  1  0
 20 19  1  1
 20 22  1  0
 21 20  1  0
 22 23  2  0
 22 24  1  0
M  END
$$$$
