SMQ.pdb
     RDKit          3D

 24 23  0  0  1  0  0  0  0  0999 V2000
   19.5815  -28.3540  -16.7434 O   0  0  0  0  0  0  0  0  0  0  0  0
   19.8485  -27.9508  -15.4289 C   0  0  0  0  0  0  0  0  0  0  0  0
   21.0448  -27.0456  -15.3547 C   0  0  2  0  0  0  0  0  0  0  0  0
   22.2390  -27.8452  -15.4725 N   0  0  0  0  0  0  0  0  0  0  0  0
   21.0562  -26.2450  -14.0955 C   0  0  0  0  0  0  0  0  0  0  0  0
   21.6996  -26.6960  -13.1063 O   0  0  0  0  0  0  0  0  0  0  0  0
   19.8529  -20.1919  -14.8371 C   0  0  0  0  0  0  0  0  0  0  0  0
   21.3720  -20.4367  -13.9118 S   0  0  0  0  0  0  0  0  0  0  0  0
   21.6343  -22.2025  -13.5006 C   0  0  0  0  0  0  0  0  0  0  0  0
   20.2941  -22.7804  -13.1831 C   0  0  0  0  0  0  0  0  0  0  0  0
   20.3517  -24.2431  -12.8038 C   0  0  2  0  0  0  0  0  0  0  0  0
   20.3509  -25.0100  -14.0428 N   0  0  0  0  0  0  0  0  0  0  0  0
   19.1253  -24.5405  -11.9999 C   0  0  0  0  0  0  0  0  0  0  0  0
   18.0058  -24.7583  -12.5778 O   0  0  0  0  0  0  0  0  0  0  0  0
   18.5100  -25.3516   -5.6273 N   0  0  0  0  0  0  0  0  0  0  0  0
   17.2136  -25.4206   -6.1766 C   0  0  0  0  0  0  0  0  0  0  0  0
   16.2193  -25.5449   -5.4341 O   0  0  0  0  0  0  0  0  0  0  0  0
   16.9587  -25.3497   -7.6603 C   0  0  0  0  0  0  0  0  0  0  0  0
   18.2263  -25.0212   -8.3968 C   0  0  0  0  0  0  0  0  0  0  0  0
   17.9704  -24.8108   -9.8408 C   0  0  2  0  0  0  0  0  0  0  0  0
   19.2018  -24.5817  -10.5858 N   0  0  0  0  0  0  0  0  0  0  0  0
   17.0466  -23.6867  -10.0680 C   0  0  0  0  0  0  0  0  0  0  0  0
   17.3345  -22.4813  -10.1198 O   0  0  0  0  0  0  0  0  0  0  0  0
   15.6800  -23.9919  -10.2488 O   0  0  0  0  0  0  0  0  0  0  0  0
  2  1  1  0
  3  2  1  0
  3  4  1  1
  5  6  2  0
  5  3  1  0
  7  8  1  0
  8  9  1  0
  9 10  1  0
 11 10  1  6
 11 13  1  0
 11 12  1  0
 12  5  1  0
 13 21  1  0
 14 13  2  0
 16 15  1  0
 16 18  1  0
 17 16  2  0
 18 19  1  0
 20 19  1  1
 20 22  1  0
 21 20  1  0
 22 23  2  0
 22 24  1  0
M  END
$$$$
