SMQ.pdb
     RDKit          3D

 24 23  0  0  1  0  0  0  0  0999 V2000
   17.8739  -12.6754  -19.3773 O   0  0  0  0  0  0  0  0  0  0  0  0
   18.6105  -12.2069  -18.2820 C   0  0  0  0  0  0  0  0  0  0  0  0
   20.0433  -12.6533  -18.3407 C   0  0  2  0  0  0  0  0  0  0  0  0
   20.1053  -14.0566  -18.0145 N   0  0  0  0  0  0  0  0  0  0  0  0
   20.9111  -11.8511  -17.4297 C   0  0  0  0  0  0  0  0  0  0  0  0
   20.8184  -12.0515  -16.1859 O   0  0  0  0  0  0  0  0  0  0  0  0
   26.7457  -10.0069  -14.4439 C   0  0  0  0  0  0  0  0  0  0  0  0
   25.4878  -10.6272  -15.5650 S   0  0  0  0  0  0  0  0  0  0  0  0
   25.0333   -9.3788  -16.8262 C   0  0  0  0  0  0  0  0  0  0  0  0
   24.0147  -10.0100  -17.7178 C   0  0  0  0  0  0  0  0  0  0  0  0
   22.6461  -10.1070  -17.0822 C   0  0  2  0  0  0  0  0  0  0  0  0
   21.8091  -10.8934  -17.9790 N   0  0  0  0  0  0  0  0  0  0  0  0
   22.1172   -8.7132  -16.9556 C   0  0  0  0  0  0  0  0  0  0  0  0
   21.9319   -7.9909  -17.9942 O   0  0  0  0  0  0  0  0  0  0  0  0
   17.2579   -5.5617  -16.2269 N   0  0  0  0  0  0  0  0  0  0  0  0
   18.5510   -5.0112  -16.1188 C   0  0  0  0  0  0  0  0  0  0  0  0
   18.9798   -4.2309  -16.9920 O   0  0  0  0  0  0  0  0  0  0  0  0
   19.4708   -5.3262  -14.9672 C   0  0  0  0  0  0  0  0  0  0  0  0
   19.9534   -6.7464  -15.0526 C   0  0  0  0  0  0  0  0  0  0  0  0
   21.3296   -6.8152  -15.5969 C   0  0  2  0  0  0  0  0  0  0  0  0
   21.8180   -8.1860  -15.6750 N   0  0  0  0  0  0  0  0  0  0  0  0
   22.2676   -6.0079  -14.7986 C   0  0  0  0  0  0  0  0  0  0  0  0
   22.9151   -6.3771  -13.8071 O   0  0  0  0  0  0  0  0  0  0  0  0
   22.4662   -4.6650  -15.1867 O   0  0  0  0  0  0  0  0  0  0  0  0
  2  1  1  0
  3  2  1  0
  3  4  1  1
  5  6  2  0
  5  3  1  0
  7  8  1  0
  8  9  1  0
  9 10  1  0
 11 10  1  6
 11 13  1  0
 11 12  1  0
 12  5  1  0
 13 21  1  0
 14 13  2  0
 16 15  1  0
 16 18  1  0
 17 16  2  0
 18 19  1  0
 20 19  1  1
 20 22  1  0
 21 20  1  0
 22 23  2  0
 22 24  1  0
M  END
$$$$
