SMQ.pdb
     RDKit          3D

 24 23  0  0  1  0  0  0  0  0999 V2000
   27.9106   -9.6489  -15.3826 O   0  0  0  0  0  0  0  0  0  0  0  0
   27.2794  -10.8874  -15.2105 C   0  0  0  0  0  0  0  0  0  0  0  0
   26.7839  -11.4472  -16.5131 C   0  0  2  0  0  0  0  0  0  0  0  0
   27.8644  -11.4258  -17.4678 N   0  0  0  0  0  0  0  0  0  0  0  0
   25.6002  -10.6959  -17.0243 C   0  0  0  0  0  0  0  0  0  0  0  0
   25.7574   -9.9429  -18.0263 O   0  0  0  0  0  0  0  0  0  0  0  0
   19.1391  -12.3116  -17.8863 C   0  0  0  0  0  0  0  0  0  0  0  0
   20.6963  -13.2053  -17.8647 S   0  0  0  0  0  0  0  0  0  0  0  0
   22.1264  -12.0728  -18.0323 C   0  0  0  0  0  0  0  0  0  0  0  0
   22.0258  -11.0759  -16.9246 C   0  0  0  0  0  0  0  0  0  0  0  0
   23.1896  -10.1111  -16.8850 C   0  0  2  0  0  0  0  0  0  0  0  0
   24.3413  -10.8456  -16.3777 N   0  0  0  0  0  0  0  0  0  0  0  0
   22.8163   -9.0055  -15.9487 C   0  0  0  0  0  0  0  0  0  0  0  0
   22.9313   -9.1572  -14.6843 O   0  0  0  0  0  0  0  0  0  0  0  0
   22.9547   -2.8002  -17.0922 N   0  0  0  0  0  0  0  0  0  0  0  0
   22.4828   -2.9217  -15.7695 C   0  0  0  0  0  0  0  0  0  0  0  0
   22.3087   -1.9070  -15.0657 O   0  0  0  0  0  0  0  0  0  0  0  0
   22.1682   -4.2554  -15.1420 C   0  0  0  0  0  0  0  0  0  0  0  0
   22.3679   -5.3645  -16.1356 C   0  0  0  0  0  0  0  0  0  0  0  0
   22.0967   -6.6876  -15.5267 C   0  0  2  0  0  0  0  0  0  0  0  0
   22.3307   -7.7784  -16.4642 N   0  0  0  0  0  0  0  0  0  0  0  0
   20.7196   -6.7738  -15.0120 C   0  0  0  0  0  0  0  0  0  0  0  0
   19.7224   -7.2015  -15.6129 O   0  0  0  0  0  0  0  0  0  0  0  0
   20.4870   -6.3261  -13.6933 O   0  0  0  0  0  0  0  0  0  0  0  0
  2  1  1  0
  3  2  1  0
  3  4  1  6
  5  6  2  0
  5  3  1  0
  7  8  1  0
  8  9  1  0
  9 10  1  0
 11 10  1  1
 11 13  1  0
 11 12  1  0
 12  5  1  0
 13 21  1  0
 14 13  2  0
 16 15  1  0
 16 18  1  0
 17 16  2  0
 18 19  1  0
 20 19  1  6
 20 22  1  0
 21 20  1  0
 22 23  2  0
 22 24  1  0
M  END
$$$$
