KEA.pdb
     RDKit          3D

 24 23  0  0  1  0  0  0  0  0999 V2000
    7.2765  -16.7177   19.5945 N   0  0  0  0  0  0  0  0  0  0  0  0
    7.9969  -15.7235   20.3053 C   0  0  1  0  0  0  0  0  0  0  0  0
    7.8018  -14.3112   19.9011 C   0  0  0  0  0  0  0  0  0  0  0  0
    8.4767  -13.9053   18.6464 C   0  0  0  0  0  0  0  0  0  0  0  0
    7.5503  -13.7254   17.4898 C   0  0  0  0  0  0  0  0  0  0  0  0
    8.3802  -13.3773   16.2485 C   0  0  0  0  0  0  0  0  0  0  0  0
    7.4794  -13.2098   15.1376 N   0  0  0  0  0  0  0  0  0  0  0  0
    7.8706  -15.8937   21.7998 C   0  0  0  0  0  0  0  0  0  0  0  0
    6.7191  -15.8748   22.2546 O   0  0  0  0  0  0  0  0  0  0  0  0
    8.9599  -16.0668   22.6714 N   0  0  0  0  0  0  0  0  0  0  0  0
    8.7264  -16.1669   24.0683 C   0  0  1  0  0  0  0  0  0  0  0  0
    9.7223  -17.0957   24.7709 C   0  0  0  0  0  0  0  0  0  0  0  0
    9.3993  -17.1624   26.2627 C   0  0  0  0  0  0  0  0  0  0  0  0
   10.3702  -17.9708   27.0017 C   0  0  0  0  0  0  0  0  0  0  0  0
   11.4916  -17.5194   27.3480 O   0  0  0  0  0  0  0  0  0  0  0  0
    8.7308  -14.9076   24.8185 C   0  0  0  0  0  0  0  0  0  0  0  0
    9.8147  -14.2313   24.7303 O   0  0  0  0  0  0  0  0  0  0  0  0
   10.0616  -19.2757   27.3378 O   0  0  0  0  0  0  0  0  0  0  0  0
    6.4405  -12.4592   26.3037 C   0  0  0  0  0  0  0  0  0  0  0  0
    7.8111  -13.1161   26.2266 C   0  0  2  0  0  0  0  0  0  0  0  0
    7.6723  -14.4126   25.5939 N   0  0  0  0  0  0  0  0  0  0  0  0
    8.3093  -13.3054   27.6158 C   0  0  0  0  0  0  0  0  0  0  0  0
    8.3711  -14.4511   28.1114 O   0  0  0  0  0  0  0  0  0  0  0  0
    8.7185  -12.2384   28.4030 O   0  0  0  0  0  0  0  0  0  0  0  0
  2  1  1  6
  3  2  1  0
  4  3  1  0
  5  4  1  0
  6  5  1  0
  7  6  1  0
  8  2  1  0
  8  9  2  0
 10  8  1  0
 11 10  1  0
 11 12  1  1
 12 13  1  0
 14 13  1  0
 15 14  2  0
 16 11  1  0
 17 16  2  0
 18 14  1  0
 20 19  1  1
 20 21  1  0
 21 16  1  0
 22 24  1  0
 22 20  1  0
 23 22  2  0
M  END
$$$$
