KEA.pdb
     RDKit          3D

 24 23  0  0  1  0  0  0  0  0999 V2000
    4.6718  -18.5851   21.3052 N   0  0  0  0  0  0  0  0  0  0  0  0
    6.0191  -18.2787   21.6271 C   0  0  1  0  0  0  0  0  0  0  0  0
    6.7706  -17.4114   20.6896 C   0  0  0  0  0  0  0  0  0  0  0  0
    7.1294  -18.0305   19.3925 C   0  0  0  0  0  0  0  0  0  0  0  0
    8.0498  -17.2024   18.5587 C   0  0  0  0  0  0  0  0  0  0  0  0
    8.4098  -17.9934   17.2956 C   0  0  0  0  0  0  0  0  0  0  0  0
    9.1868  -17.1387   16.4357 N   0  0  0  0  0  0  0  0  0  0  0  0
    6.1667  -17.8093   23.0542 C   0  0  0  0  0  0  0  0  0  0  0  0
    5.1933  -17.2139   23.5349 O   0  0  0  0  0  0  0  0  0  0  0  0
    7.3167  -18.0086   23.8378 N   0  0  0  0  0  0  0  0  0  0  0  0
    7.3398  -17.5338   25.1757 C   0  0  1  0  0  0  0  0  0  0  0  0
    8.2540  -18.3635   26.0835 C   0  0  0  0  0  0  0  0  0  0  0  0
    8.1670  -17.8414   27.5167 C   0  0  0  0  0  0  0  0  0  0  0  0
    9.0206  -18.5994   28.4326 C   0  0  0  0  0  0  0  0  0  0  0  0
    9.7690  -19.5288   28.0357 O   0  0  0  0  0  0  0  0  0  0  0  0
    7.7300  -16.1329   25.3601 C   0  0  0  0  0  0  0  0  0  0  0  0
    8.8668  -15.8196   24.8607 O   0  0  0  0  0  0  0  0  0  0  0  0
    9.0164  -18.2981   29.7818 O   0  0  0  0  0  0  0  0  0  0  0  0
    6.3571  -12.8584   26.4595 C   0  0  0  0  0  0  0  0  0  0  0  0
    7.4965  -13.8033   26.1059 C   0  0  2  0  0  0  0  0  0  0  0  0
    6.9741  -15.1523   26.0186 N   0  0  0  0  0  0  0  0  0  0  0  0
    8.5015  -13.7423   27.2015 C   0  0  0  0  0  0  0  0  0  0  0  0
    9.1052  -12.6749   27.4428 O   0  0  0  0  0  0  0  0  0  0  0  0
    8.8036  -14.8465   27.9855 O   0  0  0  0  0  0  0  0  0  0  0  0
  2  1  1  6
  3  2  1  0
  4  3  1  0
  5  4  1  0
  6  5  1  0
  7  6  1  0
  8  2  1  0
  8  9  2  0
 10  8  1  0
 11 10  1  0
 11 12  1  1
 12 13  1  0
 14 13  1  0
 15 14  2  0
 16 11  1  0
 17 16  2  0
 18 14  1  0
 20 19  1  1
 20 21  1  0
 21 16  1  0
 22 24  1  0
 22 20  1  0
 23 22  2  0
M  END
$$$$
