KEA.pdb
     RDKit          3D

 24 23  0  0  1  0  0  0  0  0999 V2000
    6.1504  -15.7030   21.2193 N   0  0  0  0  0  0  0  0  0  0  0  0
    7.4159  -15.1224   21.4914 C   0  0  1  0  0  0  0  0  0  0  0  0
    7.5364  -13.6498   21.3765 C   0  0  0  0  0  0  0  0  0  0  0  0
    7.4739  -13.1078   19.9993 C   0  0  0  0  0  0  0  0  0  0  0  0
    8.3901  -13.7884   19.0371 C   0  0  0  0  0  0  0  0  0  0  0  0
    8.1559  -13.2007   17.6405 C   0  0  0  0  0  0  0  0  0  0  0  0
    8.9984  -13.9052   16.7091 N   0  0  0  0  0  0  0  0  0  0  0  0
    8.0019  -15.6260   22.7882 C   0  0  0  0  0  0  0  0  0  0  0  0
    7.2459  -15.6129   23.7687 O   0  0  0  0  0  0  0  0  0  0  0  0
    9.3199  -16.0935   22.9321 N   0  0  0  0  0  0  0  0  0  0  0  0
    9.7381  -16.6273   24.1796 C   0  0  1  0  0  0  0  0  0  0  0  0
   10.9879  -17.5058   24.0593 C   0  0  0  0  0  0  0  0  0  0  0  0
   11.3128  -18.1268   25.4170 C   0  0  0  0  0  0  0  0  0  0  0  0
   12.5441  -18.9173   25.3815 C   0  0  0  0  0  0  0  0  0  0  0  0
   13.5054  -18.6254   24.6252 O   0  0  0  0  0  0  0  0  0  0  0  0
   10.0129  -15.6552   25.2416 C   0  0  0  0  0  0  0  0  0  0  0  0
   10.8824  -14.7632   24.9444 O   0  0  0  0  0  0  0  0  0  0  0  0
   12.6717  -20.0249   26.1987 O   0  0  0  0  0  0  0  0  0  0  0  0
    8.5055  -13.7346   27.6921 C   0  0  0  0  0  0  0  0  0  0  0  0
    9.7509  -14.5689   27.4302 C   0  0  2  0  0  0  0  0  0  0  0  0
    9.4128  -15.6356   26.5090 N   0  0  0  0  0  0  0  0  0  0  0  0
   10.1861  -15.1641   28.7226 C   0  0  0  0  0  0  0  0  0  0  0  0
   10.1443  -16.4018   28.8909 O   0  0  0  0  0  0  0  0  0  0  0  0
   10.6479  -14.3847   29.7736 O   0  0  0  0  0  0  0  0  0  0  0  0
  2  1  1  1
  3  2  1  0
  4  3  1  0
  5  4  1  0
  6  5  1  0
  7  6  1  0
  8  2  1  0
  8  9  2  0
 10  8  1  0
 11 10  1  0
 11 12  1  6
 12 13  1  0
 14 13  1  0
 15 14  2  0
 16 11  1  0
 17 16  2  0
 18 14  1  0
 20 19  1  1
 20 21  1  0
 21 16  1  0
 22 24  1  0
 22 20  1  0
 23 22  2  0
M  END
$$$$
