KEA.pdb
     RDKit          3D

 24 23  0  0  1  0  0  0  0  0999 V2000
    8.0817  -14.1892   17.1130 N   0  0  0  0  0  0  0  0  0  0  0  0
    8.9517  -13.5160   18.0088 C   0  0  1  0  0  0  0  0  0  0  0  0
    8.3394  -12.7761   19.1373 C   0  0  0  0  0  0  0  0  0  0  0  0
    8.0939  -13.5686   20.3645 C   0  0  0  0  0  0  0  0  0  0  0  0
    7.5477  -12.7717   21.5024 C   0  0  0  0  0  0  0  0  0  0  0  0
    7.2845  -13.7180   22.6797 C   0  0  0  0  0  0  0  0  0  0  0  0
    6.7892  -12.9363   23.7830 N   0  0  0  0  0  0  0  0  0  0  0  0
   10.0793  -14.4040   18.4763 C   0  0  0  0  0  0  0  0  0  0  0  0
    9.7645  -15.5547   18.8079 O   0  0  0  0  0  0  0  0  0  0  0  0
   11.4243  -14.0018   18.5511 N   0  0  0  0  0  0  0  0  0  0  0  0
   12.3911  -14.8960   19.0820 C   0  0  1  0  0  0  0  0  0  0  0  0
   13.8296  -14.4423   18.8120 C   0  0  0  0  0  0  0  0  0  0  0  0
   14.8078  -15.4801   19.3603 C   0  0  0  0  0  0  0  0  0  0  0  0
   16.1985  -15.1447   19.0509 C   0  0  0  0  0  0  0  0  0  0  0  0
   16.8369  -14.2747   19.6967 O   0  0  0  0  0  0  0  0  0  0  0  0
   12.3029  -15.1676   20.5197 C   0  0  0  0  0  0  0  0  0  0  0  0
   12.4263  -14.1383   21.2715 O   0  0  0  0  0  0  0  0  0  0  0  0
   16.8472  -15.7949   18.0179 O   0  0  0  0  0  0  0  0  0  0  0  0
   11.1019  -17.6653   22.9222 C   0  0  0  0  0  0  0  0  0  0  0  0
   12.0426  -16.5288   22.5489 C   0  0  2  0  0  0  0  0  0  0  0  0
   12.1003  -16.4261   21.1044 N   0  0  0  0  0  0  0  0  0  0  0  0
   13.3970  -16.8641   23.0657 C   0  0  0  0  0  0  0  0  0  0  0  0
   14.3181  -17.1567   22.2732 O   0  0  0  0  0  0  0  0  0  0  0  0
   13.6878  -16.8653   24.4224 O   0  0  0  0  0  0  0  0  0  0  0  0
  2  1  1  1
  3  2  1  0
  4  3  1  0
  5  4  1  0
  6  5  1  0
  7  6  1  0
  8  2  1  0
  8  9  2  0
 10  8  1  0
 11 10  1  0
 11 12  1  1
 12 13  1  0
 14 13  1  0
 15 14  2  0
 16 11  1  0
 17 16  2  0
 18 14  1  0
 20 19  1  6
 20 21  1  0
 21 16  1  0
 22 24  1  0
 22 20  1  0
 23 22  2  0
M  END
$$$$
