KEA.pdb
     RDKit          3D

 24 23  0  0  1  0  0  0  0  0999 V2000
    5.9295  -16.6871   21.4164 N   0  0  0  0  0  0  0  0  0  0  0  0
    7.1853  -16.0765   21.6670 C   0  0  1  0  0  0  0  0  0  0  0  0
    7.3247  -14.6351   21.3526 C   0  0  0  0  0  0  0  0  0  0  0  0
    7.7758  -14.3205   19.9771 C   0  0  0  0  0  0  0  0  0  0  0  0
    7.8637  -12.8590   19.6865 C   0  0  0  0  0  0  0  0  0  0  0  0
    8.2118  -12.6755   18.2046 C   0  0  0  0  0  0  0  0  0  0  0  0
    8.2249  -11.2646   17.9171 N   0  0  0  0  0  0  0  0  0  0  0  0
    7.7024  -16.3938   23.0492 C   0  0  0  0  0  0  0  0  0  0  0  0
    6.8828  -16.2979   23.9724 O   0  0  0  0  0  0  0  0  0  0  0  0
    9.0246  -16.7800   23.3301 N   0  0  0  0  0  0  0  0  0  0  0  0
    9.4055  -17.0377   24.6734 C   0  0  1  0  0  0  0  0  0  0  0  0
   10.5397  -18.0624   24.7818 C   0  0  0  0  0  0  0  0  0  0  0  0
   10.8557  -18.3262   26.2532 C   0  0  0  0  0  0  0  0  0  0  0  0
   11.8956  -19.3425   26.4203 C   0  0  0  0  0  0  0  0  0  0  0  0
   12.3270  -19.6791   27.5526 O   0  0  0  0  0  0  0  0  0  0  0  0
    9.8174  -15.8750   25.4653 C   0  0  0  0  0  0  0  0  0  0  0  0
   10.8472  -15.2573   25.0206 O   0  0  0  0  0  0  0  0  0  0  0  0
   12.4334  -19.9628   25.3081 O   0  0  0  0  0  0  0  0  0  0  0  0
    8.6871  -13.2769   27.6441 C   0  0  0  0  0  0  0  0  0  0  0  0
    9.7737  -14.3016   27.3522 C   0  0  2  0  0  0  0  0  0  0  0  0
    9.1862  -15.4115   26.6287 N   0  0  0  0  0  0  0  0  0  0  0  0
   10.3016  -14.7956   28.6527 C   0  0  0  0  0  0  0  0  0  0  0  0
   10.1080  -15.9801   29.0011 O   0  0  0  0  0  0  0  0  0  0  0  0
   11.0172  -13.9775   29.5152 O   0  0  0  0  0  0  0  0  0  0  0  0
  2  1  1  1
  3  2  1  0
  4  3  1  0
  5  4  1  0
  6  5  1  0
  7  6  1  0
  8  2  1  0
  8  9  2  0
 10  8  1  0
 11 10  1  0
 11 12  1  6
 12 13  1  0
 14 13  1  0
 15 14  2  0
 16 11  1  0
 17 16  2  0
 18 14  1  0
 20 19  1  1
 20 21  1  0
 21 16  1  0
 22 24  1  0
 22 20  1  0
 23 22  2  0
M  END
$$$$
