KEA.pdb
     RDKit          3D

 24 23  0  0  1  0  0  0  0  0999 V2000
    9.5912  -19.1254   17.6177 N   0  0  0  0  0  0  0  0  0  0  0  0
    9.0976  -18.3370   18.6888 C   0  0  1  0  0  0  0  0  0  0  0  0
    7.6943  -18.5536   19.1131 C   0  0  0  0  0  0  0  0  0  0  0  0
    6.6709  -18.3703   18.0579 C   0  0  0  0  0  0  0  0  0  0  0  0
    6.2989  -19.6296   17.3480 C   0  0  0  0  0  0  0  0  0  0  0  0
    5.2427  -19.2987   16.2869 C   0  0  0  0  0  0  0  0  0  0  0  0
    4.9252  -20.5096   15.5754 N   0  0  0  0  0  0  0  0  0  0  0  0
   10.0384  -18.3344   19.8693 C   0  0  0  0  0  0  0  0  0  0  0  0
    9.6301  -18.9005   20.8920 O   0  0  0  0  0  0  0  0  0  0  0  0
   11.3126  -17.7406   19.8644 N   0  0  0  0  0  0  0  0  0  0  0  0
   12.1533  -17.8842   20.9996 C   0  0  1  0  0  0  0  0  0  0  0  0
   13.6385  -17.7148   20.6625 C   0  0  0  0  0  0  0  0  0  0  0  0
   14.1638  -18.9872   19.9994 C   0  0  0  0  0  0  0  0  0  0  0  0
   15.5604  -18.8552   19.5817 C   0  0  0  0  0  0  0  0  0  0  0  0
   16.5176  -19.1263   20.3507 O   0  0  0  0  0  0  0  0  0  0  0  0
   11.8777  -16.9901   22.1279 C   0  0  0  0  0  0  0  0  0  0  0  0
   12.5282  -15.8872   22.1133 O   0  0  0  0  0  0  0  0  0  0  0  0
   15.8556  -18.4188   18.3037 O   0  0  0  0  0  0  0  0  0  0  0  0
    9.4666  -15.6371   24.1427 C   0  0  0  0  0  0  0  0  0  0  0  0
   10.8467  -16.2709   24.2393 C   0  0  2  0  0  0  0  0  0  0  0  0
   10.9863  -17.2492   23.1791 N   0  0  0  0  0  0  0  0  0  0  0  0
   10.9444  -16.9625   25.5532 C   0  0  0  0  0  0  0  0  0  0  0  0
   10.9170  -18.2106   25.6107 O   0  0  0  0  0  0  0  0  0  0  0  0
   11.0681  -16.2637   26.7455 O   0  0  0  0  0  0  0  0  0  0  0  0
  2  1  1  6
  3  2  1  0
  4  3  1  0
  5  4  1  0
  6  5  1  0
  7  6  1  0
  8  2  1  0
  8  9  2  0
 10  8  1  0
 11 10  1  0
 11 12  1  6
 12 13  1  0
 14 13  1  0
 15 14  2  0
 16 11  1  0
 17 16  2  0
 18 14  1  0
 20 19  1  6
 20 21  1  0
 21 16  1  0
 22 24  1  0
 22 20  1  0
 23 22  2  0
M  END
$$$$
