KEA.pdb
     RDKit          3D

 24 23  0  0  1  0  0  0  0  0999 V2000
    7.3722  -18.3814   16.8966 N   0  0  0  0  0  0  0  0  0  0  0  0
    8.6421  -17.7870   17.1127 C   0  0  1  0  0  0  0  0  0  0  0  0
    8.7391  -16.3122   17.0043 C   0  0  0  0  0  0  0  0  0  0  0  0
    8.2192  -15.7271   15.7466 C   0  0  0  0  0  0  0  0  0  0  0  0
    8.3711  -14.2447   15.6587 C   0  0  0  0  0  0  0  0  0  0  0  0
    7.7495  -13.7671   14.3410 C   0  0  0  0  0  0  0  0  0  0  0  0
    7.8424  -12.3309   14.2944 N   0  0  0  0  0  0  0  0  0  0  0  0
    9.2958  -18.2931   18.3756 C   0  0  0  0  0  0  0  0  0  0  0  0
    8.5302  -18.6088   19.2961 O   0  0  0  0  0  0  0  0  0  0  0  0
   10.6848  -18.4194   18.5518 N   0  0  0  0  0  0  0  0  0  0  0  0
   11.1922  -18.8535   19.8048 C   0  0  1  0  0  0  0  0  0  0  0  0
   12.4445  -19.7260   19.6672 C   0  0  0  0  0  0  0  0  0  0  0  0
   12.8436  -20.2726   21.0370 C   0  0  0  0  0  0  0  0  0  0  0  0
   14.0945  -21.0307   20.9851 C   0  0  0  0  0  0  0  0  0  0  0  0
   15.1697  -20.5816   21.4580 O   0  0  0  0  0  0  0  0  0  0  0  0
   11.5217  -17.8014   20.7708 C   0  0  0  0  0  0  0  0  0  0  0  0
   12.3213  -16.9009   20.3355 O   0  0  0  0  0  0  0  0  0  0  0  0
   14.1136  -22.2831   20.4002 O   0  0  0  0  0  0  0  0  0  0  0  0
   10.2828  -16.4015   23.9650 C   0  0  0  0  0  0  0  0  0  0  0  0
   11.3241  -16.5267   22.8623 C   0  0  2  0  0  0  0  0  0  0  0  0
   11.0402  -17.7167   22.0853 N   0  0  0  0  0  0  0  0  0  0  0  0
   12.6585  -16.6736   23.5041 C   0  0  0  0  0  0  0  0  0  0  0  0
   13.1804  -15.7061   24.0987 O   0  0  0  0  0  0  0  0  0  0  0  0
   13.3643  -17.8677   23.4701 O   0  0  0  0  0  0  0  0  0  0  0  0
  2  1  1  1
  3  2  1  0
  4  3  1  0
  5  4  1  0
  6  5  1  0
  7  6  1  0
  8  2  1  0
  8  9  2  0
 10  8  1  0
 11 10  1  0
 11 12  1  6
 12 13  1  0
 14 13  1  0
 15 14  2  0
 16 11  1  0
 17 16  2  0
 18 14  1  0
 20 19  1  1
 20 21  1  0
 21 16  1  0
 22 24  1  0
 22 20  1  0
 23 22  2  0
M  END
$$$$
