KEA.pdb
     RDKit          3D

 24 23  0  0  1  0  0  0  0  0999 V2000
    8.5216  -17.5554   21.3662 N   0  0  0  0  0  0  0  0  0  0  0  0
    9.2737  -16.4078   21.7265 C   0  0  1  0  0  0  0  0  0  0  0  0
    8.6501  -15.0808   21.5115 C   0  0  0  0  0  0  0  0  0  0  0  0
    8.5338  -14.6493   20.0991 C   0  0  0  0  0  0  0  0  0  0  0  0
    7.8520  -13.3334   19.9207 C   0  0  0  0  0  0  0  0  0  0  0  0
    7.7440  -13.0386   18.4200 C   0  0  0  0  0  0  0  0  0  0  0  0
    7.0076  -11.8122   18.2544 N   0  0  0  0  0  0  0  0  0  0  0  0
    9.8570  -16.5267   23.1137 C   0  0  0  0  0  0  0  0  0  0  0  0
    9.0954  -16.9581   23.9894 O   0  0  0  0  0  0  0  0  0  0  0  0
   11.1784  -16.1830   23.4486 N   0  0  0  0  0  0  0  0  0  0  0  0
   11.6253  -16.3514   24.7857 C   0  0  1  0  0  0  0  0  0  0  0  0
   13.1530  -16.3557   24.9041 C   0  0  0  0  0  0  0  0  0  0  0  0
   13.7243  -17.5536   24.1469 C   0  0  0  0  0  0  0  0  0  0  0  0
   14.9772  -17.2279   23.4640 C   0  0  0  0  0  0  0  0  0  0  0  0
   15.8256  -16.4433   23.9600 O   0  0  0  0  0  0  0  0  0  0  0  0
   11.1346  -15.3738   25.7615 C   0  0  0  0  0  0  0  0  0  0  0  0
   11.3258  -14.1490   25.4404 O   0  0  0  0  0  0  0  0  0  0  0  0
   15.2535  -17.7914   22.2324 O   0  0  0  0  0  0  0  0  0  0  0  0
    8.6834  -14.2774   27.7454 C   0  0  0  0  0  0  0  0  0  0  0  0
   10.1653  -14.5959   27.8812 C   0  0  2  0  0  0  0  0  0  0  0  0
   10.4957  -15.6757   26.9728 N   0  0  0  0  0  0  0  0  0  0  0  0
   10.4133  -15.0443   29.2782 C   0  0  0  0  0  0  0  0  0  0  0  0
   10.7089  -16.2357   29.5133 O   0  0  0  0  0  0  0  0  0  0  0  0
   10.3288  -14.1750   30.3564 O   0  0  0  0  0  0  0  0  0  0  0  0
  2  1  1  1
  3  2  1  0
  4  3  1  0
  5  4  1  0
  6  5  1  0
  7  6  1  0
  8  2  1  0
  8  9  2  0
 10  8  1  0
 11 10  1  0
 11 12  1  6
 12 13  1  0
 14 13  1  0
 15 14  2  0
 16 11  1  0
 17 16  2  0
 18 14  1  0
 20 19  1  1
 20 21  1  0
 21 16  1  0
 22 24  1  0
 22 20  1  0
 23 22  2  0
M  END
$$$$
