HTY.pdb
     RDKit          3D

 30 31  0  0  1  0  0  0  0  0999 V2000
   11.8229  -16.8088   18.2552 N   0  0  0  0  0  0  0  0  0  0  0  0
   11.0887  -17.4501   19.3139 C   0  0  1  0  0  0  0  0  0  0  0  0
   12.0209  -18.5099   19.9084 C   0  0  0  0  0  0  0  0  0  0  0  0
   12.1622  -19.5705   18.8777 C   0  0  0  0  0  0  0  0  0  0  0  0
   11.1700  -20.3301   18.2935 C   0  0  0  0  0  0  0  0  0  0  0  0
   11.7217  -21.1743   17.4118 N   0  0  0  0  0  0  0  0  0  0  0  0
   13.0561  -20.9559   17.4322 C   0  0  0  0  0  0  0  0  0  0  0  0
   13.3242  -19.9864   18.3180 N   0  0  0  0  0  0  0  0  0  0  0  0
   10.6680  -16.4708   20.3458 C   0  0  0  0  0  0  0  0  0  0  0  0
   11.5435  -15.7637   20.8868 O   0  0  0  0  0  0  0  0  0  0  0  0
    7.6516  -13.7124   20.3268 C   0  0  0  0  0  0  0  0  0  0  0  0
    7.5512  -14.7375   21.4518 C   0  0  1  0  0  0  0  0  0  0  0  0
    6.4984  -15.6102   21.2639 O   0  0  0  0  0  0  0  0  0  0  0  0
    8.8546  -15.3977   21.7350 C   0  0  2  0  0  0  0  0  0  0  0  0
    9.3415  -16.2977   20.7450 N   0  0  0  0  0  0  0  0  0  0  0  0
    8.7458  -16.1063   23.0386 C   0  0  0  0  0  0  0  0  0  0  0  0
    8.7438  -17.3595   23.1301 O   0  0  0  0  0  0  0  0  0  0  0  0
    5.4178  -10.5085   26.7113 O   0  0  0  0  0  0  0  0  0  0  0  0
    6.2352  -11.6389   26.6970 C   0  0  0  0  0  0  0  0  0  0  0  0
    5.8034  -12.8256   27.2301 C   0  0  0  0  0  0  0  0  0  0  0  0
    6.5920  -13.9533   27.2271 C   0  0  0  0  0  0  0  0  0  0  0  0
    7.8675  -13.9385   26.6806 C   0  0  0  0  0  0  0  0  0  0  0  0
    8.7427  -15.1175   26.6734 C   0  0  0  0  0  0  0  0  0  0  0  0
    8.5016  -16.0714   25.5308 C   0  0  2  0  0  0  0  0  0  0  0  0
    8.6383  -15.3803   24.2548 N   0  0  0  0  0  0  0  0  0  0  0  0
    7.1783  -16.6876   25.6538 C   0  0  0  0  0  0  0  0  0  0  0  0
    6.9679  -17.6097   26.6790 O   0  0  0  0  0  0  0  0  0  0  0  0
    8.3059  -12.7380   26.1409 C   0  0  0  0  0  0  0  0  0  0  0  0
    7.5046  -11.6344   26.1562 C   0  0  0  0  0  0  0  0  0  0  0  0
    6.2208  -16.4384   24.8947 O   0  0  0  0  0  0  0  0  0  0  0  0
  2  1  1  6
  2  3  1  0
  4  3  1  0
  4  8  1  0
  5  4  2  0
  6  5  1  0
  6  7  1  0
  7  8  2  0
  9 10  2  0
  9  2  1  0
 12 11  1  6
 12 14  1  0
 13 12  1  0
 14 15  1  6
 15  9  1  0
 16 25  1  0
 16 14  1  0
 17 16  2  0
 18 19  1  0
 19 29  2  0
 20 19  1  0
 20 21  2  0
 21 22  1  0
 22 28  2  0
 22 23  1  0
 24 23  1  1
 24 25  1  0
 24 26  1  0
 26 27  1  0
 29 28  1  0
 30 26  2  0
M  END
$$$$
