HTY.pdb
     RDKit          3D

 30 31  0  0  1  0  0  0  0  0999 V2000
    7.7852  -16.7807   20.1514 N   0  0  0  0  0  0  0  0  0  0  0  0
    8.4858  -16.0261   21.1566 C   0  0  1  0  0  0  0  0  0  0  0  0
    7.7251  -14.7066   21.3176 C   0  0  0  0  0  0  0  0  0  0  0  0
    8.0069  -13.9078   20.0971 C   0  0  0  0  0  0  0  0  0  0  0  0
    8.8063  -14.2428   19.0240 C   0  0  0  0  0  0  0  0  0  0  0  0
    8.7908  -13.2428   18.1328 N   0  0  0  0  0  0  0  0  0  0  0  0
    7.9878  -12.2761   18.6325 C   0  0  0  0  0  0  0  0  0  0  0  0
    7.5130  -12.6767   19.8202 N   0  0  0  0  0  0  0  0  0  0  0  0
    8.5457  -16.7670   22.4405 C   0  0  0  0  0  0  0  0  0  0  0  0
    7.5821  -17.4980   22.7509 O   0  0  0  0  0  0  0  0  0  0  0  0
   10.0719  -19.7651   23.7006 C   0  0  0  0  0  0  0  0  0  0  0  0
   10.6932  -18.6062   24.4738 C   0  0  1  0  0  0  0  0  0  0  0  0
   11.9777  -18.3312   24.0497 O   0  0  0  0  0  0  0  0  0  0  0  0
    9.7973  -17.4193   24.5328 C   0  0  2  0  0  0  0  0  0  0  0  0
    9.6253  -16.6899   23.3222 N   0  0  0  0  0  0  0  0  0  0  0  0
   10.3007  -16.5066   25.5943 C   0  0  0  0  0  0  0  0  0  0  0  0
   11.1071  -15.5725   25.3577 O   0  0  0  0  0  0  0  0  0  0  0  0
    6.1652  -11.9295   24.9113 O   0  0  0  0  0  0  0  0  0  0  0  0
    6.9063  -12.6858   25.8195 C   0  0  0  0  0  0  0  0  0  0  0  0
    8.1184  -12.2415   26.2804 C   0  0  0  0  0  0  0  0  0  0  0  0
    8.8667  -12.9702   27.1763 C   0  0  0  0  0  0  0  0  0  0  0  0
    8.4242  -14.1950   27.6557 C   0  0  0  0  0  0  0  0  0  0  0  0
    9.2023  -15.0070   28.5998 C   0  0  0  0  0  0  0  0  0  0  0  0
   10.3578  -15.7532   27.9820 C   0  0  2  0  0  0  0  0  0  0  0  0
    9.8811  -16.6575   26.9430 N   0  0  0  0  0  0  0  0  0  0  0  0
   11.1001  -16.4836   29.0122 C   0  0  0  0  0  0  0  0  0  0  0  0
   11.1594  -17.8747   28.9274 O   0  0  0  0  0  0  0  0  0  0  0  0
    7.1978  -14.6461   27.1898 C   0  0  0  0  0  0  0  0  0  0  0  0
    6.4752  -13.9046   26.3019 C   0  0  0  0  0  0  0  0  0  0  0  0
   11.6868  -15.9370   29.9673 O   0  0  0  0  0  0  0  0  0  0  0  0
  2  1  1  6
  2  3  1  0
  4  3  1  0
  4  8  1  0
  5  4  2  0
  6  5  1  0
  6  7  1  0
  7  8  2  0
  9 10  2  0
  9  2  1  0
 12 11  1  6
 12 14  1  0
 13 12  1  0
 14 15  1  6
 15  9  1  0
 16 25  1  0
 16 14  1  0
 17 16  2  0
 18 19  1  0
 19 29  2  0
 20 19  1  0
 20 21  2  0
 21 22  1  0
 22 28  2  0
 22 23  1  0
 24 23  1  1
 24 25  1  0
 24 26  1  0
 26 27  1  0
 29 28  1  0
 30 26  2  0
M  END
$$$$
