HTY.pdb
     RDKit          3D

 30 31  0  0  1  0  0  0  0  0999 V2000
    8.6239  -16.5171   19.5946 N   0  0  0  0  0  0  0  0  0  0  0  0
    8.5242  -15.6316   20.7247 C   0  0  1  0  0  0  0  0  0  0  0  0
    7.3361  -14.7058   20.4471 C   0  0  0  0  0  0  0  0  0  0  0  0
    7.7086  -13.8878   19.2641 C   0  0  0  0  0  0  0  0  0  0  0  0
    8.4084  -12.6995   19.2348 C   0  0  0  0  0  0  0  0  0  0  0  0
    8.5307  -12.2904   17.9651 N   0  0  0  0  0  0  0  0  0  0  0  0
    7.9138  -13.2102   17.1889 C   0  0  0  0  0  0  0  0  0  0  0  0
    7.4162  -14.1768   17.9729 N   0  0  0  0  0  0  0  0  0  0  0  0
    8.3269  -16.3889   21.9850 C   0  0  0  0  0  0  0  0  0  0  0  0
    7.4473  -17.2747   22.0153 O   0  0  0  0  0  0  0  0  0  0  0  0
    9.0073  -19.2453   23.1334 C   0  0  0  0  0  0  0  0  0  0  0  0
    9.8348  -18.3423   24.0426 C   0  0  1  0  0  0  0  0  0  0  0  0
   11.1525  -18.2689   23.6381 O   0  0  0  0  0  0  0  0  0  0  0  0
    9.1870  -17.0221   24.2717 C   0  0  2  0  0  0  0  0  0  0  0  0
    9.0746  -16.1628   23.1420 N   0  0  0  0  0  0  0  0  0  0  0  0
    9.9260  -16.3212   25.3561 C   0  0  0  0  0  0  0  0  0  0  0  0
   10.9039  -15.5653   25.1301 O   0  0  0  0  0  0  0  0  0  0  0  0
    6.3254  -11.1387   25.4504 O   0  0  0  0  0  0  0  0  0  0  0  0
    7.0298  -12.0683   26.2158 C   0  0  0  0  0  0  0  0  0  0  0  0
    8.3060  -11.8058   26.6417 C   0  0  0  0  0  0  0  0  0  0  0  0
    9.0199  -12.7073   27.3974 C   0  0  0  0  0  0  0  0  0  0  0  0
    8.4754  -13.9300   27.7641 C   0  0  0  0  0  0  0  0  0  0  0  0
    9.2125  -14.9226   28.5563 C   0  0  0  0  0  0  0  0  0  0  0  0
   10.2150  -15.7319   27.7730 C   0  0  2  0  0  0  0  0  0  0  0  0
    9.5478  -16.4816   26.7159 N   0  0  0  0  0  0  0  0  0  0  0  0
   10.9529  -16.6288   28.6656 C   0  0  0  0  0  0  0  0  0  0  0  0
   11.8106  -16.0666   29.6112 O   0  0  0  0  0  0  0  0  0  0  0  0
    7.1840  -14.1972   27.3336 C   0  0  0  0  0  0  0  0  0  0  0  0
    6.4975  -13.2865   26.5854 C   0  0  0  0  0  0  0  0  0  0  0  0
   10.8625  -17.8722   28.6339 O   0  0  0  0  0  0  0  0  0  0  0  0
  2  1  1  6
  2  3  1  0
  4  3  1  0
  4  8  1  0
  5  4  2  0
  6  5  1  0
  6  7  1  0
  7  8  2  0
  9 10  2  0
  9  2  1  0
 12 11  1  6
 12 14  1  0
 13 12  1  0
 14 15  1  6
 15  9  1  0
 16 25  1  0
 16 14  1  0
 17 16  2  0
 18 19  1  0
 19 29  2  0
 20 19  1  0
 20 21  2  0
 21 22  1  0
 22 28  2  0
 22 23  1  0
 24 23  1  1
 24 25  1  0
 24 26  1  0
 26 27  1  0
 29 28  1  0
 30 26  2  0
M  END
$$$$
