HTY.pdb
     RDKit          3D

 30 31  0  0  1  0  0  0  0  0999 V2000
    7.8469  -16.7424   19.9258 N   0  0  0  0  0  0  0  0  0  0  0  0
    8.2526  -15.8763   21.0011 C   0  0  1  0  0  0  0  0  0  0  0  0
    7.2692  -14.7022   21.0072 C   0  0  0  0  0  0  0  0  0  0  0  0
    7.6535  -13.8267   19.8701 C   0  0  0  0  0  0  0  0  0  0  0  0
    6.9437  -13.5659   18.7164 C   0  0  0  0  0  0  0  0  0  0  0  0
    7.6452  -12.7224   17.9477 N   0  0  0  0  0  0  0  0  0  0  0  0
    8.7944  -12.4463   18.6050 C   0  0  0  0  0  0  0  0  0  0  0  0
    8.8010  -13.1132   19.7676 N   0  0  0  0  0  0  0  0  0  0  0  0
    8.2381  -16.5907   22.3012 C   0  0  0  0  0  0  0  0  0  0  0  0
    7.2129  -17.2294   22.6176 O   0  0  0  0  0  0  0  0  0  0  0  0
    9.6337  -19.6325   23.5918 C   0  0  0  0  0  0  0  0  0  0  0  0
   10.2364  -18.5174   24.4403 C   0  0  1  0  0  0  0  0  0  0  0  0
   11.5693  -18.3083   24.1487 O   0  0  0  0  0  0  0  0  0  0  0  0
    9.4034  -17.2841   24.4298 C   0  0  2  0  0  0  0  0  0  0  0  0
    9.3132  -16.5866   23.1919 N   0  0  0  0  0  0  0  0  0  0  0  0
    9.9171  -16.3647   25.4806 C   0  0  0  0  0  0  0  0  0  0  0  0
   10.7411  -15.4484   25.2348 O   0  0  0  0  0  0  0  0  0  0  0  0
    6.5041  -11.0629   24.7946 O   0  0  0  0  0  0  0  0  0  0  0  0
    7.0781  -11.9735   25.6819 C   0  0  0  0  0  0  0  0  0  0  0  0
    6.3247  -12.9618   26.2604 C   0  0  0  0  0  0  0  0  0  0  0  0
    6.8692  -13.8710   27.1382 C   0  0  0  0  0  0  0  0  0  0  0  0
    8.2138  -13.8270   27.4786 C   0  0  0  0  0  0  0  0  0  0  0  0
    8.8258  -14.7703   28.4228 C   0  0  0  0  0  0  0  0  0  0  0  0
    9.9695  -15.5729   27.8559 C   0  0  2  0  0  0  0  0  0  0  0  0
    9.4878  -16.4882   26.8289 N   0  0  0  0  0  0  0  0  0  0  0  0
   10.6589  -16.3002   28.9244 C   0  0  0  0  0  0  0  0  0  0  0  0
   10.7298  -17.6908   28.8426 O   0  0  0  0  0  0  0  0  0  0  0  0
    8.9775  -12.8271   26.8940 C   0  0  0  0  0  0  0  0  0  0  0  0
    8.4137  -11.9381   26.0267 C   0  0  0  0  0  0  0  0  0  0  0  0
   11.1905  -15.7511   29.9099 O   0  0  0  0  0  0  0  0  0  0  0  0
  2  1  1  6
  2  3  1  0
  4  3  1  0
  4  8  1  0
  5  4  2  0
  6  5  1  0
  6  7  1  0
  7  8  2  0
  9 10  2  0
  9  2  1  0
 12 11  1  6
 12 14  1  0
 13 12  1  0
 14 15  1  6
 15  9  1  0
 16 25  1  0
 16 14  1  0
 17 16  2  0
 18 19  1  0
 19 29  2  0
 20 19  1  0
 20 21  2  0
 21 22  1  0
 22 28  2  0
 22 23  1  0
 24 23  1  1
 24 25  1  0
 24 26  1  0
 26 27  1  0
 29 28  1  0
 30 26  2  0
M  END
$$$$
