HTY.pdb
     RDKit          3D

 30 31  0  0  1  0  0  0  0  0999 V2000
    8.5419  -16.5974   19.7782 N   0  0  0  0  0  0  0  0  0  0  0  0
    8.5111  -15.5627   20.7779 C   0  0  1  0  0  0  0  0  0  0  0  0
    7.3297  -14.6538   20.4255 C   0  0  0  0  0  0  0  0  0  0  0  0
    7.6665  -14.0112   19.1290 C   0  0  0  0  0  0  0  0  0  0  0  0
    8.2696  -12.7894   18.9137 C   0  0  0  0  0  0  0  0  0  0  0  0
    8.3919  -12.5837   17.5957 N   0  0  0  0  0  0  0  0  0  0  0  0
    7.8711  -13.6656   16.9735 C   0  0  0  0  0  0  0  0  0  0  0  0
    7.4321  -14.5297   17.8992 N   0  0  0  0  0  0  0  0  0  0  0  0
    8.3568  -16.1341   22.1382 C   0  0  0  0  0  0  0  0  0  0  0  0
    7.2482  -16.6091   22.4617 O   0  0  0  0  0  0  0  0  0  0  0  0
    9.2745  -19.2569   23.4083 C   0  0  0  0  0  0  0  0  0  0  0  0
   10.0755  -18.2522   24.2303 C   0  0  1  0  0  0  0  0  0  0  0  0
   11.4037  -18.2197   23.8561 O   0  0  0  0  0  0  0  0  0  0  0  0
    9.4199  -16.9173   24.2890 C   0  0  2  0  0  0  0  0  0  0  0  0
    9.3884  -16.1690   23.0782 N   0  0  0  0  0  0  0  0  0  0  0  0
   10.0871  -16.1157   25.3500 C   0  0  0  0  0  0  0  0  0  0  0  0
   11.0106  -15.3003   25.1027 O   0  0  0  0  0  0  0  0  0  0  0  0
    5.9336  -11.1822   25.5085 O   0  0  0  0  0  0  0  0  0  0  0  0
    6.7437  -12.0445   26.2475 C   0  0  0  0  0  0  0  0  0  0  0  0
    6.2896  -13.2796   26.6315 C   0  0  0  0  0  0  0  0  0  0  0  0
    7.0707  -14.1468   27.3604 C   0  0  0  0  0  0  0  0  0  0  0  0
    8.3611  -13.8068   27.7414 C   0  0  0  0  0  0  0  0  0  0  0  0
    9.2175  -14.6997   28.5321 C   0  0  0  0  0  0  0  0  0  0  0  0
   10.2931  -15.4006   27.7413 C   0  0  2  0  0  0  0  0  0  0  0  0
    9.6987  -16.2424   26.7104 N   0  0  0  0  0  0  0  0  0  0  0  0
   11.1477  -16.1885   28.6327 C   0  0  0  0  0  0  0  0  0  0  0  0
   11.2249  -17.5667   28.4319 O   0  0  0  0  0  0  0  0  0  0  0  0
    8.8220  -12.5570   27.3536 C   0  0  0  0  0  0  0  0  0  0  0  0
    8.0278  -11.7159   26.6311 C   0  0  0  0  0  0  0  0  0  0  0  0
   11.8156  -15.7020   29.5668 O   0  0  0  0  0  0  0  0  0  0  0  0
  2  1  1  6
  2  3  1  0
  4  3  1  0
  4  8  1  0
  5  4  2  0
  6  5  1  0
  6  7  1  0
  7  8  2  0
  9 10  2  0
  9  2  1  0
 12 11  1  6
 12 14  1  0
 13 12  1  0
 14 15  1  6
 15  9  1  0
 16 25  1  0
 16 14  1  0
 17 16  2  0
 18 19  1  0
 19 29  2  0
 20 19  1  0
 20 21  2  0
 21 22  1  0
 22 28  2  0
 22 23  1  0
 24 23  1  1
 24 25  1  0
 24 26  1  0
 26 27  1  0
 29 28  1  0
 30 26  2  0
M  END
$$$$
