HTY.pdb
     RDKit          3D

 30 31  0  0  1  0  0  0  0  0999 V2000
    8.9484  -15.4000   14.0383 N   0  0  0  0  0  0  0  0  0  0  0  0
    8.3895  -16.0238   15.2085 C   0  0  1  0  0  0  0  0  0  0  0  0
    8.4998  -17.5356   14.9890 C   0  0  0  0  0  0  0  0  0  0  0  0
    7.4414  -17.8962   14.0107 C   0  0  0  0  0  0  0  0  0  0  0  0
    6.0976  -18.1019   14.2446 C   0  0  0  0  0  0  0  0  0  0  0  0
    5.4908  -18.4102   13.0909 N   0  0  0  0  0  0  0  0  0  0  0  0
    6.4394  -18.4015   12.1270 C   0  0  0  0  0  0  0  0  0  0  0  0
    7.6194  -18.0909   12.6815 N   0  0  0  0  0  0  0  0  0  0  0  0
    9.1124  -15.6092   16.4358 C   0  0  0  0  0  0  0  0  0  0  0  0
   10.3604  -15.6481   16.4328 O   0  0  0  0  0  0  0  0  0  0  0  0
    7.7003  -12.6952   19.2172 C   0  0  0  0  0  0  0  0  0  0  0  0
    8.2122  -14.0202   19.7731 C   0  0  1  0  0  0  0  0  0  0  0  0
    7.1945  -14.7855   20.3058 O   0  0  0  0  0  0  0  0  0  0  0  0
    9.0831  -14.7420   18.8058 C   0  0  2  0  0  0  0  0  0  0  0  0
    8.4692  -15.1767   17.5970 N   0  0  0  0  0  0  0  0  0  0  0  0
    9.6877  -15.9092   19.5025 C   0  0  0  0  0  0  0  0  0  0  0  0
    9.6136  -17.0797   19.0516 O   0  0  0  0  0  0  0  0  0  0  0  0
   15.2715  -21.6755   22.4674 O   0  0  0  0  0  0  0  0  0  0  0  0
   14.5218  -20.6088   21.9714 C   0  0  0  0  0  0  0  0  0  0  0  0
   13.2236  -20.4174   22.3676 C   0  0  0  0  0  0  0  0  0  0  0  0
   12.4650  -19.3724   21.8920 C   0  0  0  0  0  0  0  0  0  0  0  0
   12.9846  -18.4604   20.9842 C   0  0  0  0  0  0  0  0  0  0  0  0
   12.2005  -17.3428   20.4436 C   0  0  0  0  0  0  0  0  0  0  0  0
   11.0929  -16.8590   21.3451 C   0  0  2  0  0  0  0  0  0  0  0  0
   10.3865  -15.7433   20.7280 N   0  0  0  0  0  0  0  0  0  0  0  0
   11.6316  -16.4789   22.6531 C   0  0  0  0  0  0  0  0  0  0  0  0
   11.4084  -17.3294   23.7359 O   0  0  0  0  0  0  0  0  0  0  0  0
   14.2983  -18.6529   20.5821 C   0  0  0  0  0  0  0  0  0  0  0  0
   15.0290  -19.6968   21.0687 C   0  0  0  0  0  0  0  0  0  0  0  0
   12.2820  -15.4356   22.8619 O   0  0  0  0  0  0  0  0  0  0  0  0
  2  1  1  6
  2  3  1  0
  4  3  1  0
  4  8  1  0
  5  4  2  0
  6  5  1  0
  6  7  1  0
  7  8  2  0
  9 10  2  0
  9  2  1  0
 12 11  1  6
 12 14  1  0
 13 12  1  0
 14 15  1  6
 15  9  1  0
 16 25  1  0
 16 14  1  0
 17 16  2  0
 18 19  1  0
 19 29  2  0
 20 19  1  0
 20 21  2  0
 21 22  1  0
 22 28  2  0
 22 23  1  0
 24 23  1  6
 24 25  1  0
 24 26  1  0
 26 27  1  0
 29 28  1  0
 30 26  2  0
M  END
$$$$
