HTY.pdb
     RDKit          3D

 30 31  0  0  1  0  0  0  0  0999 V2000
    8.6726  -16.4991   19.5920 N   0  0  0  0  0  0  0  0  0  0  0  0
    8.1753  -15.5780   20.5796 C   0  0  1  0  0  0  0  0  0  0  0  0
    6.9381  -14.9131   19.9689 C   0  0  0  0  0  0  0  0  0  0  0  0
    7.4174  -14.1215   18.8067 C   0  0  0  0  0  0  0  0  0  0  0  0
    7.9334  -12.8423   18.8003 C   0  0  0  0  0  0  0  0  0  0  0  0
    8.2451  -12.4983   17.5437 N   0  0  0  0  0  0  0  0  0  0  0  0
    7.9307  -13.5495   16.7532 C   0  0  0  0  0  0  0  0  0  0  0  0
    7.4301  -14.5319   17.5152 N   0  0  0  0  0  0  0  0  0  0  0  0
    7.8359  -16.2767   21.8435 C   0  0  0  0  0  0  0  0  0  0  0  0
    6.8282  -17.0138   21.8636 O   0  0  0  0  0  0  0  0  0  0  0  0
    8.1513  -19.1924   22.8826 C   0  0  0  0  0  0  0  0  0  0  0  0
    9.0924  -18.4413   23.8191 C   0  0  1  0  0  0  0  0  0  0  0  0
   10.4062  -18.5177   23.4026 O   0  0  0  0  0  0  0  0  0  0  0  0
    8.6187  -17.0610   24.1111 C   0  0  2  0  0  0  0  0  0  0  0  0
    8.5857  -16.1533   23.0147 N   0  0  0  0  0  0  0  0  0  0  0  0
    9.4651  -16.4966   25.1966 C   0  0  0  0  0  0  0  0  0  0  0  0
   10.5335  -15.8756   24.9687 O   0  0  0  0  0  0  0  0  0  0  0  0
    6.4941  -10.9334   25.4274 O   0  0  0  0  0  0  0  0  0  0  0  0
    7.1085  -11.9498   26.1592 C   0  0  0  0  0  0  0  0  0  0  0  0
    6.4042  -13.0590   26.5502 C   0  0  0  0  0  0  0  0  0  0  0  0
    6.9890  -14.0739   27.2724 C   0  0  0  0  0  0  0  0  0  0  0  0
    8.3263  -14.0187   27.6390 C   0  0  0  0  0  0  0  0  0  0  0  0
    8.9798  -15.0750   28.4221 C   0  0  0  0  0  0  0  0  0  0  0  0
    9.8606  -15.9983   27.6188 C   0  0  2  0  0  0  0  0  0  0  0  0
    9.0917  -16.6397   26.5596 N   0  0  0  0  0  0  0  0  0  0  0  0
   10.4820  -16.9961   28.4929 C   0  0  0  0  0  0  0  0  0  0  0  0
   11.4365  -16.5683   29.4157 O   0  0  0  0  0  0  0  0  0  0  0  0
    9.0402  -12.8967   27.2442 C   0  0  0  0  0  0  0  0  0  0  0  0
    8.4371  -11.9044   26.5287 C   0  0  0  0  0  0  0  0  0  0  0  0
   10.2099  -18.2128   28.4645 O   0  0  0  0  0  0  0  0  0  0  0  0
  2  1  1  6
  2  3  1  0
  4  3  1  0
  4  8  1  0
  5  4  2  0
  6  5  1  0
  6  7  1  0
  7  8  2  0
  9 10  2  0
  9  2  1  0
 12 11  1  6
 12 14  1  0
 13 12  1  0
 14 15  1  6
 15  9  1  0
 16 25  1  0
 16 14  1  0
 17 16  2  0
 18 19  1  0
 19 29  2  0
 20 19  1  0
 20 21  2  0
 21 22  1  0
 22 28  2  0
 22 23  1  0
 24 23  1  1
 24 25  1  0
 24 26  1  0
 26 27  1  0
 29 28  1  0
 30 26  2  0
M  END
$$$$
