HTY.pdb
     RDKit          3D

 30 31  0  0  1  0  0  0  0  0999 V2000
    8.5035  -16.6614   19.5563 N   0  0  0  0  0  0  0  0  0  0  0  0
    8.5594  -15.6726   20.6004 C   0  0  1  0  0  0  0  0  0  0  0  0
    7.4879  -14.6298   20.2684 C   0  0  0  0  0  0  0  0  0  0  0  0
    7.9349  -13.9496   19.0256 C   0  0  0  0  0  0  0  0  0  0  0  0
    8.7427  -12.8380   18.9047 C   0  0  0  0  0  0  0  0  0  0  0  0
    8.9021  -12.5472   17.6068 N   0  0  0  0  0  0  0  0  0  0  0  0
    8.2017  -13.4659   16.9037 C   0  0  0  0  0  0  0  0  0  0  0  0
    7.6163  -14.3146   17.7600 N   0  0  0  0  0  0  0  0  0  0  0  0
    8.3163  -16.2818   21.9311 C   0  0  0  0  0  0  0  0  0  0  0  0
    7.3057  -16.9997   22.0809 O   0  0  0  0  0  0  0  0  0  0  0  0
    8.4795  -19.0658   23.3811 C   0  0  0  0  0  0  0  0  0  0  0  0
    9.4950  -18.2595   24.1844 C   0  0  1  0  0  0  0  0  0  0  0  0
   10.7909  -18.5123   23.7822 O   0  0  0  0  0  0  0  0  0  0  0  0
    9.1434  -16.8150   24.2551 C   0  0  2  0  0  0  0  0  0  0  0  0
    9.1601  -16.0943   23.0274 N   0  0  0  0  0  0  0  0  0  0  0  0
   10.0581  -16.1588   25.2277 C   0  0  0  0  0  0  0  0  0  0  0  0
   11.1956  -15.7326   24.9061 O   0  0  0  0  0  0  0  0  0  0  0  0
    5.3259  -12.2735   25.8116 O   0  0  0  0  0  0  0  0  0  0  0  0
    6.5169  -12.7342   26.3731 C   0  0  0  0  0  0  0  0  0  0  0  0
    7.5265  -11.8637   26.6927 C   0  0  0  0  0  0  0  0  0  0  0  0
    8.7097  -12.2951   27.2474 C   0  0  0  0  0  0  0  0  0  0  0  0
    8.9341  -13.6393   27.5094 C   0  0  0  0  0  0  0  0  0  0  0  0
   10.1892  -14.1377   28.0858 C   0  0  0  0  0  0  0  0  0  0  0  0
   10.6226  -15.4881   27.5737 C   0  0  2  0  0  0  0  0  0  0  0  0
    9.6743  -15.9842   26.5841 N   0  0  0  0  0  0  0  0  0  0  0  0
   10.7623  -16.4323   28.6849 C   0  0  0  0  0  0  0  0  0  0  0  0
   11.7172  -16.1662   29.6663 O   0  0  0  0  0  0  0  0  0  0  0  0
    7.9133  -14.5214   27.1863 C   0  0  0  0  0  0  0  0  0  0  0  0
    6.7498  -14.0683   26.6373 C   0  0  0  0  0  0  0  0  0  0  0  0
   10.0768  -17.4664   28.8104 O   0  0  0  0  0  0  0  0  0  0  0  0
  2  1  1  6
  2  3  1  0
  4  3  1  0
  4  8  1  0
  5  4  2  0
  6  5  1  0
  6  7  1  0
  7  8  2  0
  9 10  2  0
  9  2  1  0
 12 11  1  6
 12 14  1  0
 13 12  1  0
 14 15  1  6
 15  9  1  0
 16 25  1  0
 16 14  1  0
 17 16  2  0
 18 19  1  0
 19 29  2  0
 20 19  1  0
 20 21  2  0
 21 22  1  0
 22 28  2  0
 22 23  1  0
 24 23  1  1
 24 25  1  0
 24 26  1  0
 26 27  1  0
 29 28  1  0
 30 26  2  0
M  END
$$$$
