HTY.pdb
     RDKit          3D

 30 31  0  0  1  0  0  0  0  0999 V2000
   11.6442  -14.8086   17.1628 N   0  0  0  0  0  0  0  0  0  0  0  0
   12.1839  -14.8471   18.4964 C   0  0  1  0  0  0  0  0  0  0  0  0
   13.4606  -14.0014   18.4725 C   0  0  0  0  0  0  0  0  0  0  0  0
   14.5106  -14.8439   17.8438 C   0  0  0  0  0  0  0  0  0  0  0  0
   14.6988  -16.2049   17.9660 C   0  0  0  0  0  0  0  0  0  0  0  0
   15.7609  -16.5708   17.2362 N   0  0  0  0  0  0  0  0  0  0  0  0
   16.2476  -15.4524   16.6522 C   0  0  0  0  0  0  0  0  0  0  0  0
   15.4927  -14.4073   17.0185 N   0  0  0  0  0  0  0  0  0  0  0  0
   11.2124  -14.3180   19.4848 C   0  0  0  0  0  0  0  0  0  0  0  0
   11.0337  -13.0834   19.5411 O   0  0  0  0  0  0  0  0  0  0  0  0
    7.4743  -14.3650   20.0025 C   0  0  0  0  0  0  0  0  0  0  0  0
    8.1392  -15.1126   21.1540 C   0  0  1  0  0  0  0  0  0  0  0  0
    7.9440  -16.4762   21.0665 O   0  0  0  0  0  0  0  0  0  0  0  0
    9.5572  -14.7053   21.3503 C   0  0  2  0  0  0  0  0  0  0  0  0
   10.4854  -15.1296   20.3576 N   0  0  0  0  0  0  0  0  0  0  0  0
   10.0020  -15.1904   22.6845 C   0  0  0  0  0  0  0  0  0  0  0  0
   10.8270  -16.1278   22.8237 O   0  0  0  0  0  0  0  0  0  0  0  0
   10.4603  -15.9917   31.5638 O   0  0  0  0  0  0  0  0  0  0  0  0
   10.1838  -15.5652   30.2647 C   0  0  0  0  0  0  0  0  0  0  0  0
   10.8595  -14.5079   29.7129 C   0  0  0  0  0  0  0  0  0  0  0  0
   10.6038  -14.0698   28.4338 C   0  0  0  0  0  0  0  0  0  0  0  0
    9.6443  -14.6833   27.6409 C   0  0  0  0  0  0  0  0  0  0  0  0
    9.3338  -14.2338   26.2780 C   0  0  0  0  0  0  0  0  0  0  0  0
    9.8998  -15.1053   25.1853 C   0  0  2  0  0  0  0  0  0  0  0  0
    9.5024  -14.6014   23.8766 N   0  0  0  0  0  0  0  0  0  0  0  0
    9.4665  -16.4929   25.3662 C   0  0  0  0  0  0  0  0  0  0  0  0
   10.3541  -17.3947   25.9531 O   0  0  0  0  0  0  0  0  0  0  0  0
    8.9594  -15.7535   28.1981 C   0  0  0  0  0  0  0  0  0  0  0  0
    9.2318  -16.1684   29.4685 C   0  0  0  0  0  0  0  0  0  0  0  0
    8.3461  -16.9225   25.0263 O   0  0  0  0  0  0  0  0  0  0  0  0
  2  1  1  6
  2  3  1  0
  4  3  1  0
  4  8  1  0
  5  4  2  0
  6  5  1  0
  6  7  1  0
  7  8  2  0
  9 10  2  0
  9  2  1  0
 12 11  1  6
 12 14  1  0
 13 12  1  0
 14 15  1  6
 15  9  1  0
 16 25  1  0
 16 14  1  0
 17 16  2  0
 18 19  1  0
 19 29  2  0
 20 19  1  0
 20 21  2  0
 21 22  1  0
 22 28  2  0
 22 23  1  0
 24 23  1  1
 24 25  1  0
 24 26  1  0
 26 27  1  0
 29 28  1  0
 30 26  2  0
M  END
$$$$
