RWK.pdb
     RDKit          3D

 35 36  0  0  1  0  0  0  0  0999 V2000
    8.3046  -12.6090   18.2931 N   0  0  0  0  0  0  0  0  0  0  0  0
    8.4189  -13.5628   17.2453 C   0  0  0  0  0  0  0  0  0  0  0  0
    7.7009  -13.4980   16.1821 N   0  0  0  0  0  0  0  0  0  0  0  0
    9.3579  -14.6384   17.3596 N   0  0  0  0  0  0  0  0  0  0  0  0
    9.7486  -15.2724   18.5773 C   0  0  0  0  0  0  0  0  0  0  0  0
    8.6142  -16.0172   19.1852 C   0  0  0  0  0  0  0  0  0  0  0  0
    8.8554  -16.7860   20.4171 C   0  0  0  0  0  0  0  0  0  0  0  0
    7.8843  -16.6935   21.5299 C   0  0  2  0  0  0  0  0  0  0  0  0
    6.7683  -15.8471   21.3860 N   0  0  0  0  0  0  0  0  0  0  0  0
    8.5725  -16.4457   22.8404 C   0  0  0  0  0  0  0  0  0  0  0  0
    9.4216  -15.4989   22.9227 O   0  0  0  0  0  0  0  0  0  0  0  0
    7.8379  -14.1749   15.4193 N   0  0  0  0  0  0  0  0  0  0  0  0
    8.2848  -17.2512   23.9682 C   0  0  1  0  0  0  0  0  0  0  0  0
    8.9065  -17.0921   25.2293 C   0  0  0  0  0  0  0  0  0  0  0  0
    8.0163  -16.6344   26.3327 C   0  0  0  0  0  0  0  0  0  0  0  0
    7.2676  -15.4048   26.0181 C   0  0  0  0  0  0  0  0  0  0  0  0
    6.0002  -15.3683   25.4610 N   0  0  0  0  0  0  0  0  0  0  0  0
    5.6138  -14.0775   25.3352 C   0  0  0  0  0  0  0  0  0  0  0  0
    6.5806  -13.2682   25.7886 C   0  0  0  0  0  0  0  0  0  0  0  0
    6.6423  -11.9041   25.8587 C   0  0  0  0  0  0  0  0  0  0  0  0
    7.7939  -11.3387   26.3794 C   0  0  0  0  0  0  0  0  0  0  0  0
    8.8427  -12.1020   26.8131 C   0  0  0  0  0  0  0  0  0  0  0  0
    8.7301  -13.4873   26.7206 C   0  0  0  0  0  0  0  0  0  0  0  0
    7.6157  -14.0968   26.2156 C   0  0  0  0  0  0  0  0  0  0  0  0
    9.7883  -18.2461   25.5876 O   0  0  0  0  0  0  0  0  0  0  0  0
    9.3378  -19.4143   25.6876 N   0  0  0  0  0  0  0  0  0  0  0  0
   11.1625  -18.0802   25.8289 C   0  0  1  0  0  0  0  0  0  0  0  0
   12.0293  -19.2869   26.1986 C   0  0  0  0  0  0  0  0  0  0  0  0
   13.3537  -19.0500   25.6071 C   0  0  0  0  0  0  0  0  0  0  0  0
   14.5075  -19.9093   25.7455 C   0  0  0  0  0  0  0  0  0  0  0  0
   15.8278  -19.7371   25.1692 C   0  0  0  0  0  0  0  0  0  0  0  0
   16.8812  -20.7581   25.5495 N   0  0  0  0  0  0  0  0  0  0  0  0
   18.1316  -20.5192   24.8647 C   0  0  0  0  0  0  0  0  0  0  0  0
   12.0291  -19.2125   27.7051 O   0  0  0  0  0  0  0  0  0  0  0  0
   11.6115  -17.9976   28.2876 O   0  0  0  0  0  0  0  0  0  0  0  0
  2  1  1  0
  3  2  2  0
  4  2  1  0
  5  4  1  0
  6  5  1  0
  7  6  1  0
  8 10  1  0
  8  7  1  0
  8  9  1  6
 10 12  1  0
 11 10  2  0
 12 13  1  0
 13 24  1  0
 14 15  1  0
 13 14  1  1
 15 23  1  0
 16 15  2  0
 16 17  1  0
 17 18  1  0
 18 19  1  0
 19 20  2  0
 21 20  1  0
 22 21  2  0
 23 18  2  0
 23 22  1  0
 24 26  1  0
 24 25  2  0
 26 27  1  0
 27 28  1  1
 27 33  1  0
 29 30  1  0
 29 28  1  0
 31 32  1  0
 31 30  1  0
 33 34  1  0
 35 33  2  0
M  END
$$$$
