RWK.pdb
     RDKit          3D

 35 36  0  0  1  0  0  0  0  0999 V2000
    6.4738  -14.5578   16.7006 N   0  0  0  0  0  0  0  0  0  0  0  0
    7.7628  -14.3923   16.1245 C   0  0  0  0  0  0  0  0  0  0  0  0
    8.0459  -14.8267   14.9491 N   0  0  0  0  0  0  0  0  0  0  0  0
    8.7928  -13.7235   16.8617 N   0  0  0  0  0  0  0  0  0  0  0  0
    9.2481  -14.0854   18.1652 C   0  0  0  0  0  0  0  0  0  0  0  0
    8.2467  -13.7275   19.2045 C   0  0  0  0  0  0  0  0  0  0  0  0
    8.5306  -14.0758   20.6062 C   0  0  0  0  0  0  0  0  0  0  0  0
    8.7244  -15.4959   20.9743 C   0  0  2  0  0  0  0  0  0  0  0  0
    7.7198  -16.4247   20.6416 N   0  0  0  0  0  0  0  0  0  0  0  0
    9.1252  -15.6407   22.4133 C   0  0  0  0  0  0  0  0  0  0  0  0
   10.0958  -14.9443   22.8571 O   0  0  0  0  0  0  0  0  0  0  0  0
    8.9713  -14.6470   14.5367 N   0  0  0  0  0  0  0  0  0  0  0  0
    8.4374  -16.5377   23.2655 C   0  0  1  0  0  0  0  0  0  0  0  0
    8.7415  -16.7118   24.6363 C   0  0  0  0  0  0  0  0  0  0  0  0
    7.5965  -16.5486   25.5755 C   0  0  0  0  0  0  0  0  0  0  0  0
    6.9879  -15.2070   25.5395 C   0  0  0  0  0  0  0  0  0  0  0  0
    5.7154  -14.9255   25.0708 N   0  0  0  0  0  0  0  0  0  0  0  0
    5.4799  -13.6003   25.2113 C   0  0  0  0  0  0  0  0  0  0  0  0
    6.5503  -13.0043   25.7538 C   0  0  0  0  0  0  0  0  0  0  0  0
    6.7748  -11.6944   26.0750 C   0  0  0  0  0  0  0  0  0  0  0  0
    8.0020  -11.3693   26.6274 C   0  0  0  0  0  0  0  0  0  0  0  0
    8.9677  -12.3118   26.8509 C   0  0  0  0  0  0  0  0  0  0  0  0
    8.6893  -13.6326   26.5065 C   0  0  0  0  0  0  0  0  0  0  0  0
    7.4943  -14.0077   25.9591 C   0  0  0  0  0  0  0  0  0  0  0  0
    9.5799  -17.9240   24.8919 O   0  0  0  0  0  0  0  0  0  0  0  0
    9.2179  -19.0672   24.5184 N   0  0  0  0  0  0  0  0  0  0  0  0
   10.8127  -17.8432   25.5611 C   0  0  1  0  0  0  0  0  0  0  0  0
   11.5542  -19.1208   25.9637 C   0  0  0  0  0  0  0  0  0  0  0  0
   12.9304  -18.9824   25.4670 C   0  0  0  0  0  0  0  0  0  0  0  0
   14.0090  -19.9176   25.6926 C   0  0  0  0  0  0  0  0  0  0  0  0
   15.3834  -19.8281   25.2366 C   0  0  0  0  0  0  0  0  0  0  0  0
   16.3318  -20.9163   25.6978 N   0  0  0  0  0  0  0  0  0  0  0  0
   17.6762  -20.6962   25.2146 C   0  0  0  0  0  0  0  0  0  0  0  0
   11.4570  -19.0689   27.4680 O   0  0  0  0  0  0  0  0  0  0  0  0
   11.7513  -20.2556   28.1714 O   0  0  0  0  0  0  0  0  0  0  0  0
  2  1  1  0
  3  2  2  0
  4  2  1  0
  5  4  1  0
  6  5  1  0
  7  6  1  0
  8 10  1  0
  8  7  1  0
  8  9  1  1
 10 12  1  0
 11 10  2  0
 12 13  1  0
 13 24  1  0
 14 15  1  0
 13 14  1  1
 15 23  1  0
 16 15  2  0
 16 17  1  0
 17 18  1  0
 18 19  1  0
 19 20  2  0
 21 20  1  0
 22 21  2  0
 23 18  2  0
 23 22  1  0
 24 26  1  0
 24 25  2  0
 26 27  1  0
 27 28  1  1
 27 33  1  0
 29 30  1  0
 29 28  1  0
 31 32  1  0
 31 30  1  0
 33 34  1  0
 35 33  2  0
M  END
$$$$
