RWK.pdb
     RDKit          3D

 35 36  0  0  1  0  0  0  0  0999 V2000
    7.2181  -14.8786   17.7113 N   0  0  0  0  0  0  0  0  0  0  0  0
    8.1785  -13.8664   17.4397 C   0  0  0  0  0  0  0  0  0  0  0  0
    8.0162  -13.0062   16.4995 N   0  0  0  0  0  0  0  0  0  0  0  0
    9.3722  -13.7863   18.2274 N   0  0  0  0  0  0  0  0  0  0  0  0
    9.9853  -14.8752   18.9172 C   0  0  0  0  0  0  0  0  0  0  0  0
    9.0943  -15.4093   19.9812 C   0  0  0  0  0  0  0  0  0  0  0  0
    9.5884  -15.4337   21.3675 C   0  0  0  0  0  0  0  0  0  0  0  0
    9.6660  -16.7252   22.0858 C   0  0  2  0  0  0  0  0  0  0  0  0
    8.6781  -17.6976   21.8387 N   0  0  0  0  0  0  0  0  0  0  0  0
    9.8541  -16.5230   23.5609 C   0  0  0  0  0  0  0  0  0  0  0  0
   10.8628  -15.8601   23.9697 O   0  0  0  0  0  0  0  0  0  0  0  0
    8.7408  -12.3011   16.3083 N   0  0  0  0  0  0  0  0  0  0  0  0
    8.9267  -17.0607   24.4853 C   0  0  1  0  0  0  0  0  0  0  0  0
    9.1245  -17.0675   25.8863 C   0  0  0  0  0  0  0  0  0  0  0  0
    7.9918  -16.5420   26.6989 C   0  0  0  0  0  0  0  0  0  0  0  0
    7.3576  -15.3423   26.1245 C   0  0  0  0  0  0  0  0  0  0  0  0
    6.3412  -15.3556   25.1839 N   0  0  0  0  0  0  0  0  0  0  0  0
    5.9860  -14.0800   24.9044 C   0  0  0  0  0  0  0  0  0  0  0  0
    6.7319  -13.2329   25.6263 C   0  0  0  0  0  0  0  0  0  0  0  0
    6.7344  -11.8665   25.6759 C   0  0  0  0  0  0  0  0  0  0  0  0
    7.6387  -11.2559   26.5283 C   0  0  0  0  0  0  0  0  0  0  0  0
    8.5064  -11.9780   27.3006 C   0  0  0  0  0  0  0  0  0  0  0  0
    8.4636  -13.3676   27.2137 C   0  0  0  0  0  0  0  0  0  0  0  0
    7.5903  -14.0207   26.3895 C   0  0  0  0  0  0  0  0  0  0  0  0
    9.6914  -18.3597   26.3828 O   0  0  0  0  0  0  0  0  0  0  0  0
    9.0408  -19.4324   26.3213 N   0  0  0  0  0  0  0  0  0  0  0  0
   10.9785  -18.4371   26.9409 C   0  0  1  0  0  0  0  0  0  0  0  0
   11.4997  -19.7680   27.4899 C   0  0  0  0  0  0  0  0  0  0  0  0
   12.8548  -19.9439   26.9491 C   0  0  0  0  0  0  0  0  0  0  0  0
   13.2589  -19.6978   25.5835 C   0  0  0  0  0  0  0  0  0  0  0  0
   14.5844  -19.8158   25.0056 C   0  0  0  0  0  0  0  0  0  0  0  0
   14.7419  -19.3960   23.5580 N   0  0  0  0  0  0  0  0  0  0  0  0
   16.1218  -19.4502   23.1310 C   0  0  0  0  0  0  0  0  0  0  0  0
   11.4812  -19.5130   28.9764 O   0  0  0  0  0  0  0  0  0  0  0  0
   11.7711  -20.6067   29.8187 O   0  0  0  0  0  0  0  0  0  0  0  0
  2  1  1  0
  3  2  2  0
  4  2  1  0
  5  4  1  0
  6  5  1  0
  7  6  1  0
  8 10  1  0
  8  7  1  0
  8  9  1  1
 10 12  1  0
 11 10  2  0
 12 13  1  0
 13 24  1  0
 14 15  1  0
 13 14  1  1
 15 23  1  0
 16 15  2  0
 16 17  1  0
 17 18  1  0
 18 19  1  0
 19 20  2  0
 21 20  1  0
 22 21  2  0
 23 18  2  0
 23 22  1  0
 24 26  1  0
 24 25  2  0
 26 27  1  0
 27 28  1  1
 27 33  1  0
 29 30  1  0
 29 28  1  0
 31 32  1  0
 31 30  1  0
 33 34  1  0
 35 33  2  0
M  END
$$$$
