RWK.pdb
     RDKit          3D

 35 36  0  0  1  0  0  0  0  0999 V2000
    8.8668  -15.1401   16.0007 N   0  0  0  0  0  0  0  0  0  0  0  0
    8.2848  -14.2063   16.9007 C   0  0  0  0  0  0  0  0  0  0  0  0
    8.0591  -12.9865   16.5670 N   0  0  0  0  0  0  0  0  0  0  0  0
    7.9321  -14.6184   18.2264 N   0  0  0  0  0  0  0  0  0  0  0  0
    7.4267  -13.7652   19.2532 C   0  0  0  0  0  0  0  0  0  0  0  0
    7.1172  -14.5333   20.4882 C   0  0  0  0  0  0  0  0  0  0  0  0
    8.1059  -14.5425   21.5787 C   0  0  0  0  0  0  0  0  0  0  0  0
    8.6740  -15.8323   22.0299 C   0  0  2  0  0  0  0  0  0  0  0  0
    7.8646  -16.9833   21.9791 N   0  0  0  0  0  0  0  0  0  0  0  0
    9.3298  -15.7038   23.3736 C   0  0  0  0  0  0  0  0  0  0  0  0
   10.2327  -14.8196   23.5382 O   0  0  0  0  0  0  0  0  0  0  0  0
    7.6816  -12.3201   17.2542 N   0  0  0  0  0  0  0  0  0  0  0  0
    8.9530  -16.5517   24.4426 C   0  0  1  0  0  0  0  0  0  0  0  0
    9.4943  -16.4631   25.7469 C   0  0  0  0  0  0  0  0  0  0  0  0
    8.5031  -16.2804   26.8442 C   0  0  0  0  0  0  0  0  0  0  0  0
    7.4512  -15.2962   26.5339 C   0  0  0  0  0  0  0  0  0  0  0  0
    6.1539  -15.6113   26.1652 N   0  0  0  0  0  0  0  0  0  0  0  0
    5.4592  -14.4643   25.9833 C   0  0  0  0  0  0  0  0  0  0  0  0
    6.2531  -13.4109   26.2186 C   0  0  0  0  0  0  0  0  0  0  0  0
    5.9964  -12.0692   26.1583 C   0  0  0  0  0  0  0  0  0  0  0  0
    7.0344  -11.2023   26.4549 C   0  0  0  0  0  0  0  0  0  0  0  0
    8.2791  -11.6539   26.7978 C   0  0  0  0  0  0  0  0  0  0  0  0
    8.4890  -13.0302   26.8453 C   0  0  0  0  0  0  0  0  0  0  0  0
    7.4991  -13.9295   26.5627 C   0  0  0  0  0  0  0  0  0  0  0  0
   10.5251  -17.5131   26.0165 O   0  0  0  0  0  0  0  0  0  0  0  0
   11.0728  -17.6264   27.1411 N   0  0  0  0  0  0  0  0  0  0  0  0
   10.9302  -18.4237   25.0262 C   0  0  2  0  0  0  0  0  0  0  0  0
   12.0463  -19.4305   25.3177 C   0  0  0  0  0  0  0  0  0  0  0  0
   13.0102  -19.3208   24.2137 C   0  0  0  0  0  0  0  0  0  0  0  0
   14.2989  -19.9717   24.1486 C   0  0  0  0  0  0  0  0  0  0  0  0
   14.7435  -20.9885   23.2141 C   0  0  0  0  0  0  0  0  0  0  0  0
   16.1568  -21.5078   23.3858 N   0  0  0  0  0  0  0  0  0  0  0  0
   16.4506  -22.5793   22.4612 C   0  0  0  0  0  0  0  0  0  0  0  0
   12.5845  -18.9178   26.6301 O   0  0  0  0  0  0  0  0  0  0  0  0
   12.6035  -19.8217   27.7129 O   0  0  0  0  0  0  0  0  0  0  0  0
  2  1  1  0
  3  2  2  0
  4  2  1  0
  5  4  1  0
  6  5  1  0
  7  6  1  0
  8 10  1  0
  8  7  1  0
  8  9  1  1
 10 12  1  0
 11 10  2  0
 12 13  1  0
 13 24  1  0
 14 15  1  0
 13 14  1  1
 15 23  1  0
 16 15  2  0
 16 17  1  0
 17 18  1  0
 18 19  1  0
 19 20  2  0
 21 20  1  0
 22 21  2  0
 23 18  2  0
 23 22  1  0
 24 26  1  0
 24 25  2  0
 26 27  1  0
 27 28  1  6
 27 33  1  0
 29 30  1  0
 29 28  1  0
 31 32  1  0
 31 30  1  0
 33 34  1  0
 35 33  2  0
M  END
$$$$
