RWK.pdb
     RDKit          3D

 35 36  0  0  1  0  0  0  0  0999 V2000
    9.3481  -15.4016   15.5801 N   0  0  0  0  0  0  0  0  0  0  0  0
    8.1011  -14.7253   15.6710 C   0  0  0  0  0  0  0  0  0  0  0  0
    7.1737  -14.8833   14.7963 N   0  0  0  0  0  0  0  0  0  0  0  0
    7.8512  -13.8345   16.7645 N   0  0  0  0  0  0  0  0  0  0  0  0
    8.8301  -13.3620   17.6897 C   0  0  0  0  0  0  0  0  0  0  0  0
    9.9538  -14.3264   17.8246 C   0  0  0  0  0  0  0  0  0  0  0  0
   10.6677  -14.4013   19.1097 C   0  0  0  0  0  0  0  0  0  0  0  0
   10.5439  -15.6224   19.9366 C   0  0  2  0  0  0  0  0  0  0  0  0
    9.7927  -16.7040   19.4383 N   0  0  0  0  0  0  0  0  0  0  0  0
   10.1337  -15.2946   21.3424 C   0  0  0  0  0  0  0  0  0  0  0  0
   10.8265  -14.4579   22.0087 O   0  0  0  0  0  0  0  0  0  0  0  0
    6.2416  -14.4741   14.9462 N   0  0  0  0  0  0  0  0  0  0  0  0
    8.9956  -15.9057   21.9213 C   0  0  2  0  0  0  0  0  0  0  0  0
    8.5974  -15.7156   23.2657 C   0  0  0  0  0  0  0  0  0  0  0  0
    7.2046  -15.2240   23.4611 C   0  0  0  0  0  0  0  0  0  0  0  0
    6.8915  -14.8720   24.8574 C   0  0  0  0  0  0  0  0  0  0  0  0
    6.3599  -15.7421   25.7947 N   0  0  0  0  0  0  0  0  0  0  0  0
    6.2276  -15.0896   26.9728 C   0  0  0  0  0  0  0  0  0  0  0  0
    6.6520  -13.8256   26.8415 C   0  0  0  0  0  0  0  0  0  0  0  0
    6.7053  -12.8037   27.7484 C   0  0  0  0  0  0  0  0  0  0  0  0
    7.1961  -11.5840   27.3143 C   0  0  0  0  0  0  0  0  0  0  0  0
    7.6168  -11.3897   26.0274 C   0  0  0  0  0  0  0  0  0  0  0  0
    7.5423  -12.4629   25.1424 C   0  0  0  0  0  0  0  0  0  0  0  0
    7.0670  -13.6879   25.5191 C   0  0  0  0  0  0  0  0  0  0  0  0
    8.9748  -16.8637   24.1472 O   0  0  0  0  0  0  0  0  0  0  0  0
    8.4960  -18.0122   23.9758 N   0  0  0  0  0  0  0  0  0  0  0  0
    9.8831  -16.7141   25.2086 C   0  0  1  0  0  0  0  0  0  0  0  0
   10.2852  -17.9263   26.0531 C   0  0  0  0  0  0  0  0  0  0  0  0
   11.6482  -18.2914   25.6421 C   0  0  0  0  0  0  0  0  0  0  0  0
   11.9943  -19.1918   24.5659 C   0  0  0  0  0  0  0  0  0  0  0  0
   13.3045  -19.4486   23.9981 C   0  0  0  0  0  0  0  0  0  0  0  0
   13.3712  -20.4215   22.8382 N   0  0  0  0  0  0  0  0  0  0  0  0
   14.7156  -20.5508   22.3232 C   0  0  0  0  0  0  0  0  0  0  0  0
   10.2166  -17.3614   27.4499 O   0  0  0  0  0  0  0  0  0  0  0  0
   10.3748  -18.2693   28.5178 O   0  0  0  0  0  0  0  0  0  0  0  0
  2  1  1  0
  3  2  2  0
  4  2  1  0
  5  4  1  0
  6  5  1  0
  7  6  1  0
  8 10  1  0
  8  7  1  0
  8  9  1  6
 10 12  1  0
 11 10  2  0
 12 13  1  0
 13 24  1  0
 14 15  1  0
 13 14  1  6
 15 23  1  0
 16 15  2  0
 16 17  1  0
 17 18  1  0
 18 19  1  0
 19 20  2  0
 21 20  1  0
 22 21  2  0
 23 18  2  0
 23 22  1  0
 24 26  1  0
 24 25  2  0
 26 27  1  0
 27 28  1  1
 27 33  1  0
 29 30  1  0
 29 28  1  0
 31 32  1  0
 31 30  1  0
 33 34  1  0
 35 33  2  0
M  END
$$$$
