LAC.pdb
     RDKit          3D

 20 19  0  0  1  0  0  0  0  0999 V2000
   26.3120  -17.8157  -20.0081 C   0  0  0  0  0  0  0  0  0  0  0  0
   25.2013  -18.7369  -19.5706 C   0  0  1  0  0  0  0  0  0  0  0  0
   25.6938  -20.1566  -19.7317 C   0  0  0  0  0  0  0  0  0  0  0  0
   24.8281  -18.5230  -18.1313 C   0  0  0  0  0  0  0  0  0  0  0  0
   23.7921  -19.5034  -17.6307 C   0  0  2  0  0  0  0  0  0  0  0  0
   22.5954  -19.4119  -18.4185 N   0  0  0  0  0  0  0  0  0  0  0  0
   23.5314  -19.2174  -16.1941 C   0  0  0  0  0  0  0  0  0  0  0  0
   24.4803  -19.1591  -15.3669 O   0  0  0  0  0  0  0  0  0  0  0  0
   20.7661  -17.8644  -14.0587 C   0  0  0  0  0  0  0  0  0  0  0  0
   22.0009  -18.7121  -14.2750 C   0  0  2  0  0  0  0  0  0  0  0  0
   22.2293  -18.9961  -15.6687 N   0  0  0  0  0  0  0  0  0  0  0  0
   22.0185  -19.9088  -13.4282 C   0  0  0  0  0  0  0  0  0  0  0  0
   21.6461  -21.0061  -13.8971 O   0  0  0  0  0  0  0  0  0  0  0  0
   22.4501  -19.8302  -12.0968 N   0  0  0  0  0  0  0  0  0  0  0  0
   22.3895  -20.9214  -11.1515 C   0  0  1  0  0  0  0  0  0  0  0  0
   23.3925  -20.6334  -10.0533 C   0  0  0  0  0  0  0  0  0  0  0  0
   25.0417  -20.6519  -10.7742 S   0  0  0  0  0  0  0  0  0  0  0  0
   21.0439  -21.1432  -10.6145 C   0  0  0  0  0  0  0  0  0  0  0  0
   20.2367  -20.1785  -10.6278 O   0  0  0  0  0  0  0  0  0  0  0  0
   20.5861  -22.3433  -10.0883 O   0  0  0  0  0  0  0  0  0  0  0  0
  2  4  1  0
  2  1  1  1
  3  2  1  0
  4  5  1  0
  5  7  1  0
  5  6  1  6
  7  8  2  0
 10  9  1  6
 10 12  1  0
 11 10  1  0
 11  7  1  0
 12 14  1  0
 13 12  2  0
 14 15  1  0
 15 16  1  1
 16 17  1  0
 18 20  1  0
 18 15  1  0
 19 18  2  0
M  END
$$$$
