LAC.pdb
     RDKit          3D

 20 19  0  0  1  0  0  0  0  0999 V2000
   22.4436  -18.7243  -15.6136 C   0  0  0  0  0  0  0  0  0  0  0  0
   21.3821  -17.8173  -16.1832 C   0  0  1  0  0  0  0  0  0  0  0  0
   20.1252  -18.0149  -15.3678 C   0  0  0  0  0  0  0  0  0  0  0  0
   21.7782  -16.3704  -16.1041 C   0  0  0  0  0  0  0  0  0  0  0  0
   20.7351  -15.4337  -16.6697 C   0  0  2  0  0  0  0  0  0  0  0  0
   20.2977  -15.8920  -17.9580 N   0  0  0  0  0  0  0  0  0  0  0  0
   21.3197  -14.0673  -16.7382 C   0  0  0  0  0  0  0  0  0  0  0  0
   21.8148  -13.5269  -15.7131 O   0  0  0  0  0  0  0  0  0  0  0  0
   21.9860  -11.4148  -19.3739 C   0  0  0  0  0  0  0  0  0  0  0  0
   21.8825  -11.9551  -17.9641 C   0  0  2  0  0  0  0  0  0  0  0  0
   21.3591  -13.2970  -17.9321 N   0  0  0  0  0  0  0  0  0  0  0  0
   21.1837  -11.0378  -17.0588 C   0  0  0  0  0  0  0  0  0  0  0  0
   19.9672  -11.2044  -16.8242 O   0  0  0  0  0  0  0  0  0  0  0  0
   21.8709   -9.9756  -16.4549 N   0  0  0  0  0  0  0  0  0  0  0  0
   21.2583   -8.9881  -15.5961 C   0  0  1  0  0  0  0  0  0  0  0  0
   22.0193   -8.9839  -14.2861 C   0  0  0  0  0  0  0  0  0  0  0  0
   21.2508   -7.7814  -13.1892 S   0  0  0  0  0  0  0  0  0  0  0  0
   21.2072   -7.6534  -16.1994 C   0  0  0  0  0  0  0  0  0  0  0  0
   20.1541   -6.9806  -16.0556 O   0  0  0  0  0  0  0  0  0  0  0  0
   22.2373   -7.0683  -16.9229 O   0  0  0  0  0  0  0  0  0  0  0  0
  2  4  1  0
  2  1  1  1
  3  2  1  0
  4  5  1  0
  5  7  1  0
  5  6  1  6
  7  8  2  0
 10  9  1  6
 10 12  1  0
 11 10  1  0
 11  7  1  0
 12 14  1  0
 13 12  2  0
 14 15  1  0
 15 16  1  1
 16 17  1  0
 18 20  1  0
 18 15  1  0
 19 18  2  0
M  END
$$$$
