LAC.pdb
     RDKit          3D

 20 19  0  0  1  0  0  0  0  0999 V2000
   18.2440  -28.1345   -9.4119 C   0  0  0  0  0  0  0  0  0  0  0  0
   17.9172  -26.6797   -9.1874 C   0  0  1  0  0  0  0  0  0  0  0  0
   16.5751  -26.4079   -9.8268 C   0  0  0  0  0  0  0  0  0  0  0  0
   17.8250  -26.3437   -7.7261 C   0  0  0  0  0  0  0  0  0  0  0  0
   17.5623  -24.8781   -7.4655 C   0  0  2  0  0  0  0  0  0  0  0  0
   18.7073  -24.0924   -7.8302 N   0  0  0  0  0  0  0  0  0  0  0  0
   17.2130  -24.7124   -6.0288 C   0  0  0  0  0  0  0  0  0  0  0  0
   18.1116  -24.6984   -5.1454 O   0  0  0  0  0  0  0  0  0  0  0  0
   14.3276  -23.4749   -4.0069 C   0  0  0  0  0  0  0  0  0  0  0  0
   15.5678  -24.3249   -4.1784 C   0  0  2  0  0  0  0  0  0  0  0  0
   15.8778  -24.5627   -5.5650 N   0  0  0  0  0  0  0  0  0  0  0  0
   15.5270  -25.5501   -3.3743 C   0  0  0  0  0  0  0  0  0  0  0  0
   15.1073  -26.6122   -3.8828 O   0  0  0  0  0  0  0  0  0  0  0  0
   15.9555  -25.5381   -2.0396 N   0  0  0  0  0  0  0  0  0  0  0  0
   15.9328  -26.6864   -1.1629 C   0  0  1  0  0  0  0  0  0  0  0  0
   17.1752  -26.6279   -0.2980 C   0  0  0  0  0  0  0  0  0  0  0  0
   18.6166  -26.6501   -1.3759 S   0  0  0  0  0  0  0  0  0  0  0  0
   14.7121  -26.7702   -0.3562 C   0  0  0  0  0  0  0  0  0  0  0  0
   14.0157  -25.7303   -0.2297 O   0  0  0  0  0  0  0  0  0  0  0  0
   14.2600  -27.9156    0.2846 O   0  0  0  0  0  0  0  0  0  0  0  0
  2  4  1  0
  2  1  1  1
  3  2  1  0
  4  5  1  0
  5  7  1  0
  5  6  1  1
  7  8  2  0
 10  9  1  6
 10 12  1  0
 11 10  1  0
 11  7  1  0
 12 14  1  0
 13 12  2  0
 14 15  1  0
 15 16  1  1
 16 17  1  0
 18 20  1  0
 18 15  1  0
 19 18  2  0
M  END
$$$$
