LAC.pdb
     RDKit          3D

 20 19  0  0  1  0  0  0  0  0999 V2000
   16.8483  -13.6928  -13.6630 C   0  0  0  0  0  0  0  0  0  0  0  0
   17.3612  -13.5531  -15.0742 C   0  0  1  0  0  0  0  0  0  0  0  0
   16.1675  -13.3409  -15.9763 C   0  0  0  0  0  0  0  0  0  0  0  0
   18.2848  -12.3777  -15.2223 C   0  0  0  0  0  0  0  0  0  0  0  0
   18.8346  -12.2226  -16.6219 C   0  0  2  0  0  0  0  0  0  0  0  0
   19.7720  -13.2713  -16.9098 N   0  0  0  0  0  0  0  0  0  0  0  0
   19.4589  -10.8768  -16.7341 C   0  0  0  0  0  0  0  0  0  0  0  0
   20.5964  -10.6518  -16.2407 O   0  0  0  0  0  0  0  0  0  0  0  0
   18.8103   -7.6321  -18.5696 C   0  0  0  0  0  0  0  0  0  0  0  0
   19.4726   -8.4967  -17.5188 C   0  0  2  0  0  0  0  0  0  0  0  0
   18.8328   -9.7809  -17.3878 N   0  0  0  0  0  0  0  0  0  0  0  0
   19.6423   -7.7996  -16.2403 C   0  0  0  0  0  0  0  0  0  0  0  0
   18.8135   -7.9779  -15.3216 O   0  0  0  0  0  0  0  0  0  0  0  0
   20.7276   -6.9348  -16.0418 N   0  0  0  0  0  0  0  0  0  0  0  0
   20.9657   -6.1862  -14.8290 C   0  0  1  0  0  0  0  0  0  0  0  0
   22.4398   -6.3029  -14.4997 C   0  0  0  0  0  0  0  0  0  0  0  0
   22.7467   -5.4239  -12.9592 S   0  0  0  0  0  0  0  0  0  0  0  0
   20.5387   -4.7873  -14.9234 C   0  0  0  0  0  0  0  0  0  0  0  0
   20.7322   -4.1831  -16.0096 O   0  0  0  0  0  0  0  0  0  0  0  0
   19.9329   -4.0705  -13.9006 O   0  0  0  0  0  0  0  0  0  0  0  0
  2  4  1  0
  2  1  1  1
  3  2  1  0
  4  5  1  0
  5  7  1  0
  5  6  1  1
  7  8  2  0
 10  9  1  6
 10 12  1  0
 11 10  1  0
 11  7  1  0
 12 14  1  0
 13 12  2  0
 14 15  1  0
 15 16  1  6
 16 17  1  0
 18 20  1  0
 18 15  1  0
 19 18  2  0
M  END
$$$$
