LAC.pdb
     RDKit          3D

 20 19  0  0  1  0  0  0  0  0999 V2000
   20.7223  -12.2738  -21.9292 C   0  0  0  0  0  0  0  0  0  0  0  0
   20.7799  -12.6988  -20.4835 C   0  0  1  0  0  0  0  0  0  0  0  0
   22.1491  -13.2875  -20.2335 C   0  0  0  0  0  0  0  0  0  0  0  0
   20.5824  -11.5393  -19.5490 C   0  0  0  0  0  0  0  0  0  0  0  0
   20.5941  -11.9385  -18.0910 C   0  0  2  0  0  0  0  0  0  0  0  0
   19.5599  -12.8988  -17.8273 N   0  0  0  0  0  0  0  0  0  0  0  0
   20.4311  -10.7103  -17.2672 C   0  0  0  0  0  0  0  0  0  0  0  0
   19.3517  -10.0605  -17.2871 O   0  0  0  0  0  0  0  0  0  0  0  0
   22.3511   -8.8395  -14.5895 C   0  0  0  0  0  0  0  0  0  0  0  0
   21.2804   -8.9970  -15.6473 C   0  0  2  0  0  0  0  0  0  0  0  0
   21.4540  -10.1982  -16.4234 N   0  0  0  0  0  0  0  0  0  0  0  0
   21.1181   -7.7935  -16.4686 C   0  0  0  0  0  0  0  0  0  0  0  0
   21.7416   -7.6897  -17.5471 O   0  0  0  0  0  0  0  0  0  0  0  0
   20.2686   -6.7590  -16.0523 N   0  0  0  0  0  0  0  0  0  0  0  0
   20.0984   -5.5077  -16.7547 C   0  0  1  0  0  0  0  0  0  0  0  0
   18.7464   -5.5448  -17.4372 C   0  0  0  0  0  0  0  0  0  0  0  0
   18.4622   -3.9476  -18.2169 S   0  0  0  0  0  0  0  0  0  0  0  0
   20.2363   -4.3364  -15.8846 C   0  0  0  0  0  0  0  0  0  0  0  0
   19.7619   -4.4058  -14.7217 O   0  0  0  0  0  0  0  0  0  0  0  0
   20.8542   -3.1469  -16.2454 O   0  0  0  0  0  0  0  0  0  0  0  0
  2  4  1  0
  2  1  1  6
  3  2  1  0
  4  5  1  0
  5  7  1  0
  5  6  1  6
  7  8  2  0
 10  9  1  1
 10 12  1  0
 11 10  1  0
 11  7  1  0
 12 14  1  0
 13 12  2  0
 14 15  1  0
 15 16  1  1
 16 17  1  0
 18 20  1  0
 18 15  1  0
 19 18  2  0
M  END
$$$$
