LAC.pdb
     RDKit          3D

 20 19  0  0  1  0  0  0  0  0999 V2000
   24.5717  -13.8755  -14.6123 C   0  0  0  0  0  0  0  0  0  0  0  0
   23.6794  -13.7854  -15.8245 C   0  0  1  0  0  0  0  0  0  0  0  0
   22.4265  -14.5778  -15.5307 C   0  0  0  0  0  0  0  0  0  0  0  0
   23.2858  -12.3678  -16.1281 C   0  0  0  0  0  0  0  0  0  0  0  0
   22.4102  -12.2403  -17.3537 C   0  0  2  0  0  0  0  0  0  0  0  0
   23.1356  -12.6316  -18.5293 N   0  0  0  0  0  0  0  0  0  0  0  0
   21.9297  -10.8351  -17.4428 C   0  0  0  0  0  0  0  0  0  0  0  0
   22.7431   -9.8855  -17.5999 O   0  0  0  0  0  0  0  0  0  0  0  0
   18.6619   -8.9666  -17.7402 C   0  0  0  0  0  0  0  0  0  0  0  0
   20.1207   -9.1024  -17.3618 C   0  0  2  0  0  0  0  0  0  0  0  0
   20.5571  -10.4754  -17.3590 N   0  0  0  0  0  0  0  0  0  0  0  0
   20.4519   -8.3855  -16.1266 C   0  0  0  0  0  0  0  0  0  0  0  0
   20.3272   -8.9600  -15.0234 O   0  0  0  0  0  0  0  0  0  0  0  0
   20.9072   -7.0606  -16.1750 N   0  0  0  0  0  0  0  0  0  0  0  0
   21.2120   -6.2575  -15.0130 C   0  0  1  0  0  0  0  0  0  0  0  0
   22.5160   -5.5354  -15.2835 C   0  0  0  0  0  0  0  0  0  0  0  0
   22.9654   -4.6074  -13.8081 S   0  0  0  0  0  0  0  0  0  0  0  0
   20.1374   -5.3255  -14.6601 C   0  0  0  0  0  0  0  0  0  0  0  0
   19.8325   -5.2088  -13.4452 O   0  0  0  0  0  0  0  0  0  0  0  0
   19.4236   -4.5550  -15.5677 O   0  0  0  0  0  0  0  0  0  0  0  0
  2  4  1  0
  2  1  1  1
  3  2  1  0
  4  5  1  0
  5  7  1  0
  5  6  1  6
  7  8  2  0
 10  9  1  1
 10 12  1  0
 11 10  1  0
 11  7  1  0
 12 14  1  0
 13 12  2  0
 14 15  1  0
 15 16  1  6
 16 17  1  0
 18 20  1  0
 18 15  1  0
 19 18  2  0
M  END
$$$$
