LAC.pdb
     RDKit          3D

 20 19  0  0  1  0  0  0  0  0999 V2000
   22.4788  -30.9094   -9.2901 C   0  0  0  0  0  0  0  0  0  0  0  0
   23.4742  -31.9684   -9.6921 C   0  0  1  0  0  0  0  0  0  0  0  0
   24.5526  -31.2962  -10.5102 C   0  0  0  0  0  0  0  0  0  0  0  0
   24.1165  -32.6173   -8.4992 C   0  0  0  0  0  0  0  0  0  0  0  0
   25.1756  -33.6309   -8.8685 C   0  0  2  0  0  0  0  0  0  0  0  0
   24.5963  -34.7076   -9.6210 N   0  0  0  0  0  0  0  0  0  0  0  0
   25.8186  -34.1144   -7.6170 C   0  0  0  0  0  0  0  0  0  0  0  0
   25.1763  -34.8208   -6.7947 O   0  0  0  0  0  0  0  0  0  0  0  0
   29.2638  -34.0577   -6.0235 C   0  0  0  0  0  0  0  0  0  0  0  0
   27.7722  -34.3106   -6.0594 C   0  0  2  0  0  0  0  0  0  0  0  0
   27.1657  -33.8210   -7.2710 N   0  0  0  0  0  0  0  0  0  0  0  0
   27.0932  -33.8515   -4.8438 C   0  0  0  0  0  0  0  0  0  0  0  0
   26.6898  -32.6708   -4.7668 O   0  0  0  0  0  0  0  0  0  0  0  0
   26.8937  -34.7278   -3.7680 N   0  0  0  0  0  0  0  0  0  0  0  0
   26.2198  -34.3747   -2.5396 C   0  0  1  0  0  0  0  0  0  0  0  0
   24.7701  -34.7935   -2.6748 C   0  0  0  0  0  0  0  0  0  0  0  0
   23.9371  -34.4605   -1.1143 S   0  0  0  0  0  0  0  0  0  0  0  0
   26.8463  -34.9602   -1.3510 C   0  0  0  0  0  0  0  0  0  0  0  0
   27.5328  -36.0038   -1.4991 O   0  0  0  0  0  0  0  0  0  0  0  0
   26.7411  -34.4501   -0.0643 O   0  0  0  0  0  0  0  0  0  0  0  0
  2  4  1  0
  2  1  1  1
  3  2  1  0
  4  5  1  0
  5  7  1  0
  5  6  1  1
  7  8  2  0
 10  9  1  1
 10 12  1  0
 11 10  1  0
 11  7  1  0
 12 14  1  0
 13 12  2  0
 14 15  1  0
 15 16  1  6
 16 17  1  0
 18 20  1  0
 18 15  1  0
 19 18  2  0
M  END
$$$$
