CKI.pdb
     RDKit          3D

 24 23  0  0  1  0  0  0  0  0999 V2000
    6.8634  -15.7147   18.2384 N   0  0  0  0  0  0  0  0  0  0  0  0
    7.8022  -15.1944   19.2209 C   0  0  1  0  0  0  0  0  0  0  0  0
    7.6988  -13.6752   19.1410 C   0  0  0  0  0  0  0  0  0  0  0  0
    8.7596  -12.8911   20.3868 S   0  0  0  0  0  0  0  0  0  0  0  0
    7.3292  -15.6046   20.5724 C   0  0  0  0  0  0  0  0  0  0  0  0
    6.0927  -15.5319   20.8865 O   0  0  0  0  0  0  0  0  0  0  0  0
    8.1931  -16.0908   21.5776 N   0  0  0  0  0  0  0  0  0  0  0  0
    7.7272  -16.5030   22.8883 C   0  0  1  0  0  0  0  0  0  0  0  0
    7.9674  -18.0052   23.0883 C   0  0  0  0  0  0  0  0  0  0  0  0
    7.5299  -18.4448   24.4641 C   0  0  0  0  0  0  0  0  0  0  0  0
    7.7197  -19.9501   24.5221 C   0  0  0  0  0  0  0  0  0  0  0  0
    7.2996  -20.5075   25.8652 C   0  0  0  0  0  0  0  0  0  0  0  0
    7.4250  -21.9442   25.9070 N   0  0  0  0  0  0  0  0  0  0  0  0
    8.3739  -15.7384   23.9824 C   0  0  0  0  0  0  0  0  0  0  0  0
    9.6061  -15.6551   23.9947 O   0  0  0  0  0  0  0  0  0  0  0  0
    5.6310  -11.5082   26.2391 C   0  0  0  0  0  0  0  0  0  0  0  0
    6.6392  -12.4419   25.6791 C   0  0  0  0  0  0  0  0  0  0  0  0
    7.3367  -13.3334   26.6633 C   0  0  2  0  0  0  0  0  0  0  0  0
    7.8915  -12.4496   27.7449 C   0  0  0  0  0  0  0  0  0  0  0  0
    8.1982  -14.3976   26.1389 C   0  0  2  0  0  0  0  0  0  0  0  0
    7.6398  -15.1065   25.0031 N   0  0  0  0  0  0  0  0  0  0  0  0
    8.8390  -15.3378   27.0373 C   0  0  0  0  0  0  0  0  0  0  0  0
   10.0172  -15.2056   27.7368 O   0  0  0  0  0  0  0  0  0  0  0  0
    8.2572  -16.4706   27.2326 O   0  0  0  0  0  0  0  0  0  0  0  0
  2  5  1  0
  2  1  1  6
  3  2  1  0
  4  3  1  0
  5  6  2  0
  7  5  1  0
  7  8  1  0
  8  9  1  1
  9 10  1  0
 10 11  1  0
 11 12  1  0
 13 12  1  0
 14  8  1  0
 14 15  2  0
 16 17  1  0
 17 18  1  0
 18 19  1  1
 18 20  1  0
 20 21  1  6
 20 22  1  0
 21 14  1  0
 22 24  2  0
 22 23  1  0
M  END
$$$$
