CKI.pdb
     RDKit          3D

 24 23  0  0  1  0  0  0  0  0999 V2000
    7.2423  -15.9113   18.1513 N   0  0  0  0  0  0  0  0  0  0  0  0
    8.0497  -15.2556   19.1691 C   0  0  1  0  0  0  0  0  0  0  0  0
    7.8383  -13.7579   18.9760 C   0  0  0  0  0  0  0  0  0  0  0  0
    8.7078  -12.8142   20.2587 S   0  0  0  0  0  0  0  0  0  0  0  0
    7.4932  -15.6177   20.5025 C   0  0  0  0  0  0  0  0  0  0  0  0
    6.2637  -15.4087   20.7807 O   0  0  0  0  0  0  0  0  0  0  0  0
    8.2666  -16.2033   21.5282 N   0  0  0  0  0  0  0  0  0  0  0  0
    7.7227  -16.5503   22.8277 C   0  0  1  0  0  0  0  0  0  0  0  0
    7.7884  -18.0681   23.0419 C   0  0  0  0  0  0  0  0  0  0  0  0
    7.2772  -18.4441   24.4112 C   0  0  0  0  0  0  0  0  0  0  0  0
    7.3326  -19.9590   24.4968 C   0  0  0  0  0  0  0  0  0  0  0  0
    6.8153  -20.4552   25.8300 C   0  0  0  0  0  0  0  0  0  0  0  0
    7.0122  -21.8765   25.9807 N   0  0  0  0  0  0  0  0  0  0  0  0
    8.4211  -15.8535   23.9352 C   0  0  0  0  0  0  0  0  0  0  0  0
    9.6554  -15.8860   23.9664 O   0  0  0  0  0  0  0  0  0  0  0  0
    6.1135  -11.3279   25.9045 C   0  0  0  0  0  0  0  0  0  0  0  0
    7.0708  -12.3651   25.4463 C   0  0  0  0  0  0  0  0  0  0  0  0
    7.6214  -13.2739   26.5050 C   0  0  2  0  0  0  0  0  0  0  0  0
    8.2690  -12.4018   27.5436 C   0  0  0  0  0  0  0  0  0  0  0  0
    8.3411  -14.4766   26.0745 C   0  0  2  0  0  0  0  0  0  0  0  0
    7.7338  -15.1594   24.9479 N   0  0  0  0  0  0  0  0  0  0  0  0
    8.8017  -15.4482   27.0468 C   0  0  0  0  0  0  0  0  0  0  0  0
    9.9684  -15.4600   27.7774 O   0  0  0  0  0  0  0  0  0  0  0  0
    8.0423  -16.4608   27.2870 O   0  0  0  0  0  0  0  0  0  0  0  0
  2  5  1  0
  2  1  1  6
  3  2  1  0
  4  3  1  0
  5  6  2  0
  7  5  1  0
  7  8  1  0
  8  9  1  1
  9 10  1  0
 10 11  1  0
 11 12  1  0
 13 12  1  0
 14  8  1  0
 14 15  2  0
 16 17  1  0
 17 18  1  0
 18 19  1  6
 18 20  1  0
 20 21  1  6
 20 22  1  0
 21 14  1  0
 22 24  2  0
 22 23  1  0
M  END
$$$$
