CKI.pdb
     RDKit          3D

 24 23  0  0  1  0  0  0  0  0999 V2000
    9.2357  -15.6463   18.5850 N   0  0  0  0  0  0  0  0  0  0  0  0
    9.0094  -14.3356   19.1752 C   0  0  1  0  0  0  0  0  0  0  0  0
    8.0077  -13.6306   18.2670 C   0  0  0  0  0  0  0  0  0  0  0  0
    7.7282  -11.9248   18.8184 S   0  0  0  0  0  0  0  0  0  0  0  0
    8.3527  -14.5329   20.4974 C   0  0  0  0  0  0  0  0  0  0  0  0
    8.0682  -13.5367   21.2455 O   0  0  0  0  0  0  0  0  0  0  0  0
    8.0067  -15.8039   21.0051 N   0  0  0  0  0  0  0  0  0  0  0  0
    7.2523  -15.9865   22.2309 C   0  0  1  0  0  0  0  0  0  0  0  0
    6.7728  -17.4393   22.3471 C   0  0  0  0  0  0  0  0  0  0  0  0
    7.9125  -18.4044   22.1298 C   0  0  0  0  0  0  0  0  0  0  0  0
    7.3388  -19.8007   22.2925 C   0  0  0  0  0  0  0  0  0  0  0  0
    8.4201  -20.8557   22.1967 C   0  0  0  0  0  0  0  0  0  0  0  0
    9.2753  -20.8470   23.3587 N   0  0  0  0  0  0  0  0  0  0  0  0
    8.0351  -15.6155   23.4349 C   0  0  0  0  0  0  0  0  0  0  0  0
    9.2533  -15.8191   23.4315 O   0  0  0  0  0  0  0  0  0  0  0  0
    6.1247  -11.8691   27.6123 C   0  0  0  0  0  0  0  0  0  0  0  0
    6.2993  -12.9299   26.5895 C   0  0  0  0  0  0  0  0  0  0  0  0
    7.6724  -13.0646   26.0010 C   0  0  2  0  0  0  0  0  0  0  0  0
    7.8119  -11.9955   24.9541 C   0  0  0  0  0  0  0  0  0  0  0  0
    8.1527  -14.4108   25.6740 C   0  0  2  0  0  0  0  0  0  0  0  0
    7.4451  -15.0423   24.5765 N   0  0  0  0  0  0  0  0  0  0  0  0
    8.3981  -15.3814   26.7226 C   0  0  0  0  0  0  0  0  0  0  0  0
    9.2673  -15.3084   27.7875 O   0  0  0  0  0  0  0  0  0  0  0  0
    7.7310  -16.4829   26.6866 O   0  0  0  0  0  0  0  0  0  0  0  0
  2  5  1  0
  2  1  1  6
  3  2  1  0
  4  3  1  0
  5  6  2  0
  7  5  1  0
  7  8  1  0
  8  9  1  1
  9 10  1  0
 10 11  1  0
 11 12  1  0
 13 12  1  0
 14  8  1  0
 14 15  2  0
 16 17  1  0
 17 18  1  0
 18 19  1  6
 18 20  1  0
 20 21  1  6
 20 22  1  0
 21 14  1  0
 22 24  2  0
 22 23  1  0
M  END
$$$$
