CKI.pdb
     RDKit          3D

 24 23  0  0  1  0  0  0  0  0999 V2000
    7.3934  -15.8156   17.9701 N   0  0  0  0  0  0  0  0  0  0  0  0
    8.1765  -15.1279   18.9857 C   0  0  1  0  0  0  0  0  0  0  0  0
    7.8819  -13.6419   18.8120 C   0  0  0  0  0  0  0  0  0  0  0  0
    8.8283  -12.6542   20.0040 S   0  0  0  0  0  0  0  0  0  0  0  0
    7.6570  -15.5338   20.3213 C   0  0  0  0  0  0  0  0  0  0  0  0
    6.4418  -15.3132   20.6491 O   0  0  0  0  0  0  0  0  0  0  0  0
    8.4517  -16.1755   21.2959 N   0  0  0  0  0  0  0  0  0  0  0  0
    7.9433  -16.5671   22.5971 C   0  0  1  0  0  0  0  0  0  0  0  0
    8.2152  -18.0564   22.8464 C   0  0  0  0  0  0  0  0  0  0  0  0
    7.8272  -18.4497   24.2508 C   0  0  0  0  0  0  0  0  0  0  0  0
    7.0011  -19.7185   24.1360 C   0  0  0  0  0  0  0  0  0  0  0  0
    6.5400  -20.2010   25.4947 C   0  0  0  0  0  0  0  0  0  0  0  0
    7.6224  -20.7909   26.2445 N   0  0  0  0  0  0  0  0  0  0  0  0
    8.5236  -15.7572   23.6959 C   0  0  0  0  0  0  0  0  0  0  0  0
    9.7351  -15.5183   23.6754 O   0  0  0  0  0  0  0  0  0  0  0  0
    5.5802  -11.6828   25.9337 C   0  0  0  0  0  0  0  0  0  0  0  0
    6.6775  -12.5362   25.4145 C   0  0  0  0  0  0  0  0  0  0  0  0
    7.2966  -13.4892   26.3934 C   0  0  2  0  0  0  0  0  0  0  0  0
    7.7016  -12.6859   27.5973 C   0  0  0  0  0  0  0  0  0  0  0  0
    8.2458  -14.4827   25.8816 C   0  0  2  0  0  0  0  0  0  0  0  0
    7.7492  -15.2524   24.7568 N   0  0  0  0  0  0  0  0  0  0  0  0
    8.9659  -15.3520   26.7913 C   0  0  0  0  0  0  0  0  0  0  0  0
   10.1768  -15.1468   27.4129 O   0  0  0  0  0  0  0  0  0  0  0  0
    8.4325  -16.4882   27.0815 O   0  0  0  0  0  0  0  0  0  0  0  0
  2  5  1  0
  2  1  1  6
  3  2  1  0
  4  3  1  0
  5  6  2  0
  7  5  1  0
  7  8  1  0
  8  9  1  1
  9 10  1  0
 10 11  1  0
 11 12  1  0
 13 12  1  0
 14  8  1  0
 14 15  2  0
 16 17  1  0
 17 18  1  0
 18 19  1  1
 18 20  1  0
 20 21  1  6
 20 22  1  0
 21 14  1  0
 22 24  2  0
 22 23  1  0
M  END
$$$$
