CKI.pdb
     RDKit          3D

 24 23  0  0  1  0  0  0  0  0999 V2000
    7.2376  -15.1098   18.3166 N   0  0  0  0  0  0  0  0  0  0  0  0
    8.2898  -14.5950   19.1800 C   0  0  1  0  0  0  0  0  0  0  0  0
    8.0378  -13.0964   19.3057 C   0  0  0  0  0  0  0  0  0  0  0  0
    8.6754  -12.2123   17.8552 S   0  0  0  0  0  0  0  0  0  0  0  0
    8.1107  -15.1937   20.5319 C   0  0  0  0  0  0  0  0  0  0  0  0
    7.0024  -15.0834   21.1584 O   0  0  0  0  0  0  0  0  0  0  0  0
    9.1284  -15.9081   21.2005 N   0  0  0  0  0  0  0  0  0  0  0  0
    8.9434  -16.5096   22.5078 C   0  0  1  0  0  0  0  0  0  0  0  0
    9.8196  -17.7617   22.6442 C   0  0  0  0  0  0  0  0  0  0  0  0
    9.6749  -18.3768   24.0147 C   0  0  0  0  0  0  0  0  0  0  0  0
   10.5782  -19.5968   24.0429 C   0  0  0  0  0  0  0  0  0  0  0  0
   10.3803  -20.4002   25.3105 C   0  0  0  0  0  0  0  0  0  0  0  0
   11.2320  -21.5644   25.3401 N   0  0  0  0  0  0  0  0  0  0  0  0
    9.2402  -15.5631   23.6106 C   0  0  0  0  0  0  0  0  0  0  0  0
   10.3204  -14.9644   23.5985 O   0  0  0  0  0  0  0  0  0  0  0  0
    6.0033  -11.8495   27.0409 C   0  0  0  0  0  0  0  0  0  0  0  0
    6.6864  -13.1600   26.9070 C   0  0  0  0  0  0  0  0  0  0  0  0
    7.7269  -13.2589   25.8311 C   0  0  2  0  0  0  0  0  0  0  0  0
    7.0767  -12.8293   24.5461 C   0  0  0  0  0  0  0  0  0  0  0  0
    8.5775  -14.4529   25.8030 C   0  0  2  0  0  0  0  0  0  0  0  0
    8.3414  -15.3222   24.6660 N   0  0  0  0  0  0  0  0  0  0  0  0
    8.7693  -15.2501   26.9986 C   0  0  0  0  0  0  0  0  0  0  0  0
    9.2550  -14.8679   28.2287 O   0  0  0  0  0  0  0  0  0  0  0  0
    8.4565  -16.4986   26.9421 O   0  0  0  0  0  0  0  0  0  0  0  0
  2  5  1  0
  2  1  1  6
  3  2  1  0
  4  3  1  0
  5  6  2  0
  7  5  1  0
  7  8  1  0
  8  9  1  6
  9 10  1  0
 10 11  1  0
 11 12  1  0
 13 12  1  0
 14  8  1  0
 14 15  2  0
 16 17  1  0
 17 18  1  0
 18 19  1  6
 18 20  1  0
 20 21  1  6
 20 22  1  0
 21 14  1  0
 22 24  2  0
 22 23  1  0
M  END
$$$$
