CKI.pdb
     RDKit          3D

 24 23  0  0  1  0  0  0  0  0999 V2000
    4.8915  -17.5043   26.1880 N   0  0  0  0  0  0  0  0  0  0  0  0
    5.0148  -16.1353   25.7105 C   0  0  1  0  0  0  0  0  0  0  0  0
    5.2873  -15.2806   26.9436 C   0  0  0  0  0  0  0  0  0  0  0  0
    5.1860  -13.5150   26.5385 S   0  0  0  0  0  0  0  0  0  0  0  0
    6.2194  -16.0584   24.8379 C   0  0  0  0  0  0  0  0  0  0  0  0
    7.2772  -16.7186   25.1174 O   0  0  0  0  0  0  0  0  0  0  0  0
    6.2760  -15.2696   23.6684 N   0  0  0  0  0  0  0  0  0  0  0  0
    7.4902  -15.0896   22.8948 C   0  0  1  0  0  0  0  0  0  0  0  0
    7.2338  -14.1373   21.7194 C   0  0  0  0  0  0  0  0  0  0  0  0
    8.4327  -14.0706   20.8054 C   0  0  0  0  0  0  0  0  0  0  0  0
    8.0276  -13.2186   19.6158 C   0  0  0  0  0  0  0  0  0  0  0  0
    9.1406  -13.1344   18.5933 C   0  0  0  0  0  0  0  0  0  0  0  0
    9.5932  -14.4441   18.1915 N   0  0  0  0  0  0  0  0  0  0  0  0
    8.6138  -14.5824   23.7196 C   0  0  0  0  0  0  0  0  0  0  0  0
    8.6705  -13.3719   23.9577 O   0  0  0  0  0  0  0  0  0  0  0  0
   10.4055  -13.6857   28.8380 C   0  0  0  0  0  0  0  0  0  0  0  0
   10.9853  -13.9782   27.5037 C   0  0  0  0  0  0  0  0  0  0  0  0
   10.0387  -14.5176   26.4727 C   0  0  2  0  0  0  0  0  0  0  0  0
    9.0201  -15.3498   27.1997 C   0  0  0  0  0  0  0  0  0  0  0  0
   10.6050  -15.0567   25.2324 C   0  0  2  0  0  0  0  0  0  0  0  0
    9.6140  -15.4248   24.2391 N   0  0  0  0  0  0  0  0  0  0  0  0
   11.6530  -16.0576   25.2741 C   0  0  0  0  0  0  0  0  0  0  0  0
   12.9628  -15.9274   25.6771 O   0  0  0  0  0  0  0  0  0  0  0  0
   11.3583  -17.2494   24.8835 O   0  0  0  0  0  0  0  0  0  0  0  0
  2  5  1  0
  2  1  1  1
  3  2  1  0
  4  3  1  0
  5  6  2  0
  7  5  1  0
  7  8  1  0
  8  9  1  6
  9 10  1  0
 10 11  1  0
 11 12  1  0
 13 12  1  0
 14  8  1  0
 14 15  2  0
 16 17  1  0
 17 18  1  0
 18 19  1  1
 18 20  1  0
 20 21  1  6
 20 22  1  0
 21 14  1  0
 22 24  2  0
 22 23  1  0
M  END
$$$$
