CKI.pdb
     RDKit          3D

 24 23  0  0  1  0  0  0  0  0999 V2000
    6.7855  -13.8904   18.8589 N   0  0  0  0  0  0  0  0  0  0  0  0
    7.7896  -14.7502   19.4673 C   0  0  1  0  0  0  0  0  0  0  0  0
    9.0182  -13.8744   19.6879 C   0  0  0  0  0  0  0  0  0  0  0  0
    8.5527  -12.1231   19.7790 S   0  0  0  0  0  0  0  0  0  0  0  0
    7.2897  -15.1653   20.8076 C   0  0  0  0  0  0  0  0  0  0  0  0
    6.4067  -14.4761   21.4226 O   0  0  0  0  0  0  0  0  0  0  0  0
    7.7454  -16.3218   21.4768 N   0  0  0  0  0  0  0  0  0  0  0  0
    7.3331  -16.6693   22.8238 C   0  0  1  0  0  0  0  0  0  0  0  0
    7.4645  -18.1819   23.0450 C   0  0  0  0  0  0  0  0  0  0  0  0
    7.0372  -18.5638   24.4411 C   0  0  0  0  0  0  0  0  0  0  0  0
    7.1293  -20.0769   24.5270 C   0  0  0  0  0  0  0  0  0  0  0  0
    6.5968  -20.5876   25.8487 C   0  0  0  0  0  0  0  0  0  0  0  0
    6.5392  -22.0289   25.8771 N   0  0  0  0  0  0  0  0  0  0  0  0
    8.1080  -15.9389   23.8563 C   0  0  0  0  0  0  0  0  0  0  0  0
    9.3251  -15.8049   23.6946 O   0  0  0  0  0  0  0  0  0  0  0  0
    5.7103  -11.6202   26.0255 C   0  0  0  0  0  0  0  0  0  0  0  0
    6.6481  -12.6357   25.4857 C   0  0  0  0  0  0  0  0  0  0  0  0
    7.3928  -13.4553   26.4974 C   0  0  2  0  0  0  0  0  0  0  0  0
    8.0533  -12.4944   27.4456 C   0  0  0  0  0  0  0  0  0  0  0  0
    8.1811  -14.5940   26.0161 C   0  0  2  0  0  0  0  0  0  0  0  0
    7.5116  -15.3949   25.0088 N   0  0  0  0  0  0  0  0  0  0  0  0
    8.8734  -15.4595   26.9506 C   0  0  0  0  0  0  0  0  0  0  0  0
   10.0938  -15.2788   27.5613 O   0  0  0  0  0  0  0  0  0  0  0  0
    8.3005  -16.5658   27.2789 O   0  0  0  0  0  0  0  0  0  0  0  0
  2  5  1  0
  2  1  1  1
  3  2  1  0
  4  3  1  0
  5  6  2  0
  7  5  1  0
  7  8  1  0
  8  9  1  1
  9 10  1  0
 10 11  1  0
 11 12  1  0
 13 12  1  0
 14  8  1  0
 14 15  2  0
 16 17  1  0
 17 18  1  0
 18 19  1  6
 18 20  1  0
 20 21  1  1
 20 22  1  0
 21 14  1  0
 22 24  2  0
 22 23  1  0
M  END
$$$$
