CKI.pdb
     RDKit          3D

 24 23  0  0  1  0  0  0  0  0999 V2000
    7.5774  -13.1338   18.5465 N   0  0  0  0  0  0  0  0  0  0  0  0
    8.3386  -14.2984   18.9732 C   0  0  1  0  0  0  0  0  0  0  0  0
    9.7844  -13.8326   19.1064 C   0  0  0  0  0  0  0  0  0  0  0  0
    9.8903  -12.3519   20.1497 S   0  0  0  0  0  0  0  0  0  0  0  0
    7.8661  -14.6850   20.3318 C   0  0  0  0  0  0  0  0  0  0  0  0
    7.1437  -13.8928   21.0270 O   0  0  0  0  0  0  0  0  0  0  0  0
    8.1759  -15.9244   20.9327 N   0  0  0  0  0  0  0  0  0  0  0  0
    7.5401  -16.3933   22.1496 C   0  0  1  0  0  0  0  0  0  0  0  0
    7.4910  -17.9268   22.1653 C   0  0  0  0  0  0  0  0  0  0  0  0
    6.8661  -18.4353   23.4414 C   0  0  0  0  0  0  0  0  0  0  0  0
    6.8500  -19.9505   23.3457 C   0  0  0  0  0  0  0  0  0  0  0  0
    6.1933  -20.5726   24.5594 C   0  0  0  0  0  0  0  0  0  0  0  0
    7.0675  -20.5497   25.7069 N   0  0  0  0  0  0  0  0  0  0  0  0
    8.2230  -15.8976   23.3693 C   0  0  0  0  0  0  0  0  0  0  0  0
    9.4576  -15.9101   23.3997 O   0  0  0  0  0  0  0  0  0  0  0  0
    5.8604  -11.7043   25.9400 C   0  0  0  0  0  0  0  0  0  0  0  0
    6.8074  -12.6794   25.3448 C   0  0  0  0  0  0  0  0  0  0  0  0
    7.3318  -13.7414   26.2652 C   0  0  2  0  0  0  0  0  0  0  0  0
    7.8955  -13.0431   27.4707 C   0  0  0  0  0  0  0  0  0  0  0  0
    8.1123  -14.8361   25.6801 C   0  0  2  0  0  0  0  0  0  0  0  0
    7.5206  -15.4154   24.4891 N   0  0  0  0  0  0  0  0  0  0  0  0
    8.6537  -15.8868   26.5197 C   0  0  0  0  0  0  0  0  0  0  0  0
    9.8688  -15.9443   27.1639 O   0  0  0  0  0  0  0  0  0  0  0  0
    7.9272  -16.9332   26.7120 O   0  0  0  0  0  0  0  0  0  0  0  0
  2  5  1  0
  2  1  1  1
  3  2  1  0
  4  3  1  0
  5  6  2  0
  7  5  1  0
  7  8  1  0
  8  9  1  6
  9 10  1  0
 10 11  1  0
 11 12  1  0
 13 12  1  0
 14  8  1  0
 14 15  2  0
 16 17  1  0
 17 18  1  0
 18 19  1  1
 18 20  1  0
 20 21  1  6
 20 22  1  0
 21 14  1  0
 22 24  2  0
 22 23  1  0
M  END
$$$$
