FDC.pdb
     RDKit          3D

 26 26  0  0  1  0  0  0  0  0999 V2000
   24.4013   -9.6382  -18.0722 N   0  0  0  0  0  0  0  0  0  0  0  0
   24.1870   -9.2291  -16.6850 C   0  0  1  0  0  0  0  0  0  0  0  0
   25.4801   -8.8596  -16.0432 C   0  0  0  0  0  0  0  0  0  0  0  0
   26.5209   -9.8800  -16.0702 C   0  0  0  0  0  0  0  0  0  0  0  0
   26.4076  -11.0705  -15.3956 C   0  0  0  0  0  0  0  0  0  0  0  0
   27.4252  -12.0007  -15.4561 C   0  0  0  0  0  0  0  0  0  0  0  0
   28.5792  -11.7688  -16.1888 C   0  0  0  0  0  0  0  0  0  0  0  0
   28.6984  -10.5738  -16.8688 C   0  0  0  0  0  0  0  0  0  0  0  0
   27.6685   -9.6482  -16.7994 C   0  0  0  0  0  0  0  0  0  0  0  0
   23.1486   -8.1971  -16.6707 C   0  0  0  0  0  0  0  0  0  0  0  0
   23.0575   -7.3196  -17.5927 O   0  0  0  0  0  0  0  0  0  0  0  0
   22.1502   -8.0773  -15.6351 N   0  0  0  0  0  0  0  0  0  0  0  0
   21.1551   -7.0521  -15.6452 C   0  0  1  0  0  0  0  0  0  0  0  0
   20.0261   -7.3822  -14.6931 C   0  0  0  0  0  0  0  0  0  0  0  0
   19.3517   -8.6205  -15.1010 C   0  0  0  0  0  0  0  0  0  0  0  0
   19.0401   -8.7672  -16.3118 O   0  0  0  0  0  0  0  0  0  0  0  0
   21.6525   -5.7157  -15.2730 C   0  0  0  0  0  0  0  0  0  0  0  0
   22.6172   -5.4898  -14.5080 O   0  0  0  0  0  0  0  0  0  0  0  0
   19.0410   -9.6327  -14.2225 O   0  0  0  0  0  0  0  0  0  0  0  0
   20.9704   -4.5925  -15.8377 N   0  0  0  0  0  0  0  0  0  0  0  0
   21.4840   -3.2407  -15.7175 C   0  0  1  0  0  0  0  0  0  0  0  0
   22.7816   -3.1382  -16.5238 C   0  0  0  0  0  0  0  0  0  0  0  0
   23.3816   -1.4273  -16.3667 S   0  0  0  0  0  0  0  0  0  0  0  0
   20.4892   -2.2532  -16.2034 C   0  0  0  0  0  0  0  0  0  0  0  0
   19.5329   -2.6603  -17.1200 O   0  0  0  0  0  0  0  0  0  0  0  0
   20.4724   -1.0632  -15.8228 O   0  0  0  0  0  0  0  0  0  0  0  0
  2  1  1  6
  2 10  1  0
  3  2  1  0
  4  3  1  0
  5  4  2  0
  6  5  1  0
  7  6  2  0
  7  8  1  0
  8  9  2  0
  9  4  1  0
 10 12  1  0
 11 10  2  0
 12 13  1  0
 13 14  1  1
 14 15  1  0
 15 16  2  0
 17 13  1  0
 17 18  2  0
 19 15  1  0
 20 17  1  0
 21 20  1  0
 21 24  1  0
 21 22  1  6
 23 22  1  0
 24 25  1  0
 26 24  2  0
M  END
$$$$
