FDC.pdb
     RDKit          3D

 26 26  0  0  1  0  0  0  0  0999 V2000
   26.9979  -22.6890  -11.3787 N   0  0  0  0  0  0  0  0  0  0  0  0
   26.2179  -21.6051  -10.7833 C   0  0  1  0  0  0  0  0  0  0  0  0
   27.0623  -20.3904  -10.6046 C   0  0  0  0  0  0  0  0  0  0  0  0
   27.5942  -20.1740   -9.2647 C   0  0  0  0  0  0  0  0  0  0  0  0
   26.8898  -19.5170   -8.2863 C   0  0  0  0  0  0  0  0  0  0  0  0
   27.4431  -19.3400   -7.0345 C   0  0  0  0  0  0  0  0  0  0  0  0
   28.7099  -19.8120   -6.7265 C   0  0  0  0  0  0  0  0  0  0  0  0
   29.4224  -20.4731   -7.7063 C   0  0  0  0  0  0  0  0  0  0  0  0
   28.8545  -20.6440   -8.9594 C   0  0  0  0  0  0  0  0  0  0  0  0
   25.0035  -21.4274  -11.5817 C   0  0  0  0  0  0  0  0  0  0  0  0
   24.9072  -21.8778  -12.7717 O   0  0  0  0  0  0  0  0  0  0  0  0
   23.8251  -20.7415  -11.1084 N   0  0  0  0  0  0  0  0  0  0  0  0
   22.5889  -20.7588  -11.8246 C   0  0  1  0  0  0  0  0  0  0  0  0
   21.4442  -20.3096  -10.9426 C   0  0  0  0  0  0  0  0  0  0  0  0
   20.1609  -20.4826  -11.6337 C   0  0  0  0  0  0  0  0  0  0  0  0
   19.6042  -21.6111  -11.5992 O   0  0  0  0  0  0  0  0  0  0  0  0
   22.5670  -19.9026  -13.0241 C   0  0  0  0  0  0  0  0  0  0  0  0
   22.7926  -18.6715  -13.0385 O   0  0  0  0  0  0  0  0  0  0  0  0
   19.5338  -19.4690  -12.3211 O   0  0  0  0  0  0  0  0  0  0  0  0
   22.2623  -20.5407  -14.2673 N   0  0  0  0  0  0  0  0  0  0  0  0
   22.1639  -19.7973  -15.5096 C   0  0  1  0  0  0  0  0  0  0  0  0
   22.6601  -20.6880  -16.6518 C   0  0  0  0  0  0  0  0  0  0  0  0
   22.5628  -19.7083  -18.1823 S   0  0  0  0  0  0  0  0  0  0  0  0
   20.7666  -19.3640  -15.7559 C   0  0  0  0  0  0  0  0  0  0  0  0
   20.5203  -18.0339  -16.0571 O   0  0  0  0  0  0  0  0  0  0  0  0
   19.7942  -20.1469  -15.7043 O   0  0  0  0  0  0  0  0  0  0  0  0
  2  1  1  6
  2 10  1  0
  3  2  1  0
  4  3  1  0
  5  4  2  0
  6  5  1  0
  7  6  2  0
  7  8  1  0
  8  9  2  0
  9  4  1  0
 10 12  1  0
 11 10  2  0
 12 13  1  0
 13 14  1  1
 14 15  1  0
 15 16  2  0
 17 13  1  0
 17 18  2  0
 19 15  1  0
 20 17  1  0
 21 20  1  0
 21 24  1  0
 21 22  1  6
 23 22  1  0
 24 25  1  0
 26 24  2  0
M  END
$$$$
