FDC.pdb
     RDKit          3D

 26 26  0  0  1  0  0  0  0  0999 V2000
   25.4364  -21.4190   -6.9995 N   0  0  0  0  0  0  0  0  0  0  0  0
   25.9199  -20.4954   -8.0247 C   0  0  1  0  0  0  0  0  0  0  0  0
   27.4006  -20.3501   -7.9411 C   0  0  0  0  0  0  0  0  0  0  0  0
   27.9201  -19.8178   -6.6874 C   0  0  0  0  0  0  0  0  0  0  0  0
   28.6757  -20.5690   -5.8213 C   0  0  0  0  0  0  0  0  0  0  0  0
   29.1413  -20.0132   -4.6472 C   0  0  0  0  0  0  0  0  0  0  0  0
   28.8664  -18.6977   -4.3066 C   0  0  0  0  0  0  0  0  0  0  0  0
   28.1073  -17.9380   -5.1735 C   0  0  0  0  0  0  0  0  0  0  0  0
   27.6460  -18.5089   -6.3496 C   0  0  0  0  0  0  0  0  0  0  0  0
   25.3929  -20.9356   -9.3178 C   0  0  0  0  0  0  0  0  0  0  0  0
   25.5346  -22.1346   -9.7307 O   0  0  0  0  0  0  0  0  0  0  0  0
   24.6778  -20.0737  -10.2285 N   0  0  0  0  0  0  0  0  0  0  0  0
   24.2817  -20.4985  -11.5338 C   0  0  1  0  0  0  0  0  0  0  0  0
   22.9729  -19.8562  -11.9397 C   0  0  0  0  0  0  0  0  0  0  0  0
   22.5234  -20.3750  -13.2372 C   0  0  0  0  0  0  0  0  0  0  0  0
   22.5787  -19.6182  -14.2416 O   0  0  0  0  0  0  0  0  0  0  0  0
   25.2563  -20.1936  -12.5964 C   0  0  0  0  0  0  0  0  0  0  0  0
   25.7927  -19.0790  -12.7882 O   0  0  0  0  0  0  0  0  0  0  0  0
   22.0418  -21.6520  -13.4110 O   0  0  0  0  0  0  0  0  0  0  0  0
   25.6112  -21.2657  -13.4740 N   0  0  0  0  0  0  0  0  0  0  0  0
   26.5784  -21.0970  -14.5426 C   0  0  1  0  0  0  0  0  0  0  0  0
   27.3386  -22.4134  -14.7250 C   0  0  0  0  0  0  0  0  0  0  0  0
   28.4547  -22.2003  -16.1465 S   0  0  0  0  0  0  0  0  0  0  0  0
   25.9062  -20.7040  -15.8054 C   0  0  0  0  0  0  0  0  0  0  0  0
   26.4567  -19.6876  -16.5698 O   0  0  0  0  0  0  0  0  0  0  0  0
   24.8597  -21.2497  -16.2155 O   0  0  0  0  0  0  0  0  0  0  0  0
  2  1  1  1
  2 10  1  0
  3  2  1  0
  4  3  1  0
  5  4  2  0
  6  5  1  0
  7  6  2  0
  7  8  1  0
  8  9  2  0
  9  4  1  0
 10 12  1  0
 11 10  2  0
 12 13  1  0
 13 14  1  6
 14 15  1  0
 15 16  2  0
 17 13  1  0
 17 18  2  0
 19 15  1  0
 20 17  1  0
 21 20  1  0
 21 24  1  0
 21 22  1  6
 23 22  1  0
 24 25  1  0
 26 24  2  0
M  END
$$$$
