FDC.pdb
     RDKit          3D

 26 26  0  0  1  0  0  0  0  0999 V2000
   28.7805  -21.5689   -8.8729 N   0  0  0  0  0  0  0  0  0  0  0  0
   27.4312  -21.0061   -8.8875 C   0  0  1  0  0  0  0  0  0  0  0  0
   27.3993  -19.7051   -8.1618 C   0  0  0  0  0  0  0  0  0  0  0  0
   27.6947  -19.7623   -6.7354 C   0  0  0  0  0  0  0  0  0  0  0  0
   28.8678  -19.2872   -6.2031 C   0  0  0  0  0  0  0  0  0  0  0  0
   29.0947  -19.3677   -4.8443 C   0  0  0  0  0  0  0  0  0  0  0  0
   28.1606  -19.9226   -3.9830 C   0  0  0  0  0  0  0  0  0  0  0  0
   26.9796  -20.4018   -4.5127 C   0  0  0  0  0  0  0  0  0  0  0  0
   26.7646  -20.3145   -5.8795 C   0  0  0  0  0  0  0  0  0  0  0  0
   26.9668  -20.9751  -10.2757 C   0  0  0  0  0  0  0  0  0  0  0  0
   27.7799  -20.9172  -11.2574 O   0  0  0  0  0  0  0  0  0  0  0  0
   25.5751  -21.0071  -10.6574 N   0  0  0  0  0  0  0  0  0  0  0  0
   25.1565  -21.1029  -12.0201 C   0  0  1  0  0  0  0  0  0  0  0  0
   23.9859  -22.0514  -12.1629 C   0  0  0  0  0  0  0  0  0  0  0  0
   23.6837  -22.2893  -13.5794 C   0  0  0  0  0  0  0  0  0  0  0  0
   22.5045  -22.1119  -13.9829 O   0  0  0  0  0  0  0  0  0  0  0  0
   24.7464  -19.8224  -12.6236 C   0  0  0  0  0  0  0  0  0  0  0  0
   23.8783  -19.0490  -12.1597 O   0  0  0  0  0  0  0  0  0  0  0  0
   24.6283  -22.6991  -14.4919 O   0  0  0  0  0  0  0  0  0  0  0  0
   25.3999  -19.4421  -13.8376 N   0  0  0  0  0  0  0  0  0  0  0  0
   25.0484  -18.2297  -14.5532 C   0  0  1  0  0  0  0  0  0  0  0  0
   26.1914  -17.8787  -15.5095 C   0  0  0  0  0  0  0  0  0  0  0  0
   27.6032  -17.3466  -14.4919 S   0  0  0  0  0  0  0  0  0  0  0  0
   23.7794  -18.4075  -15.3009 C   0  0  0  0  0  0  0  0  0  0  0  0
   22.7731  -17.4671  -15.1470 O   0  0  0  0  0  0  0  0  0  0  0  0
   23.5731  -19.3717  -16.0683 O   0  0  0  0  0  0  0  0  0  0  0  0
  2  1  1  6
  2 10  1  0
  3  2  1  0
  4  3  1  0
  5  4  2  0
  6  5  1  0
  7  6  2  0
  7  8  1  0
  8  9  2  0
  9  4  1  0
 10 12  1  0
 11 10  2  0
 12 13  1  0
 13 14  1  1
 14 15  1  0
 15 16  2  0
 17 13  1  0
 17 18  2  0
 19 15  1  0
 20 17  1  0
 21 20  1  0
 21 24  1  0
 21 22  1  6
 23 22  1  0
 24 25  1  0
 26 24  2  0
M  END
$$$$
