FDC.pdb
     RDKit          3D

 26 26  0  0  1  0  0  0  0  0999 V2000
   16.0874  -17.9422    2.2448 N   0  0  0  0  0  0  0  0  0  0  0  0
   17.1961  -18.5746    2.9578 C   0  0  1  0  0  0  0  0  0  0  0  0
   18.1170  -17.5430    3.5129 C   0  0  0  0  0  0  0  0  0  0  0  0
   18.8538  -16.7520    2.5348 C   0  0  0  0  0  0  0  0  0  0  0  0
   19.5993  -17.3221    1.5326 C   0  0  0  0  0  0  0  0  0  0  0  0
   20.2774  -16.5240    0.6340 C   0  0  0  0  0  0  0  0  0  0  0  0
   20.2301  -15.1405    0.7109 C   0  0  0  0  0  0  0  0  0  0  0  0
   19.4823  -14.5621    1.7164 C   0  0  0  0  0  0  0  0  0  0  0  0
   18.8060  -15.3757    2.6124 C   0  0  0  0  0  0  0  0  0  0  0  0
   16.6344  -19.5177    3.9266 C   0  0  0  0  0  0  0  0  0  0  0  0
   15.4500  -19.3893    4.3837 O   0  0  0  0  0  0  0  0  0  0  0  0
   17.3514  -20.6582    4.4450 N   0  0  0  0  0  0  0  0  0  0  0  0
   16.8536  -21.4497    5.5253 C   0  0  1  0  0  0  0  0  0  0  0  0
   17.4843  -22.8254    5.5258 C   0  0  0  0  0  0  0  0  0  0  0  0
   17.2638  -23.4952    4.2385 C   0  0  0  0  0  0  0  0  0  0  0  0
   16.1086  -23.4770    3.7388 O   0  0  0  0  0  0  0  0  0  0  0  0
   17.0844  -20.8721    6.8614 C   0  0  0  0  0  0  0  0  0  0  0  0
   18.1831  -20.4498    7.2872 O   0  0  0  0  0  0  0  0  0  0  0  0
   18.2605  -24.1455    3.5482 O   0  0  0  0  0  0  0  0  0  0  0  0
   15.9542  -20.7922    7.7342 N   0  0  0  0  0  0  0  0  0  0  0  0
   16.0468  -20.2127    9.0614 C   0  0  1  0  0  0  0  0  0  0  0  0
   14.6773  -19.6434    9.4419 C   0  0  0  0  0  0  0  0  0  0  0  0
   14.4802  -18.0688    8.5510 S   0  0  0  0  0  0  0  0  0  0  0  0
   16.4823  -21.2282   10.0513 C   0  0  0  0  0  0  0  0  0  0  0  0
   16.8795  -20.8092   11.3112 O   0  0  0  0  0  0  0  0  0  0  0  0
   16.5084  -22.4521    9.8014 O   0  0  0  0  0  0  0  0  0  0  0  0
  2  1  1  1
  2 10  1  0
  3  2  1  0
  4  3  1  0
  5  4  2  0
  6  5  1  0
  7  6  2  0
  7  8  1  0
  8  9  2  0
  9  4  1  0
 10 12  1  0
 11 10  2  0
 12 13  1  0
 13 14  1  1
 14 15  1  0
 15 16  2  0
 17 13  1  0
 17 18  2  0
 19 15  1  0
 20 17  1  0
 21 20  1  0
 21 24  1  0
 21 22  1  1
 23 22  1  0
 24 25  1  0
 26 24  2  0
M  END
$$$$
