FDC.pdb
     RDKit          3D

 26 26  0  0  1  0  0  0  0  0999 V2000
   28.2094  -20.9506  -12.2346 N   0  0  0  0  0  0  0  0  0  0  0  0
   26.9639  -21.3078  -11.5574 C   0  0  1  0  0  0  0  0  0  0  0  0
   26.7321  -20.4174  -10.3852 C   0  0  0  0  0  0  0  0  0  0  0  0
   27.6569  -20.5767   -9.2697 C   0  0  0  0  0  0  0  0  0  0  0  0
   27.3603  -20.1558   -7.9969 C   0  0  0  0  0  0  0  0  0  0  0  0
   28.2746  -20.3318   -6.9783 C   0  0  0  0  0  0  0  0  0  0  0  0
   29.5051  -20.9304   -7.2015 C   0  0  0  0  0  0  0  0  0  0  0  0
   29.8085  -21.3554   -8.4791 C   0  0  0  0  0  0  0  0  0  0  0  0
   28.8808  -21.1724   -9.4929 C   0  0  0  0  0  0  0  0  0  0  0  0
   25.8953  -21.3385  -12.5578 C   0  0  0  0  0  0  0  0  0  0  0  0
   25.7670  -20.4212  -13.4356 O   0  0  0  0  0  0  0  0  0  0  0  0
   24.9072  -22.3871  -12.6448 N   0  0  0  0  0  0  0  0  0  0  0  0
   23.8517  -22.3672  -13.6076 C   0  0  1  0  0  0  0  0  0  0  0  0
   23.4589  -23.7718  -14.0114 C   0  0  0  0  0  0  0  0  0  0  0  0
   22.4701  -23.7400  -15.0957 C   0  0  0  0  0  0  0  0  0  0  0  0
   22.5100  -22.7906  -15.9212 O   0  0  0  0  0  0  0  0  0  0  0  0
   22.6230  -21.6930  -13.1517 C   0  0  0  0  0  0  0  0  0  0  0  0
   22.0352  -21.9147  -12.0690 O   0  0  0  0  0  0  0  0  0  0  0  0
   21.4971  -24.6997  -15.2552 O   0  0  0  0  0  0  0  0  0  0  0  0
   22.0656  -20.7070  -14.0250 N   0  0  0  0  0  0  0  0  0  0  0  0
   20.8266  -20.0178  -13.7157 C   0  0  1  0  0  0  0  0  0  0  0  0
   20.7663  -18.7290  -14.5400 C   0  0  0  0  0  0  0  0  0  0  0  0
   19.2247  -17.8723  -14.0913 S   0  0  0  0  0  0  0  0  0  0  0  0
   19.6556  -20.8799  -14.0099 C   0  0  0  0  0  0  0  0  0  0  0  0
   18.6252  -20.9493  -13.0859 O   0  0  0  0  0  0  0  0  0  0  0  0
   19.5536  -21.5513  -15.0587 O   0  0  0  0  0  0  0  0  0  0  0  0
  2  1  1  6
  2 10  1  0
  3  2  1  0
  4  3  1  0
  5  4  2  0
  6  5  1  0
  7  6  2  0
  7  8  1  0
  8  9  2  0
  9  4  1  0
 10 12  1  0
 11 10  2  0
 12 13  1  0
 13 14  1  1
 14 15  1  0
 15 16  2  0
 17 13  1  0
 17 18  2  0
 19 15  1  0
 20 17  1  0
 21 20  1  0
 21 24  1  0
 21 22  1  6
 23 22  1  0
 24 25  1  0
 26 24  2  0
M  END
$$$$
