FDC.pdb
     RDKit          3D

 26 26  0  0  1  0  0  0  0  0999 V2000
   15.9054  -11.4258  -11.0471 N   0  0  0  0  0  0  0  0  0  0  0  0
   14.9672  -10.3750  -11.4383 C   0  0  1  0  0  0  0  0  0  0  0  0
   13.6872  -10.5108  -10.6877 C   0  0  0  0  0  0  0  0  0  0  0  0
   12.8737  -11.6746  -11.0179 C   0  0  0  0  0  0  0  0  0  0  0  0
   12.4479  -11.9411  -12.2957 C   0  0  0  0  0  0  0  0  0  0  0  0
   11.6788  -13.0582  -12.5508 C   0  0  0  0  0  0  0  0  0  0  0  0
   11.3150  -13.9361  -11.5413 C   0  0  0  0  0  0  0  0  0  0  0  0
   11.7403  -13.6730  -10.2549 C   0  0  0  0  0  0  0  0  0  0  0  0
   12.5125  -12.5473  -10.0128 C   0  0  0  0  0  0  0  0  0  0  0  0
   15.6495   -9.0859  -11.3103 C   0  0  0  0  0  0  0  0  0  0  0  0
   16.3211   -8.7791  -10.2695 O   0  0  0  0  0  0  0  0  0  0  0  0
   15.6284   -8.0621  -12.3275 N   0  0  0  0  0  0  0  0  0  0  0  0
   16.1762   -6.7597  -12.1151 C   0  0  1  0  0  0  0  0  0  0  0  0
   16.3400   -6.0196  -13.4249 C   0  0  0  0  0  0  0  0  0  0  0  0
   17.0663   -4.7607  -13.2196 C   0  0  0  0  0  0  0  0  0  0  0  0
   17.2095   -3.9803  -14.1969 O   0  0  0  0  0  0  0  0  0  0  0  0
   15.3714   -5.8960  -11.2328 C   0  0  0  0  0  0  0  0  0  0  0  0
   14.1571   -5.6346  -11.3876 O   0  0  0  0  0  0  0  0  0  0  0  0
   17.6014   -4.3897  -12.0076 O   0  0  0  0  0  0  0  0  0  0  0  0
   16.0424   -5.3146  -10.1115 N   0  0  0  0  0  0  0  0  0  0  0  0
   15.3645   -4.4268   -9.1852 C   0  0  1  0  0  0  0  0  0  0  0  0
   15.5542   -4.9664   -7.7649 C   0  0  0  0  0  0  0  0  0  0  0  0
   14.6856   -3.8336   -6.6361 S   0  0  0  0  0  0  0  0  0  0  0  0
   15.8959   -3.0459   -9.2933 C   0  0  0  0  0  0  0  0  0  0  0  0
   15.1604   -2.0006   -8.7576 O   0  0  0  0  0  0  0  0  0  0  0  0
   16.9828   -2.7785   -9.8485 O   0  0  0  0  0  0  0  0  0  0  0  0
  2  1  1  1
  2 10  1  0
  3  2  1  0
  4  3  1  0
  5  4  2  0
  6  5  1  0
  7  6  2  0
  7  8  1  0
  8  9  2  0
  9  4  1  0
 10 12  1  0
 11 10  2  0
 12 13  1  0
 13 14  1  6
 14 15  1  0
 15 16  2  0
 17 13  1  0
 17 18  2  0
 19 15  1  0
 20 17  1  0
 21 20  1  0
 21 24  1  0
 21 22  1  1
 23 22  1  0
 24 25  1  0
 26 24  2  0
M  END
$$$$
