FDC.pdb
     RDKit          3D

 26 26  0  0  1  0  0  0  0  0999 V2000
   18.1373  -24.4673    2.5093 N   0  0  0  0  0  0  0  0  0  0  0  0
   18.7328  -25.6533    3.1228 C   0  0  1  0  0  0  0  0  0  0  0  0
   20.2182  -25.5374    3.1511 C   0  0  0  0  0  0  0  0  0  0  0  0
   20.8835  -25.5392    1.8540 C   0  0  0  0  0  0  0  0  0  0  0  0
   21.9612  -24.7359    1.5741 C   0  0  0  0  0  0  0  0  0  0  0  0
   22.5521  -24.7787    0.3278 C   0  0  0  0  0  0  0  0  0  0  0  0
   22.0850  -25.6211   -0.6695 C   0  0  0  0  0  0  0  0  0  0  0  0
   21.0019  -26.4308   -0.3936 C   0  0  0  0  0  0  0  0  0  0  0  0
   20.4180  -26.3778    0.8627 C   0  0  0  0  0  0  0  0  0  0  0  0
   18.0840  -25.8696    4.4174 C   0  0  0  0  0  0  0  0  0  0  0  0
   17.4125  -24.9520    4.9966 O   0  0  0  0  0  0  0  0  0  0  0  0
   18.1403  -27.1147    5.1453 N   0  0  0  0  0  0  0  0  0  0  0  0
   17.6629  -27.2406    6.4861 C   0  0  1  0  0  0  0  0  0  0  0  0
   17.3563  -28.6845    6.8197 C   0  0  0  0  0  0  0  0  0  0  0  0
   16.3861  -29.2397    5.8684 C   0  0  0  0  0  0  0  0  0  0  0  0
   15.3629  -28.5631    5.5859 O   0  0  0  0  0  0  0  0  0  0  0  0
   18.5984  -26.7526    7.5149 C   0  0  0  0  0  0  0  0  0  0  0  0
   19.7842  -27.1292    7.6519 O   0  0  0  0  0  0  0  0  0  0  0  0
   16.5392  -30.4682    5.2680 O   0  0  0  0  0  0  0  0  0  0  0  0
   18.1005  -25.7685    8.4256 N   0  0  0  0  0  0  0  0  0  0  0  0
   18.9392  -25.1742    9.4499 C   0  0  1  0  0  0  0  0  0  0  0  0
   19.6622  -23.9661    8.8483 C   0  0  0  0  0  0  0  0  0  0  0  0
   18.3856  -22.8155    8.2497 S   0  0  0  0  0  0  0  0  0  0  0  0
   18.1289  -24.7654   10.6235 C   0  0  0  0  0  0  0  0  0  0  0  0
   18.7759  -24.2783   11.7480 O   0  0  0  0  0  0  0  0  0  0  0  0
   16.8819  -24.8399   10.6465 O   0  0  0  0  0  0  0  0  0  0  0  0
  2  1  1  1
  2 10  1  0
  3  2  1  0
  4  3  1  0
  5  4  2  0
  6  5  1  0
  7  6  2  0
  7  8  1  0
  8  9  2  0
  9  4  1  0
 10 12  1  0
 11 10  2  0
 12 13  1  0
 13 14  1  1
 14 15  1  0
 15 16  2  0
 17 13  1  0
 17 18  2  0
 19 15  1  0
 20 17  1  0
 21 20  1  0
 21 24  1  0
 21 22  1  6
 23 22  1  0
 24 25  1  0
 26 24  2  0
M  END
$$$$
