SAR.pdb
     RDKit          3D

 23 22  0  0  1  0  0  0  0  0999 V2000
    4.4560  -18.2028   20.8937 O   0  0  0  0  0  0  0  0  0  0  0  0
    4.1648  -17.1755   20.0260 C   0  0  0  0  0  0  0  0  0  0  0  0
    5.2715  -16.8381   19.0733 C   0  0  2  0  0  0  0  0  0  0  0  0
    5.7231  -18.0814   18.4608 N   0  0  0  0  0  0  0  0  0  0  0  0
    6.3770  -16.1862   19.8240 C   0  0  0  0  0  0  0  0  0  0  0  0
    7.3448  -16.8632   20.2433 O   0  0  0  0  0  0  0  0  0  0  0  0
    7.2275  -12.6600   20.9740 C   0  0  0  0  0  0  0  0  0  0  0  0
    7.4286  -14.1294   20.8352 C   0  0  2  0  0  0  0  0  0  0  0  0
    6.3922  -14.7932   20.0974 N   0  0  0  0  0  0  0  0  0  0  0  0
    7.6132  -14.7672   22.1877 C   0  0  0  0  0  0  0  0  0  0  0  0
    6.6539  -14.8118   22.9989 O   0  0  0  0  0  0  0  0  0  0  0  0
    6.5799  -22.2129   23.2760 N   0  0  0  0  0  0  0  0  0  0  0  0
    5.5730  -21.2810   23.6698 C   0  0  0  0  0  0  0  0  0  0  0  0
    4.3084  -21.6205   23.7606 N   0  0  0  0  0  0  0  0  0  0  0  0
    5.8851  -19.9259   23.9865 N   0  0  0  0  0  0  0  0  0  0  0  0
    7.1864  -19.3751   23.7891 C   0  0  0  0  0  0  0  0  0  0  0  0
    7.3415  -17.9315   24.1398 C   0  0  0  0  0  0  0  0  0  0  0  0
    8.7237  -17.5036   23.6564 C   0  0  0  0  0  0  0  0  0  0  0  0
    8.9460  -16.0334   23.8308 C   0  0  2  0  0  0  0  0  0  0  0  0
    8.8643  -15.3194   22.5564 N   0  0  0  0  0  0  0  0  0  0  0  0
   10.3520  -15.8289   24.3265 C   0  0  0  0  0  0  0  0  0  0  0  0
   11.2625  -15.1372   23.5443 O   0  0  0  0  0  0  0  0  0  0  0  0
   10.7506  -16.2627   25.4356 O   0  0  0  0  0  0  0  0  0  0  0  0
  1  2  1  0
  3  4  1  1
  3  5  1  0
  3  2  1  0
  5  9  1  0
  5  6  2  0
  8  7  1  1
  8 10  1  0
  9  8  1  0
 10 20  1  0
 10 11  2  0
 13 12  1  0
 13 14  2  0
 15 16  1  0
 15 13  1  0
 16 17  1  0
 17 18  1  0
 19 18  1  6
 20 19  1  0
 21 19  1  0
 21 22  1  0
 23 21  2  0
M  END
$$$$
