SAR.pdb
     RDKit          3D

 23 22  0  0  1  0  0  0  0  0999 V2000
   13.8465  -16.0044   17.7451 O   0  0  0  0  0  0  0  0  0  0  0  0
   13.9232  -17.3584   17.5130 C   0  0  0  0  0  0  0  0  0  0  0  0
   12.6037  -18.0151   17.2416 C   0  0  2  0  0  0  0  0  0  0  0  0
   11.9669  -17.2937   16.1466 N   0  0  0  0  0  0  0  0  0  0  0  0
   11.7691  -17.9551   18.4706 C   0  0  0  0  0  0  0  0  0  0  0  0
   10.7997  -17.1637   18.5413 O   0  0  0  0  0  0  0  0  0  0  0  0
   11.5060  -19.9738   21.6784 C   0  0  0  0  0  0  0  0  0  0  0  0
   11.1379  -18.8890   20.7263 C   0  0  2  0  0  0  0  0  0  0  0  0
   12.0222  -18.7741   19.6021 N   0  0  0  0  0  0  0  0  0  0  0  0
   11.0177  -17.5716   21.4476 C   0  0  0  0  0  0  0  0  0  0  0  0
   11.9846  -16.7683   21.4566 O   0  0  0  0  0  0  0  0  0  0  0  0
    8.9685  -14.3977   18.0285 N   0  0  0  0  0  0  0  0  0  0  0  0
    8.3308  -13.4216   18.8519 C   0  0  0  0  0  0  0  0  0  0  0  0
    8.6517  -12.1501   18.7989 N   0  0  0  0  0  0  0  0  0  0  0  0
    7.3078  -13.7743   19.7810 N   0  0  0  0  0  0  0  0  0  0  0  0
    7.4172  -13.5034   21.1776 C   0  0  0  0  0  0  0  0  0  0  0  0
    8.7127  -13.8867   21.8146 C   0  0  0  0  0  0  0  0  0  0  0  0
    8.4812  -15.2166   22.5252 C   0  0  0  0  0  0  0  0  0  0  0  0
    9.7661  -15.9339   22.8007 C   0  0  2  0  0  0  0  0  0  0  0  0
    9.8194  -17.2279   22.1200 N   0  0  0  0  0  0  0  0  0  0  0  0
    9.8233  -16.2416   24.2725 C   0  0  0  0  0  0  0  0  0  0  0  0
   10.1700  -15.2447   25.1699 O   0  0  0  0  0  0  0  0  0  0  0  0
    9.5681  -17.3796   24.7386 O   0  0  0  0  0  0  0  0  0  0  0  0
  1  2  1  0
  3  4  1  6
  3  5  1  0
  3  2  1  0
  5  9  1  0
  5  6  2  0
  8  7  1  1
  8 10  1  0
  9  8  1  0
 10 20  1  0
 10 11  2  0
 13 12  1  0
 13 14  2  0
 15 16  1  0
 15 13  1  0
 16 17  1  0
 17 18  1  0
 19 18  1  1
 20 19  1  0
 21 19  1  0
 21 22  1  0
 23 21  2  0
M  END
$$$$
