SAR.pdb
     RDKit          3D

 23 22  0  0  1  0  0  0  0  0999 V2000
    7.6251  -17.3171   16.6409 O   0  0  0  0  0  0  0  0  0  0  0  0
    8.5646  -16.8573   15.7470 C   0  0  0  0  0  0  0  0  0  0  0  0
    8.7597  -15.3715   15.7642 C   0  0  2  0  0  0  0  0  0  0  0  0
    9.8712  -15.0604   14.8738 N   0  0  0  0  0  0  0  0  0  0  0  0
    9.0578  -14.9366   17.1544 C   0  0  0  0  0  0  0  0  0  0  0  0
   10.1398  -15.2556   17.7007 O   0  0  0  0  0  0  0  0  0  0  0  0
    7.3592  -12.7952   19.7990 C   0  0  0  0  0  0  0  0  0  0  0  0
    8.4037  -13.7087   19.2575 C   0  0  2  0  0  0  0  0  0  0  0  0
    8.1515  -14.1542   17.9170 N   0  0  0  0  0  0  0  0  0  0  0  0
    8.6090  -14.8820   20.1801 C   0  0  0  0  0  0  0  0  0  0  0  0
    7.9360  -15.9320   20.0226 O   0  0  0  0  0  0  0  0  0  0  0  0
   16.2313  -16.9715   21.6008 N   0  0  0  0  0  0  0  0  0  0  0  0
   15.9242  -15.5890   21.7790 C   0  0  0  0  0  0  0  0  0  0  0  0
   16.8538  -14.6626   21.7652 N   0  0  0  0  0  0  0  0  0  0  0  0
   14.5873  -15.1360   21.9833 N   0  0  0  0  0  0  0  0  0  0  0  0
   13.4734  -16.0274   22.0063 C   0  0  0  0  0  0  0  0  0  0  0  0
   12.1305  -15.3865   22.1357 C   0  0  0  0  0  0  0  0  0  0  0  0
   11.0979  -16.5088   22.0966 C   0  0  0  0  0  0  0  0  0  0  0  0
    9.6974  -15.9797   22.1011 C   0  0  2  0  0  0  0  0  0  0  0  0
    9.5577  -14.8128   21.2296 N   0  0  0  0  0  0  0  0  0  0  0  0
    9.3858  -15.4939   23.4907 C   0  0  0  0  0  0  0  0  0  0  0  0
    9.3758  -16.3912   24.5462 O   0  0  0  0  0  0  0  0  0  0  0  0
    9.1285  -14.2918   23.7479 O   0  0  0  0  0  0  0  0  0  0  0  0
  1  2  1  0
  3  4  1  6
  3  5  1  0
  3  2  1  0
  5  9  1  0
  5  6  2  0
  8  7  1  1
  8 10  1  0
  9  8  1  0
 10 20  1  0
 10 11  2  0
 13 12  1  0
 13 14  2  0
 15 16  1  0
 15 13  1  0
 16 17  1  0
 17 18  1  0
 19 18  1  1
 20 19  1  0
 21 19  1  0
 21 22  1  0
 23 21  2  0
M  END
$$$$
