SAR.pdb
     RDKit          3D

 23 22  0  0  1  0  0  0  0  0999 V2000
    7.9138  -17.1549   15.6881 O   0  0  0  0  0  0  0  0  0  0  0  0
    7.1314  -16.1031   15.2698 C   0  0  0  0  0  0  0  0  0  0  0  0
    7.8301  -14.7773   15.2621 C   0  0  2  0  0  0  0  0  0  0  0  0
    8.8712  -14.8312   14.2431 N   0  0  0  0  0  0  0  0  0  0  0  0
    8.4172  -14.5296   16.6055 C   0  0  0  0  0  0  0  0  0  0  0  0
    9.5796  -14.9158   16.8709 O   0  0  0  0  0  0  0  0  0  0  0  0
    7.3456  -12.7673   19.8014 C   0  0  0  0  0  0  0  0  0  0  0  0
    8.2400  -13.5878   18.9380 C   0  0  2  0  0  0  0  0  0  0  0  0
    7.7060  -13.8569   17.6336 N   0  0  0  0  0  0  0  0  0  0  0  0
    8.6169  -14.8692   19.6351 C   0  0  0  0  0  0  0  0  0  0  0  0
    8.0422  -15.9447   19.3296 O   0  0  0  0  0  0  0  0  0  0  0  0
   16.0848  -18.6313   21.6382 N   0  0  0  0  0  0  0  0  0  0  0  0
   15.1164  -19.5330   22.1734 C   0  0  0  0  0  0  0  0  0  0  0  0
   15.4407  -20.7341   22.5913 N   0  0  0  0  0  0  0  0  0  0  0  0
   13.7392  -19.1788   22.2836 N   0  0  0  0  0  0  0  0  0  0  0  0
   13.2248  -17.9457   21.7830 C   0  0  0  0  0  0  0  0  0  0  0  0
   11.7536  -17.7424   21.9423 C   0  0  0  0  0  0  0  0  0  0  0  0
   11.4087  -16.4314   21.2427 C   0  0  0  0  0  0  0  0  0  0  0  0
    9.9384  -16.1508   21.2754 C   0  0  2  0  0  0  0  0  0  0  0  0
    9.6176  -14.8738   20.6375 N   0  0  0  0  0  0  0  0  0  0  0  0
    9.5220  -16.0071   22.7142 C   0  0  0  0  0  0  0  0  0  0  0  0
    9.5536  -17.1099   23.5521 O   0  0  0  0  0  0  0  0  0  0  0  0
    9.1388  -14.9161   23.2043 O   0  0  0  0  0  0  0  0  0  0  0  0
  1  2  1  0
  3  4  1  6
  3  5  1  0
  3  2  1  0
  5  9  1  0
  5  6  2  0
  8  7  1  1
  8 10  1  0
  9  8  1  0
 10 20  1  0
 10 11  2  0
 13 12  1  0
 13 14  2  0
 15 16  1  0
 15 13  1  0
 16 17  1  0
 17 18  1  0
 19 18  1  1
 20 19  1  0
 21 19  1  0
 21 22  1  0
 23 21  2  0
M  END
$$$$
