SAR.pdb
     RDKit          3D

 23 22  0  0  1  0  0  0  0  0999 V2000
    6.2200  -16.6619   13.8133 O   0  0  0  0  0  0  0  0  0  0  0  0
    7.1625  -16.3140   14.7535 C   0  0  0  0  0  0  0  0  0  0  0  0
    7.3771  -14.8378   14.8974 C   0  0  2  0  0  0  0  0  0  0  0  0
    8.1753  -14.3935   13.7614 N   0  0  0  0  0  0  0  0  0  0  0  0
    8.0852  -14.5722   16.1775 C   0  0  0  0  0  0  0  0  0  0  0  0
    9.2909  -14.8869   16.3128 O   0  0  0  0  0  0  0  0  0  0  0  0
    7.2461  -12.9377   19.5078 C   0  0  0  0  0  0  0  0  0  0  0  0
    8.0903  -13.6937   18.5412 C   0  0  2  0  0  0  0  0  0  0  0  0
    7.4453  -13.9612   17.2876 N   0  0  0  0  0  0  0  0  0  0  0  0
    8.5940  -14.9693   19.1651 C   0  0  0  0  0  0  0  0  0  0  0  0
    8.0309  -16.0626   18.9048 O   0  0  0  0  0  0  0  0  0  0  0  0
   16.4091  -18.1980   21.2307 N   0  0  0  0  0  0  0  0  0  0  0  0
   15.4999  -19.1862   21.7148 C   0  0  0  0  0  0  0  0  0  0  0  0
   15.9119  -20.3433   22.1772 N   0  0  0  0  0  0  0  0  0  0  0  0
   14.0900  -18.9714   21.7223 N   0  0  0  0  0  0  0  0  0  0  0  0
   13.4912  -17.8072   21.1549 C   0  0  0  0  0  0  0  0  0  0  0  0
   12.0166  -17.6732   21.3511 C   0  0  0  0  0  0  0  0  0  0  0  0
   11.5817  -16.4175   20.6018 C   0  0  0  0  0  0  0  0  0  0  0  0
   10.1007  -16.2101   20.6717 C   0  0  2  0  0  0  0  0  0  0  0  0
    9.7016  -14.9484   20.0476 N   0  0  0  0  0  0  0  0  0  0  0  0
    9.7132  -16.0919   22.1208 C   0  0  0  0  0  0  0  0  0  0  0  0
    9.6957  -17.2223   22.9217 O   0  0  0  0  0  0  0  0  0  0  0  0
    9.3978  -14.9986   22.6523 O   0  0  0  0  0  0  0  0  0  0  0  0
  1  2  1  0
  3  4  1  6
  3  5  1  0
  3  2  1  0
  5  9  1  0
  5  6  2  0
  8  7  1  1
  8 10  1  0
  9  8  1  0
 10 20  1  0
 10 11  2  0
 13 12  1  0
 13 14  2  0
 15 16  1  0
 15 13  1  0
 16 17  1  0
 17 18  1  0
 19 18  1  1
 20 19  1  0
 21 19  1  0
 21 22  1  0
 23 21  2  0
M  END
$$$$
