WQK.pdb
     RDKit          3D

 33 34  0  0  1  0  0  0  0  0999 V2000
   26.4453  -22.1210   -9.7638 N   0  0  0  0  0  0  0  0  0  0  0  0
   26.2131  -20.7186   -9.5157 C   0  0  1  0  0  0  0  0  0  0  0  0
   27.5002  -19.9336   -9.5327 C   0  0  0  0  0  0  0  0  0  0  0  0
   28.4178  -20.4264   -8.4765 C   0  0  0  0  0  0  0  0  0  0  0  0
   29.4246  -21.3630   -8.5670 C   0  0  0  0  0  0  0  0  0  0  0  0
   29.9908  -21.4905   -7.3642 N   0  0  0  0  0  0  0  0  0  0  0  0
   29.4032  -20.6762   -6.4699 C   0  0  0  0  0  0  0  0  0  0  0  0
   29.6215  -20.4407   -5.1158 C   0  0  0  0  0  0  0  0  0  0  0  0
   28.8472  -19.5234   -4.4302 C   0  0  0  0  0  0  0  0  0  0  0  0
   27.8561  -18.8454   -5.1069 C   0  0  0  0  0  0  0  0  0  0  0  0
   27.6456  -19.0838   -6.4481 C   0  0  0  0  0  0  0  0  0  0  0  0
   28.4083  -20.0000   -7.1632 C   0  0  0  0  0  0  0  0  0  0  0  0
   25.2501  -20.2147  -10.5437 C   0  0  0  0  0  0  0  0  0  0  0  0
   25.4131  -19.0400  -10.9338 O   0  0  0  0  0  0  0  0  0  0  0  0
   25.9745  -19.2739  -14.7304 N   0  0  0  0  0  0  0  0  0  0  0  0
   25.9731  -20.6896  -14.5800 C   0  0  0  0  0  0  0  0  0  0  0  0
   26.9403  -21.3313  -15.0508 O   0  0  0  0  0  0  0  0  0  0  0  0
   24.8497  -21.3870  -13.8809 C   0  0  0  0  0  0  0  0  0  0  0  0
   23.9109  -20.3435  -13.3827 C   0  0  0  0  0  0  0  0  0  0  0  0
   23.2410  -20.7245  -12.0494 C   0  0  2  0  0  0  0  0  0  0  0  0
   24.2120  -20.9881  -11.0618 N   0  0  0  0  0  0  0  0  0  0  0  0
   22.1900  -21.7263  -12.2347 C   0  0  0  0  0  0  0  0  0  0  0  0
   22.4261  -22.9473  -12.4823 O   0  0  0  0  0  0  0  0  0  0  0  0
   20.8319  -21.3435  -12.1379 N   0  0  0  0  0  0  0  0  0  0  0  0
   19.7891  -22.3988  -12.0761 C   0  0  1  0  0  0  0  0  0  0  0  0
   19.3050  -22.5582  -10.6884 C   0  0  0  0  0  0  0  0  0  0  0  0
   18.9731  -23.9025  -10.1953 C   0  0  0  0  0  0  0  0  0  0  0  0
   18.1041  -24.0437   -9.0106 C   0  0  0  0  0  0  0  0  0  0  0  0
   18.5889  -24.9468   -7.9264 C   0  0  0  0  0  0  0  0  0  0  0  0
   19.4487  -24.4225   -6.9429 N   0  0  0  0  0  0  0  0  0  0  0  0
   18.8035  -22.0912  -13.0815 C   0  0  0  0  0  0  0  0  0  0  0  0
   18.8093  -20.9683  -13.6673 O   0  0  0  0  0  0  0  0  0  0  0  0
   17.8199  -22.9708  -13.4695 O   0  0  0  0  0  0  0  0  0  0  0  0
  2  1  1  6
  3  2  1  0
  4  3  1  0
  4  5  2  0
  6  5  1  0
  7  6  1  0
  8  7  2  0
  9  8  1  0
 10  9  2  0
 10 11  1  0
 11 12  2  0
 12  7  1  0
 12  4  1  0
 13  2  1  0
 13 14  2  0
 15 16  1  0
 16 17  2  0
 18 19  1  0
 18 16  1  0
 20 19  1  6
 20 21  1  0
 21 13  1  0
 22 23  2  0
 22 20  1  0
 24 22  1  0
 25 26  1  1
 25 24  1  0
 26 27  1  0
 27 28  1  0
 28 29  1  0
 29 30  1  0
 31 33  1  0
 31 25  1  0
 32 31  2  0
M  END
$$$$
