WQK.pdb
     RDKit          3D

 33 34  0  0  1  0  0  0  0  0999 V2000
   24.7533  -20.9257  -12.1400 N   0  0  0  0  0  0  0  0  0  0  0  0
   24.4857  -21.1481  -10.7396 C   0  0  1  0  0  0  0  0  0  0  0  0
   25.1426  -20.0999   -9.8779 C   0  0  0  0  0  0  0  0  0  0  0  0
   26.5098  -20.5303   -9.4960 C   0  0  0  0  0  0  0  0  0  0  0  0
   27.3810  -21.3582  -10.1703 C   0  0  0  0  0  0  0  0  0  0  0  0
   28.5020  -21.4648   -9.4522 N   0  0  0  0  0  0  0  0  0  0  0  0
   28.4172  -20.7409   -8.3223 C   0  0  0  0  0  0  0  0  0  0  0  0
   29.2975  -20.5259   -7.2661 C   0  0  0  0  0  0  0  0  0  0  0  0
   28.9375  -19.7119   -6.2082 C   0  0  0  0  0  0  0  0  0  0  0  0
   27.6944  -19.1163   -6.2147 C   0  0  0  0  0  0  0  0  0  0  0  0
   26.8278  -19.3338   -7.2643 C   0  0  0  0  0  0  0  0  0  0  0  0
   27.1623  -20.1470   -8.3410 C   0  0  0  0  0  0  0  0  0  0  0  0
   23.0026  -21.1680  -10.5441 C   0  0  0  0  0  0  0  0  0  0  0  0
   22.3918  -20.1081  -10.7940 O   0  0  0  0  0  0  0  0  0  0  0  0
   19.3675  -25.1413  -12.7752 N   0  0  0  0  0  0  0  0  0  0  0  0
   19.4383  -23.7662  -13.1372 C   0  0  0  0  0  0  0  0  0  0  0  0
   19.0282  -23.4363  -14.2738 O   0  0  0  0  0  0  0  0  0  0  0  0
   19.9860  -22.7488  -12.1876 C   0  0  0  0  0  0  0  0  0  0  0  0
   20.3350  -23.4535  -10.9227 C   0  0  0  0  0  0  0  0  0  0  0  0
   20.9352  -22.5165   -9.8581 C   0  0  2  0  0  0  0  0  0  0  0  0
   22.3048  -22.2931  -10.1067 N   0  0  0  0  0  0  0  0  0  0  0  0
   20.5615  -22.9226   -8.5024 C   0  0  0  0  0  0  0  0  0  0  0  0
   21.3969  -23.3373   -7.6433 O   0  0  0  0  0  0  0  0  0  0  0  0
   19.2070  -22.8596   -8.1001 N   0  0  0  0  0  0  0  0  0  0  0  0
   18.8199  -23.4266   -6.7834 C   0  0  1  0  0  0  0  0  0  0  0  0
   17.5024  -22.9004   -6.3679 C   0  0  0  0  0  0  0  0  0  0  0  0
   16.5954  -23.7651   -5.5996 C   0  0  0  0  0  0  0  0  0  0  0  0
   15.3110  -23.2193   -5.1189 C   0  0  0  0  0  0  0  0  0  0  0  0
   14.4228  -24.1548   -4.3693 C   0  0  0  0  0  0  0  0  0  0  0  0
   13.2200  -23.6602   -3.8304 N   0  0  0  0  0  0  0  0  0  0  0  0
   18.9537  -24.8586   -6.8737 C   0  0  0  0  0  0  0  0  0  0  0  0
   18.7347  -25.4585   -7.9675 O   0  0  0  0  0  0  0  0  0  0  0  0
   19.3238  -25.6514   -5.8125 O   0  0  0  0  0  0  0  0  0  0  0  0
  2  1  1  6
  3  2  1  0
  4  3  1  0
  4  5  2  0
  6  5  1  0
  7  6  1  0
  8  7  2  0
  9  8  1  0
 10  9  2  0
 10 11  1  0
 11 12  2  0
 12  7  1  0
 12  4  1  0
 13  2  1  0
 13 14  2  0
 15 16  1  0
 16 17  2  0
 18 19  1  0
 18 16  1  0
 20 19  1  6
 20 21  1  0
 21 13  1  0
 22 23  2  0
 22 20  1  0
 24 22  1  0
 25 26  1  6
 25 24  1  0
 26 27  1  0
 27 28  1  0
 28 29  1  0
 29 30  1  0
 31 33  1  0
 31 25  1  0
 32 31  2  0
M  END
$$$$
