WQK.pdb
     RDKit          3D

 33 34  0  0  1  0  0  0  0  0999 V2000
   28.1278  -21.8916  -13.4221 N   0  0  0  0  0  0  0  0  0  0  0  0
   27.0034  -21.4173  -12.6520 C   0  0  1  0  0  0  0  0  0  0  0  0
   27.2888  -20.0761  -12.0253 C   0  0  0  0  0  0  0  0  0  0  0  0
   28.2353  -20.2277  -10.8933 C   0  0  0  0  0  0  0  0  0  0  0  0
   29.6063  -20.3655  -10.9186 C   0  0  0  0  0  0  0  0  0  0  0  0
   30.0425  -20.4700   -9.6607 N   0  0  0  0  0  0  0  0  0  0  0  0
   29.0179  -20.4080   -8.7921 C   0  0  0  0  0  0  0  0  0  0  0  0
   28.9478  -20.4668   -7.4035 C   0  0  0  0  0  0  0  0  0  0  0  0
   27.7284  -20.3735   -6.7588 C   0  0  0  0  0  0  0  0  0  0  0  0
   26.5834  -20.2214   -7.5110 C   0  0  0  0  0  0  0  0  0  0  0  0
   26.6607  -20.1640   -8.8860 C   0  0  0  0  0  0  0  0  0  0  0  0
   27.8723  -20.2551   -9.5614 C   0  0  0  0  0  0  0  0  0  0  0  0
   25.8106  -21.3587  -13.5530 C   0  0  0  0  0  0  0  0  0  0  0  0
   25.9916  -20.8732  -14.6889 O   0  0  0  0  0  0  0  0  0  0  0  0
   22.4054  -26.0616  -14.2779 N   0  0  0  0  0  0  0  0  0  0  0  0
   21.5139  -25.1505  -14.9121 C   0  0  0  0  0  0  0  0  0  0  0  0
   20.5325  -25.6233  -15.5303 O   0  0  0  0  0  0  0  0  0  0  0  0
   21.7445  -23.6744  -14.8408 C   0  0  0  0  0  0  0  0  0  0  0  0
   22.9413  -23.4453  -13.9843 C   0  0  0  0  0  0  0  0  0  0  0  0
   23.3448  -21.9615  -13.8993 C   0  0  2  0  0  0  0  0  0  0  0  0
   24.5469  -21.8130  -13.1778 N   0  0  0  0  0  0  0  0  0  0  0  0
   22.2200  -21.1132  -13.5021 C   0  0  0  0  0  0  0  0  0  0  0  0
   21.7548  -21.0787  -12.3230 O   0  0  0  0  0  0  0  0  0  0  0  0
   21.6000  -20.2775  -14.4600 N   0  0  0  0  0  0  0  0  0  0  0  0
   20.4677  -19.4147  -14.0374 C   0  0  1  0  0  0  0  0  0  0  0  0
   20.1489  -18.4345  -15.0971 C   0  0  0  0  0  0  0  0  0  0  0  0
   20.1695  -17.0003  -14.7762 C   0  0  0  0  0  0  0  0  0  0  0  0
   19.9090  -16.0167  -15.8454 C   0  0  0  0  0  0  0  0  0  0  0  0
   20.0993  -14.5788  -15.4956 C   0  0  0  0  0  0  0  0  0  0  0  0
   19.8590  -13.6046  -16.4829 N   0  0  0  0  0  0  0  0  0  0  0  0
   19.4010  -20.2827  -13.6065 C   0  0  0  0  0  0  0  0  0  0  0  0
   18.5896  -19.9095  -12.7085 O   0  0  0  0  0  0  0  0  0  0  0  0
   19.1904  -21.5376  -14.1285 O   0  0  0  0  0  0  0  0  0  0  0  0
  2  1  1  6
  3  2  1  0
  4  3  1  0
  4  5  2  0
  6  5  1  0
  7  6  1  0
  8  7  2  0
  9  8  1  0
 10  9  2  0
 10 11  1  0
 11 12  2  0
 12  7  1  0
 12  4  1  0
 13  2  1  0
 13 14  2  0
 15 16  1  0
 16 17  2  0
 18 19  1  0
 18 16  1  0
 20 19  1  1
 20 21  1  0
 21 13  1  0
 22 23  2  0
 22 20  1  0
 24 22  1  0
 25 26  1  6
 25 24  1  0
 26 27  1  0
 27 28  1  0
 28 29  1  0
 29 30  1  0
 31 33  1  0
 31 25  1  0
 32 31  2  0
M  END
$$$$
