WQK.pdb
     RDKit          3D

 33 34  0  0  1  0  0  0  0  0999 V2000
   26.5320  -21.3292  -14.2273 N   0  0  0  0  0  0  0  0  0  0  0  0
   25.4380  -20.3905  -14.2925 C   0  0  1  0  0  0  0  0  0  0  0  0
   25.2111  -19.9028  -15.7009 C   0  0  0  0  0  0  0  0  0  0  0  0
   26.4425  -19.2672  -16.2303 C   0  0  0  0  0  0  0  0  0  0  0  0
   27.4685  -19.8310  -16.9573 C   0  0  0  0  0  0  0  0  0  0  0  0
   28.3701  -18.8815  -17.2200 N   0  0  0  0  0  0  0  0  0  0  0  0
   27.9893  -17.7024  -16.6977 C   0  0  0  0  0  0  0  0  0  0  0  0
   28.5666  -16.4361  -16.6955 C   0  0  0  0  0  0  0  0  0  0  0  0
   27.9364  -15.3796  -16.0648 C   0  0  0  0  0  0  0  0  0  0  0  0
   26.7281  -15.5984  -15.4383 C   0  0  0  0  0  0  0  0  0  0  0  0
   26.1624  -16.8553  -15.4446 C   0  0  0  0  0  0  0  0  0  0  0  0
   26.7729  -17.9361  -16.0704 C   0  0  0  0  0  0  0  0  0  0  0  0
   24.2174  -21.0554  -13.7393 C   0  0  0  0  0  0  0  0  0  0  0  0
   24.4060  -22.0441  -13.0005 O   0  0  0  0  0  0  0  0  0  0  0  0
   22.5000  -21.1018  -10.0060 N   0  0  0  0  0  0  0  0  0  0  0  0
   21.4025  -20.1974   -9.9381 C   0  0  0  0  0  0  0  0  0  0  0  0
   20.6442  -20.2677   -8.9437 O   0  0  0  0  0  0  0  0  0  0  0  0
   21.1646  -19.1951  -11.0224 C   0  0  0  0  0  0  0  0  0  0  0  0
   22.2304  -19.3766  -12.0469 C   0  0  0  0  0  0  0  0  0  0  0  0
   21.8223  -20.3427  -13.1746 C   0  0  2  0  0  0  0  0  0  0  0  0
   22.9209  -20.6216  -14.0131 N   0  0  0  0  0  0  0  0  0  0  0  0
   20.5774  -19.9278  -13.8232 C   0  0  0  0  0  0  0  0  0  0  0  0
   20.3318  -18.7302  -14.1598 O   0  0  0  0  0  0  0  0  0  0  0  0
   19.5785  -20.8893  -14.1026 N   0  0  0  0  0  0  0  0  0  0  0  0
   18.6690  -20.6684  -15.2554 C   0  0  1  0  0  0  0  0  0  0  0  0
   17.9970  -21.9320  -15.6256 C   0  0  0  0  0  0  0  0  0  0  0  0
   17.2531  -22.6755  -14.5988 C   0  0  0  0  0  0  0  0  0  0  0  0
   16.5369  -23.9096  -14.9766 C   0  0  0  0  0  0  0  0  0  0  0  0
   15.7623  -24.5925  -13.8997 C   0  0  0  0  0  0  0  0  0  0  0  0
   14.9952  -25.7250  -14.2321 N   0  0  0  0  0  0  0  0  0  0  0  0
   17.8227  -19.5484  -14.9292 C   0  0  0  0  0  0  0  0  0  0  0  0
   17.0753  -19.0278  -15.8092 O   0  0  0  0  0  0  0  0  0  0  0  0
   17.7633  -18.9862  -13.6754 O   0  0  0  0  0  0  0  0  0  0  0  0
  2  1  1  6
  3  2  1  0
  4  3  1  0
  4  5  2  0
  6  5  1  0
  7  6  1  0
  8  7  2  0
  9  8  1  0
 10  9  2  0
 10 11  1  0
 11 12  2  0
 12  7  1  0
 12  4  1  0
 13  2  1  0
 13 14  2  0
 15 16  1  0
 16 17  2  0
 18 19  1  0
 18 16  1  0
 20 19  1  1
 20 21  1  0
 21 13  1  0
 22 23  2  0
 22 20  1  0
 24 22  1  0
 25 26  1  1
 25 24  1  0
 26 27  1  0
 27 28  1  0
 28 29  1  0
 29 30  1  0
 31 33  1  0
 31 25  1  0
 32 31  2  0
M  END
$$$$
