WQK.pdb
     RDKit          3D

 33 34  0  0  1  0  0  0  0  0999 V2000
   25.6249  -20.6818  -14.3824 N   0  0  0  0  0  0  0  0  0  0  0  0
   24.6029  -20.2808  -13.4459 C   0  0  1  0  0  0  0  0  0  0  0  0
   23.2371  -20.7424  -13.8866 C   0  0  0  0  0  0  0  0  0  0  0  0
   22.8343  -20.0433  -15.1314 C   0  0  0  0  0  0  0  0  0  0  0  0
   23.3526  -20.1630  -16.4026 C   0  0  0  0  0  0  0  0  0  0  0  0
   22.6788  -19.3412  -17.2115 N   0  0  0  0  0  0  0  0  0  0  0  0
   21.7285  -18.6746  -16.5328 C   0  0  0  0  0  0  0  0  0  0  0  0
   20.7822  -17.7268  -16.9109 C   0  0  0  0  0  0  0  0  0  0  0  0
   19.9085  -17.1983  -15.9790 C   0  0  0  0  0  0  0  0  0  0  0  0
   19.9880  -17.6235  -14.6702 C   0  0  0  0  0  0  0  0  0  0  0  0
   20.9279  -18.5626  -14.3031 C   0  0  0  0  0  0  0  0  0  0  0  0
   21.8191  -19.1114  -15.2179 C   0  0  0  0  0  0  0  0  0  0  0  0
   24.9596  -20.8299  -12.1007 C   0  0  0  0  0  0  0  0  0  0  0  0
   25.3925  -22.0006  -12.0719 O   0  0  0  0  0  0  0  0  0  0  0  0
   27.4836  -18.2137   -7.0923 N   0  0  0  0  0  0  0  0  0  0  0  0
   27.1694  -19.5539   -6.7288 C   0  0  0  0  0  0  0  0  0  0  0  0
   27.8794  -20.1082   -5.8584 O   0  0  0  0  0  0  0  0  0  0  0  0
   26.0261  -20.2756   -7.3682 C   0  0  0  0  0  0  0  0  0  0  0  0
   25.9044  -19.7790   -8.7672 C   0  0  0  0  0  0  0  0  0  0  0  0
   24.7997  -20.4956   -9.5657 C   0  0  2  0  0  0  0  0  0  0  0  0
   24.8282  -20.1014  -10.9190 N   0  0  0  0  0  0  0  0  0  0  0  0
   23.5071  -20.4358   -8.8814 C   0  0  0  0  0  0  0  0  0  0  0  0
   22.6545  -19.5185   -9.0799 O   0  0  0  0  0  0  0  0  0  0  0  0
   23.1625  -21.4388   -7.9456 N   0  0  0  0  0  0  0  0  0  0  0  0
   21.7276  -21.7058   -7.6721 C   0  0  1  0  0  0  0  0  0  0  0  0
   21.0816  -22.2964   -8.8634 C   0  0  0  0  0  0  0  0  0  0  0  0
   19.6460  -22.6088   -8.8191 C   0  0  0  0  0  0  0  0  0  0  0  0
   18.9967  -23.1939  -10.0086 C   0  0  0  0  0  0  0  0  0  0  0  0
   17.5443  -23.5145   -9.8908 C   0  0  0  0  0  0  0  0  0  0  0  0
   16.8725  -24.0327  -11.0141 N   0  0  0  0  0  0  0  0  0  0  0  0
   21.6548  -22.4605   -6.4465 C   0  0  0  0  0  0  0  0  0  0  0  0
   22.4714  -23.4018   -6.2201 O   0  0  0  0  0  0  0  0  0  0  0  0
   20.7257  -22.2157   -5.4625 O   0  0  0  0  0  0  0  0  0  0  0  0
  2  1  1  6
  3  2  1  0
  4  3  1  0
  4  5  2  0
  6  5  1  0
  7  6  1  0
  8  7  2  0
  9  8  1  0
 10  9  2  0
 10 11  1  0
 11 12  2  0
 12  7  1  0
 12  4  1  0
 13  2  1  0
 13 14  2  0
 15 16  1  0
 16 17  2  0
 18 19  1  0
 18 16  1  0
 20 19  1  1
 20 21  1  0
 21 13  1  0
 22 23  2  0
 22 20  1  0
 24 22  1  0
 25 26  1  6
 25 24  1  0
 26 27  1  0
 27 28  1  0
 28 29  1  0
 29 30  1  0
 31 33  1  0
 31 25  1  0
 32 31  2  0
M  END
$$$$
