WQK.pdb
     RDKit          3D

 33 34  0  0  1  0  0  0  0  0999 V2000
   27.3636  -22.3978  -12.3444 N   0  0  0  0  0  0  0  0  0  0  0  0
   26.3213  -21.5523  -11.8143 C   0  0  1  0  0  0  0  0  0  0  0  0
   26.8699  -20.2317  -11.3370 C   0  0  0  0  0  0  0  0  0  0  0  0
   27.9538  -20.4515  -10.3484 C   0  0  0  0  0  0  0  0  0  0  0  0
   29.2550  -20.8533  -10.5595 C   0  0  0  0  0  0  0  0  0  0  0  0
   29.8735  -20.9163   -9.3776 N   0  0  0  0  0  0  0  0  0  0  0  0
   29.0383  -20.5725   -8.3814 C   0  0  0  0  0  0  0  0  0  0  0  0
   29.1960  -20.4800   -7.0018 C   0  0  0  0  0  0  0  0  0  0  0  0
   28.1394  -20.0901   -6.2002 C   0  0  0  0  0  0  0  0  0  0  0  0
   26.9276  -19.7942   -6.7869 C   0  0  0  0  0  0  0  0  0  0  0  0
   26.7789  -19.8880   -8.1540 C   0  0  0  0  0  0  0  0  0  0  0  0
   27.8232  -20.2773   -8.9849 C   0  0  0  0  0  0  0  0  0  0  0  0
   25.2858  -21.3638  -12.8775 C   0  0  0  0  0  0  0  0  0  0  0  0
   25.4620  -20.4124  -13.6666 O   0  0  0  0  0  0  0  0  0  0  0  0
   24.4705  -24.8075  -17.4090 N   0  0  0  0  0  0  0  0  0  0  0  0
   24.7657  -23.9837  -16.2859 C   0  0  0  0  0  0  0  0  0  0  0  0
   25.2112  -22.8332  -16.5024 O   0  0  0  0  0  0  0  0  0  0  0  0
   24.5499  -24.4794  -14.8914 C   0  0  0  0  0  0  0  0  0  0  0  0
   23.2460  -23.9381  -14.4167 C   0  0  0  0  0  0  0  0  0  0  0  0
   23.3011  -22.4333  -14.0942 C   0  0  2  0  0  0  0  0  0  0  0  0
   24.1689  -22.1878  -13.0106 N   0  0  0  0  0  0  0  0  0  0  0  0
   21.9639  -21.8421  -14.0242 C   0  0  0  0  0  0  0  0  0  0  0  0
   21.0552  -22.0693  -14.8789 O   0  0  0  0  0  0  0  0  0  0  0  0
   21.6384  -20.9691  -12.9601 N   0  0  0  0  0  0  0  0  0  0  0  0
   20.2933  -20.3409  -12.9300 C   0  0  1  0  0  0  0  0  0  0  0  0
   20.1887  -19.3066  -13.9811 C   0  0  0  0  0  0  0  0  0  0  0  0
   18.9111  -18.6051  -14.1715 C   0  0  0  0  0  0  0  0  0  0  0  0
   18.7512  -17.6942  -15.3218 C   0  0  0  0  0  0  0  0  0  0  0  0
   17.4141  -17.0539  -15.4901 C   0  0  0  0  0  0  0  0  0  0  0  0
   17.1844  -16.2555  -16.6265 N   0  0  0  0  0  0  0  0  0  0  0  0
   19.3199  -21.4032  -12.9582 C   0  0  0  0  0  0  0  0  0  0  0  0
   19.5540  -22.4750  -13.5910 O   0  0  0  0  0  0  0  0  0  0  0  0
   18.1066  -21.3336  -12.3141 O   0  0  0  0  0  0  0  0  0  0  0  0
  2  1  1  6
  3  2  1  0
  4  3  1  0
  4  5  2  0
  6  5  1  0
  7  6  1  0
  8  7  2  0
  9  8  1  0
 10  9  2  0
 10 11  1  0
 11 12  2  0
 12  7  1  0
 12  4  1  0
 13  2  1  0
 13 14  2  0
 15 16  1  0
 16 17  2  0
 18 19  1  0
 18 16  1  0
 20 19  1  1
 20 21  1  0
 21 13  1  0
 22 23  2  0
 22 20  1  0
 24 22  1  0
 25 26  1  6
 25 24  1  0
 26 27  1  0
 27 28  1  0
 28 29  1  0
 29 30  1  0
 31 33  1  0
 31 25  1  0
 32 31  2  0
M  END
$$$$
